=
     RDKit          3D

 72 76  0  0  0  0  0  0  0  0999 V2000
    0.1620   65.6290   70.4190 C   0  0  0  0  0  0  0  0  0  0  0  0
    0.7080   64.3470   70.2930 C   0  0  0  0  0  0  0  0  0  0  0  0
    0.8610   63.5230   71.4150 C   0  0  0  0  0  0  0  0  0  0  0  0
    0.4620   63.9730   72.6740 C   0  0  0  0  0  0  0  0  0  0  0  0
   -0.1020   65.2470   72.7930 C   0  0  0  0  0  0  0  0  0  0  0  0
   -0.2570   66.0740   71.6760 C   0  0  0  0  0  0  0  0  0  0  0  0
   -0.9470   66.2900   68.4470 O   0  0  0  0  0  0  0  0  0  0  0  0
    0.0160   66.4570   69.1890 C   0  0  0  0  0  0  0  0  0  0  0  0
    1.0080   67.3800   68.9440 N   0  0  0  0  0  0  0  0  0  0  0  0
    0.8790   68.3750   67.8950 C   0  0  0  0  0  0  0  0  0  0  0  0
    1.7290   69.6240   68.1600 C   0  0  0  0  0  0  0  0  0  0  0  0
    3.0210   69.6270   67.3960 C   0  0  0  0  0  0  0  0  0  0  0  0
    3.1970   69.2060   66.0920 C   0  0  0  0  0  0  0  0  0  0  0  0
    4.5140   69.3660   65.7600 N   0  0  0  0  0  0  0  0  0  0  0  0
    5.2100   69.8970   66.8200 C   0  0  0  0  0  0  0  0  0  0  0  0
    4.3020   70.0630   67.8670 C   0  0  0  0  0  0  0  0  0  0  0  0
    4.7730   70.5880   69.0880 C   0  0  0  0  0  0  0  0  0  0  0  0
    6.1250   70.9300   69.2160 C   0  0  0  0  0  0  0  0  0  0  0  0
    7.0050   70.7530   68.1510 C   0  0  0  0  0  0  0  0  0  0  0  0
    6.5650   70.2320   66.9310 C   0  0  0  0  0  0  0  0  0  0  0  0
    0.5460   63.2820   73.8480 O   0  0  0  0  0  0  0  0  0  0  0  0
    0.3080   61.8740   73.8420 C   0  0  0  0  0  0  0  0  0  0  0  0
   -1.1870   61.5780   73.9450 C   0  0  0  0  0  0  0  0  0  0  0  0
   -1.4890   60.1110   73.6290 C   0  0  0  0  0  0  0  0  0  0  0  0
   -0.7830   59.1560   74.5920 C   0  0  0  0  0  0  0  0  0  0  0  0
    0.0690   58.2430   73.9030 O   0  0  0  0  0  0  0  0  0  0  0  0
    1.4110   58.4920   73.8430 C   0  0  0  0  0  0  0  0  0  0  0  0
    2.3030   58.4860   74.9160 C   0  0  0  0  0  0  0  0  0  0  0  0
    3.6610   58.7510   74.7070 C   0  0  0  0  0  0  0  0  0  0  0  0
    4.1340   59.0310   73.4260 C   0  0  0  0  0  0  0  0  0  0  0  0
    3.2420   59.0560   72.3500 C   0  0  0  0  0  0  0  0  0  0  0  0
    1.8890   58.7690   72.5600 C   0  0  0  0  0  0  0  0  0  0  0  0
    3.7020   59.3330   70.9680 C   0  0  0  0  0  0  0  0  0  0  0  0
    3.9150   58.3930   70.2070 O   0  0  0  0  0  0  0  0  0  0  0  0
    3.9160   60.7230   70.4860 C   0  0  0  0  0  0  0  0  0  0  0  0
    3.2790   61.1250   69.3070 C   0  0  0  0  0  0  0  0  0  0  0  0
    3.4470   62.4260   68.8280 C   0  0  0  0  0  0  0  0  0  0  0  0
    4.2420   63.3290   69.5330 C   0  0  0  0  0  0  0  0  0  0  0  0
    4.8620   62.9390   70.7210 C   0  0  0  0  0  0  0  0  0  0  0  0
    4.6960   61.6390   71.2030 C   0  0  0  0  0  0  0  0  0  0  0  0
    1.0201   63.9828   69.3031 H   0  0  0  0  0  0  0  0  0  0  0  0
    1.2966   62.5191   71.3035 H   0  0  0  0  0  0  0  0  0  0  0  0
   -0.4289   65.6043   73.7807 H   0  0  0  0  0  0  0  0  0  0  0  0
   -0.7072   67.0716   71.7863 H   0  0  0  0  0  0  0  0  0  0  0  0
    1.8624   67.3640   69.5191 H   0  0  0  0  0  0  0  0  0  0  0  0
    1.1987   67.9267   66.9427 H   0  0  0  0  0  0  0  0  0  0  0  0
   -0.1745   68.6895   67.8614 H   0  0  0  0  0  0  0  0  0  0  0  0
    1.1479   70.5116   67.8694 H   0  0  0  0  0  0  0  0  0  0  0  0
    1.9800   69.6301   69.2310 H   0  0  0  0  0  0  0  0  0  0  0  0
    2.4110   68.8093   65.4325 H   0  0  0  0  0  0  0  0  0  0  0  0
    4.9252   69.1236   64.8473 H   0  0  0  0  0  0  0  0  0  0  0  0
    4.0836   70.7279   69.9337 H   0  0  0  0  0  0  0  0  0  0  0  0
    6.4953   71.3422   70.1663 H   0  0  0  0  0  0  0  0  0  0  0  0
    8.0633   71.0277   68.2720 H   0  0  0  0  0  0  0  0  0  0  0  0
    7.2580   70.0903   66.0886 H   0  0  0  0  0  0  0  0  0  0  0  0
    0.6971   61.4461   72.9063 H   0  0  0  0  0  0  0  0  0  0  0  0
    0.8174   61.4258   74.7078 H   0  0  0  0  0  0  0  0  0  0  0  0
   -1.5264   61.8011   74.9673 H   0  0  0  0  0  0  0  0  0  0  0  0
   -1.7155   62.2058   73.2125 H   0  0  0  0  0  0  0  0  0  0  0  0
   -2.5746   59.9491   73.7017 H   0  0  0  0  0  0  0  0  0  0  0  0
   -1.1203   59.9012   72.6141 H   0  0  0  0  0  0  0  0  0  0  0  0
   -0.1779   59.7445   75.2974 H   0  0  0  0  0  0  0  0  0  0  0  0
   -1.5518   58.5735   75.1208 H   0  0  0  0  0  0  0  0  0  0  0  0
    1.9369   58.2719   75.9310 H   0  0  0  0  0  0  0  0  0  0  0  0
    4.3585   58.7383   75.5575 H   0  0  0  0  0  0  0  0  0  0  0  0
    5.2032   59.2312   73.2627 H   0  0  0  0  0  0  0  0  0  0  0  0
    1.1949   58.7614   71.7067 H   0  0  0  0  0  0  0  0  0  0  0  0
    2.6446   60.4149   68.7563 H   0  0  0  0  0  0  0  0  0  0  0  0
    2.9530   62.7380   67.8960 H   0  0  0  0  0  0  0  0  0  0  0  0
    4.3808   64.3514   69.1518 H   0  0  0  0  0  0  0  0  0  0  0  0
    5.4821   63.6565   71.2783 H   0  0  0  0  0  0  0  0  0  0  0  0
    5.1771   61.3348   72.1443 H   0  0  0  0  0  0  0  0  0  0  0  0
  2  1  2  0
  3  2  1  0
  4  3  2  0
  5  4  1  0
  6  5  2  0
  6  1  1  0
  8  7  2  0
  8  1  1  0
  9  8  1  0
 10  9  1  0
 11 10  1  0
 12 11  1  0
 13 12  2  0
 14 13  1  0
 15 14  1  0
 16 15  2  0
 16 12  1  0
 17 16  1  0
 18 17  2  0
 19 18  1  0
 20 15  1  0
 20 19  2  0
 21  4  1  0
 22 21  1  0
 23 22  1  0
 24 23  1  0
 25 24  1  0
 26 25  1  0
 27 26  1  0
 28 27  2  0
 29 28  1  0
 30 29  2  0
 31 30  1  0
 32 31  2  0
 32 27  1  0
 33 31  1  0
 34 33  2  0
 35 33  1  0
 36 35  2  0
 37 36  1  0
 38 37  2  0
 39 38  1  0
 40 39  2  0
 40 35  1  0
  2 41  1  0
  3 42  1  0
  5 43  1  0
  6 44  1  0
  9 45  1  0
 10 46  1  0
 10 47  1  0
 11 48  1  0
 11 49  1  0
 13 50  1  0
 14 51  1  0
 17 52  1  0
 18 53  1  0
 19 54  1  0
 20 55  1  0
 22 56  1  0
 22 57  1  0
 23 58  1  0
 23 59  1  0
 24 60  1  0
 24 61  1  0
 25 62  1  0
 25 63  1  0
 28 64  1  0
 29 65  1  0
 30 66  1  0
 32 67  1  0
 36 68  1  0
 37 69  1  0
 38 70  1  0
 39 71  1  0
 40 72  1  0
M  END
>  <score>  (1) 
-11.51

$$$$
=
     RDKit          3D

 72 76  0  0  0  0  0  0  0  0999 V2000
    0.9600   62.3900   72.4640 C   0  0  0  0  0  0  0  0  0  0  0  0
    0.3930   63.3250   73.3380 C   0  0  0  0  0  0  0  0  0  0  0  0
    0.0530   64.6070   72.8880 C   0  0  0  0  0  0  0  0  0  0  0  0
    0.2710   64.9630   71.5570 C   0  0  0  0  0  0  0  0  0  0  0  0
    0.8190   64.0190   70.6820 C   0  0  0  0  0  0  0  0  0  0  0  0
    1.1600   62.7380   71.1250 C   0  0  0  0  0  0  0  0  0  0  0  0
    0.5020   60.1120   72.8570 O   0  0  0  0  0  0  0  0  0  0  0  0
    1.2930   61.0390   72.9970 C   0  0  0  0  0  0  0  0  0  0  0  0
    2.5020   60.9110   73.6460 N   0  0  0  0  0  0  0  0  0  0  0  0
    3.0260   59.6130   74.0290 C   0  0  0  0  0  0  0  0  0  0  0  0
    4.1560   59.1380   73.1080 C   0  0  0  0  0  0  0  0  0  0  0  0
    3.9380   59.5110   71.6710 C   0  0  0  0  0  0  0  0  0  0  0  0
    3.4480   58.6820   70.6800 C   0  0  0  0  0  0  0  0  0  0  0  0
    3.3970   59.3890   69.5100 N   0  0  0  0  0  0  0  0  0  0  0  0
    3.8350   60.6760   69.7140 C   0  0  0  0  0  0  0  0  0  0  0  0
    4.1910   60.7820   71.0590 C   0  0  0  0  0  0  0  0  0  0  0  0
    4.6890   62.0150   71.5280 C   0  0  0  0  0  0  0  0  0  0  0  0
    4.8070   63.0930   70.6420 C   0  0  0  0  0  0  0  0  0  0  0  0
    4.4410   62.9550   69.3050 C   0  0  0  0  0  0  0  0  0  0  0  0
    3.9480   61.7430   68.8140 C   0  0  0  0  0  0  0  0  0  0  0  0
   -0.0130   66.1660   70.9810 O   0  0  0  0  0  0  0  0  0  0  0  0
    0.5820   66.4920   69.7250 C   0  0  0  0  0  0  0  0  0  0  0  0
   -0.4770   66.9640   68.7310 C   0  0  0  0  0  0  0  0  0  0  0  0
    0.1060   67.9520   67.7190 C   0  0  0  0  0  0  0  0  0  0  0  0
   -0.7630   68.0760   66.4660 C   0  0  0  0  0  0  0  0  0  0  0  0
   -0.0080   68.5170   65.3390 O   0  0  0  0  0  0  0  0  0  0  0  0
    1.2320   67.9900   65.1150 C   0  0  0  0  0  0  0  0  0  0  0  0
    1.5180   66.6830   64.7200 C   0  0  0  0  0  0  0  0  0  0  0  0
    2.8420   66.2790   64.5160 C   0  0  0  0  0  0  0  0  0  0  0  0
    3.8890   67.1780   64.7140 C   0  0  0  0  0  0  0  0  0  0  0  0
    3.6100   68.4840   65.1270 C   0  0  0  0  0  0  0  0  0  0  0  0
    2.2840   68.8890   65.3080 C   0  0  0  0  0  0  0  0  0  0  0  0
    4.6910   69.4790   65.3340 C   0  0  0  0  0  0  0  0  0  0  0  0
    5.2810   69.9340   64.3580 O   0  0  0  0  0  0  0  0  0  0  0  0
    5.0770   69.9310   66.6960 C   0  0  0  0  0  0  0  0  0  0  0  0
    6.4190   70.2470   66.9380 C   0  0  0  0  0  0  0  0  0  0  0  0
    6.8170   70.6860   68.2020 C   0  0  0  0  0  0  0  0  0  0  0  0
    5.8760   70.8200   69.2210 C   0  0  0  0  0  0  0  0  0  0  0  0
    4.5330   70.5260   68.9790 C   0  0  0  0  0  0  0  0  0  0  0  0
    4.1300   70.0880   67.7160 C   0  0  0  0  0  0  0  0  0  0  0  0
    0.2128   63.0503   74.3878 H   0  0  0  0  0  0  0  0  0  0  0  0
   -0.3869   65.3348   73.5857 H   0  0  0  0  0  0  0  0  0  0  0  0
    0.9841   64.2892   69.6286 H   0  0  0  0  0  0  0  0  0  0  0  0
    1.5844   62.0060   70.4222 H   0  0  0  0  0  0  0  0  0  0  0  0
    3.0470   61.7572   73.8646 H   0  0  0  0  0  0  0  0  0  0  0  0
    3.4131   59.6786   75.0565 H   0  0  0  0  0  0  0  0  0  0  0  0
    2.2044   58.8858   73.9505 H   0  0  0  0  0  0  0  0  0  0  0  0
    5.0991   59.5906   73.4483 H   0  0  0  0  0  0  0  0  0  0  0  0
    4.1843   58.0397   73.1619 H   0  0  0  0  0  0  0  0  0  0  0  0
    3.1494   57.6313   70.8099 H   0  0  0  0  0  0  0  0  0  0  0  0
    3.0767   59.0116   68.6067 H   0  0  0  0  0  0  0  0  0  0  0  0
    4.9826   62.1292   72.5819 H   0  0  0  0  0  0  0  0  0  0  0  0
    5.1921   64.0573   71.0050 H   0  0  0  0  0  0  0  0  0  0  0  0
    4.5416   63.8137   68.6249 H   0  0  0  0  0  0  0  0  0  0  0  0
    3.6591   61.6311   67.7585 H   0  0  0  0  0  0  0  0  0  0  0  0
    1.3208   67.2934   69.8729 H   0  0  0  0  0  0  0  0  0  0  0  0
    1.0695   65.5925   69.3211 H   0  0  0  0  0  0  0  0  0  0  0  0
   -0.8746   66.0920   68.1911 H   0  0  0  0  0  0  0  0  0  0  0  0
   -1.2743   67.4738   69.2917 H   0  0  0  0  0  0  0  0  0  0  0  0
    0.1852   68.9408   68.1945 H   0  0  0  0  0  0  0  0  0  0  0  0
    1.0926   67.5762   67.4100 H   0  0  0  0  0  0  0  0  0  0  0  0
   -1.2016   67.0933   66.2382 H   0  0  0  0  0  0  0  0  0  0  0  0
   -1.5463   68.8220   66.6657 H   0  0  0  0  0  0  0  0  0  0  0  0
    0.6979   65.9658   64.5680 H   0  0  0  0  0  0  0  0  0  0  0  0
    3.0576   65.2482   64.1982 H   0  0  0  0  0  0  0  0  0  0  0  0
    4.9290   66.8614   64.5461 H   0  0  0  0  0  0  0  0  0  0  0  0
    2.0669   69.9256   65.6053 H   0  0  0  0  0  0  0  0  0  0  0  0
    7.1606   70.1493   66.1315 H   0  0  0  0  0  0  0  0  0  0  0  0
    7.8732   70.9261   68.3936 H   0  0  0  0  0  0  0  0  0  0  0  0
    6.1923   71.1583   70.2187 H   0  0  0  0  0  0  0  0  0  0  0  0
    3.7918   70.6395   69.7838 H   0  0  0  0  0  0  0  0  0  0  0  0
    3.0701   69.8665   67.5222 H   0  0  0  0  0  0  0  0  0  0  0  0
  2  1  2  0
  3  2  1  0
  4  3  2  0
  5  4  1  0
  6  5  2  0
  6  1  1  0
  8  7  2  0
  8  1  1  0
  9  8  1  0
 10  9  1  0
 11 10  1  0
 12 11  1  0
 13 12  2  0
 14 13  1  0
 15 14  1  0
 16 15  2  0
 16 12  1  0
 17 16  1  0
 18 17  2  0
 19 18  1  0
 20 15  1  0
 20 19  2  0
 21  4  1  0
 22 21  1  0
 23 22  1  0
 24 23  1  0
 25 24  1  0
 26 25  1  0
 27 26  1  0
 28 27  2  0
 29 28  1  0
 30 29  2  0
 31 30  1  0
 32 31  2  0
 32 27  1  0
 33 31  1  0
 34 33  2  0
 35 33  1  0
 36 35  2  0
 37 36  1  0
 38 37  2  0
 39 38  1  0
 40 39  2  0
 40 35  1  0
  2 41  1  0
  3 42  1  0
  5 43  1  0
  6 44  1  0
  9 45  1  0
 10 46  1  0
 10 47  1  0
 11 48  1  0
 11 49  1  0
 13 50  1  0
 14 51  1  0
 17 52  1  0
 18 53  1  0
 19 54  1  0
 20 55  1  0
 22 56  1  0
 22 57  1  0
 23 58  1  0
 23 59  1  0
 24 60  1  0
 24 61  1  0
 25 62  1  0
 25 63  1  0
 28 64  1  0
 29 65  1  0
 30 66  1  0
 32 67  1  0
 36 68  1  0
 37 69  1  0
 38 70  1  0
 39 71  1  0
 40 72  1  0
M  END
>  <score>  (2) 
-11.501

$$$$
=
     RDKit          3D

 72 76  0  0  0  0  0  0  0  0999 V2000
    1.2070   63.0240   72.8550 C   0  0  0  0  0  0  0  0  0  0  0  0
    2.2780   62.9170   71.9600 C   0  0  0  0  0  0  0  0  0  0  0  0
    2.3770   63.7770   70.8580 C   0  0  0  0  0  0  0  0  0  0  0  0
    1.4070   64.7560   70.6460 C   0  0  0  0  0  0  0  0  0  0  0  0
    0.3480   64.8730   71.5520 C   0  0  0  0  0  0  0  0  0  0  0  0
    0.2450   64.0190   72.6540 C   0  0  0  0  0  0  0  0  0  0  0  0
    0.0790   61.7010   74.4450 O   0  0  0  0  0  0  0  0  0  0  0  0
    1.1600   62.0880   74.0120 C   0  0  0  0  0  0  0  0  0  0  0  0
    2.3700   61.7110   74.5520 N   0  0  0  0  0  0  0  0  0  0  0  0
    2.4640   60.6560   75.5450 C   0  0  0  0  0  0  0  0  0  0  0  0
    3.2910   59.4600   75.0580 C   0  0  0  0  0  0  0  0  0  0  0  0
    3.1140   59.1810   73.5950 C   0  0  0  0  0  0  0  0  0  0  0  0
    2.2040   58.3030   73.0380 C   0  0  0  0  0  0  0  0  0  0  0  0
    2.3530   58.3300   71.6780 N   0  0  0  0  0  0  0  0  0  0  0  0
    3.3390   59.2210   71.3260 C   0  0  0  0  0  0  0  0  0  0  0  0
    3.8440   59.7640   72.5080 C   0  0  0  0  0  0  0  0  0  0  0  0
    4.8870   60.7090   72.4220 C   0  0  0  0  0  0  0  0  0  0  0  0
    5.3820   61.0770   71.1640 C   0  0  0  0  0  0  0  0  0  0  0  0
    4.8560   60.5170   70.0030 C   0  0  0  0  0  0  0  0  0  0  0  0
    3.8240   59.5760   70.0610 C   0  0  0  0  0  0  0  0  0  0  0  0
    1.3750   65.6600   69.6240 O   0  0  0  0  0  0  0  0  0  0  0  0
    0.2170   66.4780   69.4570 C   0  0  0  0  0  0  0  0  0  0  0  0
    0.4650   67.5570   68.4050 C   0  0  0  0  0  0  0  0  0  0  0  0
   -0.5530   67.4720   67.2660 C   0  0  0  0  0  0  0  0  0  0  0  0
   -0.3330   68.5590   66.2130 C   0  0  0  0  0  0  0  0  0  0  0  0
    0.1010   68.0120   64.9690 O   0  0  0  0  0  0  0  0  0  0  0  0
    1.3920   67.5840   64.8390 C   0  0  0  0  0  0  0  0  0  0  0  0
    1.8100   66.2850   64.5510 C   0  0  0  0  0  0  0  0  0  0  0  0
    3.1720   65.9890   64.4360 C   0  0  0  0  0  0  0  0  0  0  0  0
    4.1260   66.9890   64.6180 C   0  0  0  0  0  0  0  0  0  0  0  0
    3.7150   68.2890   64.9250 C   0  0  0  0  0  0  0  0  0  0  0  0
    2.3510   68.5850   65.0170 C   0  0  0  0  0  0  0  0  0  0  0  0
    4.6940   69.3880   65.1100 C   0  0  0  0  0  0  0  0  0  0  0  0
    5.2240   69.8910   64.1240 O   0  0  0  0  0  0  0  0  0  0  0  0
    5.0490   69.8890   66.4630 C   0  0  0  0  0  0  0  0  0  0  0  0
    4.0460   69.9460   67.4380 C   0  0  0  0  0  0  0  0  0  0  0  0
    4.3430   70.4010   68.7230 C   0  0  0  0  0  0  0  0  0  0  0  0
    5.6450   70.7880   69.0410 C   0  0  0  0  0  0  0  0  0  0  0  0
    6.6530   70.7130   68.0790 C   0  0  0  0  0  0  0  0  0  0  0  0
    6.3600   70.2580   66.7920 C   0  0  0  0  0  0  0  0  0  0  0  0
    3.0496   62.1502   72.1233 H   0  0  0  0  0  0  0  0  0  0  0  0
    3.2210   63.6796   70.1593 H   0  0  0  0  0  0  0  0  0  0  0  0
   -0.4157   65.6490   71.3950 H   0  0  0  0  0  0  0  0  0  0  0  0
   -0.5904   64.1293   73.3611 H   0  0  0  0  0  0  0  0  0  0  0  0
    3.2287   62.1891   74.2438 H   0  0  0  0  0  0  0  0  0  0  0  0
    2.9359   61.0654   76.4504 H   0  0  0  0  0  0  0  0  0  0  0  0
    1.4442   60.2961   75.7464 H   0  0  0  0  0  0  0  0  0  0  0  0
    4.3541   59.6681   75.2489 H   0  0  0  0  0  0  0  0  0  0  0  0
    2.9409   58.5731   75.6065 H   0  0  0  0  0  0  0  0  0  0  0  0
    1.4820   57.6867   73.5937 H   0  0  0  0  0  0  0  0  0  0  0  0
    1.8054   57.7644   71.0139 H   0  0  0  0  0  0  0  0  0  0  0  0
    5.3087   61.1538   73.3354 H   0  0  0  0  0  0  0  0  0  0  0  0
    6.1941   61.8155   71.0930 H   0  0  0  0  0  0  0  0  0  0  0  0
    5.2587   60.8197   69.0251 H   0  0  0  0  0  0  0  0  0  0  0  0
    3.4076   59.1302   69.1457 H   0  0  0  0  0  0  0  0  0  0  0  0
   -0.6265   65.8487   69.1368 H   0  0  0  0  0  0  0  0  0  0  0  0
   -0.0128   66.9654   70.4160 H   0  0  0  0  0  0  0  0  0  0  0  0
    0.3872   68.5455   68.8812 H   0  0  0  0  0  0  0  0  0  0  0  0
    1.4694   67.4043   67.9832 H   0  0  0  0  0  0  0  0  0  0  0  0
   -0.4633   66.4877   66.7833 H   0  0  0  0  0  0  0  0  0  0  0  0
   -1.5548   67.6165   67.6967 H   0  0  0  0  0  0  0  0  0  0  0  0
   -1.2789   69.0976   66.0544 H   0  0  0  0  0  0  0  0  0  0  0  0
    0.4515   69.2370   66.5804 H   0  0  0  0  0  0  0  0  0  0  0  0
    1.0639   65.4885   64.4135 H   0  0  0  0  0  0  0  0  0  0  0  0
    3.4917   64.9631   64.2010 H   0  0  0  0  0  0  0  0  0  0  0  0
    5.1966   66.7561   64.5205 H   0  0  0  0  0  0  0  0  0  0  0  0
    2.0302   69.6151   65.2314 H   0  0  0  0  0  0  0  0  0  0  0  0
    3.0215   69.6313   67.1904 H   0  0  0  0  0  0  0  0  0  0  0  0
    3.5512   70.4545   69.4847 H   0  0  0  0  0  0  0  0  0  0  0  0
    5.8775   71.1531   70.0523 H   0  0  0  0  0  0  0  0  0  0  0  0
    7.6799   71.0128   68.3350 H   0  0  0  0  0  0  0  0  0  0  0  0
    7.1573   70.1893   66.0373 H   0  0  0  0  0  0  0  0  0  0  0  0
  2  1  2  0
  3  2  1  0
  4  3  2  0
  5  4  1  0
  6  5  2  0
  6  1  1  0
  8  7  2  0
  8  1  1  0
  9  8  1  0
 10  9  1  0
 11 10  1  0
 12 11  1  0
 13 12  2  0
 14 13  1  0
 15 14  1  0
 16 15  2  0
 16 12  1  0
 17 16  1  0
 18 17  2  0
 19 18  1  0
 20 15  1  0
 20 19  2  0
 21  4  1  0
 22 21  1  0
 23 22  1  0
 24 23  1  0
 25 24  1  0
 26 25  1  0
 27 26  1  0
 28 27  2  0
 29 28  1  0
 30 29  2  0
 31 30  1  0
 32 31  2  0
 32 27  1  0
 33 31  1  0
 34 33  2  0
 35 33  1  0
 36 35  2  0
 37 36  1  0
 38 37  2  0
 39 38  1  0
 40 39  2  0
 40 35  1  0
  2 41  1  0
  3 42  1  0
  5 43  1  0
  6 44  1  0
  9 45  1  0
 10 46  1  0
 10 47  1  0
 11 48  1  0
 11 49  1  0
 13 50  1  0
 14 51  1  0
 17 52  1  0
 18 53  1  0
 19 54  1  0
 20 55  1  0
 22 56  1  0
 22 57  1  0
 23 58  1  0
 23 59  1  0
 24 60  1  0
 24 61  1  0
 25 62  1  0
 25 63  1  0
 28 64  1  0
 29 65  1  0
 30 66  1  0
 32 67  1  0
 36 68  1  0
 37 69  1  0
 38 70  1  0
 39 71  1  0
 40 72  1  0
M  END
>  <score>  (3) 
-11.413

$$$$
=
     RDKit          3D

 72 76  0  0  0  0  0  0  0  0999 V2000
   -0.0540   67.7580   67.6380 C   0  0  0  0  0  0  0  0  0  0  0  0
   -1.0180   66.8360   68.0640 C   0  0  0  0  0  0  0  0  0  0  0  0
   -0.7890   66.0310   69.1870 C   0  0  0  0  0  0  0  0  0  0  0  0
    0.4050   66.1460   69.8990 C   0  0  0  0  0  0  0  0  0  0  0  0
    1.3580   67.0820   69.4820 C   0  0  0  0  0  0  0  0  0  0  0  0
    1.1350   67.8880   68.3630 C   0  0  0  0  0  0  0  0  0  0  0  0
   -1.0870   69.5730   66.5470 O   0  0  0  0  0  0  0  0  0  0  0  0
   -0.3570   68.5920   66.4420 C   0  0  0  0  0  0  0  0  0  0  0  0
    0.2100   68.1950   65.2510 N   0  0  0  0  0  0  0  0  0  0  0  0
    0.1550   69.0310   64.0660 C   0  0  0  0  0  0  0  0  0  0  0  0
    0.7830   68.3580   62.8400 C   0  0  0  0  0  0  0  0  0  0  0  0
    2.2540   68.6240   62.7130 C   0  0  0  0  0  0  0  0  0  0  0  0
    2.9820   68.6310   61.5380 C   0  0  0  0  0  0  0  0  0  0  0  0
    4.2860   68.9140   61.8390 N   0  0  0  0  0  0  0  0  0  0  0  0
    4.4300   69.1050   63.1930 C   0  0  0  0  0  0  0  0  0  0  0  0
    3.1740   68.9200   63.7710 C   0  0  0  0  0  0  0  0  0  0  0  0
    3.0520   69.0510   65.1690 C   0  0  0  0  0  0  0  0  0  0  0  0
    4.1830   69.3640   65.9340 C   0  0  0  0  0  0  0  0  0  0  0  0
    5.4220   69.5440   65.3260 C   0  0  0  0  0  0  0  0  0  0  0  0
    5.5710   69.4170   63.9420 C   0  0  0  0  0  0  0  0  0  0  0  0
    0.7610   65.4350   71.0070 O   0  0  0  0  0  0  0  0  0  0  0  0
    1.0070   64.0340   70.8830 C   0  0  0  0  0  0  0  0  0  0  0  0
    0.0470   63.2360   71.7640 C   0  0  0  0  0  0  0  0  0  0  0  0
    0.2600   63.5470   73.2470 C   0  0  0  0  0  0  0  0  0  0  0  0
    0.6850   62.3100   74.0400 C   0  0  0  0  0  0  0  0  0  0  0  0
   -0.0560   61.1530   73.6550 O   0  0  0  0  0  0  0  0  0  0  0  0
    0.6140   60.0200   73.2890 C   0  0  0  0  0  0  0  0  0  0  0  0
    0.4020   58.7340   73.7870 C   0  0  0  0  0  0  0  0  0  0  0  0
    1.1600   57.6580   73.3120 C   0  0  0  0  0  0  0  0  0  0  0  0
    2.1400   57.8620   72.3420 C   0  0  0  0  0  0  0  0  0  0  0  0
    2.3700   59.1510   71.8520 C   0  0  0  0  0  0  0  0  0  0  0  0
    1.5960   60.2210   72.3140 C   0  0  0  0  0  0  0  0  0  0  0  0
    3.3910   59.4130   70.8090 C   0  0  0  0  0  0  0  0  0  0  0  0
    3.8990   58.4660   70.2160 O   0  0  0  0  0  0  0  0  0  0  0  0
    3.8150   60.7970   70.4710 C   0  0  0  0  0  0  0  0  0  0  0  0
    4.7290   61.4390   71.3140 C   0  0  0  0  0  0  0  0  0  0  0  0
    5.1590   62.7350   71.0230 C   0  0  0  0  0  0  0  0  0  0  0  0
    4.6860   63.3860   69.8850 C   0  0  0  0  0  0  0  0  0  0  0  0
    3.7910   62.7420   69.0300 C   0  0  0  0  0  0  0  0  0  0  0  0
    3.3590   61.4450   69.3160 C   0  0  0  0  0  0  0  0  0  0  0  0
   -1.9644   66.7431   67.5112 H   0  0  0  0  0  0  0  0  0  0  0  0
   -1.5521   65.3067   69.5081 H   0  0  0  0  0  0  0  0  0  0  0  0
    2.2978   67.1848   70.0443 H   0  0  0  0  0  0  0  0  0  0  0  0
    1.8925   68.6229   68.0529 H   0  0  0  0  0  0  0  0  0  0  0  0
    0.6847   67.2823   65.2002 H   0  0  0  0  0  0  0  0  0  0  0  0
   -0.8981   69.2571   63.8430 H   0  0  0  0  0  0  0  0  0  0  0  0
    0.7305   69.9446   64.2759 H   0  0  0  0  0  0  0  0  0  0  0  0
    0.6290   67.2717   62.9194 H   0  0  0  0  0  0  0  0  0  0  0  0
    0.2949   68.7785   61.9484 H   0  0  0  0  0  0  0  0  0  0  0  0
    2.5807   68.4412   60.5315 H   0  0  0  0  0  0  0  0  0  0  0  0
    5.0498   68.9752   61.1507 H   0  0  0  0  0  0  0  0  0  0  0  0
    2.0759   68.9085   65.6558 H   0  0  0  0  0  0  0  0  0  0  0  0
    4.0911   69.4685   67.0252 H   0  0  0  0  0  0  0  0  0  0  0  0
    6.2978   69.7901   65.9444 H   0  0  0  0  0  0  0  0  0  0  0  0
    6.5492   69.5571   63.4588 H   0  0  0  0  0  0  0  0  0  0  0  0
    0.8675   63.7345   69.8338 H   0  0  0  0  0  0  0  0  0  0  0  0
    2.0379   63.8265   71.2058 H   0  0  0  0  0  0  0  0  0  0  0  0
   -0.9870   63.4920   71.4897 H   0  0  0  0  0  0  0  0  0  0  0  0
    0.2398   62.1649   71.6040 H   0  0  0  0  0  0  0  0  0  0  0  0
    1.0433   64.3138   73.3395 H   0  0  0  0  0  0  0  0  0  0  0  0
   -0.6964   63.9010   73.6592 H   0  0  0  0  0  0  0  0  0  0  0  0
    1.7544   62.1233   73.8623 H   0  0  0  0  0  0  0  0  0  0  0  0
    0.4888   62.5027   75.1051 H   0  0  0  0  0  0  0  0  0  0  0  0
   -0.3651   58.5651   74.5571 H   0  0  0  0  0  0  0  0  0  0  0  0
    0.9817   56.6465   73.7059 H   0  0  0  0  0  0  0  0  0  0  0  0
    2.7292   57.0134   71.9641 H   0  0  0  0  0  0  0  0  0  0  0  0
    1.7614   61.2293   71.9066 H   0  0  0  0  0  0  0  0  0  0  0  0
    5.1092   60.9218   72.2073 H   0  0  0  0  0  0  0  0  0  0  0  0
    5.8706   63.2419   71.6914 H   0  0  0  0  0  0  0  0  0  0  0  0
    5.0191   64.4100   69.6604 H   0  0  0  0  0  0  0  0  0  0  0  0
    3.4251   63.2566   68.1293 H   0  0  0  0  0  0  0  0  0  0  0  0
    2.6622   60.9335   68.6357 H   0  0  0  0  0  0  0  0  0  0  0  0
  2  1  2  0
  3  2  1  0
  4  3  2  0
  5  4  1  0
  6  5  2  0
  6  1  1  0
  8  7  2  0
  8  1  1  0
  9  8  1  0
 10  9  1  0
 11 10  1  0
 12 11  1  0
 13 12  2  0
 14 13  1  0
 15 14  1  0
 16 15  2  0
 16 12  1  0
 17 16  1  0
 18 17  2  0
 19 18  1  0
 20 15  1  0
 20 19  2  0
 21  4  1  0
 22 21  1  0
 23 22  1  0
 24 23  1  0
 25 24  1  0
 26 25  1  0
 27 26  1  0
 28 27  2  0
 29 28  1  0
 30 29  2  0
 31 30  1  0
 32 31  2  0
 32 27  1  0
 33 31  1  0
 34 33  2  0
 35 33  1  0
 36 35  2  0
 37 36  1  0
 38 37  2  0
 39 38  1  0
 40 39  2  0
 40 35  1  0
  2 41  1  0
  3 42  1  0
  5 43  1  0
  6 44  1  0
  9 45  1  0
 10 46  1  0
 10 47  1  0
 11 48  1  0
 11 49  1  0
 13 50  1  0
 14 51  1  0
 17 52  1  0
 18 53  1  0
 19 54  1  0
 20 55  1  0
 22 56  1  0
 22 57  1  0
 23 58  1  0
 23 59  1  0
 24 60  1  0
 24 61  1  0
 25 62  1  0
 25 63  1  0
 28 64  1  0
 29 65  1  0
 30 66  1  0
 32 67  1  0
 36 68  1  0
 37 69  1  0
 38 70  1  0
 39 71  1  0
 40 72  1  0
M  END
>  <score>  (4) 
-11.288

$$$$
=
     RDKit          3D

 72 76  0  0  0  0  0  0  0  0999 V2000
    0.2530   65.6760   70.4580 C   0  0  0  0  0  0  0  0  0  0  0  0
    0.9470   64.4610   70.4010 C   0  0  0  0  0  0  0  0  0  0  0  0
    1.1060   63.6760   71.5500 C   0  0  0  0  0  0  0  0  0  0  0  0
    0.5670   64.0970   72.7650 C   0  0  0  0  0  0  0  0  0  0  0  0
   -0.1420   65.3010   72.8150 C   0  0  0  0  0  0  0  0  0  0  0  0
   -0.3050   66.0890   71.6720 C   0  0  0  0  0  0  0  0  0  0  0  0
   -0.8400   66.2550   68.4530 O   0  0  0  0  0  0  0  0  0  0  0  0
    0.1080   66.4640   69.2020 C   0  0  0  0  0  0  0  0  0  0  0  0
    1.0840   67.4020   68.9450 N   0  0  0  0  0  0  0  0  0  0  0  0
    0.9490   68.3630   67.8660 C   0  0  0  0  0  0  0  0  0  0  0  0
    1.7600   69.6410   68.1110 C   0  0  0  0  0  0  0  0  0  0  0  0
    3.0810   69.6430   67.3990 C   0  0  0  0  0  0  0  0  0  0  0  0
    3.3070   69.2260   66.1010 C   0  0  0  0  0  0  0  0  0  0  0  0
    4.6370   69.3830   65.8220 N   0  0  0  0  0  0  0  0  0  0  0  0
    5.2920   69.9080   66.9110 C   0  0  0  0  0  0  0  0  0  0  0  0
    4.3440   70.0740   67.9210 C   0  0  0  0  0  0  0  0  0  0  0  0
    4.7680   70.5930   69.1620 C   0  0  0  0  0  0  0  0  0  0  0  0
    6.1150   70.9290   69.3440 C   0  0  0  0  0  0  0  0  0  0  0  0
    7.0360   70.7540   68.3150 C   0  0  0  0  0  0  0  0  0  0  0  0
    6.6430   70.2380   67.0770 C   0  0  0  0  0  0  0  0  0  0  0  0
    0.6400   63.4370   73.9580 O   0  0  0  0  0  0  0  0  0  0  0  0
    0.7580   64.1930   75.1630 C   0  0  0  0  0  0  0  0  0  0  0  0
    0.0300   63.4980   76.3110 C   0  0  0  0  0  0  0  0  0  0  0  0
    1.0150   62.8810   77.3070 C   0  0  0  0  0  0  0  0  0  0  0  0
    0.8630   61.3630   77.4030 C   0  0  0  0  0  0  0  0  0  0  0  0
    1.8160   60.6820   76.5890 O   0  0  0  0  0  0  0  0  0  0  0  0
    1.5210   60.4310   75.2790 C   0  0  0  0  0  0  0  0  0  0  0  0
    0.2570   60.1700   74.7490 C   0  0  0  0  0  0  0  0  0  0  0  0
    0.0990   59.9390   73.3780 C   0  0  0  0  0  0  0  0  0  0  0  0
    1.2050   59.9580   72.5300 C   0  0  0  0  0  0  0  0  0  0  0  0
    2.4770   60.2010   73.0570 C   0  0  0  0  0  0  0  0  0  0  0  0
    2.6270   60.4540   74.4250 C   0  0  0  0  0  0  0  0  0  0  0  0
    3.6790   60.2480   72.1910 C   0  0  0  0  0  0  0  0  0  0  0  0
    4.5820   59.4360   72.3740 O   0  0  0  0  0  0  0  0  0  0  0  0
    3.8170   61.2590   71.1110 C   0  0  0  0  0  0  0  0  0  0  0  0
    4.5970   62.3960   71.3570 C   0  0  0  0  0  0  0  0  0  0  0  0
    4.7580   63.3630   70.3630 C   0  0  0  0  0  0  0  0  0  0  0  0
    4.1510   63.1910   69.1190 C   0  0  0  0  0  0  0  0  0  0  0  0
    3.3900   62.0500   68.8630 C   0  0  0  0  0  0  0  0  0  0  0  0
    3.2260   61.0800   69.8530 C   0  0  0  0  0  0  0  0  0  0  0  0
    1.3712   64.1200   69.4451 H   0  0  0  0  0  0  0  0  0  0  0  0
    1.6571   62.7257   71.4937 H   0  0  0  0  0  0  0  0  0  0  0  0
   -0.5783   65.6333   73.7685 H   0  0  0  0  0  0  0  0  0  0  0  0
   -0.8704   67.0310   71.7273 H   0  0  0  0  0  0  0  0  0  0  0  0
    1.9296   67.4216   69.5327 H   0  0  0  0  0  0  0  0  0  0  0  0
    1.2989   67.8969   66.9331 H   0  0  0  0  0  0  0  0  0  0  0  0
   -0.1117   68.6478   67.8037 H   0  0  0  0  0  0  0  0  0  0  0  0
    1.1717   70.5020   67.7607 H   0  0  0  0  0  0  0  0  0  0  0  0
    1.9677   69.6970   69.1898 H   0  0  0  0  0  0  0  0  0  0  0  0
    2.5465   68.8343   65.4095 H   0  0  0  0  0  0  0  0  0  0  0  0
    5.0834   69.1426   64.9254 H   0  0  0  0  0  0  0  0  0  0  0  0
    4.0463   70.7327   69.9803 H   0  0  0  0  0  0  0  0  0  0  0  0
    6.4489   71.3355   70.3101 H   0  0  0  0  0  0  0  0  0  0  0  0
    8.0892   71.0260   68.4787 H   0  0  0  0  0  0  0  0  0  0  0  0
    7.3685   70.0962   66.2624 H   0  0  0  0  0  0  0  0  0  0  0  0
    1.8222   64.2971   75.4210 H   0  0  0  0  0  0  0  0  0  0  0  0
    0.3045   65.1826   75.0049 H   0  0  0  0  0  0  0  0  0  0  0  0
   -0.5952   64.2350   76.8363 H   0  0  0  0  0  0  0  0  0  0  0  0
   -0.5872   62.6905   75.8902 H   0  0  0  0  0  0  0  0  0  0  0  0
    2.0399   63.1148   76.9829 H   0  0  0  0  0  0  0  0  0  0  0  0
    0.8028   63.3054   78.2994 H   0  0  0  0  0  0  0  0  0  0  0  0
    1.0054   61.0565   78.4498 H   0  0  0  0  0  0  0  0  0  0  0  0
   -0.1430   61.0972   77.0462 H   0  0  0  0  0  0  0  0  0  0  0  0
   -0.6200   60.1457   75.4125 H   0  0  0  0  0  0  0  0  0  0  0  0
   -0.9023   59.7416   72.9677 H   0  0  0  0  0  0  0  0  0  0  0  0
    1.0777   59.7827   71.4515 H   0  0  0  0  0  0  0  0  0  0  0  0
    3.6251   60.6731   74.8322 H   0  0  0  0  0  0  0  0  0  0  0  0
    5.0835   62.5272   72.3348 H   0  0  0  0  0  0  0  0  0  0  0  0
    5.3632   64.2600   70.5607 H   0  0  0  0  0  0  0  0  0  0  0  0
    4.2725   63.9564   68.3383 H   0  0  0  0  0  0  0  0  0  0  0  0
    2.9182   61.9146   67.8786 H   0  0  0  0  0  0  0  0  0  0  0  0
    2.6338   60.1764   69.6461 H   0  0  0  0  0  0  0  0  0  0  0  0
  2  1  2  0
  3  2  1  0
  4  3  2  0
  5  4  1  0
  6  5  2  0
  6  1  1  0
  8  7  2  0
  8  1  1  0
  9  8  1  0
 10  9  1  0
 11 10  1  0
 12 11  1  0
 13 12  2  0
 14 13  1  0
 15 14  1  0
 16 15  2  0
 16 12  1  0
 17 16  1  0
 18 17  2  0
 19 18  1  0
 20 15  1  0
 20 19  2  0
 21  4  1  0
 22 21  1  0
 23 22  1  0
 24 23  1  0
 25 24  1  0
 26 25  1  0
 27 26  1  0
 28 27  2  0
 29 28  1  0
 30 29  2  0
 31 30  1  0
 32 31  2  0
 32 27  1  0
 33 31  1  0
 34 33  2  0
 35 33  1  0
 36 35  2  0
 37 36  1  0
 38 37  2  0
 39 38  1  0
 40 39  2  0
 40 35  1  0
  2 41  1  0
  3 42  1  0
  5 43  1  0
  6 44  1  0
  9 45  1  0
 10 46  1  0
 10 47  1  0
 11 48  1  0
 11 49  1  0
 13 50  1  0
 14 51  1  0
 17 52  1  0
 18 53  1  0
 19 54  1  0
 20 55  1  0
 22 56  1  0
 22 57  1  0
 23 58  1  0
 23 59  1  0
 24 60  1  0
 24 61  1  0
 25 62  1  0
 25 63  1  0
 28 64  1  0
 29 65  1  0
 30 66  1  0
 32 67  1  0
 36 68  1  0
 37 69  1  0
 38 70  1  0
 39 71  1  0
 40 72  1  0
M  END
>  <score>  (5) 
-11.163

$$$$
=
     RDKit          3D

 72 76  0  0  0  0  0  0  0  0999 V2000
    1.9080   62.8330   72.2860 C   0  0  0  0  0  0  0  0  0  0  0  0
    0.6900   63.5220   72.2800 C   0  0  0  0  0  0  0  0  0  0  0  0
    0.4600   64.5580   71.3660 C   0  0  0  0  0  0  0  0  0  0  0  0
    1.4460   64.9100   70.4440 C   0  0  0  0  0  0  0  0  0  0  0  0
    2.6550   64.2070   70.4400 C   0  0  0  0  0  0  0  0  0  0  0  0
    2.8900   63.1720   71.3490 C   0  0  0  0  0  0  0  0  0  0  0  0
    2.0310   61.9750   74.4770 O   0  0  0  0  0  0  0  0  0  0  0  0
    2.0920   61.7350   73.2750 C   0  0  0  0  0  0  0  0  0  0  0  0
    2.3370   60.4790   72.7660 N   0  0  0  0  0  0  0  0  0  0  0  0
    2.3350   59.3010   73.6140 C   0  0  0  0  0  0  0  0  0  0  0  0
    1.4530   58.1770   73.0580 C   0  0  0  0  0  0  0  0  0  0  0  0
    0.1840   57.9870   73.8350 C   0  0  0  0  0  0  0  0  0  0  0  0
   -0.1670   56.8650   74.5610 C   0  0  0  0  0  0  0  0  0  0  0  0
   -1.3960   57.0790   75.1220 N   0  0  0  0  0  0  0  0  0  0  0  0
   -1.8590   58.3300   74.7880 C   0  0  0  0  0  0  0  0  0  0  0  0
   -0.8940   58.9210   73.9720 C   0  0  0  0  0  0  0  0  0  0  0  0
   -1.1370   60.2200   73.4780 C   0  0  0  0  0  0  0  0  0  0  0  0
   -2.3250   60.8770   73.8190 C   0  0  0  0  0  0  0  0  0  0  0  0
   -3.2670   60.2600   74.6380 C   0  0  0  0  0  0  0  0  0  0  0  0
   -3.0530   58.9720   75.1380 C   0  0  0  0  0  0  0  0  0  0  0  0
    1.3610   65.8900   69.4980 O   0  0  0  0  0  0  0  0  0  0  0  0
    0.0720   66.3340   69.0730 C   0  0  0  0  0  0  0  0  0  0  0  0
    0.1830   67.6280   68.2710 C   0  0  0  0  0  0  0  0  0  0  0  0
   -0.6920   67.5860   67.0170 C   0  0  0  0  0  0  0  0  0  0  0  0
   -0.4410   68.7810   66.0970 C   0  0  0  0  0  0  0  0  0  0  0  0
   -0.4060   68.3960   64.7240 O   0  0  0  0  0  0  0  0  0  0  0  0
    0.7530   68.5420   64.0160 C   0  0  0  0  0  0  0  0  0  0  0  0
    0.8740   68.6110   62.6280 C   0  0  0  0  0  0  0  0  0  0  0  0
    2.1300   68.7720   62.0340 C   0  0  0  0  0  0  0  0  0  0  0  0
    3.2750   68.8580   62.8250 C   0  0  0  0  0  0  0  0  0  0  0  0
    3.1630   68.7710   64.2150 C   0  0  0  0  0  0  0  0  0  0  0  0
    1.9030   68.6320   64.8060 C   0  0  0  0  0  0  0  0  0  0  0  0
    4.3520   68.8740   65.0970 C   0  0  0  0  0  0  0  0  0  0  0  0
    5.4230   68.4120   64.7140 O   0  0  0  0  0  0  0  0  0  0  0  0
    4.2710   69.5180   66.4330 C   0  0  0  0  0  0  0  0  0  0  0  0
    3.0590   69.4590   67.1310 C   0  0  0  0  0  0  0  0  0  0  0  0
    2.9480   70.0440   68.3930 C   0  0  0  0  0  0  0  0  0  0  0  0
    4.0500   70.6780   68.9660 C   0  0  0  0  0  0  0  0  0  0  0  0
    5.2660   70.7220   68.2830 C   0  0  0  0  0  0  0  0  0  0  0  0
    5.3820   70.1380   67.0200 C   0  0  0  0  0  0  0  0  0  0  0  0
   -0.0946   63.2472   73.0003 H   0  0  0  0  0  0  0  0  0  0  0  0
   -0.4999   65.0951   71.3752 H   0  0  0  0  0  0  0  0  0  0  0  0
    3.4334   64.4730   69.7097 H   0  0  0  0  0  0  0  0  0  0  0  0
    3.8443   62.6254   71.3279 H   0  0  0  0  0  0  0  0  0  0  0  0
    2.5263   60.3730   71.7591 H   0  0  0  0  0  0  0  0  0  0  0  0
    3.3663   58.9287   73.7026 H   0  0  0  0  0  0  0  0  0  0  0  0
    1.9247   59.5944   74.5915 H   0  0  0  0  0  0  0  0  0  0  0  0
    1.1933   58.4182   72.0167 H   0  0  0  0  0  0  0  0  0  0  0  0
    2.0270   57.2416   73.1328 H   0  0  0  0  0  0  0  0  0  0  0  0
    0.4394   55.9537   74.6695 H   0  0  0  0  0  0  0  0  0  0  0  0
   -1.9017   56.4010   75.7098 H   0  0  0  0  0  0  0  0  0  0  0  0
   -0.3980   60.7131   72.8294 H   0  0  0  0  0  0  0  0  0  0  0  0
   -2.5162   61.8904   73.4363 H   0  0  0  0  0  0  0  0  0  0  0  0
   -4.1936   60.7940   74.8955 H   0  0  0  0  0  0  0  0  0  0  0  0
   -3.7961   58.4806   75.7833 H   0  0  0  0  0  0  0  0  0  0  0  0
   -0.3877   65.5577   68.4437 H   0  0  0  0  0  0  0  0  0  0  0  0
   -0.5477   66.5218   69.9622 H   0  0  0  0  0  0  0  0  0  0  0  0
   -0.1380   68.4691   68.9030 H   0  0  0  0  0  0  0  0  0  0  0  0
    1.2302   67.7516   67.9577 H   0  0  0  0  0  0  0  0  0  0  0  0
   -0.4735   66.6608   66.4635 H   0  0  0  0  0  0  0  0  0  0  0  0
   -1.7436   67.6220   67.3378 H   0  0  0  0  0  0  0  0  0  0  0  0
   -1.2471   69.5157   66.2401 H   0  0  0  0  0  0  0  0  0  0  0  0
    0.5377   69.2114   66.3558 H   0  0  0  0  0  0  0  0  0  0  0  0
   -0.0239   68.5383   61.9968 H   0  0  0  0  0  0  0  0  0  0  0  0
    2.2148   68.8310   60.9389 H   0  0  0  0  0  0  0  0  0  0  0  0
    4.2613   68.9936   62.3572 H   0  0  0  0  0  0  0  0  0  0  0  0
    1.8161   68.5932   65.9019 H   0  0  0  0  0  0  0  0  0  0  0  0
    2.1923   68.9504   66.6837 H   0  0  0  0  0  0  0  0  0  0  0  0
    1.9919   70.0051   68.9355 H   0  0  0  0  0  0  0  0  0  0  0  0
    3.9605   71.1443   69.9583 H   0  0  0  0  0  0  0  0  0  0  0  0
    6.1349   71.2177   68.7405 H   0  0  0  0  0  0  0  0  0  0  0  0
    6.3438   70.1646   66.4868 H   0  0  0  0  0  0  0  0  0  0  0  0
  2  1  2  0
  3  2  1  0
  4  3  2  0
  5  4  1  0
  6  5  2  0
  6  1  1  0
  8  7  2  0
  8  1  1  0
  9  8  1  0
 10  9  1  0
 11 10  1  0
 12 11  1  0
 13 12  2  0
 14 13  1  0
 15 14  1  0
 16 15  2  0
 16 12  1  0
 17 16  1  0
 18 17  2  0
 19 18  1  0
 20 15  1  0
 20 19  2  0
 21  4  1  0
 22 21  1  0
 23 22  1  0
 24 23  1  0
 25 24  1  0
 26 25  1  0
 27 26  1  0
 28 27  2  0
 29 28  1  0
 30 29  2  0
 31 30  1  0
 32 31  2  0
 32 27  1  0
 33 31  1  0
 34 33  2  0
 35 33  1  0
 36 35  2  0
 37 36  1  0
 38 37  2  0
 39 38  1  0
 40 39  2  0
 40 35  1  0
  2 41  1  0
  3 42  1  0
  5 43  1  0
  6 44  1  0
  9 45  1  0
 10 46  1  0
 10 47  1  0
 11 48  1  0
 11 49  1  0
 13 50  1  0
 14 51  1  0
 17 52  1  0
 18 53  1  0
 19 54  1  0
 20 55  1  0
 22 56  1  0
 22 57  1  0
 23 58  1  0
 23 59  1  0
 24 60  1  0
 24 61  1  0
 25 62  1  0
 25 63  1  0
 28 64  1  0
 29 65  1  0
 30 66  1  0
 32 67  1  0
 36 68  1  0
 37 69  1  0
 38 70  1  0
 39 71  1  0
 40 72  1  0
M  END
>  <score>  (6) 
-10.641

$$$$
=
     RDKit          3D

 72 76  0  0  0  0  0  0  0  0999 V2000
    3.3860   59.6200   72.9760 C   0  0  0  0  0  0  0  0  0  0  0  0
    4.4860   60.4550   73.2090 C   0  0  0  0  0  0  0  0  0  0  0  0
    4.8700   61.4110   72.2610 C   0  0  0  0  0  0  0  0  0  0  0  0
    4.1520   61.5460   71.0720 C   0  0  0  0  0  0  0  0  0  0  0  0
    3.0430   60.7240   70.8510 C   0  0  0  0  0  0  0  0  0  0  0  0
    2.6540   59.7680   71.7930 C   0  0  0  0  0  0  0  0  0  0  0  0
    3.1440   58.9140   75.2100 O   0  0  0  0  0  0  0  0  0  0  0  0
    3.0200   58.6280   74.0240 C   0  0  0  0  0  0  0  0  0  0  0  0
    2.5600   57.4060   73.5840 N   0  0  0  0  0  0  0  0  0  0  0  0
    1.9870   56.4350   74.4980 C   0  0  0  0  0  0  0  0  0  0  0  0
    0.6570   55.8630   73.9920 C   0  0  0  0  0  0  0  0  0  0  0  0
   -0.5390   56.5380   74.5940 C   0  0  0  0  0  0  0  0  0  0  0  0
   -1.4520   55.9620   75.4560 C   0  0  0  0  0  0  0  0  0  0  0  0
   -2.3940   56.9000   75.7790 N   0  0  0  0  0  0  0  0  0  0  0  0
   -2.1130   58.0910   75.1530 C   0  0  0  0  0  0  0  0  0  0  0  0
   -0.9590   57.8940   74.3930 C   0  0  0  0  0  0  0  0  0  0  0  0
   -0.4610   58.9740   73.6350 C   0  0  0  0  0  0  0  0  0  0  0  0
   -1.1280   60.2050   73.6680 C   0  0  0  0  0  0  0  0  0  0  0  0
   -2.2760   60.3700   74.4390 C   0  0  0  0  0  0  0  0  0  0  0  0
   -2.7920   59.3140   75.1960 C   0  0  0  0  0  0  0  0  0  0  0  0
    4.4070   62.4320   70.0660 O   0  0  0  0  0  0  0  0  0  0  0  0
    3.3200   63.1530   69.4850 C   0  0  0  0  0  0  0  0  0  0  0  0
    2.8210   64.2380   70.4380 C   0  0  0  0  0  0  0  0  0  0  0  0
    1.2950   64.2280   70.5470 C   0  0  0  0  0  0  0  0  0  0  0  0
    0.6910   65.6160   70.3290 C   0  0  0  0  0  0  0  0  0  0  0  0
   -0.2270   65.6290   69.2370 O   0  0  0  0  0  0  0  0  0  0  0  0
   -0.3330   66.7500   68.4640 C   0  0  0  0  0  0  0  0  0  0  0  0
   -1.4420   67.1380   67.7130 C   0  0  0  0  0  0  0  0  0  0  0  0
   -1.4150   68.3240   66.9710 C   0  0  0  0  0  0  0  0  0  0  0  0
   -0.2740   69.1250   66.9680 C   0  0  0  0  0  0  0  0  0  0  0  0
    0.8480   68.7340   67.7040 C   0  0  0  0  0  0  0  0  0  0  0  0
    0.8080   67.5580   68.4630 C   0  0  0  0  0  0  0  0  0  0  0  0
    2.0770   69.5620   67.7450 C   0  0  0  0  0  0  0  0  0  0  0  0
    2.2270   70.3680   68.6590 O   0  0  0  0  0  0  0  0  0  0  0  0
    3.1270   69.4420   66.7000 C   0  0  0  0  0  0  0  0  0  0  0  0
    4.4270   69.8560   67.0110 C   0  0  0  0  0  0  0  0  0  0  0  0
    5.4420   69.7490   66.0590 C   0  0  0  0  0  0  0  0  0  0  0  0
    5.1630   69.2180   64.7990 C   0  0  0  0  0  0  0  0  0  0  0  0
    3.8720   68.7850   64.4920 C   0  0  0  0  0  0  0  0  0  0  0  0
    2.8540   68.8900   65.4420 C   0  0  0  0  0  0  0  0  0  0  0  0
    5.0539   60.3587   74.1461 H   0  0  0  0  0  0  0  0  0  0  0  0
    5.7393   62.0569   72.4537 H   0  0  0  0  0  0  0  0  0  0  0  0
    2.4670   60.8316   69.9200 H   0  0  0  0  0  0  0  0  0  0  0  0
    1.7751   59.1339   71.6050 H   0  0  0  0  0  0  0  0  0  0  0  0
    2.6243   57.1760   72.5821 H   0  0  0  0  0  0  0  0  0  0  0  0
    2.7005   55.6076   74.6260 H   0  0  0  0  0  0  0  0  0  0  0  0
    1.7881   56.9497   75.4496 H   0  0  0  0  0  0  0  0  0  0  0  0
    0.6158   55.9858   72.8997 H   0  0  0  0  0  0  0  0  0  0  0  0
    0.6206   54.8043   74.2883 H   0  0  0  0  0  0  0  0  0  0  0  0
   -1.4260   54.9246   75.8209 H   0  0  0  0  0  0  0  0  0  0  0  0
   -3.1981   56.7372   76.4017 H   0  0  0  0  0  0  0  0  0  0  0  0
    0.4444   58.8504   73.0226 H   0  0  0  0  0  0  0  0  0  0  0  0
   -0.7414   61.0499   73.0792 H   0  0  0  0  0  0  0  0  0  0  0  0
   -2.7842   61.3455   74.4525 H   0  0  0  0  0  0  0  0  0  0  0  0
   -3.6999   59.4400   75.8041 H   0  0  0  0  0  0  0  0  0  0  0  0
    3.6570   63.6219   68.5487 H   0  0  0  0  0  0  0  0  0  0  0  0
    2.4966   62.4514   69.2856 H   0  0  0  0  0  0  0  0  0  0  0  0
    3.2520   64.0642   71.4350 H   0  0  0  0  0  0  0  0  0  0  0  0
    3.1330   65.2158   70.0424 H   0  0  0  0  0  0  0  0  0  0  0  0
    0.8902   63.5423   69.7881 H   0  0  0  0  0  0  0  0  0  0  0  0
    1.0313   63.9009   71.5636 H   0  0  0  0  0  0  0  0  0  0  0  0
    0.1610   65.9212   71.2433 H   0  0  0  0  0  0  0  0  0  0  0  0
    1.5099   66.3123   70.0954 H   0  0  0  0  0  0  0  0  0  0  0  0
   -2.3436   66.5079   67.7038 H   0  0  0  0  0  0  0  0  0  0  0  0
   -2.2976   68.6255   66.3878 H   0  0  0  0  0  0  0  0  0  0  0  0
   -0.2568   70.0602   66.3892 H   0  0  0  0  0  0  0  0  0  0  0  0
    1.6822   67.2672   69.0639 H   0  0  0  0  0  0  0  0  0  0  0  0
    4.6493   70.2663   68.0071 H   0  0  0  0  0  0  0  0  0  0  0  0
    6.4615   70.0831   66.3018 H   0  0  0  0  0  0  0  0  0  0  0  0
    5.9617   69.1405   64.0466 H   0  0  0  0  0  0  0  0  0  0  0  0
    3.6563   68.3605   63.5004 H   0  0  0  0  0  0  0  0  0  0  0  0
    1.8391   68.5397   65.2027 H   0  0  0  0  0  0  0  0  0  0  0  0
  2  1  2  0
  3  2  1  0
  4  3  2  0
  5  4  1  0
  6  5  2  0
  6  1  1  0
  8  7  2  0
  8  1  1  0
  9  8  1  0
 10  9  1  0
 11 10  1  0
 12 11  1  0
 13 12  2  0
 14 13  1  0
 15 14  1  0
 16 15  2  0
 16 12  1  0
 17 16  1  0
 18 17  2  0
 19 18  1  0
 20 15  1  0
 20 19  2  0
 21  4  1  0
 22 21  1  0
 23 22  1  0
 24 23  1  0
 25 24  1  0
 26 25  1  0
 27 26  1  0
 28 27  2  0
 29 28  1  0
 30 29  2  0
 31 30  1  0
 32 31  2  0
 32 27  1  0
 33 31  1  0
 34 33  2  0
 35 33  1  0
 36 35  2  0
 37 36  1  0
 38 37  2  0
 39 38  1  0
 40 39  2  0
 40 35  1  0
  2 41  1  0
  3 42  1  0
  5 43  1  0
  6 44  1  0
  9 45  1  0
 10 46  1  0
 10 47  1  0
 11 48  1  0
 11 49  1  0
 13 50  1  0
 14 51  1  0
 17 52  1  0
 18 53  1  0
 19 54  1  0
 20 55  1  0
 22 56  1  0
 22 57  1  0
 23 58  1  0
 23 59  1  0
 24 60  1  0
 24 61  1  0
 25 62  1  0
 25 63  1  0
 28 64  1  0
 29 65  1  0
 30 66  1  0
 32 67  1  0
 36 68  1  0
 37 69  1  0
 38 70  1  0
 39 71  1  0
 40 72  1  0
M  END
>  <score>  (7) 
-10.622

$$$$
=
     RDKit          3D

 72 76  0  0  0  0  0  0  0  0999 V2000
    1.0370   66.0540   69.9730 C   0  0  0  0  0  0  0  0  0  0  0  0
    0.0440   66.0080   70.9580 C   0  0  0  0  0  0  0  0  0  0  0  0
    0.0040   64.9570   71.8830 C   0  0  0  0  0  0  0  0  0  0  0  0
    0.9620   63.9440   71.8340 C   0  0  0  0  0  0  0  0  0  0  0  0
    1.9650   64.0030   70.8600 C   0  0  0  0  0  0  0  0  0  0  0  0
    2.0110   65.0500   69.9350 C   0  0  0  0  0  0  0  0  0  0  0  0
    0.1590   67.2870   68.1680 O   0  0  0  0  0  0  0  0  0  0  0  0
    1.0350   67.2010   69.0230 C   0  0  0  0  0  0  0  0  0  0  0  0
    2.0540   68.1170   69.1570 N   0  0  0  0  0  0  0  0  0  0  0  0
    2.0490   69.3730   68.4290 C   0  0  0  0  0  0  0  0  0  0  0  0
    3.3400   70.1760   68.6290 C   0  0  0  0  0  0  0  0  0  0  0  0
    4.3160   70.0080   67.5030 C   0  0  0  0  0  0  0  0  0  0  0  0
    5.6750   70.2520   67.5600 C   0  0  0  0  0  0  0  0  0  0  0  0
    6.2150   69.9820   66.3330 N   0  0  0  0  0  0  0  0  0  0  0  0
    5.2370   69.5530   65.4680 C   0  0  0  0  0  0  0  0  0  0  0  0
    4.0310   69.5680   66.1700 C   0  0  0  0  0  0  0  0  0  0  0  0
    2.8560   69.1780   65.4950 C   0  0  0  0  0  0  0  0  0  0  0  0
    2.9290   68.7840   64.1530 C   0  0  0  0  0  0  0  0  0  0  0  0
    4.1490   68.7780   63.4810 C   0  0  0  0  0  0  0  0  0  0  0  0
    5.3280   69.1640   64.1250 C   0  0  0  0  0  0  0  0  0  0  0  0
    1.0490   62.8670   72.6670 O   0  0  0  0  0  0  0  0  0  0  0  0
   -0.0690   62.5360   73.4900 C   0  0  0  0  0  0  0  0  0  0  0  0
   -1.0440   61.6300   72.7400 C   0  0  0  0  0  0  0  0  0  0  0  0
   -1.8390   60.7450   73.7020 C   0  0  0  0  0  0  0  0  0  0  0  0
   -1.1890   60.6650   75.0840 C   0  0  0  0  0  0  0  0  0  0  0  0
   -0.8840   59.3200   75.4490 O   0  0  0  0  0  0  0  0  0  0  0  0
   -0.0650   58.5770   74.6460 C   0  0  0  0  0  0  0  0  0  0  0  0
   -0.4030   57.3970   73.9830 C   0  0  0  0  0  0  0  0  0  0  0  0
    0.5380   56.7420   73.1810 C   0  0  0  0  0  0  0  0  0  0  0  0
    1.8250   57.2590   73.0430 C   0  0  0  0  0  0  0  0  0  0  0  0
    2.1760   58.4320   73.7190 C   0  0  0  0  0  0  0  0  0  0  0  0
    1.2250   59.0950   74.5030 C   0  0  0  0  0  0  0  0  0  0  0  0
    3.5280   59.0270   73.5890 C   0  0  0  0  0  0  0  0  0  0  0  0
    4.3570   58.8290   74.4720 O   0  0  0  0  0  0  0  0  0  0  0  0
    3.8970   59.8620   72.4170 C   0  0  0  0  0  0  0  0  0  0  0  0
    3.4670   59.4580   71.1480 C   0  0  0  0  0  0  0  0  0  0  0  0
    3.7850   60.2210   70.0240 C   0  0  0  0  0  0  0  0  0  0  0  0
    4.5230   61.3960   70.1670 C   0  0  0  0  0  0  0  0  0  0  0  0
    4.9360   61.8140   71.4320 C   0  0  0  0  0  0  0  0  0  0  0  0
    4.6200   61.0540   72.5600 C   0  0  0  0  0  0  0  0  0  0  0  0
   -0.7125   66.8051   71.0063 H   0  0  0  0  0  0  0  0  0  0  0  0
   -0.7844   64.9303   72.6496 H   0  0  0  0  0  0  0  0  0  0  0  0
    2.7294   63.2129   70.8217 H   0  0  0  0  0  0  0  0  0  0  0  0
    2.8101   65.0846   69.1798 H   0  0  0  0  0  0  0  0  0  0  0  0
    2.8392   67.9060   69.7893 H   0  0  0  0  0  0  0  0  0  0  0  0
    1.9303   69.1582   67.3567 H   0  0  0  0  0  0  0  0  0  0  0  0
    1.2165   69.9790   68.8161 H   0  0  0  0  0  0  0  0  0  0  0  0
    3.0805   71.2417   68.7116 H   0  0  0  0  0  0  0  0  0  0  0  0
    3.8236   69.7987   69.5421 H   0  0  0  0  0  0  0  0  0  0  0  0
    6.2287   70.6039   68.4430 H   0  0  0  0  0  0  0  0  0  0  0  0
    7.2110   70.0853   66.0919 H   0  0  0  0  0  0  0  0  0  0  0  0
    1.8887   69.1832   66.0188 H   0  0  0  0  0  0  0  0  0  0  0  0
    2.0144   68.4765   63.6248 H   0  0  0  0  0  0  0  0  0  0  0  0
    4.1852   68.4647   62.4272 H   0  0  0  0  0  0  0  0  0  0  0  0
    6.2927   69.1624   63.5964 H   0  0  0  0  0  0  0  0  0  0  0  0
    0.2877   62.0150   74.3907 H   0  0  0  0  0  0  0  0  0  0  0  0
   -0.5909   63.4640   73.7665 H   0  0  0  0  0  0  0  0  0  0  0  0
   -1.7448   62.2553   72.1674 H   0  0  0  0  0  0  0  0  0  0  0  0
   -0.4642   60.9781   72.0700 H   0  0  0  0  0  0  0  0  0  0  0  0
   -2.8519   61.1602   73.8104 H   0  0  0  0  0  0  0  0  0  0  0  0
   -1.8659   59.7287   73.2820 H   0  0  0  0  0  0  0  0  0  0  0  0
   -0.2582   61.2511   75.0741 H   0  0  0  0  0  0  0  0  0  0  0  0
   -1.9009   61.0660   75.8204 H   0  0  0  0  0  0  0  0  0  0  0  0
   -1.4148   56.9792   74.0913 H   0  0  0  0  0  0  0  0  0  0  0  0
    0.2609   55.8152   72.6572 H   0  0  0  0  0  0  0  0  0  0  0  0
    2.5610   56.7470   72.4056 H   0  0  0  0  0  0  0  0  0  0  0  0
    1.4954   60.0323   75.0112 H   0  0  0  0  0  0  0  0  0  0  0  0
    2.8768   58.5365   71.0364 H   0  0  0  0  0  0  0  0  0  0  0  0
    3.4542   59.8964   69.0264 H   0  0  0  0  0  0  0  0  0  0  0  0
    4.7798   61.9942   69.2803 H   0  0  0  0  0  0  0  0  0  0  0  0
    5.5121   62.7447   71.5413 H   0  0  0  0  0  0  0  0  0  0  0  0
    4.9377   61.3900   73.5581 H   0  0  0  0  0  0  0  0  0  0  0  0
  2  1  2  0
  3  2  1  0
  4  3  2  0
  5  4  1  0
  6  5  2  0
  6  1  1  0
  8  7  2  0
  8  1  1  0
  9  8  1  0
 10  9  1  0
 11 10  1  0
 12 11  1  0
 13 12  2  0
 14 13  1  0
 15 14  1  0
 16 15  2  0
 16 12  1  0
 17 16  1  0
 18 17  2  0
 19 18  1  0
 20 15  1  0
 20 19  2  0
 21  4  1  0
 22 21  1  0
 23 22  1  0
 24 23  1  0
 25 24  1  0
 26 25  1  0
 27 26  1  0
 28 27  2  0
 29 28  1  0
 30 29  2  0
 31 30  1  0
 32 31  2  0
 32 27  1  0
 33 31  1  0
 34 33  2  0
 35 33  1  0
 36 35  2  0
 37 36  1  0
 38 37  2  0
 39 38  1  0
 40 39  2  0
 40 35  1  0
  2 41  1  0
  3 42  1  0
  5 43  1  0
  6 44  1  0
  9 45  1  0
 10 46  1  0
 10 47  1  0
 11 48  1  0
 11 49  1  0
 13 50  1  0
 14 51  1  0
 17 52  1  0
 18 53  1  0
 19 54  1  0
 20 55  1  0
 22 56  1  0
 22 57  1  0
 23 58  1  0
 23 59  1  0
 24 60  1  0
 24 61  1  0
 25 62  1  0
 25 63  1  0
 28 64  1  0
 29 65  1  0
 30 66  1  0
 32 67  1  0
 36 68  1  0
 37 69  1  0
 38 70  1  0
 39 71  1  0
 40 72  1  0
M  END
>  <score>  (8) 
-10.612

$$$$
=
     RDKit          3D

 72 76  0  0  0  0  0  0  0  0999 V2000
    1.1150   62.8890   72.2640 C   0  0  0  0  0  0  0  0  0  0  0  0
    0.4500   63.8400   73.0470 C   0  0  0  0  0  0  0  0  0  0  0  0
    0.0240   65.0520   72.4890 C   0  0  0  0  0  0  0  0  0  0  0  0
    0.2540   65.3210   71.1400 C   0  0  0  0  0  0  0  0  0  0  0  0
    0.9020   64.3600   70.3560 C   0  0  0  0  0  0  0  0  0  0  0  0
    1.3280   63.1490   70.9060 C   0  0  0  0  0  0  0  0  0  0  0  0
    0.7900   60.6420   72.8940 O   0  0  0  0  0  0  0  0  0  0  0  0
    1.5370   61.6150   72.9100 C   0  0  0  0  0  0  0  0  0  0  0  0
    2.7750   61.6090   73.5140 N   0  0  0  0  0  0  0  0  0  0  0  0
    3.3780   60.3810   73.9980 C   0  0  0  0  0  0  0  0  0  0  0  0
    4.4560   59.8400   73.0500 C   0  0  0  0  0  0  0  0  0  0  0  0
    4.0970   60.0000   71.6020 C   0  0  0  0  0  0  0  0  0  0  0  0
    3.5510   59.0270   70.7870 C   0  0  0  0  0  0  0  0  0  0  0  0
    3.3710   59.5600   69.5400 N   0  0  0  0  0  0  0  0  0  0  0  0
    3.7780   60.8730   69.5210 C   0  0  0  0  0  0  0  0  0  0  0  0
    4.2490   61.1760   70.7990 C   0  0  0  0  0  0  0  0  0  0  0  0
    4.7430   62.4750   71.0420 C   0  0  0  0  0  0  0  0  0  0  0  0
    4.7430   63.4180   70.0080 C   0  0  0  0  0  0  0  0  0  0  0  0
    4.2640   63.0840   68.7430 C   0  0  0  0  0  0  0  0  0  0  0  0
    3.7730   61.8030   68.4740 C   0  0  0  0  0  0  0  0  0  0  0  0
   -0.1060   66.4500   70.4640 O   0  0  0  0  0  0  0  0  0  0  0  0
   -0.0280   66.4590   69.0380 C   0  0  0  0  0  0  0  0  0  0  0  0
    0.9030   67.5700   68.5550 C   0  0  0  0  0  0  0  0  0  0  0  0
    0.1150   68.7660   68.0170 C   0  0  0  0  0  0  0  0  0  0  0  0
    1.0030   69.9900   67.7940 C   0  0  0  0  0  0  0  0  0  0  0  0
    2.1800   69.9450   68.5990 O   0  0  0  0  0  0  0  0  0  0  0  0
    3.4050   70.0270   68.0010 C   0  0  0  0  0  0  0  0  0  0  0  0
    4.5520   70.6140   68.5360 C   0  0  0  0  0  0  0  0  0  0  0  0
    5.7490   70.6180   67.8110 C   0  0  0  0  0  0  0  0  0  0  0  0
    5.8050   70.0410   66.5440 C   0  0  0  0  0  0  0  0  0  0  0  0
    4.6550   69.4670   65.9940 C   0  0  0  0  0  0  0  0  0  0  0  0
    3.4660   69.4460   66.7310 C   0  0  0  0  0  0  0  0  0  0  0  0
    4.6710   68.8280   64.6560 C   0  0  0  0  0  0  0  0  0  0  0  0
    5.1040   69.4580   63.6960 O   0  0  0  0  0  0  0  0  0  0  0  0
    4.1700   67.4440   64.4530 C   0  0  0  0  0  0  0  0  0  0  0  0
    4.9640   66.5470   63.7270 C   0  0  0  0  0  0  0  0  0  0  0  0
    4.5310   65.2360   63.5240 C   0  0  0  0  0  0  0  0  0  0  0  0
    3.3120   64.8140   64.0550 C   0  0  0  0  0  0  0  0  0  0  0  0
    2.5280   65.6980   64.7970 C   0  0  0  0  0  0  0  0  0  0  0  0
    2.9570   67.0110   65.0030 C   0  0  0  0  0  0  0  0  0  0  0  0
    0.2602   63.6334   74.1106 H   0  0  0  0  0  0  0  0  0  0  0  0
   -0.4931   65.7932   73.1161 H   0  0  0  0  0  0  0  0  0  0  0  0
    1.0787   64.5616   69.2892 H   0  0  0  0  0  0  0  0  0  0  0  0
    1.8295   62.4019   70.2733 H   0  0  0  0  0  0  0  0  0  0  0  0
    3.2848   62.4971   73.6247 H   0  0  0  0  0  0  0  0  0  0  0  0
    3.8368   60.5763   74.9785 H   0  0  0  0  0  0  0  0  0  0  0  0
    2.5832   59.6236   74.0659 H   0  0  0  0  0  0  0  0  0  0  0  0
    5.3942   60.3817   73.2405 H   0  0  0  0  0  0  0  0  0  0  0  0
    4.5568   58.7625   73.2470 H   0  0  0  0  0  0  0  0  0  0  0  0
    3.3032   57.9988   71.0894 H   0  0  0  0  0  0  0  0  0  0  0  0
    2.9860   59.0508   68.7317 H   0  0  0  0  0  0  0  0  0  0  0  0
    5.1256   62.7447   72.0374 H   0  0  0  0  0  0  0  0  0  0  0  0
    5.1247   64.4324   70.1957 H   0  0  0  0  0  0  0  0  0  0  0  0
    4.2723   63.8398   67.9438 H   0  0  0  0  0  0  0  0  0  0  0  0
    3.3963   61.5352   67.4758 H   0  0  0  0  0  0  0  0  0  0  0  0
    0.3574   65.4888   68.6913 H   0  0  0  0  0  0  0  0  0  0  0  0
   -1.0337   66.6381   68.6300 H   0  0  0  0  0  0  0  0  0  0  0  0
    1.5287   67.9031   69.3961 H   0  0  0  0  0  0  0  0  0  0  0  0
    1.5241   67.1704   67.7398 H   0  0  0  0  0  0  0  0  0  0  0  0
   -0.3466   68.4841   67.0591 H   0  0  0  0  0  0  0  0  0  0  0  0
   -0.6459   69.0329   68.7652 H   0  0  0  0  0  0  0  0  0  0  0  0
    1.2974   70.0280   66.7348 H   0  0  0  0  0  0  0  0  0  0  0  0
    0.4292   70.8846   68.0774 H   0  0  0  0  0  0  0  0  0  0  0  0
    4.5153   71.0763   69.5334 H   0  0  0  0  0  0  0  0  0  0  0  0
    6.6495   71.0787   68.2433 H   0  0  0  0  0  0  0  0  0  0  0  0
    6.7491   70.0371   65.9795 H   0  0  0  0  0  0  0  0  0  0  0  0
    2.5707   68.9678   66.3071 H   0  0  0  0  0  0  0  0  0  0  0  0
    5.9299   66.8764   63.3164 H   0  0  0  0  0  0  0  0  0  0  0  0
    5.1509   64.5354   62.9453 H   0  0  0  0  0  0  0  0  0  0  0  0
    2.9683   63.7824   63.8884 H   0  0  0  0  0  0  0  0  0  0  0  0
    1.5706   65.3603   65.2204 H   0  0  0  0  0  0  0  0  0  0  0  0
    2.3429   67.7042   65.5965 H   0  0  0  0  0  0  0  0  0  0  0  0
  2  1  2  0
  3  2  1  0
  4  3  2  0
  5  4  1  0
  6  5  2  0
  6  1  1  0
  8  7  2  0
  8  1  1  0
  9  8  1  0
 10  9  1  0
 11 10  1  0
 12 11  1  0
 13 12  2  0
 14 13  1  0
 15 14  1  0
 16 15  2  0
 16 12  1  0
 17 16  1  0
 18 17  2  0
 19 18  1  0
 20 15  1  0
 20 19  2  0
 21  4  1  0
 22 21  1  0
 23 22  1  0
 24 23  1  0
 25 24  1  0
 26 25  1  0
 27 26  1  0
 28 27  2  0
 29 28  1  0
 30 29  2  0
 31 30  1  0
 32 31  2  0
 32 27  1  0
 33 31  1  0
 34 33  2  0
 35 33  1  0
 36 35  2  0
 37 36  1  0
 38 37  2  0
 39 38  1  0
 40 39  2  0
 40 35  1  0
  2 41  1  0
  3 42  1  0
  5 43  1  0
  6 44  1  0
  9 45  1  0
 10 46  1  0
 10 47  1  0
 11 48  1  0
 11 49  1  0
 13 50  1  0
 14 51  1  0
 17 52  1  0
 18 53  1  0
 19 54  1  0
 20 55  1  0
 22 56  1  0
 22 57  1  0
 23 58  1  0
 23 59  1  0
 24 60  1  0
 24 61  1  0
 25 62  1  0
 25 63  1  0
 28 64  1  0
 29 65  1  0
 30 66  1  0
 32 67  1  0
 36 68  1  0
 37 69  1  0
 38 70  1  0
 39 71  1  0
 40 72  1  0
M  END
>  <score>  (9) 
-10.482

$$$$
