=
     RDKit          3D

 26 28  0  0  0  0  0  0  0  0999 V2000
    1.2890   68.6910   66.0310 O   0  0  0  0  0  0  0  0  0  0  0  0
    2.4260   69.0930   66.2400 C   0  0  0  0  0  0  0  0  0  0  0  0
    2.8290   69.5510   67.6240 C   0  0  0  0  0  0  0  0  0  0  0  0
    2.0190   69.5210   68.5400 O   0  0  0  0  0  0  0  0  0  0  0  0
    4.2080   70.0290   67.8360 C   0  0  0  0  0  0  0  0  0  0  0  0
    4.5640   70.4500   69.1300 C   0  0  0  0  0  0  0  0  0  0  0  0
    5.8490   70.9100   69.3890 C   0  0  0  0  0  0  0  0  0  0  0  0
    6.7760   70.9490   68.3580 C   0  0  0  0  0  0  0  0  0  0  0  0
    6.4200   70.5280   67.0700 C   0  0  0  0  0  0  0  0  0  0  0  0
    5.1250   70.0550   66.7680 C   0  0  0  0  0  0  0  0  0  0  0  0
    4.7290   69.6050   65.4090 C   0  0  0  0  0  0  0  0  0  0  0  0
    3.4230   69.1390   65.1530 C   0  0  0  0  0  0  0  0  0  0  0  0
    3.0180   68.7070   63.8760 C   0  0  0  0  0  0  0  0  0  0  0  0
    3.9280   68.7330   62.8200 C   0  0  0  0  0  0  0  0  0  0  0  0
    5.2300   69.1870   63.0340 C   0  0  0  0  0  0  0  0  0  0  0  0
    5.6170   69.6150   64.3130 C   0  0  0  0  0  0  0  0  0  0  0  0
    3.5210   68.2850   61.4830 N   0  0  0  0  0  4  0  0  0  0  0  0
    2.7910   69.0400   60.8230 O   0  0  0  0  0  0  0  0  0  0  0  0
    3.9300   67.1840   61.0940 O   0  0  0  0  0  1  0  0  0  0  0  0
    3.8214   70.4148   69.9407 H   0  0  0  0  0  0  0  0  0  0  0  0
    6.1282   71.2397   70.4006 H   0  0  0  0  0  0  0  0  0  0  0  0
    7.7959   71.3123   68.5526 H   0  0  0  0  0  0  0  0  0  0  0  0
    7.1732   70.5673   66.2693 H   0  0  0  0  0  0  0  0  0  0  0  0
    1.9901   68.3512   63.7123 H   0  0  0  0  0  0  0  0  0  0  0  0
    5.9504   69.2093   62.2030 H   0  0  0  0  0  0  0  0  0  0  0  0
    6.6468   69.9700   64.4661 H   0  0  0  0  0  0  0  0  0  0  0  0
  2  1  2  0
  3  2  1  0
  4  3  2  0
  5  3  1  0
  6  5  1  0
  7  6  2  0
  8  7  1  0
  9  8  2  0
 10  5  2  0
 10  9  1  0
 11 10  1  0
 12 11  2  0
 12  2  1  0
 13 12  1  0
 14 13  2  0
 15 14  1  0
 16 15  2  0
 16 11  1  0
 17 14  1  0
 18 17  2  0
 19 17  1  0
  6 20  1  0
  7 21  1  0
  8 22  1  0
  9 23  1  0
 13 24  1  0
 15 25  1  0
 16 26  1  0
M  CHG  2  17   1  19  -1
M  END
>  <score>  (1) 
-11.805

$$$$
=
     RDKit          3D

 26 28  0  0  0  0  0  0  0  0999 V2000
    3.0420   68.5870   63.5000 O   0  0  0  0  0  0  0  0  0  0  0  0
    3.3470   68.9640   64.6240 C   0  0  0  0  0  0  0  0  0  0  0  0
    4.7520   69.4460   64.9100 C   0  0  0  0  0  0  0  0  0  0  0  0
    5.5890   69.4590   64.0170 O   0  0  0  0  0  0  0  0  0  0  0  0
    5.0820   69.8920   66.2760 C   0  0  0  0  0  0  0  0  0  0  0  0
    6.3930   70.3370   66.5220 C   0  0  0  0  0  0  0  0  0  0  0  0
    6.7600   70.7690   67.7890 C   0  0  0  0  0  0  0  0  0  0  0  0
    5.8200   70.7580   68.8090 C   0  0  0  0  0  0  0  0  0  0  0  0
    4.5130   70.3160   68.5620 C   0  0  0  0  0  0  0  0  0  0  0  0
    4.1030   69.8690   67.2880 C   0  0  0  0  0  0  0  0  0  0  0  0
    2.7230   69.3960   67.0070 C   0  0  0  0  0  0  0  0  0  0  0  0
    2.3570   68.9580   65.7170 C   0  0  0  0  0  0  0  0  0  0  0  0
    1.0570   68.5040   65.4210 C   0  0  0  0  0  0  0  0  0  0  0  0
    0.0900   68.4830   66.4250 C   0  0  0  0  0  0  0  0  0  0  0  0
    0.4150   68.9090   67.7140 C   0  0  0  0  0  0  0  0  0  0  0  0
    1.7140   69.3570   67.9920 C   0  0  0  0  0  0  0  0  0  0  0  0
   -1.2690   68.0120   66.1300 N   0  0  0  0  0  4  0  0  0  0  0  0
   -1.8890   68.5840   65.2220 O   0  0  0  0  0  0  0  0  0  0  0  0
   -1.7130   67.0750   66.8050 O   0  0  0  0  0  1  0  0  0  0  0  0
    7.1312   70.3428   65.7065 H   0  0  0  0  0  0  0  0  0  0  0  0
    7.7856   71.1165   67.9822 H   0  0  0  0  0  0  0  0  0  0  0  0
    6.1017   71.0978   69.8166 H   0  0  0  0  0  0  0  0  0  0  0  0
    3.7848   70.3176   69.3864 H   0  0  0  0  0  0  0  0  0  0  0  0
    0.8063   68.1681   64.4040 H   0  0  0  0  0  0  0  0  0  0  0  0
   -0.3454   68.8932   68.5087 H   0  0  0  0  0  0  0  0  0  0  0  0
    1.9545   69.6893   69.0126 H   0  0  0  0  0  0  0  0  0  0  0  0
  2  1  2  0
  3  2  1  0
  4  3  2  0
  5  3  1  0
  6  5  1  0
  7  6  2  0
  8  7  1  0
  9  8  2  0
 10  5  2  0
 10  9  1  0
 11 10  1  0
 12 11  2  0
 12  2  1  0
 13 12  1  0
 14 13  2  0
 15 14  1  0
 16 15  2  0
 16 11  1  0
 17 14  1  0
 18 17  2  0
 19 17  1  0
  6 20  1  0
  7 21  1  0
  8 22  1  0
  9 23  1  0
 13 24  1  0
 15 25  1  0
 16 26  1  0
M  CHG  2  17   1  19  -1
M  END
>  <score>  (2) 
-11.225

$$$$
=
     RDKit          3D

 26 28  0  0  0  0  0  0  0  0999 V2000
    1.3410   69.5910   67.8200 O   0  0  0  0  0  0  0  0  0  0  0  0
    2.5390   69.7360   67.6180 C   0  0  0  0  0  0  0  0  0  0  0  0
    3.4460   70.2130   68.7310 C   0  0  0  0  0  0  0  0  0  0  0  0
    2.9840   70.4550   69.8370 O   0  0  0  0  0  0  0  0  0  0  0  0
    4.8840   70.3760   68.4480 C   0  0  0  0  0  0  0  0  0  0  0  0
    5.7120   70.8200   69.4960 C   0  0  0  0  0  0  0  0  0  0  0  0
    7.0740   70.9920   69.2870 C   0  0  0  0  0  0  0  0  0  0  0  0
    7.6090   70.7210   68.0370 C   0  0  0  0  0  0  0  0  0  0  0  0
    6.7840   70.2780   66.9950 C   0  0  0  0  0  0  0  0  0  0  0  0
    5.3950   70.0920   67.1680 C   0  0  0  0  0  0  0  0  0  0  0  0
    4.5040   69.6240   66.0750 C   0  0  0  0  0  0  0  0  0  0  0  0
    3.1220   69.4510   66.2930 C   0  0  0  0  0  0  0  0  0  0  0  0
    2.2530   69.0090   65.2770 C   0  0  0  0  0  0  0  0  0  0  0  0
    2.7610   68.7280   64.0100 C   0  0  0  0  0  0  0  0  0  0  0  0
    4.1240   68.8870   63.7560 C   0  0  0  0  0  0  0  0  0  0  0  0
    4.9770   69.3280   64.7790 C   0  0  0  0  0  0  0  0  0  0  0  0
    1.8670   68.2660   62.9410 N   0  0  0  0  0  4  0  0  0  0  0  0
    0.7200   67.9220   63.2620 O   0  0  0  0  0  0  0  0  0  0  0  0
    2.3100   68.2490   61.7860 O   0  0  0  0  0  1  0  0  0  0  0  0
    5.2785   71.0316   70.4846 H   0  0  0  0  0  0  0  0  0  0  0  0
    7.7220   71.3398   70.1050 H   0  0  0  0  0  0  0  0  0  0  0  0
    8.6868   70.8545   67.8625 H   0  0  0  0  0  0  0  0  0  0  0  0
    7.2318   70.0687   66.0123 H   0  0  0  0  0  0  0  0  0  0  0  0
    1.1793   68.8862   65.4822 H   0  0  0  0  0  0  0  0  0  0  0  0
    4.5283   68.6673   62.7569 H   0  0  0  0  0  0  0  0  0  0  0  0
    6.0492   69.4468   64.5637 H   0  0  0  0  0  0  0  0  0  0  0  0
  2  1  2  0
  3  2  1  0
  4  3  2  0
  5  3  1  0
  6  5  1  0
  7  6  2  0
  8  7  1  0
  9  8  2  0
 10  5  2  0
 10  9  1  0
 11 10  1  0
 12 11  2  0
 12  2  1  0
 13 12  1  0
 14 13  2  0
 15 14  1  0
 16 15  2  0
 16 11  1  0
 17 14  1  0
 18 17  2  0
 19 17  1  0
  6 20  1  0
  7 21  1  0
  8 22  1  0
  9 23  1  0
 13 24  1  0
 15 25  1  0
 16 26  1  0
M  CHG  2  17   1  19  -1
M  END
>  <score>  (3) 
-11.065

$$$$
=
     RDKit          3D

 26 28  0  0  0  0  0  0  0  0999 V2000
    1.2630   69.0230   67.2650 O   0  0  0  0  0  0  0  0  0  0  0  0
    2.0360   69.0620   66.3170 C   0  0  0  0  0  0  0  0  0  0  0  0
    1.5640   68.6760   64.9330 C   0  0  0  0  0  0  0  0  0  0  0  0
    0.4070   68.3230   64.7560 O   0  0  0  0  0  0  0  0  0  0  0  0
    2.5260   68.7360   63.8170 C   0  0  0  0  0  0  0  0  0  0  0  0
    2.0680   68.3730   62.5370 C   0  0  0  0  0  0  0  0  0  0  0  0
    2.9300   68.4110   61.4480 C   0  0  0  0  0  0  0  0  0  0  0  0
    4.2450   68.8090   61.6360 C   0  0  0  0  0  0  0  0  0  0  0  0
    4.6990   69.1710   62.9120 C   0  0  0  0  0  0  0  0  0  0  0  0
    3.8540   69.1450   64.0420 C   0  0  0  0  0  0  0  0  0  0  0  0
    4.3170   69.5250   65.4010 C   0  0  0  0  0  0  0  0  0  0  0  0
    3.4380   69.4850   66.5030 C   0  0  0  0  0  0  0  0  0  0  0  0
    3.8480   69.8380   67.8030 C   0  0  0  0  0  0  0  0  0  0  0  0
    5.1630   70.2430   68.0230 C   0  0  0  0  0  0  0  0  0  0  0  0
    6.0630   70.2960   66.9580 C   0  0  0  0  0  0  0  0  0  0  0  0
    5.6390   69.9410   65.6690 C   0  0  0  0  0  0  0  0  0  0  0  0
    5.6050   70.6150   69.3730 N   0  0  0  0  0  4  0  0  0  0  0  0
    6.8030   70.8970   69.5260 O   0  0  0  0  0  0  0  0  0  0  0  0
    4.7580   70.6240   70.2750 O   0  0  0  0  0  1  0  0  0  0  0  0
    1.0233   68.0579   62.3980 H   0  0  0  0  0  0  0  0  0  0  0  0
    2.5729   68.1282   60.4467 H   0  0  0  0  0  0  0  0  0  0  0  0
    4.9351   68.8408   60.7800 H   0  0  0  0  0  0  0  0  0  0  0  0
    5.7459   69.4849   63.0362 H   0  0  0  0  0  0  0  0  0  0  0  0
    3.1349   69.7943   68.6394 H   0  0  0  0  0  0  0  0  0  0  0  0
    7.1017   70.6152   67.1288 H   0  0  0  0  0  0  0  0  0  0  0  0
    6.3603   69.9883   64.8398 H   0  0  0  0  0  0  0  0  0  0  0  0
  2  1  2  0
  3  2  1  0
  4  3  2  0
  5  3  1  0
  6  5  1  0
  7  6  2  0
  8  7  1  0
  9  8  2  0
 10  5  2  0
 10  9  1  0
 11 10  1  0
 12 11  2  0
 12  2  1  0
 13 12  1  0
 14 13  2  0
 15 14  1  0
 16 15  2  0
 16 11  1  0
 17 14  1  0
 18 17  2  0
 19 17  1  0
  6 20  1  0
  7 21  1  0
  8 22  1  0
  9 23  1  0
 13 24  1  0
 15 25  1  0
 16 26  1  0
M  CHG  2  17   1  19  -1
M  END
>  <score>  (4) 
-10.607

$$$$
=
     RDKit          3D

 26 28  0  0  0  0  0  0  0  0999 V2000
    3.0440   69.7890   68.7920 O   0  0  0  0  0  0  0  0  0  0  0  0
    3.1080   69.4710   67.6120 C   0  0  0  0  0  0  0  0  0  0  0  0
    4.3010   69.8810   66.7760 C   0  0  0  0  0  0  0  0  0  0  0  0
    5.2060   70.5330   67.2780 O   0  0  0  0  0  0  0  0  0  0  0  0
    4.3400   69.4790   65.3580 C   0  0  0  0  0  0  0  0  0  0  0  0
    5.4570   69.8700   64.5970 C   0  0  0  0  0  0  0  0  0  0  0  0
    5.5490   69.5190   63.2570 C   0  0  0  0  0  0  0  0  0  0  0  0
    4.5290   68.7800   62.6760 C   0  0  0  0  0  0  0  0  0  0  0  0
    3.4170   68.3910   63.4360 C   0  0  0  0  0  0  0  0  0  0  0  0
    3.2880   68.7290   64.8010 C   0  0  0  0  0  0  0  0  0  0  0  0
    2.1170   68.3260   65.6210 C   0  0  0  0  0  0  0  0  0  0  0  0
    2.0300   68.6850   66.9820 C   0  0  0  0  0  0  0  0  0  0  0  0
    0.9330   68.3180   67.7850 C   0  0  0  0  0  0  0  0  0  0  0  0
   -0.1080   67.5750   67.2310 C   0  0  0  0  0  0  0  0  0  0  0  0
   -0.0570   67.2000   65.8870 C   0  0  0  0  0  0  0  0  0  0  0  0
    1.0420   67.5740   65.1010 C   0  0  0  0  0  0  0  0  0  0  0  0
   -1.2580   67.1850   68.0560 N   0  0  0  0  0  4  0  0  0  0  0  0
   -2.3630   67.6640   67.7610 O   0  0  0  0  0  0  0  0  0  0  0  0
   -1.0560   66.4030   68.9930 O   0  0  0  0  0  1  0  0  0  0  0  0
    6.2609   70.4564   65.0659 H   0  0  0  0  0  0  0  0  0  0  0  0
    6.4223   69.8240   62.6617 H   0  0  0  0  0  0  0  0  0  0  0  0
    4.5929   68.4980   61.6147 H   0  0  0  0  0  0  0  0  0  0  0  0
    2.6207   67.8046   62.9543 H   0  0  0  0  0  0  0  0  0  0  0  0
    0.8978   68.6160   68.8433 H   0  0  0  0  0  0  0  0  0  0  0  0
   -0.8764   66.6131   65.4464 H   0  0  0  0  0  0  0  0  0  0  0  0
    1.0672   67.2712   64.0438 H   0  0  0  0  0  0  0  0  0  0  0  0
  2  1  2  0
  3  2  1  0
  4  3  2  0
  5  3  1  0
  6  5  1  0
  7  6  2  0
  8  7  1  0
  9  8  2  0
 10  5  2  0
 10  9  1  0
 11 10  1  0
 12 11  2  0
 12  2  1  0
 13 12  1  0
 14 13  2  0
 15 14  1  0
 16 15  2  0
 16 11  1  0
 17 14  1  0
 18 17  2  0
 19 17  1  0
  6 20  1  0
  7 21  1  0
  8 22  1  0
  9 23  1  0
 13 24  1  0
 15 25  1  0
 16 26  1  0
M  CHG  2  17   1  19  -1
M  END
>  <score>  (5) 
-9.47

$$$$
