=
     RDKit          3D

  5  4  0  0  0  0  0  0  0  0999 V2000
    7.5250   70.9330   69.5070 Cl  0  0  0  0  0  0  0  0  0  0  0  0
    6.0520   71.0540   68.5280 C   0  0  0  0  0  0  0  0  0  0  0  0
    6.2010   70.0800   67.0560 Cl  0  0  0  0  0  0  0  0  0  0  0  0
    4.6370   70.5490   69.4680 Cl  0  0  0  0  0  0  0  0  0  0  0  0
    5.9162   72.1055   68.2350 H   0  0  0  0  0  0  0  0  0  0  0  0
  2  1  1  0
  3  2  1  0
  4  2  1  0
  2  5  1  0
M  END
>  <score>  (1) 
-3.415

$$$$
=
     RDKit          3D

  5  4  0  0  0  0  0  0  0  0999 V2000
    6.1540   70.1140   67.1010 Cl  0  0  0  0  0  0  0  0  0  0  0  0
    6.0350   71.0520   68.5990 C   0  0  0  0  0  0  0  0  0  0  0  0
    4.6330   70.5340   69.5500 Cl  0  0  0  0  0  0  0  0  0  0  0  0
    7.5230   70.8980   69.5500 Cl  0  0  0  0  0  0  0  0  0  0  0  0
    5.9008   72.1110   68.3337 H   0  0  0  0  0  0  0  0  0  0  0  0
  2  1  1  0
  3  2  1  0
  4  2  1  0
  2  5  1  0
M  END
>  <score>  (2) 
-3.41

$$$$
=
     RDKit          3D

  5  4  0  0  0  0  0  0  0  0999 V2000
    4.6450   70.5700   69.4410 Cl  0  0  0  0  0  0  0  0  0  0  0  0
    6.0880   71.0720   68.5430 C   0  0  0  0  0  0  0  0  0  0  0  0
    7.5390   70.8960   69.5450 Cl  0  0  0  0  0  0  0  0  0  0  0  0
    6.2480   70.1340   67.0470 Cl  0  0  0  0  0  0  0  0  0  0  0  0
    5.9776   72.1336   68.2771 H   0  0  0  0  0  0  0  0  0  0  0  0
  2  1  1  0
  3  2  1  0
  4  2  1  0
  2  5  1  0
M  END
>  <score>  (3) 
-3.409

$$$$
=
     RDKit          3D

  5  4  0  0  0  0  0  0  0  0999 V2000
    6.3910   70.9480   66.5020 Cl  0  0  0  0  0  0  0  0  0  0  0  0
    6.2390   70.5030   68.2100 C   0  0  0  0  0  0  0  0  0  0  0  0
    7.5170   71.2680   69.1700 Cl  0  0  0  0  0  0  0  0  0  0  0  0
    4.6410   70.9530   68.8310 Cl  0  0  0  0  0  0  0  0  0  0  0  0
    6.3491   69.4117   68.2939 H   0  0  0  0  0  0  0  0  0  0  0  0
  2  1  1  0
  3  2  1  0
  4  2  1  0
  2  5  1  0
M  END
>  <score>  (4) 
-2.956

$$$$
=
     RDKit          3D

  5  4  0  0  0  0  0  0  0  0999 V2000
    5.9890   71.7680   68.2930 Cl  0  0  0  0  0  0  0  0  0  0  0  0
    5.0360   70.2900   68.0780 C   0  0  0  0  0  0  0  0  0  0  0  0
    3.4460   70.4560   68.8430 Cl  0  0  0  0  0  0  0  0  0  0  0  0
    4.8610   69.9060   66.3570 Cl  0  0  0  0  0  0  0  0  0  0  0  0
    5.5699   69.4610   68.5655 H   0  0  0  0  0  0  0  0  0  0  0  0
  2  1  1  0
  3  2  1  0
  4  2  1  0
  2  5  1  0
M  END
>  <score>  (5) 
-2.938

$$$$
=
     RDKit          3D

  5  4  0  0  0  0  0  0  0  0999 V2000
    3.9880   70.1720   68.0420 Cl  0  0  0  0  0  0  0  0  0  0  0  0
    5.4740   69.8160   67.1450 C   0  0  0  0  0  0  0  0  0  0  0  0
    5.1800   69.8870   65.3990 Cl  0  0  0  0  0  0  0  0  0  0  0  0
    6.7640   70.9410   67.6040 Cl  0  0  0  0  0  0  0  0  0  0  0  0
    5.7962   68.7960   67.4013 H   0  0  0  0  0  0  0  0  0  0  0  0
  2  1  1  0
  3  2  1  0
  4  2  1  0
  2  5  1  0
M  END
>  <score>  (6) 
-2.885

$$$$
=
     RDKit          3D

  5  4  0  0  0  0  0  0  0  0999 V2000
    5.7600   60.8940   71.4050 Cl  0  0  0  0  0  0  0  0  0  0  0  0
    4.4430   61.9120   70.7980 C   0  0  0  0  0  0  0  0  0  0  0  0
    5.0250   63.5530   70.4680 Cl  0  0  0  0  0  0  0  0  0  0  0  0
    3.7260   61.2020   69.3410 Cl  0  0  0  0  0  0  0  0  0  0  0  0
    3.6654   61.9693   71.5739 H   0  0  0  0  0  0  0  0  0  0  0  0
  2  1  1  0
  3  2  1  0
  4  2  1  0
  2  5  1  0
M  END
>  <score>  (7) 
-2.884

$$$$
=
     RDKit          3D

  5  4  0  0  0  0  0  0  0  0999 V2000
    3.6640   61.3700   69.3830 Cl  0  0  0  0  0  0  0  0  0  0  0  0
    4.4810   62.0220   70.8140 C   0  0  0  0  0  0  0  0  0  0  0  0
    5.7620   60.9240   71.3550 Cl  0  0  0  0  0  0  0  0  0  0  0  0
    5.1430   63.6310   70.4740 Cl  0  0  0  0  0  0  0  0  0  0  0  0
    3.7408   62.1152   71.6224 H   0  0  0  0  0  0  0  0  0  0  0  0
  2  1  1  0
  3  2  1  0
  4  2  1  0
  2  5  1  0
M  END
>  <score>  (8) 
-2.876

$$$$
=
     RDKit          3D

  5  4  0  0  0  0  0  0  0  0999 V2000
    4.9370   63.5540   70.3690 Cl  0  0  0  0  0  0  0  0  0  0  0  0
    4.4110   61.9090   70.7670 C   0  0  0  0  0  0  0  0  0  0  0  0
    3.6280   61.1510   69.3700 Cl  0  0  0  0  0  0  0  0  0  0  0  0
    5.7840   60.9320   71.3160 Cl  0  0  0  0  0  0  0  0  0  0  0  0
    3.6784   61.9682   71.5854 H   0  0  0  0  0  0  0  0  0  0  0  0
  2  1  1  0
  3  2  1  0
  4  2  1  0
  2  5  1  0
M  END
>  <score>  (9) 
-2.873

$$$$
