=
     RDKit          3D

 16 16  0  0  0  0  0  0  0  0999 V2000
    3.6350   71.0220   69.4390 O   0  0  0  0  0  0  0  0  0  0  0  0
    4.1600   70.5940   68.4210 C   0  0  0  0  0  0  0  0  0  0  0  0
    3.5900   69.4650   67.6040 C   0  0  0  0  0  0  0  0  0  0  0  0
    3.9700   69.6430   66.1420 C   0  0  0  0  0  0  0  0  0  0  0  0
    5.4840   69.6190   65.9250 C   0  0  0  0  0  0  0  0  0  0  0  0
    6.2990   70.1830   67.0840 C   0  0  0  0  0  0  0  0  0  0  0  0
    5.5070   71.1290   67.9470 C   0  0  0  0  0  0  0  0  0  0  0  0
    5.9080   72.2310   68.2920 O   0  0  0  0  0  0  0  0  0  0  0  0
    3.9916   68.5093   67.9718 H   0  0  0  0  0  0  0  0  0  0  0  0
    2.4939   69.4672   67.6969 H   0  0  0  0  0  0  0  0  0  0  0  0
    3.5166   68.8288   65.5577 H   0  0  0  0  0  0  0  0  0  0  0  0
    3.6006   70.6269   65.8172 H   0  0  0  0  0  0  0  0  0  0  0  0
    5.7914   68.5750   65.7650 H   0  0  0  0  0  0  0  0  0  0  0  0
    5.6856   70.2650   65.0578 H   0  0  0  0  0  0  0  0  0  0  0  0
    6.6486   69.3470   67.7077 H   0  0  0  0  0  0  0  0  0  0  0  0
    7.1382   70.7497   66.6544 H   0  0  0  0  0  0  0  0  0  0  0  0
  2  1  2  0
  3  2  1  0
  4  3  1  0
  5  4  1  0
  6  5  1  0
  7  2  1  0
  7  6  1  0
  8  7  2  0
  3  9  1  0
  3 10  1  0
  4 11  1  0
  4 12  1  0
  5 13  1  0
  5 14  1  0
  6 15  1  0
  6 16  1  0
M  END
>  <score>  (1) 
-5.621

$$$$
=
     RDKit          3D

 16 16  0  0  0  0  0  0  0  0999 V2000
    3.2090   69.5250   67.2160 O   0  0  0  0  0  0  0  0  0  0  0  0
    4.2860   69.9650   67.5910 C   0  0  0  0  0  0  0  0  0  0  0  0
    5.5560   69.8430   66.7920 C   0  0  0  0  0  0  0  0  0  0  0  0
    6.4670   71.0250   67.0860 C   0  0  0  0  0  0  0  0  0  0  0  0
    6.8800   71.0920   68.5560 C   0  0  0  0  0  0  0  0  0  0  0  0
    5.8320   70.5710   69.5340 C   0  0  0  0  0  0  0  0  0  0  0  0
    4.4380   70.6060   68.9660 C   0  0  0  0  0  0  0  0  0  0  0  0
    3.4740   71.0690   69.5600 O   0  0  0  0  0  0  0  0  0  0  0  0
    6.0701   68.9094   67.0643 H   0  0  0  0  0  0  0  0  0  0  0  0
    5.3102   69.8326   65.7199 H   0  0  0  0  0  0  0  0  0  0  0  0
    7.3728   70.9348   66.4685 H   0  0  0  0  0  0  0  0  0  0  0  0
    5.9093   71.9440   66.8525 H   0  0  0  0  0  0  0  0  0  0  0  0
    7.7949   70.4946   68.6830 H   0  0  0  0  0  0  0  0  0  0  0  0
    7.0241   72.1568   68.7913 H   0  0  0  0  0  0  0  0  0  0  0  0
    6.0798   69.5314   69.7943 H   0  0  0  0  0  0  0  0  0  0  0  0
    5.8472   71.2265   70.4172 H   0  0  0  0  0  0  0  0  0  0  0  0
  2  1  2  0
  3  2  1  0
  4  3  1  0
  5  4  1  0
  6  5  1  0
  7  2  1  0
  7  6  1  0
  8  7  2  0
  3  9  1  0
  3 10  1  0
  4 11  1  0
  4 12  1  0
  5 13  1  0
  5 14  1  0
  6 15  1  0
  6 16  1  0
M  END
>  <score>  (2) 
-5.529

$$$$
=
     RDKit          3D

 16 16  0  0  0  0  0  0  0  0999 V2000
    3.7660   71.1820   69.8690 O   0  0  0  0  0  0  0  0  0  0  0  0
    4.2910   70.7810   68.8410 C   0  0  0  0  0  0  0  0  0  0  0  0
    5.6310   71.2610   68.3510 C   0  0  0  0  0  0  0  0  0  0  0  0
    6.3220   70.1550   67.5690 C   0  0  0  0  0  0  0  0  0  0  0  0
    5.5300   69.7330   66.3310 C   0  0  0  0  0  0  0  0  0  0  0  0
    4.0160   69.8420   66.4800 C   0  0  0  0  0  0  0  0  0  0  0  0
    3.5680   69.8070   67.9170 C   0  0  0  0  0  0  0  0  0  0  0  0
    2.6650   69.0920   68.3300 O   0  0  0  0  0  0  0  0  0  0  0  0
    5.4891   72.1352   67.6986 H   0  0  0  0  0  0  0  0  0  0  0  0
    6.2542   71.5385   69.2139 H   0  0  0  0  0  0  0  0  0  0  0  0
    7.3117   70.5136   67.2497 H   0  0  0  0  0  0  0  0  0  0  0  0
    6.4039   69.2789   68.2290 H   0  0  0  0  0  0  0  0  0  0  0  0
    5.8393   70.3724   65.4911 H   0  0  0  0  0  0  0  0  0  0  0  0
    5.7518   68.6683   66.1662 H   0  0  0  0  0  0  0  0  0  0  0  0
    3.6860   70.7908   66.0318 H   0  0  0  0  0  0  0  0  0  0  0  0
    3.5695   68.9743   65.9723 H   0  0  0  0  0  0  0  0  0  0  0  0
  2  1  2  0
  3  2  1  0
  4  3  1  0
  5  4  1  0
  6  5  1  0
  7  2  1  0
  7  6  1  0
  8  7  2  0
  3  9  1  0
  3 10  1  0
  4 11  1  0
  4 12  1  0
  5 13  1  0
  5 14  1  0
  6 15  1  0
  6 16  1  0
M  END
>  <score>  (3) 
-5.204

$$$$
=
     RDKit          3D

 16 16  0  0  0  0  0  0  0  0999 V2000
    4.1500   59.7600   69.3870 O   0  0  0  0  0  0  0  0  0  0  0  0
    3.9440   60.9170   69.7200 C   0  0  0  0  0  0  0  0  0  0  0  0
    2.8230   61.7550   69.1630 C   0  0  0  0  0  0  0  0  0  0  0  0
    2.3670   62.7660   70.2040 C   0  0  0  0  0  0  0  0  0  0  0  0
    3.4800   63.7350   70.6030 C   0  0  0  0  0  0  0  0  0  0  0  0
    4.8840   63.1400   70.5630 C   0  0  0  0  0  0  0  0  0  0  0  0
    4.8840   61.6390   70.6810 C   0  0  0  0  0  0  0  0  0  0  0  0
    5.6030   61.0170   71.4490 O   0  0  0  0  0  0  0  0  0  0  0  0
    3.1757   62.2873   68.2673 H   0  0  0  0  0  0  0  0  0  0  0  0
    1.9788   61.1014   68.8983 H   0  0  0  0  0  0  0  0  0  0  0  0
    1.5270   63.3438   69.7909 H   0  0  0  0  0  0  0  0  0  0  0  0
    2.0692   62.2087   71.1044 H   0  0  0  0  0  0  0  0  0  0  0  0
    3.4511   64.5929   69.9151 H   0  0  0  0  0  0  0  0  0  0  0  0
    3.2895   64.0149   71.6496 H   0  0  0  0  0  0  0  0  0  0  0  0
    5.3566   63.4178   69.6093 H   0  0  0  0  0  0  0  0  0  0  0  0
    5.4386   63.5404   71.4245 H   0  0  0  0  0  0  0  0  0  0  0  0
  2  1  2  0
  3  2  1  0
  4  3  1  0
  5  4  1  0
  6  5  1  0
  7  2  1  0
  7  6  1  0
  8  7  2  0
  3  9  1  0
  3 10  1  0
  4 11  1  0
  4 12  1  0
  5 13  1  0
  5 14  1  0
  6 15  1  0
  6 16  1  0
M  END
>  <score>  (4) 
-5.114

$$$$
=
     RDKit          3D

 16 16  0  0  0  0  0  0  0  0999 V2000
    4.8980   60.0060   71.8630 O   0  0  0  0  0  0  0  0  0  0  0  0
    4.5250   60.8700   71.0840 C   0  0  0  0  0  0  0  0  0  0  0  0
    4.5940   62.3440   71.3840 C   0  0  0  0  0  0  0  0  0  0  0  0
    4.7850   63.1260   70.0930 C   0  0  0  0  0  0  0  0  0  0  0  0
    3.6240   62.9320   69.1160 C   0  0  0  0  0  0  0  0  0  0  0  0
    2.9630   61.5590   69.1820 C   0  0  0  0  0  0  0  0  0  0  0  0
    3.8690   60.5030   69.7570 C   0  0  0  0  0  0  0  0  0  0  0  0
    4.0500   59.4090   69.2420 O   0  0  0  0  0  0  0  0  0  0  0  0
    3.6589   62.6620   71.8682 H   0  0  0  0  0  0  0  0  0  0  0  0
    5.4442   62.5380   72.0545 H   0  0  0  0  0  0  0  0  0  0  0  0
    4.8665   64.1956   70.3367 H   0  0  0  0  0  0  0  0  0  0  0  0
    5.6982   62.7524   69.6068 H   0  0  0  0  0  0  0  0  0  0  0  0
    2.8597   63.6920   69.3358 H   0  0  0  0  0  0  0  0  0  0  0  0
    4.0473   63.0266   68.1051 H   0  0  0  0  0  0  0  0  0  0  0  0
    2.0639   61.6316   69.8115 H   0  0  0  0  0  0  0  0  0  0  0  0
    2.7169   61.2598   68.1525 H   0  0  0  0  0  0  0  0  0  0  0  0
  2  1  2  0
  3  2  1  0
  4  3  1  0
  5  4  1  0
  6  5  1  0
  7  2  1  0
  7  6  1  0
  8  7  2  0
  3  9  1  0
  3 10  1  0
  4 11  1  0
  4 12  1  0
  5 13  1  0
  5 14  1  0
  6 15  1  0
  6 16  1  0
M  END
>  <score>  (5) 
-4.995

$$$$
=
     RDKit          3D

 16 16  0  0  0  0  0  0  0  0999 V2000
    6.7490   70.1010   67.0230 O   0  0  0  0  0  0  0  0  0  0  0  0
    5.6490   70.1930   67.5470 C   0  0  0  0  0  0  0  0  0  0  0  0
    5.4450   70.5950   68.9840 C   0  0  0  0  0  0  0  0  0  0  0  0
    4.1120   71.3130   69.1340 C   0  0  0  0  0  0  0  0  0  0  0  0
    2.9250   70.4270   68.7560 C   0  0  0  0  0  0  0  0  0  0  0  0
    3.2180   69.4120   67.6550 C   0  0  0  0  0  0  0  0  0  0  0  0
    4.3820   69.8120   66.7880 C   0  0  0  0  0  0  0  0  0  0  0  0
    4.3550   69.8010   65.5660 O   0  0  0  0  0  0  0  0  0  0  0  0
    5.4493   69.6966   69.6187 H   0  0  0  0  0  0  0  0  0  0  0  0
    6.2576   71.2697   69.2913 H   0  0  0  0  0  0  0  0  0  0  0  0
    3.9972   71.6289   70.1814 H   0  0  0  0  0  0  0  0  0  0  0  0
    4.1174   72.1748   68.4504 H   0  0  0  0  0  0  0  0  0  0  0  0
    2.6069   69.8773   69.6541 H   0  0  0  0  0  0  0  0  0  0  0  0
    2.1464   71.0978   68.3638 H   0  0  0  0  0  0  0  0  0  0  0  0
    3.4445   68.4422   68.1221 H   0  0  0  0  0  0  0  0  0  0  0  0
    2.3284   69.3563   67.0104 H   0  0  0  0  0  0  0  0  0  0  0  0
  2  1  2  0
  3  2  1  0
  4  3  1  0
  5  4  1  0
  6  5  1  0
  7  2  1  0
  7  6  1  0
  8  7  2  0
  3  9  1  0
  3 10  1  0
  4 11  1  0
  4 12  1  0
  5 13  1  0
  5 14  1  0
  6 15  1  0
  6 16  1  0
M  END
>  <score>  (6) 
-4.946

$$$$
=
     RDKit          3D

 16 16  0  0  0  0  0  0  0  0999 V2000
    1.1360   67.1850   67.3370 O   0  0  0  0  0  0  0  0  0  0  0  0
    1.7640   67.7170   66.4340 C   0  0  0  0  0  0  0  0  0  0  0  0
    2.5410   68.9960   66.6040 C   0  0  0  0  0  0  0  0  0  0  0  0
    3.7300   69.0080   65.6540 C   0  0  0  0  0  0  0  0  0  0  0  0
    3.3040   68.9470   64.1870 C   0  0  0  0  0  0  0  0  0  0  0  0
    2.0260   68.1550   63.9300 C   0  0  0  0  0  0  0  0  0  0  0  0
    1.7310   67.1560   65.0160 C   0  0  0  0  0  0  0  0  0  0  0  0
    1.4430   65.9870   64.8040 O   0  0  0  0  0  0  0  0  0  0  0  0
    1.8875   69.8524   66.3817 H   0  0  0  0  0  0  0  0  0  0  0  0
    2.9037   69.0652   67.6402 H   0  0  0  0  0  0  0  0  0  0  0  0
    4.3034   69.9324   65.8173 H   0  0  0  0  0  0  0  0  0  0  0  0
    4.3368   68.1150   65.8646 H   0  0  0  0  0  0  0  0  0  0  0  0
    3.1472   69.9763   63.8321 H   0  0  0  0  0  0  0  0  0  0  0  0
    4.1088   68.4237   63.6499 H   0  0  0  0  0  0  0  0  0  0  0  0
    1.1837   68.8592   63.8620 H   0  0  0  0  0  0  0  0  0  0  0  0
    2.1660   67.5948   62.9937 H   0  0  0  0  0  0  0  0  0  0  0  0
  2  1  2  0
  3  2  1  0
  4  3  1  0
  5  4  1  0
  6  5  1  0
  7  2  1  0
  7  6  1  0
  8  7  2  0
  3  9  1  0
  3 10  1  0
  4 11  1  0
  4 12  1  0
  5 13  1  0
  5 14  1  0
  6 15  1  0
  6 16  1  0
M  END
>  <score>  (7) 
-4.923

$$$$
=
     RDKit          3D

 16 16  0  0  0  0  0  0  0  0999 V2000
    3.3340   67.6410   62.0980 O   0  0  0  0  0  0  0  0  0  0  0  0
    3.6260   68.1810   63.1550 C   0  0  0  0  0  0  0  0  0  0  0  0
    5.0310   68.2480   63.6920 C   0  0  0  0  0  0  0  0  0  0  0  0
    5.2060   69.5100   64.5230 C   0  0  0  0  0  0  0  0  0  0  0  0
    4.2740   69.5440   65.7340 C   0  0  0  0  0  0  0  0  0  0  0  0
    2.9300   68.8540   65.5200 C   0  0  0  0  0  0  0  0  0  0  0  0
    2.5490   68.7600   64.0670 C   0  0  0  0  0  0  0  0  0  0  0  0
    1.4520   69.0770   63.6300 O   0  0  0  0  0  0  0  0  0  0  0  0
    5.2236   67.3667   64.3215 H   0  0  0  0  0  0  0  0  0  0  0  0
    5.7404   68.2656   62.8515 H   0  0  0  0  0  0  0  0  0  0  0  0
    6.2465   69.5587   64.8765 H   0  0  0  0  0  0  0  0  0  0  0  0
    4.9569   70.3698   63.8837 H   0  0  0  0  0  0  0  0  0  0  0  0
    4.7840   69.0491   66.5736 H   0  0  0  0  0  0  0  0  0  0  0  0
    4.0531   70.6040   65.9281 H   0  0  0  0  0  0  0  0  0  0  0  0
    2.9867   67.8370   65.9352 H   0  0  0  0  0  0  0  0  0  0  0  0
    2.1625   69.4583   66.0258 H   0  0  0  0  0  0  0  0  0  0  0  0
  2  1  2  0
  3  2  1  0
  4  3  1  0
  5  4  1  0
  6  5  1  0
  7  2  1  0
  7  6  1  0
  8  7  2  0
  3  9  1  0
  3 10  1  0
  4 11  1  0
  4 12  1  0
  5 13  1  0
  5 14  1  0
  6 15  1  0
  6 16  1  0
M  END
>  <score>  (8) 
-4.793

$$$$
=
     RDKit          3D

 16 16  0  0  0  0  0  0  0  0999 V2000
    2.6260   66.6080   64.4140 O   0  0  0  0  0  0  0  0  0  0  0  0
    3.4580   67.4690   64.1660 C   0  0  0  0  0  0  0  0  0  0  0  0
    3.4920   68.8120   64.8460 C   0  0  0  0  0  0  0  0  0  0  0  0
    4.9250   69.3190   64.9150 C   0  0  0  0  0  0  0  0  0  0  0  0
    5.5420   69.5150   63.5300 C   0  0  0  0  0  0  0  0  0  0  0  0
    5.0430   68.5380   62.4700 C   0  0  0  0  0  0  0  0  0  0  0  0
    4.4900   67.2690   63.0610 C   0  0  0  0  0  0  0  0  0  0  0  0
    4.7960   66.1500   62.6750 O   0  0  0  0  0  0  0  0  0  0  0  0
    2.8793   69.5256   64.2757 H   0  0  0  0  0  0  0  0  0  0  0  0
    3.0925   68.7127   65.8661 H   0  0  0  0  0  0  0  0  0  0  0  0
    4.9334   70.2829   65.4449 H   0  0  0  0  0  0  0  0  0  0  0  0
    5.5230   68.5624   65.4442 H   0  0  0  0  0  0  0  0  0  0  0  0
    5.3103   70.5359   63.1922 H   0  0  0  0  0  0  0  0  0  0  0  0
    6.6211   69.3322   63.6400 H   0  0  0  0  0  0  0  0  0  0  0  0
    4.2504   69.0281   61.8855 H   0  0  0  0  0  0  0  0  0  0  0  0
    5.9029   68.2635   61.8414 H   0  0  0  0  0  0  0  0  0  0  0  0
  2  1  2  0
  3  2  1  0
  4  3  1  0
  5  4  1  0
  6  5  1  0
  7  2  1  0
  7  6  1  0
  8  7  2  0
  3  9  1  0
  3 10  1  0
  4 11  1  0
  4 12  1  0
  5 13  1  0
  5 14  1  0
  6 15  1  0
  6 16  1  0
M  END
>  <score>  (9) 
-4.785

$$$$
