=
     RDKit          3D

 72 71  0  0  0  0  0  0  0  0999 V2000
    2.4250   70.2750   68.3990 C   0  0  0  0  0  0  0  0  0  0  0  0
    3.7580   70.2180   69.1540 C   0  0  0  0  0  0  0  0  0  0  0  0
    4.8150   71.2420   68.7250 C   0  0  0  0  0  0  0  0  0  0  0  0
    6.2180   70.6470   68.5970 C   0  0  0  0  0  0  0  0  0  0  0  0
    6.5430   70.1420   67.1880 C   0  0  0  0  0  0  0  0  0  0  0  0
    5.4280   70.2460   66.1390 C   0  0  0  0  0  0  0  0  0  0  0  0
    5.4580   69.1490   65.0770 C   0  0  0  0  0  0  0  0  0  0  0  0
    4.6060   69.5180   63.9870 O   0  0  0  0  0  0  0  0  0  0  0  0
    3.9310   68.4840   63.4290 C   0  0  0  0  0  0  0  0  0  0  0  0
    2.9140   68.5820   62.7610 O   0  0  0  0  0  0  0  0  0  0  0  0
    4.5750   67.3270   63.7390 N   0  0  0  0  0  0  0  0  0  0  0  0
    4.1230   66.0210   63.3200 C   0  0  0  0  0  0  0  0  0  0  0  0
    3.2560   65.3440   64.3820 C   0  0  0  0  0  0  0  0  0  0  0  0
    3.7900   64.0040   64.8930 C   0  0  0  0  0  0  0  0  0  0  0  0
    4.7860   63.3480   63.9500 C   0  0  0  0  0  0  0  0  0  0  0  0
    2.1970   69.0720   67.4820 C   0  0  0  0  0  0  0  0  0  0  0  0
    0.7190   68.8330   67.1540 C   0  0  0  0  0  0  0  0  0  0  0  0
    0.0820   67.6020   67.8060 C   0  0  0  0  0  0  0  0  0  0  0  0
    0.7990   67.1470   69.0810 C   0  0  0  0  0  0  0  0  0  0  0  0
   -0.0270   66.1390   69.8780 C   0  0  0  0  0  0  0  0  0  0  0  0
    0.8390   65.4230   70.7680 O   0  0  0  0  0  0  0  0  0  0  0  0
    2.5790   64.2270   70.1190 N   0  0  0  0  0  0  0  0  0  0  0  0
    1.2310   64.2120   70.3040 C   0  0  0  0  0  0  0  0  0  0  0  0
    0.4940   63.2600   70.1000 O   0  0  0  0  0  0  0  0  0  0  0  0
    3.3240   63.0250   69.8250 C   0  0  0  0  0  0  0  0  0  0  0  0
    4.7790   63.1230   70.2750 C   0  0  0  0  0  0  0  0  0  0  0  0
    5.3050   60.8320   71.2710 C   0  0  0  0  0  0  0  0  0  0  0  0
    5.1140   62.3180   71.5350 C   0  0  0  0  0  0  0  0  0  0  0  0
    1.6083   70.3128   69.1349 H   0  0  0  0  0  0  0  0  0  0  0  0
    2.4500   71.1708   67.7611 H   0  0  0  0  0  0  0  0  0  0  0  0
    3.5476   70.3780   70.2218 H   0  0  0  0  0  0  0  0  0  0  0  0
    4.1883   69.2321   68.9241 H   0  0  0  0  0  0  0  0  0  0  0  0
    4.5221   71.6582   67.7498 H   0  0  0  0  0  0  0  0  0  0  0  0
    4.8586   72.0126   69.5088 H   0  0  0  0  0  0  0  0  0  0  0  0
    6.9505   71.4222   68.8663 H   0  0  0  0  0  0  0  0  0  0  0  0
    6.2627   69.7779   69.2698 H   0  0  0  0  0  0  0  0  0  0  0  0
    7.4025   70.7201   66.8178 H   0  0  0  0  0  0  0  0  0  0  0  0
    6.7269   69.0638   67.3051 H   0  0  0  0  0  0  0  0  0  0  0  0
    4.4601   70.1951   66.6592 H   0  0  0  0  0  0  0  0  0  0  0  0
    5.5809   71.1989   65.6111 H   0  0  0  0  0  0  0  0  0  0  0  0
    6.4874   69.0208   64.7109 H   0  0  0  0  0  0  0  0  0  0  0  0
    5.1049   68.2039   65.5153 H   0  0  0  0  0  0  0  0  0  0  0  0
    5.4338   67.3855   64.3047 H   0  0  0  0  0  0  0  0  0  0  0  0
    3.5340   66.1288   62.3973 H   0  0  0  0  0  0  0  0  0  0  0  0
    5.0104   65.3921   63.1561 H   0  0  0  0  0  0  0  0  0  0  0  0
    3.1710   66.0273   65.2399 H   0  0  0  0  0  0  0  0  0  0  0  0
    2.2913   65.1274   63.8998 H   0  0  0  0  0  0  0  0  0  0  0  0
    4.2858   64.1730   65.8603 H   0  0  0  0  0  0  0  0  0  0  0  0
    2.9293   63.3243   64.9781 H   0  0  0  0  0  0  0  0  0  0  0  0
    5.5634   62.8360   64.5361 H   0  0  0  0  0  0  0  0  0  0  0  0
    4.2636   62.6166   63.3158 H   0  0  0  0  0  0  0  0  0  0  0  0
    5.2516   64.1168   63.3158 H   0  0  0  0  0  0  0  0  0  0  0  0
    2.7407   69.2420   66.5410 H   0  0  0  0  0  0  0  0  0  0  0  0
    2.5612   68.1815   68.0152 H   0  0  0  0  0  0  0  0  0  0  0  0
    0.1535   69.7183   67.4802 H   0  0  0  0  0  0  0  0  0  0  0  0
    0.6792   68.6511   66.0699 H   0  0  0  0  0  0  0  0  0  0  0  0
   -0.9609   67.8427   68.0598 H   0  0  0  0  0  0  0  0  0  0  0  0
    0.1549   66.7775   67.0815 H   0  0  0  0  0  0  0  0  0  0  0  0
    1.7553   66.6802   68.8025 H   0  0  0  0  0  0  0  0  0  0  0  0
    0.9557   68.0322   69.7150 H   0  0  0  0  0  0  0  0  0  0  0  0
   -0.7953   66.6698   70.4593 H   0  0  0  0  0  0  0  0  0  0  0  0
   -0.5164   65.4340   69.1899 H   0  0  0  0  0  0  0  0  0  0  0  0
    3.0832   65.1223   70.1908 H   0  0  0  0  0  0  0  0  0  0  0  0
    2.8494   62.1786   70.3431 H   0  0  0  0  0  0  0  0  0  0  0  0
    3.3171   62.8821   68.7343 H   0  0  0  0  0  0  0  0  0  0  0  0
    5.4165   62.7588   69.4559 H   0  0  0  0  0  0  0  0  0  0  0  0
    4.9571   64.1795   70.5242 H   0  0  0  0  0  0  0  0  0  0  0  0
    5.3740   60.2953   72.2287 H   0  0  0  0  0  0  0  0  0  0  0  0
    4.4487   60.4486   70.6967 H   0  0  0  0  0  0  0  0  0  0  0  0
    6.2304   60.6776   70.6967 H   0  0  0  0  0  0  0  0  0  0  0  0
    6.0435   62.7175   71.9669 H   0  0  0  0  0  0  0  0  0  0  0  0
    4.2596   62.4183   72.2205 H   0  0  0  0  0  0  0  0  0  0  0  0
  2  1  1  0
  3  2  1  0
  4  3  1  0
  5  4  1  0
  6  5  1  0
  7  6  1  0
  8  7  1  0
  9  8  1  0
 10  9  2  0
 11  9  1  0
 12 11  1  0
 13 12  1  0
 14 13  1  0
 15 14  1  0
 16  1  1  0
 17 16  1  0
 18 17  1  0
 19 18  1  0
 20 19  1  0
 21 20  1  0
 23 22  1  0
 23 21  1  0
 24 23  2  0
 25 22  1  0
 26 25  1  0
 28 26  1  0
 28 27  1  0
  1 29  1  0
  1 30  1  0
  2 31  1  0
  2 32  1  0
  3 33  1  0
  3 34  1  0
  4 35  1  0
  4 36  1  0
  5 37  1  0
  5 38  1  0
  6 39  1  0
  6 40  1  0
  7 41  1  0
  7 42  1  0
 11 43  1  0
 12 44  1  0
 12 45  1  0
 13 46  1  0
 13 47  1  0
 14 48  1  0
 14 49  1  0
 15 50  1  0
 15 51  1  0
 15 52  1  0
 16 53  1  0
 16 54  1  0
 17 55  1  0
 17 56  1  0
 18 57  1  0
 18 58  1  0
 19 59  1  0
 19 60  1  0
 20 61  1  0
 20 62  1  0
 22 63  1  0
 25 64  1  0
 25 65  1  0
 26 66  1  0
 26 67  1  0
 27 68  1  0
 27 69  1  0
 27 70  1  0
 28 71  1  0
 28 72  1  0
M  END
>  <score>  (1) 
-7.465

$$$$
=
     RDKit          3D

 72 71  0  0  0  0  0  0  0  0999 V2000
    3.6950   70.2630   69.2440 C   0  0  0  0  0  0  0  0  0  0  0  0
    2.3100   70.2030   68.5920 C   0  0  0  0  0  0  0  0  0  0  0  0
    2.0210   68.9560   67.7480 C   0  0  0  0  0  0  0  0  0  0  0  0
    0.8670   68.1100   68.2920 C   0  0  0  0  0  0  0  0  0  0  0  0
    1.3260   66.9140   69.1310 C   0  0  0  0  0  0  0  0  0  0  0  0
    0.2600   66.2180   69.9880 C   0  0  0  0  0  0  0  0  0  0  0  0
    0.6350   64.8070   70.4350 C   0  0  0  0  0  0  0  0  0  0  0  0
    1.9210   64.4660   69.9070 O   0  0  0  0  0  0  0  0  0  0  0  0
    2.2290   63.1490   69.9880 C   0  0  0  0  0  0  0  0  0  0  0  0
    2.3020   62.3810   69.0420 O   0  0  0  0  0  0  0  0  0  0  0  0
    2.4410   62.8320   71.2930 N   0  0  0  0  0  0  0  0  0  0  0  0
    2.7750   61.5040   71.7520 C   0  0  0  0  0  0  0  0  0  0  0  0
    3.7480   61.5300   72.9300 C   0  0  0  0  0  0  0  0  0  0  0  0
    5.0860   60.8290   72.6790 C   0  0  0  0  0  0  0  0  0  0  0  0
    5.5370   60.8870   71.2280 C   0  0  0  0  0  0  0  0  0  0  0  0
    4.6070   71.3280   68.6300 C   0  0  0  0  0  0  0  0  0  0  0  0
    6.0510   70.8510   68.4390 C   0  0  0  0  0  0  0  0  0  0  0  0
    6.3180   70.0200   67.1800 C   0  0  0  0  0  0  0  0  0  0  0  0
    5.2060   70.1270   66.1320 C   0  0  0  0  0  0  0  0  0  0  0  0
    5.4050   69.1430   64.9800 C   0  0  0  0  0  0  0  0  0  0  0  0
    4.3890   69.3650   63.9940 O   0  0  0  0  0  0  0  0  0  0  0  0
    3.5730   67.3500   64.3860 N   0  0  0  0  0  0  0  0  0  0  0  0
    3.2510   68.6590   64.2020 C   0  0  0  0  0  0  0  0  0  0  0  0
    2.1230   69.1270   64.2320 O   0  0  0  0  0  0  0  0  0  0  0  0
    2.6010   66.3780   64.8310 C   0  0  0  0  0  0  0  0  0  0  0  0
    3.0930   64.9450   64.6510 C   0  0  0  0  0  0  0  0  0  0  0  0
    4.9630   63.3860   63.8800 C   0  0  0  0  0  0  0  0  0  0  0  0
    4.4590   64.8190   63.9680 C   0  0  0  0  0  0  0  0  0  0  0  0
    3.5681   70.4864   70.3136 H   0  0  0  0  0  0  0  0  0  0  0  0
    4.1757   69.2875   69.0787 H   0  0  0  0  0  0  0  0  0  0  0  0
    1.5579   70.2494   69.3934 H   0  0  0  0  0  0  0  0  0  0  0  0
    2.2731   71.0512   67.8925 H   0  0  0  0  0  0  0  0  0  0  0  0
    1.7674   69.2768   66.7268 H   0  0  0  0  0  0  0  0  0  0  0  0
    2.9245   68.3291   67.7736 H   0  0  0  0  0  0  0  0  0  0  0  0
    0.2313   68.7517   68.9198 H   0  0  0  0  0  0  0  0  0  0  0  0
    0.3258   67.7061   67.4236 H   0  0  0  0  0  0  0  0  0  0  0  0
    1.7402   66.1636   68.4415 H   0  0  0  0  0  0  0  0  0  0  0  0
    2.0475   67.3282   69.8507 H   0  0  0  0  0  0  0  0  0  0  0  0
    0.0872   66.8292   70.8861 H   0  0  0  0  0  0  0  0  0  0  0  0
   -0.6362   66.1207   69.3577 H   0  0  0  0  0  0  0  0  0  0  0  0
    0.6672   64.7667   71.5338 H   0  0  0  0  0  0  0  0  0  0  0  0
   -0.1151   64.0930   70.0641 H   0  0  0  0  0  0  0  0  0  0  0  0
    2.3587   63.5818   71.9944 H   0  0  0  0  0  0  0  0  0  0  0  0
    1.8519   60.9947   72.0658 H   0  0  0  0  0  0  0  0  0  0  0  0
    3.2626   60.9717   70.9220 H   0  0  0  0  0  0  0  0  0  0  0  0
    3.9548   62.5814   73.1787 H   0  0  0  0  0  0  0  0  0  0  0  0
    3.2589   60.9767   73.7453 H   0  0  0  0  0  0  0  0  0  0  0  0
    5.8540   61.3107   73.3021 H   0  0  0  0  0  0  0  0  0  0  0  0
    4.9486   59.7677   72.9335 H   0  0  0  0  0  0  0  0  0  0  0  0
    6.6273   61.0272   71.1882 H   0  0  0  0  0  0  0  0  0  0  0  0
    5.2695   59.9471   70.7230 H   0  0  0  0  0  0  0  0  0  0  0  0
    5.0404   61.7287   70.7230 H   0  0  0  0  0  0  0  0  0  0  0  0
    4.2003   71.6124   67.6483 H   0  0  0  0  0  0  0  0  0  0  0  0
    4.6336   72.1771   69.3288 H   0  0  0  0  0  0  0  0  0  0  0  0
    6.6976   71.7400   68.3999 H   0  0  0  0  0  0  0  0  0  0  0  0
    6.2594   70.1828   69.2876 H   0  0  0  0  0  0  0  0  0  0  0  0
    7.2585   70.3664   66.7268 H   0  0  0  0  0  0  0  0  0  0  0  0
    6.3694   68.9664   67.4918 H   0  0  0  0  0  0  0  0  0  0  0  0
    4.2410   69.9160   66.6160 H   0  0  0  0  0  0  0  0  0  0  0  0
    5.2297   71.1450   65.7158 H   0  0  0  0  0  0  0  0  0  0  0  0
    6.3962   69.2989   64.5293 H   0  0  0  0  0  0  0  0  0  0  0  0
    5.3371   68.1118   65.3570 H   0  0  0  0  0  0  0  0  0  0  0  0
    4.5388   67.0427   64.2025 H   0  0  0  0  0  0  0  0  0  0  0  0
    2.3918   66.5492   65.8973 H   0  0  0  0  0  0  0  0  0  0  0  0
    1.6952   66.5028   64.2195 H   0  0  0  0  0  0  0  0  0  0  0  0
    3.1624   64.4790   65.6450 H   0  0  0  0  0  0  0  0  0  0  0  0
    2.3677   64.4478   63.9902 H   0  0  0  0  0  0  0  0  0  0  0  0
    5.1044   62.9841   64.8941 H   0  0  0  0  0  0  0  0  0  0  0  0
    4.2272   62.7710   63.3411 H   0  0  0  0  0  0  0  0  0  0  0  0
    5.9218   63.3670   63.3411 H   0  0  0  0  0  0  0  0  0  0  0  0
    4.3770   65.2226   62.9480 H   0  0  0  0  0  0  0  0  0  0  0  0
    5.1805   65.3790   64.5811 H   0  0  0  0  0  0  0  0  0  0  0  0
  2  1  1  0
  3  2  1  0
  4  3  1  0
  5  4  1  0
  6  5  1  0
  7  6  1  0
  8  7  1  0
  9  8  1  0
 10  9  2  0
 11  9  1  0
 12 11  1  0
 13 12  1  0
 14 13  1  0
 15 14  1  0
 16  1  1  0
 17 16  1  0
 18 17  1  0
 19 18  1  0
 20 19  1  0
 21 20  1  0
 23 22  1  0
 23 21  1  0
 24 23  2  0
 25 22  1  0
 26 25  1  0
 28 26  1  0
 28 27  1  0
  1 29  1  0
  1 30  1  0
  2 31  1  0
  2 32  1  0
  3 33  1  0
  3 34  1  0
  4 35  1  0
  4 36  1  0
  5 37  1  0
  5 38  1  0
  6 39  1  0
  6 40  1  0
  7 41  1  0
  7 42  1  0
 11 43  1  0
 12 44  1  0
 12 45  1  0
 13 46  1  0
 13 47  1  0
 14 48  1  0
 14 49  1  0
 15 50  1  0
 15 51  1  0
 15 52  1  0
 16 53  1  0
 16 54  1  0
 17 55  1  0
 17 56  1  0
 18 57  1  0
 18 58  1  0
 19 59  1  0
 19 60  1  0
 20 61  1  0
 20 62  1  0
 22 63  1  0
 25 64  1  0
 25 65  1  0
 26 66  1  0
 26 67  1  0
 27 68  1  0
 27 69  1  0
 27 70  1  0
 28 71  1  0
 28 72  1  0
M  END
>  <score>  (2) 
-7.325

$$$$
=
     RDKit          3D

 72 71  0  0  0  0  0  0  0  0999 V2000
    0.2400   65.7080   70.6660 C   0  0  0  0  0  0  0  0  0  0  0  0
    0.6730   64.2410   70.5790 C   0  0  0  0  0  0  0  0  0  0  0  0
    1.8750   63.8460   71.4450 C   0  0  0  0  0  0  0  0  0  0  0  0
    3.0870   63.3910   70.6280 C   0  0  0  0  0  0  0  0  0  0  0  0
    2.7450   62.3620   69.5470 C   0  0  0  0  0  0  0  0  0  0  0  0
    3.6950   61.1640   69.4040 C   0  0  0  0  0  0  0  0  0  0  0  0
    4.9140   61.2140   70.3220 C   0  0  0  0  0  0  0  0  0  0  0  0
    5.0280   59.9740   71.0300 O   0  0  0  0  0  0  0  0  0  0  0  0
    4.3990   59.9540   72.2300 C   0  0  0  0  0  0  0  0  0  0  0  0
    4.5220   60.7950   73.1060 O   0  0  0  0  0  0  0  0  0  0  0  0
    3.6140   58.8450   72.2910 N   0  0  0  0  0  0  0  0  0  0  0  0
    2.8090   58.4950   73.4370 C   0  0  0  0  0  0  0  0  0  0  0  0
    1.3490   58.9140   73.2640 C   0  0  0  0  0  0  0  0  0  0  0  0
    1.1360   60.1920   72.4480 C   0  0  0  0  0  0  0  0  0  0  0  0
   -0.1350   60.9410   72.8180 C   0  0  0  0  0  0  0  0  0  0  0  0
    1.1290   66.6510   69.8530 C   0  0  0  0  0  0  0  0  0  0  0  0
    0.4850   67.1100   68.5410 C   0  0  0  0  0  0  0  0  0  0  0  0
   -1.0000   66.7740   68.3730 C   0  0  0  0  0  0  0  0  0  0  0  0
   -1.6290   67.3980   67.1230 C   0  0  0  0  0  0  0  0  0  0  0  0
   -0.6720   68.3540   66.4130 C   0  0  0  0  0  0  0  0  0  0  0  0
   -1.2220   68.7060   65.1370 O   0  0  0  0  0  0  0  0  0  0  0  0
    0.9270   68.7740   64.6260 N   0  0  0  0  0  0  0  0  0  0  0  0
   -0.3300   68.6580   64.1180 C   0  0  0  0  0  0  0  0  0  0  0  0
   -0.6120   68.5210   62.9370 O   0  0  0  0  0  0  0  0  0  0  0  0
    2.1030   68.5570   63.8170 C   0  0  0  0  0  0  0  0  0  0  0  0
    3.3920   68.8430   64.5820 C   0  0  0  0  0  0  0  0  0  0  0  0
    4.4240   69.7440   66.7360 C   0  0  0  0  0  0  0  0  0  0  0  0
    3.1990   69.1330   66.0740 C   0  0  0  0  0  0  0  0  0  0  0  0
   -0.7909   65.7905   70.2913 H   0  0  0  0  0  0  0  0  0  0  0  0
    0.3234   66.0101   71.7204 H   0  0  0  0  0  0  0  0  0  0  0  0
   -0.1813   63.6186   70.8838 H   0  0  0  0  0  0  0  0  0  0  0  0
    0.9919   64.0856   69.5378 H   0  0  0  0  0  0  0  0  0  0  0  0
    2.1692   64.7154   72.0513 H   0  0  0  0  0  0  0  0  0  0  0  0
    1.5626   62.9937   72.0663 H   0  0  0  0  0  0  0  0  0  0  0  0
    3.5295   64.2727   70.1415 H   0  0  0  0  0  0  0  0  0  0  0  0
    3.7840   62.9056   71.3270 H   0  0  0  0  0  0  0  0  0  0  0  0
    1.7428   61.9669   69.7693 H   0  0  0  0  0  0  0  0  0  0  0  0
    2.8257   62.9077   68.5953 H   0  0  0  0  0  0  0  0  0  0  0  0
    3.1303   60.2478   69.6312 H   0  0  0  0  0  0  0  0  0  0  0  0
    4.0769   61.1869   68.3727 H   0  0  0  0  0  0  0  0  0  0  0  0
    5.8201   61.3775   69.7202 H   0  0  0  0  0  0  0  0  0  0  0  0
    4.7986   62.0383   71.0412 H   0  0  0  0  0  0  0  0  0  0  0  0
    3.5927   58.2194   71.4731 H   0  0  0  0  0  0  0  0  0  0  0  0
    2.8506   57.4051   73.5801 H   0  0  0  0  0  0  0  0  0  0  0  0
    3.2131   59.0280   74.3102 H   0  0  0  0  0  0  0  0  0  0  0  0
    0.8160   58.0943   72.7600 H   0  0  0  0  0  0  0  0  0  0  0  0
    0.9679   59.1263   74.2738 H   0  0  0  0  0  0  0  0  0  0  0  0
    1.9947   60.8590   72.6146 H   0  0  0  0  0  0  0  0  0  0  0  0
    1.0405   59.8918   71.3941 H   0  0  0  0  0  0  0  0  0  0  0  0
   -0.2240   60.9935   73.9131 H   0  0  0  0  0  0  0  0  0  0  0  0
   -0.0941   61.9594   72.4042 H   0  0  0  0  0  0  0  0  0  0  0  0
   -1.0061   60.4118   72.4042 H   0  0  0  0  0  0  0  0  0  0  0  0
    1.3469   67.5391   70.4644 H   0  0  0  0  0  0  0  0  0  0  0  0
    2.0408   66.0942   69.5911 H   0  0  0  0  0  0  0  0  0  0  0  0
    0.5930   68.2028   68.4764 H   0  0  0  0  0  0  0  0  0  0  0  0
    1.0073   66.5604   67.7440 H   0  0  0  0  0  0  0  0  0  0  0  0
   -1.1046   65.6810   68.3070 H   0  0  0  0  0  0  0  0  0  0  0  0
   -1.5271   67.1911   69.2437 H   0  0  0  0  0  0  0  0  0  0  0  0
   -1.9074   66.5931   66.4268 H   0  0  0  0  0  0  0  0  0  0  0  0
   -2.5103   67.9750   67.4399 H   0  0  0  0  0  0  0  0  0  0  0  0
   -0.5400   69.2616   67.0203 H   0  0  0  0  0  0  0  0  0  0  0  0
    0.3041   67.8662   66.2741 H   0  0  0  0  0  0  0  0  0  0  0  0
    1.0431   69.0244   65.6183 H   0  0  0  0  0  0  0  0  0  0  0  0
    2.1146   67.5089   63.4834 H   0  0  0  0  0  0  0  0  0  0  0  0
    2.0572   69.2493   62.9634 H   0  0  0  0  0  0  0  0  0  0  0  0
    4.0496   67.9665   64.4854 H   0  0  0  0  0  0  0  0  0  0  0  0
    3.8198   69.7552   64.1406 H   0  0  0  0  0  0  0  0  0  0  0  0
    4.3154   69.6898   67.8293 H   0  0  0  0  0  0  0  0  0  0  0  0
    5.3223   69.1884   66.4288 H   0  0  0  0  0  0  0  0  0  0  0  0
    4.5205   70.7958   66.4288 H   0  0  0  0  0  0  0  0  0  0  0  0
    2.3571   69.8319   66.1869 H   0  0  0  0  0  0  0  0  0  0  0  0
    3.0101   68.1692   66.5694 H   0  0  0  0  0  0  0  0  0  0  0  0
  2  1  1  0
  3  2  1  0
  4  3  1  0
  5  4  1  0
  6  5  1  0
  7  6  1  0
  8  7  1  0
  9  8  1  0
 10  9  2  0
 11  9  1  0
 12 11  1  0
 13 12  1  0
 14 13  1  0
 15 14  1  0
 16  1  1  0
 17 16  1  0
 18 17  1  0
 19 18  1  0
 20 19  1  0
 21 20  1  0
 23 22  1  0
 23 21  1  0
 24 23  2  0
 25 22  1  0
 26 25  1  0
 28 26  1  0
 28 27  1  0
  1 29  1  0
  1 30  1  0
  2 31  1  0
  2 32  1  0
  3 33  1  0
  3 34  1  0
  4 35  1  0
  4 36  1  0
  5 37  1  0
  5 38  1  0
  6 39  1  0
  6 40  1  0
  7 41  1  0
  7 42  1  0
 11 43  1  0
 12 44  1  0
 12 45  1  0
 13 46  1  0
 13 47  1  0
 14 48  1  0
 14 49  1  0
 15 50  1  0
 15 51  1  0
 15 52  1  0
 16 53  1  0
 16 54  1  0
 17 55  1  0
 17 56  1  0
 18 57  1  0
 18 58  1  0
 19 59  1  0
 19 60  1  0
 20 61  1  0
 20 62  1  0
 22 63  1  0
 25 64  1  0
 25 65  1  0
 26 66  1  0
 26 67  1  0
 27 68  1  0
 27 69  1  0
 27 70  1  0
 28 71  1  0
 28 72  1  0
M  END
>  <score>  (3) 
-7.266

$$$$
=
     RDKit          3D

 72 71  0  0  0  0  0  0  0  0999 V2000
    0.6070   63.1570   71.3870 C   0  0  0  0  0  0  0  0  0  0  0  0
    1.8640   62.3620   71.0170 C   0  0  0  0  0  0  0  0  0  0  0  0
    2.2450   62.3660   69.5320 C   0  0  0  0  0  0  0  0  0  0  0  0
    3.7570   62.4070   69.2950 C   0  0  0  0  0  0  0  0  0  0  0  0
    4.5260   63.1710   70.3760 C   0  0  0  0  0  0  0  0  0  0  0  0
    5.2720   62.3320   71.4230 C   0  0  0  0  0  0  0  0  0  0  0  0
    5.4510   60.8640   71.0410 C   0  0  0  0  0  0  0  0  0  0  0  0
    4.8820   60.0340   72.0590 O   0  0  0  0  0  0  0  0  0  0  0  0
    3.8650   59.2450   71.6350 C   0  0  0  0  0  0  0  0  0  0  0  0
    3.5210   59.1000   70.4740 O   0  0  0  0  0  0  0  0  0  0  0  0
    3.2980   58.6480   72.7180 N   0  0  0  0  0  0  0  0  0  0  0  0
    2.1720   57.7480   72.6380 C   0  0  0  0  0  0  0  0  0  0  0  0
    0.9720   58.2550   73.4390 C   0  0  0  0  0  0  0  0  0  0  0  0
    0.4990   59.6640   73.0720 C   0  0  0  0  0  0  0  0  0  0  0  0
   -0.8250   60.0450   73.7140 C   0  0  0  0  0  0  0  0  0  0  0  0
    0.1420   64.1030   70.2780 C   0  0  0  0  0  0  0  0  0  0  0  0
    0.6430   65.5410   70.4590 C   0  0  0  0  0  0  0  0  0  0  0  0
    0.4670   66.4660   69.2510 C   0  0  0  0  0  0  0  0  0  0  0  0
   -0.9690   66.5060   68.7170 C   0  0  0  0  0  0  0  0  0  0  0  0
   -1.0630   67.2240   67.3730 C   0  0  0  0  0  0  0  0  0  0  0  0
    0.0560   66.8480   66.5600 O   0  0  0  0  0  0  0  0  0  0  0  0
    1.9560   67.8850   66.1200 N   0  0  0  0  0  0  0  0  0  0  0  0
    0.6170   67.8760   65.8790 C   0  0  0  0  0  0  0  0  0  0  0  0
    0.0180   68.6580   65.1570 O   0  0  0  0  0  0  0  0  0  0  0  0
    2.8610   68.7330   65.3810 C   0  0  0  0  0  0  0  0  0  0  0  0
    3.8310   69.4780   66.2940 C   0  0  0  0  0  0  0  0  0  0  0  0
    5.3110   69.5240   64.2140 C   0  0  0  0  0  0  0  0  0  0  0  0
    5.2460   69.6370   65.7300 C   0  0  0  0  0  0  0  0  0  0  0  0
   -0.2045   62.4466   71.6032 H   0  0  0  0  0  0  0  0  0  0  0  0
    0.8584   63.7768   72.2603 H   0  0  0  0  0  0  0  0  0  0  0  0
    2.7081   62.7833   71.5828 H   0  0  0  0  0  0  0  0  0  0  0  0
    1.6373   61.3143   71.2636 H   0  0  0  0  0  0  0  0  0  0  0  0
    1.8431   61.4543   69.0660 H   0  0  0  0  0  0  0  0  0  0  0  0
    1.8209   63.2793   69.0892 H   0  0  0  0  0  0  0  0  0  0  0  0
    4.1326   61.3735   69.2656 H   0  0  0  0  0  0  0  0  0  0  0  0
    3.9206   62.9385   68.3459 H   0  0  0  0  0  0  0  0  0  0  0  0
    5.2676   63.8064   69.8697 H   0  0  0  0  0  0  0  0  0  0  0  0
    3.7574   63.7178   70.9419 H   0  0  0  0  0  0  0  0  0  0  0  0
    6.2686   62.7733   71.5716 H   0  0  0  0  0  0  0  0  0  0  0  0
    4.6572   62.3474   72.3351 H   0  0  0  0  0  0  0  0  0  0  0  0
    4.9448   60.6697   70.0839 H   0  0  0  0  0  0  0  0  0  0  0  0
    6.5231   60.6390   70.9407 H   0  0  0  0  0  0  0  0  0  0  0  0
    3.6943   58.8494   73.6471 H   0  0  0  0  0  0  0  0  0  0  0  0
    1.8760   57.6432   71.5838 H   0  0  0  0  0  0  0  0  0  0  0  0
    2.4798   56.7818   73.0642 H   0  0  0  0  0  0  0  0  0  0  0  0
    0.1347   57.5605   73.2760 H   0  0  0  0  0  0  0  0  0  0  0  0
    1.3004   58.3039   74.4877 H   0  0  0  0  0  0  0  0  0  0  0  0
    1.2640   60.3841   73.3979 H   0  0  0  0  0  0  0  0  0  0  0  0
    0.3474   59.6811   71.9826 H   0  0  0  0  0  0  0  0  0  0  0  0
   -0.7234   60.0158   74.8089 H   0  0  0  0  0  0  0  0  0  0  0  0
   -1.1065   61.0606   73.3989 H   0  0  0  0  0  0  0  0  0  0  0  0
   -1.6032   59.3344   73.3989 H   0  0  0  0  0  0  0  0  0  0  0  0
    0.5137   63.7221   69.3153 H   0  0  0  0  0  0  0  0  0  0  0  0
   -0.9570   64.1334   70.3147 H   0  0  0  0  0  0  0  0  0  0  0  0
    0.0979   65.9841   71.3055 H   0  0  0  0  0  0  0  0  0  0  0  0
    1.7285   65.4610   70.6180 H   0  0  0  0  0  0  0  0  0  0  0  0
    0.7570   67.4849   69.5472 H   0  0  0  0  0  0  0  0  0  0  0  0
    1.1017   66.0700   68.4445 H   0  0  0  0  0  0  0  0  0  0  0  0
   -1.3303   65.4744   68.5939 H   0  0  0  0  0  0  0  0  0  0  0  0
   -1.5839   67.0610   69.4408 H   0  0  0  0  0  0  0  0  0  0  0  0
   -1.9975   66.9387   66.8678 H   0  0  0  0  0  0  0  0  0  0  0  0
   -1.0550   68.3122   67.5333 H   0  0  0  0  0  0  0  0  0  0  0  0
    2.3356   67.2679   66.8521 H   0  0  0  0  0  0  0  0  0  0  0  0
    3.4396   68.1099   64.6831 H   0  0  0  0  0  0  0  0  0  0  0  0
    2.2593   69.4822   64.8457 H   0  0  0  0  0  0  0  0  0  0  0  0
    3.4223   70.4818   66.4821 H   0  0  0  0  0  0  0  0  0  0  0  0
    3.9265   68.8718   67.2069 H   0  0  0  0  0  0  0  0  0  0  0  0
    5.8419   68.6011   63.9375 H   0  0  0  0  0  0  0  0  0  0  0  0
    4.2905   69.4968   63.8043 H   0  0  0  0  0  0  0  0  0  0  0  0
    5.8476   70.3924   63.8043 H   0  0  0  0  0  0  0  0  0  0  0  0
    5.6282   70.6262   66.0222 H   0  0  0  0  0  0  0  0  0  0  0  0
    5.8527   68.8172   66.1420 H   0  0  0  0  0  0  0  0  0  0  0  0
  2  1  1  0
  3  2  1  0
  4  3  1  0
  5  4  1  0
  6  5  1  0
  7  6  1  0
  8  7  1  0
  9  8  1  0
 10  9  2  0
 11  9  1  0
 12 11  1  0
 13 12  1  0
 14 13  1  0
 15 14  1  0
 16  1  1  0
 17 16  1  0
 18 17  1  0
 19 18  1  0
 20 19  1  0
 21 20  1  0
 23 22  1  0
 23 21  1  0
 24 23  2  0
 25 22  1  0
 26 25  1  0
 28 26  1  0
 28 27  1  0
  1 29  1  0
  1 30  1  0
  2 31  1  0
  2 32  1  0
  3 33  1  0
  3 34  1  0
  4 35  1  0
  4 36  1  0
  5 37  1  0
  5 38  1  0
  6 39  1  0
  6 40  1  0
  7 41  1  0
  7 42  1  0
 11 43  1  0
 12 44  1  0
 12 45  1  0
 13 46  1  0
 13 47  1  0
 14 48  1  0
 14 49  1  0
 15 50  1  0
 15 51  1  0
 15 52  1  0
 16 53  1  0
 16 54  1  0
 17 55  1  0
 17 56  1  0
 18 57  1  0
 18 58  1  0
 19 59  1  0
 19 60  1  0
 20 61  1  0
 20 62  1  0
 22 63  1  0
 25 64  1  0
 25 65  1  0
 26 66  1  0
 26 67  1  0
 27 68  1  0
 27 69  1  0
 27 70  1  0
 28 71  1  0
 28 72  1  0
M  END
>  <score>  (4) 
-7.189

$$$$
=
     RDKit          3D

 72 71  0  0  0  0  0  0  0  0999 V2000
    1.9290   65.3560   70.2960 C   0  0  0  0  0  0  0  0  0  0  0  0
    1.0020   64.1840   70.6380 C   0  0  0  0  0  0  0  0  0  0  0  0
    1.6620   62.8010   70.6860 C   0  0  0  0  0  0  0  0  0  0  0  0
    2.2970   62.3870   69.3570 C   0  0  0  0  0  0  0  0  0  0  0  0
    3.8160   62.2080   69.4330 C   0  0  0  0  0  0  0  0  0  0  0  0
    4.5160   62.7470   70.6880 C   0  0  0  0  0  0  0  0  0  0  0  0
    5.3930   61.7260   71.4080 C   0  0  0  0  0  0  0  0  0  0  0  0
    5.0050   61.6520   72.7850 O   0  0  0  0  0  0  0  0  0  0  0  0
    3.8420   60.9910   73.0040 C   0  0  0  0  0  0  0  0  0  0  0  0
    3.4920   59.9690   72.4360 O   0  0  0  0  0  0  0  0  0  0  0  0
    3.1370   61.6560   73.9580 N   0  0  0  0  0  0  0  0  0  0  0  0
    1.8370   61.2410   74.4300 C   0  0  0  0  0  0  0  0  0  0  0  0
    0.8710   62.4180   74.5650 C   0  0  0  0  0  0  0  0  0  0  0  0
   -0.3980   62.3120   73.7160 C   0  0  0  0  0  0  0  0  0  0  0  0
   -0.5380   60.9780   72.9990 C   0  0  0  0  0  0  0  0  0  0  0  0
    1.2010   66.5330   69.6440 C   0  0  0  0  0  0  0  0  0  0  0  0
   -0.3220   66.3610   69.6140 C   0  0  0  0  0  0  0  0  0  0  0  0
   -0.9760   66.4460   68.2310 C   0  0  0  0  0  0  0  0  0  0  0  0
   -1.1470   67.8820   67.7250 C   0  0  0  0  0  0  0  0  0  0  0  0
   -0.3660   68.1350   66.4370 C   0  0  0  0  0  0  0  0  0  0  0  0
    0.2950   66.9250   66.0440 O   0  0  0  0  0  0  0  0  0  0  0  0
    1.7800   68.4320   65.4090 N   0  0  0  0  0  0  0  0  0  0  0  0
    1.5670   67.1030   65.6130 C   0  0  0  0  0  0  0  0  0  0  0  0
    2.3900   66.2160   65.4480 O   0  0  0  0  0  0  0  0  0  0  0  0
    3.0970   68.9630   65.1430 C   0  0  0  0  0  0  0  0  0  0  0  0
    3.7860   69.4610   66.4100 C   0  0  0  0  0  0  0  0  0  0  0  0
    5.9310   70.2900   67.5180 C   0  0  0  0  0  0  0  0  0  0  0  0
    5.2740   69.7850   66.2430 C   0  0  0  0  0  0  0  0  0  0  0  0
    2.4024   65.7091   71.2240 H   0  0  0  0  0  0  0  0  0  0  0  0
    2.6670   64.9862   69.5689 H   0  0  0  0  0  0  0  0  0  0  0  0
    0.5598   64.3810   71.6257 H   0  0  0  0  0  0  0  0  0  0  0  0
    0.2683   64.1358   69.8198 H   0  0  0  0  0  0  0  0  0  0  0  0
    2.4454   62.8146   71.4580 H   0  0  0  0  0  0  0  0  0  0  0  0
    0.8712   62.0702   70.9108 H   0  0  0  0  0  0  0  0  0  0  0  0
    1.8498   61.4333   69.0400 H   0  0  0  0  0  0  0  0  0  0  0  0
    2.1032   63.1985   68.6401 H   0  0  0  0  0  0  0  0  0  0  0  0
    4.0272   61.1302   69.3715 H   0  0  0  0  0  0  0  0  0  0  0  0
    4.2175   62.8056   68.6013 H   0  0  0  0  0  0  0  0  0  0  0  0
    5.1493   63.5960   70.3910 H   0  0  0  0  0  0  0  0  0  0  0  0
    3.7212   63.0313   71.3933 H   0  0  0  0  0  0  0  0  0  0  0  0
    5.2686   60.7392   70.9382 H   0  0  0  0  0  0  0  0  0  0  0  0
    6.4469   62.0337   71.3394 H   0  0  0  0  0  0  0  0  0  0  0  0
    3.5542   62.5042   74.3673 H   0  0  0  0  0  0  0  0  0  0  0  0
    1.4158   60.5165   73.7175 H   0  0  0  0  0  0  0  0  0  0  0  0
    1.9658   60.7928   75.4263 H   0  0  0  0  0  0  0  0  0  0  0  0
    0.5704   62.4938   75.6204 H   0  0  0  0  0  0  0  0  0  0  0  0
    1.4120   63.3039   74.2011 H   0  0  0  0  0  0  0  0  0  0  0  0
   -1.2693   62.4470   74.3737 H   0  0  0  0  0  0  0  0  0  0  0  0
   -0.3355   63.0908   72.9417 H   0  0  0  0  0  0  0  0  0  0  0  0
   -0.6228   60.1702   73.7408 H   0  0  0  0  0  0  0  0  0  0  0  0
   -1.4395   60.9933   72.3688 H   0  0  0  0  0  0  0  0  0  0  0  0
    0.3470   60.8058   72.3688 H   0  0  0  0  0  0  0  0  0  0  0  0
    1.4383   67.4467   70.2087 H   0  0  0  0  0  0  0  0  0  0  0  0
    1.5435   66.5908   68.6003 H   0  0  0  0  0  0  0  0  0  0  0  0
   -0.5586   65.3744   70.0390 H   0  0  0  0  0  0  0  0  0  0  0  0
   -0.7292   67.2056   70.1892 H   0  0  0  0  0  0  0  0  0  0  0  0
   -0.3482   65.8964   67.5142 H   0  0  0  0  0  0  0  0  0  0  0  0
   -1.9827   66.0118   68.3210 H   0  0  0  0  0  0  0  0  0  0  0  0
   -2.2146   68.0659   67.5342 H   0  0  0  0  0  0  0  0  0  0  0  0
   -0.7562   68.5615   68.4967 H   0  0  0  0  0  0  0  0  0  0  0  0
   -1.0580   68.4514   65.6427 H   0  0  0  0  0  0  0  0  0  0  0  0
    0.3790   68.9267   66.6047 H   0  0  0  0  0  0  0  0  0  0  0  0
    0.9786   69.0780   65.4454 H   0  0  0  0  0  0  0  0  0  0  0  0
    3.7136   68.1712   64.6927 H   0  0  0  0  0  0  0  0  0  0  0  0
    2.9839   69.8194   64.4620 H   0  0  0  0  0  0  0  0  0  0  0  0
    3.2716   70.3743   66.7437 H   0  0  0  0  0  0  0  0  0  0  0  0
    3.7263   68.6402   67.1399 H   0  0  0  0  0  0  0  0  0  0  0  0
    5.4000   69.8818   68.3906 H   0  0  0  0  0  0  0  0  0  0  0  0
    6.9815   69.9646   67.5429 H   0  0  0  0  0  0  0  0  0  0  0  0
    5.8868   71.3888   67.5429 H   0  0  0  0  0  0  0  0  0  0  0  0
    5.7953   68.8715   65.9208 H   0  0  0  0  0  0  0  0  0  0  0  0
    5.3482   70.5918   65.4990 H   0  0  0  0  0  0  0  0  0  0  0  0
  2  1  1  0
  3  2  1  0
  4  3  1  0
  5  4  1  0
  6  5  1  0
  7  6  1  0
  8  7  1  0
  9  8  1  0
 10  9  2  0
 11  9  1  0
 12 11  1  0
 13 12  1  0
 14 13  1  0
 15 14  1  0
 16  1  1  0
 17 16  1  0
 18 17  1  0
 19 18  1  0
 20 19  1  0
 21 20  1  0
 23 22  1  0
 23 21  1  0
 24 23  2  0
 25 22  1  0
 26 25  1  0
 28 26  1  0
 28 27  1  0
  1 29  1  0
  1 30  1  0
  2 31  1  0
  2 32  1  0
  3 33  1  0
  3 34  1  0
  4 35  1  0
  4 36  1  0
  5 37  1  0
  5 38  1  0
  6 39  1  0
  6 40  1  0
  7 41  1  0
  7 42  1  0
 11 43  1  0
 12 44  1  0
 12 45  1  0
 13 46  1  0
 13 47  1  0
 14 48  1  0
 14 49  1  0
 15 50  1  0
 15 51  1  0
 15 52  1  0
 16 53  1  0
 16 54  1  0
 17 55  1  0
 17 56  1  0
 18 57  1  0
 18 58  1  0
 19 59  1  0
 19 60  1  0
 20 61  1  0
 20 62  1  0
 22 63  1  0
 25 64  1  0
 25 65  1  0
 26 66  1  0
 26 67  1  0
 27 68  1  0
 27 69  1  0
 27 70  1  0
 28 71  1  0
 28 72  1  0
M  END
>  <score>  (5) 
-7.189

$$$$
=
     RDKit          3D

 72 71  0  0  0  0  0  0  0  0999 V2000
    0.8910   64.4400   70.9550 C   0  0  0  0  0  0  0  0  0  0  0  0
    0.3620   63.8400   72.2620 C   0  0  0  0  0  0  0  0  0  0  0  0
    1.2100   62.7210   72.8760 C   0  0  0  0  0  0  0  0  0  0  0  0
    1.1490   61.4120   72.0870 C   0  0  0  0  0  0  0  0  0  0  0  0
    0.5900   60.2360   72.8930 C   0  0  0  0  0  0  0  0  0  0  0  0
    1.6010   59.1970   73.3970 C   0  0  0  0  0  0  0  0  0  0  0  0
    2.2580   58.3700   72.2940 C   0  0  0  0  0  0  0  0  0  0  0  0
    3.6750   58.5740   72.3270 O   0  0  0  0  0  0  0  0  0  0  0  0
    4.1470   59.3890   71.3520 C   0  0  0  0  0  0  0  0  0  0  0  0
    4.0290   59.1970   70.1520 O   0  0  0  0  0  0  0  0  0  0  0  0
    4.7690   60.4490   71.9340 N   0  0  0  0  0  0  0  0  0  0  0  0
    5.4040   61.5120   71.1920 C   0  0  0  0  0  0  0  0  0  0  0  0
    4.5150   62.7510   71.0870 C   0  0  0  0  0  0  0  0  0  0  0  0
    4.2450   63.2330   69.6600 C   0  0  0  0  0  0  0  0  0  0  0  0
    3.2180   62.3910   68.9200 C   0  0  0  0  0  0  0  0  0  0  0  0
    0.3470   65.8410   70.6680 C   0  0  0  0  0  0  0  0  0  0  0  0
    1.3230   66.7190   69.8760 C   0  0  0  0  0  0  0  0  0  0  0  0
    0.8210   67.2180   68.5180 C   0  0  0  0  0  0  0  0  0  0  0  0
   -0.6780   66.9900   68.3010 C   0  0  0  0  0  0  0  0  0  0  0  0
   -1.1460   67.4950   66.9370 C   0  0  0  0  0  0  0  0  0  0  0  0
   -0.3840   68.6550   66.5800 O   0  0  0  0  0  0  0  0  0  0  0  0
    1.3890   68.7000   65.2630 N   0  0  0  0  0  0  0  0  0  0  0  0
    0.0290   68.6720   65.2900 C   0  0  0  0  0  0  0  0  0  0  0  0
   -0.7030   68.6530   64.3120 O   0  0  0  0  0  0  0  0  0  0  0  0
    2.1340   68.5190   64.0400 C   0  0  0  0  0  0  0  0  0  0  0  0
    3.5620   69.0450   64.1500 C   0  0  0  0  0  0  0  0  0  0  0  0
    5.1050   69.8740   66.0070 C   0  0  0  0  0  0  0  0  0  0  0  0
    4.2610   68.7260   65.4760 C   0  0  0  0  0  0  0  0  0  0  0  0
    1.9878   64.4971   71.0159 H   0  0  0  0  0  0  0  0  0  0  0  0
    0.5546   63.7861   70.1369 H   0  0  0  0  0  0  0  0  0  0  0  0
    0.2895   64.6519   73.0006 H   0  0  0  0  0  0  0  0  0  0  0  0
   -0.6030   63.3771   72.0080 H   0  0  0  0  0  0  0  0  0  0  0  0
    2.2567   63.0571   72.9139 H   0  0  0  0  0  0  0  0  0  0  0  0
    0.8032   62.5166   73.8774 H   0  0  0  0  0  0  0  0  0  0  0  0
    0.5079   61.5662   71.2065 H   0  0  0  0  0  0  0  0  0  0  0  0
    2.1820   61.1526   71.8120 H   0  0  0  0  0  0  0  0  0  0  0  0
    0.0737   60.6506   73.7713 H   0  0  0  0  0  0  0  0  0  0  0  0
   -0.0575   59.6895   72.1915 H   0  0  0  0  0  0  0  0  0  0  0  0
    2.3924   59.7261   73.9481 H   0  0  0  0  0  0  0  0  0  0  0  0
    1.0389   58.4913   74.0263 H   0  0  0  0  0  0  0  0  0  0  0  0
    2.0368   57.3043   72.4531 H   0  0  0  0  0  0  0  0  0  0  0  0
    1.8642   58.6831   71.3158 H   0  0  0  0  0  0  0  0  0  0  0  0
    4.7881   60.4961   72.9627 H   0  0  0  0  0  0  0  0  0  0  0  0
    6.3398   61.7889   71.6996 H   0  0  0  0  0  0  0  0  0  0  0  0
    5.5960   61.1456   70.1727 H   0  0  0  0  0  0  0  0  0  0  0  0
    3.5483   62.5184   71.5575 H   0  0  0  0  0  0  0  0  0  0  0  0
    5.0599   63.5643   71.5887 H   0  0  0  0  0  0  0  0  0  0  0  0
    3.8781   64.2690   69.7059 H   0  0  0  0  0  0  0  0  0  0  0  0
    5.1915   63.1501   69.1058 H   0  0  0  0  0  0  0  0  0  0  0  0
    2.5799   61.8679   69.6475 H   0  0  0  0  0  0  0  0  0  0  0  0
    2.5961   63.0425   68.2886 H   0  0  0  0  0  0  0  0  0  0  0  0
    3.7349   61.6534   68.2886 H   0  0  0  0  0  0  0  0  0  0  0  0
   -0.5831   65.7427   70.0891 H   0  0  0  0  0  0  0  0  0  0  0  0
    0.1807   66.3315   71.6384 H   0  0  0  0  0  0  0  0  0  0  0  0
    1.5609   67.5989   70.4917 H   0  0  0  0  0  0  0  0  0  0  0  0
    2.1897   66.0782   69.6564 H   0  0  0  0  0  0  0  0  0  0  0  0
    1.0233   68.2969   68.4467 H   0  0  0  0  0  0  0  0  0  0  0  0
    1.3517   66.6429   67.7449 H   0  0  0  0  0  0  0  0  0  0  0  0
   -0.8863   65.9121   68.3704 H   0  0  0  0  0  0  0  0  0  0  0  0
   -1.2211   67.5528   69.0745 H   0  0  0  0  0  0  0  0  0  0  0  0
   -0.9962   66.7092   66.1820 H   0  0  0  0  0  0  0  0  0  0  0  0
   -2.2142   67.7532   66.9839 H   0  0  0  0  0  0  0  0  0  0  0  0
    1.9027   68.8551   66.1422 H   0  0  0  0  0  0  0  0  0  0  0  0
    2.1695   67.4455   63.8028 H   0  0  0  0  0  0  0  0  0  0  0  0
    1.6252   69.0882   63.2481 H   0  0  0  0  0  0  0  0  0  0  0  0
    4.1540   68.6024   63.3353 H   0  0  0  0  0  0  0  0  0  0  0  0
    3.4950   70.1413   64.0897 H   0  0  0  0  0  0  0  0  0  0  0  0
    5.0940   69.8590   67.1068 H   0  0  0  0  0  0  0  0  0  0  0  0
    6.1394   69.7647   65.6491 H   0  0  0  0  0  0  0  0  0  0  0  0
    4.6922   70.8287   65.6491 H   0  0  0  0  0  0  0  0  0  0  0  0
    3.4930   68.4827   66.2250 H   0  0  0  0  0  0  0  0  0  0  0  0
    4.9420   67.8828   65.2886 H   0  0  0  0  0  0  0  0  0  0  0  0
  2  1  1  0
  3  2  1  0
  4  3  1  0
  5  4  1  0
  6  5  1  0
  7  6  1  0
  8  7  1  0
  9  8  1  0
 10  9  2  0
 11  9  1  0
 12 11  1  0
 13 12  1  0
 14 13  1  0
 15 14  1  0
 16  1  1  0
 17 16  1  0
 18 17  1  0
 19 18  1  0
 20 19  1  0
 21 20  1  0
 23 22  1  0
 23 21  1  0
 24 23  2  0
 25 22  1  0
 26 25  1  0
 28 26  1  0
 28 27  1  0
  1 29  1  0
  1 30  1  0
  2 31  1  0
  2 32  1  0
  3 33  1  0
  3 34  1  0
  4 35  1  0
  4 36  1  0
  5 37  1  0
  5 38  1  0
  6 39  1  0
  6 40  1  0
  7 41  1  0
  7 42  1  0
 11 43  1  0
 12 44  1  0
 12 45  1  0
 13 46  1  0
 13 47  1  0
 14 48  1  0
 14 49  1  0
 15 50  1  0
 15 51  1  0
 15 52  1  0
 16 53  1  0
 16 54  1  0
 17 55  1  0
 17 56  1  0
 18 57  1  0
 18 58  1  0
 19 59  1  0
 19 60  1  0
 20 61  1  0
 20 62  1  0
 22 63  1  0
 25 64  1  0
 25 65  1  0
 26 66  1  0
 26 67  1  0
 27 68  1  0
 27 69  1  0
 27 70  1  0
 28 71  1  0
 28 72  1  0
M  END
>  <score>  (6) 
-7.175

$$$$
=
     RDKit          3D

 72 71  0  0  0  0  0  0  0  0999 V2000
    0.7830   64.6350   70.3800 C   0  0  0  0  0  0  0  0  0  0  0  0
    1.4520   66.0040   70.2180 C   0  0  0  0  0  0  0  0  0  0  0  0
    0.7820   66.9650   69.2290 C   0  0  0  0  0  0  0  0  0  0  0  0
   -0.5590   66.4510   68.7000 C   0  0  0  0  0  0  0  0  0  0  0  0
   -1.1240   67.2880   67.5490 C   0  0  0  0  0  0  0  0  0  0  0  0
   -0.2310   68.4120   67.0040 C   0  0  0  0  0  0  0  0  0  0  0  0
    0.3410   68.1430   65.6130 C   0  0  0  0  0  0  0  0  0  0  0  0
    0.7470   66.7730   65.5220 O   0  0  0  0  0  0  0  0  0  0  0  0
    2.0720   66.5960   65.3020 C   0  0  0  0  0  0  0  0  0  0  0  0
    2.7030   65.5850   65.5670 O   0  0  0  0  0  0  0  0  0  0  0  0
    2.5750   67.7280   64.7400 N   0  0  0  0  0  0  0  0  0  0  0  0
    3.9640   67.8970   64.3850 C   0  0  0  0  0  0  0  0  0  0  0  0
    4.4150   69.3530   64.5050 C   0  0  0  0  0  0  0  0  0  0  0  0
    5.2190   69.6780   65.7670 C   0  0  0  0  0  0  0  0  0  0  0  0
    4.3580   69.8250   67.0120 C   0  0  0  0  0  0  0  0  0  0  0  0
    1.7230   63.5630   70.9330 C   0  0  0  0  0  0  0  0  0  0  0  0
    3.2040   63.8690   70.6820 C   0  0  0  0  0  0  0  0  0  0  0  0
    3.8570   63.1050   69.5250 C   0  0  0  0  0  0  0  0  0  0  0  0
    3.0970   61.8360   69.1280 C   0  0  0  0  0  0  0  0  0  0  0  0
    3.8430   60.5670   69.5370 C   0  0  0  0  0  0  0  0  0  0  0  0
    4.7480   60.8780   70.6040 O   0  0  0  0  0  0  0  0  0  0  0  0
    3.2980   59.5960   71.6690 N   0  0  0  0  0  0  0  0  0  0  0  0
    4.3210   60.4790   71.8260 C   0  0  0  0  0  0  0  0  0  0  0  0
    4.7900   60.8440   72.8940 O   0  0  0  0  0  0  0  0  0  0  0  0
    2.7650   58.8380   72.7760 C   0  0  0  0  0  0  0  0  0  0  0  0
    1.2810   59.1110   73.0020 C   0  0  0  0  0  0  0  0  0  0  0  0
   -0.5930   60.8430   73.0880 C   0  0  0  0  0  0  0  0  0  0  0  0
    0.9070   60.5950   73.0730 C   0  0  0  0  0  0  0  0  0  0  0  0
   -0.0681   64.7418   71.0687 H   0  0  0  0  0  0  0  0  0  0  0  0
    0.4679   64.3063   69.3787 H   0  0  0  0  0  0  0  0  0  0  0  0
    1.4656   66.4911   71.2042 H   0  0  0  0  0  0  0  0  0  0  0  0
    2.4504   65.7998   69.8039 H   0  0  0  0  0  0  0  0  0  0  0  0
    0.6120   67.9259   69.7366 H   0  0  0  0  0  0  0  0  0  0  0  0
    1.4559   67.0661   68.3655 H   0  0  0  0  0  0  0  0  0  0  0  0
   -0.4205   65.4192   68.3446 H   0  0  0  0  0  0  0  0  0  0  0  0
   -1.2790   66.5141   69.5292 H   0  0  0  0  0  0  0  0  0  0  0  0
   -1.3421   66.6034   66.7161 H   0  0  0  0  0  0  0  0  0  0  0  0
   -2.0027   67.7985   67.9700 H   0  0  0  0  0  0  0  0  0  0  0  0
   -0.8281   69.3347   66.9583 H   0  0  0  0  0  0  0  0  0  0  0  0
    0.6274   68.4913   67.6873 H   0  0  0  0  0  0  0  0  0  0  0  0
   -0.4280   68.3490   64.8539 H   0  0  0  0  0  0  0  0  0  0  0  0
    1.2095   68.7956   65.4406 H   0  0  0  0  0  0  0  0  0  0  0  0
    1.9283   68.5086   64.5574 H   0  0  0  0  0  0  0  0  0  0  0  0
    4.5792   67.2787   65.0552 H   0  0  0  0  0  0  0  0  0  0  0  0
    4.0853   67.5901   63.3357 H   0  0  0  0  0  0  0  0  0  0  0  0
    5.0400   69.5900   63.6314 H   0  0  0  0  0  0  0  0  0  0  0  0
    3.4969   69.9563   64.5608 H   0  0  0  0  0  0  0  0  0  0  0  0
    5.9427   68.8673   65.9375 H   0  0  0  0  0  0  0  0  0  0  0  0
    5.7114   70.6468   65.5971 H   0  0  0  0  0  0  0  0  0  0  0  0
    4.9873   69.7176   67.9078 H   0  0  0  0  0  0  0  0  0  0  0  0
    3.8831   70.8172   67.0144 H   0  0  0  0  0  0  0  0  0  0  0  0
    3.5808   69.0465   67.0144 H   0  0  0  0  0  0  0  0  0  0  0  0
    1.5618   63.4830   72.0182 H   0  0  0  0  0  0  0  0  0  0  0  0
    1.4906   62.6237   70.4098 H   0  0  0  0  0  0  0  0  0  0  0  0
    3.2950   64.9445   70.4700 H   0  0  0  0  0  0  0  0  0  0  0  0
    3.7337   63.5451   71.5900 H   0  0  0  0  0  0  0  0  0  0  0  0
    3.9048   63.7707   68.6506 H   0  0  0  0  0  0  0  0  0  0  0  0
    4.8554   62.7925   69.8649 H   0  0  0  0  0  0  0  0  0  0  0  0
    2.1133   61.8432   69.6202 H   0  0  0  0  0  0  0  0  0  0  0  0
    2.9956   61.8309   68.0327 H   0  0  0  0  0  0  0  0  0  0  0  0
    3.1216   59.8085   69.8752 H   0  0  0  0  0  0  0  0  0  0  0  0
    4.4052   60.1743   68.6770 H   0  0  0  0  0  0  0  0  0  0  0  0
    2.8914   59.4643   70.7319 H   0  0  0  0  0  0  0  0  0  0  0  0
    2.9002   57.7662   72.5688 H   0  0  0  0  0  0  0  0  0  0  0  0
    3.3058   59.1423   73.6843 H   0  0  0  0  0  0  0  0  0  0  0  0
    0.7187   58.6551   72.1738 H   0  0  0  0  0  0  0  0  0  0  0  0
    1.0316   58.6803   73.9830 H   0  0  0  0  0  0  0  0  0  0  0  0
   -0.9446   60.9011   74.1287 H   0  0  0  0  0  0  0  0  0  0  0  0
   -0.8133   61.7898   72.5731 H   0  0  0  0  0  0  0  0  0  0  0  0
   -1.1063   60.0175   72.5731 H   0  0  0  0  0  0  0  0  0  0  0  0
    1.3391   61.0193   73.9913 H   0  0  0  0  0  0  0  0  0  0  0  0
    1.3045   61.0724   72.1652 H   0  0  0  0  0  0  0  0  0  0  0  0
  2  1  1  0
  3  2  1  0
  4  3  1  0
  5  4  1  0
  6  5  1  0
  7  6  1  0
  8  7  1  0
  9  8  1  0
 10  9  2  0
 11  9  1  0
 12 11  1  0
 13 12  1  0
 14 13  1  0
 15 14  1  0
 16  1  1  0
 17 16  1  0
 18 17  1  0
 19 18  1  0
 20 19  1  0
 21 20  1  0
 23 22  1  0
 23 21  1  0
 24 23  2  0
 25 22  1  0
 26 25  1  0
 28 26  1  0
 28 27  1  0
  1 29  1  0
  1 30  1  0
  2 31  1  0
  2 32  1  0
  3 33  1  0
  3 34  1  0
  4 35  1  0
  4 36  1  0
  5 37  1  0
  5 38  1  0
  6 39  1  0
  6 40  1  0
  7 41  1  0
  7 42  1  0
 11 43  1  0
 12 44  1  0
 12 45  1  0
 13 46  1  0
 13 47  1  0
 14 48  1  0
 14 49  1  0
 15 50  1  0
 15 51  1  0
 15 52  1  0
 16 53  1  0
 16 54  1  0
 17 55  1  0
 17 56  1  0
 18 57  1  0
 18 58  1  0
 19 59  1  0
 19 60  1  0
 20 61  1  0
 20 62  1  0
 22 63  1  0
 25 64  1  0
 25 65  1  0
 26 66  1  0
 26 67  1  0
 27 68  1  0
 27 69  1  0
 27 70  1  0
 28 71  1  0
 28 72  1  0
M  END
>  <score>  (7) 
-7.173

$$$$
=
     RDKit          3D

 72 71  0  0  0  0  0  0  0  0999 V2000
    2.4600   63.9510   70.9680 C   0  0  0  0  0  0  0  0  0  0  0  0
    1.8900   65.2510   70.3910 C   0  0  0  0  0  0  0  0  0  0  0  0
    0.3620   65.3220   70.2860 C   0  0  0  0  0  0  0  0  0  0  0  0
   -0.1310   66.4710   69.4020 C   0  0  0  0  0  0  0  0  0  0  0  0
    0.9990   67.2440   68.7170 C   0  0  0  0  0  0  0  0  0  0  0  0
    0.6500   67.9710   67.4100 C   0  0  0  0  0  0  0  0  0  0  0  0
    1.6260   67.7120   66.2650 C   0  0  0  0  0  0  0  0  0  0  0  0
    2.1830   68.9560   65.8250 O   0  0  0  0  0  0  0  0  0  0  0  0
    3.4910   68.8910   65.4740 C   0  0  0  0  0  0  0  0  0  0  0  0
    3.9390   68.2580   64.5320 O   0  0  0  0  0  0  0  0  0  0  0  0
    4.2110   69.6460   66.3460 N   0  0  0  0  0  0  0  0  0  0  0  0
    5.6470   69.7940   66.2820 C   0  0  0  0  0  0  0  0  0  0  0  0
    6.2350   70.2760   67.6070 C   0  0  0  0  0  0  0  0  0  0  0  0
    5.3360   71.2240   68.4060 C   0  0  0  0  0  0  0  0  0  0  0  0
    4.5940   70.5390   69.5430 C   0  0  0  0  0  0  0  0  0  0  0  0
    3.9080   63.6880   70.5500 C   0  0  0  0  0  0  0  0  0  0  0  0
    4.0300   63.0110   69.1800 C   0  0  0  0  0  0  0  0  0  0  0  0
    3.2940   61.6770   69.0270 C   0  0  0  0  0  0  0  0  0  0  0  0
    4.1150   60.4710   69.4960 C   0  0  0  0  0  0  0  0  0  0  0  0
    3.3900   59.6670   70.5750 C   0  0  0  0  0  0  0  0  0  0  0  0
    4.2360   59.5620   71.7280 O   0  0  0  0  0  0  0  0  0  0  0  0
    2.8880   60.7760   72.9890 N   0  0  0  0  0  0  0  0  0  0  0  0
    4.1720   60.6280   72.5610 C   0  0  0  0  0  0  0  0  0  0  0  0
    5.1160   61.3320   72.8850 O   0  0  0  0  0  0  0  0  0  0  0  0
    2.5340   61.6970   74.0430 C   0  0  0  0  0  0  0  0  0  0  0  0
    1.0260   61.7710   74.2640 C   0  0  0  0  0  0  0  0  0  0  0  0
   -1.1070   61.4590   72.8970 C   0  0  0  0  0  0  0  0  0  0  0  0
    0.2190   62.1910   73.0320 C   0  0  0  0  0  0  0  0  0  0  0  0
    2.4182   64.0082   72.0657 H   0  0  0  0  0  0  0  0  0  0  0  0
    1.8512   63.1243   70.5730 H   0  0  0  0  0  0  0  0  0  0  0  0
    2.2228   66.0796   71.0333 H   0  0  0  0  0  0  0  0  0  0  0  0
    2.2630   65.3076   69.3577 H   0  0  0  0  0  0  0  0  0  0  0  0
   -0.0034   64.3745   69.8632 H   0  0  0  0  0  0  0  0  0  0  0  0
   -0.0265   65.5005   71.2995 H   0  0  0  0  0  0  0  0  0  0  0  0
   -0.7887   66.0546   68.6248 H   0  0  0  0  0  0  0  0  0  0  0  0
   -0.6566   67.1806   70.0578 H   0  0  0  0  0  0  0  0  0  0  0  0
    1.3653   67.9980   69.4292 H   0  0  0  0  0  0  0  0  0  0  0  0
    1.7376   66.4802   68.4322 H   0  0  0  0  0  0  0  0  0  0  0  0
   -0.3502   67.6433   67.0904 H   0  0  0  0  0  0  0  0  0  0  0  0
    0.6989   69.0483   67.6270 H   0  0  0  0  0  0  0  0  0  0  0  0
    2.4333   67.0510   66.6132 H   0  0  0  0  0  0  0  0  0  0  0  0
    1.0945   67.2314   65.4304 H   0  0  0  0  0  0  0  0  0  0  0  0
    3.7043   70.1402   67.0943 H   0  0  0  0  0  0  0  0  0  0  0  0
    6.0929   68.8207   66.0293 H   0  0  0  0  0  0  0  0  0  0  0  0
    5.8757   70.5491   65.5155 H   0  0  0  0  0  0  0  0  0  0  0  0
    6.4402   69.3934   68.2306 H   0  0  0  0  0  0  0  0  0  0  0  0
    7.1383   70.8498   67.3524 H   0  0  0  0  0  0  0  0  0  0  0  0
    5.9618   72.0233   68.8298 H   0  0  0  0  0  0  0  0  0  0  0  0
    4.5770   71.6136   67.7116 H   0  0  0  0  0  0  0  0  0  0  0  0
    4.9848   70.8998   70.5058 H   0  0  0  0  0  0  0  0  0  0  0  0
    3.5210   70.7708   69.4728 H   0  0  0  0  0  0  0  0  0  0  0  0
    4.7395   69.4509   69.4728 H   0  0  0  0  0  0  0  0  0  0  0  0
    4.4409   64.6496   70.5130 H   0  0  0  0  0  0  0  0  0  0  0  0
    4.3420   63.0020   71.2923 H   0  0  0  0  0  0  0  0  0  0  0  0
    3.6321   63.7044   68.4245 H   0  0  0  0  0  0  0  0  0  0  0  0
    5.0980   62.7784   69.0562 H   0  0  0  0  0  0  0  0  0  0  0  0
    2.3680   61.7199   69.6192 H   0  0  0  0  0  0  0  0  0  0  0  0
    3.0956   61.5370   67.9541 H   0  0  0  0  0  0  0  0  0  0  0  0
    4.3067   59.8154   68.6338 H   0  0  0  0  0  0  0  0  0  0  0  0
    5.0542   60.8475   69.9275 H   0  0  0  0  0  0  0  0  0  0  0  0
    2.4549   60.1774   70.8492 H   0  0  0  0  0  0  0  0  0  0  0  0
    3.1551   58.6621   70.1942 H   0  0  0  0  0  0  0  0  0  0  0  0
    2.1466   60.2137   72.5474 H   0  0  0  0  0  0  0  0  0  0  0  0
    3.0128   61.3671   74.9768 H   0  0  0  0  0  0  0  0  0  0  0  0
    2.8805   62.6979   73.7462 H   0  0  0  0  0  0  0  0  0  0  0  0
    0.6767   60.7769   74.5799 H   0  0  0  0  0  0  0  0  0  0  0  0
    0.8610   62.5491   75.0238 H   0  0  0  0  0  0  0  0  0  0  0  0
   -1.5073   61.2380   73.8974 H   0  0  0  0  0  0  0  0  0  0  0  0
   -1.8205   62.0910   72.3479 H   0  0  0  0  0  0  0  0  0  0  0  0
   -0.9524   60.5185   72.3479 H   0  0  0  0  0  0  0  0  0  0  0  0
    0.0157   63.2699   73.1001 H   0  0  0  0  0  0  0  0  0  0  0  0
    0.8214   61.9350   72.1479 H   0  0  0  0  0  0  0  0  0  0  0  0
  2  1  1  0
  3  2  1  0
  4  3  1  0
  5  4  1  0
  6  5  1  0
  7  6  1  0
  8  7  1  0
  9  8  1  0
 10  9  2  0
 11  9  1  0
 12 11  1  0
 13 12  1  0
 14 13  1  0
 15 14  1  0
 16  1  1  0
 17 16  1  0
 18 17  1  0
 19 18  1  0
 20 19  1  0
 21 20  1  0
 23 22  1  0
 23 21  1  0
 24 23  2  0
 25 22  1  0
 26 25  1  0
 28 26  1  0
 28 27  1  0
  1 29  1  0
  1 30  1  0
  2 31  1  0
  2 32  1  0
  3 33  1  0
  3 34  1  0
  4 35  1  0
  4 36  1  0
  5 37  1  0
  5 38  1  0
  6 39  1  0
  6 40  1  0
  7 41  1  0
  7 42  1  0
 11 43  1  0
 12 44  1  0
 12 45  1  0
 13 46  1  0
 13 47  1  0
 14 48  1  0
 14 49  1  0
 15 50  1  0
 15 51  1  0
 15 52  1  0
 16 53  1  0
 16 54  1  0
 17 55  1  0
 17 56  1  0
 18 57  1  0
 18 58  1  0
 19 59  1  0
 19 60  1  0
 20 61  1  0
 20 62  1  0
 22 63  1  0
 25 64  1  0
 25 65  1  0
 26 66  1  0
 26 67  1  0
 27 68  1  0
 27 69  1  0
 27 70  1  0
 28 71  1  0
 28 72  1  0
M  END
>  <score>  (8) 
-6.961

$$$$
=
     RDKit          3D

 72 71  0  0  0  0  0  0  0  0999 V2000
    2.6260   70.5880   68.8270 C   0  0  0  0  0  0  0  0  0  0  0  0
    2.2580   69.2850   68.1090 C   0  0  0  0  0  0  0  0  0  0  0  0
    0.7740   69.1030   67.7720 C   0  0  0  0  0  0  0  0  0  0  0  0
    0.2570   67.6910   68.0550 C   0  0  0  0  0  0  0  0  0  0  0  0
    1.2170   66.8440   68.8930 C   0  0  0  0  0  0  0  0  0  0  0  0
    0.5940   65.9650   69.9870 C   0  0  0  0  0  0  0  0  0  0  0  0
    1.5830   65.0370   70.6890 C   0  0  0  0  0  0  0  0  0  0  0  0
    1.6680   63.8010   69.9700 O   0  0  0  0  0  0  0  0  0  0  0  0
    2.9300   63.4200   69.6580 C   0  0  0  0  0  0  0  0  0  0  0  0
    3.4020   63.3920   68.5330 O   0  0  0  0  0  0  0  0  0  0  0  0
    3.5770   63.0780   70.8050 N   0  0  0  0  0  0  0  0  0  0  0  0
    4.9410   62.6070   70.8450 C   0  0  0  0  0  0  0  0  0  0  0  0
    5.0220   61.0840   70.9450 C   0  0  0  0  0  0  0  0  0  0  0  0
    4.1490   60.4600   72.0370 C   0  0  0  0  0  0  0  0  0  0  0  0
    3.0850   59.5170   71.4990 C   0  0  0  0  0  0  0  0  0  0  0  0
    4.1320   70.8530   68.8650 C   0  0  0  0  0  0  0  0  0  0  0  0
    4.9310   69.9430   67.9240 C   0  0  0  0  0  0  0  0  0  0  0  0
    5.9970   70.6360   67.0710 C   0  0  0  0  0  0  0  0  0  0  0  0
    6.0050   70.1740   65.6100 C   0  0  0  0  0  0  0  0  0  0  0  0
    4.7020   69.4760   65.2210 C   0  0  0  0  0  0  0  0  0  0  0  0
    5.0100   68.2990   64.4630 O   0  0  0  0  0  0  0  0  0  0  0  0
    2.8480   68.0010   64.8050 N   0  0  0  0  0  0  0  0  0  0  0  0
    3.9230   67.5860   64.0820 C   0  0  0  0  0  0  0  0  0  0  0  0
    3.9100   66.7200   63.2200 O   0  0  0  0  0  0  0  0  0  0  0  0
    1.5030   67.5770   64.4910 C   0  0  0  0  0  0  0  0  0  0  0  0
    0.6840   68.6880   63.8410 C   0  0  0  0  0  0  0  0  0  0  0  0
    0.0080   69.8420   61.6660 C   0  0  0  0  0  0  0  0  0  0  0  0
    1.0250   68.9580   62.3720 C   0  0  0  0  0  0  0  0  0  0  0  0
    2.1374   71.4242   68.3054 H   0  0  0  0  0  0  0  0  0  0  0  0
    2.2853   70.4936   69.8686 H   0  0  0  0  0  0  0  0  0  0  0  0
    2.8247   69.2476   67.1669 H   0  0  0  0  0  0  0  0  0  0  0  0
    2.5048   68.4769   68.8133 H   0  0  0  0  0  0  0  0  0  0  0  0
    0.1898   69.8155   68.3728 H   0  0  0  0  0  0  0  0  0  0  0  0
    0.6613   69.2805   66.6923 H   0  0  0  0  0  0  0  0  0  0  0  0
   -0.6977   67.7720   68.5954 H   0  0  0  0  0  0  0  0  0  0  0  0
    0.1462   67.1872   67.0835 H   0  0  0  0  0  0  0  0  0  0  0  0
    1.7626   66.1814   68.2050 H   0  0  0  0  0  0  0  0  0  0  0  0
    1.8445   67.5697   69.4311 H   0  0  0  0  0  0  0  0  0  0  0  0
    0.1442   66.6245   70.7438 H   0  0  0  0  0  0  0  0  0  0  0  0
   -0.1438   65.3189   69.4888 H   0  0  0  0  0  0  0  0  0  0  0  0
    2.5743   65.5127   70.7196 H   0  0  0  0  0  0  0  0  0  0  0  0
    1.2390   64.8421   71.7155 H   0  0  0  0  0  0  0  0  0  0  0  0
    3.0648   63.1598   71.6948 H   0  0  0  0  0  0  0  0  0  0  0  0
    5.4545   62.9298   69.9273 H   0  0  0  0  0  0  0  0  0  0  0  0
    5.4189   63.0306   71.7406 H   0  0  0  0  0  0  0  0  0  0  0  0
    4.7124   60.6616   69.9777 H   0  0  0  0  0  0  0  0  0  0  0  0
    6.0629   60.8483   71.2114 H   0  0  0  0  0  0  0  0  0  0  0  0
    4.7990   59.8965   72.7225 H   0  0  0  0  0  0  0  0  0  0  0  0
    3.6245   61.2846   72.5419 H   0  0  0  0  0  0  0  0  0  0  0  0
    2.5537   59.0461   72.3392 H   0  0  0  0  0  0  0  0  0  0  0  0
    2.3700   60.0834   70.8842 H   0  0  0  0  0  0  0  0  0  0  0  0
    3.5614   58.7391   70.8842 H   0  0  0  0  0  0  0  0  0  0  0  0
    4.3101   71.8988   68.5742 H   0  0  0  0  0  0  0  0  0  0  0  0
    4.4743   70.6441   69.8893 H   0  0  0  0  0  0  0  0  0  0  0  0
    5.4333   69.1809   68.5379 H   0  0  0  0  0  0  0  0  0  0  0  0
    4.1990   69.5339   67.2121 H   0  0  0  0  0  0  0  0  0  0  0  0
    5.8100   71.7198   67.0926 H   0  0  0  0  0  0  0  0  0  0  0  0
    6.9756   70.3733   67.4992 H   0  0  0  0  0  0  0  0  0  0  0  0
    6.1449   71.0513   64.9613 H   0  0  0  0  0  0  0  0  0  0  0  0
    6.8259   69.4522   65.4873 H   0  0  0  0  0  0  0  0  0  0  0  0
    4.1489   69.1951   66.1294 H   0  0  0  0  0  0  0  0  0  0  0  0
    4.0832   70.1554   64.6164 H   0  0  0  0  0  0  0  0  0  0  0  0
    2.9976   68.6373   65.6010 H   0  0  0  0  0  0  0  0  0  0  0  0
    1.5534   66.7233   63.7992 H   0  0  0  0  0  0  0  0  0  0  0  0
    1.0079   67.3006   65.4336 H   0  0  0  0  0  0  0  0  0  0  0  0
   -0.3787   68.4103   63.9008 H   0  0  0  0  0  0  0  0  0  0  0  0
    0.9212   69.6112   64.3901 H   0  0  0  0  0  0  0  0  0  0  0  0
   -0.6004   70.3708   62.4145 H   0  0  0  0  0  0  0  0  0  0  0  0
    0.5337   70.5751   61.0365 H   0  0  0  0  0  0  0  0  0  0  0  0
   -0.6447   69.2193   61.0365 H   0  0  0  0  0  0  0  0  0  0  0  0
    2.0066   69.4525   62.3275 H   0  0  0  0  0  0  0  0  0  0  0  0
    1.0236   67.9868   61.8555 H   0  0  0  0  0  0  0  0  0  0  0  0
  2  1  1  0
  3  2  1  0
  4  3  1  0
  5  4  1  0
  6  5  1  0
  7  6  1  0
  8  7  1  0
  9  8  1  0
 10  9  2  0
 11  9  1  0
 12 11  1  0
 13 12  1  0
 14 13  1  0
 15 14  1  0
 16  1  1  0
 17 16  1  0
 18 17  1  0
 19 18  1  0
 20 19  1  0
 21 20  1  0
 23 22  1  0
 23 21  1  0
 24 23  2  0
 25 22  1  0
 26 25  1  0
 28 26  1  0
 28 27  1  0
  1 29  1  0
  1 30  1  0
  2 31  1  0
  2 32  1  0
  3 33  1  0
  3 34  1  0
  4 35  1  0
  4 36  1  0
  5 37  1  0
  5 38  1  0
  6 39  1  0
  6 40  1  0
  7 41  1  0
  7 42  1  0
 11 43  1  0
 12 44  1  0
 12 45  1  0
 13 46  1  0
 13 47  1  0
 14 48  1  0
 14 49  1  0
 15 50  1  0
 15 51  1  0
 15 52  1  0
 16 53  1  0
 16 54  1  0
 17 55  1  0
 17 56  1  0
 18 57  1  0
 18 58  1  0
 19 59  1  0
 19 60  1  0
 20 61  1  0
 20 62  1  0
 22 63  1  0
 25 64  1  0
 25 65  1  0
 26 66  1  0
 26 67  1  0
 27 68  1  0
 27 69  1  0
 27 70  1  0
 28 71  1  0
 28 72  1  0
M  END
>  <score>  (9) 
-6.868

$$$$
