=
     RDKit          3D

 62 65  0  0  0  0  0  0  0  0999 V2000
    1.2710   64.8380   71.3690 C   0  0  2  0  0  0  0  0  0  0  0  0
   -1.3870   68.1590   66.5520 N   0  0  0  0  0  0  0  0  0  0  0  0
   -2.0480   67.4880   67.6530 C   0  0  0  0  0  0  0  0  0  0  0  0
   -1.0800   66.5270   68.3320 C   0  0  0  0  0  0  0  0  0  0  0  0
    0.1280   67.2120   68.7910 N   0  0  0  0  0  0  0  0  0  0  0  0
    0.5840   68.3220   68.0770 C   0  0  0  0  0  0  0  0  0  0  0  0
    1.3380   69.1880   68.5080 O   0  0  0  0  0  0  0  0  0  0  0  0
   -0.0530   68.5420   66.6820 C   0  0  0  0  0  0  0  0  0  0  0  0
    0.6080   69.0240   65.7710 O   0  0  0  0  0  0  0  0  0  0  0  0
    1.0210   66.5750   69.6360 C   0  0  0  0  0  0  0  0  0  0  0  0
    2.2320   66.7730   69.6430 O   0  0  0  0  0  0  0  0  0  0  0  0
    0.4510   65.6180   70.4410 N   0  0  0  0  0  0  0  0  0  0  0  0
   -3.5050   68.9220   65.5540 C   0  0  0  0  0  0  0  0  0  0  0  0
   -2.1050   68.3870   65.3060 C   0  0  0  0  0  0  0  0  0  0  0  0
    2.1250   63.8400   70.6080 C   0  0  0  0  0  0  0  0  0  0  0  0
    1.5540   62.8900   69.7450 C   0  0  0  0  0  0  0  0  0  0  0  0
    2.3600   61.9790   69.0600 C   0  0  0  0  0  0  0  0  0  0  0  0
    3.7440   62.0160   69.2150 C   0  0  0  0  0  0  0  0  0  0  0  0
    4.3250   62.9670   70.0500 C   0  0  0  0  0  0  0  0  0  0  0  0
    3.5220   63.8770   70.7400 C   0  0  0  0  0  0  0  0  0  0  0  0
    0.3040   64.1610   72.3730 C   0  0  0  0  0  0  0  0  0  0  0  0
   -0.3740   64.8280   73.1600 O   0  0  0  0  0  0  0  0  0  0  0  0
    0.2710   62.7890   72.3310 N   0  0  0  0  0  0  0  0  0  0  0  0
   -0.5330   61.9720   73.2810 C   0  0  2  0  0  0  0  0  0  0  0  0
    0.0410   61.8390   74.7200 C   0  0  0  0  0  0  0  0  0  0  0  0
    0.5170   62.5860   75.5440 O   0  0  0  0  0  0  0  0  0  0  0  0
   -0.0710   60.4840   74.6710 N   0  0  0  0  0  0  0  0  0  0  0  0
   -0.3010   60.4360   73.2260 C   0  0  2  0  0  0  0  0  0  0  0  0
    1.3100   59.9190   72.4810 S   0  0  0  0  0  0  0  0  0  0  0  0
    2.0520   59.4400   74.1280 C   0  0  0  0  0  0  0  0  0  0  0  0
    0.9250   59.5310   75.1890 C   0  0  2  0  0  0  0  0  0  0  0  0
    3.1620   60.4660   74.4270 C   0  0  0  0  0  0  0  0  0  0  0  0
    2.7080   58.0610   73.9640 C   0  0  0  0  0  0  0  0  0  0  0  0
    0.3210   58.1320   75.5050 C   0  0  0  0  0  0  0  0  0  0  0  0
   -0.4930   57.6710   74.6510 O   0  0  0  0  0  0  0  0  0  0  0  0
    0.7320   57.6090   76.5810 O   0  0  0  0  0  1  0  0  0  0  0  0
    1.9766   65.4751   71.9223 H   0  0  0  0  0  0  0  0  0  0  0  0
   -2.3911   68.2361   68.3828 H   0  0  0  0  0  0  0  0  0  0  0  0
   -2.9089   66.9221   67.2674 H   0  0  0  0  0  0  0  0  0  0  0  0
   -1.5808   66.0686   69.1975 H   0  0  0  0  0  0  0  0  0  0  0  0
   -0.7836   65.7628   67.5984 H   0  0  0  0  0  0  0  0  0  0  0  0
   -0.5636   65.4480   70.3907 H   0  0  0  0  0  0  0  0  0  0  0  0
   -3.6848   68.9907   66.6370 H   0  0  0  0  0  0  0  0  0  0  0  0
   -3.6014   69.9203   65.1023 H   0  0  0  0  0  0  0  0  0  0  0  0
   -4.2426   68.2424   65.1023 H   0  0  0  0  0  0  0  0  0  0  0  0
   -2.1787   67.4361   64.7579 H   0  0  0  0  0  0  0  0  0  0  0  0
   -1.5499   69.1364   64.7226 H   0  0  0  0  0  0  0  0  0  0  0  0
    0.4629   62.8637   69.6079 H   0  0  0  0  0  0  0  0  0  0  0  0
    1.9016   61.2307   68.3968 H   0  0  0  0  0  0  0  0  0  0  0  0
    4.3774   61.2945   68.6782 H   0  0  0  0  0  0  0  0  0  0  0  0
    5.4183   63.0013   70.1661 H   0  0  0  0  0  0  0  0  0  0  0  0
    3.9881   64.6296   71.3929 H   0  0  0  0  0  0  0  0  0  0  0  0
    0.8262   62.3043   71.6115 H   0  0  0  0  0  0  0  0  0  0  0  0
   -1.4968   62.4500   73.0516 H   0  0  0  0  0  0  0  0  0  0  0  0
   -1.0414   59.8118   72.7044 H   0  0  0  0  0  0  0  0  0  0  0  0
    1.3155   59.8902   76.1526 H   0  0  0  0  0  0  0  0  0  0  0  0
    3.2784   60.5735   75.5155 H   0  0  0  0  0  0  0  0  0  0  0  0
    4.1097   60.1189   73.9895 H   0  0  0  0  0  0  0  0  0  0  0  0
    2.8904   61.4380   73.9895 H   0  0  0  0  0  0  0  0  0  0  0  0
    2.9122   57.6318   74.9560 H   0  0  0  0  0  0  0  0  0  0  0  0
    2.0298   57.3960   73.4093 H   0  0  0  0  0  0  0  0  0  0  0  0
    3.6519   58.1676   73.4093 H   0  0  0  0  0  0  0  0  0  0  0  0
  3  2  1  0
  4  3  1  0
  5  4  1  0
  6  5  1  0
  7  6  2  0
  8  6  1  0
  8  2  1  0
  9  8  2  0
 10  5  1  0
 11 10  2  0
 12  1  1  0
 12 10  1  0
 14 13  1  0
 14  2  1  0
 15  1  1  0
 16 15  2  0
 17 16  1  0
 18 17  2  0
 19 18  1  0
 20 19  2  0
 20 15  1  0
 21  1  1  0
 22 21  2  0
 23 21  1  0
 24 23  1  0
 25 24  1  0
 26 25  2  0
 27 25  1  0
 28 27  1  0
 28 24  1  0
 29 28  1  0
 30 29  1  0
 31 30  1  0
 31 27  1  0
 32 30  1  0
 33 30  1  0
 34 31  1  0
 35 34  2  0
 36 34  1  0
  1 37  1  1
  3 38  1  0
  3 39  1  0
  4 40  1  0
  4 41  1  0
 12 42  1  0
 13 43  1  0
 13 44  1  0
 13 45  1  0
 14 46  1  0
 14 47  1  0
 16 48  1  0
 17 49  1  0
 18 50  1  0
 19 51  1  0
 20 52  1  0
 23 53  1  0
 24 54  1  1
 28 55  1  1
 31 56  1  1
 32 57  1  0
 32 58  1  0
 32 59  1  0
 33 60  1  0
 33 61  1  0
 33 62  1  0
M  CHG  1  36  -1
M  END
>  <score>  (1) 
-8.18

$$$$
=
     RDKit          3D

 62 65  0  0  0  0  0  0  0  0999 V2000
    3.0460   58.9000   72.7540 C   0  0  2  0  0  0  0  0  0  0  0  0
    2.3100   61.5230   78.5750 N   0  0  0  0  0  0  0  0  0  0  0  0
    1.3400   61.4270   77.5020 C   0  0  0  0  0  0  0  0  0  0  0  0
    2.0420   61.0790   76.1960 C   0  0  0  0  0  0  0  0  0  0  0  0
    2.8130   59.8420   76.3110 N   0  0  0  0  0  0  0  0  0  0  0  0
    3.3680   59.5070   77.5470 C   0  0  0  0  0  0  0  0  0  0  0  0
    3.7230   58.3850   77.8910 O   0  0  0  0  0  0  0  0  0  0  0  0
    3.3810   60.6320   78.6130 C   0  0  0  0  0  0  0  0  0  0  0  0
    4.2960   60.7030   79.4240 O   0  0  0  0  0  0  0  0  0  0  0  0
    3.3290   59.2260   75.1830 C   0  0  0  0  0  0  0  0  0  0  0  0
    4.3730   58.5800   75.1600 O   0  0  0  0  0  0  0  0  0  0  0  0
    2.6110   59.4590   74.0340 N   0  0  0  0  0  0  0  0  0  0  0  0
    2.2260   63.9570   78.9430 C   0  0  0  0  0  0  0  0  0  0  0  0
    2.1840   62.5750   79.5740 C   0  0  0  0  0  0  0  0  0  0  0  0
    2.9740   59.9560   71.6650 C   0  0  0  0  0  0  0  0  0  0  0  0
    2.1170   61.0640   71.7700 C   0  0  0  0  0  0  0  0  0  0  0  0
    2.0630   62.0190   70.7540 C   0  0  0  0  0  0  0  0  0  0  0  0
    2.8750   61.8880   69.6290 C   0  0  0  0  0  0  0  0  0  0  0  0
    3.7460   60.8060   69.5220 C   0  0  0  0  0  0  0  0  0  0  0  0
    3.8000   59.8470   70.5350 C   0  0  0  0  0  0  0  0  0  0  0  0
    2.1470   57.6720   72.4640 C   0  0  0  0  0  0  0  0  0  0  0  0
    2.2710   57.0170   71.4250 O   0  0  0  0  0  0  0  0  0  0  0  0
    1.2110   57.3830   73.4250 N   0  0  0  0  0  0  0  0  0  0  0  0
    0.2070   56.2940   73.2720 C   0  0  2  0  0  0  0  0  0  0  0  0
   -0.9280   56.2590   74.3360 C   0  0  0  0  0  0  0  0  0  0  0  0
   -1.6700   57.0650   74.8490 O   0  0  0  0  0  0  0  0  0  0  0  0
   -0.6870   54.9450   74.5920 N   0  0  0  0  0  0  0  0  0  0  0  0
    0.5940   54.9180   73.8840 C   0  0  2  0  0  0  0  0  0  0  0  0
    1.8920   54.9880   75.1970 S   0  0  0  0  0  0  0  0  0  0  0  0
    0.6770   54.6670   76.5800 C   0  0  0  0  0  0  0  0  0  0  0  0
   -0.6890   54.3270   75.9280 C   0  0  2  0  0  0  0  0  0  0  0  0
    0.5800   55.9700   77.3950 C   0  0  0  0  0  0  0  0  0  0  0  0
    1.2750   53.5810   77.4860 C   0  0  0  0  0  0  0  0  0  0  0  0
   -0.9380   52.7920   75.8890 C   0  0  0  0  0  0  0  0  0  0  0  0
   -1.7110   52.3310   76.7800 O   0  0  0  0  0  0  0  0  0  0  0  0
   -0.3460   52.1830   74.9510 O   0  0  0  0  0  1  0  0  0  0  0  0
    4.0968   58.5764   72.7873 H   0  0  0  0  0  0  0  0  0  0  0  0
    0.6073   60.6425   77.7422 H   0  0  0  0  0  0  0  0  0  0  0  0
    0.8276   62.3939   77.3904 H   0  0  0  0  0  0  0  0  0  0  0  0
    1.2861   60.9561   75.4064 H   0  0  0  0  0  0  0  0  0  0  0  0
    2.7372   61.8956   75.9515 H   0  0  0  0  0  0  0  0  0  0  0  0
    1.7572   60.0336   74.0748 H   0  0  0  0  0  0  0  0  0  0  0  0
    2.2492   64.7208   79.7343 H   0  0  0  0  0  0  0  0  0  0  0  0
    3.1273   64.0479   78.3190 H   0  0  0  0  0  0  0  0  0  0  0  0
    1.3319   64.1025   78.3190 H   0  0  0  0  0  0  0  0  0  0  0  0
    3.0123   62.4857   80.2922 H   0  0  0  0  0  0  0  0  0  0  0  0
    1.2125   62.4566   80.0762 H   0  0  0  0  0  0  0  0  0  0  0  0
    1.4827   61.1799   72.6612 H   0  0  0  0  0  0  0  0  0  0  0  0
    1.3789   62.8760   70.8412 H   0  0  0  0  0  0  0  0  0  0  0  0
    2.8282   62.6384   68.8261 H   0  0  0  0  0  0  0  0  0  0  0  0
    4.3925   60.7071   68.6375 H   0  0  0  0  0  0  0  0  0  0  0  0
    4.4953   58.9991   70.4472 H   0  0  0  0  0  0  0  0  0  0  0  0
    1.2026   57.9434   74.2892 H   0  0  0  0  0  0  0  0  0  0  0  0
    0.0307   56.4543   72.1981 H   0  0  0  0  0  0  0  0  0  0  0  0
    0.9491   54.1250   73.2094 H   0  0  0  0  0  0  0  0  0  0  0  0
   -1.5239   54.7293   76.5206 H   0  0  0  0  0  0  0  0  0  0  0  0
    0.5977   55.7329   78.4690 H   0  0  0  0  0  0  0  0  0  0  0  0
    1.4322   56.6206   77.1491 H   0  0  0  0  0  0  0  0  0  0  0  0
   -0.3591   56.4873   77.1491 H   0  0  0  0  0  0  0  0  0  0  0  0
    1.1226   53.8577   78.5397 H   0  0  0  0  0  0  0  0  0  0  0  0
    0.7786   52.6204   77.2837 H   0  0  0  0  0  0  0  0  0  0  0  0
    2.3521   53.4869   77.2837 H   0  0  0  0  0  0  0  0  0  0  0  0
  3  2  1  0
  4  3  1  0
  5  4  1  0
  6  5  1  0
  7  6  2  0
  8  6  1  0
  8  2  1  0
  9  8  2  0
 10  5  1  0
 11 10  2  0
 12  1  1  0
 12 10  1  0
 14 13  1  0
 14  2  1  0
 15  1  1  0
 16 15  2  0
 17 16  1  0
 18 17  2  0
 19 18  1  0
 20 19  2  0
 20 15  1  0
 21  1  1  0
 22 21  2  0
 23 21  1  0
 24 23  1  0
 25 24  1  0
 26 25  2  0
 27 25  1  0
 28 27  1  0
 28 24  1  0
 29 28  1  0
 30 29  1  0
 31 30  1  0
 31 27  1  0
 32 30  1  0
 33 30  1  0
 34 31  1  0
 35 34  2  0
 36 34  1  0
  1 37  1  1
  3 38  1  0
  3 39  1  0
  4 40  1  0
  4 41  1  0
 12 42  1  0
 13 43  1  0
 13 44  1  0
 13 45  1  0
 14 46  1  0
 14 47  1  0
 16 48  1  0
 17 49  1  0
 18 50  1  0
 19 51  1  0
 20 52  1  0
 23 53  1  0
 24 54  1  6
 28 55  1  6
 31 56  1  1
 32 57  1  0
 32 58  1  0
 32 59  1  0
 33 60  1  0
 33 61  1  0
 33 62  1  0
M  CHG  1  36  -1
M  END
>  <score>  (2) 
-8.068

$$$$
=
     RDKit          3D

 62 65  0  0  0  0  0  0  0  0999 V2000
    1.8910   57.4390   75.5550 C   0  0  2  0  0  0  0  0  0  0  0  0
    3.7470   60.8350   70.4240 N   0  0  0  0  0  0  0  0  0  0  0  0
    2.4120   60.6820   70.9670 C   0  0  0  0  0  0  0  0  0  0  0  0
    2.3780   59.5090   71.9380 C   0  0  0  0  0  0  0  0  0  0  0  0
    3.3580   59.6690   73.0120 N   0  0  0  0  0  0  0  0  0  0  0  0
    4.5420   60.3570   72.7440 C   0  0  0  0  0  0  0  0  0  0  0  0
    5.2770   60.8680   73.5830 O   0  0  0  0  0  0  0  0  0  0  0  0
    4.8520   60.6220   71.2490 C   0  0  0  0  0  0  0  0  0  0  0  0
    6.0090   60.6350   70.8510 O   0  0  0  0  0  0  0  0  0  0  0  0
    3.3280   58.8410   74.1220 C   0  0  0  0  0  0  0  0  0  0  0  0
    4.3190   58.4970   74.7590 O   0  0  0  0  0  0  0  0  0  0  0  0
    2.0810   58.3500   74.4260 N   0  0  0  0  0  0  0  0  0  0  0  0
    3.6550   62.6340   68.7450 C   0  0  0  0  0  0  0  0  0  0  0  0
    3.9250   61.1640   69.0170 C   0  0  0  0  0  0  0  0  0  0  0  0
    1.4500   56.0720   75.0620 C   0  0  0  0  0  0  0  0  0  0  0  0
    2.2830   54.9470   75.1700 C   0  0  0  0  0  0  0  0  0  0  0  0
    1.8590   53.7020   74.7040 C   0  0  0  0  0  0  0  0  0  0  0  0
    0.5930   53.5620   74.1400 C   0  0  0  0  0  0  0  0  0  0  0  0
   -0.2530   54.6650   74.0470 C   0  0  0  0  0  0  0  0  0  0  0  0
    0.1700   55.9120   74.5090 C   0  0  0  0  0  0  0  0  0  0  0  0
    0.8610   58.0980   76.5060 C   0  0  0  0  0  0  0  0  0  0  0  0
    0.6200   57.6230   77.6200 O   0  0  0  0  0  0  0  0  0  0  0  0
    0.2390   59.2210   76.0180 N   0  0  0  0  0  0  0  0  0  0  0  0
   -0.8400   59.9320   76.7590 C   0  0  2  0  0  0  0  0  0  0  0  0
   -1.9530   60.5780   75.8860 C   0  0  0  0  0  0  0  0  0  0  0  0
   -2.6290   60.2410   74.9400 O   0  0  0  0  0  0  0  0  0  0  0  0
   -1.7980   61.7710   76.5200 N   0  0  0  0  0  0  0  0  0  0  0  0
   -0.5360   61.4010   77.1630 C   0  0  2  0  0  0  0  0  0  0  0  0
    0.7890   62.2230   76.1710 S   0  0  0  0  0  0  0  0  0  0  0  0
   -0.4180   63.2890   75.2230 C   0  0  0  0  0  0  0  0  0  0  0  0
   -1.8160   63.0890   75.8640 C   0  0  2  0  0  0  0  0  0  0  0  0
   -0.4110   62.7810   73.7700 C   0  0  0  0  0  0  0  0  0  0  0  0
    0.1220   64.7270   75.2290 C   0  0  0  0  0  0  0  0  0  0  0  0
   -2.1710   64.2500   76.8390 C   0  0  0  0  0  0  0  0  0  0  0  0
   -1.7830   64.1080   78.0360 O   0  0  0  0  0  0  0  0  0  0  0  0
   -2.7970   65.2120   76.3090 O   0  0  0  0  0  1  0  0  0  0  0  0
    2.8296   57.2708   76.1035 H   0  0  0  0  0  0  0  0  0  0  0  0
    2.1262   61.6025   71.4971 H   0  0  0  0  0  0  0  0  0  0  0  0
    1.7065   60.4918   70.1448 H   0  0  0  0  0  0  0  0  0  0  0  0
    1.3728   59.4404   72.3795 H   0  0  0  0  0  0  0  0  0  0  0  0
    2.6260   58.5940   71.3802 H   0  0  0  0  0  0  0  0  0  0  0  0
    1.2712   58.6264   73.8527 H   0  0  0  0  0  0  0  0  0  0  0  0
    3.5563   63.1714   69.6997 H   0  0  0  0  0  0  0  0  0  0  0  0
    4.4900   63.0597   68.1692 H   0  0  0  0  0  0  0  0  0  0  0  0
    2.7232   62.7352   68.1692 H   0  0  0  0  0  0  0  0  0  0  0  0
    3.2298   60.5572   68.4183 H   0  0  0  0  0  0  0  0  0  0  0  0
    4.9693   60.9511   68.7446 H   0  0  0  0  0  0  0  0  0  0  0  0
    3.2789   55.0480   75.6261 H   0  0  0  0  0  0  0  0  0  0  0  0
    2.5252   52.8301   74.7821 H   0  0  0  0  0  0  0  0  0  0  0  0
    0.2615   52.5812   73.7683 H   0  0  0  0  0  0  0  0  0  0  0  0
   -1.2557   54.5528   73.6088 H   0  0  0  0  0  0  0  0  0  0  0  0
   -0.5057   56.7772   74.4391 H   0  0  0  0  0  0  0  0  0  0  0  0
    0.5310   59.5872   75.1006 H   0  0  0  0  0  0  0  0  0  0  0  0
   -1.0260   59.1277   77.4860 H   0  0  0  0  0  0  0  0  0  0  0  0
   -0.2489   61.6099   78.2041 H   0  0  0  0  0  0  0  0  0  0  0  0
   -2.6092   63.1128   75.1023 H   0  0  0  0  0  0  0  0  0  0  0  0
   -0.3958   61.6811   73.7662 H   0  0  0  0  0  0  0  0  0  0  0  0
   -1.3141   63.1371   73.2527 H   0  0  0  0  0  0  0  0  0  0  0  0
    0.4820   63.1618   73.2527 H   0  0  0  0  0  0  0  0  0  0  0  0
    0.2495   65.0665   76.2675 H   0  0  0  0  0  0  0  0  0  0  0  0
    1.0924   64.7564   74.7119 H   0  0  0  0  0  0  0  0  0  0  0  0
   -0.5892   65.3879   74.7119 H   0  0  0  0  0  0  0  0  0  0  0  0
  3  2  1  0
  4  3  1  0
  5  4  1  0
  6  5  1  0
  7  6  2  0
  8  6  1  0
  8  2  1  0
  9  8  2  0
 10  5  1  0
 11 10  2  0
 12  1  1  0
 12 10  1  0
 14 13  1  0
 14  2  1  0
 15  1  1  0
 16 15  2  0
 17 16  1  0
 18 17  2  0
 19 18  1  0
 20 19  2  0
 20 15  1  0
 21  1  1  0
 22 21  2  0
 23 21  1  0
 24 23  1  0
 25 24  1  0
 26 25  2  0
 27 25  1  0
 28 27  1  0
 28 24  1  0
 29 28  1  0
 30 29  1  0
 31 30  1  0
 31 27  1  0
 32 30  1  0
 33 30  1  0
 34 31  1  0
 35 34  2  0
 36 34  1  0
  1 37  1  1
  3 38  1  0
  3 39  1  0
  4 40  1  0
  4 41  1  0
 12 42  1  0
 13 43  1  0
 13 44  1  0
 13 45  1  0
 14 46  1  0
 14 47  1  0
 16 48  1  0
 17 49  1  0
 18 50  1  0
 19 51  1  0
 20 52  1  0
 23 53  1  0
 24 54  1  1
 28 55  1  1
 31 56  1  6
 32 57  1  0
 32 58  1  0
 32 59  1  0
 33 60  1  0
 33 61  1  0
 33 62  1  0
M  CHG  1  36  -1
M  END
>  <score>  (3) 
-8.034

$$$$
=
     RDKit          3D

 62 65  0  0  0  0  0  0  0  0999 V2000
   -0.4910   57.1870   74.2070 C   0  0  2  0  0  0  0  0  0  0  0  0
   -4.9240   61.1120   76.7090 N   0  0  0  0  0  0  0  0  0  0  0  0
   -4.3360   59.9260   77.2990 C   0  0  0  0  0  0  0  0  0  0  0  0
   -3.6270   59.1090   76.2270 C   0  0  0  0  0  0  0  0  0  0  0  0
   -2.6130   59.8980   75.5300 N   0  0  0  0  0  0  0  0  0  0  0  0
   -2.8110   61.2720   75.3850 C   0  0  0  0  0  0  0  0  0  0  0  0
   -1.9370   62.0990   75.1540 O   0  0  0  0  0  0  0  0  0  0  0  0
   -4.2370   61.7900   75.7020 C   0  0  0  0  0  0  0  0  0  0  0  0
   -4.7010   62.7390   75.0840 O   0  0  0  0  0  0  0  0  0  0  0  0
   -1.6980   59.2840   74.6900 C   0  0  0  0  0  0  0  0  0  0  0  0
   -1.2140   59.8070   73.6900 O   0  0  0  0  0  0  0  0  0  0  0  0
   -1.4180   57.9790   75.0170 N   0  0  0  0  0  0  0  0  0  0  0  0
   -7.3490   60.7700   76.4610 C   0  0  0  0  0  0  0  0  0  0  0  0
   -6.2410   61.5590   77.1380 C   0  0  0  0  0  0  0  0  0  0  0  0
   -0.6950   55.7060   74.4690 C   0  0  0  0  0  0  0  0  0  0  0  0
    0.2040   54.7420   73.9820 C   0  0  0  0  0  0  0  0  0  0  0  0
   -0.0070   53.3850   74.2310 C   0  0  0  0  0  0  0  0  0  0  0  0
   -1.1060   52.9750   74.9820 C   0  0  0  0  0  0  0  0  0  0  0  0
   -1.9930   53.9210   75.4890 C   0  0  0  0  0  0  0  0  0  0  0  0
   -1.7880   55.2790   75.2400 C   0  0  0  0  0  0  0  0  0  0  0  0
    0.9400   57.6700   74.5500 C   0  0  0  0  0  0  0  0  0  0  0  0
    1.3790   57.6090   75.7020 O   0  0  0  0  0  0  0  0  0  0  0  0
    1.6630   58.1720   73.4970 N   0  0  0  0  0  0  0  0  0  0  0  0
    3.0230   58.7610   73.6590 C   0  0  2  0  0  0  0  0  0  0  0  0
    3.0740   60.2910   73.9330 C   0  0  0  0  0  0  0  0  0  0  0  0
    2.4950   61.0700   74.6560 O   0  0  0  0  0  0  0  0  0  0  0  0
    3.9630   60.4720   72.9200 N   0  0  0  0  0  0  0  0  0  0  0  0
    3.7630   59.1400   72.3470 C   0  0  2  0  0  0  0  0  0  0  0  0
    2.6670   59.3880   70.8790 S   0  0  0  0  0  0  0  0  0  0  0  0
    2.8610   61.2470   70.9020 C   0  0  0  0  0  0  0  0  0  0  0  0
    3.9410   61.5880   71.9610 C   0  0  2  0  0  0  0  0  0  0  0  0
    1.4950   61.8280   71.3140 C   0  0  0  0  0  0  0  0  0  0  0  0
    3.1610   61.7050   69.4670 C   0  0  0  0  0  0  0  0  0  0  0  0
    5.3260   61.8520   71.3020 C   0  0  0  0  0  0  0  0  0  0  0  0
    6.0470   60.8310   71.0950 O   0  0  0  0  0  0  0  0  0  0  0  0
    5.5630   63.0650   71.0340 O   0  0  0  0  0  1  0  0  0  0  0  0
   -0.6686   57.3266   73.1304 H   0  0  0  0  0  0  0  0  0  0  0  0
   -3.6100   60.2240   78.0698 H   0  0  0  0  0  0  0  0  0  0  0  0
   -5.1310   59.3155   77.7521 H   0  0  0  0  0  0  0  0  0  0  0  0
   -3.1416   58.2432   76.7011 H   0  0  0  0  0  0  0  0  0  0  0  0
   -4.3767   58.7852   75.4900 H   0  0  0  0  0  0  0  0  0  0  0  0
   -1.8654   57.5534   75.8413 H   0  0  0  0  0  0  0  0  0  0  0  0
   -7.9928   60.3115   77.2261 H   0  0  0  0  0  0  0  0  0  0  0  0
   -7.9492   61.4452   75.8334 H   0  0  0  0  0  0  0  0  0  0  0  0
   -6.9072   59.9820   75.8334 H   0  0  0  0  0  0  0  0  0  0  0  0
   -6.3560   62.6236   76.8860 H   0  0  0  0  0  0  0  0  0  0  0  0
   -6.3206   61.4007   78.2236 H   0  0  0  0  0  0  0  0  0  0  0  0
    1.0815   55.0596   73.3996 H   0  0  0  0  0  0  0  0  0  0  0  0
    0.6959   52.6380   73.8335 H   0  0  0  0  0  0  0  0  0  0  0  0
   -1.2731   51.9049   75.1744 H   0  0  0  0  0  0  0  0  0  0  0  0
   -2.8575   53.5973   76.0873 H   0  0  0  0  0  0  0  0  0  0  0  0
   -2.4885   56.0208   75.6512 H   0  0  0  0  0  0  0  0  0  0  0  0
    1.2484   58.1405   72.5547 H   0  0  0  0  0  0  0  0  0  0  0  0
    3.3899   58.0029   74.3665 H   0  0  0  0  0  0  0  0  0  0  0  0
    4.5486   58.4660   71.9746 H   0  0  0  0  0  0  0  0  0  0  0  0
    3.7000   62.5235   72.4871 H   0  0  0  0  0  0  0  0  0  0  0  0
    1.4251   61.8577   72.4114 H   0  0  0  0  0  0  0  0  0  0  0  0
    1.3938   62.8471   70.9124 H   0  0  0  0  0  0  0  0  0  0  0  0
    0.6907   61.1941   70.9124 H   0  0  0  0  0  0  0  0  0  0  0  0
    3.7635   62.6249   69.4941 H   0  0  0  0  0  0  0  0  0  0  0  0
    3.7185   60.9169   68.9396 H   0  0  0  0  0  0  0  0  0  0  0  0
    2.2158   61.9012   68.9396 H   0  0  0  0  0  0  0  0  0  0  0  0
  3  2  1  0
  4  3  1  0
  5  4  1  0
  6  5  1  0
  7  6  2  0
  8  6  1  0
  8  2  1  0
  9  8  2  0
 10  5  1  0
 11 10  2  0
 12  1  1  0
 12 10  1  0
 14 13  1  0
 14  2  1  0
 15  1  1  0
 16 15  2  0
 17 16  1  0
 18 17  2  0
 19 18  1  0
 20 19  2  0
 20 15  1  0
 21  1  1  0
 22 21  2  0
 23 21  1  0
 24 23  1  0
 25 24  1  0
 26 25  2  0
 27 25  1  0
 28 27  1  0
 28 24  1  0
 29 28  1  0
 30 29  1  0
 31 30  1  0
 31 27  1  0
 32 30  1  0
 33 30  1  0
 34 31  1  0
 35 34  2  0
 36 34  1  0
  1 37  1  6
  3 38  1  0
  3 39  1  0
  4 40  1  0
  4 41  1  0
 12 42  1  0
 13 43  1  0
 13 44  1  0
 13 45  1  0
 14 46  1  0
 14 47  1  0
 16 48  1  0
 17 49  1  0
 18 50  1  0
 19 51  1  0
 20 52  1  0
 23 53  1  0
 24 54  1  1
 28 55  1  6
 31 56  1  1
 32 57  1  0
 32 58  1  0
 32 59  1  0
 33 60  1  0
 33 61  1  0
 33 62  1  0
M  CHG  1  36  -1
M  END
>  <score>  (4) 
-8.026

$$$$
=
     RDKit          3D

 62 65  0  0  0  0  0  0  0  0999 V2000
    0.7140   62.5500   74.2560 C   0  0  2  0  0  0  0  0  0  0  0  0
   -5.3060   60.4970   75.1790 N   0  0  0  0  0  0  0  0  0  0  0  0
   -4.1380   59.7230   74.8080 C   0  0  0  0  0  0  0  0  0  0  0  0
   -3.0270   60.6520   74.3370 C   0  0  0  0  0  0  0  0  0  0  0  0
   -2.6880   61.6470   75.3530 N   0  0  0  0  0  0  0  0  0  0  0  0
   -3.6880   62.0900   76.2210 C   0  0  0  0  0  0  0  0  0  0  0  0
   -3.5040   62.6270   77.3080 O   0  0  0  0  0  0  0  0  0  0  0  0
   -5.1400   61.7190   75.8300 C   0  0  0  0  0  0  0  0  0  0  0  0
   -6.0630   62.4800   76.0900 O   0  0  0  0  0  0  0  0  0  0  0  0
   -1.5520   62.4290   75.2220 C   0  0  0  0  0  0  0  0  0  0  0  0
   -1.4500   63.5800   75.6360 O   0  0  0  0  0  0  0  0  0  0  0  0
   -0.5400   61.8380   74.5040 N   0  0  0  0  0  0  0  0  0  0  0  0
   -7.0210   60.4120   73.4140 C   0  0  0  0  0  0  0  0  0  0  0  0
   -6.6350   60.0170   74.8300 C   0  0  0  0  0  0  0  0  0  0  0  0
    0.7120   63.1510   72.8610 C   0  0  0  0  0  0  0  0  0  0  0  0
    1.0360   62.3850   71.7290 C   0  0  0  0  0  0  0  0  0  0  0  0
    1.0320   62.9600   70.4580 C   0  0  0  0  0  0  0  0  0  0  0  0
    0.6910   64.3020   70.3000 C   0  0  0  0  0  0  0  0  0  0  0  0
    0.3460   65.0670   71.4110 C   0  0  0  0  0  0  0  0  0  0  0  0
    0.3510   64.4960   72.6840 C   0  0  0  0  0  0  0  0  0  0  0  0
    1.8650   61.5360   74.4740 C   0  0  0  0  0  0  0  0  0  0  0  0
    2.9890   61.7300   74.0000 O   0  0  0  0  0  0  0  0  0  0  0  0
    1.5420   60.4220   75.2070 N   0  0  0  0  0  0  0  0  0  0  0  0
    2.4980   59.3040   75.4400 C   0  0  2  0  0  0  0  0  0  0  0  0
    2.7470   58.3570   74.2310 C   0  0  0  0  0  0  0  0  0  0  0  0
    2.9680   58.4880   73.0480 O   0  0  0  0  0  0  0  0  0  0  0  0
    2.4850   57.2640   74.9960 N   0  0  0  0  0  0  0  0  0  0  0  0
    1.9080   58.0280   76.1030 C   0  0  2  0  0  0  0  0  0  0  0  0
    0.0770   57.8420   75.9380 S   0  0  0  0  0  0  0  0  0  0  0  0
    0.2130   56.4770   74.6680 C   0  0  0  0  0  0  0  0  0  0  0  0
    1.7110   56.0900   74.5620 C   0  0  2  0  0  0  0  0  0  0  0  0
   -0.2920   57.0620   73.3350 C   0  0  0  0  0  0  0  0  0  0  0  0
   -0.7430   55.3500   75.0870 C   0  0  0  0  0  0  0  0  0  0  0  0
    2.0310   54.8090   75.3870 C   0  0  0  0  0  0  0  0  0  0  0  0
    1.9420   54.9220   76.6450 O   0  0  0  0  0  0  0  0  0  0  0  0
    2.3300   53.7940   74.6940 O   0  0  0  0  0  1  0  0  0  0  0  0
    0.8451   63.3962   74.9465 H   0  0  0  0  0  0  0  0  0  0  0  0
   -3.7888   59.1497   75.6794 H   0  0  0  0  0  0  0  0  0  0  0  0
   -4.4044   59.0351   73.9920 H   0  0  0  0  0  0  0  0  0  0  0  0
   -2.1324   60.0527   74.1123 H   0  0  0  0  0  0  0  0  0  0  0  0
   -3.3806   61.1832   73.4410 H   0  0  0  0  0  0  0  0  0  0  0  0
   -0.6656   60.8840   74.1367 H   0  0  0  0  0  0  0  0  0  0  0  0
   -7.7894   61.1983   73.4493 H   0  0  0  0  0  0  0  0  0  0  0  0
   -6.1341   60.7895   72.8840 H   0  0  0  0  0  0  0  0  0  0  0  0
   -7.4188   59.5341   72.8840 H   0  0  0  0  0  0  0  0  0  0  0  0
   -7.3650   60.4469   75.5316 H   0  0  0  0  0  0  0  0  0  0  0  0
   -6.6299   58.9187   74.8905 H   0  0  0  0  0  0  0  0  0  0  0  0
    1.2952   61.3224   71.8458 H   0  0  0  0  0  0  0  0  0  0  0  0
    1.2982   62.3536   69.5797 H   0  0  0  0  0  0  0  0  0  0  0  0
    0.6944   64.7565   69.2983 H   0  0  0  0  0  0  0  0  0  0  0  0
    0.0689   66.1240   71.2848 H   0  0  0  0  0  0  0  0  0  0  0  0
    0.0698   65.1047   73.5560 H   0  0  0  0  0  0  0  0  0  0  0  0
    0.5979   60.3561   75.6135 H   0  0  0  0  0  0  0  0  0  0  0  0
    3.2822   59.9221   75.9015 H   0  0  0  0  0  0  0  0  0  0  0  0
    2.0909   57.8610   77.1748 H   0  0  0  0  0  0  0  0  0  0  0  0
    1.9824   55.8301   73.5282 H   0  0  0  0  0  0  0  0  0  0  0  0
   -0.9985   57.8804   73.5380 H   0  0  0  0  0  0  0  0  0  0  0  0
    0.5608   57.4485   72.7577 H   0  0  0  0  0  0  0  0  0  0  0  0
   -0.7989   56.2747   72.7577 H   0  0  0  0  0  0  0  0  0  0  0  0
   -0.7882   55.2967   76.1848 H   0  0  0  0  0  0  0  0  0  0  0  0
   -1.7476   55.5541   74.6881 H   0  0  0  0  0  0  0  0  0  0  0  0
   -0.3778   54.3921   74.6881 H   0  0  0  0  0  0  0  0  0  0  0  0
  3  2  1  0
  4  3  1  0
  5  4  1  0
  6  5  1  0
  7  6  2  0
  8  6  1  0
  8  2  1  0
  9  8  2  0
 10  5  1  0
 11 10  2  0
 12  1  1  0
 12 10  1  0
 14 13  1  0
 14  2  1  0
 15  1  1  0
 16 15  2  0
 17 16  1  0
 18 17  2  0
 19 18  1  0
 20 19  2  0
 20 15  1  0
 21  1  1  0
 22 21  2  0
 23 21  1  0
 24 23  1  0
 25 24  1  0
 26 25  2  0
 27 25  1  0
 28 27  1  0
 28 24  1  0
 29 28  1  0
 30 29  1  0
 31 30  1  0
 31 27  1  0
 32 30  1  0
 33 30  1  0
 34 31  1  0
 35 34  2  0
 36 34  1  0
  1 37  1  1
  3 38  1  0
  3 39  1  0
  4 40  1  0
  4 41  1  0
 12 42  1  0
 13 43  1  0
 13 44  1  0
 13 45  1  0
 14 46  1  0
 14 47  1  0
 16 48  1  0
 17 49  1  0
 18 50  1  0
 19 51  1  0
 20 52  1  0
 23 53  1  0
 24 54  1  1
 28 55  1  1
 31 56  1  6
 32 57  1  0
 32 58  1  0
 32 59  1  0
 33 60  1  0
 33 61  1  0
 33 62  1  0
M  CHG  1  36  -1
M  END
>  <score>  (5) 
-7.784

$$$$
=
     RDKit          3D

 62 65  0  0  0  0  0  0  0  0999 V2000
    1.1710   60.9890   72.5340 C   0  0  2  0  0  0  0  0  0  0  0  0
    0.5790   54.8210   74.2400 N   0  0  0  0  0  0  0  0  0  0  0  0
    1.7920   55.5700   73.9790 C   0  0  0  0  0  0  0  0  0  0  0  0
    1.4570   56.8650   73.2500 C   0  0  0  0  0  0  0  0  0  0  0  0
    0.5000   57.6750   74.0020 N   0  0  0  0  0  0  0  0  0  0  0  0
   -0.4390   57.0300   74.8100 C   0  0  0  0  0  0  0  0  0  0  0  0
   -1.0530   57.5410   75.7400 O   0  0  0  0  0  0  0  0  0  0  0  0
   -0.5840   55.5020   74.5960 C   0  0  0  0  0  0  0  0  0  0  0  0
   -1.6720   54.9600   74.7380 O   0  0  0  0  0  0  0  0  0  0  0  0
    0.2450   58.9860   73.6360 C   0  0  0  0  0  0  0  0  0  0  0  0
   -0.8350   59.5510   73.7820 O   0  0  0  0  0  0  0  0  0  0  0  0
    1.2960   59.6100   73.0060 N   0  0  0  0  0  0  0  0  0  0  0  0
    0.9530   52.6680   75.3740 C   0  0  0  0  0  0  0  0  0  0  0  0
    0.5720   53.3730   74.0840 C   0  0  0  0  0  0  0  0  0  0  0  0
    2.0560   61.2130   71.3200 C   0  0  0  0  0  0  0  0  0  0  0  0
    2.0050   62.4070   70.5830 C   0  0  0  0  0  0  0  0  0  0  0  0
    2.8240   62.5880   69.4670 C   0  0  0  0  0  0  0  0  0  0  0  0
    3.7140   61.5870   69.0840 C   0  0  0  0  0  0  0  0  0  0  0  0
    3.7900   60.4060   69.8190 C   0  0  0  0  0  0  0  0  0  0  0  0
    2.9700   60.2210   70.9340 C   0  0  0  0  0  0  0  0  0  0  0  0
    1.5340   61.9130   73.7230 C   0  0  0  0  0  0  0  0  0  0  0  0
    2.7100   62.1430   74.0220 O   0  0  0  0  0  0  0  0  0  0  0  0
    0.4690   62.4350   74.4140 N   0  0  0  0  0  0  0  0  0  0  0  0
    0.6310   63.2710   75.6360 C   0  0  2  0  0  0  0  0  0  0  0  0
    0.9490   62.5020   76.9500 C   0  0  0  0  0  0  0  0  0  0  0  0
    1.7010   61.6150   77.2840 O   0  0  0  0  0  0  0  0  0  0  0  0
   -0.0700   63.1290   77.5980 N   0  0  0  0  0  0  0  0  0  0  0  0
   -0.6790   63.6580   76.3770 C   0  0  2  0  0  0  0  0  0  0  0  0
   -2.1250   62.5610   76.0250 S   0  0  0  0  0  0  0  0  0  0  0  0
   -2.0500   61.7290   77.6970 C   0  0  0  0  0  0  0  0  0  0  0  0
   -0.9960   62.4870   78.5450 C   0  0  2  0  0  0  0  0  0  0  0  0
   -1.6040   60.2770   77.4470 C   0  0  0  0  0  0  0  0  0  0  0  0
   -3.4750   61.6990   78.2690 C   0  0  0  0  0  0  0  0  0  0  0  0
   -1.6650   63.4970   79.5220 C   0  0  0  0  0  0  0  0  0  0  0  0
   -2.1910   64.5190   78.9910 O   0  0  0  0  0  0  0  0  0  0  0  0
   -1.6160   63.1650   80.7420 O   0  0  0  0  0  1  0  0  0  0  0  0
    0.1463   61.2146   72.2036 H   0  0  0  0  0  0  0  0  0  0  0  0
    2.2868   55.8061   74.9326 H   0  0  0  0  0  0  0  0  0  0  0  0
    2.4625   54.9648   73.3511 H   0  0  0  0  0  0  0  0  0  0  0  0
    2.3814   57.4443   73.1087 H   0  0  0  0  0  0  0  0  0  0  0  0
    1.0028   56.6068   72.2820 H   0  0  0  0  0  0  0  0  0  0  0  0
    2.1804   59.1012   72.8650 H   0  0  0  0  0  0  0  0  0  0  0  0
    0.6262   53.2728   76.2327 H   0  0  0  0  0  0  0  0  0  0  0  0
    0.4643   51.6833   75.4118 H   0  0  0  0  0  0  0  0  0  0  0  0
    2.0446   52.5373   75.4118 H   0  0  0  0  0  0  0  0  0  0  0  0
    1.2917   53.0953   73.2998 H   0  0  0  0  0  0  0  0  0  0  0  0
   -0.4472   53.0621   73.8111 H   0  0  0  0  0  0  0  0  0  0  0  0
    1.3138   63.2067   70.8876 H   0  0  0  0  0  0  0  0  0  0  0  0
    2.7665   63.5223   68.8893 H   0  0  0  0  0  0  0  0  0  0  0  0
    4.3560   61.7290   68.2022 H   0  0  0  0  0  0  0  0  0  0  0  0
    4.4971   59.6180   69.5205 H   0  0  0  0  0  0  0  0  0  0  0  0
    3.0413   59.2895   71.5147 H   0  0  0  0  0  0  0  0  0  0  0  0
   -0.4831   62.2402   74.0728 H   0  0  0  0  0  0  0  0  0  0  0  0
    1.3112   64.0053   75.1798 H   0  0  0  0  0  0  0  0  0  0  0  0
   -1.0809   64.6722   76.2362 H   0  0  0  0  0  0  0  0  0  0  0  0
   -0.4398   61.7967   79.1962 H   0  0  0  0  0  0  0  0  0  0  0  0
   -1.4483   59.7702   78.4108 H   0  0  0  0  0  0  0  0  0  0  0  0
   -2.3810   59.7479   76.8758 H   0  0  0  0  0  0  0  0  0  0  0  0
   -0.6639   60.2754   76.8758 H   0  0  0  0  0  0  0  0  0  0  0  0
   -3.4290   61.7000   79.3680 H   0  0  0  0  0  0  0  0  0  0  0  0
   -4.0272   62.5857   77.9243 H   0  0  0  0  0  0  0  0  0  0  0  0
   -3.9894   60.7898   77.9243 H   0  0  0  0  0  0  0  0  0  0  0  0
  3  2  1  0
  4  3  1  0
  5  4  1  0
  6  5  1  0
  7  6  2  0
  8  6  1  0
  8  2  1  0
  9  8  2  0
 10  5  1  0
 11 10  2  0
 12  1  1  0
 12 10  1  0
 14 13  1  0
 14  2  1  0
 15  1  1  0
 16 15  2  0
 17 16  1  0
 18 17  2  0
 19 18  1  0
 20 19  2  0
 20 15  1  0
 21  1  1  0
 22 21  2  0
 23 21  1  0
 24 23  1  0
 25 24  1  0
 26 25  2  0
 27 25  1  0
 28 27  1  0
 28 24  1  0
 29 28  1  0
 30 29  1  0
 31 30  1  0
 31 27  1  0
 32 30  1  0
 33 30  1  0
 34 31  1  0
 35 34  2  0
 36 34  1  0
  1 37  1  6
  3 38  1  0
  3 39  1  0
  4 40  1  0
  4 41  1  0
 12 42  1  0
 13 43  1  0
 13 44  1  0
 13 45  1  0
 14 46  1  0
 14 47  1  0
 16 48  1  0
 17 49  1  0
 18 50  1  0
 19 51  1  0
 20 52  1  0
 23 53  1  0
 24 54  1  6
 28 55  1  1
 31 56  1  1
 32 57  1  0
 32 58  1  0
 32 59  1  0
 33 60  1  0
 33 61  1  0
 33 62  1  0
M  CHG  1  36  -1
M  END
>  <score>  (6) 
-7.755

$$$$
=
     RDKit          3D

 62 65  0  0  0  0  0  0  0  0999 V2000
    3.8800   60.2920   72.5030 C   0  0  2  0  0  0  0  0  0  0  0  0
   -0.5330   62.3250   76.7090 N   0  0  0  0  0  0  0  0  0  0  0  0
    0.9070   62.2900   76.8630 C   0  0  0  0  0  0  0  0  0  0  0  0
    1.5220   61.3980   75.7930 C   0  0  0  0  0  0  0  0  0  0  0  0
    1.1560   61.8380   74.4480 N   0  0  0  0  0  0  0  0  0  0  0  0
   -0.0800   62.4570   74.2560 C   0  0  0  0  0  0  0  0  0  0  0  0
   -0.3810   63.1740   73.3080 O   0  0  0  0  0  0  0  0  0  0  0  0
   -1.0860   62.3440   75.4290 C   0  0  0  0  0  0  0  0  0  0  0  0
   -2.2880   62.2760   75.2070 O   0  0  0  0  0  0  0  0  0  0  0  0
    1.7960   61.3140   73.3360 C   0  0  0  0  0  0  0  0  0  0  0  0
    1.2670   61.1580   72.2400 O   0  0  0  0  0  0  0  0  0  0  0  0
    3.0830   60.8940   73.5720 N   0  0  0  0  0  0  0  0  0  0  0  0
   -1.5920   60.8760   78.3960 C   0  0  0  0  0  0  0  0  0  0  0  0
   -1.3900   62.2930   77.8860 C   0  0  0  0  0  0  0  0  0  0  0  0
    3.9390   61.2200   71.3030 C   0  0  0  0  0  0  0  0  0  0  0  0
    3.2240   60.9450   70.1250 C   0  0  0  0  0  0  0  0  0  0  0  0
    3.2970   61.8100   69.0320 C   0  0  0  0  0  0  0  0  0  0  0  0
    4.0720   62.9650   69.1060 C   0  0  0  0  0  0  0  0  0  0  0  0
    4.7690   63.2610   70.2750 C   0  0  0  0  0  0  0  0  0  0  0  0
    4.7010   62.3970   71.3690 C   0  0  0  0  0  0  0  0  0  0  0  0
    3.2410   58.9200   72.1740 C   0  0  0  0  0  0  0  0  0  0  0  0
    3.4390   58.3630   71.0910 O   0  0  0  0  0  0  0  0  0  0  0  0
    2.4420   58.3890   73.1560 N   0  0  0  0  0  0  0  0  0  0  0  0
    1.6780   57.1220   72.9770 C   0  0  2  0  0  0  0  0  0  0  0  0
    0.2730   57.0750   73.6420 C   0  0  0  0  0  0  0  0  0  0  0  0
   -0.6860   57.8090   73.7140 O   0  0  0  0  0  0  0  0  0  0  0  0
    0.5720   55.8990   74.2580 N   0  0  0  0  0  0  0  0  0  0  0  0
    2.0070   55.9810   73.9790 C   0  0  2  0  0  0  0  0  0  0  0  0
    2.7910   56.5340   75.5590 S   0  0  0  0  0  0  0  0  0  0  0  0
    1.2410   56.2530   76.5640 C   0  0  0  0  0  0  0  0  0  0  0  0
    0.2110   55.5500   75.6420 C   0  0  2  0  0  0  0  0  0  0  0  0
    0.7300   57.6440   76.9860 C   0  0  0  0  0  0  0  0  0  0  0  0
    1.6370   55.4850   77.8330 C   0  0  0  0  0  0  0  0  0  0  0  0
    0.1720   54.0150   75.8920 C   0  0  0  0  0  0  0  0  0  0  0  0
    1.1360   53.3480   75.4120 O   0  0  0  0  0  0  0  0  0  0  0  0
   -0.8200   53.6130   76.5660 O   0  0  0  0  0  1  0  0  0  0  0  0
    4.9240   60.1363   72.8124 H   0  0  0  0  0  0  0  0  0  0  0  0
    1.3092   63.3090   76.7635 H   0  0  0  0  0  0  0  0  0  0  0  0
    1.1550   61.8873   77.8561 H   0  0  0  0  0  0  0  0  0  0  0  0
    2.6172   61.4258   75.8917 H   0  0  0  0  0  0  0  0  0  0  0  0
    1.1397   60.3766   75.9361 H   0  0  0  0  0  0  0  0  0  0  0  0
    3.4908   61.0042   74.5114 H   0  0  0  0  0  0  0  0  0  0  0  0
   -1.5916   60.8787   79.4960 H   0  0  0  0  0  0  0  0  0  0  0  0
   -2.5545   60.4885   78.0306 H   0  0  0  0  0  0  0  0  0  0  0  0
   -0.7762   60.2350   78.0306 H   0  0  0  0  0  0  0  0  0  0  0  0
   -2.3693   62.7211   77.6256 H   0  0  0  0  0  0  0  0  0  0  0  0
   -0.9030   62.8772   78.6807 H   0  0  0  0  0  0  0  0  0  0  0  0
    2.6014   60.0402   70.0637 H   0  0  0  0  0  0  0  0  0  0  0  0
    2.7417   61.5792   68.1109 H   0  0  0  0  0  0  0  0  0  0  0  0
    4.1335   63.6429   68.2419 H   0  0  0  0  0  0  0  0  0  0  0  0
    5.3742   64.1775   70.3361 H   0  0  0  0  0  0  0  0  0  0  0  0
    5.2493   62.6405   72.2910 H   0  0  0  0  0  0  0  0  0  0  0  0
    2.3674   58.8873   74.0544 H   0  0  0  0  0  0  0  0  0  0  0  0
    1.8409   57.0441   71.8919 H   0  0  0  0  0  0  0  0  0  0  0  0
    2.6537   55.1576   73.6417 H   0  0  0  0  0  0  0  0  0  0  0  0
   -0.8121   55.8929   75.8559 H   0  0  0  0  0  0  0  0  0  0  0  0
    0.7063   57.7084   78.0839 H   0  0  0  0  0  0  0  0  0  0  0  0
    1.4025   58.4180   76.5877 H   0  0  0  0  0  0  0  0  0  0  0  0
   -0.2836   57.7986   76.5877 H   0  0  0  0  0  0  0  0  0  0  0  0
    1.3387   56.0635   78.7198 H   0  0  0  0  0  0  0  0  0  0  0  0
    1.1297   54.5090   77.8442 H   0  0  0  0  0  0  0  0  0  0  0  0
    2.7263   55.3322   77.8442 H   0  0  0  0  0  0  0  0  0  0  0  0
  3  2  1  0
  4  3  1  0
  5  4  1  0
  6  5  1  0
  7  6  2  0
  8  6  1  0
  8  2  1  0
  9  8  2  0
 10  5  1  0
 11 10  2  0
 12  1  1  0
 12 10  1  0
 14 13  1  0
 14  2  1  0
 15  1  1  0
 16 15  2  0
 17 16  1  0
 18 17  2  0
 19 18  1  0
 20 19  2  0
 20 15  1  0
 21  1  1  0
 22 21  2  0
 23 21  1  0
 24 23  1  0
 25 24  1  0
 26 25  2  0
 27 25  1  0
 28 27  1  0
 28 24  1  0
 29 28  1  0
 30 29  1  0
 31 30  1  0
 31 27  1  0
 32 30  1  0
 33 30  1  0
 34 31  1  0
 35 34  2  0
 36 34  1  0
  1 37  1  1
  3 38  1  0
  3 39  1  0
  4 40  1  0
  4 41  1  0
 12 42  1  0
 13 43  1  0
 13 44  1  0
 13 45  1  0
 14 46  1  0
 14 47  1  0
 16 48  1  0
 17 49  1  0
 18 50  1  0
 19 51  1  0
 20 52  1  0
 23 53  1  0
 24 54  1  6
 28 55  1  6
 31 56  1  1
 32 57  1  0
 32 58  1  0
 32 59  1  0
 33 60  1  0
 33 61  1  0
 33 62  1  0
M  CHG  1  36  -1
M  END
>  <score>  (7) 
-7.744

$$$$
=
     RDKit          3D

 62 65  0  0  0  0  0  0  0  0999 V2000
    2.8880   59.6900   72.8020 C   0  0  2  0  0  0  0  0  0  0  0  0
   -0.8980   62.6810   77.0480 N   0  0  0  0  0  0  0  0  0  0  0  0
   -1.2410   62.1820   75.7310 C   0  0  0  0  0  0  0  0  0  0  0  0
    0.0270   61.8930   74.9380 C   0  0  0  0  0  0  0  0  0  0  0  0
    0.8980   60.9510   75.6380 N   0  0  0  0  0  0  0  0  0  0  0  0
    0.8940   60.9410   77.0340 C   0  0  0  0  0  0  0  0  0  0  0  0
    1.2780   60.0170   77.7430 O   0  0  0  0  0  0  0  0  0  0  0  0
    0.1990   62.1430   77.7210 C   0  0  0  0  0  0  0  0  0  0  0  0
    0.6160   62.5710   78.7890 O   0  0  0  0  0  0  0  0  0  0  0  0
    1.9790   60.3750   74.9910 C   0  0  0  0  0  0  0  0  0  0  0  0
    3.0280   60.0560   75.5400 O   0  0  0  0  0  0  0  0  0  0  0  0
    1.8220   60.2530   73.6300 N   0  0  0  0  0  0  0  0  0  0  0  0
   -2.5090   64.4870   76.5950 C   0  0  0  0  0  0  0  0  0  0  0  0
   -1.6700   63.7660   77.6360 C   0  0  0  0  0  0  0  0  0  0  0  0
    3.0230   60.4750   71.5090 C   0  0  0  0  0  0  0  0  0  0  0  0
    4.0200   60.1740   70.5670 C   0  0  0  0  0  0  0  0  0  0  0  0
    4.1280   60.9130   69.3880 C   0  0  0  0  0  0  0  0  0  0  0  0
    3.2340   61.9490   69.1290 C   0  0  0  0  0  0  0  0  0  0  0  0
    2.2270   62.2440   70.0440 C   0  0  0  0  0  0  0  0  0  0  0  0
    2.1180   61.5090   71.2260 C   0  0  0  0  0  0  0  0  0  0  0  0
    2.5450   58.1970   72.5690 C   0  0  0  0  0  0  0  0  0  0  0  0
    2.3030   57.7640   71.4380 O   0  0  0  0  0  0  0  0  0  0  0  0
    2.5160   57.4140   73.6950 N   0  0  0  0  0  0  0  0  0  0  0  0
    2.1190   55.9780   73.6690 C   0  0  2  0  0  0  0  0  0  0  0  0
    0.5970   55.6890   73.8130 C   0  0  0  0  0  0  0  0  0  0  0  0
   -0.4250   56.1280   73.3360 O   0  0  0  0  0  0  0  0  0  0  0  0
    0.8310   54.8050   74.8200 N   0  0  0  0  0  0  0  0  0  0  0  0
    2.2210   55.2170   75.0200 C   0  0  2  0  0  0  0  0  0  0  0  0
    2.2110   56.2940   76.5220 S   0  0  0  0  0  0  0  0  0  0  0  0
    0.4650   55.8210   76.9930 C   0  0  0  0  0  0  0  0  0  0  0  0
    0.0220   54.6790   76.0430 C   0  0  2  0  0  0  0  0  0  0  0  0
   -0.4050   57.0730   76.7780 C   0  0  0  0  0  0  0  0  0  0  0  0
    0.4580   55.4860   78.4920 C   0  0  0  0  0  0  0  0  0  0  0  0
    0.1570   53.2840   76.7210 C   0  0  0  0  0  0  0  0  0  0  0  0
    1.3280   52.8060   76.7810 O   0  0  0  0  0  0  0  0  0  0  0  0
   -0.9290   52.7970   77.1500 O   0  0  0  0  0  1  0  0  0  0  0  0
    3.8676   59.7601   73.2974 H   0  0  0  0  0  0  0  0  0  0  0  0
   -1.8260   61.2561   75.8331 H   0  0  0  0  0  0  0  0  0  0  0  0
   -1.8343   62.9410   75.2001 H   0  0  0  0  0  0  0  0  0  0  0  0
   -0.2514   61.4650   73.9637 H   0  0  0  0  0  0  0  0  0  0  0  0
    0.5753   62.8381   74.8105 H   0  0  0  0  0  0  0  0  0  0  0  0
    0.9438   60.5616   73.1890 H   0  0  0  0  0  0  0  0  0  0  0  0
   -3.2506   65.1243   77.0990 H   0  0  0  0  0  0  0  0  0  0  0  0
   -1.8566   65.1106   75.9661 H   0  0  0  0  0  0  0  0  0  0  0  0
   -3.0274   63.7482   75.9661 H   0  0  0  0  0  0  0  0  0  0  0  0
   -0.9784   64.4862   78.0976 H   0  0  0  0  0  0  0  0  0  0  0  0
   -2.3498   63.3358   78.3862 H   0  0  0  0  0  0  0  0  0  0  0  0
    4.7216   59.3490   70.7599 H   0  0  0  0  0  0  0  0  0  0  0  0
    4.9203   60.6769   68.6624 H   0  0  0  0  0  0  0  0  0  0  0  0
    3.3235   62.5340   68.2018 H   0  0  0  0  0  0  0  0  0  0  0  0
    1.5163   63.0573   69.8354 H   0  0  0  0  0  0  0  0  0  0  0  0
    1.3158   61.7426   71.9414 H   0  0  0  0  0  0  0  0  0  0  0  0
    2.7798   57.8366   74.5965 H   0  0  0  0  0  0  0  0  0  0  0  0
    2.7073   55.7156   72.7773 H   0  0  0  0  0  0  0  0  0  0  0  0
    3.0810   54.5507   75.1829 H   0  0  0  0  0  0  0  0  0  0  0  0
   -1.0454   54.7643   75.7914 H   0  0  0  0  0  0  0  0  0  0  0  0
   -0.6948   57.4901   77.7537 H   0  0  0  0  0  0  0  0  0  0  0  0
    0.1667   57.8242   76.2133 H   0  0  0  0  0  0  0  0  0  0  0  0
   -1.3084   56.7992   76.2133 H   0  0  0  0  0  0  0  0  0  0  0  0
    0.4775   56.4179   79.0761 H   0  0  0  0  0  0  0  0  0  0  0  0
   -0.4522   54.9188   78.7367 H   0  0  0  0  0  0  0  0  0  0  0  0
    1.3437   54.8813   78.7367 H   0  0  0  0  0  0  0  0  0  0  0  0
  3  2  1  0
  4  3  1  0
  5  4  1  0
  6  5  1  0
  7  6  2  0
  8  6  1  0
  8  2  1  0
  9  8  2  0
 10  5  1  0
 11 10  2  0
 12  1  1  0
 12 10  1  0
 14 13  1  0
 14  2  1  0
 15  1  1  0
 16 15  2  0
 17 16  1  0
 18 17  2  0
 19 18  1  0
 20 19  2  0
 20 15  1  0
 21  1  1  0
 22 21  2  0
 23 21  1  0
 24 23  1  0
 25 24  1  0
 26 25  2  0
 27 25  1  0
 28 27  1  0
 28 24  1  0
 29 28  1  0
 30 29  1  0
 31 30  1  0
 31 27  1  0
 32 30  1  0
 33 30  1  0
 34 31  1  0
 35 34  2  0
 36 34  1  0
  1 37  1  1
  3 38  1  0
  3 39  1  0
  4 40  1  0
  4 41  1  0
 12 42  1  0
 13 43  1  0
 13 44  1  0
 13 45  1  0
 14 46  1  0
 14 47  1  0
 16 48  1  0
 17 49  1  0
 18 50  1  0
 19 51  1  0
 20 52  1  0
 23 53  1  0
 24 54  1  6
 28 55  1  6
 31 56  1  6
 32 57  1  0
 32 58  1  0
 32 59  1  0
 33 60  1  0
 33 61  1  0
 33 62  1  0
M  CHG  1  36  -1
M  END
>  <score>  (8) 
-7.739

$$$$
=
     RDKit          3D

 62 65  0  0  0  0  0  0  0  0999 V2000
    2.3050   58.7450   76.4260 C   0  0  2  0  0  0  0  0  0  0  0  0
   -0.8190   53.2380   75.3220 N   0  0  0  0  0  0  0  0  0  0  0  0
   -1.3270   54.5920   75.2410 C   0  0  0  0  0  0  0  0  0  0  0  0
   -0.3700   55.5490   75.9390 C   0  0  0  0  0  0  0  0  0  0  0  0
    0.9780   55.4680   75.3800 N   0  0  0  0  0  0  0  0  0  0  0  0
    1.4180   54.2490   74.8600 C   0  0  0  0  0  0  0  0  0  0  0  0
    2.3420   54.1030   74.0670 O   0  0  0  0  0  0  0  0  0  0  0  0
    0.5520   53.0110   75.2030 C   0  0  0  0  0  0  0  0  0  0  0  0
    1.0750   51.9150   75.3560 O   0  0  0  0  0  0  0  0  0  0  0  0
    1.9360   56.4140   75.7070 C   0  0  0  0  0  0  0  0  0  0  0  0
    3.1390   56.1880   75.7810 O   0  0  0  0  0  0  0  0  0  0  0  0
    1.4220   57.6480   76.0310 N   0  0  0  0  0  0  0  0  0  0  0  0
   -3.1210   52.6270   75.9480 C   0  0  0  0  0  0  0  0  0  0  0  0
   -1.7340   52.1330   75.5710 C   0  0  0  0  0  0  0  0  0  0  0  0
    2.3440   58.8720   77.9380 C   0  0  0  0  0  0  0  0  0  0  0  0
    3.2580   59.7230   78.5820 C   0  0  0  0  0  0  0  0  0  0  0  0
    3.2800   59.8190   79.9740 C   0  0  0  0  0  0  0  0  0  0  0  0
    2.3800   59.0800   80.7390 C   0  0  0  0  0  0  0  0  0  0  0  0
    1.4540   58.2490   80.1130 C   0  0  0  0  0  0  0  0  0  0  0  0
    1.4320   58.1480   78.7210 C   0  0  0  0  0  0  0  0  0  0  0  0
    1.7840   60.0250   75.7260 C   0  0  0  0  0  0  0  0  0  0  0  0
    0.6750   60.4960   75.9950 O   0  0  0  0  0  0  0  0  0  0  0  0
    2.6270   60.5750   74.7930 N   0  0  0  0  0  0  0  0  0  0  0  0
    2.2530   61.7540   73.9630 C   0  0  2  0  0  0  0  0  0  0  0  0
    1.3340   61.4630   72.7420 C   0  0  0  0  0  0  0  0  0  0  0  0
    0.3290   60.8210   72.5370 O   0  0  0  0  0  0  0  0  0  0  0  0
    2.1840   62.1220   71.9090 N   0  0  0  0  0  0  0  0  0  0  0  0
    3.2800   62.1780   72.8770 C   0  0  2  0  0  0  0  0  0  0  0  0
    4.4640   60.8520   72.3660 S   0  0  0  0  0  0  0  0  0  0  0  0
    3.6280   60.5790   70.7170 C   0  0  0  0  0  0  0  0  0  0  0  0
    2.5520   61.6840   70.5530 C   0  0  2  0  0  0  0  0  0  0  0  0
    2.9710   59.1870   70.7800 C   0  0  0  0  0  0  0  0  0  0  0  0
    4.7210   60.5430   69.6390 C   0  0  0  0  0  0  0  0  0  0  0  0
    3.0590   62.8480   69.6530 C   0  0  0  0  0  0  0  0  0  0  0  0
    2.8400   62.7270   68.4120 O   0  0  0  0  0  0  0  0  0  0  0  0
    3.6220   63.7930   70.2780 O   0  0  0  0  0  1  0  0  0  0  0  0
    3.3442   58.5633   76.1143 H   0  0  0  0  0  0  0  0  0  0  0  0
   -1.4258   54.8816   74.1844 H   0  0  0  0  0  0  0  0  0  0  0  0
   -2.3092   54.6396   75.7339 H   0  0  0  0  0  0  0  0  0  0  0  0
   -0.7440   56.5767   75.8206 H   0  0  0  0  0  0  0  0  0  0  0  0
   -0.3184   55.2685   77.0014 H   0  0  0  0  0  0  0  0  0  0  0  0
    0.4041   57.8012   75.9951 H   0  0  0  0  0  0  0  0  0  0  0  0
   -3.2133   52.6599   77.0436 H   0  0  0  0  0  0  0  0  0  0  0  0
   -3.2754   53.6354   75.5366 H   0  0  0  0  0  0  0  0  0  0  0  0
   -3.8781   51.9433   75.5366 H   0  0  0  0  0  0  0  0  0  0  0  0
   -1.3377   51.5203   76.3941 H   0  0  0  0  0  0  0  0  0  0  0  0
   -1.8192   51.5429   74.6466 H   0  0  0  0  0  0  0  0  0  0  0  0
    3.9626   60.3190   77.9834 H   0  0  0  0  0  0  0  0  0  0  0  0
    4.0086   60.4788   80.4678 H   0  0  0  0  0  0  0  0  0  0  0  0
    2.4008   59.1528   81.8364 H   0  0  0  0  0  0  0  0  0  0  0  0
    0.7387   57.6712   80.7167 H   0  0  0  0  0  0  0  0  0  0  0  0
    0.6931   57.4950   78.2335 H   0  0  0  0  0  0  0  0  0  0  0  0
    3.5580   60.1546   74.6611 H   0  0  0  0  0  0  0  0  0  0  0  0
    1.9604   62.3964   74.8066 H   0  0  0  0  0  0  0  0  0  0  0  0
    3.9282   63.0437   73.0781 H   0  0  0  0  0  0  0  0  0  0  0  0
    1.6620   61.2987   70.0339 H   0  0  0  0  0  0  0  0  0  0  0  0
    2.8327   58.8940   71.8312 H   0  0  0  0  0  0  0  0  0  0  0  0
    1.9934   59.2199   70.2769 H   0  0  0  0  0  0  0  0  0  0  0  0
    3.6178   58.4532   70.2769 H   0  0  0  0  0  0  0  0  0  0  0  0
    5.7096   60.5104   70.1202 H   0  0  0  0  0  0  0  0  0  0  0  0
    4.5886   59.6487   69.0123 H   0  0  0  0  0  0  0  0  0  0  0  0
    4.6477   61.4440   69.0123 H   0  0  0  0  0  0  0  0  0  0  0  0
  3  2  1  0
  4  3  1  0
  5  4  1  0
  6  5  1  0
  7  6  2  0
  8  6  1  0
  8  2  1  0
  9  8  2  0
 10  5  1  0
 11 10  2  0
 12  1  1  0
 12 10  1  0
 14 13  1  0
 14  2  1  0
 15  1  1  0
 16 15  2  0
 17 16  1  0
 18 17  2  0
 19 18  1  0
 20 19  2  0
 20 15  1  0
 21  1  1  0
 22 21  2  0
 23 21  1  0
 24 23  1  0
 25 24  1  0
 26 25  2  0
 27 25  1  0
 28 27  1  0
 28 24  1  0
 29 28  1  0
 30 29  1  0
 31 30  1  0
 31 27  1  0
 32 30  1  0
 33 30  1  0
 34 31  1  0
 35 34  2  0
 36 34  1  0
  1 37  1  6
  3 38  1  0
  3 39  1  0
  4 40  1  0
  4 41  1  0
 12 42  1  0
 13 43  1  0
 13 44  1  0
 13 45  1  0
 14 46  1  0
 14 47  1  0
 16 48  1  0
 17 49  1  0
 18 50  1  0
 19 51  1  0
 20 52  1  0
 23 53  1  0
 24 54  1  1
 28 55  1  1
 31 56  1  6
 32 57  1  0
 32 58  1  0
 32 59  1  0
 33 60  1  0
 33 61  1  0
 33 62  1  0
M  CHG  1  36  -1
M  END
>  <score>  (9) 
-7.668

$$$$
