=
     RDKit          3D

 51 53  0  0  0  0  0  0  0  0999 V2000
   -0.0070   65.1040   70.8920 C   0  0  0  0  0  0  0  0  0  0  0  0
    0.1150   66.3870   70.0460 C   0  0  0  0  0  0  0  0  0  0  0  0
   -0.5920   66.2320   68.6910 C   0  0  0  0  0  0  0  0  0  0  0  0
   -0.4930   67.4960   67.8500 C   0  0  0  0  0  0  0  0  0  0  0  0
    0.9590   67.8750   67.6800 N   0  0  0  0  0  4  0  0  0  0  0  0
    1.6480   68.1000   69.0010 C   0  0  0  0  0  0  0  0  0  0  0  0
    1.5670   66.8360   69.8450 C   0  0  0  0  0  0  0  0  0  0  0  0
    1.1460   69.0580   66.7510 C   0  0  0  0  0  0  0  0  0  0  0  0
    2.4900   69.0760   66.0770 C   0  0  0  0  0  0  0  0  0  0  0  0
    2.6250   68.6510   64.7460 C   0  0  0  0  0  0  0  0  0  0  0  0
    3.8680   68.6930   64.1140 C   0  0  0  0  0  0  0  0  0  0  0  0
    4.9870   69.1570   64.8030 C   0  0  0  0  0  0  0  0  0  0  0  0
    4.8670   69.5750   66.1260 C   0  0  0  0  0  0  0  0  0  0  0  0
    3.6250   69.5340   66.7630 C   0  0  0  0  0  0  0  0  0  0  0  0
    0.0920   63.9210   70.0390 N   0  0  0  0  0  0  0  0  0  0  0  0
    3.2150   61.3650   71.1400 C   0  0  0  0  0  0  0  0  0  0  0  0
    2.0760   61.4640   71.9380 C   0  0  0  0  0  0  0  0  0  0  0  0
    1.0400   62.3170   71.5570 C   0  0  0  0  0  0  0  0  0  0  0  0
    1.1510   63.0530   70.3780 C   0  0  0  0  0  0  0  0  0  0  0  0
    2.2460   62.9650   69.5990 N   0  0  0  0  0  0  0  0  0  0  0  0
    3.2500   62.1310   69.9870 C   0  0  0  0  0  0  0  0  0  0  0  0
    4.3030   60.4480   71.5390 C   0  0  0  0  0  0  0  0  0  0  0  0
    5.3440   60.8730   72.0270 O   0  0  0  0  0  0  0  0  0  0  0  0
    3.8280   58.4350   70.2720 N   0  0  0  0  0  0  0  0  0  0  0  0
    4.1780   58.9630   71.3980 C   0  0  0  0  0  0  0  0  0  0  0  0
    3.7910   57.0450   70.4240 O   0  0  0  0  0  0  0  0  0  0  0  0
    0.8020   65.0826   71.6370 H   0  0  0  0  0  0  0  0  0  0  0  0
   -0.9847   65.1001   71.3962 H   0  0  0  0  0  0  0  0  0  0  0  0
   -0.3890   67.1784   70.6201 H   0  0  0  0  0  0  0  0  0  0  0  0
   -0.1265   65.4014   68.1402 H   0  0  0  0  0  0  0  0  0  0  0  0
   -1.6568   66.0338   68.8834 H   0  0  0  0  0  0  0  0  0  0  0  0
   -0.9429   67.3156   66.8626 H   0  0  0  0  0  0  0  0  0  0  0  0
   -1.0291   68.3142   68.3532 H   0  0  0  0  0  0  0  0  0  0  0  0
    1.4127   67.0663   67.2316 H   0  0  0  0  0  0  0  0  0  0  0  0
    2.7035   68.3542   68.8240 H   0  0  0  0  0  0  0  0  0  0  0  0
    1.1529   68.9254   69.5336 H   0  0  0  0  0  0  0  0  0  0  0  0
    2.1229   66.0325   69.3397 H   0  0  0  0  0  0  0  0  0  0  0  0
    2.0015   67.0517   70.8323 H   0  0  0  0  0  0  0  0  0  0  0  0
    0.3667   69.0201   65.9756 H   0  0  0  0  0  0  0  0  0  0  0  0
    1.0757   69.9688   67.3638 H   0  0  0  0  0  0  0  0  0  0  0  0
    1.7453   68.2826   64.1979 H   0  0  0  0  0  0  0  0  0  0  0  0
    3.9650   68.3594   63.0703 H   0  0  0  0  0  0  0  0  0  0  0  0
    5.9654   69.1931   64.3016 H   0  0  0  0  0  0  0  0  0  0  0  0
    5.7516   69.9379   66.6699 H   0  0  0  0  0  0  0  0  0  0  0  0
    3.5359   69.8628   67.8089 H   0  0  0  0  0  0  0  0  0  0  0  0
   -0.5549   63.7373   69.2588 H   0  0  0  0  0  0  0  0  0  0  0  0
    1.9948   60.8732   72.8623 H   0  0  0  0  0  0  0  0  0  0  0  0
    0.1404   62.4085   72.1833 H   0  0  0  0  0  0  0  0  0  0  0  0
    4.1417   62.0617   69.3466 H   0  0  0  0  0  0  0  0  0  0  0  0
    4.3863   58.3147   72.2619 H   0  0  0  0  0  0  0  0  0  0  0  0
    3.5405   56.4698   69.6582 H   0  0  0  0  0  0  0  0  0  0  0  0
  2  1  1  0
  3  2  1  0
  4  3  1  0
  5  4  1  0
  6  5  1  0
  7  6  1  0
  7  2  1  0
  8  5  1  0
  9  8  1  0
 10  9  2  0
 11 10  1  0
 12 11  2  0
 13 12  1  0
 14 13  2  0
 14  9  1  0
 15  1  1  0
 17 16  2  0
 18 17  1  0
 19 15  1  0
 19 18  2  0
 20 19  1  0
 21 20  2  0
 21 16  1  0
 22 16  1  0
 23 22  2  0
 25 24  2  0
 25 22  1  0
 26 24  1  0
  1 27  1  0
  1 28  1  0
  2 29  1  0
  3 30  1  0
  3 31  1  0
  4 32  1  0
  4 33  1  0
  5 34  1  0
  6 35  1  0
  6 36  1  0
  7 37  1  0
  7 38  1  0
  8 39  1  0
  8 40  1  0
 10 41  1  0
 11 42  1  0
 12 43  1  0
 13 44  1  0
 14 45  1  0
 15 46  1  0
 17 47  1  0
 18 48  1  0
 21 49  1  0
 25 50  1  0
 26 51  1  0
M  CHG  1   5   1
M  END
>  <score>  (1) 
-9.499

$$$$
=
     RDKit          3D

 51 53  0  0  0  0  0  0  0  0999 V2000
    0.8350   65.7730   70.4620 C   0  0  0  0  0  0  0  0  0  0  0  0
    0.2760   66.8080   69.4670 C   0  0  0  0  0  0  0  0  0  0  0  0
   -0.7840   66.1820   68.5470 C   0  0  0  0  0  0  0  0  0  0  0  0
   -1.3570   67.1950   67.5680 C   0  0  0  0  0  0  0  0  0  0  0  0
   -0.2330   67.8200   66.7750 N   0  0  0  0  0  4  0  0  0  0  0  0
    0.7780   68.5000   67.6610 C   0  0  0  0  0  0  0  0  0  0  0  0
    1.3690   67.4920   68.6360 C   0  0  0  0  0  0  0  0  0  0  0  0
   -0.7350   68.7540   65.6920 C   0  0  0  0  0  0  0  0  0  0  0  0
    0.1490   68.7800   64.4760 C   0  0  0  0  0  0  0  0  0  0  0  0
    1.5050   68.4270   64.5740 C   0  0  0  0  0  0  0  0  0  0  0  0
    2.3170   68.4270   63.4390 C   0  0  0  0  0  0  0  0  0  0  0  0
    1.7870   68.7790   62.2000 C   0  0  0  0  0  0  0  0  0  0  0  0
    0.4460   69.1360   62.0920 C   0  0  0  0  0  0  0  0  0  0  0  0
   -0.3710   69.1380   63.2230 C   0  0  0  0  0  0  0  0  0  0  0  0
    0.3690   64.4320   70.1180 N   0  0  0  0  0  0  0  0  0  0  0  0
    3.2560   61.4540   70.6620 C   0  0  0  0  0  0  0  0  0  0  0  0
    2.1690   61.5430   71.5310 C   0  0  0  0  0  0  0  0  0  0  0  0
    1.2110   62.5380   71.3360 C   0  0  0  0  0  0  0  0  0  0  0  0
    1.3460   63.4250   70.2690 C   0  0  0  0  0  0  0  0  0  0  0  0
    2.3910   63.3480   69.4230 N   0  0  0  0  0  0  0  0  0  0  0  0
    3.3190   62.3750   69.6290 C   0  0  0  0  0  0  0  0  0  0  0  0
    4.2600   60.3890   70.8620 C   0  0  0  0  0  0  0  0  0  0  0  0
    5.4600   60.6260   70.7880 O   0  0  0  0  0  0  0  0  0  0  0  0
    3.7630   58.0910   70.2660 N   0  0  0  0  0  0  0  0  0  0  0  0
    3.8670   58.9830   71.1950 C   0  0  0  0  0  0  0  0  0  0  0  0
    3.3860   56.8780   70.8540 O   0  0  0  0  0  0  0  0  0  0  0  0
    1.9343   65.7945   70.4279 H   0  0  0  0  0  0  0  0  0  0  0  0
    0.4830   66.0243   71.4734 H   0  0  0  0  0  0  0  0  0  0  0  0
   -0.2000   67.5896   70.0774 H   0  0  0  0  0  0  0  0  0  0  0  0
   -0.3216   65.3612   67.9791 H   0  0  0  0  0  0  0  0  0  0  0  0
   -1.6073   65.8146   69.1772 H   0  0  0  0  0  0  0  0  0  0  0  0
   -2.0526   66.6893   66.8822 H   0  0  0  0  0  0  0  0  0  0  0  0
   -1.8941   67.9783   68.1230 H   0  0  0  0  0  0  0  0  0  0  0  0
    0.2476   67.0420   66.3010 H   0  0  0  0  0  0  0  0  0  0  0  0
    1.5819   68.9225   67.0404 H   0  0  0  0  0  0  0  0  0  0  0  0
    0.2838   69.3046   68.2252 H   0  0  0  0  0  0  0  0  0  0  0  0
    1.9192   66.7264   68.0693 H   0  0  0  0  0  0  0  0  0  0  0  0
    2.0406   68.0281   69.3226 H   0  0  0  0  0  0  0  0  0  0  0  0
   -1.7400   68.4273   65.3867 H   0  0  0  0  0  0  0  0  0  0  0  0
   -0.7412   69.7700   66.1135 H   0  0  0  0  0  0  0  0  0  0  0  0
    1.9290   68.1492   65.5502 H   0  0  0  0  0  0  0  0  0  0  0  0
    3.3778   68.1484   63.5231 H   0  0  0  0  0  0  0  0  0  0  0  0
    2.4285   68.7749   61.3064 H   0  0  0  0  0  0  0  0  0  0  0  0
    0.0297   69.4170   61.1134 H   0  0  0  0  0  0  0  0  0  0  0  0
   -1.4297   69.4221   63.1317 H   0  0  0  0  0  0  0  0  0  0  0  0
   -0.5892   64.2383   69.7935 H   0  0  0  0  0  0  0  0  0  0  0  0
    2.0676   60.8330   72.3650 H   0  0  0  0  0  0  0  0  0  0  0  0
    0.3539   62.6223   72.0203 H   0  0  0  0  0  0  0  0  0  0  0  0
    4.1698   62.3160   68.9343 H   0  0  0  0  0  0  0  0  0  0  0  0
    3.6649   58.7069   72.2404 H   0  0  0  0  0  0  0  0  0  0  0  0
    3.2573   56.0739   70.2910 H   0  0  0  0  0  0  0  0  0  0  0  0
  2  1  1  0
  3  2  1  0
  4  3  1  0
  5  4  1  0
  6  5  1  0
  7  6  1  0
  7  2  1  0
  8  5  1  0
  9  8  1  0
 10  9  2  0
 11 10  1  0
 12 11  2  0
 13 12  1  0
 14 13  2  0
 14  9  1  0
 15  1  1  0
 17 16  2  0
 18 17  1  0
 19 15  1  0
 19 18  2  0
 20 19  1  0
 21 20  2  0
 21 16  1  0
 22 16  1  0
 23 22  2  0
 25 24  2  0
 25 22  1  0
 26 24  1  0
  1 27  1  0
  1 28  1  0
  2 29  1  0
  3 30  1  0
  3 31  1  0
  4 32  1  0
  4 33  1  0
  5 34  1  0
  6 35  1  0
  6 36  1  0
  7 37  1  0
  7 38  1  0
  8 39  1  0
  8 40  1  0
 10 41  1  0
 11 42  1  0
 12 43  1  0
 13 44  1  0
 14 45  1  0
 15 46  1  0
 17 47  1  0
 18 48  1  0
 21 49  1  0
 25 50  1  0
 26 51  1  0
M  CHG  1   5   1
M  END
>  <score>  (2) 
-9.415

$$$$
=
     RDKit          3D

 51 53  0  0  0  0  0  0  0  0999 V2000
    1.1190   66.4120   70.0700 C   0  0  0  0  0  0  0  0  0  0  0  0
    0.4390   67.2860   68.9980 C   0  0  0  0  0  0  0  0  0  0  0  0
   -0.5930   66.4810   68.1940 C   0  0  0  0  0  0  0  0  0  0  0  0
   -1.2840   67.3350   67.1410 C   0  0  0  0  0  0  0  0  0  0  0  0
   -0.2460   67.9630   66.2410 N   0  0  0  0  0  4  0  0  0  0  0  0
    0.7320   68.8140   67.0090 C   0  0  0  0  0  0  0  0  0  0  0  0
    1.4400   67.9660   68.0570 C   0  0  0  0  0  0  0  0  0  0  0  0
   -0.8630   68.7320   65.0910 C   0  0  0  0  0  0  0  0  0  0  0  0
    0.0390   68.8310   63.8920 C   0  0  0  0  0  0  0  0  0  0  0  0
   -0.4100   69.4420   62.7110 C   0  0  0  0  0  0  0  0  0  0  0  0
    0.4370   69.5560   61.6080 C   0  0  0  0  0  0  0  0  0  0  0  0
    1.7380   69.0610   61.6730 C   0  0  0  0  0  0  0  0  0  0  0  0
    2.1930   68.4470   62.8370 C   0  0  0  0  0  0  0  0  0  0  0  0
    1.3490   68.3310   63.9420 C   0  0  0  0  0  0  0  0  0  0  0  0
    0.5060   65.0850   70.1090 N   0  0  0  0  0  0  0  0  0  0  0  0
    3.0340   62.1040   71.6010 C   0  0  0  0  0  0  0  0  0  0  0  0
    3.5400   63.1000   70.7660 C   0  0  0  0  0  0  0  0  0  0  0  0
    2.6870   64.0900   70.2790 C   0  0  0  0  0  0  0  0  0  0  0  0
    1.3410   64.0800   70.6400 C   0  0  0  0  0  0  0  0  0  0  0  0
    0.8410   63.1240   71.4470 N   0  0  0  0  0  0  0  0  0  0  0  0
    1.6850   62.1630   71.9100 C   0  0  0  0  0  0  0  0  0  0  0  0
    3.9430   61.0670   72.1280 C   0  0  0  0  0  0  0  0  0  0  0  0
    4.5020   61.2040   73.2100 O   0  0  0  0  0  0  0  0  0  0  0  0
    3.4550   59.4420   70.3950 N   0  0  0  0  0  0  0  0  0  0  0  0
    4.2020   59.7910   71.3900 C   0  0  0  0  0  0  0  0  0  0  0  0
    3.9180   58.2190   69.8970 O   0  0  0  0  0  0  0  0  0  0  0  0
    2.1879   66.3107   69.8307 H   0  0  0  0  0  0  0  0  0  0  0  0
    0.9957   66.8913   71.0524 H   0  0  0  0  0  0  0  0  0  0  0  0
   -0.0828   68.0860   69.5437 H   0  0  0  0  0  0  0  0  0  0  0  0
   -0.0811   65.6454   67.6942 H   0  0  0  0  0  0  0  0  0  0  0  0
   -1.3596   66.1155   68.8930 H   0  0  0  0  0  0  0  0  0  0  0  0
   -1.9563   66.7043   66.5408 H   0  0  0  0  0  0  0  0  0  0  0  0
   -1.8672   68.1259   67.6354 H   0  0  0  0  0  0  0  0  0  0  0  0
    0.2839   67.1817   65.8290 H   0  0  0  0  0  0  0  0  0  0  0  0
    1.4754   69.2330   66.3149 H   0  0  0  0  0  0  0  0  0  0  0  0
    0.1898   69.6308   67.5079 H   0  0  0  0  0  0  0  0  0  0  0  0
    2.0352   67.1929   67.5490 H   0  0  0  0  0  0  0  0  0  0  0  0
    2.0850   68.6251   68.6566 H   0  0  0  0  0  0  0  0  0  0  0  0
   -1.7910   68.2244   64.7892 H   0  0  0  0  0  0  0  0  0  0  0  0
   -1.0485   69.7566   65.4456 H   0  0  0  0  0  0  0  0  0  0  0  0
   -1.4364   69.8336   62.6545 H   0  0  0  0  0  0  0  0  0  0  0  0
    0.0774   70.0370   60.6864 H   0  0  0  0  0  0  0  0  0  0  0  0
    2.4060   69.1554   60.8042 H   0  0  0  0  0  0  0  0  0  0  0  0
    3.2189   68.0530   62.8854 H   0  0  0  0  0  0  0  0  0  0  0  0
    1.7132   67.8442   64.8587 H   0  0  0  0  0  0  0  0  0  0  0  0
   -0.4516   64.9004   69.7777 H   0  0  0  0  0  0  0  0  0  0  0  0
    4.6056   63.1046   70.4932 H   0  0  0  0  0  0  0  0  0  0  0  0
    3.0748   64.8750   69.6131 H   0  0  0  0  0  0  0  0  0  0  0  0
    1.2714   61.3859   72.5695 H   0  0  0  0  0  0  0  0  0  0  0  0
    5.0366   59.1438   71.6976 H   0  0  0  0  0  0  0  0  0  0  0  0
    3.4635   57.7941   69.1270 H   0  0  0  0  0  0  0  0  0  0  0  0
  2  1  1  0
  3  2  1  0
  4  3  1  0
  5  4  1  0
  6  5  1  0
  7  6  1  0
  7  2  1  0
  8  5  1  0
  9  8  1  0
 10  9  2  0
 11 10  1  0
 12 11  2  0
 13 12  1  0
 14 13  2  0
 14  9  1  0
 15  1  1  0
 17 16  2  0
 18 17  1  0
 19 15  1  0
 19 18  2  0
 20 19  1  0
 21 20  2  0
 21 16  1  0
 22 16  1  0
 23 22  2  0
 25 24  2  0
 25 22  1  0
 26 24  1  0
  1 27  1  0
  1 28  1  0
  2 29  1  0
  3 30  1  0
  3 31  1  0
  4 32  1  0
  4 33  1  0
  5 34  1  0
  6 35  1  0
  6 36  1  0
  7 37  1  0
  7 38  1  0
  8 39  1  0
  8 40  1  0
 10 41  1  0
 11 42  1  0
 12 43  1  0
 13 44  1  0
 14 45  1  0
 15 46  1  0
 17 47  1  0
 18 48  1  0
 21 49  1  0
 25 50  1  0
 26 51  1  0
M  CHG  1   5   1
M  END
>  <score>  (3) 
-9.102

$$$$
=
     RDKit          3D

 51 53  0  0  0  0  0  0  0  0999 V2000
    0.3750   65.9960   70.0010 C   0  0  0  0  0  0  0  0  0  0  0  0
    1.1860   65.1020   70.9590 C   0  0  0  0  0  0  0  0  0  0  0  0
    2.3080   64.3610   70.2160 C   0  0  0  0  0  0  0  0  0  0  0  0
    3.1280   63.4850   71.1510 C   0  0  0  0  0  0  0  0  0  0  0  0
    2.2130   62.5250   71.8740 N   0  0  0  0  0  4  0  0  0  0  0  0
    1.1490   63.2410   72.6660 C   0  0  0  0  0  0  0  0  0  0  0  0
    0.3130   64.1100   71.7370 C   0  0  0  0  0  0  0  0  0  0  0  0
    2.9710   61.5360   72.7360 C   0  0  0  0  0  0  0  0  0  0  0  0
    2.8640   60.1190   72.2450 C   0  0  0  0  0  0  0  0  0  0  0  0
    3.5380   59.7170   71.0800 C   0  0  0  0  0  0  0  0  0  0  0  0
    3.4590   58.3950   70.6400 C   0  0  0  0  0  0  0  0  0  0  0  0
    2.7080   57.4640   71.3540 C   0  0  0  0  0  0  0  0  0  0  0  0
    2.0300   57.8530   72.5070 C   0  0  0  0  0  0  0  0  0  0  0  0
    2.1060   59.1740   72.9510 C   0  0  0  0  0  0  0  0  0  0  0  0
    1.0940   67.2400   69.7350 N   0  0  0  0  0  0  0  0  0  0  0  0
    1.3300   68.3410   65.7060 C   0  0  0  0  0  0  0  0  0  0  0  0
    2.0320   69.0610   66.6710 C   0  0  0  0  0  0  0  0  0  0  0  0
    1.9480   68.6820   68.0110 C   0  0  0  0  0  0  0  0  0  0  0  0
    1.1720   67.5790   68.3670 C   0  0  0  0  0  0  0  0  0  0  0  0
    0.4910   66.8750   67.4430 N   0  0  0  0  0  0  0  0  0  0  0  0
    0.5800   67.2610   66.1410 C   0  0  0  0  0  0  0  0  0  0  0  0
    1.4350   68.7360   64.2860 C   0  0  0  0  0  0  0  0  0  0  0  0
    2.4660   68.5480   63.6500 O   0  0  0  0  0  0  0  0  0  0  0  0
   -0.7700   68.6580   63.2800 N   0  0  0  0  0  0  0  0  0  0  0  0
    0.2880   69.3510   63.5470 C   0  0  0  0  0  0  0  0  0  0  0  0
   -1.6740   69.4730   62.5890 O   0  0  0  0  0  0  0  0  0  0  0  0
    0.2145   65.4603   69.0537 H   0  0  0  0  0  0  0  0  0  0  0  0
   -0.5918   66.2351   70.4681 H   0  0  0  0  0  0  0  0  0  0  0  0
    1.6373   65.7805   71.6979 H   0  0  0  0  0  0  0  0  0  0  0  0
    1.8597   63.7268   69.4370 H   0  0  0  0  0  0  0  0  0  0  0  0
    2.9804   65.1133   69.7780 H   0  0  0  0  0  0  0  0  0  0  0  0
    3.8674   62.9173   70.5670 H   0  0  0  0  0  0  0  0  0  0  0  0
    3.6480   64.1185   71.8847 H   0  0  0  0  0  0  0  0  0  0  0  0
    1.7367   61.9800   71.1412 H   0  0  0  0  0  0  0  0  0  0  0  0
    0.4996   62.5015   73.1573 H   0  0  0  0  0  0  0  0  0  0  0  0
    1.6273   63.8766   73.4258 H   0  0  0  0  0  0  0  0  0  0  0  0
   -0.2165   63.4628   71.0223 H   0  0  0  0  0  0  0  0  0  0  0  0
   -0.3996   64.6830   72.3485 H   0  0  0  0  0  0  0  0  0  0  0  0
    4.0328   61.8232   72.7464 H   0  0  0  0  0  0  0  0  0  0  0  0
    2.5244   61.5685   73.7407 H   0  0  0  0  0  0  0  0  0  0  0  0
    4.1313   60.4482   70.5114 H   0  0  0  0  0  0  0  0  0  0  0  0
    3.9908   58.0875   69.7275 H   0  0  0  0  0  0  0  0  0  0  0  0
    2.6504   56.4217   71.0073 H   0  0  0  0  0  0  0  0  0  0  0  0
    1.4340   57.1182   73.0682 H   0  0  0  0  0  0  0  0  0  0  0  0
    1.5674   59.4759   73.8613 H   0  0  0  0  0  0  0  0  0  0  0  0
    1.5075   67.8186   70.4801 H   0  0  0  0  0  0  0  0  0  0  0  0
    2.6488   69.9233   66.3777 H   0  0  0  0  0  0  0  0  0  0  0  0
    2.4902   69.2493   68.7818 H   0  0  0  0  0  0  0  0  0  0  0  0
    0.0235   66.6811   65.3900 H   0  0  0  0  0  0  0  0  0  0  0  0
    0.3458   70.4022   63.2282 H   0  0  0  0  0  0  0  0  0  0  0  0
   -2.5480   69.1086   62.3000 H   0  0  0  0  0  0  0  0  0  0  0  0
  2  1  1  0
  3  2  1  0
  4  3  1  0
  5  4  1  0
  6  5  1  0
  7  6  1  0
  7  2  1  0
  8  5  1  0
  9  8  1  0
 10  9  2  0
 11 10  1  0
 12 11  2  0
 13 12  1  0
 14 13  2  0
 14  9  1  0
 15  1  1  0
 17 16  2  0
 18 17  1  0
 19 15  1  0
 19 18  2  0
 20 19  1  0
 21 20  2  0
 21 16  1  0
 22 16  1  0
 23 22  2  0
 25 24  2  0
 25 22  1  0
 26 24  1  0
  1 27  1  0
  1 28  1  0
  2 29  1  0
  3 30  1  0
  3 31  1  0
  4 32  1  0
  4 33  1  0
  5 34  1  0
  6 35  1  0
  6 36  1  0
  7 37  1  0
  7 38  1  0
  8 39  1  0
  8 40  1  0
 10 41  1  0
 11 42  1  0
 12 43  1  0
 13 44  1  0
 14 45  1  0
 15 46  1  0
 17 47  1  0
 18 48  1  0
 21 49  1  0
 25 50  1  0
 26 51  1  0
M  CHG  1   5   1
M  END
>  <score>  (4) 
-8.811

$$$$
=
     RDKit          3D

 51 53  0  0  0  0  0  0  0  0999 V2000
    1.0970   67.0770   69.4380 C   0  0  0  0  0  0  0  0  0  0  0  0
    0.9170   65.6650   70.0300 C   0  0  0  0  0  0  0  0  0  0  0  0
    0.2510   65.7210   71.4130 C   0  0  0  0  0  0  0  0  0  0  0  0
    0.0530   64.3330   72.0050 C   0  0  0  0  0  0  0  0  0  0  0  0
    1.3790   63.6120   72.0550 N   0  0  0  0  0  4  0  0  0  0  0  0
    2.0110   63.4880   70.6930 C   0  0  0  0  0  0  0  0  0  0  0  0
    2.2280   64.8720   70.0970 C   0  0  0  0  0  0  0  0  0  0  0  0
    1.2840   62.2670   72.7450 C   0  0  0  0  0  0  0  0  0  0  0  0
    2.4620   61.3750   72.4690 C   0  0  0  0  0  0  0  0  0  0  0  0
    2.2860   60.1440   71.8160 C   0  0  0  0  0  0  0  0  0  0  0  0
    3.3840   59.3290   71.5380 C   0  0  0  0  0  0  0  0  0  0  0  0
    4.6660   59.7330   71.9090 C   0  0  0  0  0  0  0  0  0  0  0  0
    4.8520   60.9480   72.5620 C   0  0  0  0  0  0  0  0  0  0  0  0
    3.7560   61.7670   72.8430 C   0  0  0  0  0  0  0  0  0  0  0  0
    0.5670   67.1300   68.0770 N   0  0  0  0  0  0  0  0  0  0  0  0
    3.3110   68.4610   65.2140 C   0  0  0  0  0  0  0  0  0  0  0  0
    2.9460   69.2900   66.2740 C   0  0  0  0  0  0  0  0  0  0  0  0
    2.0330   68.8330   67.2240 C   0  0  0  0  0  0  0  0  0  0  0  0
    1.5040   67.5480   67.1090 C   0  0  0  0  0  0  0  0  0  0  0  0
    1.8510   66.7370   66.0910 N   0  0  0  0  0  0  0  0  0  0  0  0
    2.7390   67.2000   65.1700 C   0  0  0  0  0  0  0  0  0  0  0  0
    4.2910   68.9420   64.2200 C   0  0  0  0  0  0  0  0  0  0  0  0
    5.1150   69.8030   64.5070 O   0  0  0  0  0  0  0  0  0  0  0  0
    3.4160   68.6480   61.9770 N   0  0  0  0  0  0  0  0  0  0  0  0
    4.3500   68.3860   62.8310 C   0  0  0  0  0  0  0  0  0  0  0  0
    3.7220   68.0060   60.7720 O   0  0  0  0  0  0  0  0  0  0  0  0
    0.5598   67.8040   70.0648 H   0  0  0  0  0  0  0  0  0  0  0  0
    2.1697   67.3194   69.4130 H   0  0  0  0  0  0  0  0  0  0  0  0
    0.2523   65.1272   69.3380 H   0  0  0  0  0  0  0  0  0  0  0  0
    0.8876   66.3090   72.0906 H   0  0  0  0  0  0  0  0  0  0  0  0
   -0.7391   66.1856   71.2956 H   0  0  0  0  0  0  0  0  0  0  0  0
   -0.3536   64.4234   73.0231 H   0  0  0  0  0  0  0  0  0  0  0  0
   -0.6496   63.7643   71.3781 H   0  0  0  0  0  0  0  0  0  0  0  0
    2.0004   64.1995   72.6291 H   0  0  0  0  0  0  0  0  0  0  0  0
    2.9793   62.9742   70.7852 H   0  0  0  0  0  0  0  0  0  0  0  0
    1.3455   62.9097   70.0352 H   0  0  0  0  0  0  0  0  0  0  0  0
    2.9472   65.4219   70.7218 H   0  0  0  0  0  0  0  0  0  0  0  0
    2.6120   64.7514   69.0733 H   0  0  0  0  0  0  0  0  0  0  0  0
    1.2192   62.4347   73.8302 H   0  0  0  0  0  0  0  0  0  0  0  0
    0.3909   61.7600   72.3510 H   0  0  0  0  0  0  0  0  0  0  0  0
    1.2766   59.8205   71.5220 H   0  0  0  0  0  0  0  0  0  0  0  0
    3.2381   58.3667   71.0256 H   0  0  0  0  0  0  0  0  0  0  0  0
    5.5308   59.0911   71.6855 H   0  0  0  0  0  0  0  0  0  0  0  0
    5.8635   61.2637   72.8572 H   0  0  0  0  0  0  0  0  0  0  0  0
    3.9085   62.7254   73.3608 H   0  0  0  0  0  0  0  0  0  0  0  0
   -0.4058   66.8836   67.8449 H   0  0  0  0  0  0  0  0  0  0  0  0
    3.3758   70.2989   66.3605 H   0  0  0  0  0  0  0  0  0  0  0  0
    1.7319   69.4825   68.0592 H   0  0  0  0  0  0  0  0  0  0  0  0
    3.0194   66.5334   64.3411 H   0  0  0  0  0  0  0  0  0  0  0  0
    5.1961   67.7486   62.5347 H   0  0  0  0  0  0  0  0  0  0  0  0
    3.1138   68.0941   59.9958 H   0  0  0  0  0  0  0  0  0  0  0  0
  2  1  1  0
  3  2  1  0
  4  3  1  0
  5  4  1  0
  6  5  1  0
  7  6  1  0
  7  2  1  0
  8  5  1  0
  9  8  1  0
 10  9  2  0
 11 10  1  0
 12 11  2  0
 13 12  1  0
 14 13  2  0
 14  9  1  0
 15  1  1  0
 17 16  2  0
 18 17  1  0
 19 15  1  0
 19 18  2  0
 20 19  1  0
 21 20  2  0
 21 16  1  0
 22 16  1  0
 23 22  2  0
 25 24  2  0
 25 22  1  0
 26 24  1  0
  1 27  1  0
  1 28  1  0
  2 29  1  0
  3 30  1  0
  3 31  1  0
  4 32  1  0
  4 33  1  0
  5 34  1  0
  6 35  1  0
  6 36  1  0
  7 37  1  0
  7 38  1  0
  8 39  1  0
  8 40  1  0
 10 41  1  0
 11 42  1  0
 12 43  1  0
 13 44  1  0
 14 45  1  0
 15 46  1  0
 17 47  1  0
 18 48  1  0
 21 49  1  0
 25 50  1  0
 26 51  1  0
M  CHG  1   5   1
M  END
>  <score>  (5) 
-8.6

$$$$
=
     RDKit          3D

 51 53  0  0  0  0  0  0  0  0999 V2000
    0.4220   65.1660   70.6910 C   0  0  0  0  0  0  0  0  0  0  0  0
    1.2290   63.8580   70.5810 C   0  0  0  0  0  0  0  0  0  0  0  0
    0.9290   62.9170   71.7570 C   0  0  0  0  0  0  0  0  0  0  0  0
    1.7080   61.6140   71.6550 C   0  0  0  0  0  0  0  0  0  0  0  0
    3.1840   61.9160   71.5470 N   0  0  0  0  0  4  0  0  0  0  0  0
    3.5020   62.7810   70.3550 C   0  0  0  0  0  0  0  0  0  0  0  0
    2.7380   64.0950   70.4540 C   0  0  0  0  0  0  0  0  0  0  0  0
    4.0370   60.6630   71.5630 C   0  0  0  0  0  0  0  0  0  0  0  0
    3.4390   59.5510   72.3790 C   0  0  0  0  0  0  0  0  0  0  0  0
    3.5400   59.5620   73.7800 C   0  0  0  0  0  0  0  0  0  0  0  0
    2.9620   58.5420   74.5370 C   0  0  0  0  0  0  0  0  0  0  0  0
    2.2820   57.5030   73.9060 C   0  0  0  0  0  0  0  0  0  0  0  0
    2.1810   57.4780   72.5170 C   0  0  0  0  0  0  0  0  0  0  0  0
    2.7570   58.4950   71.7560 C   0  0  0  0  0  0  0  0  0  0  0  0
    1.1800   66.2810   70.1270 N   0  0  0  0  0  0  0  0  0  0  0  0
   -0.5280   68.0820   66.7590 C   0  0  0  0  0  0  0  0  0  0  0  0
    0.7320   68.4800   67.2050 C   0  0  0  0  0  0  0  0  0  0  0  0
    1.2920   67.8700   68.3270 C   0  0  0  0  0  0  0  0  0  0  0  0
    0.5900   66.8600   68.9830 C   0  0  0  0  0  0  0  0  0  0  0  0
   -0.6260   66.4650   68.5620 N   0  0  0  0  0  0  0  0  0  0  0  0
   -1.1600   67.0740   67.4680 C   0  0  0  0  0  0  0  0  0  0  0  0
   -1.1100   68.7200   65.5610 C   0  0  0  0  0  0  0  0  0  0  0  0
   -2.2750   69.1010   65.5480 O   0  0  0  0  0  0  0  0  0  0  0  0
   -0.6140   68.3760   63.2120 N   0  0  0  0  0  0  0  0  0  0  0  0
   -0.3050   68.9610   64.3220 C   0  0  0  0  0  0  0  0  0  0  0  0
    0.2960   68.7780   62.2280 O   0  0  0  0  0  0  0  0  0  0  0  0
   -0.5240   65.0556   70.1407 H   0  0  0  0  0  0  0  0  0  0  0  0
    0.2199   65.3725   71.7524 H   0  0  0  0  0  0  0  0  0  0  0  0
    0.9010   63.3750   69.6487 H   0  0  0  0  0  0  0  0  0  0  0  0
    1.2024   63.4221   72.6951 H   0  0  0  0  0  0  0  0  0  0  0  0
   -0.1438   62.6751   71.7345 H   0  0  0  0  0  0  0  0  0  0  0  0
    1.5231   61.0052   72.5524 H   0  0  0  0  0  0  0  0  0  0  0  0
    1.3810   61.0607   70.7623 H   0  0  0  0  0  0  0  0  0  0  0  0
    3.4261   62.4545   72.3910 H   0  0  0  0  0  0  0  0  0  0  0  0
    4.5822   62.9873   70.3310 H   0  0  0  0  0  0  0  0  0  0  0  0
    3.2050   62.2560   69.4351 H   0  0  0  0  0  0  0  0  0  0  0  0
    3.0890   64.6470   71.3384 H   0  0  0  0  0  0  0  0  0  0  0  0
    2.9212   64.6713   69.5351 H   0  0  0  0  0  0  0  0  0  0  0  0
    4.1601   60.3104   70.5283 H   0  0  0  0  0  0  0  0  0  0  0  0
    4.9990   60.9279   72.0260 H   0  0  0  0  0  0  0  0  0  0  0  0
    4.0777   60.3791   74.2832 H   0  0  0  0  0  0  0  0  0  0  0  0
    3.0436   58.5586   75.6338 H   0  0  0  0  0  0  0  0  0  0  0  0
    1.8245   56.7018   74.5049 H   0  0  0  0  0  0  0  0  0  0  0  0
    1.6464   56.6553   72.0197 H   0  0  0  0  0  0  0  0  0  0  0  0
    2.6760   58.4690   70.6593 H   0  0  0  0  0  0  0  0  0  0  0  0
    2.0674   66.6151   70.5293 H   0  0  0  0  0  0  0  0  0  0  0  0
    1.2815   69.2714   66.6742 H   0  0  0  0  0  0  0  0  0  0  0  0
    2.2811   68.1837   68.6920 H   0  0  0  0  0  0  0  0  0  0  0  0
   -2.1529   66.7459   67.1266 H   0  0  0  0  0  0  0  0  0  0  0  0
    0.5577   69.6425   64.3568 H   0  0  0  0  0  0  0  0  0  0  0  0
    0.2143   68.4280   61.3055 H   0  0  0  0  0  0  0  0  0  0  0  0
  2  1  1  0
  3  2  1  0
  4  3  1  0
  5  4  1  0
  6  5  1  0
  7  6  1  0
  7  2  1  0
  8  5  1  0
  9  8  1  0
 10  9  2  0
 11 10  1  0
 12 11  2  0
 13 12  1  0
 14 13  2  0
 14  9  1  0
 15  1  1  0
 17 16  2  0
 18 17  1  0
 19 15  1  0
 19 18  2  0
 20 19  1  0
 21 20  2  0
 21 16  1  0
 22 16  1  0
 23 22  2  0
 25 24  2  0
 25 22  1  0
 26 24  1  0
  1 27  1  0
  1 28  1  0
  2 29  1  0
  3 30  1  0
  3 31  1  0
  4 32  1  0
  4 33  1  0
  5 34  1  0
  6 35  1  0
  6 36  1  0
  7 37  1  0
  7 38  1  0
  8 39  1  0
  8 40  1  0
 10 41  1  0
 11 42  1  0
 12 43  1  0
 13 44  1  0
 14 45  1  0
 15 46  1  0
 17 47  1  0
 18 48  1  0
 21 49  1  0
 25 50  1  0
 26 51  1  0
M  CHG  1   5   1
M  END
>  <score>  (6) 
-8.561

$$$$
=
     RDKit          3D

 51 53  0  0  0  0  0  0  0  0999 V2000
    0.5720   65.3490   70.9000 C   0  0  0  0  0  0  0  0  0  0  0  0
    1.4170   64.1360   71.3340 C   0  0  0  0  0  0  0  0  0  0  0  0
    1.4500   63.0580   70.2390 C   0  0  0  0  0  0  0  0  0  0  0  0
    2.2940   61.8600   70.6470 C   0  0  0  0  0  0  0  0  0  0  0  0
    1.7840   61.3060   71.9570 N   0  0  0  0  0  4  0  0  0  0  0  0
    1.8130   62.3340   73.0580 C   0  0  0  0  0  0  0  0  0  0  0  0
    0.9600   63.5320   72.6670 C   0  0  0  0  0  0  0  0  0  0  0  0
    2.4980   60.0350   72.3680 C   0  0  0  0  0  0  0  0  0  0  0  0
    1.5650   58.9650   72.8630 C   0  0  0  0  0  0  0  0  0  0  0  0
    1.9150   57.6090   72.7550 C   0  0  0  0  0  0  0  0  0  0  0  0
    1.0600   56.6180   73.2390 C   0  0  0  0  0  0  0  0  0  0  0  0
   -0.1510   56.9700   73.8330 C   0  0  0  0  0  0  0  0  0  0  0  0
   -0.5110   58.3100   73.9400 C   0  0  0  0  0  0  0  0  0  0  0  0
    0.3410   59.3050   73.4570 C   0  0  0  0  0  0  0  0  0  0  0  0
    1.3950   66.3070   70.1650 N   0  0  0  0  0  0  0  0  0  0  0  0
   -0.4700   68.0830   66.8680 C   0  0  0  0  0  0  0  0  0  0  0  0
    0.7690   68.5470   67.3070 C   0  0  0  0  0  0  0  0  0  0  0  0
    1.3820   67.9440   68.4050 C   0  0  0  0  0  0  0  0  0  0  0  0
    0.7540   66.8770   69.0440 C   0  0  0  0  0  0  0  0  0  0  0  0
   -0.4420   66.4180   68.6290 N   0  0  0  0  0  0  0  0  0  0  0  0
   -1.0290   67.0210   67.5590 C   0  0  0  0  0  0  0  0  0  0  0  0
   -1.1070   68.7150   65.6950 C   0  0  0  0  0  0  0  0  0  0  0  0
   -2.2730   69.0930   65.7330 O   0  0  0  0  0  0  0  0  0  0  0  0
    0.2960   67.9950   63.8520 N   0  0  0  0  0  0  0  0  0  0  0  0
   -0.3610   68.9530   64.4190 C   0  0  0  0  0  0  0  0  0  0  0  0
    0.8930   68.4920   62.6880 O   0  0  0  0  0  0  0  0  0  0  0  0
   -0.2492   65.0059   70.2536 H   0  0  0  0  0  0  0  0  0  0  0  0
    0.1673   65.8408   71.7968 H   0  0  0  0  0  0  0  0  0  0  0  0
    2.4373   64.5170   71.4882 H   0  0  0  0  0  0  0  0  0  0  0  0
    0.4222   62.7186   70.0431 H   0  0  0  0  0  0  0  0  0  0  0  0
    1.9001   63.5009   69.3383 H   0  0  0  0  0  0  0  0  0  0  0  0
    2.2281   61.0838   69.8704 H   0  0  0  0  0  0  0  0  0  0  0  0
    3.3418   62.1733   70.7650 H   0  0  0  0  0  0  0  0  0  0  0  0
    0.7978   61.0561   71.7961 H   0  0  0  0  0  0  0  0  0  0  0  0
    1.4166   61.8898   73.9830 H   0  0  0  0  0  0  0  0  0  0  0  0
    2.8499   62.6637   73.2200 H   0  0  0  0  0  0  0  0  0  0  0  0
   -0.0874   63.2095   72.5729 H   0  0  0  0  0  0  0  0  0  0  0  0
    1.0647   64.2998   73.4477 H   0  0  0  0  0  0  0  0  0  0  0  0
    3.0467   59.6453   71.4979 H   0  0  0  0  0  0  0  0  0  0  0  0
    3.1707   60.2923   73.1994 H   0  0  0  0  0  0  0  0  0  0  0  0
    2.8690   57.3265   72.2860 H   0  0  0  0  0  0  0  0  0  0  0  0
    1.3418   55.5583   73.1517 H   0  0  0  0  0  0  0  0  0  0  0  0
   -0.8225   56.1881   74.2174 H   0  0  0  0  0  0  0  0  0  0  0  0
   -1.4685   58.5857   74.4059 H   0  0  0  0  0  0  0  0  0  0  0  0
    0.0503   60.3624   73.5429 H   0  0  0  0  0  0  0  0  0  0  0  0
    2.3583   66.5454   70.4407 H   0  0  0  0  0  0  0  0  0  0  0  0
    1.2606   69.3843   66.7901 H   0  0  0  0  0  0  0  0  0  0  0  0
    2.3556   68.3086   68.7644 H   0  0  0  0  0  0  0  0  0  0  0  0
   -2.0056   66.6421   67.2232 H   0  0  0  0  0  0  0  0  0  0  0  0
   -0.3721   69.9524   63.9597 H   0  0  0  0  0  0  0  0  0  0  0  0
    1.4410   67.8952   62.1191 H   0  0  0  0  0  0  0  0  0  0  0  0
  2  1  1  0
  3  2  1  0
  4  3  1  0
  5  4  1  0
  6  5  1  0
  7  6  1  0
  7  2  1  0
  8  5  1  0
  9  8  1  0
 10  9  2  0
 11 10  1  0
 12 11  2  0
 13 12  1  0
 14 13  2  0
 14  9  1  0
 15  1  1  0
 17 16  2  0
 18 17  1  0
 19 15  1  0
 19 18  2  0
 20 19  1  0
 21 20  2  0
 21 16  1  0
 22 16  1  0
 23 22  2  0
 25 24  2  0
 25 22  1  0
 26 24  1  0
  1 27  1  0
  1 28  1  0
  2 29  1  0
  3 30  1  0
  3 31  1  0
  4 32  1  0
  4 33  1  0
  5 34  1  0
  6 35  1  0
  6 36  1  0
  7 37  1  0
  7 38  1  0
  8 39  1  0
  8 40  1  0
 10 41  1  0
 11 42  1  0
 12 43  1  0
 13 44  1  0
 14 45  1  0
 15 46  1  0
 17 47  1  0
 18 48  1  0
 21 49  1  0
 25 50  1  0
 26 51  1  0
M  CHG  1   5   1
M  END
>  <score>  (7) 
-8.556

$$$$
=
     RDKit          3D

 51 53  0  0  0  0  0  0  0  0999 V2000
   -0.4480   66.4690   69.1620 C   0  0  0  0  0  0  0  0  0  0  0  0
   -0.1660   66.8250   67.6900 C   0  0  0  0  0  0  0  0  0  0  0  0
    1.3430   66.9040   67.4140 C   0  0  0  0  0  0  0  0  0  0  0  0
    1.6390   67.2410   65.9600 C   0  0  0  0  0  0  0  0  0  0  0  0
    0.9390   68.5270   65.5890 N   0  0  0  0  0  4  0  0  0  0  0  0
   -0.5520   68.4410   65.7870 C   0  0  0  0  0  0  0  0  0  0  0  0
   -0.8600   68.1180   67.2430 C   0  0  0  0  0  0  0  0  0  0  0  0
    1.2840   68.9930   64.1890 C   0  0  0  0  0  0  0  0  0  0  0  0
    2.7600   68.9740   63.9050 C   0  0  0  0  0  0  0  0  0  0  0  0
    3.2380   68.5910   62.6420 C   0  0  0  0  0  0  0  0  0  0  0  0
    4.6070   68.5990   62.3720 C   0  0  0  0  0  0  0  0  0  0  0  0
    5.5110   68.9870   63.3590 C   0  0  0  0  0  0  0  0  0  0  0  0
    5.0500   69.3640   64.6170 C   0  0  0  0  0  0  0  0  0  0  0  0
    3.6810   69.3570   64.8920 C   0  0  0  0  0  0  0  0  0  0  0  0
    0.7880   66.5050   69.9410 N   0  0  0  0  0  0  0  0  0  0  0  0
    2.1470   62.7550   71.2030 C   0  0  0  0  0  0  0  0  0  0  0  0
    0.9770   63.2930   71.7370 C   0  0  0  0  0  0  0  0  0  0  0  0
    0.5320   64.5420   71.3050 C   0  0  0  0  0  0  0  0  0  0  0  0
    1.2570   65.2340   70.3360 C   0  0  0  0  0  0  0  0  0  0  0  0
    2.3880   64.7250   69.8120 N   0  0  0  0  0  0  0  0  0  0  0  0
    2.8110   63.5070   70.2480 C   0  0  0  0  0  0  0  0  0  0  0  0
    2.6050   61.4240   71.6520 C   0  0  0  0  0  0  0  0  0  0  0  0
    2.7980   61.1870   72.8390 O   0  0  0  0  0  0  0  0  0  0  0  0
    3.9940   60.0810   70.1860 N   0  0  0  0  0  0  0  0  0  0  0  0
    2.8240   60.2970   70.6920 C   0  0  0  0  0  0  0  0  0  0  0  0
    3.9120   58.9770   69.3300 O   0  0  0  0  0  0  0  0  0  0  0  0
   -1.1611   67.1947   69.5801 H   0  0  0  0  0  0  0  0  0  0  0  0
   -0.8698   65.4542   69.2090 H   0  0  0  0  0  0  0  0  0  0  0  0
   -0.5940   66.0068   67.0923 H   0  0  0  0  0  0  0  0  0  0  0  0
    1.7812   67.6828   68.0555 H   0  0  0  0  0  0  0  0  0  0  0  0
    1.7803   65.9181   67.6304 H   0  0  0  0  0  0  0  0  0  0  0  0
    2.7240   67.3619   65.8251 H   0  0  0  0  0  0  0  0  0  0  0  0
    1.2778   66.4272   65.3140 H   0  0  0  0  0  0  0  0  0  0  0  0
    1.2943   69.2421   66.2397 H   0  0  0  0  0  0  0  0  0  0  0  0
   -1.0121   69.4042   65.5212 H   0  0  0  0  0  0  0  0  0  0  0  0
   -0.9590   67.6465   65.1442 H   0  0  0  0  0  0  0  0  0  0  0  0
   -0.5111   68.9480   67.8750 H   0  0  0  0  0  0  0  0  0  0  0  0
   -1.9466   67.9796   67.3438 H   0  0  0  0  0  0  0  0  0  0  0  0
    0.7806   68.3332   63.4670 H   0  0  0  0  0  0  0  0  0  0  0  0
    0.9476   70.0365   64.0998 H   0  0  0  0  0  0  0  0  0  0  0  0
    2.5287   68.2825   61.8599 H   0  0  0  0  0  0  0  0  0  0  0  0
    4.9730   68.2987   61.3791 H   0  0  0  0  0  0  0  0  0  0  0  0
    6.5897   68.9953   63.1437 H   0  0  0  0  0  0  0  0  0  0  0  0
    5.7651   69.6679   65.3957 H   0  0  0  0  0  0  0  0  0  0  0  0
    3.3223   69.6536   65.8887 H   0  0  0  0  0  0  0  0  0  0  0  0
    1.2740   67.3809   70.1806 H   0  0  0  0  0  0  0  0  0  0  0  0
    0.4078   62.7352   72.4952 H   0  0  0  0  0  0  0  0  0  0  0  0
   -0.3856   64.9786   71.7263 H   0  0  0  0  0  0  0  0  0  0  0  0
    3.7352   63.0954   69.8162 H   0  0  0  0  0  0  0  0  0  0  0  0
    1.9817   59.6463   70.4143 H   0  0  0  0  0  0  0  0  0  0  0  0
    4.7183   58.6624   68.8493 H   0  0  0  0  0  0  0  0  0  0  0  0
  2  1  1  0
  3  2  1  0
  4  3  1  0
  5  4  1  0
  6  5  1  0
  7  6  1  0
  7  2  1  0
  8  5  1  0
  9  8  1  0
 10  9  2  0
 11 10  1  0
 12 11  2  0
 13 12  1  0
 14 13  2  0
 14  9  1  0
 15  1  1  0
 17 16  2  0
 18 17  1  0
 19 15  1  0
 19 18  2  0
 20 19  1  0
 21 20  2  0
 21 16  1  0
 22 16  1  0
 23 22  2  0
 25 24  2  0
 25 22  1  0
 26 24  1  0
  1 27  1  0
  1 28  1  0
  2 29  1  0
  3 30  1  0
  3 31  1  0
  4 32  1  0
  4 33  1  0
  5 34  1  0
  6 35  1  0
  6 36  1  0
  7 37  1  0
  7 38  1  0
  8 39  1  0
  8 40  1  0
 10 41  1  0
 11 42  1  0
 12 43  1  0
 13 44  1  0
 14 45  1  0
 15 46  1  0
 17 47  1  0
 18 48  1  0
 21 49  1  0
 25 50  1  0
 26 51  1  0
M  CHG  1   5   1
M  END
>  <score>  (8) 
-8.498

$$$$
=
     RDKit          3D

 51 53  0  0  0  0  0  0  0  0999 V2000
   -0.0680   64.5960   70.9820 C   0  0  0  0  0  0  0  0  0  0  0  0
    0.1440   65.9660   70.3090 C   0  0  0  0  0  0  0  0  0  0  0  0
   -0.6800   66.0890   69.0190 C   0  0  0  0  0  0  0  0  0  0  0  0
   -0.4920   67.4420   68.3510 C   0  0  0  0  0  0  0  0  0  0  0  0
    0.9780   67.6780   68.0950 N   0  0  0  0  0  4  0  0  0  0  0  0
    1.7900   67.6310   69.3630 C   0  0  0  0  0  0  0  0  0  0  0  0
    1.6210   66.2750   70.0330 C   0  0  0  0  0  0  0  0  0  0  0  0
    1.2350   68.9550   67.3200 C   0  0  0  0  0  0  0  0  0  0  0  0
    2.6300   69.4860   67.5010 C   0  0  0  0  0  0  0  0  0  0  0  0
    3.5950   69.3110   66.4960 C   0  0  0  0  0  0  0  0  0  0  0  0
    4.8820   69.8280   66.6550 C   0  0  0  0  0  0  0  0  0  0  0  0
    5.2180   70.5220   67.8160 C   0  0  0  0  0  0  0  0  0  0  0  0
    4.2710   70.6960   68.8220 C   0  0  0  0  0  0  0  0  0  0  0  0
    2.9830   70.1810   68.6680 C   0  0  0  0  0  0  0  0  0  0  0  0
    0.9610   64.3600   71.9920 N   0  0  0  0  0  0  0  0  0  0  0  0
    1.7590   60.3260   72.7600 C   0  0  0  0  0  0  0  0  0  0  0  0
    2.7710   61.2760   72.8840 C   0  0  0  0  0  0  0  0  0  0  0  0
    2.4910   62.6180   72.6290 C   0  0  0  0  0  0  0  0  0  0  0  0
    1.2000   62.9960   72.2640 C   0  0  0  0  0  0  0  0  0  0  0  0
    0.2130   62.0870   72.1420 N   0  0  0  0  0  0  0  0  0  0  0  0
    0.5040   60.7810   72.3900 C   0  0  0  0  0  0  0  0  0  0  0  0
    2.0560   58.9070   73.0470 C   0  0  0  0  0  0  0  0  0  0  0  0
    1.8200   58.4200   74.1470 O   0  0  0  0  0  0  0  0  0  0  0  0
    3.3810   58.4500   71.0680 N   0  0  0  0  0  0  0  0  0  0  0  0
    2.6240   57.9900   72.0090 C   0  0  0  0  0  0  0  0  0  0  0  0
    3.7670   57.3850   70.2470 O   0  0  0  0  0  0  0  0  0  0  0  0
   -1.0577   64.5771   71.4616 H   0  0  0  0  0  0  0  0  0  0  0  0
   -0.0038   63.8087   70.2165 H   0  0  0  0  0  0  0  0  0  0  0  0
   -0.2127   66.7166   71.0297 H   0  0  0  0  0  0  0  0  0  0  0  0
   -0.3650   65.3006   68.3196 H   0  0  0  0  0  0  0  0  0  0  0  0
   -1.7428   65.9846   69.2829 H   0  0  0  0  0  0  0  0  0  0  0  0
   -1.0376   67.4583   67.3960 H   0  0  0  0  0  0  0  0  0  0  0  0
   -0.8808   68.2328   69.0093 H   0  0  0  0  0  0  0  0  0  0  0  0
    1.2928   66.8983   67.5001 H   0  0  0  0  0  0  0  0  0  0  0  0
    2.8516   67.7900   69.1230 H   0  0  0  0  0  0  0  0  0  0  0  0
    1.4425   68.4198   70.0464 H   0  0  0  0  0  0  0  0  0  0  0  0
    2.0321   65.4965   69.3736 H   0  0  0  0  0  0  0  0  0  0  0  0
    2.1554   66.2953   70.9942 H   0  0  0  0  0  0  0  0  0  0  0  0
    1.0733   68.7538   66.2507 H   0  0  0  0  0  0  0  0  0  0  0  0
    0.5420   69.7172   67.7059 H   0  0  0  0  0  0  0  0  0  0  0  0
    3.3353   68.7633   65.5781 H   0  0  0  0  0  0  0  0  0  0  0  0
    5.6320   69.6874   65.8627 H   0  0  0  0  0  0  0  0  0  0  0  0
    6.2313   70.9323   67.9377 H   0  0  0  0  0  0  0  0  0  0  0  0
    4.5386   71.2403   69.7397 H   0  0  0  0  0  0  0  0  0  0  0  0
    2.2396   70.3208   69.4666 H   0  0  0  0  0  0  0  0  0  0  0  0
    1.4676   65.1224   72.4642 H   0  0  0  0  0  0  0  0  0  0  0  0
    3.7846   60.9691   73.1813 H   0  0  0  0  0  0  0  0  0  0  0  0
    3.2849   63.3745   72.7155 H   0  0  0  0  0  0  0  0  0  0  0  0
   -0.3054   60.0428   72.2908 H   0  0  0  0  0  0  0  0  0  0  0  0
    2.3949   56.9148   72.0476 H   0  0  0  0  0  0  0  0  0  0  0  0
    4.3539   57.5489   69.4668 H   0  0  0  0  0  0  0  0  0  0  0  0
  2  1  1  0
  3  2  1  0
  4  3  1  0
  5  4  1  0
  6  5  1  0
  7  6  1  0
  7  2  1  0
  8  5  1  0
  9  8  1  0
 10  9  2  0
 11 10  1  0
 12 11  2  0
 13 12  1  0
 14 13  2  0
 14  9  1  0
 15  1  1  0
 17 16  2  0
 18 17  1  0
 19 15  1  0
 19 18  2  0
 20 19  1  0
 21 20  2  0
 21 16  1  0
 22 16  1  0
 23 22  2  0
 25 24  2  0
 25 22  1  0
 26 24  1  0
  1 27  1  0
  1 28  1  0
  2 29  1  0
  3 30  1  0
  3 31  1  0
  4 32  1  0
  4 33  1  0
  5 34  1  0
  6 35  1  0
  6 36  1  0
  7 37  1  0
  7 38  1  0
  8 39  1  0
  8 40  1  0
 10 41  1  0
 11 42  1  0
 12 43  1  0
 13 44  1  0
 14 45  1  0
 15 46  1  0
 17 47  1  0
 18 48  1  0
 21 49  1  0
 25 50  1  0
 26 51  1  0
M  CHG  1   5   1
M  END
>  <score>  (9) 
-8.061

$$$$
