=
     RDKit          3D

 56 58  0  0  0  0  0  0  0  0999 V2000
    0.0900   67.1140   66.9580 C   0  0  0  0  0  0  0  0  0  0  0  0
   -0.9030   68.0150   66.5790 C   0  0  0  0  0  0  0  0  0  0  0  0
   -0.9380   68.6620   65.3870 N   0  0  0  0  0  0  0  0  0  0  0  0
    0.0470   68.3880   64.5130 C   0  0  0  0  0  0  0  0  0  0  0  0
    1.0910   67.5070   64.7950 C   0  0  0  0  0  0  0  0  0  0  0  0
    1.1000   66.8560   66.0320 C   0  0  0  0  0  0  0  0  0  0  0  0
    2.1290   67.2460   63.7430 C   0  0  0  0  0  0  0  0  0  0  0  0
    2.5080   68.5180   62.9420 C   0  0  1  0  0  0  0  0  0  0  0  0
    1.4200   69.6110   62.8700 C   0  0  0  0  0  0  0  0  0  0  0  0
    0.0240   69.0710   63.1720 C   0  0  0  0  0  0  0  0  0  0  0  0
    0.8190   66.7650   69.3190 C   0  0  0  0  0  0  0  0  0  0  0  0
    1.6850   67.6180   69.4380 O   0  0  0  0  0  0  0  0  0  0  0  0
    0.0160   66.5080   68.2250 N   0  0  0  0  0  0  0  0  0  0  0  0
   -0.1610   66.4000   71.4930 N   0  0  0  0  0  0  0  0  0  0  0  0
    0.5130   65.8720   70.5030 C   0  0  0  0  0  0  0  0  0  0  0  0
    0.9700   64.4390   70.4910 C   0  0  0  0  0  0  0  0  0  0  0  0
    0.1460   63.5620   70.2720 O   0  0  0  0  0  0  0  0  0  0  0  0
    2.4390   64.2120   70.6830 C   0  0  0  0  0  0  0  0  0  0  0  0
   -0.3760   65.4660   72.5140 O   0  0  0  0  0  0  0  0  0  0  0  0
    3.8540   69.1020   63.4350 N   0  0  2  0  0  4  0  0  0  0  0  0
    4.9680   69.0910   62.4110 C   0  0  0  0  0  0  0  0  0  0  0  0
    4.2800   68.4970   64.7730 C   0  0  0  0  0  0  0  0  0  0  0  0
    5.4650   69.2530   65.3820 C   0  0  0  0  0  0  0  0  0  0  0  0
    5.0970   69.8130   66.7310 C   0  0  0  0  0  0  0  0  0  0  0  0
    6.0760   70.3940   67.5490 C   0  0  0  0  0  0  0  0  0  0  0  0
    5.7400   70.8830   68.8130 C   0  0  0  0  0  0  0  0  0  0  0  0
    4.4260   70.7960   69.2690 C   0  0  0  0  0  0  0  0  0  0  0  0
    3.4470   70.2210   68.4630 C   0  0  0  0  0  0  0  0  0  0  0  0
    3.7790   69.7300   67.1990 C   0  0  0  0  0  0  0  0  0  0  0  0
   -1.7137   68.2154   67.2950 H   0  0  0  0  0  0  0  0  0  0  0  0
    1.9014   66.1424   66.2741 H   0  0  0  0  0  0  0  0  0  0  0  0
    3.0341   66.8562   64.2318 H   0  0  0  0  0  0  0  0  0  0  0  0
    1.7042   66.5221   63.0320 H   0  0  0  0  0  0  0  0  0  0  0  0
    2.6128   68.1695   61.9039 H   0  0  0  0  0  0  0  0  0  0  0  0
    1.6601   70.3959   63.6023 H   0  0  0  0  0  0  0  0  0  0  0  0
    1.4101   70.0039   61.8426 H   0  0  0  0  0  0  0  0  0  0  0  0
   -0.6970   69.9015   63.1925 H   0  0  0  0  0  0  0  0  0  0  0  0
   -0.2758   68.3545   62.3931 H   0  0  0  0  0  0  0  0  0  0  0  0
   -0.7167   65.7950   68.3507 H   0  0  0  0  0  0  0  0  0  0  0  0
    2.6671   64.1768   71.7585 H   0  0  0  0  0  0  0  0  0  0  0  0
    2.7269   63.2587   70.2157 H   0  0  0  0  0  0  0  0  0  0  0  0
    3.0012   65.0339   70.2157 H   0  0  0  0  0  0  0  0  0  0  0  0
   -0.8745   65.7285   73.3281 H   0  0  0  0  0  0  0  0  0  0  0  0
    3.6677   70.1032   63.5891 H   0  0  0  0  0  0  0  0  0  0  0  0
    5.9397   69.0814   62.9264 H   0  0  0  0  0  0  0  0  0  0  0  0
    4.8782   68.1937   61.7811 H   0  0  0  0  0  0  0  0  0  0  0  0
    4.8959   69.9899   61.7811 H   0  0  0  0  0  0  0  0  0  0  0  0
    3.4312   68.5416   65.4713 H   0  0  0  0  0  0  0  0  0  0  0  0
    4.5897   67.4563   64.5970 H   0  0  0  0  0  0  0  0  0  0  0  0
    6.3143   68.5633   65.4959 H   0  0  0  0  0  0  0  0  0  0  0  0
    5.7377   70.0837   64.7145 H   0  0  0  0  0  0  0  0  0  0  0  0
    7.1144   70.4651   67.1932 H   0  0  0  0  0  0  0  0  0  0  0  0
    6.5134   71.3375   69.4496 H   0  0  0  0  0  0  0  0  0  0  0  0
    4.1624   71.1813   70.2650 H   0  0  0  0  0  0  0  0  0  0  0  0
    2.4098   70.1535   68.8230 H   0  0  0  0  0  0  0  0  0  0  0  0
    3.0017   69.2755   66.5671 H   0  0  0  0  0  0  0  0  0  0  0  0
  2  1  2  0
  3  2  1  0
  4  3  2  0
  5  4  1  0
  6  5  2  0
  6  1  1  0
  7  5  1  0
  8  7  1  0
  9  8  1  0
 10  9  1  0
 10  4  1  0
 12 11  2  0
 13 11  1  0
 13  1  1  0
 15 11  1  0
 15 14  2  0
 16 15  1  0
 17 16  2  0
 18 16  1  0
 19 14  1  0
 20  8  1  0
 21 20  1  0
 22 20  1  0
 23 22  1  0
 24 23  1  0
 25 24  2  0
 26 25  1  0
 27 26  2  0
 28 27  1  0
 29 28  2  0
 29 24  1  0
  2 30  1  0
  6 31  1  0
  7 32  1  0
  7 33  1  0
  8 34  1  6
  9 35  1  0
  9 36  1  0
 10 37  1  0
 10 38  1  0
 13 39  1  0
 18 40  1  0
 18 41  1  0
 18 42  1  0
 19 43  1  0
 20 44  1  1
 21 45  1  0
 21 46  1  0
 21 47  1  0
 22 48  1  0
 22 49  1  0
 23 50  1  0
 23 51  1  0
 25 52  1  0
 26 53  1  0
 27 54  1  0
 28 55  1  0
 29 56  1  0
M  CHG  1  20   1
M  END
>  <score>  (1) 
-10.108

$$$$
=
     RDKit          3D

 56 58  0  0  0  0  0  0  0  0999 V2000
    0.4070   68.5040   63.5320 C   0  0  0  0  0  0  0  0  0  0  0  0
    0.3080   69.3790   62.4520 C   0  0  0  0  0  0  0  0  0  0  0  0
    1.2960   69.6000   61.5490 N   0  0  0  0  0  0  0  0  0  0  0  0
    2.4350   68.9030   61.7060 C   0  0  0  0  0  0  0  0  0  0  0  0
    2.6400   68.0070   62.7550 C   0  0  0  0  0  0  0  0  0  0  0  0
    1.6030   67.8010   63.6700 C   0  0  0  0  0  0  0  0  0  0  0  0
    3.9370   67.2550   62.8290 C   0  0  0  0  0  0  0  0  0  0  0  0
    5.1580   68.1190   62.4230 C   0  0  1  0  0  0  0  0  0  0  0  0
    4.8580   69.2880   61.4610 C   0  0  0  0  0  0  0  0  0  0  0  0
    3.5420   69.1060   60.7080 C   0  0  0  0  0  0  0  0  0  0  0  0
   -0.7080   68.5950   65.7630 C   0  0  0  0  0  0  0  0  0  0  0  0
    0.1840   69.0480   66.4640 O   0  0  0  0  0  0  0  0  0  0  0  0
   -0.6890   68.3630   64.4010 N   0  0  0  0  0  0  0  0  0  0  0  0
   -3.0430   69.0640   66.1400 N   0  0  0  0  0  0  0  0  0  0  0  0
   -2.0400   68.2680   66.4030 C   0  0  0  0  0  0  0  0  0  0  0  0
   -2.1610   67.0560   67.2870 C   0  0  0  0  0  0  0  0  0  0  0  0
   -3.0240   66.2270   67.0290 O   0  0  0  0  0  0  0  0  0  0  0  0
   -1.1480   66.9330   68.3840 C   0  0  0  0  0  0  0  0  0  0  0  0
   -4.2090   68.6430   66.7920 O   0  0  0  0  0  0  0  0  0  0  0  0
    5.9290   68.6080   63.6720 N   0  0  2  0  0  4  0  0  0  0  0  0
    6.2600   67.5300   64.6810 C   0  0  0  0  0  0  0  0  0  0  0  0
    5.2640   69.8260   64.3110 C   0  0  0  0  0  0  0  0  0  0  0  0
    4.3530   69.4250   65.4770 C   0  0  0  0  0  0  0  0  0  0  0  0
    4.8900   69.9640   66.7770 C   0  0  0  0  0  0  0  0  0  0  0  0
    6.2420   70.3150   66.8960 C   0  0  0  0  0  0  0  0  0  0  0  0
    6.7450   70.7840   68.1100 C   0  0  0  0  0  0  0  0  0  0  0  0
    5.9040   70.9060   69.2140 C   0  0  0  0  0  0  0  0  0  0  0  0
    4.5590   70.5610   69.1060 C   0  0  0  0  0  0  0  0  0  0  0  0
    4.0520   70.0910   67.8930 C   0  0  0  0  0  0  0  0  0  0  0  0
   -0.6362   69.9283   62.3228 H   0  0  0  0  0  0  0  0  0  0  0  0
    1.7305   67.0863   64.4964 H   0  0  0  0  0  0  0  0  0  0  0  0
    4.0819   66.9056   63.8619 H   0  0  0  0  0  0  0  0  0  0  0  0
    3.8742   66.4172   62.1190 H   0  0  0  0  0  0  0  0  0  0  0  0
    5.7944   67.4402   61.8364 H   0  0  0  0  0  0  0  0  0  0  0  0
    4.8044   70.2192   62.0441 H   0  0  0  0  0  0  0  0  0  0  0  0
    5.6663   69.3219   60.7157 H   0  0  0  0  0  0  0  0  0  0  0  0
    3.3351   70.0016   60.1038 H   0  0  0  0  0  0  0  0  0  0  0  0
    3.6101   68.2322   60.0433 H   0  0  0  0  0  0  0  0  0  0  0  0
   -1.5745   68.0529   63.9760 H   0  0  0  0  0  0  0  0  0  0  0  0
   -1.6539   66.9944   69.3588 H   0  0  0  0  0  0  0  0  0  0  0  0
   -0.6314   65.9655   68.2993 H   0  0  0  0  0  0  0  0  0  0  0  0
   -0.4149   67.7487   68.2993 H   0  0  0  0  0  0  0  0  0  0  0  0
   -5.0496   69.1544   66.6824 H   0  0  0  0  0  0  0  0  0  0  0  0
    6.8482   68.9053   63.3149 H   0  0  0  0  0  0  0  0  0  0  0  0
    6.1372   67.9299   65.6984 H   0  0  0  0  0  0  0  0  0  0  0  0
    5.5831   66.6746   64.5391 H   0  0  0  0  0  0  0  0  0  0  0  0
    7.3003   67.2019   64.5391 H   0  0  0  0  0  0  0  0  0  0  0  0
    6.0453   70.5039   64.6852 H   0  0  0  0  0  0  0  0  0  0  0  0
    4.6469   70.3214   63.5469 H   0  0  0  0  0  0  0  0  0  0  0  0
    3.3455   69.8317   65.3054 H   0  0  0  0  0  0  0  0  0  0  0  0
    4.3144   68.3273   65.5364 H   0  0  0  0  0  0  0  0  0  0  0  0
    6.9101   70.2201   66.0273 H   0  0  0  0  0  0  0  0  0  0  0  0
    7.8069   71.0578   68.1955 H   0  0  0  0  0  0  0  0  0  0  0  0
    6.3022   71.2747   70.1708 H   0  0  0  0  0  0  0  0  0  0  0  0
    3.8952   70.6590   69.9776 H   0  0  0  0  0  0  0  0  0  0  0  0
    2.9892   69.8190   67.8129 H   0  0  0  0  0  0  0  0  0  0  0  0
  2  1  2  0
  3  2  1  0
  4  3  2  0
  5  4  1  0
  6  5  2  0
  6  1  1  0
  7  5  1  0
  8  7  1  0
  9  8  1  0
 10  9  1  0
 10  4  1  0
 12 11  2  0
 13 11  1  0
 13  1  1  0
 15 11  1  0
 15 14  2  0
 16 15  1  0
 17 16  2  0
 18 16  1  0
 19 14  1  0
 20  8  1  0
 21 20  1  0
 22 20  1  0
 23 22  1  0
 24 23  1  0
 25 24  2  0
 26 25  1  0
 27 26  2  0
 28 27  1  0
 29 28  2  0
 29 24  1  0
  2 30  1  0
  6 31  1  0
  7 32  1  0
  7 33  1  0
  8 34  1  6
  9 35  1  0
  9 36  1  0
 10 37  1  0
 10 38  1  0
 13 39  1  0
 18 40  1  0
 18 41  1  0
 18 42  1  0
 19 43  1  0
 20 44  1  6
 21 45  1  0
 21 46  1  0
 21 47  1  0
 22 48  1  0
 22 49  1  0
 23 50  1  0
 23 51  1  0
 25 52  1  0
 26 53  1  0
 27 54  1  0
 28 55  1  0
 29 56  1  0
M  CHG  1  20   1
M  END
>  <score>  (2) 
-9.231

$$$$
=
     RDKit          3D

 56 58  0  0  0  0  0  0  0  0999 V2000
    0.3470   65.2460   70.6500 C   0  0  0  0  0  0  0  0  0  0  0  0
   -0.3320   65.8130   71.7260 C   0  0  0  0  0  0  0  0  0  0  0  0
   -0.2690   65.3540   73.0020 N   0  0  0  0  0  0  0  0  0  0  0  0
    0.5260   64.2940   73.2310 C   0  0  0  0  0  0  0  0  0  0  0  0
    1.2430   63.6490   72.2240 C   0  0  0  0  0  0  0  0  0  0  0  0
    1.1580   64.1440   70.9200 C   0  0  0  0  0  0  0  0  0  0  0  0
    2.1260   62.4890   72.5860 C   0  0  0  0  0  0  0  0  0  0  0  0
    1.5020   61.5750   73.6720 C   0  0  1  0  0  0  0  0  0  0  0  0
    0.4910   62.2550   74.6180 C   0  0  0  0  0  0  0  0  0  0  0  0
    0.6370   63.7750   74.6390 C   0  0  0  0  0  0  0  0  0  0  0  0
    0.7700   66.9830   68.9080 C   0  0  0  0  0  0  0  0  0  0  0  0
    1.5790   67.7040   69.4720 O   0  0  0  0  0  0  0  0  0  0  0  0
    0.1980   65.8140   69.3720 N   0  0  0  0  0  0  0  0  0  0  0  0
    1.1200   66.9840   66.5220 N   0  0  0  0  0  0  0  0  0  0  0  0
    0.3330   67.3420   67.5040 C   0  0  0  0  0  0  0  0  0  0  0  0
   -0.9680   68.0670   67.2940 C   0  0  0  0  0  0  0  0  0  0  0  0
   -0.9380   69.2590   67.0180 O   0  0  0  0  0  0  0  0  0  0  0  0
   -2.2100   67.2320   67.3720 C   0  0  0  0  0  0  0  0  0  0  0  0
    0.5940   67.3750   65.2850 O   0  0  0  0  0  0  0  0  0  0  0  0
    0.9020   60.2960   73.0400 N   0  0  2  0  0  4  0  0  0  0  0  0
   -0.5740   60.0860   73.3000 C   0  0  0  0  0  0  0  0  0  0  0  0
    1.7370   59.0570   73.3630 C   0  0  0  0  0  0  0  0  0  0  0  0
    2.3860   58.4700   72.1050 C   0  0  0  0  0  0  0  0  0  0  0  0
    3.3990   59.4300   71.5370 C   0  0  0  0  0  0  0  0  0  0  0  0
    4.4730   59.8740   72.3210 C   0  0  0  0  0  0  0  0  0  0  0  0
    5.3930   60.7880   71.8040 C   0  0  0  0  0  0  0  0  0  0  0  0
    5.2480   61.2650   70.5030 C   0  0  0  0  0  0  0  0  0  0  0  0
    4.1850   60.8290   69.7160 C   0  0  0  0  0  0  0  0  0  0  0  0
    3.2620   59.9160   70.2300 C   0  0  0  0  0  0  0  0  0  0  0  0
   -0.9622   66.6926   71.5283 H   0  0  0  0  0  0  0  0  0  0  0  0
    1.7284   63.6664   70.1097 H   0  0  0  0  0  0  0  0  0  0  0  0
    2.3057   61.8885   71.6820 H   0  0  0  0  0  0  0  0  0  0  0  0
    3.0607   62.8994   72.9956 H   0  0  0  0  0  0  0  0  0  0  0  0
    2.3458   61.3064   74.3246 H   0  0  0  0  0  0  0  0  0  0  0  0
   -0.5269   62.0034   74.2855 H   0  0  0  0  0  0  0  0  0  0  0  0
    0.6878   61.8873   75.6359 H   0  0  0  0  0  0  0  0  0  0  0  0
   -0.1590   64.2140   75.2584 H   0  0  0  0  0  0  0  0  0  0  0  0
    1.6145   64.0500   75.0620 H   0  0  0  0  0  0  0  0  0  0  0  0
   -0.4030   65.3028   68.7099 H   0  0  0  0  0  0  0  0  0  0  0  0
   -2.4691   67.0578   68.4268 H   0  0  0  0  0  0  0  0  0  0  0  0
   -3.0374   67.7580   66.8732 H   0  0  0  0  0  0  0  0  0  0  0  0
   -2.0352   66.2673   66.8732 H   0  0  0  0  0  0  0  0  0  0  0  0
    1.0856   67.1691   64.4507 H   0  0  0  0  0  0  0  0  0  0  0  0
    0.9551   60.4538   72.0236 H   0  0  0  0  0  0  0  0  0  0  0  0
   -0.7552   60.0602   74.3847 H   0  0  0  0  0  0  0  0  0  0  0  0
   -1.1463   60.9118   72.8522 H   0  0  0  0  0  0  0  0  0  0  0  0
   -0.8933   59.1334   72.8522 H   0  0  0  0  0  0  0  0  0  0  0  0
    2.5274   59.3351   74.0757 H   0  0  0  0  0  0  0  0  0  0  0  0
    1.0700   58.2954   73.7932 H   0  0  0  0  0  0  0  0  0  0  0  0
    2.8874   57.5256   72.3633 H   0  0  0  0  0  0  0  0  0  0  0  0
    1.6044   58.2907   71.3520 H   0  0  0  0  0  0  0  0  0  0  0  0
    4.5915   59.5003   73.3488 H   0  0  0  0  0  0  0  0  0  0  0  0
    6.2335   61.1320   72.4247 H   0  0  0  0  0  0  0  0  0  0  0  0
    5.9731   61.9859   70.0975 H   0  0  0  0  0  0  0  0  0  0  0  0
    4.0724   61.2043   68.6882 H   0  0  0  0  0  0  0  0  0  0  0  0
    2.4227   59.5764   69.6054 H   0  0  0  0  0  0  0  0  0  0  0  0
  2  1  2  0
  3  2  1  0
  4  3  2  0
  5  4  1  0
  6  5  2  0
  6  1  1  0
  7  5  1  0
  8  7  1  0
  9  8  1  0
 10  9  1  0
 10  4  1  0
 12 11  2  0
 13 11  1  0
 13  1  1  0
 15 11  1  0
 15 14  2  0
 16 15  1  0
 17 16  2  0
 18 16  1  0
 19 14  1  0
 20  8  1  0
 21 20  1  0
 22 20  1  0
 23 22  1  0
 24 23  1  0
 25 24  2  0
 26 25  1  0
 27 26  2  0
 28 27  1  0
 29 28  2  0
 29 24  1  0
  2 30  1  0
  6 31  1  0
  7 32  1  0
  7 33  1  0
  8 34  1  1
  9 35  1  0
  9 36  1  0
 10 37  1  0
 10 38  1  0
 13 39  1  0
 18 40  1  0
 18 41  1  0
 18 42  1  0
 19 43  1  0
 20 44  1  6
 21 45  1  0
 21 46  1  0
 21 47  1  0
 22 48  1  0
 22 49  1  0
 23 50  1  0
 23 51  1  0
 25 52  1  0
 26 53  1  0
 27 54  1  0
 28 55  1  0
 29 56  1  0
M  CHG  1  20   1
M  END
>  <score>  (3) 
-9.101

$$$$
=
     RDKit          3D

 56 58  0  0  0  0  0  0  0  0999 V2000
    1.4070   67.7950   65.4100 C   0  0  0  0  0  0  0  0  0  0  0  0
    0.0250   67.9280   65.2900 C   0  0  0  0  0  0  0  0  0  0  0  0
   -0.8550   67.7520   66.3080 N   0  0  0  0  0  0  0  0  0  0  0  0
   -0.3420   67.4510   67.5140 C   0  0  0  0  0  0  0  0  0  0  0  0
    1.0250   67.2900   67.7410 C   0  0  0  0  0  0  0  0  0  0  0  0
    1.9060   67.4780   66.6720 C   0  0  0  0  0  0  0  0  0  0  0  0
    1.5020   66.9820   69.1300 C   0  0  0  0  0  0  0  0  0  0  0  0
    0.5660   66.0030   69.8850 C   0  0  1  0  0  0  0  0  0  0  0  0
   -0.9080   66.0030   69.4280 C   0  0  0  0  0  0  0  0  0  0  0  0
   -1.2880   67.2730   68.6700 C   0  0  0  0  0  0  0  0  0  0  0  0
    1.8770   68.6930   63.1290 C   0  0  0  0  0  0  0  0  0  0  0  0
    0.8590   69.3290   62.9010 O   0  0  0  0  0  0  0  0  0  0  0  0
    2.2150   68.0030   64.2770 N   0  0  0  0  0  0  0  0  0  0  0  0
    2.6500   69.0960   60.8810 N   0  0  0  0  0  0  0  0  0  0  0  0
    2.9600   68.6540   62.0720 C   0  0  0  0  0  0  0  0  0  0  0  0
    4.3270   68.1370   62.4280 C   0  0  0  0  0  0  0  0  0  0  0  0
    4.5950   66.9680   62.1820 O   0  0  0  0  0  0  0  0  0  0  0  0
    5.2850   69.1370   63.0010 C   0  0  0  0  0  0  0  0  0  0  0  0
    3.7410   69.0060   60.0080 O   0  0  0  0  0  0  0  0  0  0  0  0
    1.1500   64.5700   69.8880 N   0  0  2  0  0  4  0  0  0  0  0  0
    0.3410   63.5520   70.6610 C   0  0  0  0  0  0  0  0  0  0  0  0
    2.6290   64.5600   70.2750 C   0  0  0  0  0  0  0  0  0  0  0  0
    3.4450   63.6420   69.3590 C   0  0  0  0  0  0  0  0  0  0  0  0
    3.8240   62.3760   70.0820 C   0  0  0  0  0  0  0  0  0  0  0  0
    4.8610   62.3800   71.0250 C   0  0  0  0  0  0  0  0  0  0  0  0
    5.2330   61.1990   71.6710 C   0  0  0  0  0  0  0  0  0  0  0  0
    4.5730   60.0070   71.3800 C   0  0  0  0  0  0  0  0  0  0  0  0
    3.5410   59.9930   70.4450 C   0  0  0  0  0  0  0  0  0  0  0  0
    3.1670   61.1710   69.7970 C   0  0  0  0  0  0  0  0  0  0  0  0
   -0.3803   68.1938   64.3026 H   0  0  0  0  0  0  0  0  0  0  0  0
    2.9903   67.3760   66.8266 H   0  0  0  0  0  0  0  0  0  0  0  0
    2.5033   66.5312   69.0656 H   0  0  0  0  0  0  0  0  0  0  0  0
    1.5147   67.9273   69.6924 H   0  0  0  0  0  0  0  0  0  0  0  0
    0.5319   66.3911   70.9137 H   0  0  0  0  0  0  0  0  0  0  0  0
   -1.0727   65.1373   68.7697 H   0  0  0  0  0  0  0  0  0  0  0  0
   -1.5362   65.9526   70.3295 H   0  0  0  0  0  0  0  0  0  0  0  0
   -2.3180   67.1847   68.2942 H   0  0  0  0  0  0  0  0  0  0  0  0
   -1.2238   68.1417   69.3418 H   0  0  0  0  0  0  0  0  0  0  0  0
    3.1610   67.5967   64.3068 H   0  0  0  0  0  0  0  0  0  0  0  0
    5.2451   69.0953   64.0995 H   0  0  0  0  0  0  0  0  0  0  0  0
    6.3051   68.9035   62.6620 H   0  0  0  0  0  0  0  0  0  0  0  0
    5.0080   70.1461   62.6620 H   0  0  0  0  0  0  0  0  0  0  0  0
    3.6498   69.3064   59.0691 H   0  0  0  0  0  0  0  0  0  0  0  0
    1.0792   64.2537   68.9103 H   0  0  0  0  0  0  0  0  0  0  0  0
    0.4746   63.7201   71.7398 H   0  0  0  0  0  0  0  0  0  0  0  0
   -0.7231   63.6566   70.4026 H   0  0  0  0  0  0  0  0  0  0  0  0
    0.6832   62.5390   70.4026 H   0  0  0  0  0  0  0  0  0  0  0  0
    3.0249   65.5835   70.1992 H   0  0  0  0  0  0  0  0  0  0  0  0
    2.7129   64.1819   71.3046 H   0  0  0  0  0  0  0  0  0  0  0  0
    2.8439   63.3871   68.4737 H   0  0  0  0  0  0  0  0  0  0  0  0
    4.3630   64.1669   69.0561 H   0  0  0  0  0  0  0  0  0  0  0  0
    5.3849   63.3188   71.2576 H   0  0  0  0  0  0  0  0  0  0  0  0
    6.0476   61.2099   72.4101 H   0  0  0  0  0  0  0  0  0  0  0  0
    4.8670   59.0771   71.8887 H   0  0  0  0  0  0  0  0  0  0  0  0
    3.0197   59.0516   70.2168 H   0  0  0  0  0  0  0  0  0  0  0  0
    2.3520   61.1538   69.0584 H   0  0  0  0  0  0  0  0  0  0  0  0
  2  1  2  0
  3  2  1  0
  4  3  2  0
  5  4  1  0
  6  5  2  0
  6  1  1  0
  7  5  1  0
  8  7  1  0
  9  8  1  0
 10  9  1  0
 10  4  1  0
 12 11  2  0
 13 11  1  0
 13  1  1  0
 15 11  1  0
 15 14  2  0
 16 15  1  0
 17 16  2  0
 18 16  1  0
 19 14  1  0
 20  8  1  0
 21 20  1  0
 22 20  1  0
 23 22  1  0
 24 23  1  0
 25 24  2  0
 26 25  1  0
 27 26  2  0
 28 27  1  0
 29 28  2  0
 29 24  1  0
  2 30  1  0
  6 31  1  0
  7 32  1  0
  7 33  1  0
  8 34  1  1
  9 35  1  0
  9 36  1  0
 10 37  1  0
 10 38  1  0
 13 39  1  0
 18 40  1  0
 18 41  1  0
 18 42  1  0
 19 43  1  0
 20 44  1  6
 21 45  1  0
 21 46  1  0
 21 47  1  0
 22 48  1  0
 22 49  1  0
 23 50  1  0
 23 51  1  0
 25 52  1  0
 26 53  1  0
 27 54  1  0
 28 55  1  0
 29 56  1  0
M  CHG  1  20   1
M  END
>  <score>  (4) 
-8.829

$$$$
=
     RDKit          3D

 56 58  0  0  0  0  0  0  0  0999 V2000
    3.1650   58.9250   72.0350 C   0  0  0  0  0  0  0  0  0  0  0  0
    3.3890   58.6770   70.6820 C   0  0  0  0  0  0  0  0  0  0  0  0
    3.5610   59.6400   69.7420 N   0  0  0  0  0  0  0  0  0  0  0  0
    3.5350   60.9160   70.1630 C   0  0  0  0  0  0  0  0  0  0  0  0
    3.3130   61.2750   71.4930 C   0  0  0  0  0  0  0  0  0  0  0  0
    3.1380   60.2590   72.4380 C   0  0  0  0  0  0  0  0  0  0  0  0
    3.3300   62.7280   71.8690 C   0  0  0  0  0  0  0  0  0  0  0  0
    2.6680   63.6340   70.7990 C   0  0  1  0  0  0  0  0  0  0  0  0
    2.6850   63.0860   69.3570 C   0  0  0  0  0  0  0  0  0  0  0  0
    3.7480   62.0090   69.1500 C   0  0  0  0  0  0  0  0  0  0  0  0
    1.8230   57.4120   73.4960 C   0  0  0  0  0  0  0  0  0  0  0  0
    0.6900   57.8290   73.3060 O   0  0  0  0  0  0  0  0  0  0  0  0
    2.9990   57.8380   72.9110 N   0  0  0  0  0  0  0  0  0  0  0  0
    2.5600   56.5220   75.6130 N   0  0  0  0  0  0  0  0  0  0  0  0
    2.0190   56.2550   74.4520 C   0  0  0  0  0  0  0  0  0  0  0  0
    1.5810   54.8740   74.0470 C   0  0  0  0  0  0  0  0  0  0  0  0
    2.4340   54.0640   73.7090 O   0  0  0  0  0  0  0  0  0  0  0  0
    0.1160   54.5840   74.1630 C   0  0  0  0  0  0  0  0  0  0  0  0
    2.6780   55.3660   76.3940 O   0  0  0  0  0  0  0  0  0  0  0  0
    1.2370   64.0390   71.2260 N   0  0  2  0  0  4  0  0  0  0  0  0
    0.3860   62.9090   71.7650 C   0  0  0  0  0  0  0  0  0  0  0  0
    0.5240   64.8410   70.1360 C   0  0  0  0  0  0  0  0  0  0  0  0
    1.0780   66.2650   70.0310 C   0  0  0  0  0  0  0  0  0  0  0  0
    0.4560   66.9900   68.8660 C   0  0  0  0  0  0  0  0  0  0  0  0
   -0.8340   66.6570   68.4300 C   0  0  0  0  0  0  0  0  0  0  0  0
   -1.3970   67.3060   67.3300 C   0  0  0  0  0  0  0  0  0  0  0  0
   -0.6760   68.2920   66.6570 C   0  0  0  0  0  0  0  0  0  0  0  0
    0.6060   68.6300   67.0830 C   0  0  0  0  0  0  0  0  0  0  0  0
    1.1720   67.9820   68.1820 C   0  0  0  0  0  0  0  0  0  0  0  0
    3.4291   57.6279   70.3536 H   0  0  0  0  0  0  0  0  0  0  0  0
    2.9794   60.5121   73.4967 H   0  0  0  0  0  0  0  0  0  0  0  0
    2.7879   62.8516   72.8181 H   0  0  0  0  0  0  0  0  0  0  0  0
    4.3827   63.0347   71.9569 H   0  0  0  0  0  0  0  0  0  0  0  0
    3.3093   64.5268   70.7577 H   0  0  0  0  0  0  0  0  0  0  0  0
    1.6983   62.6548   69.1324 H   0  0  0  0  0  0  0  0  0  0  0  0
    2.9244   63.9236   68.6853 H   0  0  0  0  0  0  0  0  0  0  0  0
    3.6613   61.5943   68.1349 H   0  0  0  0  0  0  0  0  0  0  0  0
    4.7504   62.4443   69.2751 H   0  0  0  0  0  0  0  0  0  0  0  0
    3.8471   57.3008   73.1416 H   0  0  0  0  0  0  0  0  0  0  0  0
   -0.1638   54.5286   75.2254 H   0  0  0  0  0  0  0  0  0  0  0  0
   -0.4564   55.3863   73.6744 H   0  0  0  0  0  0  0  0  0  0  0  0
   -0.1076   53.6242   73.6744 H   0  0  0  0  0  0  0  0  0  0  0  0
    3.0719   55.4193   77.3007 H   0  0  0  0  0  0  0  0  0  0  0  0
    1.3697   64.6596   72.0372 H   0  0  0  0  0  0  0  0  0  0  0  0
    0.4020   62.9303   72.8647 H   0  0  0  0  0  0  0  0  0  0  0  0
   -0.6486   63.0281   71.4110 H   0  0  0  0  0  0  0  0  0  0  0  0
    0.7863   61.9475   71.4110 H   0  0  0  0  0  0  0  0  0  0  0  0
    0.6616   64.3322   69.1705 H   0  0  0  0  0  0  0  0  0  0  0  0
   -0.5425   64.9049   70.3975 H   0  0  0  0  0  0  0  0  0  0  0  0
    0.8518   66.8105   70.9590 H   0  0  0  0  0  0  0  0  0  0  0  0
    2.1659   66.2124   69.8768 H   0  0  0  0  0  0  0  0  0  0  0  0
   -1.4059   65.8797   68.9579 H   0  0  0  0  0  0  0  0  0  0  0  0
   -2.4099   67.0396   66.9937 H   0  0  0  0  0  0  0  0  0  0  0  0
   -1.1199   68.8027   65.7897 H   0  0  0  0  0  0  0  0  0  0  0  0
    1.1734   69.4089   66.5526 H   0  0  0  0  0  0  0  0  0  0  0  0
    2.1858   68.2514   68.5132 H   0  0  0  0  0  0  0  0  0  0  0  0
  2  1  2  0
  3  2  1  0
  4  3  2  0
  5  4  1  0
  6  5  2  0
  6  1  1  0
  7  5  1  0
  8  7  1  0
  9  8  1  0
 10  9  1  0
 10  4  1  0
 12 11  2  0
 13 11  1  0
 13  1  1  0
 15 11  1  0
 15 14  2  0
 16 15  1  0
 17 16  2  0
 18 16  1  0
 19 14  1  0
 20  8  1  0
 21 20  1  0
 22 20  1  0
 23 22  1  0
 24 23  1  0
 25 24  2  0
 26 25  1  0
 27 26  2  0
 28 27  1  0
 29 28  2  0
 29 24  1  0
  2 30  1  0
  6 31  1  0
  7 32  1  0
  7 33  1  0
  8 34  1  6
  9 35  1  0
  9 36  1  0
 10 37  1  0
 10 38  1  0
 13 39  1  0
 18 40  1  0
 18 41  1  0
 18 42  1  0
 19 43  1  0
 20 44  1  1
 21 45  1  0
 21 46  1  0
 21 47  1  0
 22 48  1  0
 22 49  1  0
 23 50  1  0
 23 51  1  0
 25 52  1  0
 26 53  1  0
 27 54  1  0
 28 55  1  0
 29 56  1  0
M  CHG  1  20   1
M  END
>  <score>  (5) 
-8.728

$$$$
=
     RDKit          3D

 56 58  0  0  0  0  0  0  0  0999 V2000
    3.1100   58.6840   72.0950 C   0  0  0  0  0  0  0  0  0  0  0  0
    3.4930   58.3770   70.7910 C   0  0  0  0  0  0  0  0  0  0  0  0
    3.7560   59.2980   69.8310 N   0  0  0  0  0  0  0  0  0  0  0  0
    3.6580   60.5920   70.1820 C   0  0  0  0  0  0  0  0  0  0  0  0
    3.2780   61.0080   71.4580 C   0  0  0  0  0  0  0  0  0  0  0  0
    3.0130   60.0350   72.4260 C   0  0  0  0  0  0  0  0  0  0  0  0
    3.2250   62.4770   71.7610 C   0  0  0  0  0  0  0  0  0  0  0  0
    2.6760   63.3160   70.5790 C   0  0  1  0  0  0  0  0  0  0  0  0
    2.8700   62.7010   69.1770 C   0  0  0  0  0  0  0  0  0  0  0  0
    3.9670   61.6400   69.1470 C   0  0  0  0  0  0  0  0  0  0  0  0
    1.6920   57.3900   73.6900 C   0  0  0  0  0  0  0  0  0  0  0  0
    0.6210   57.9690   73.5920 O   0  0  0  0  0  0  0  0  0  0  0  0
    2.8630   57.6360   73.0010 N   0  0  0  0  0  0  0  0  0  0  0  0
    2.1450   56.4820   75.8780 N   0  0  0  0  0  0  0  0  0  0  0  0
    1.7990   56.2200   74.6440 C   0  0  0  0  0  0  0  0  0  0  0  0
    1.4940   54.8310   74.1530 C   0  0  0  0  0  0  0  0  0  0  0  0
    2.4260   54.0760   73.9120 O   0  0  0  0  0  0  0  0  0  0  0  0
    0.0440   54.4640   74.0680 C   0  0  0  0  0  0  0  0  0  0  0  0
    2.2010   55.3140   76.6480 O   0  0  0  0  0  0  0  0  0  0  0  0
    1.1980   63.7080   70.8180 N   0  0  2  0  0  4  0  0  0  0  0  0
    0.8680   65.1580   70.5380 C   0  0  0  0  0  0  0  0  0  0  0  0
    0.7020   63.2470   72.1890 C   0  0  0  0  0  0  0  0  0  0  0  0
   -0.5120   62.3210   72.0680 C   0  0  0  0  0  0  0  0  0  0  0  0
   -0.7430   61.5800   73.3590 C   0  0  0  0  0  0  0  0  0  0  0  0
    0.2380   61.5760   74.3600 C   0  0  0  0  0  0  0  0  0  0  0  0
    0.0370   60.8620   75.5430 C   0  0  0  0  0  0  0  0  0  0  0  0
   -1.1450   60.1490   75.7340 C   0  0  0  0  0  0  0  0  0  0  0  0
   -2.1260   60.1470   74.7460 C   0  0  0  0  0  0  0  0  0  0  0  0
   -1.9270   60.8590   73.5620 C   0  0  0  0  0  0  0  0  0  0  0  0
    3.5886   57.3147   70.5218 H   0  0  0  0  0  0  0  0  0  0  0  0
    2.7288   60.3342   73.4457 H   0  0  0  0  0  0  0  0  0  0  0  0
    2.5741   62.6323   72.6341 H   0  0  0  0  0  0  0  0  0  0  0  0
    4.2548   62.8121   71.9541 H   0  0  0  0  0  0  0  0  0  0  0  0
    3.3019   64.2205   70.5678 H   0  0  0  0  0  0  0  0  0  0  0  0
    1.9234   62.2378   68.8616 H   0  0  0  0  0  0  0  0  0  0  0  0
    3.1721   63.5113   68.4971 H   0  0  0  0  0  0  0  0  0  0  0  0
    4.0047   61.1755   68.1506 H   0  0  0  0  0  0  0  0  0  0  0  0
    4.9407   62.1035   69.3642 H   0  0  0  0  0  0  0  0  0  0  0  0
    3.6403   56.9812   73.1684 H   0  0  0  0  0  0  0  0  0  0  0  0
   -0.3679   54.3597   75.0826 H   0  0  0  0  0  0  0  0  0  0  0  0
   -0.5027   55.2521   73.5295 H   0  0  0  0  0  0  0  0  0  0  0  0
   -0.0620   53.5107   73.5295 H   0  0  0  0  0  0  0  0  0  0  0  0
    2.4508   55.3633   77.6047 H   0  0  0  0  0  0  0  0  0  0  0  0
    0.6683   63.1899   70.1026 H   0  0  0  0  0  0  0  0  0  0  0  0
    0.7455   65.6965   71.4893 H   0  0  0  0  0  0  0  0  0  0  0  0
    1.6851   65.6151   69.9606 H   0  0  0  0  0  0  0  0  0  0  0  0
   -0.0664   65.2165   69.9606 H   0  0  0  0  0  0  0  0  0  0  0  0
    1.5133   62.7069   72.6989 H   0  0  0  0  0  0  0  0  0  0  0  0
    0.4004   64.1361   72.7623 H   0  0  0  0  0  0  0  0  0  0  0  0
   -1.4027   62.9214   71.8312 H   0  0  0  0  0  0  0  0  0  0  0  0
   -0.3228   61.5901   71.2680 H   0  0  0  0  0  0  0  0  0  0  0  0
    1.1717   62.1386   74.2128 H   0  0  0  0  0  0  0  0  0  0  0  0
    0.8116   60.8623   76.3241 H   0  0  0  0  0  0  0  0  0  0  0  0
   -1.3031   59.5872   76.6664 H   0  0  0  0  0  0  0  0  0  0  0  0
   -3.0586   59.5839   74.8986 H   0  0  0  0  0  0  0  0  0  0  0  0
   -2.7044   60.8540   72.7837 H   0  0  0  0  0  0  0  0  0  0  0  0
  2  1  2  0
  3  2  1  0
  4  3  2  0
  5  4  1  0
  6  5  2  0
  6  1  1  0
  7  5  1  0
  8  7  1  0
  9  8  1  0
 10  9  1  0
 10  4  1  0
 12 11  2  0
 13 11  1  0
 13  1  1  0
 15 11  1  0
 15 14  2  0
 16 15  1  0
 17 16  2  0
 18 16  1  0
 19 14  1  0
 20  8  1  0
 21 20  1  0
 22 20  1  0
 23 22  1  0
 24 23  1  0
 25 24  2  0
 26 25  1  0
 27 26  2  0
 28 27  1  0
 29 28  2  0
 29 24  1  0
  2 30  1  0
  6 31  1  0
  7 32  1  0
  7 33  1  0
  8 34  1  6
  9 35  1  0
  9 36  1  0
 10 37  1  0
 10 38  1  0
 13 39  1  0
 18 40  1  0
 18 41  1  0
 18 42  1  0
 19 43  1  0
 20 44  1  6
 21 45  1  0
 21 46  1  0
 21 47  1  0
 22 48  1  0
 22 49  1  0
 23 50  1  0
 23 51  1  0
 25 52  1  0
 26 53  1  0
 27 54  1  0
 28 55  1  0
 29 56  1  0
M  CHG  1  20   1
M  END
>  <score>  (6) 
-8.393

$$$$
=
     RDKit          3D

 56 58  0  0  0  0  0  0  0  0999 V2000
    1.7700   67.5970   65.6770 C   0  0  0  0  0  0  0  0  0  0  0  0
    0.4310   67.3130   65.4150 C   0  0  0  0  0  0  0  0  0  0  0  0
   -0.4990   67.0490   66.3670 N   0  0  0  0  0  0  0  0  0  0  0  0
   -0.0910   67.0900   67.6470 C   0  0  0  0  0  0  0  0  0  0  0  0
    1.2260   67.3590   68.0180 C   0  0  0  0  0  0  0  0  0  0  0  0
    2.1620   67.6270   67.0140 C   0  0  0  0  0  0  0  0  0  0  0  0
    1.5770   67.4110   69.4770 C   0  0  0  0  0  0  0  0  0  0  0  0
    0.8400   66.3310   70.3110 C   0  0  1  0  0  0  0  0  0  0  0  0
   -0.5050   65.8440   69.7350 C   0  0  0  0  0  0  0  0  0  0  0  0
   -1.1030   66.8260   68.7290 C   0  0  0  0  0  0  0  0  0  0  0  0
    3.7590   68.6610   64.6090 C   0  0  0  0  0  0  0  0  0  0  0  0
    4.2680   69.2380   65.5580 O   0  0  0  0  0  0  0  0  0  0  0  0
    2.6390   67.8530   64.6010 N   0  0  0  0  0  0  0  0  0  0  0  0
    5.5150   69.4860   63.1760 N   0  0  0  0  0  0  0  0  0  0  0  0
    4.4200   68.7740   63.2510 C   0  0  0  0  0  0  0  0  0  0  0  0
    3.8150   68.0670   62.0690 C   0  0  0  0  0  0  0  0  0  0  0  0
    4.1090   66.8950   61.8740 O   0  0  0  0  0  0  0  0  0  0  0  0
    2.8310   68.8540   61.2600 C   0  0  0  0  0  0  0  0  0  0  0  0
    6.0190   69.5020   61.8700 O   0  0  0  0  0  0  0  0  0  0  0  0
    1.7770   65.1400   70.6260 N   0  0  2  0  0  4  0  0  0  0  0  0
    2.3650   64.4520   69.4130 C   0  0  0  0  0  0  0  0  0  0  0  0
    1.1380   64.1570   71.6060 C   0  0  0  0  0  0  0  0  0  0  0  0
    1.3210   62.7060   71.1500 C   0  0  0  0  0  0  0  0  0  0  0  0
    0.5380   61.7710   72.0340 C   0  0  0  0  0  0  0  0  0  0  0  0
   -0.7570   62.1070   72.4520 C   0  0  0  0  0  0  0  0  0  0  0  0
   -1.4690   61.2550   73.2980 C   0  0  0  0  0  0  0  0  0  0  0  0
   -0.8940   60.0620   73.7320 C   0  0  0  0  0  0  0  0  0  0  0  0
    0.3920   59.7190   73.3230 C   0  0  0  0  0  0  0  0  0  0  0  0
    1.1070   60.5690   72.4780 C   0  0  0  0  0  0  0  0  0  0  0  0
    0.1058   67.3021   64.3642 H   0  0  0  0  0  0  0  0  0  0  0  0
    3.2038   67.8606   67.2787 H   0  0  0  0  0  0  0  0  0  0  0  0
    2.6611   67.2581   69.5834 H   0  0  0  0  0  0  0  0  0  0  0  0
    1.2644   68.3944   69.8581 H   0  0  0  0  0  0  0  0  0  0  0  0
    0.5652   66.8439   71.2445 H   0  0  0  0  0  0  0  0  0  0  0  0
   -0.3443   64.8788   69.2324 H   0  0  0  0  0  0  0  0  0  0  0  0
   -1.2125   65.7524   70.5723 H   0  0  0  0  0  0  0  0  0  0  0  0
   -2.0126   66.3937   68.2866 H   0  0  0  0  0  0  0  0  0  0  0  0
   -1.3623   67.7675   69.2353 H   0  0  0  0  0  0  0  0  0  0  0  0
    2.4157   67.3871   63.7100 H   0  0  0  0  0  0  0  0  0  0  0  0
    2.1525   69.3967   61.9346 H   0  0  0  0  0  0  0  0  0  0  0  0
    3.3698   69.5731   60.6255 H   0  0  0  0  0  0  0  0  0  0  0  0
    2.2479   68.1703   60.6255 H   0  0  0  0  0  0  0  0  0  0  0  0
    6.8472   70.0042   61.6652 H   0  0  0  0  0  0  0  0  0  0  0  0
    2.5925   65.5617   71.0930 H   0  0  0  0  0  0  0  0  0  0  0  0
    3.0475   63.6534   69.7393 H   0  0  0  0  0  0  0  0  0  0  0  0
    1.5547   64.0177   68.8090 H   0  0  0  0  0  0  0  0  0  0  0  0
    2.9202   65.1848   68.8090 H   0  0  0  0  0  0  0  0  0  0  0  0
    1.6061   64.2825   72.5935 H   0  0  0  0  0  0  0  0  0  0  0  0
    0.0597   64.3695   71.6522 H   0  0  0  0  0  0  0  0  0  0  0  0
    0.9669   62.6052   70.1134 H   0  0  0  0  0  0  0  0  0  0  0  0
    2.3878   62.4454   71.2141 H   0  0  0  0  0  0  0  0  0  0  0  0
   -1.2148   63.0474   72.1114 H   0  0  0  0  0  0  0  0  0  0  0  0
   -2.4847   61.5255   73.6224 H   0  0  0  0  0  0  0  0  0  0  0  0
   -1.4564   59.3910   74.3980 H   0  0  0  0  0  0  0  0  0  0  0  0
    0.8449   58.7771   73.6662 H   0  0  0  0  0  0  0  0  0  0  0  0
    2.1231   60.2942   72.1584 H   0  0  0  0  0  0  0  0  0  0  0  0
  2  1  2  0
  3  2  1  0
  4  3  2  0
  5  4  1  0
  6  5  2  0
  6  1  1  0
  7  5  1  0
  8  7  1  0
  9  8  1  0
 10  9  1  0
 10  4  1  0
 12 11  2  0
 13 11  1  0
 13  1  1  0
 15 11  1  0
 15 14  2  0
 16 15  1  0
 17 16  2  0
 18 16  1  0
 19 14  1  0
 20  8  1  0
 21 20  1  0
 22 20  1  0
 23 22  1  0
 24 23  1  0
 25 24  2  0
 26 25  1  0
 27 26  2  0
 28 27  1  0
 29 28  2  0
 29 24  1  0
  2 30  1  0
  6 31  1  0
  7 32  1  0
  7 33  1  0
  8 34  1  1
  9 35  1  0
  9 36  1  0
 10 37  1  0
 10 38  1  0
 13 39  1  0
 18 40  1  0
 18 41  1  0
 18 42  1  0
 19 43  1  0
 20 44  1  1
 21 45  1  0
 21 46  1  0
 21 47  1  0
 22 48  1  0
 22 49  1  0
 23 50  1  0
 23 51  1  0
 25 52  1  0
 26 53  1  0
 27 54  1  0
 28 55  1  0
 29 56  1  0
M  CHG  1  20   1
M  END
>  <score>  (7) 
-7.773

$$$$
=
     RDKit          3D

 56 58  0  0  0  0  0  0  0  0999 V2000
    0.2960   65.2880   70.5210 C   0  0  0  0  0  0  0  0  0  0  0  0
   -0.3170   65.9500   71.5830 C   0  0  0  0  0  0  0  0  0  0  0  0
   -0.2910   65.5250   72.8710 N   0  0  0  0  0  0  0  0  0  0  0  0
    0.3960   64.3990   73.1290 C   0  0  0  0  0  0  0  0  0  0  0  0
    1.0410   63.6570   72.1390 C   0  0  0  0  0  0  0  0  0  0  0  0
    0.9960   64.1210   70.8210 C   0  0  0  0  0  0  0  0  0  0  0  0
    1.8070   62.4270   72.5320 C   0  0  0  0  0  0  0  0  0  0  0  0
    1.1030   61.6110   73.6460 C   0  0  1  0  0  0  0  0  0  0  0  0
    0.1700   62.4140   74.5750 C   0  0  0  0  0  0  0  0  0  0  0  0
    0.4650   63.9130   74.5510 C   0  0  0  0  0  0  0  0  0  0  0  0
    0.7880   66.9880   68.7610 C   0  0  0  0  0  0  0  0  0  0  0  0
    1.5790   67.7170   69.3390 O   0  0  0  0  0  0  0  0  0  0  0  0
    0.1950   65.8310   69.2270 N   0  0  0  0  0  0  0  0  0  0  0  0
    1.3080   67.1250   66.4100 N   0  0  0  0  0  0  0  0  0  0  0  0
    0.4040   67.3200   67.3350 C   0  0  0  0  0  0  0  0  0  0  0  0
   -0.9790   67.8350   67.0400 C   0  0  0  0  0  0  0  0  0  0  0  0
   -1.8740   67.0270   66.8360 O   0  0  0  0  0  0  0  0  0  0  0  0
   -1.1550   69.3220   67.0910 C   0  0  0  0  0  0  0  0  0  0  0  0
    0.8190   67.4690   65.1440 O   0  0  0  0  0  0  0  0  0  0  0  0
    0.3760   60.3790   73.0540 N   0  0  2  0  0  4  0  0  0  0  0  0
   -1.0190   60.1410   73.5910 C   0  0  0  0  0  0  0  0  0  0  0  0
    1.2480   59.1240   73.1090 C   0  0  0  0  0  0  0  0  0  0  0  0
    1.1680   58.4410   74.4780 C   0  0  0  0  0  0  0  0  0  0  0  0
    0.9040   56.9670   74.3180 C   0  0  0  0  0  0  0  0  0  0  0  0
   -0.3950   56.5000   74.0740 C   0  0  0  0  0  0  0  0  0  0  0  0
   -0.6440   55.1320   73.9590 C   0  0  0  0  0  0  0  0  0  0  0  0
    0.4010   54.2190   74.0860 C   0  0  0  0  0  0  0  0  0  0  0  0
    1.6950   54.6720   74.3280 C   0  0  0  0  0  0  0  0  0  0  0  0
    1.9480   56.0400   74.4450 C   0  0  0  0  0  0  0  0  0  0  0  0
   -0.8592   66.8811   71.3617 H   0  0  0  0  0  0  0  0  0  0  0  0
    1.5116   63.5665   70.0231 H   0  0  0  0  0  0  0  0  0  0  0  0
    1.9210   61.7858   71.6455 H   0  0  0  0  0  0  0  0  0  0  0  0
    2.7801   62.7549   72.9265 H   0  0  0  0  0  0  0  0  0  0  0  0
    1.9205   61.2798   74.3032 H   0  0  0  0  0  0  0  0  0  0  0  0
   -0.8698   62.2544   74.2535 H   0  0  0  0  0  0  0  0  0  0  0  0
    0.3362   62.0582   75.6025 H   0  0  0  0  0  0  0  0  0  0  0  0
   -0.2798   64.4460   75.1602 H   0  0  0  0  0  0  0  0  0  0  0  0
    1.4675   64.1028   74.9622 H   0  0  0  0  0  0  0  0  0  0  0  0
   -0.3842   65.3089   68.5540 H   0  0  0  0  0  0  0  0  0  0  0  0
   -1.1939   69.6509   68.1400 H   0  0  0  0  0  0  0  0  0  0  0  0
   -0.3082   69.8090   66.5852 H   0  0  0  0  0  0  0  0  0  0  0  0
   -2.0921   69.5979   66.5852 H   0  0  0  0  0  0  0  0  0  0  0  0
    1.3977   67.3719   64.3467 H   0  0  0  0  0  0  0  0  0  0  0  0
    0.2244   60.6126   72.0624 H   0  0  0  0  0  0  0  0  0  0  0  0
   -0.9942   60.1452   74.6907 H   0  0  0  0  0  0  0  0  0  0  0  0
   -1.6893   60.9378   73.2363 H   0  0  0  0  0  0  0  0  0  0  0  0
   -1.3872   59.1671   73.2363 H   0  0  0  0  0  0  0  0  0  0  0  0
    0.9067   58.4181   72.3375 H   0  0  0  0  0  0  0  0  0  0  0  0
    2.2921   59.4227   72.9341 H   0  0  0  0  0  0  0  0  0  0  0  0
    2.1208   58.5824   75.0092 H   0  0  0  0  0  0  0  0  0  0  0  0
    0.3435   58.8897   75.0515 H   0  0  0  0  0  0  0  0  0  0  0  0
   -1.2233   57.2167   73.9725 H   0  0  0  0  0  0  0  0  0  0  0  0
   -1.6663   54.7738   73.7679 H   0  0  0  0  0  0  0  0  0  0  0  0
    0.2036   53.1407   73.9951 H   0  0  0  0  0  0  0  0  0  0  0  0
    2.5196   53.9507   74.4272 H   0  0  0  0  0  0  0  0  0  0  0  0
    2.9720   56.3924   74.6379 H   0  0  0  0  0  0  0  0  0  0  0  0
  2  1  2  0
  3  2  1  0
  4  3  2  0
  5  4  1  0
  6  5  2  0
  6  1  1  0
  7  5  1  0
  8  7  1  0
  9  8  1  0
 10  9  1  0
 10  4  1  0
 12 11  2  0
 13 11  1  0
 13  1  1  0
 15 11  1  0
 15 14  2  0
 16 15  1  0
 17 16  2  0
 18 16  1  0
 19 14  1  0
 20  8  1  0
 21 20  1  0
 22 20  1  0
 23 22  1  0
 24 23  1  0
 25 24  2  0
 26 25  1  0
 27 26  2  0
 28 27  1  0
 29 28  2  0
 29 24  1  0
  2 30  1  0
  6 31  1  0
  7 32  1  0
  7 33  1  0
  8 34  1  1
  9 35  1  0
  9 36  1  0
 10 37  1  0
 10 38  1  0
 13 39  1  0
 18 40  1  0
 18 41  1  0
 18 42  1  0
 19 43  1  0
 20 44  1  6
 21 45  1  0
 21 46  1  0
 21 47  1  0
 22 48  1  0
 22 49  1  0
 23 50  1  0
 23 51  1  0
 25 52  1  0
 26 53  1  0
 27 54  1  0
 28 55  1  0
 29 56  1  0
M  CHG  1  20   1
M  END
>  <score>  (8) 
-7.538

$$$$
=
     RDKit          3D

 56 58  0  0  0  0  0  0  0  0999 V2000
    2.0760   59.6450   72.9400 C   0  0  0  0  0  0  0  0  0  0  0  0
    3.2210   59.3860   73.6910 C   0  0  0  0  0  0  0  0  0  0  0  0
    3.3670   58.3310   74.5310 N   0  0  0  0  0  0  0  0  0  0  0  0
    2.3360   57.4720   74.6170 C   0  0  0  0  0  0  0  0  0  0  0  0
    1.1440   57.6410   73.9140 C   0  0  0  0  0  0  0  0  0  0  0  0
    1.0240   58.7380   73.0560 C   0  0  0  0  0  0  0  0  0  0  0  0
    0.0610   56.6100   74.0550 C   0  0  0  0  0  0  0  0  0  0  0  0
   -0.0720   56.0730   75.5030 C   0  0  1  0  0  0  0  0  0  0  0  0
    1.2070   56.1460   76.3630 C   0  0  0  0  0  0  0  0  0  0  0  0
    2.4740   56.2770   75.5210 C   0  0  0  0  0  0  0  0  0  0  0  0
    2.6860   60.9310   70.8900 C   0  0  0  0  0  0  0  0  0  0  0  0
    3.3240   60.1010   70.2610 O   0  0  0  0  0  0  0  0  0  0  0  0
    2.0470   60.7760   72.1050 N   0  0  0  0  0  0  0  0  0  0  0  0
    1.3630   62.9110   70.5130 N   0  0  0  0  0  0  0  0  0  0  0  0
    2.5040   62.3100   70.2940 C   0  0  0  0  0  0  0  0  0  0  0  0
    3.6230   62.9320   69.5040 C   0  0  0  0  0  0  0  0  0  0  0  0
    3.4780   63.0790   68.2980 O   0  0  0  0  0  0  0  0  0  0  0  0
    4.8130   63.3900   70.2900 C   0  0  0  0  0  0  0  0  0  0  0  0
    1.3320   64.1740   69.9100 O   0  0  0  0  0  0  0  0  0  0  0  0
   -1.2710   56.7290   76.2290 N   0  0  2  0  0  4  0  0  0  0  0  0
   -1.9620   55.8480   77.2470 C   0  0  0  0  0  0  0  0  0  0  0  0
   -2.2510   57.3670   75.2450 C   0  0  0  0  0  0  0  0  0  0  0  0
   -2.7970   58.6970   75.7740 C   0  0  0  0  0  0  0  0  0  0  0  0
   -2.0240   59.8530   75.1960 C   0  0  0  0  0  0  0  0  0  0  0  0
   -2.3650   60.3790   73.9420 C   0  0  0  0  0  0  0  0  0  0  0  0
   -1.6280   61.4290   73.3920 C   0  0  0  0  0  0  0  0  0  0  0  0
   -0.5460   61.9620   74.0890 C   0  0  0  0  0  0  0  0  0  0  0  0
   -0.2000   61.4480   75.3360 C   0  0  0  0  0  0  0  0  0  0  0  0
   -0.9340   60.3970   75.8890 C   0  0  0  0  0  0  0  0  0  0  0  0
    4.0647   60.0854   73.5960 H   0  0  0  0  0  0  0  0  0  0  0  0
    0.1021   58.8850   72.4741 H   0  0  0  0  0  0  0  0  0  0  0  0
   -0.8965   57.0633   73.7589 H   0  0  0  0  0  0  0  0  0  0  0  0
    0.3268   55.7599   73.4095 H   0  0  0  0  0  0  0  0  0  0  0  0
   -0.2565   54.9954   75.3813 H   0  0  0  0  0  0  0  0  0  0  0  0
    1.1346   57.0187   77.0287 H   0  0  0  0  0  0  0  0  0  0  0  0
    1.2803   55.2071   76.9314 H   0  0  0  0  0  0  0  0  0  0  0  0
    3.3438   56.4114   76.1808 H   0  0  0  0  0  0  0  0  0  0  0  0
    2.6171   55.3679   74.9184 H   0  0  0  0  0  0  0  0  0  0  0  0
    1.4885   61.5760   72.4352 H   0  0  0  0  0  0  0  0  0  0  0  0
    4.5964   63.3066   71.3652 H   0  0  0  0  0  0  0  0  0  0  0  0
    5.6808   62.7616   70.0410 H   0  0  0  0  0  0  0  0  0  0  0  0
    5.0356   64.4381   70.0410 H   0  0  0  0  0  0  0  0  0  0  0  0
    0.5262   64.7430   69.9940 H   0  0  0  0  0  0  0  0  0  0  0  0
   -0.8565   57.4841   76.7938 H   0  0  0  0  0  0  0  0  0  0  0  0
   -1.6989   56.1835   78.2610 H   0  0  0  0  0  0  0  0  0  0  0  0
   -3.0514   55.9143   77.1100 H   0  0  0  0  0  0  0  0  0  0  0  0
   -1.6380   54.8058   77.1100 H   0  0  0  0  0  0  0  0  0  0  0  0
   -1.7326   57.5479   74.2918 H   0  0  0  0  0  0  0  0  0  0  0  0
   -3.0976   56.6782   75.1077 H   0  0  0  0  0  0  0  0  0  0  0  0
   -3.8556   58.7919   75.4906 H   0  0  0  0  0  0  0  0  0  0  0  0
   -2.6941   58.7129   76.8691 H   0  0  0  0  0  0  0  0  0  0  0  0
   -3.2188   59.9616   73.3881 H   0  0  0  0  0  0  0  0  0  0  0  0
   -1.9018   61.8360   72.4074 H   0  0  0  0  0  0  0  0  0  0  0  0
    0.0350   62.7888   73.6543 H   0  0  0  0  0  0  0  0  0  0  0  0
    0.6533   61.8709   75.8865 H   0  0  0  0  0  0  0  0  0  0  0  0
   -0.6554   59.9938   76.8738 H   0  0  0  0  0  0  0  0  0  0  0  0
  2  1  2  0
  3  2  1  0
  4  3  2  0
  5  4  1  0
  6  5  2  0
  6  1  1  0
  7  5  1  0
  8  7  1  0
  9  8  1  0
 10  9  1  0
 10  4  1  0
 12 11  2  0
 13 11  1  0
 13  1  1  0
 15 11  1  0
 15 14  2  0
 16 15  1  0
 17 16  2  0
 18 16  1  0
 19 14  1  0
 20  8  1  0
 21 20  1  0
 22 20  1  0
 23 22  1  0
 24 23  1  0
 25 24  2  0
 26 25  1  0
 27 26  2  0
 28 27  1  0
 29 28  2  0
 29 24  1  0
  2 30  1  0
  6 31  1  0
  7 32  1  0
  7 33  1  0
  8 34  1  6
  9 35  1  0
  9 36  1  0
 10 37  1  0
 10 38  1  0
 13 39  1  0
 18 40  1  0
 18 41  1  0
 18 42  1  0
 19 43  1  0
 20 44  1  1
 21 45  1  0
 21 46  1  0
 21 47  1  0
 22 48  1  0
 22 49  1  0
 23 50  1  0
 23 51  1  0
 25 52  1  0
 26 53  1  0
 27 54  1  0
 28 55  1  0
 29 56  1  0
M  CHG  1  20   1
M  END
>  <score>  (9) 
-7.396

$$$$
