=
     RDKit          3D

 39 40  0  0  0  0  0  0  0  0999 V2000
    0.7910   67.9350   67.8430 C   0  0  0  0  0  0  0  0  0  0  0  0
   -0.0390   67.5430   66.6180 C   0  0  0  0  0  0  0  0  0  0  0  0
    2.2880   68.0960   63.0860 C   0  0  0  0  0  0  0  0  0  0  0  0
    1.1410   68.8590   63.2980 C   0  0  0  0  0  0  0  0  0  0  0  0
    0.3910   68.6620   64.4560 C   0  0  0  0  0  0  0  0  0  0  0  0
    0.7610   67.7330   65.3740 N   0  0  0  0  0  4  0  0  0  0  0  0
    1.8870   66.9990   65.1810 C   0  0  0  0  0  0  0  0  0  0  0  0
    2.6610   67.1610   64.0400 C   0  0  0  0  0  0  0  0  0  0  0  0
    3.7500   66.3960   63.9130 F   0  0  0  0  0  0  0  0  0  0  0  0
    2.6470   69.1000   60.9170 N   0  0  0  0  0  0  0  0  0  0  0  0
    3.0610   68.3130   61.8520 C   0  0  0  0  0  0  0  0  0  0  0  0
    3.5940   69.1000   59.8860 O   0  0  0  0  0  0  0  0  0  0  0  0
    0.9940   69.4490   68.0030 C   0  0  0  0  0  0  0  0  0  0  0  0
    2.4360   69.8120   67.9780 N   0  0  0  0  0  4  0  0  0  0  0  0
    2.9710   70.5340   68.9940 C   0  0  0  0  0  0  0  0  0  0  0  0
    4.3160   70.8700   68.9910 C   0  0  0  0  0  0  0  0  0  0  0  0
    5.1160   70.4960   67.9130 C   0  0  0  0  0  0  0  0  0  0  0  0
    4.5480   69.8030   66.8490 C   0  0  0  0  0  0  0  0  0  0  0  0
    3.1960   69.4800   66.9010 C   0  0  0  0  0  0  0  0  0  0  0  0
    6.5650   70.7930   67.9880 C   0  0  0  0  0  0  0  0  0  0  0  0
    6.9630   71.6140   68.8010 O   0  0  0  0  0  0  0  0  0  0  0  0
    7.4030   70.1330   67.1430 N   0  0  0  0  0  0  0  0  0  0  0  0
    0.2806   67.5578   68.7415 H   0  0  0  0  0  0  0  0  0  0  0  0
    1.7890   67.4934   67.7052 H   0  0  0  0  0  0  0  0  0  0  0  0
   -0.3352   66.4870   66.7022 H   0  0  0  0  0  0  0  0  0  0  0  0
   -0.9341   68.1806   66.5709 H   0  0  0  0  0  0  0  0  0  0  0  0
    0.8303   69.6106   62.5573 H   0  0  0  0  0  0  0  0  0  0  0  0
   -0.5117   69.2666   64.6282 H   0  0  0  0  0  0  0  0  0  0  0  0
    2.1908   66.2641   65.9411 H   0  0  0  0  0  0  0  0  0  0  0  0
    4.0195   67.7889   61.7233 H   0  0  0  0  0  0  0  0  0  0  0  0
    3.4453   69.6513   59.0773 H   0  0  0  0  0  0  0  0  0  0  0  0
    0.4808   69.9673   67.1796 H   0  0  0  0  0  0  0  0  0  0  0  0
    0.5791   69.7516   68.9758 H   0  0  0  0  0  0  0  0  0  0  0  0
    2.3312   70.8562   69.8288 H   0  0  0  0  0  0  0  0  0  0  0  0
    4.7489   71.4283   69.8342 H   0  0  0  0  0  0  0  0  0  0  0  0
    5.1583   69.5150   65.9803 H   0  0  0  0  0  0  0  0  0  0  0  0
    2.7343   68.9471   66.0567 H   0  0  0  0  0  0  0  0  0  0  0  0
    8.4156   70.3191   67.1725 H   0  0  0  0  0  0  0  0  0  0  0  0
    7.0247   69.4474   66.4739 H   0  0  0  0  0  0  0  0  0  0  0  0
  2  1  1  0
  4  3  2  0
  5  4  1  0
  6  5  2  0
  6  2  1  0
  7  6  1  0
  8  7  2  0
  8  3  1  0
  9  8  1  0
 11 10  2  0
 11  3  1  0
 12 10  1  0
 13  1  1  0
 14 13  1  0
 15 14  2  0
 16 15  1  0
 17 16  2  0
 18 17  1  0
 19 18  2  0
 19 14  1  0
 20 17  1  0
 21 20  2  0
 22 20  1  0
  1 23  1  0
  1 24  1  0
  2 25  1  0
  2 26  1  0
  4 27  1  0
  5 28  1  0
  7 29  1  0
 11 30  1  0
 12 31  1  0
 13 32  1  0
 13 33  1  0
 15 34  1  0
 16 35  1  0
 18 36  1  0
 19 37  1  0
 22 38  1  0
 22 39  1  0
M  CHG  2   6   1  14   1
M  END
>  <score>  (1) 
-9.027

$$$$
=
     RDKit          3D

 39 40  0  0  0  0  0  0  0  0999 V2000
    0.7860   67.9340   67.8530 C   0  0  0  0  0  0  0  0  0  0  0  0
   -0.1680   67.5410   66.7220 C   0  0  0  0  0  0  0  0  0  0  0  0
    1.5020   68.5280   62.9240 C   0  0  0  0  0  0  0  0  0  0  0  0
    2.1740   67.6590   63.7820 C   0  0  0  0  0  0  0  0  0  0  0  0
    1.6150   67.3510   65.0200 C   0  0  0  0  0  0  0  0  0  0  0  0
    0.4300   67.8910   65.4010 N   0  0  0  0  0  4  0  0  0  0  0  0
   -0.2370   68.7260   64.5630 C   0  0  0  0  0  0  0  0  0  0  0  0
    0.2850   69.0610   63.3210 C   0  0  0  0  0  0  0  0  0  0  0  0
   -0.4230   69.8960   62.5540 F   0  0  0  0  0  0  0  0  0  0  0  0
    3.3530   68.5920   61.3710 N   0  0  0  0  0  0  0  0  0  0  0  0
    2.1140   68.8490   61.6230 C   0  0  0  0  0  0  0  0  0  0  0  0
    3.6340   69.0040   60.0630 O   0  0  0  0  0  0  0  0  0  0  0  0
    0.9810   69.4490   68.0080 C   0  0  0  0  0  0  0  0  0  0  0  0
    2.4220   69.8190   67.9850 N   0  0  0  0  0  4  0  0  0  0  0  0
    3.2040   69.4380   66.9440 C   0  0  0  0  0  0  0  0  0  0  0  0
    4.5450   69.7850   66.9020 C   0  0  0  0  0  0  0  0  0  0  0  0
    5.1030   70.5000   67.9620 C   0  0  0  0  0  0  0  0  0  0  0  0
    4.3080   70.8390   69.0500 C   0  0  0  0  0  0  0  0  0  0  0  0
    2.9650   70.4770   69.0430 C   0  0  0  0  0  0  0  0  0  0  0  0
    6.5150   70.9310   67.8390 C   0  0  0  0  0  0  0  0  0  0  0  0
    6.9970   71.6450   68.7050 O   0  0  0  0  0  0  0  0  0  0  0  0
    7.2250   70.5090   66.7570 N   0  0  0  0  0  0  0  0  0  0  0  0
    0.3840   67.5387   68.7975 H   0  0  0  0  0  0  0  0  0  0  0  0
    1.7696   67.5109   67.6009 H   0  0  0  0  0  0  0  0  0  0  0  0
   -0.3526   66.4573   66.7620 H   0  0  0  0  0  0  0  0  0  0  0  0
   -1.1150   68.0872   66.8442 H   0  0  0  0  0  0  0  0  0  0  0  0
    3.1376   67.2202   63.4839 H   0  0  0  0  0  0  0  0  0  0  0  0
    2.1406   66.6616   65.6971 H   0  0  0  0  0  0  0  0  0  0  0  0
   -1.2062   69.1435   64.8733 H   0  0  0  0  0  0  0  0  0  0  0  0
    1.4971   69.3212   60.8443 H   0  0  0  0  0  0  0  0  0  0  0  0
    4.5439   68.8854   59.6914 H   0  0  0  0  0  0  0  0  0  0  0  0
    0.4672   69.9618   67.1816 H   0  0  0  0  0  0  0  0  0  0  0  0
    0.5623   69.7531   68.9787 H   0  0  0  0  0  0  0  0  0  0  0  0
    2.7690   68.8473   66.1244 H   0  0  0  0  0  0  0  0  0  0  0  0
    5.1647   69.4988   66.0394 H   0  0  0  0  0  0  0  0  0  0  0  0
    4.7344   71.3855   69.9041 H   0  0  0  0  0  0  0  0  0  0  0  0
    2.3324   70.7272   69.9074 H   0  0  0  0  0  0  0  0  0  0  0  0
    8.2088   70.7923   66.6442 H   0  0  0  0  0  0  0  0  0  0  0  0
    6.7784   69.9064   66.0511 H   0  0  0  0  0  0  0  0  0  0  0  0
  2  1  1  0
  4  3  2  0
  5  4  1  0
  6  5  2  0
  6  2  1  0
  7  6  1  0
  8  7  2  0
  8  3  1  0
  9  8  1  0
 11 10  2  0
 11  3  1  0
 12 10  1  0
 13  1  1  0
 14 13  1  0
 15 14  2  0
 16 15  1  0
 17 16  2  0
 18 17  1  0
 19 18  2  0
 19 14  1  0
 20 17  1  0
 21 20  2  0
 22 20  1  0
  1 23  1  0
  1 24  1  0
  2 25  1  0
  2 26  1  0
  4 27  1  0
  5 28  1  0
  7 29  1  0
 11 30  1  0
 12 31  1  0
 13 32  1  0
 13 33  1  0
 15 34  1  0
 16 35  1  0
 18 36  1  0
 19 37  1  0
 22 38  1  0
 22 39  1  0
M  CHG  2   6   1  14   1
M  END
>  <score>  (2) 
-8.942

$$$$
=
     RDKit          3D

 39 40  0  0  0  0  0  0  0  0999 V2000
    1.0920   67.8060   67.5980 C   0  0  0  0  0  0  0  0  0  0  0  0
    1.1210   69.3340   67.6970 C   0  0  0  0  0  0  0  0  0  0  0  0
    5.1330   70.6440   68.3110 C   0  0  0  0  0  0  0  0  0  0  0  0
    4.1550   70.9050   69.2690 C   0  0  0  0  0  0  0  0  0  0  0  0
    2.8490   70.4730   69.0500 C   0  0  0  0  0  0  0  0  0  0  0  0
    2.5180   69.8070   67.9140 N   0  0  0  0  0  4  0  0  0  0  0  0
    3.4710   69.5350   66.9850 C   0  0  0  0  0  0  0  0  0  0  0  0
    4.7830   69.9500   67.1620 C   0  0  0  0  0  0  0  0  0  0  0  0
    5.6640   69.6550   66.2000 F   0  0  0  0  0  0  0  0  0  0  0  0
    7.1180   70.8860   69.6690 N   0  0  0  0  0  0  0  0  0  0  0  0
    6.5060   71.1170   68.5570 C   0  0  0  0  0  0  0  0  0  0  0  0
    8.3960   71.4530   69.5980 O   0  0  0  0  0  0  0  0  0  0  0  0
    0.4040   67.2760   66.3310 C   0  0  0  0  0  0  0  0  0  0  0  0
    1.1850   67.6040   65.1080 N   0  0  0  0  0  4  0  0  0  0  0  0
    0.6710   68.4500   64.1810 C   0  0  0  0  0  0  0  0  0  0  0  0
    1.3910   68.7750   63.0420 C   0  0  0  0  0  0  0  0  0  0  0  0
    2.6400   68.1930   62.8300 C   0  0  0  0  0  0  0  0  0  0  0  0
    3.1370   67.2850   63.7580 C   0  0  0  0  0  0  0  0  0  0  0  0
    2.3820   66.9980   64.8910 C   0  0  0  0  0  0  0  0  0  0  0  0
    3.4180   68.6340   61.6500 C   0  0  0  0  0  0  0  0  0  0  0  0
    2.8230   69.0240   60.6550 O   0  0  0  0  0  0  0  0  0  0  0  0
    4.7770   68.5880   61.7190 N   0  0  0  0  0  0  0  0  0  0  0  0
    2.1288   67.4388   67.6082 H   0  0  0  0  0  0  0  0  0  0  0  0
    0.5059   67.4422   68.4548 H   0  0  0  0  0  0  0  0  0  0  0  0
    0.7313   69.7665   66.7637 H   0  0  0  0  0  0  0  0  0  0  0  0
    0.4975   69.6516   68.5457 H   0  0  0  0  0  0  0  0  0  0  0  0
    4.4123   71.4477   70.1905 H   0  0  0  0  0  0  0  0  0  0  0  0
    2.0763   70.6739   69.8067 H   0  0  0  0  0  0  0  0  0  0  0  0
    3.1980   68.9765   66.0775 H   0  0  0  0  0  0  0  0  0  0  0  0
    7.0247   71.6837   67.7697 H   0  0  0  0  0  0  0  0  0  0  0  0
    9.0152   71.3756   70.3665 H   0  0  0  0  0  0  0  0  0  0  0  0
    0.3044   66.1833   66.4090 H   0  0  0  0  0  0  0  0  0  0  0  0
   -0.5830   67.7546   66.2486 H   0  0  0  0  0  0  0  0  0  0  0  0
   -0.3284   68.8831   64.3347 H   0  0  0  0  0  0  0  0  0  0  0  0
    0.9800   69.4867   62.3109 H   0  0  0  0  0  0  0  0  0  0  0  0
    4.1119   66.8010   63.5991 H   0  0  0  0  0  0  0  0  0  0  0  0
    2.7600   66.2689   65.6228 H   0  0  0  0  0  0  0  0  0  0  0  0
    5.3440   68.8886   60.9134 H   0  0  0  0  0  0  0  0  0  0  0  0
    5.2381   68.2526   62.5768 H   0  0  0  0  0  0  0  0  0  0  0  0
  2  1  1  0
  4  3  2  0
  5  4  1  0
  6  5  2  0
  6  2  1  0
  7  6  1  0
  8  7  2  0
  8  3  1  0
  9  8  1  0
 11 10  2  0
 11  3  1  0
 12 10  1  0
 13  1  1  0
 14 13  1  0
 15 14  2  0
 16 15  1  0
 17 16  2  0
 18 17  1  0
 19 18  2  0
 19 14  1  0
 20 17  1  0
 21 20  2  0
 22 20  1  0
  1 23  1  0
  1 24  1  0
  2 25  1  0
  2 26  1  0
  4 27  1  0
  5 28  1  0
  7 29  1  0
 11 30  1  0
 12 31  1  0
 13 32  1  0
 13 33  1  0
 15 34  1  0
 16 35  1  0
 18 36  1  0
 19 37  1  0
 22 38  1  0
 22 39  1  0
M  CHG  2   6   1  14   1
M  END
>  <score>  (3) 
-8.775

$$$$
=
     RDKit          3D

 39 40  0  0  0  0  0  0  0  0999 V2000
    0.6220   64.8510   70.3130 C   0  0  0  0  0  0  0  0  0  0  0  0
    1.1850   64.2200   71.5900 C   0  0  0  0  0  0  0  0  0  0  0  0
    2.9630   60.4580   70.6530 C   0  0  0  0  0  0  0  0  0  0  0  0
    2.1550   60.5910   71.7810 C   0  0  0  0  0  0  0  0  0  0  0  0
    1.5850   61.8280   72.0730 C   0  0  0  0  0  0  0  0  0  0  0  0
    1.8130   62.9040   71.2770 N   0  0  0  0  0  4  0  0  0  0  0  0
    2.5870   62.7760   70.1680 C   0  0  0  0  0  0  0  0  0  0  0  0
    3.1760   61.5630   69.8420 C   0  0  0  0  0  0  0  0  0  0  0  0
    3.9330   61.5150   68.7410 F   0  0  0  0  0  0  0  0  0  0  0  0
    3.1230   58.0600   70.9100 N   0  0  0  0  0  0  0  0  0  0  0  0
    3.5640   59.1440   70.3660 C   0  0  0  0  0  0  0  0  0  0  0  0
    3.8880   56.9860   70.4400 O   0  0  0  0  0  0  0  0  0  0  0  0
    1.0970   66.2900   70.0670 C   0  0  0  0  0  0  0  0  0  0  0  0
    0.3640   66.9210   68.9360 N   0  0  0  0  0  4  0  0  0  0  0  0
    0.9420   67.9230   68.2280 C   0  0  0  0  0  0  0  0  0  0  0  0
    0.2770   68.5130   67.1640 C   0  0  0  0  0  0  0  0  0  0  0  0
   -1.0160   68.0970   66.8460 C   0  0  0  0  0  0  0  0  0  0  0  0
   -1.6220   67.1070   67.6110 C   0  0  0  0  0  0  0  0  0  0  0  0
   -0.9110   66.5380   68.6630 C   0  0  0  0  0  0  0  0  0  0  0  0
   -1.6580   68.6850   65.6490 C   0  0  0  0  0  0  0  0  0  0  0  0
   -1.0450   68.7030   64.5920 O   0  0  0  0  0  0  0  0  0  0  0  0
   -2.9170   69.1860   65.7740 N   0  0  0  0  0  0  0  0  0  0  0  0
    0.9307   64.2335   69.4566 H   0  0  0  0  0  0  0  0  0  0  0  0
   -0.4707   64.8921   70.4328 H   0  0  0  0  0  0  0  0  0  0  0  0
    1.9416   64.8902   72.0241 H   0  0  0  0  0  0  0  0  0  0  0  0
    0.3655   64.0665   72.3075 H   0  0  0  0  0  0  0  0  0  0  0  0
    1.9690   59.7264   72.4351 H   0  0  0  0  0  0  0  0  0  0  0  0
    0.9423   61.9344   72.9593 H   0  0  0  0  0  0  0  0  0  0  0  0
    2.7494   63.6484   69.5179 H   0  0  0  0  0  0  0  0  0  0  0  0
    4.4125   59.0851   69.6684 H   0  0  0  0  0  0  0  0  0  0  0  0
    3.6935   56.0663   70.7507 H   0  0  0  0  0  0  0  0  0  0  0  0
    0.9274   66.8829   70.9779 H   0  0  0  0  0  0  0  0  0  0  0  0
    2.1666   66.2613   69.8116 H   0  0  0  0  0  0  0  0  0  0  0  0
    1.9491   68.2713   68.5008 H   0  0  0  0  0  0  0  0  0  0  0  0
    0.7654   69.3033   66.5750 H   0  0  0  0  0  0  0  0  0  0  0  0
   -2.6479   66.7785   67.3881 H   0  0  0  0  0  0  0  0  0  0  0  0
   -1.3887   65.7657   69.2838 H   0  0  0  0  0  0  0  0  0  0  0  0
   -3.3893   69.6014   64.9584 H   0  0  0  0  0  0  0  0  0  0  0  0
   -3.3977   69.1498   66.6842 H   0  0  0  0  0  0  0  0  0  0  0  0
  2  1  1  0
  4  3  2  0
  5  4  1  0
  6  5  2  0
  6  2  1  0
  7  6  1  0
  8  7  2  0
  8  3  1  0
  9  8  1  0
 11 10  2  0
 11  3  1  0
 12 10  1  0
 13  1  1  0
 14 13  1  0
 15 14  2  0
 16 15  1  0
 17 16  2  0
 18 17  1  0
 19 18  2  0
 19 14  1  0
 20 17  1  0
 21 20  2  0
 22 20  1  0
  1 23  1  0
  1 24  1  0
  2 25  1  0
  2 26  1  0
  4 27  1  0
  5 28  1  0
  7 29  1  0
 11 30  1  0
 12 31  1  0
 13 32  1  0
 13 33  1  0
 15 34  1  0
 16 35  1  0
 18 36  1  0
 19 37  1  0
 22 38  1  0
 22 39  1  0
M  CHG  2   6   1  14   1
M  END
>  <score>  (4) 
-8.537

$$$$
=
     RDKit          3D

 39 40  0  0  0  0  0  0  0  0999 V2000
    1.1670   66.9880   69.5760 C   0  0  0  0  0  0  0  0  0  0  0  0
    0.2510   65.9360   70.2080 C   0  0  0  0  0  0  0  0  0  0  0  0
    2.4630   62.3680   70.9640 C   0  0  0  0  0  0  0  0  0  0  0  0
    1.0920   62.4100   71.2120 C   0  0  0  0  0  0  0  0  0  0  0  0
    0.3860   63.5850   70.9630 C   0  0  0  0  0  0  0  0  0  0  0  0
    1.0190   64.6880   70.4880 N   0  0  0  0  0  4  0  0  0  0  0  0
    2.3520   64.6480   70.2280 C   0  0  0  0  0  0  0  0  0  0  0  0
    3.0930   63.4990   70.4650 C   0  0  0  0  0  0  0  0  0  0  0  0
    4.4020   63.5370   70.1960 F   0  0  0  0  0  0  0  0  0  0  0  0
    3.5190   60.2970   70.3040 N   0  0  0  0  0  0  0  0  0  0  0  0
    3.1930   61.1200   71.2420 C   0  0  0  0  0  0  0  0  0  0  0  0
    4.2010   59.2170   70.8770 O   0  0  0  0  0  0  0  0  0  0  0  0
    0.6150   67.6000   68.2810 C   0  0  0  0  0  0  0  0  0  0  0  0
    1.7060   68.1350   67.4220 N   0  0  0  0  0  4  0  0  0  0  0  0
    2.4660   69.1700   67.8570 C   0  0  0  0  0  0  0  0  0  0  0  0
    3.4940   69.6710   67.0730 C   0  0  0  0  0  0  0  0  0  0  0  0
    3.7200   69.1300   65.8080 C   0  0  0  0  0  0  0  0  0  0  0  0
    2.9010   68.1050   65.3480 C   0  0  0  0  0  0  0  0  0  0  0  0
    1.8890   67.6290   66.1730 C   0  0  0  0  0  0  0  0  0  0  0  0
    4.8830   69.6300   65.0390 C   0  0  0  0  0  0  0  0  0  0  0  0
    4.8560   69.5810   63.8180 O   0  0  0  0  0  0  0  0  0  0  0  0
    5.9450   70.1290   65.7290 N   0  0  0  0  0  0  0  0  0  0  0  0
    1.3175   67.7982   70.3047 H   0  0  0  0  0  0  0  0  0  0  0  0
    2.1042   66.4763   69.3117 H   0  0  0  0  0  0  0  0  0  0  0  0
   -0.1592   66.3296   71.1497 H   0  0  0  0  0  0  0  0  0  0  0  0
   -0.5674   65.7057   69.5100 H   0  0  0  0  0  0  0  0  0  0  0  0
    0.5716   61.5225   71.6012 H   0  0  0  0  0  0  0  0  0  0  0  0
   -0.6968   63.6194   71.1535 H   0  0  0  0  0  0  0  0  0  0  0  0
    2.8516   65.5405   69.8233 H   0  0  0  0  0  0  0  0  0  0  0  0
    3.4684   60.8825   72.2801 H   0  0  0  0  0  0  0  0  0  0  0  0
    4.5307   58.4798   70.3044 H   0  0  0  0  0  0  0  0  0  0  0  0
    0.0690   66.8246   67.7237 H   0  0  0  0  0  0  0  0  0  0  0  0
   -0.0521   68.4323   68.5498 H   0  0  0  0  0  0  0  0  0  0  0  0
    2.2650   69.6168   68.8419 H   0  0  0  0  0  0  0  0  0  0  0  0
    4.1268   70.4896   67.4464 H   0  0  0  0  0  0  0  0  0  0  0  0
    3.0518   67.6771   64.3459 H   0  0  0  0  0  0  0  0  0  0  0  0
    1.2255   66.8303   65.8100 H   0  0  0  0  0  0  0  0  0  0  0  0
    6.7680   70.4840   65.2215 H   0  0  0  0  0  0  0  0  0  0  0  0
    5.9256   70.1516   66.7586 H   0  0  0  0  0  0  0  0  0  0  0  0
  2  1  1  0
  4  3  2  0
  5  4  1  0
  6  5  2  0
  6  2  1  0
  7  6  1  0
  8  7  2  0
  8  3  1  0
  9  8  1  0
 11 10  2  0
 11  3  1  0
 12 10  1  0
 13  1  1  0
 14 13  1  0
 15 14  2  0
 16 15  1  0
 17 16  2  0
 18 17  1  0
 19 18  2  0
 19 14  1  0
 20 17  1  0
 21 20  2  0
 22 20  1  0
  1 23  1  0
  1 24  1  0
  2 25  1  0
  2 26  1  0
  4 27  1  0
  5 28  1  0
  7 29  1  0
 11 30  1  0
 12 31  1  0
 13 32  1  0
 13 33  1  0
 15 34  1  0
 16 35  1  0
 18 36  1  0
 19 37  1  0
 22 38  1  0
 22 39  1  0
M  CHG  2   6   1  14   1
M  END
>  <score>  (5) 
-8.117

$$$$
=
     RDKit          3D

 39 40  0  0  0  0  0  0  0  0999 V2000
    0.9540   64.5440   70.2580 C   0  0  0  0  0  0  0  0  0  0  0  0
    0.5860   65.9980   70.5630 C   0  0  0  0  0  0  0  0  0  0  0  0
   -0.5100   67.9780   66.9470 C   0  0  0  0  0  0  0  0  0  0  0  0
    0.7390   68.2060   67.5210 C   0  0  0  0  0  0  0  0  0  0  0  0
    1.0790   67.5540   68.7040 C   0  0  0  0  0  0  0  0  0  0  0  0
    0.2060   66.7050   69.3060 N   0  0  0  0  0  4  0  0  0  0  0  0
   -1.0070   66.4670   68.7420 C   0  0  0  0  0  0  0  0  0  0  0  0
   -1.3870   67.0980   67.5660 C   0  0  0  0  0  0  0  0  0  0  0  0
   -2.5990   66.8220   67.0760 F   0  0  0  0  0  0  0  0  0  0  0  0
   -0.3650   68.3320   64.5610 N   0  0  0  0  0  0  0  0  0  0  0  0
   -0.8540   68.6840   65.7020 C   0  0  0  0  0  0  0  0  0  0  0  0
   -0.8790   69.1830   63.5760 O   0  0  0  0  0  0  0  0  0  0  0  0
    2.4540   64.2390   70.3850 C   0  0  0  0  0  0  0  0  0  0  0  0
    2.7020   62.7840   70.5650 N   0  0  0  0  0  4  0  0  0  0  0  0
    3.5410   62.1290   69.7240 C   0  0  0  0  0  0  0  0  0  0  0  0
    3.7920   60.7760   69.8850 C   0  0  0  0  0  0  0  0  0  0  0  0
    3.1440   60.0730   70.9010 C   0  0  0  0  0  0  0  0  0  0  0  0
    2.2440   60.7400   71.7250 C   0  0  0  0  0  0  0  0  0  0  0  0
    2.0320   62.1000   71.5300 C   0  0  0  0  0  0  0  0  0  0  0  0
    3.5070   58.6520   71.1000 C   0  0  0  0  0  0  0  0  0  0  0  0
    3.8520   57.9840   70.1360 O   0  0  0  0  0  0  0  0  0  0  0  0
    3.4400   58.1400   72.3590 N   0  0  0  0  0  0  0  0  0  0  0  0
    0.4086   63.8949   70.9588 H   0  0  0  0  0  0  0  0  0  0  0  0
    0.6797   64.3598   69.2088 H   0  0  0  0  0  0  0  0  0  0  0  0
   -0.2621   66.0194   71.2631 H   0  0  0  0  0  0  0  0  0  0  0  0
    1.4544   66.5027   71.0115 H   0  0  0  0  0  0  0  0  0  0  0  0
    1.4509   68.8955   67.0437 H   0  0  0  0  0  0  0  0  0  0  0  0
    2.0664   67.7287   69.1562 H   0  0  0  0  0  0  0  0  0  0  0  0
   -1.6994   65.7623   69.2257 H   0  0  0  0  0  0  0  0  0  0  0  0
   -1.5480   69.5363   65.7456 H   0  0  0  0  0  0  0  0  0  0  0  0
   -0.6128   69.0629   62.6300 H   0  0  0  0  0  0  0  0  0  0  0  0
    2.9661   64.5785   69.4726 H   0  0  0  0  0  0  0  0  0  0  0  0
    2.8392   64.7664   71.2702 H   0  0  0  0  0  0  0  0  0  0  0  0
    4.0277   62.6785   68.9047 H   0  0  0  0  0  0  0  0  0  0  0  0
    4.4970   60.2599   69.2167 H   0  0  0  0  0  0  0  0  0  0  0  0
    1.7079   60.1996   72.5191 H   0  0  0  0  0  0  0  0  0  0  0  0
    1.3100   62.6316   72.1673 H   0  0  0  0  0  0  0  0  0  0  0  0
    3.6866   57.1543   72.5279 H   0  0  0  0  0  0  0  0  0  0  0  0
    3.1426   58.7381   73.1430 H   0  0  0  0  0  0  0  0  0  0  0  0
  2  1  1  0
  4  3  2  0
  5  4  1  0
  6  5  2  0
  6  2  1  0
  7  6  1  0
  8  7  2  0
  8  3  1  0
  9  8  1  0
 11 10  2  0
 11  3  1  0
 12 10  1  0
 13  1  1  0
 14 13  1  0
 15 14  2  0
 16 15  1  0
 17 16  2  0
 18 17  1  0
 19 18  2  0
 19 14  1  0
 20 17  1  0
 21 20  2  0
 22 20  1  0
  1 23  1  0
  1 24  1  0
  2 25  1  0
  2 26  1  0
  4 27  1  0
  5 28  1  0
  7 29  1  0
 11 30  1  0
 12 31  1  0
 13 32  1  0
 13 33  1  0
 15 34  1  0
 16 35  1  0
 18 36  1  0
 19 37  1  0
 22 38  1  0
 22 39  1  0
M  CHG  2   6   1  14   1
M  END
>  <score>  (6) 
-8.108

$$$$
=
     RDKit          3D

 39 40  0  0  0  0  0  0  0  0999 V2000
    1.0640   64.6180   70.2640 C   0  0  0  0  0  0  0  0  0  0  0  0
    0.8010   66.1040   70.5220 C   0  0  0  0  0  0  0  0  0  0  0  0
   -0.4440   68.0630   66.9440 C   0  0  0  0  0  0  0  0  0  0  0  0
   -1.2770   67.1310   67.5600 C   0  0  0  0  0  0  0  0  0  0  0  0
   -0.8520   66.4980   68.7260 C   0  0  0  0  0  0  0  0  0  0  0  0
    0.3630   66.7740   69.2640 N   0  0  0  0  0  4  0  0  0  0  0  0
    1.1720   67.6940   68.6770 C   0  0  0  0  0  0  0  0  0  0  0  0
    0.7900   68.3450   67.5130 C   0  0  0  0  0  0  0  0  0  0  0  0
    1.6420   69.2300   66.9870 F   0  0  0  0  0  0  0  0  0  0  0  0
   -0.3840   68.4450   64.5580 N   0  0  0  0  0  0  0  0  0  0  0  0
   -0.9060   68.7140   65.7070 C   0  0  0  0  0  0  0  0  0  0  0  0
   -1.0340   69.2130   63.5850 O   0  0  0  0  0  0  0  0  0  0  0  0
    2.5500   64.2330   70.2890 C   0  0  0  0  0  0  0  0  0  0  0  0
    2.7320   62.7710   70.4940 N   0  0  0  0  0  4  0  0  0  0  0  0
    3.1840   61.9950   69.4780 C   0  0  0  0  0  0  0  0  0  0  0  0
    3.3710   60.6330   69.6560 C   0  0  0  0  0  0  0  0  0  0  0  0
    3.0520   60.0500   70.8820 C   0  0  0  0  0  0  0  0  0  0  0  0
    2.5380   60.8440   71.9020 C   0  0  0  0  0  0  0  0  0  0  0  0
    2.3770   62.2070   71.6790 C   0  0  0  0  0  0  0  0  0  0  0  0
    3.3500   58.6120   71.0640 C   0  0  0  0  0  0  0  0  0  0  0  0
    3.8950   57.9970   70.1590 O   0  0  0  0  0  0  0  0  0  0  0  0
    3.0030   58.0250   72.2420 N   0  0  0  0  0  0  0  0  0  0  0  0
    0.5427   64.0351   71.0376 H   0  0  0  0  0  0  0  0  0  0  0  0
    0.6962   64.4012   69.2502 H   0  0  0  0  0  0  0  0  0  0  0  0
    0.0128   66.2071   71.2823 H   0  0  0  0  0  0  0  0  0  0  0  0
    1.7285   66.5769   70.8771 H   0  0  0  0  0  0  0  0  0  0  0  0
   -2.2618   66.8971   67.1292 H   0  0  0  0  0  0  0  0  0  0  0  0
   -1.5095   65.7653   69.2168 H   0  0  0  0  0  0  0  0  0  0  0  0
    2.1460   67.9266   69.1321 H   0  0  0  0  0  0  0  0  0  0  0  0
   -1.7202   69.4515   65.7639 H   0  0  0  0  0  0  0  0  0  0  0  0
   -0.7652   69.1391   62.6350 H   0  0  0  0  0  0  0  0  0  0  0  0
    3.0094   64.5194   69.3314 H   0  0  0  0  0  0  0  0  0  0  0  0
    3.0288   64.7608   71.1270 H   0  0  0  0  0  0  0  0  0  0  0  0
    3.4047   62.4513   68.5018 H   0  0  0  0  0  0  0  0  0  0  0  0
    3.7682   60.0165   68.8361 H   0  0  0  0  0  0  0  0  0  0  0  0
    2.2631   60.4003   72.8703 H   0  0  0  0  0  0  0  0  0  0  0  0
    1.9555   62.8393   72.4744 H   0  0  0  0  0  0  0  0  0  0  0  0
    3.1982   57.0255   72.3965 H   0  0  0  0  0  0  0  0  0  0  0  0
    2.5452   58.5803   72.9789 H   0  0  0  0  0  0  0  0  0  0  0  0
  2  1  1  0
  4  3  2  0
  5  4  1  0
  6  5  2  0
  6  2  1  0
  7  6  1  0
  8  7  2  0
  8  3  1  0
  9  8  1  0
 11 10  2  0
 11  3  1  0
 12 10  1  0
 13  1  1  0
 14 13  1  0
 15 14  2  0
 16 15  1  0
 17 16  2  0
 18 17  1  0
 19 18  2  0
 19 14  1  0
 20 17  1  0
 21 20  2  0
 22 20  1  0
  1 23  1  0
  1 24  1  0
  2 25  1  0
  2 26  1  0
  4 27  1  0
  5 28  1  0
  7 29  1  0
 11 30  1  0
 12 31  1  0
 13 32  1  0
 13 33  1  0
 15 34  1  0
 16 35  1  0
 18 36  1  0
 19 37  1  0
 22 38  1  0
 22 39  1  0
M  CHG  2   6   1  14   1
M  END
>  <score>  (7) 
-8.055

$$$$
=
     RDKit          3D

 39 40  0  0  0  0  0  0  0  0999 V2000
    1.0900   67.7490   66.3740 C   0  0  0  0  0  0  0  0  0  0  0  0
    1.4230   67.8490   64.8830 C   0  0  0  0  0  0  0  0  0  0  0  0
    4.2870   64.8610   63.8540 C   0  0  0  0  0  0  0  0  0  0  0  0
    4.2050   66.0390   63.1140 C   0  0  0  0  0  0  0  0  0  0  0  0
    3.2600   67.0020   63.4620 C   0  0  0  0  0  0  0  0  0  0  0  0
    2.4180   66.8040   64.5080 N   0  0  0  0  0  4  0  0  0  0  0  0
    2.5050   65.6650   65.2430 C   0  0  0  0  0  0  0  0  0  0  0  0
    3.4290   64.6780   64.9280 C   0  0  0  0  0  0  0  0  0  0  0  0
    3.4490   63.5800   65.6900 F   0  0  0  0  0  0  0  0  0  0  0  0
    4.9490   62.7480   62.8840 N   0  0  0  0  0  0  0  0  0  0  0  0
    5.2850   63.8510   63.4640 C   0  0  0  0  0  0  0  0  0  0  0  0
    6.1090   62.0040   62.6380 O   0  0  0  0  0  0  0  0  0  0  0  0
    1.1510   69.0900   67.1190 C   0  0  0  0  0  0  0  0  0  0  0  0
    2.5560   69.5250   67.3450 N   0  0  0  0  0  4  0  0  0  0  0  0
    3.4830   69.3610   66.3690 C   0  0  0  0  0  0  0  0  0  0  0  0
    4.7930   69.7720   66.5600 C   0  0  0  0  0  0  0  0  0  0  0  0
    5.1680   70.3250   67.7840 C   0  0  0  0  0  0  0  0  0  0  0  0
    4.2250   70.4410   68.7980 C   0  0  0  0  0  0  0  0  0  0  0  0
    2.9200   70.0220   68.5570 C   0  0  0  0  0  0  0  0  0  0  0  0
    6.5510   70.8360   67.9180 C   0  0  0  0  0  0  0  0  0  0  0  0
    6.7760   71.7520   68.6950 O   0  0  0  0  0  0  0  0  0  0  0  0
    7.5270   70.2590   67.1640 N   0  0  0  0  0  0  0  0  0  0  0  0
    0.0725   67.3434   66.4747 H   0  0  0  0  0  0  0  0  0  0  0  0
    1.8523   67.0983   66.8273 H   0  0  0  0  0  0  0  0  0  0  0  0
    0.5047   67.7045   64.2948 H   0  0  0  0  0  0  0  0  0  0  0  0
    1.8487   68.8418   64.6754 H   0  0  0  0  0  0  0  0  0  0  0  0
    4.8806   66.2072   62.2624 H   0  0  0  0  0  0  0  0  0  0  0  0
    3.1955   67.9343   62.8818 H   0  0  0  0  0  0  0  0  0  0  0  0
    1.8324   65.5224   66.1017 H   0  0  0  0  0  0  0  0  0  0  0  0
    6.3479   64.0421   63.6731 H   0  0  0  0  0  0  0  0  0  0  0  0
    6.0460   61.1208   62.1952 H   0  0  0  0  0  0  0  0  0  0  0  0
    0.6318   69.8544   66.5222 H   0  0  0  0  0  0  0  0  0  0  0  0
    0.6673   68.9628   68.0987 H   0  0  0  0  0  0  0  0  0  0  0  0
    3.1922   68.8967   65.4151 H   0  0  0  0  0  0  0  0  0  0  0  0
    5.5313   69.6627   65.7520 H   0  0  0  0  0  0  0  0  0  0  0  0
    4.5058   70.8578   69.7765 H   0  0  0  0  0  0  0  0  0  0  0  0
    2.1713   70.0940   69.3596 H   0  0  0  0  0  0  0  0  0  0  0  0
    8.4986   70.5933   67.2358 H   0  0  0  0  0  0  0  0  0  0  0  0
    7.2937   69.4882   66.5218 H   0  0  0  0  0  0  0  0  0  0  0  0
  2  1  1  0
  4  3  2  0
  5  4  1  0
  6  5  2  0
  6  2  1  0
  7  6  1  0
  8  7  2  0
  8  3  1  0
  9  8  1  0
 11 10  2  0
 11  3  1  0
 12 10  1  0
 13  1  1  0
 14 13  1  0
 15 14  2  0
 16 15  1  0
 17 16  2  0
 18 17  1  0
 19 18  2  0
 19 14  1  0
 20 17  1  0
 21 20  2  0
 22 20  1  0
  1 23  1  0
  1 24  1  0
  2 25  1  0
  2 26  1  0
  4 27  1  0
  5 28  1  0
  7 29  1  0
 11 30  1  0
 12 31  1  0
 13 32  1  0
 13 33  1  0
 15 34  1  0
 16 35  1  0
 18 36  1  0
 19 37  1  0
 22 38  1  0
 22 39  1  0
M  CHG  2   6   1  14   1
M  END
>  <score>  (8) 
-7.914

$$$$
=
     RDKit          3D

 39 40  0  0  0  0  0  0  0  0999 V2000
    1.1660   67.0930   68.2030 C   0  0  0  0  0  0  0  0  0  0  0  0
    0.4230   66.8260   69.5140 C   0  0  0  0  0  0  0  0  0  0  0  0
    1.7860   63.2060   71.3120 C   0  0  0  0  0  0  0  0  0  0  0  0
    2.6920   64.0730   70.7040 C   0  0  0  0  0  0  0  0  0  0  0  0
    2.2290   65.2490   70.1180 C   0  0  0  0  0  0  0  0  0  0  0  0
    0.9060   65.5560   70.1290 N   0  0  0  0  0  4  0  0  0  0  0  0
    0.0210   64.7240   70.7350 C   0  0  0  0  0  0  0  0  0  0  0  0
    0.4390   63.5410   71.3270 C   0  0  0  0  0  0  0  0  0  0  0  0
   -0.4900   62.7670   71.8950 F   0  0  0  0  0  0  0  0  0  0  0  0
    2.8440   61.9500   73.0840 N   0  0  0  0  0  0  0  0  0  0  0  0
    2.2940   61.9640   71.9170 C   0  0  0  0  0  0  0  0  0  0  0  0
    3.2170   60.6340   73.3830 O   0  0  0  0  0  0  0  0  0  0  0  0
    1.0790   68.5480   67.7200 C   0  0  0  0  0  0  0  0  0  0  0  0
    2.3740   69.2600   67.8940 N   0  0  0  0  0  4  0  0  0  0  0  0
    3.2950   69.2440   66.9000 C   0  0  0  0  0  0  0  0  0  0  0  0
    4.5020   69.9120   67.0420 C   0  0  0  0  0  0  0  0  0  0  0  0
    4.7840   70.5740   68.2370 C   0  0  0  0  0  0  0  0  0  0  0  0
    3.8570   70.5390   69.2720 C   0  0  0  0  0  0  0  0  0  0  0  0
    2.6560   69.8640   69.0790 C   0  0  0  0  0  0  0  0  0  0  0  0
    6.0410   71.3510   68.3170 C   0  0  0  0  0  0  0  0  0  0  0  0
    6.0400   72.5250   67.9740 O   0  0  0  0  0  0  0  0  0  0  0  0
    7.1590   70.7230   68.7740 N   0  0  0  0  0  0  0  0  0  0  0  0
    2.2265   66.8400   68.3489 H   0  0  0  0  0  0  0  0  0  0  0  0
    0.6843   66.4730   67.4326 H   0  0  0  0  0  0  0  0  0  0  0  0
    0.6031   67.6585   70.2100 H   0  0  0  0  0  0  0  0  0  0  0  0
   -0.6535   66.7377   69.3055 H   0  0  0  0  0  0  0  0  0  0  0  0
    3.7648   63.8305   70.6869 H   0  0  0  0  0  0  0  0  0  0  0  0
    2.9429   65.9366   69.6410 H   0  0  0  0  0  0  0  0  0  0  0  0
   -1.0455   64.9923   70.7570 H   0  0  0  0  0  0  0  0  0  0  0  0
    2.2021   61.0209   71.3582 H   0  0  0  0  0  0  0  0  0  0  0  0
    3.6579   60.4282   74.2452 H   0  0  0  0  0  0  0  0  0  0  0  0
    0.8080   68.5549   66.6539 H   0  0  0  0  0  0  0  0  0  0  0  0
    0.3175   69.0658   68.3216 H   0  0  0  0  0  0  0  0  0  0  0  0
    3.0829   68.6953   65.9705 H   0  0  0  0  0  0  0  0  0  0  0  0
    5.2314   69.9198   66.2186 H   0  0  0  0  0  0  0  0  0  0  0  0
    4.0698   71.0375   70.2292 H   0  0  0  0  0  0  0  0  0  0  0  0
    1.9230   69.8182   69.8979 H   0  0  0  0  0  0  0  0  0  0  0  0
    8.0483   71.2383   68.8407 H   0  0  0  0  0  0  0  0  0  0  0  0
    7.1156   69.7325   69.0531 H   0  0  0  0  0  0  0  0  0  0  0  0
  2  1  1  0
  4  3  2  0
  5  4  1  0
  6  5  2  0
  6  2  1  0
  7  6  1  0
  8  7  2  0
  8  3  1  0
  9  8  1  0
 11 10  2  0
 11  3  1  0
 12 10  1  0
 13  1  1  0
 14 13  1  0
 15 14  2  0
 16 15  1  0
 17 16  2  0
 18 17  1  0
 19 18  2  0
 19 14  1  0
 20 17  1  0
 21 20  2  0
 22 20  1  0
  1 23  1  0
  1 24  1  0
  2 25  1  0
  2 26  1  0
  4 27  1  0
  5 28  1  0
  7 29  1  0
 11 30  1  0
 12 31  1  0
 13 32  1  0
 13 33  1  0
 15 34  1  0
 16 35  1  0
 18 36  1  0
 19 37  1  0
 22 38  1  0
 22 39  1  0
M  CHG  2   6   1  14   1
M  END
>  <score>  (9) 
-7.536

$$$$
