=
     RDKit          3D

 39 41  0  0  0  0  0  0  0  0999 V2000
    2.0970   67.9330   64.5280 C   0  0  0  0  0  0  0  0  0  0  0  0
    2.6590   66.3500   64.6040 S   0  0  0  0  0  0  0  0  0  0  0  0
    0.7710   68.3840   64.3770 N   0  0  0  0  0  0  0  0  0  0  0  0
    0.4290   69.1840   63.1990 C   0  0  0  0  0  0  0  0  0  0  0  0
   -0.8070   66.4780   68.7120 C   0  0  0  0  0  0  0  0  0  0  0  0
   -1.0550   67.3160   67.4920 C   0  0  0  0  0  0  0  0  0  0  0  0
   -2.3090   67.8890   67.2680 C   0  0  0  0  0  0  0  0  0  0  0  0
   -2.5430   68.6280   66.1120 C   0  0  0  0  0  0  0  0  0  0  0  0
   -1.5270   68.7950   65.1680 C   0  0  0  0  0  0  0  0  0  0  0  0
   -0.2550   68.2370   65.3700 C   0  0  0  0  0  0  0  0  0  0  0  0
   -0.0450   67.4800   66.5310 C   0  0  0  0  0  0  0  0  0  0  0  0
    2.9990   69.0030   64.7130 O   0  0  0  0  0  0  0  0  0  0  0  0
    3.5310   69.4470   65.9480 C   0  0  0  0  0  0  0  0  0  0  0  0
    2.7010   69.5120   67.0600 C   0  0  0  0  0  0  0  0  0  0  0  0
    3.2450   69.9060   68.2820 C   0  0  0  0  0  0  0  0  0  0  0  0
    4.6130   70.2160   68.3930 C   0  0  0  0  0  0  0  0  0  0  0  0
    5.4470   70.1260   67.2500 C   0  0  0  0  0  0  0  0  0  0  0  0
    4.8930   69.7290   66.0240 C   0  0  0  0  0  0  0  0  0  0  0  0
    6.8120   70.4320   67.3680 C   0  0  0  0  0  0  0  0  0  0  0  0
    7.3510   70.8260   68.5940 C   0  0  0  0  0  0  0  0  0  0  0  0
    6.5320   70.9160   69.7170 C   0  0  0  0  0  0  0  0  0  0  0  0
    5.1730   70.6140   69.6170 C   0  0  0  0  0  0  0  0  0  0  0  0
    0.0154   70.1514   63.5202 H   0  0  0  0  0  0  0  0  0  0  0  0
    1.3332   69.3538   62.5960 H   0  0  0  0  0  0  0  0  0  0  0  0
   -0.3185   68.6477   62.5960 H   0  0  0  0  0  0  0  0  0  0  0  0
   -0.9857   67.0817   69.6140 H   0  0  0  0  0  0  0  0  0  0  0  0
   -1.4880   65.6142   68.7081 H   0  0  0  0  0  0  0  0  0  0  0  0
    0.2344   66.1239   68.7081 H   0  0  0  0  0  0  0  0  0  0  0  0
   -3.1132   67.7559   68.0066 H   0  0  0  0  0  0  0  0  0  0  0  0
   -3.5305   69.0817   65.9413 H   0  0  0  0  0  0  0  0  0  0  0  0
   -1.7267   69.3721   64.2531 H   0  0  0  0  0  0  0  0  0  0  0  0
    0.9333   67.0038   66.6926 H   0  0  0  0  0  0  0  0  0  0  0  0
    1.6340   69.2573   66.9781 H   0  0  0  0  0  0  0  0  0  0  0  0
    2.5977   69.9752   69.1687 H   0  0  0  0  0  0  0  0  0  0  0  0
    5.5285   69.6411   65.1305 H   0  0  0  0  0  0  0  0  0  0  0  0
    7.4639   70.3605   66.4849 H   0  0  0  0  0  0  0  0  0  0  0  0
    8.4218   71.0652   68.6731 H   0  0  0  0  0  0  0  0  0  0  0  0
    6.9566   71.2253   70.6835 H   0  0  0  0  0  0  0  0  0  0  0  0
    4.5329   70.6888   70.5084 H   0  0  0  0  0  0  0  0  0  0  0  0
  2  1  2  0
  3  1  1  0
  4  3  1  0
  6  5  1  0
  7  6  2  0
  8  7  1  0
  9  8  2  0
 10  9  1  0
 10  3  1  0
 11 10  2  0
 11  6  1  0
 12  1  1  0
 13 12  1  0
 14 13  2  0
 15 14  1  0
 16 15  2  0
 17 16  1  0
 18 17  2  0
 18 13  1  0
 19 17  1  0
 20 19  2  0
 21 20  1  0
 22 16  1  0
 22 21  2  0
  4 23  1  0
  4 24  1  0
  4 25  1  0
  5 26  1  0
  5 27  1  0
  5 28  1  0
  7 29  1  0
  8 30  1  0
  9 31  1  0
 11 32  1  0
 14 33  1  0
 15 34  1  0
 18 35  1  0
 19 36  1  0
 20 37  1  0
 21 38  1  0
 22 39  1  0
M  END
>  <score>  (1) 
-10.627

$$$$
=
     RDKit          3D

 39 41  0  0  0  0  0  0  0  0999 V2000
    0.9030   67.9050   66.2890 C   0  0  0  0  0  0  0  0  0  0  0  0
   -0.1990   67.2370   67.3670 S   0  0  0  0  0  0  0  0  0  0  0  0
    1.3210   67.4000   65.0410 N   0  0  0  0  0  0  0  0  0  0  0  0
    2.0460   66.1280   65.0030 C   0  0  0  0  0  0  0  0  0  0  0  0
    3.3370   68.8950   60.7260 C   0  0  0  0  0  0  0  0  0  0  0  0
    2.1770   68.8610   61.6770 C   0  0  0  0  0  0  0  0  0  0  0  0
    1.0160   69.5890   61.4070 C   0  0  0  0  0  0  0  0  0  0  0  0
   -0.0380   69.5870   62.3170 C   0  0  0  0  0  0  0  0  0  0  0  0
    0.0630   68.8600   63.5050 C   0  0  0  0  0  0  0  0  0  0  0  0
    1.2140   68.1130   63.8000 C   0  0  0  0  0  0  0  0  0  0  0  0
    2.2720   68.1440   62.8810 C   0  0  0  0  0  0  0  0  0  0  0  0
    1.4640   69.1720   66.5590 O   0  0  0  0  0  0  0  0  0  0  0  0
    2.8330   69.4500   66.7900 C   0  0  0  0  0  0  0  0  0  0  0  0
    3.7240   69.3990   65.7250 C   0  0  0  0  0  0  0  0  0  0  0  0
    5.0620   69.7210   65.9530 C   0  0  0  0  0  0  0  0  0  0  0  0
    5.5000   70.1070   67.2330 C   0  0  0  0  0  0  0  0  0  0  0  0
    4.5710   70.1710   68.3020 C   0  0  0  0  0  0  0  0  0  0  0  0
    3.2280   69.8450   68.0660 C   0  0  0  0  0  0  0  0  0  0  0  0
    5.0140   70.5610   69.5760 C   0  0  0  0  0  0  0  0  0  0  0  0
    6.3540   70.8820   69.7970 C   0  0  0  0  0  0  0  0  0  0  0  0
    7.2680   70.8180   68.7490 C   0  0  0  0  0  0  0  0  0  0  0  0
    6.8440   70.4340   67.4750 C   0  0  0  0  0  0  0  0  0  0  0  0
    2.2408   65.7862   66.0302 H   0  0  0  0  0  0  0  0  0  0  0  0
    1.4405   65.3765   64.4751 H   0  0  0  0  0  0  0  0  0  0  0  0
    3.0011   66.2660   64.4751 H   0  0  0  0  0  0  0  0  0  0  0  0
    4.2775   68.9226   61.2958 H   0  0  0  0  0  0  0  0  0  0  0  0
    3.3183   67.9959   60.0925 H   0  0  0  0  0  0  0  0  0  0  0  0
    3.2656   69.7914   60.0925 H   0  0  0  0  0  0  0  0  0  0  0  0
    0.9341   70.1651   60.4735 H   0  0  0  0  0  0  0  0  0  0  0  0
   -0.9520   70.1592   62.0996 H   0  0  0  0  0  0  0  0  0  0  0  0
   -0.7723   68.8730   64.2206 H   0  0  0  0  0  0  0  0  0  0  0  0
    3.1975   67.5944   63.1079 H   0  0  0  0  0  0  0  0  0  0  0  0
    3.3806   69.1101   64.7207 H   0  0  0  0  0  0  0  0  0  0  0  0
    5.7823   69.6726   65.1231 H   0  0  0  0  0  0  0  0  0  0  0  0
    2.4923   69.9007   68.8818 H   0  0  0  0  0  0  0  0  0  0  0  0
    4.2972   70.6141   70.4087 H   0  0  0  0  0  0  0  0  0  0  0  0
    6.6882   71.1858   70.8000 H   0  0  0  0  0  0  0  0  0  0  0  0
    8.3243   71.0699   68.9244 H   0  0  0  0  0  0  0  0  0  0  0  0
    7.5715   70.3871   66.6513 H   0  0  0  0  0  0  0  0  0  0  0  0
  2  1  2  0
  3  1  1  0
  4  3  1  0
  6  5  1  0
  7  6  2  0
  8  7  1  0
  9  8  2  0
 10  9  1  0
 10  3  1  0
 11 10  2  0
 11  6  1  0
 12  1  1  0
 13 12  1  0
 14 13  2  0
 15 14  1  0
 16 15  2  0
 17 16  1  0
 18 17  2  0
 18 13  1  0
 19 17  1  0
 20 19  2  0
 21 20  1  0
 22 16  1  0
 22 21  2  0
  4 23  1  0
  4 24  1  0
  4 25  1  0
  5 26  1  0
  5 27  1  0
  5 28  1  0
  7 29  1  0
  8 30  1  0
  9 31  1  0
 11 32  1  0
 14 33  1  0
 15 34  1  0
 18 35  1  0
 19 36  1  0
 20 37  1  0
 21 38  1  0
 22 39  1  0
M  END
>  <score>  (2) 
-10.548

$$$$
=
     RDKit          3D

 39 41  0  0  0  0  0  0  0  0999 V2000
    0.3540   68.4350   65.5970 C   0  0  0  0  0  0  0  0  0  0  0  0
   -1.1130   69.0840   66.0980 S   0  0  0  0  0  0  0  0  0  0  0  0
    0.8340   68.2700   64.2810 N   0  0  0  0  0  0  0  0  0  0  0  0
    0.0400   68.8020   63.1710 C   0  0  0  0  0  0  0  0  0  0  0  0
    3.5700   64.1280   64.8050 C   0  0  0  0  0  0  0  0  0  0  0  0
    3.3460   65.4670   64.1660 C   0  0  0  0  0  0  0  0  0  0  0  0
    4.2930   66.0030   63.2910 C   0  0  0  0  0  0  0  0  0  0  0  0
    4.0990   67.2660   62.7380 C   0  0  0  0  0  0  0  0  0  0  0  0
    2.9560   68.0040   63.0590 C   0  0  0  0  0  0  0  0  0  0  0  0
    1.9840   67.4870   63.9290 C   0  0  0  0  0  0  0  0  0  0  0  0
    2.2080   66.2230   64.4920 C   0  0  0  0  0  0  0  0  0  0  0  0
    1.3170   68.0600   66.5590 O   0  0  0  0  0  0  0  0  0  0  0  0
    2.2920   68.9050   67.1430 C   0  0  0  0  0  0  0  0  0  0  0  0
    2.0250   69.5000   68.3700 C   0  0  0  0  0  0  0  0  0  0  0  0
    3.0100   70.2920   68.9590 C   0  0  0  0  0  0  0  0  0  0  0  0
    4.2570   70.4730   68.3330 C   0  0  0  0  0  0  0  0  0  0  0  0
    4.5150   69.8420   67.0900 C   0  0  0  0  0  0  0  0  0  0  0  0
    3.5200   69.0470   66.5030 C   0  0  0  0  0  0  0  0  0  0  0  0
    5.7630   70.0230   66.4730 C   0  0  0  0  0  0  0  0  0  0  0  0
    6.7440   70.8170   67.0680 C   0  0  0  0  0  0  0  0  0  0  0  0
    6.4910   71.4380   68.2880 C   0  0  0  0  0  0  0  0  0  0  0  0
    5.2570   71.2680   68.9160 C   0  0  0  0  0  0  0  0  0  0  0  0
   -0.8117   69.3726   63.5698 H   0  0  0  0  0  0  0  0  0  0  0  0
    0.6676   69.4626   62.5548 H   0  0  0  0  0  0  0  0  0  0  0  0
   -0.3322   67.9703   62.5548 H   0  0  0  0  0  0  0  0  0  0  0  0
    3.5519   64.2364   65.8995 H   0  0  0  0  0  0  0  0  0  0  0  0
    2.7753   63.4348   64.4920 H   0  0  0  0  0  0  0  0  0  0  0  0
    4.5470   63.7312   64.4920 H   0  0  0  0  0  0  0  0  0  0  0  0
    5.1946   65.4259   63.0379 H   0  0  0  0  0  0  0  0  0  0  0  0
    4.8464   67.6838   62.0474 H   0  0  0  0  0  0  0  0  0  0  0  0
    2.8166   69.0044   62.6233 H   0  0  0  0  0  0  0  0  0  0  0  0
    1.4766   65.8142   65.2047 H   0  0  0  0  0  0  0  0  0  0  0  0
    1.0554   69.3492   68.8671 H   0  0  0  0  0  0  0  0  0  0  0  0
    2.8099   70.7808   69.9239 H   0  0  0  0  0  0  0  0  0  0  0  0
    3.7083   68.5400   65.5451 H   0  0  0  0  0  0  0  0  0  0  0  0
    5.9697   69.5335   65.5099 H   0  0  0  0  0  0  0  0  0  0  0  0
    7.7171   70.9523   66.5732 H   0  0  0  0  0  0  0  0  0  0  0  0
    7.2648   72.0633   68.7572 H   0  0  0  0  0  0  0  0  0  0  0  0
    5.0650   71.7627   69.8795 H   0  0  0  0  0  0  0  0  0  0  0  0
  2  1  2  0
  3  1  1  0
  4  3  1  0
  6  5  1  0
  7  6  2  0
  8  7  1  0
  9  8  2  0
 10  9  1  0
 10  3  1  0
 11 10  2  0
 11  6  1  0
 12  1  1  0
 13 12  1  0
 14 13  2  0
 15 14  1  0
 16 15  2  0
 17 16  1  0
 18 17  2  0
 18 13  1  0
 19 17  1  0
 20 19  2  0
 21 20  1  0
 22 16  1  0
 22 21  2  0
  4 23  1  0
  4 24  1  0
  4 25  1  0
  5 26  1  0
  5 27  1  0
  5 28  1  0
  7 29  1  0
  8 30  1  0
  9 31  1  0
 11 32  1  0
 14 33  1  0
 15 34  1  0
 18 35  1  0
 19 36  1  0
 20 37  1  0
 21 38  1  0
 22 39  1  0
M  END
>  <score>  (3) 
-10.546

$$$$
=
     RDKit          3D

 39 41  0  0  0  0  0  0  0  0999 V2000
    1.2240   67.7670   66.0980 C   0  0  0  0  0  0  0  0  0  0  0  0
    0.0940   67.1310   67.1680 S   0  0  0  0  0  0  0  0  0  0  0  0
    1.7950   67.1570   64.9630 N   0  0  0  0  0  0  0  0  0  0  0  0
    2.3020   65.7880   65.0820 C   0  0  0  0  0  0  0  0  0  0  0  0
    0.1520   69.8280   61.0800 C   0  0  0  0  0  0  0  0  0  0  0  0
    1.2700   69.1380   61.8050 C   0  0  0  0  0  0  0  0  0  0  0  0
    2.5450   69.0680   61.2390 C   0  0  0  0  0  0  0  0  0  0  0  0
    3.5660   68.3880   61.8980 C   0  0  0  0  0  0  0  0  0  0  0  0
    3.3180   67.7690   63.1260 C   0  0  0  0  0  0  0  0  0  0  0  0
    2.0480   67.8290   63.7210 C   0  0  0  0  0  0  0  0  0  0  0  0
    1.0290   68.5000   63.0330 C   0  0  0  0  0  0  0  0  0  0  0  0
    1.6430   69.1080   66.2410 O   0  0  0  0  0  0  0  0  0  0  0  0
    2.6870   69.5760   67.0760 C   0  0  0  0  0  0  0  0  0  0  0  0
    2.4090   69.8810   68.4020 C   0  0  0  0  0  0  0  0  0  0  0  0
    3.4530   70.2960   69.2280 C   0  0  0  0  0  0  0  0  0  0  0  0
    4.7670   70.3890   68.7340 C   0  0  0  0  0  0  0  0  0  0  0  0
    5.0320   70.0550   67.3820 C   0  0  0  0  0  0  0  0  0  0  0  0
    3.9770   69.6390   66.5570 C   0  0  0  0  0  0  0  0  0  0  0  0
    6.3460   70.1460   66.8960 C   0  0  0  0  0  0  0  0  0  0  0  0
    7.3870   70.5630   67.7280 C   0  0  0  0  0  0  0  0  0  0  0  0
    7.1270   70.8910   69.0560 C   0  0  0  0  0  0  0  0  0  0  0  0
    5.8270   70.8050   69.5550 C   0  0  0  0  0  0  0  0  0  0  0  0
    2.3997   65.5243   66.1455 H   0  0  0  0  0  0  0  0  0  0  0  0
    1.6013   65.0939   64.5950 H   0  0  0  0  0  0  0  0  0  0  0  0
    3.2858   65.7177   64.5950 H   0  0  0  0  0  0  0  0  0  0  0  0
   -0.5476   70.2598   61.8109 H   0  0  0  0  0  0  0  0  0  0  0  0
    0.5637   70.6293   60.4488 H   0  0  0  0  0  0  0  0  0  0  0  0
   -0.3797   69.1007   60.4488 H   0  0  0  0  0  0  0  0  0  0  0  0
    2.7430   69.5510   60.2707 H   0  0  0  0  0  0  0  0  0  0  0  0
    4.5698   68.3380   61.4510 H   0  0  0  0  0  0  0  0  0  0  0  0
    4.1295   67.2270   63.6336 H   0  0  0  0  0  0  0  0  0  0  0  0
    0.0173   68.5280   63.4640 H   0  0  0  0  0  0  0  0  0  0  0  0
    1.3844   69.7968   68.7934 H   0  0  0  0  0  0  0  0  0  0  0  0
    3.2469   70.5535   70.2774 H   0  0  0  0  0  0  0  0  0  0  0  0
    4.1673   69.3649   65.5088 H   0  0  0  0  0  0  0  0  0  0  0  0
    6.5578   69.8860   65.8484 H   0  0  0  0  0  0  0  0  0  0  0  0
    8.4119   70.6323   67.3345 H   0  0  0  0  0  0  0  0  0  0  0  0
    7.9471   71.2181   69.7121 H   0  0  0  0  0  0  0  0  0  0  0  0
    5.6301   71.0665   70.6052 H   0  0  0  0  0  0  0  0  0  0  0  0
  2  1  2  0
  3  1  1  0
  4  3  1  0
  6  5  1  0
  7  6  2  0
  8  7  1  0
  9  8  2  0
 10  9  1  0
 10  3  1  0
 11 10  2  0
 11  6  1  0
 12  1  1  0
 13 12  1  0
 14 13  2  0
 15 14  1  0
 16 15  2  0
 17 16  1  0
 18 17  2  0
 18 13  1  0
 19 17  1  0
 20 19  2  0
 21 20  1  0
 22 16  1  0
 22 21  2  0
  4 23  1  0
  4 24  1  0
  4 25  1  0
  5 26  1  0
  5 27  1  0
  5 28  1  0
  7 29  1  0
  8 30  1  0
  9 31  1  0
 11 32  1  0
 14 33  1  0
 15 34  1  0
 18 35  1  0
 19 36  1  0
 20 37  1  0
 21 38  1  0
 22 39  1  0
M  END
>  <score>  (4) 
-10.382

$$$$
=
     RDKit          3D

 39 41  0  0  0  0  0  0  0  0999 V2000
    0.9860   67.7360   68.1720 C   0  0  0  0  0  0  0  0  0  0  0  0
    1.1360   66.7360   69.5140 S   0  0  0  0  0  0  0  0  0  0  0  0
    1.3140   69.1030   68.0590 N   0  0  0  0  0  0  0  0  0  0  0  0
    0.2340   70.0710   67.8560 C   0  0  0  0  0  0  0  0  0  0  0  0
    5.5670   69.7390   65.5240 C   0  0  0  0  0  0  0  0  0  0  0  0
    4.7510   69.9400   66.7670 C   0  0  0  0  0  0  0  0  0  0  0  0
    5.3110   70.5460   67.8940 C   0  0  0  0  0  0  0  0  0  0  0  0
    4.5610   70.6880   69.0580 C   0  0  0  0  0  0  0  0  0  0  0  0
    3.2450   70.2200   69.1050 C   0  0  0  0  0  0  0  0  0  0  0  0
    2.6530   69.6130   67.9870 C   0  0  0  0  0  0  0  0  0  0  0  0
    3.4310   69.4620   66.8310 C   0  0  0  0  0  0  0  0  0  0  0  0
    0.5620   67.1930   66.9400 O   0  0  0  0  0  0  0  0  0  0  0  0
    1.1100   67.4780   65.6650 C   0  0  0  0  0  0  0  0  0  0  0  0
    0.4740   68.4020   64.8450 C   0  0  0  0  0  0  0  0  0  0  0  0
    1.0470   68.7100   63.6120 C   0  0  0  0  0  0  0  0  0  0  0  0
    2.2540   68.1100   63.2090 C   0  0  0  0  0  0  0  0  0  0  0  0
    2.8950   67.1820   64.0690 C   0  0  0  0  0  0  0  0  0  0  0  0
    2.3140   66.8770   65.3080 C   0  0  0  0  0  0  0  0  0  0  0  0
    4.1020   66.5900   63.6630 C   0  0  0  0  0  0  0  0  0  0  0  0
    4.6690   66.9020   62.4270 C   0  0  0  0  0  0  0  0  0  0  0  0
    4.0390   67.8120   61.5820 C   0  0  0  0  0  0  0  0  0  0  0  0
    2.8400   68.4110   61.9700 C   0  0  0  0  0  0  0  0  0  0  0  0
   -0.1435   70.4093   68.8323 H   0  0  0  0  0  0  0  0  0  0  0  0
    0.6166   70.9342   67.2916 H   0  0  0  0  0  0  0  0  0  0  0  0
   -0.5823   69.5966   67.2916 H   0  0  0  0  0  0  0  0  0  0  0  0
    6.6006   69.4844   65.8011 H   0  0  0  0  0  0  0  0  0  0  0  0
    5.1345   68.9205   64.9298 H   0  0  0  0  0  0  0  0  0  0  0  0
    5.5641   70.6647   64.9298 H   0  0  0  0  0  0  0  0  0  0  0  0
    6.3478   70.9121   67.8616 H   0  0  0  0  0  0  0  0  0  0  0  0
    5.0047   71.1692   69.9420 H   0  0  0  0  0  0  0  0  0  0  0  0
    2.6643   70.3292   70.0328 H   0  0  0  0  0  0  0  0  0  0  0  0
    2.9986   68.9580   65.9541 H   0  0  0  0  0  0  0  0  0  0  0  0
   -0.4637   68.8813   65.1627 H   0  0  0  0  0  0  0  0  0  0  0  0
    0.5495   69.4307   62.9463 H   0  0  0  0  0  0  0  0  0  0  0  0
    2.8051   66.1691   65.9919 H   0  0  0  0  0  0  0  0  0  0  0  0
    4.6060   65.8723   64.3269 H   0  0  0  0  0  0  0  0  0  0  0  0
    5.6136   66.4292   62.1201 H   0  0  0  0  0  0  0  0  0  0  0  0
    4.4868   68.0588   60.6081 H   0  0  0  0  0  0  0  0  0  0  0  0
    2.3481   69.1280   61.2963 H   0  0  0  0  0  0  0  0  0  0  0  0
  2  1  2  0
  3  1  1  0
  4  3  1  0
  6  5  1  0
  7  6  2  0
  8  7  1  0
  9  8  2  0
 10  9  1  0
 10  3  1  0
 11 10  2  0
 11  6  1  0
 12  1  1  0
 13 12  1  0
 14 13  2  0
 15 14  1  0
 16 15  2  0
 17 16  1  0
 18 17  2  0
 18 13  1  0
 19 17  1  0
 20 19  2  0
 21 20  1  0
 22 16  1  0
 22 21  2  0
  4 23  1  0
  4 24  1  0
  4 25  1  0
  5 26  1  0
  5 27  1  0
  5 28  1  0
  7 29  1  0
  8 30  1  0
  9 31  1  0
 11 32  1  0
 14 33  1  0
 15 34  1  0
 18 35  1  0
 19 36  1  0
 20 37  1  0
 21 38  1  0
 22 39  1  0
M  END
>  <score>  (5) 
-10.375

$$$$
=
     RDKit          3D

 39 41  0  0  0  0  0  0  0  0999 V2000
    3.9420   67.7930   63.8500 C   0  0  0  0  0  0  0  0  0  0  0  0
    4.2970   66.1540   63.9550 S   0  0  0  0  0  0  0  0  0  0  0  0
    4.7470   68.8880   64.2240 N   0  0  0  0  0  0  0  0  0  0  0  0
    5.6320   69.4850   63.2220 C   0  0  0  0  0  0  0  0  0  0  0  0
    2.6750   70.0410   68.6170 C   0  0  0  0  0  0  0  0  0  0  0  0
    3.8820   69.9580   67.7290 C   0  0  0  0  0  0  0  0  0  0  0  0
    5.1190   70.4390   68.1660 C   0  0  0  0  0  0  0  0  0  0  0  0
    6.2230   70.3980   67.3200 C   0  0  0  0  0  0  0  0  0  0  0  0
    6.0990   69.8800   66.0290 C   0  0  0  0  0  0  0  0  0  0  0  0
    4.8720   69.3830   65.5650 C   0  0  0  0  0  0  0  0  0  0  0  0
    3.7660   69.4510   66.4240 C   0  0  0  0  0  0  0  0  0  0  0  0
    2.7350   68.2080   63.2450 O   0  0  0  0  0  0  0  0  0  0  0  0
    1.4870   68.3750   63.8930 C   0  0  0  0  0  0  0  0  0  0  0  0
    0.4620   69.0370   63.2280 C   0  0  0  0  0  0  0  0  0  0  0  0
   -0.7770   69.1550   63.8550 C   0  0  0  0  0  0  0  0  0  0  0  0
   -0.9940   68.6010   65.1310 C   0  0  0  0  0  0  0  0  0  0  0  0
    0.0610   67.9150   65.7840 C   0  0  0  0  0  0  0  0  0  0  0  0
    1.3050   67.8000   65.1470 C   0  0  0  0  0  0  0  0  0  0  0  0
   -0.1630   67.3610   67.0550 C   0  0  0  0  0  0  0  0  0  0  0  0
   -1.4060   67.4830   67.6770 C   0  0  0  0  0  0  0  0  0  0  0  0
   -2.4420   68.1580   67.0370 C   0  0  0  0  0  0  0  0  0  0  0  0
   -2.2370   68.7140   65.7730 C   0  0  0  0  0  0  0  0  0  0  0  0
    6.4420   70.0314   63.7272 H   0  0  0  0  0  0  0  0  0  0  0  0
    6.0617   68.6915   62.5930 H   0  0  0  0  0  0  0  0  0  0  0  0
    5.0572   70.1806   62.5930 H   0  0  0  0  0  0  0  0  0  0  0  0
    2.9923   70.0192   69.6700 H   0  0  0  0  0  0  0  0  0  0  0  0
    2.1356   70.9784   68.4159 H   0  0  0  0  0  0  0  0  0  0  0  0
    2.0124   69.1863   68.4159 H   0  0  0  0  0  0  0  0  0  0  0  0
    5.2203   70.8509   69.1809 H   0  0  0  0  0  0  0  0  0  0  0  0
    7.1959   70.7745   67.6689 H   0  0  0  0  0  0  0  0  0  0  0  0
    6.9766   69.8614   65.3661 H   0  0  0  0  0  0  0  0  0  0  0  0
    2.7861   69.0997   66.0684 H   0  0  0  0  0  0  0  0  0  0  0  0
    0.6255   69.4598   62.2258 H   0  0  0  0  0  0  0  0  0  0  0  0
   -1.5948   69.6871   63.3471 H   0  0  0  0  0  0  0  0  0  0  0  0
    2.1299   67.2598   65.6345 H   0  0  0  0  0  0  0  0  0  0  0  0
    0.6505   66.8250   67.5658 H   0  0  0  0  0  0  0  0  0  0  0  0
   -1.5675   67.0457   68.6734 H   0  0  0  0  0  0  0  0  0  0  0  0
   -3.4220   68.2532   67.5274 H   0  0  0  0  0  0  0  0  0  0  0  0
   -3.0597   69.2472   65.2741 H   0  0  0  0  0  0  0  0  0  0  0  0
  2  1  2  0
  3  1  1  0
  4  3  1  0
  6  5  1  0
  7  6  2  0
  8  7  1  0
  9  8  2  0
 10  9  1  0
 10  3  1  0
 11 10  2  0
 11  6  1  0
 12  1  1  0
 13 12  1  0
 14 13  2  0
 15 14  1  0
 16 15  2  0
 17 16  1  0
 18 17  2  0
 18 13  1  0
 19 17  1  0
 20 19  2  0
 21 20  1  0
 22 16  1  0
 22 21  2  0
  4 23  1  0
  4 24  1  0
  4 25  1  0
  5 26  1  0
  5 27  1  0
  5 28  1  0
  7 29  1  0
  8 30  1  0
  9 31  1  0
 11 32  1  0
 14 33  1  0
 15 34  1  0
 18 35  1  0
 19 36  1  0
 20 37  1  0
 21 38  1  0
 22 39  1  0
M  END
>  <score>  (6) 
-10.021

$$$$
=
     RDKit          3D

 39 41  0  0  0  0  0  0  0  0999 V2000
    0.6650   67.7560   68.3630 C   0  0  0  0  0  0  0  0  0  0  0  0
   -0.6800   66.8860   67.8530 S   0  0  0  0  0  0  0  0  0  0  0  0
    1.0420   69.0680   68.0130 N   0  0  0  0  0  0  0  0  0  0  0  0
   -0.0020   70.0250   67.6410 C   0  0  0  0  0  0  0  0  0  0  0  0
    5.1900   69.3800   65.2530 C   0  0  0  0  0  0  0  0  0  0  0  0
    4.4470   69.6750   66.5230 C   0  0  0  0  0  0  0  0  0  0  0  0
    5.0910   70.3010   67.5930 C   0  0  0  0  0  0  0  0  0  0  0  0
    4.4060   70.5310   68.7830 C   0  0  0  0  0  0  0  0  0  0  0  0
    3.0740   70.1320   68.9140 C   0  0  0  0  0  0  0  0  0  0  0  0
    2.3990   69.5070   67.8540 C   0  0  0  0  0  0  0  0  0  0  0  0
    3.1110   69.2670   66.6710 C   0  0  0  0  0  0  0  0  0  0  0  0
    1.5310   67.1990   69.3290 O   0  0  0  0  0  0  0  0  0  0  0  0
    1.2830   66.0460   70.1120 C   0  0  0  0  0  0  0  0  0  0  0  0
    0.2310   66.0550   71.0180 C   0  0  0  0  0  0  0  0  0  0  0  0
   -0.0350   64.8980   71.7500 C   0  0  0  0  0  0  0  0  0  0  0  0
    0.7370   63.7370   71.5650 C   0  0  0  0  0  0  0  0  0  0  0  0
    1.7960   63.7430   70.6220 C   0  0  0  0  0  0  0  0  0  0  0  0
    2.0570   64.9100   69.8890 C   0  0  0  0  0  0  0  0  0  0  0  0
    2.5610   62.5800   70.4390 C   0  0  0  0  0  0  0  0  0  0  0  0
    2.2900   61.4260   71.1750 C   0  0  0  0  0  0  0  0  0  0  0  0
    1.2520   61.4190   72.1030 C   0  0  0  0  0  0  0  0  0  0  0  0
    0.4810   62.5660   72.2960 C   0  0  0  0  0  0  0  0  0  0  0  0
   -0.4576   70.4427   68.5509 H   0  0  0  0  0  0  0  0  0  0  0  0
    0.4406   70.8377   67.0463 H   0  0  0  0  0  0  0  0  0  0  0  0
   -0.7732   69.5136   67.0463 H   0  0  0  0  0  0  0  0  0  0  0  0
    6.1873   68.9840   65.4952 H   0  0  0  0  0  0  0  0  0  0  0  0
    4.6322   68.6351   64.6665 H   0  0  0  0  0  0  0  0  0  0  0  0
    5.2951   70.3046   64.6665 H   0  0  0  0  0  0  0  0  0  0  0  0
    6.1413   70.6128   67.4951 H   0  0  0  0  0  0  0  0  0  0  0  0
    4.9150   71.0281   69.6219 H   0  0  0  0  0  0  0  0  0  0  0  0
    2.5459   70.3103   69.8623 H   0  0  0  0  0  0  0  0  0  0  0  0
    2.6124   68.7474   65.8395 H   0  0  0  0  0  0  0  0  0  0  0  0
   -0.3815   66.9582   71.1560 H   0  0  0  0  0  0  0  0  0  0  0  0
   -0.8577   64.8935   72.4801 H   0  0  0  0  0  0  0  0  0  0  0  0
    2.8663   64.9278   69.1442 H   0  0  0  0  0  0  0  0  0  0  0  0
    3.3827   62.5786   69.7077 H   0  0  0  0  0  0  0  0  0  0  0  0
    2.8967   60.5213   71.0220 H   0  0  0  0  0  0  0  0  0  0  0  0
    1.0397   60.5094   72.6840 H   0  0  0  0  0  0  0  0  0  0  0  0
   -0.3379   62.5525   73.0303 H   0  0  0  0  0  0  0  0  0  0  0  0
  2  1  2  0
  3  1  1  0
  4  3  1  0
  6  5  1  0
  7  6  2  0
  8  7  1  0
  9  8  2  0
 10  9  1  0
 10  3  1  0
 11 10  2  0
 11  6  1  0
 12  1  1  0
 13 12  1  0
 14 13  2  0
 15 14  1  0
 16 15  2  0
 17 16  1  0
 18 17  2  0
 18 13  1  0
 19 17  1  0
 20 19  2  0
 21 20  1  0
 22 16  1  0
 22 21  2  0
  4 23  1  0
  4 24  1  0
  4 25  1  0
  5 26  1  0
  5 27  1  0
  5 28  1  0
  7 29  1  0
  8 30  1  0
  9 31  1  0
 11 32  1  0
 14 33  1  0
 15 34  1  0
 18 35  1  0
 19 36  1  0
 20 37  1  0
 21 38  1  0
 22 39  1  0
M  END
>  <score>  (7) 
-9.374

$$$$
=
     RDKit          3D

 39 41  0  0  0  0  0  0  0  0999 V2000
    2.6560   58.4530   74.4020 C   0  0  0  0  0  0  0  0  0  0  0  0
    3.1000   58.9420   75.9470 S   0  0  0  0  0  0  0  0  0  0  0  0
    1.3660   58.1630   73.9130 N   0  0  0  0  0  0  0  0  0  0  0  0
    1.0790   56.8040   73.4490 C   0  0  0  0  0  0  0  0  0  0  0  0
   -0.1230   62.5200   71.9860 C   0  0  0  0  0  0  0  0  0  0  0  0
   -0.4190   61.2740   72.7690 C   0  0  0  0  0  0  0  0  0  0  0  0
   -1.6670   61.0950   73.3710 C   0  0  0  0  0  0  0  0  0  0  0  0
   -1.9180   59.9570   74.1330 C   0  0  0  0  0  0  0  0  0  0  0  0
   -0.9220   58.9920   74.3020 C   0  0  0  0  0  0  0  0  0  0  0  0
    0.3380   59.1420   73.7020 C   0  0  0  0  0  0  0  0  0  0  0  0
    0.5780   60.3030   72.9560 C   0  0  0  0  0  0  0  0  0  0  0  0
    3.6320   58.3780   73.3850 O   0  0  0  0  0  0  0  0  0  0  0  0
    3.6790   59.1640   72.2080 C   0  0  0  0  0  0  0  0  0  0  0  0
    3.3700   58.5770   70.9880 C   0  0  0  0  0  0  0  0  0  0  0  0
    3.3730   59.3700   69.8410 C   0  0  0  0  0  0  0  0  0  0  0  0
    3.6680   60.7440   69.9180 C   0  0  0  0  0  0  0  0  0  0  0  0
    3.9640   61.3270   71.1760 C   0  0  0  0  0  0  0  0  0  0  0  0
    3.9590   60.5240   72.3250 C   0  0  0  0  0  0  0  0  0  0  0  0
    4.2530   62.6990   71.2470 C   0  0  0  0  0  0  0  0  0  0  0  0
    4.2550   63.4880   70.0950 C   0  0  0  0  0  0  0  0  0  0  0  0
    3.9660   62.9150   68.8590 C   0  0  0  0  0  0  0  0  0  0  0  0
    3.6750   61.5530   68.7710 C   0  0  0  0  0  0  0  0  0  0  0  0
    0.9392   56.1422   74.3165 H   0  0  0  0  0  0  0  0  0  0  0  0
    0.1623   56.8101   72.8410 H   0  0  0  0  0  0  0  0  0  0  0  0
    1.9199   56.4389   72.8410 H   0  0  0  0  0  0  0  0  0  0  0  0
    0.0743   63.3507   72.6796 H   0  0  0  0  0  0  0  0  0  0  0  0
    0.7606   62.3536   71.3523 H   0  0  0  0  0  0  0  0  0  0  0  0
   -0.9870   62.7688   71.3523 H   0  0  0  0  0  0  0  0  0  0  0  0
   -2.4525   61.8543   73.2428 H   0  0  0  0  0  0  0  0  0  0  0  0
   -2.9027   59.8174   74.6030 H   0  0  0  0  0  0  0  0  0  0  0  0
   -1.1282   58.1017   74.9142 H   0  0  0  0  0  0  0  0  0  0  0  0
    1.5700   60.4576   72.5065 H   0  0  0  0  0  0  0  0  0  0  0  0
    3.1273   57.5058   70.9275 H   0  0  0  0  0  0  0  0  0  0  0  0
    3.1423   58.9168   68.8656 H   0  0  0  0  0  0  0  0  0  0  0  0
    4.1742   60.9635   73.3101 H   0  0  0  0  0  0  0  0  0  0  0  0
    4.4803   63.1574   72.2207 H   0  0  0  0  0  0  0  0  0  0  0  0
    4.4847   64.5616   70.1637 H   0  0  0  0  0  0  0  0  0  0  0  0
    3.9671   63.5365   67.9514 H   0  0  0  0  0  0  0  0  0  0  0  0
    3.4484   61.1080   67.7909 H   0  0  0  0  0  0  0  0  0  0  0  0
  2  1  2  0
  3  1  1  0
  4  3  1  0
  6  5  1  0
  7  6  2  0
  8  7  1  0
  9  8  2  0
 10  9  1  0
 10  3  1  0
 11 10  2  0
 11  6  1  0
 12  1  1  0
 13 12  1  0
 14 13  2  0
 15 14  1  0
 16 15  2  0
 17 16  1  0
 18 17  2  0
 18 13  1  0
 19 17  1  0
 20 19  2  0
 21 20  1  0
 22 16  1  0
 22 21  2  0
  4 23  1  0
  4 24  1  0
  4 25  1  0
  5 26  1  0
  5 27  1  0
  5 28  1  0
  7 29  1  0
  8 30  1  0
  9 31  1  0
 11 32  1  0
 14 33  1  0
 15 34  1  0
 18 35  1  0
 19 36  1  0
 20 37  1  0
 21 38  1  0
 22 39  1  0
M  END
>  <score>  (8) 
-8.793

$$$$
=
     RDKit          3D

 39 41  0  0  0  0  0  0  0  0999 V2000
    0.3320   63.4090   73.0990 C   0  0  0  0  0  0  0  0  0  0  0  0
    0.5460   63.8870   74.6960 S   0  0  0  0  0  0  0  0  0  0  0  0
    1.0720   63.7970   71.9640 N   0  0  0  0  0  0  0  0  0  0  0  0
    0.4330   64.6590   70.9680 C   0  0  0  0  0  0  0  0  0  0  0  0
    4.8230   60.6170   72.8200 C   0  0  0  0  0  0  0  0  0  0  0  0
    4.2290   61.7460   72.0300 C   0  0  0  0  0  0  0  0  0  0  0  0
    4.9680   62.3720   71.0230 C   0  0  0  0  0  0  0  0  0  0  0  0
    4.4250   63.4480   70.3250 C   0  0  0  0  0  0  0  0  0  0  0  0
    3.1420   63.9070   70.6310 C   0  0  0  0  0  0  0  0  0  0  0  0
    2.3740   63.2920   71.6320 C   0  0  0  0  0  0  0  0  0  0  0  0
    2.9450   62.2240   72.3370 C   0  0  0  0  0  0  0  0  0  0  0  0
   -0.6400   62.4350   72.7860 O   0  0  0  0  0  0  0  0  0  0  0  0
   -0.6530   61.0900   73.2300 C   0  0  0  0  0  0  0  0  0  0  0  0
   -1.7660   60.6100   73.9080 C   0  0  0  0  0  0  0  0  0  0  0  0
   -1.7880   59.2720   74.2980 C   0  0  0  0  0  0  0  0  0  0  0  0
   -0.7120   58.4170   73.9980 C   0  0  0  0  0  0  0  0  0  0  0  0
    0.4070   58.9230   73.2900 C   0  0  0  0  0  0  0  0  0  0  0  0
    0.4230   60.2700   72.9000 C   0  0  0  0  0  0  0  0  0  0  0  0
    1.4770   58.0640   72.9900 C   0  0  0  0  0  0  0  0  0  0  0  0
    1.4490   56.7250   73.3840 C   0  0  0  0  0  0  0  0  0  0  0  0
    0.3500   56.2280   74.0810 C   0  0  0  0  0  0  0  0  0  0  0  0
   -0.7220   57.0680   74.3860 C   0  0  0  0  0  0  0  0  0  0  0  0
   -0.1472   65.4417   71.4787 H   0  0  0  0  0  0  0  0  0  0  0  0
    1.2046   65.1264   70.3385 H   0  0  0  0  0  0  0  0  0  0  0  0
   -0.2385   64.0566   70.3385 H   0  0  0  0  0  0  0  0  0  0  0  0
    4.7139   60.8243   73.8948 H   0  0  0  0  0  0  0  0  0  0  0  0
    4.3004   59.6813   72.5722 H   0  0  0  0  0  0  0  0  0  0  0  0
    5.8901   60.5177   72.5722 H   0  0  0  0  0  0  0  0  0  0  0  0
    5.9798   62.0146   70.7812 H   0  0  0  0  0  0  0  0  0  0  0  0
    5.0080   63.9374   69.5309 H   0  0  0  0  0  0  0  0  0  0  0  0
    2.7271   64.7634   70.0792 H   0  0  0  0  0  0  0  0  0  0  0  0
    2.3745   61.7495   73.1491 H   0  0  0  0  0  0  0  0  0  0  0  0
   -2.6142   61.2733   74.1330 H   0  0  0  0  0  0  0  0  0  0  0  0
   -2.6570   58.8800   74.8468 H   0  0  0  0  0  0  0  0  0  0  0  0
    1.2778   60.6751   72.3385 H   0  0  0  0  0  0  0  0  0  0  0  0
    2.3467   58.4506   72.4385 H   0  0  0  0  0  0  0  0  0  0  0  0
    2.2941   56.0629   73.1443 H   0  0  0  0  0  0  0  0  0  0  0  0
    0.3271   55.1729   74.3912 H   0  0  0  0  0  0  0  0  0  0  0  0
   -1.5856   56.6679   74.9374 H   0  0  0  0  0  0  0  0  0  0  0  0
  2  1  2  0
  3  1  1  0
  4  3  1  0
  6  5  1  0
  7  6  2  0
  8  7  1  0
  9  8  2  0
 10  9  1  0
 10  3  1  0
 11 10  2  0
 11  6  1  0
 12  1  1  0
 13 12  1  0
 14 13  2  0
 15 14  1  0
 16 15  2  0
 17 16  1  0
 18 17  2  0
 18 13  1  0
 19 17  1  0
 20 19  2  0
 21 20  1  0
 22 16  1  0
 22 21  2  0
  4 23  1  0
  4 24  1  0
  4 25  1  0
  5 26  1  0
  5 27  1  0
  5 28  1  0
  7 29  1  0
  8 30  1  0
  9 31  1  0
 11 32  1  0
 14 33  1  0
 15 34  1  0
 18 35  1  0
 19 36  1  0
 20 37  1  0
 21 38  1  0
 22 39  1  0
M  END
>  <score>  (9) 
-8.443

$$$$
