=
     RDKit          3D

 36 36  0  0  0  0  0  0  0  0999 V2000
    2.0800   69.3660   68.4110 C   0  0  1  0  0  0  0  0  0  0  0  0
    3.1240   69.4990   67.3200 C   0  0  0  0  0  0  0  0  0  0  0  0
    2.7760   69.1240   66.0090 C   0  0  0  0  0  0  0  0  0  0  0  0
    3.7030   69.1960   64.9580 C   0  0  0  0  0  0  0  0  0  0  0  0
    3.1840   68.6830   63.3890 Cl  0  0  0  0  0  0  0  0  0  0  0  0
    5.0030   69.6820   65.1600 C   0  0  0  0  0  0  0  0  0  0  0  0
    5.3530   70.0320   66.4750 C   0  0  0  0  0  0  0  0  0  0  0  0
    4.4290   69.9600   67.5310 C   0  0  0  0  0  0  0  0  0  0  0  0
    6.9490   70.5880   66.8470 Cl  0  0  0  0  0  0  0  0  0  0  0  0
    5.9740   69.6100   64.1440 N   0  0  0  0  0  0  0  0  0  0  0  0
    1.3000   70.5780   68.4450 O   0  0  0  0  0  0  0  0  0  0  0  0
    1.0490   68.2150   68.2920 C   0  0  0  0  0  0  0  0  0  0  0  0
   -0.2430   68.7920   67.7480 N   0  0  0  0  0  4  0  0  0  0  0  0
   -1.0790   67.9930   66.7830 C   0  0  0  0  0  0  0  0  0  0  0  0
   -0.0960   67.1920   65.9180 C   0  0  0  0  0  0  0  0  0  0  0  0
   -1.8960   68.9390   65.8980 C   0  0  0  0  0  0  0  0  0  0  0  0
   -1.9810   67.0390   67.5680 C   0  0  0  0  0  0  0  0  0  0  0  0
    2.6802   69.1506   69.3073 H   0  0  0  0  0  0  0  0  0  0  0  0
    1.7560   68.7670   65.8038 H   0  0  0  0  0  0  0  0  0  0  0  0
    4.7361   70.2710   68.5404 H   0  0  0  0  0  0  0  0  0  0  0  0
    6.9233   69.9726   64.3122 H   0  0  0  0  0  0  0  0  0  0  0  0
    5.7354   69.1947   63.2321 H   0  0  0  0  0  0  0  0  0  0  0  0
    1.1334   70.8369   69.3859 H   0  0  0  0  0  0  0  0  0  0  0  0
    1.4298   67.4431   67.6070 H   0  0  0  0  0  0  0  0  0  0  0  0
    0.8758   67.7562   69.2766 H   0  0  0  0  0  0  0  0  0  0  0  0
   -0.8419   68.9973   68.5604 H   0  0  0  0  0  0  0  0  0  0  0  0
    0.0756   69.5898   67.1798 H   0  0  0  0  0  0  0  0  0  0  0  0
    0.5919   66.6315   66.5681 H   0  0  0  0  0  0  0  0  0  0  0  0
   -0.6551   66.4890   65.2830 H   0  0  0  0  0  0  0  0  0  0  0  0
    0.4796   67.8815   65.2830 H   0  0  0  0  0  0  0  0  0  0  0  0
   -2.4833   69.6190   66.5325 H   0  0  0  0  0  0  0  0  0  0  0  0
   -1.2160   69.5258   65.2629 H   0  0  0  0  0  0  0  0  0  0  0  0
   -2.5755   68.3517   65.2629 H   0  0  0  0  0  0  0  0  0  0  0  0
   -1.8316   67.1971   68.6463 H   0  0  0  0  0  0  0  0  0  0  0  0
   -3.0327   67.2340   67.3111 H   0  0  0  0  0  0  0  0  0  0  0  0
   -1.7274   65.9999   67.3111 H   0  0  0  0  0  0  0  0  0  0  0  0
  2  1  1  0
  3  2  2  0
  4  3  1  0
  5  4  1  0
  6  4  2  0
  7  6  1  0
  8  7  2  0
  8  2  1  0
  9  7  1  0
 10  6  1  0
 11  1  1  0
 12  1  1  0
 13 12  1  0
 14 13  1  0
 15 14  1  0
 16 14  1  0
 17 14  1  0
  1 18  1  1
  3 19  1  0
  8 20  1  0
 10 21  1  0
 10 22  1  0
 11 23  1  0
 12 24  1  0
 12 25  1  0
 13 26  1  0
 13 27  1  0
 15 28  1  0
 15 29  1  0
 15 30  1  0
 16 31  1  0
 16 32  1  0
 16 33  1  0
 17 34  1  0
 17 35  1  0
 17 36  1  0
M  CHG  1  13   1
M  END
>  <score>  (1) 
-7.566

$$$$
=
     RDKit          3D

 36 36  0  0  0  0  0  0  0  0999 V2000
    1.4200   67.5610   64.5190 C   0  0  1  0  0  0  0  0  0  0  0  0
    2.6560   68.3630   64.8770 C   0  0  0  0  0  0  0  0  0  0  0  0
    3.6090   68.6110   63.8710 C   0  0  0  0  0  0  0  0  0  0  0  0
    4.7870   69.3240   64.1410 C   0  0  0  0  0  0  0  0  0  0  0  0
    5.9080   69.5490   62.8420 Cl  0  0  0  0  0  0  0  0  0  0  0  0
    5.0470   69.8550   65.4140 C   0  0  0  0  0  0  0  0  0  0  0  0
    4.1040   69.5840   66.4190 C   0  0  0  0  0  0  0  0  0  0  0  0
    2.9230   68.8690   66.1540 C   0  0  0  0  0  0  0  0  0  0  0  0
    4.3540   70.1410   68.0390 Cl  0  0  0  0  0  0  0  0  0  0  0  0
    6.2920   70.4340   65.7210 N   0  0  0  0  0  0  0  0  0  0  0  0
    1.6320   66.1930   64.9230 O   0  0  0  0  0  0  0  0  0  0  0  0
    0.0730   67.9760   65.1630 C   0  0  0  0  0  0  0  0  0  0  0  0
   -0.2510   66.9850   66.2640 N   0  0  0  0  0  4  0  0  0  0  0  0
   -0.8130   67.4690   67.5750 C   0  0  0  0  0  0  0  0  0  0  0  0
   -0.5810   68.9850   67.6120 C   0  0  0  0  0  0  0  0  0  0  0  0
   -0.0690   66.8030   68.7350 C   0  0  0  0  0  0  0  0  0  0  0  0
   -2.3120   67.1680   67.6210 C   0  0  0  0  0  0  0  0  0  0  0  0
    1.3122   67.7371   63.4386 H   0  0  0  0  0  0  0  0  0  0  0  0
    3.4265   68.2382   62.8523 H   0  0  0  0  0  0  0  0  0  0  0  0
    2.1969   68.7046   66.9638 H   0  0  0  0  0  0  0  0  0  0  0  0
    6.4634   70.8183   66.6611 H   0  0  0  0  0  0  0  0  0  0  0  0
    7.0320   70.4736   65.0056 H   0  0  0  0  0  0  0  0  0  0  0  0
    1.6405   66.1384   65.9115 H   0  0  0  0  0  0  0  0  0  0  0  0
    0.1586   68.9878   65.5861 H   0  0  0  0  0  0  0  0  0  0  0  0
   -0.7254   67.9777   64.4063 H   0  0  0  0  0  0  0  0  0  0  0  0
   -0.9359   66.3217   65.8742 H   0  0  0  0  0  0  0  0  0  0  0  0
    0.6733   66.6140   66.5265 H   0  0  0  0  0  0  0  0  0  0  0  0
   -0.5293   69.3226   68.6576 H   0  0  0  0  0  0  0  0  0  0  0  0
    0.3642   69.2238   67.1024 H   0  0  0  0  0  0  0  0  0  0  0  0
   -1.4115   69.4956   67.1024 H   0  0  0  0  0  0  0  0  0  0  0  0
   -0.4764   67.1677   69.6895 H   0  0  0  0  0  0  0  0  0  0  0  0
   -0.1970   65.7121   68.6746 H   0  0  0  0  0  0  0  0  0  0  0  0
    1.0011   67.0505   68.6746 H   0  0  0  0  0  0  0  0  0  0  0  0
   -2.6407   67.1020   68.6686 H   0  0  0  0  0  0  0  0  0  0  0  0
   -2.8634   67.9733   67.1137 H   0  0  0  0  0  0  0  0  0  0  0  0
   -2.5098   66.2122   67.1137 H   0  0  0  0  0  0  0  0  0  0  0  0
  2  1  1  0
  3  2  2  0
  4  3  1  0
  5  4  1  0
  6  4  2  0
  7  6  1  0
  8  7  2  0
  8  2  1  0
  9  7  1  0
 10  6  1  0
 11  1  1  0
 12  1  1  0
 13 12  1  0
 14 13  1  0
 15 14  1  0
 16 14  1  0
 17 14  1  0
  1 18  1  6
  3 19  1  0
  8 20  1  0
 10 21  1  0
 10 22  1  0
 11 23  1  0
 12 24  1  0
 12 25  1  0
 13 26  1  0
 13 27  1  0
 15 28  1  0
 15 29  1  0
 15 30  1  0
 16 31  1  0
 16 32  1  0
 16 33  1  0
 17 34  1  0
 17 35  1  0
 17 36  1  0
M  CHG  1  13   1
M  END
>  <score>  (2) 
-7.528

$$$$
=
     RDKit          3D

 36 36  0  0  0  0  0  0  0  0999 V2000
    2.1330   69.5510   68.7210 C   0  0  1  0  0  0  0  0  0  0  0  0
    3.4130   69.8060   67.9510 C   0  0  0  0  0  0  0  0  0  0  0  0
    4.5100   70.3600   68.6380 C   0  0  0  0  0  0  0  0  0  0  0  0
    5.7150   70.6460   67.9800 C   0  0  0  0  0  0  0  0  0  0  0  0
    6.9920   71.3540   68.9080 Cl  0  0  0  0  0  0  0  0  0  0  0  0
    5.8930   70.3550   66.6180 C   0  0  0  0  0  0  0  0  0  0  0  0
    4.7890   69.8250   65.9330 C   0  0  0  0  0  0  0  0  0  0  0  0
    3.5780   69.5380   66.5870 C   0  0  0  0  0  0  0  0  0  0  0  0
    4.8800   69.4830   64.2380 Cl  0  0  0  0  0  0  0  0  0  0  0  0
    7.0430   70.7810   65.9270 N   0  0  0  0  0  0  0  0  0  0  0  0
    1.2090   70.6200   68.4370 O   0  0  0  0  0  0  0  0  0  0  0  0
    1.3540   68.2440   68.4230 C   0  0  0  0  0  0  0  0  0  0  0  0
   -0.0720   68.6140   68.0640 N   0  0  0  0  0  4  0  0  0  0  0  0
   -0.7400   67.9760   66.8750 C   0  0  0  0  0  0  0  0  0  0  0  0
    0.3820   67.3840   66.0120 C   0  0  0  0  0  0  0  0  0  0  0  0
   -1.5010   69.0390   66.0760 C   0  0  0  0  0  0  0  0  0  0  0  0
   -1.6710   66.8630   67.3580 C   0  0  0  0  0  0  0  0  0  0  0  0
    2.4797   69.4733   69.7620 H   0  0  0  0  0  0  0  0  0  0  0  0
    4.4200   70.5730   69.7134 H   0  0  0  0  0  0  0  0  0  0  0  0
    2.7470   69.0958   66.0178 H   0  0  0  0  0  0  0  0  0  0  0  0
    7.1557   70.5578   64.9278 H   0  0  0  0  0  0  0  0  0  0  0  0
    7.7718   71.3159   66.4206 H   0  0  0  0  0  0  0  0  0  0  0  0
    0.8772   71.0039   69.2871 H   0  0  0  0  0  0  0  0  0  0  0  0
    1.8242   67.7138   67.5817 H   0  0  0  0  0  0  0  0  0  0  0  0
    1.3655   67.5855   69.3040 H   0  0  0  0  0  0  0  0  0  0  0  0
   -0.6523   68.3919   68.8854 H   0  0  0  0  0  0  0  0  0  0  0  0
    0.0027   69.6040   67.7899 H   0  0  0  0  0  0  0  0  0  0  0  0
    1.1660   66.9703   66.6633 H   0  0  0  0  0  0  0  0  0  0  0  0
   -0.0269   66.5843   65.3770 H   0  0  0  0  0  0  0  0  0  0  0  0
    0.8113   68.1730   65.3770 H   0  0  0  0  0  0  0  0  0  0  0  0
   -1.9979   69.7331   66.7697 H   0  0  0  0  0  0  0  0  0  0  0  0
   -0.7954   69.5963   65.4423 H   0  0  0  0  0  0  0  0  0  0  0  0
   -2.2560   68.5507   65.4423 H   0  0  0  0  0  0  0  0  0  0  0  0
   -1.6841   66.8474   68.4578 H   0  0  0  0  0  0  0  0  0  0  0  0
   -2.6882   67.0468   66.9818 H   0  0  0  0  0  0  0  0  0  0  0  0
   -1.3104   65.8943   66.9818 H   0  0  0  0  0  0  0  0  0  0  0  0
  2  1  1  0
  3  2  2  0
  4  3  1  0
  5  4  1  0
  6  4  2  0
  7  6  1  0
  8  7  2  0
  8  2  1  0
  9  7  1  0
 10  6  1  0
 11  1  1  0
 12  1  1  0
 13 12  1  0
 14 13  1  0
 15 14  1  0
 16 14  1  0
 17 14  1  0
  1 18  1  1
  3 19  1  0
  8 20  1  0
 10 21  1  0
 10 22  1  0
 11 23  1  0
 12 24  1  0
 12 25  1  0
 13 26  1  0
 13 27  1  0
 15 28  1  0
 15 29  1  0
 15 30  1  0
 16 31  1  0
 16 32  1  0
 16 33  1  0
 17 34  1  0
 17 35  1  0
 17 36  1  0
M  CHG  1  13   1
M  END
>  <score>  (3) 
-7.52

$$$$
=
     RDKit          3D

 36 36  0  0  0  0  0  0  0  0999 V2000
    1.3550   67.7040   64.4650 C   0  0  1  0  0  0  0  0  0  0  0  0
    2.6740   68.3910   64.7600 C   0  0  0  0  0  0  0  0  0  0  0  0
    2.9060   68.8650   66.0650 C   0  0  0  0  0  0  0  0  0  0  0  0
    4.0930   69.5330   66.3980 C   0  0  0  0  0  0  0  0  0  0  0  0
    4.2690   70.1020   68.0230 Cl  0  0  0  0  0  0  0  0  0  0  0  0
    5.1160   69.7240   65.4560 C   0  0  0  0  0  0  0  0  0  0  0  0
    4.8690   69.2710   64.1500 C   0  0  0  0  0  0  0  0  0  0  0  0
    3.6810   68.6020   63.8110 C   0  0  0  0  0  0  0  0  0  0  0  0
    6.0380   69.5070   62.8960 Cl  0  0  0  0  0  0  0  0  0  0  0  0
    6.2350   70.5260   65.7490 N   0  0  0  0  0  0  0  0  0  0  0  0
    1.4160   66.3590   64.9810 O   0  0  0  0  0  0  0  0  0  0  0  0
    0.0660   68.3180   65.0680 C   0  0  0  0  0  0  0  0  0  0  0  0
   -0.5280   67.3140   66.0370 N   0  0  0  0  0  4  0  0  0  0  0  0
   -0.8520   67.7290   67.4490 C   0  0  0  0  0  0  0  0  0  0  0  0
   -0.8740   69.2640   67.4550 C   0  0  0  0  0  0  0  0  0  0  0  0
    0.2350   67.2230   68.4000 C   0  0  0  0  0  0  0  0  0  0  0  0
   -2.2300   67.1850   67.8280 C   0  0  0  0  0  0  0  0  0  0  0  0
    1.2616   67.8009   63.3733 H   0  0  0  0  0  0  0  0  0  0  0  0
    2.1405   68.7082   66.8393 H   0  0  0  0  0  0  0  0  0  0  0  0
    3.5399   68.2380   62.7826 H   0  0  0  0  0  0  0  0  0  0  0  0
    6.9754   70.6541   65.0446 H   0  0  0  0  0  0  0  0  0  0  0  0
    6.3134   70.9848   66.6678 H   0  0  0  0  0  0  0  0  0  0  0  0
    1.4148   66.3849   65.9707 H   0  0  0  0  0  0  0  0  0  0  0  0
    0.3106   69.2493   65.5999 H   0  0  0  0  0  0  0  0  0  0  0  0
   -0.6549   68.5483   64.2697 H   0  0  0  0  0  0  0  0  0  0  0  0
   -1.4067   66.9793   65.6166 H   0  0  0  0  0  0  0  0  0  0  0  0
    0.2300   66.6277   66.1604 H   0  0  0  0  0  0  0  0  0  0  0  0
   -0.8792   69.6266   68.4935 H   0  0  0  0  0  0  0  0  0  0  0  0
    0.0188   69.6455   66.9379 H   0  0  0  0  0  0  0  0  0  0  0  0
   -1.7773   69.6198   66.9379 H   0  0  0  0  0  0  0  0  0  0  0  0
   -0.0888   67.3737   69.4404 H   0  0  0  0  0  0  0  0  0  0  0  0
    0.4085   66.1515   68.2216 H   0  0  0  0  0  0  0  0  0  0  0  0
    1.1666   67.7800   68.2216 H   0  0  0  0  0  0  0  0  0  0  0  0
   -2.3213   67.1489   68.9236 H   0  0  0  0  0  0  0  0  0  0  0  0
   -3.0097   67.8428   67.4165 H   0  0  0  0  0  0  0  0  0  0  0  0
   -2.3502   66.1720   67.4165 H   0  0  0  0  0  0  0  0  0  0  0  0
  2  1  1  0
  3  2  2  0
  4  3  1  0
  5  4  1  0
  6  4  2  0
  7  6  1  0
  8  7  2  0
  8  2  1  0
  9  7  1  0
 10  6  1  0
 11  1  1  0
 12  1  1  0
 13 12  1  0
 14 13  1  0
 15 14  1  0
 16 14  1  0
 17 14  1  0
  1 18  1  6
  3 19  1  0
  8 20  1  0
 10 21  1  0
 10 22  1  0
 11 23  1  0
 12 24  1  0
 12 25  1  0
 13 26  1  0
 13 27  1  0
 15 28  1  0
 15 29  1  0
 15 30  1  0
 16 31  1  0
 16 32  1  0
 16 33  1  0
 17 34  1  0
 17 35  1  0
 17 36  1  0
M  CHG  1  13   1
M  END
>  <score>  (4) 
-7.465

$$$$
=
     RDKit          3D

 36 36  0  0  0  0  0  0  0  0999 V2000
    4.9610   69.0750   65.4750 C   0  0  1  0  0  0  0  0  0  0  0  0
    3.8100   68.9600   64.4950 C   0  0  0  0  0  0  0  0  0  0  0  0
    2.4990   68.9000   65.0030 C   0  0  0  0  0  0  0  0  0  0  0  0
    1.3910   68.7670   64.1530 C   0  0  0  0  0  0  0  0  0  0  0  0
   -0.1760   68.6720   64.8800 Cl  0  0  0  0  0  0  0  0  0  0  0  0
    1.5390   68.7280   62.7580 C   0  0  0  0  0  0  0  0  0  0  0  0
    2.8510   68.7640   62.2570 C   0  0  0  0  0  0  0  0  0  0  0  0
    3.9640   68.8960   63.1050 C   0  0  0  0  0  0  0  0  0  0  0  0
    3.1510   68.6630   60.5550 Cl  0  0  0  0  0  0  0  0  0  0  0  0
    0.4470   68.4410   61.9180 N   0  0  0  0  0  0  0  0  0  0  0  0
    6.0000   69.8680   64.8680 O   0  0  0  0  0  0  0  0  0  0  0  0
    4.6820   69.7410   66.8460 C   0  0  0  0  0  0  0  0  0  0  0  0
    6.0120   69.9870   67.5320 N   0  0  0  0  0  4  0  0  0  0  0  0
    6.0910   70.9140   68.7170 C   0  0  0  0  0  0  0  0  0  0  0  0
    5.9510   72.3380   68.1630 C   0  0  0  0  0  0  0  0  0  0  0  0
    7.4490   70.7580   69.4070 C   0  0  0  0  0  0  0  0  0  0  0  0
    4.9360   70.6080   69.6720 C   0  0  0  0  0  0  0  0  0  0  0  0
    5.2143   68.0258   65.6871 H   0  0  0  0  0  0  0  0  0  0  0  0
    2.3397   68.9586   66.0898 H   0  0  0  0  0  0  0  0  0  0  0  0
    4.9726   68.9499   62.6694 H   0  0  0  0  0  0  0  0  0  0  0  0
    0.5755   68.4169   60.8963 H   0  0  0  0  0  0  0  0  0  0  0  0
   -0.4808   68.2550   62.3249 H   0  0  0  0  0  0  0  0  0  0  0  0
    6.5504   70.2881   65.5756 H   0  0  0  0  0  0  0  0  0  0  0  0
    4.1578   70.6964   66.6962 H   0  0  0  0  0  0  0  0  0  0  0  0
    4.0502   69.0869   67.4649 H   0  0  0  0  0  0  0  0  0  0  0  0
    6.3566   69.0696   67.8492 H   0  0  0  0  0  0  0  0  0  0  0  0
    6.5614   70.4776   66.8120 H   0  0  0  0  0  0  0  0  0  0  0  0
    5.8809   73.0509   68.9977 H   0  0  0  0  0  0  0  0  0  0  0  0
    6.8297   72.5798   67.5470 H   0  0  0  0  0  0  0  0  0  0  0  0
    5.0420   72.4041   67.5470 H   0  0  0  0  0  0  0  0  0  0  0  0
    7.3099   70.7740   70.4981 H   0  0  0  0  0  0  0  0  0  0  0  0
    7.9038   69.8017   69.1093 H   0  0  0  0  0  0  0  0  0  0  0  0
    8.1088   71.5863   69.1093 H   0  0  0  0  0  0  0  0  0  0  0  0
    5.2850   70.7005   70.7110 H   0  0  0  0  0  0  0  0  0  0  0  0
    4.1162   71.3199   69.4959 H   0  0  0  0  0  0  0  0  0  0  0  0
    4.5762   69.5835   69.4959 H   0  0  0  0  0  0  0  0  0  0  0  0
  2  1  1  0
  3  2  2  0
  4  3  1  0
  5  4  1  0
  6  4  2  0
  7  6  1  0
  8  7  2  0
  8  2  1  0
  9  7  1  0
 10  6  1  0
 11  1  1  0
 12  1  1  0
 13 12  1  0
 14 13  1  0
 15 14  1  0
 16 14  1  0
 17 14  1  0
  1 18  1  1
  3 19  1  0
  8 20  1  0
 10 21  1  0
 10 22  1  0
 11 23  1  0
 12 24  1  0
 12 25  1  0
 13 26  1  0
 13 27  1  0
 15 28  1  0
 15 29  1  0
 15 30  1  0
 16 31  1  0
 16 32  1  0
 16 33  1  0
 17 34  1  0
 17 35  1  0
 17 36  1  0
M  CHG  1  13   1
M  END
>  <score>  (5) 
-7.303

$$$$
=
     RDKit          3D

 36 36  0  0  0  0  0  0  0  0999 V2000
    0.8030   65.2520   70.4940 C   0  0  1  0  0  0  0  0  0  0  0  0
    0.5080   66.3180   69.4570 C   0  0  0  0  0  0  0  0  0  0  0  0
   -0.7540   66.3180   68.8350 C   0  0  0  0  0  0  0  0  0  0  0  0
   -1.0820   67.2590   67.8480 C   0  0  0  0  0  0  0  0  0  0  0  0
   -2.6500   67.1550   67.1230 Cl  0  0  0  0  0  0  0  0  0  0  0  0
   -0.1810   68.2650   67.4670 C   0  0  0  0  0  0  0  0  0  0  0  0
    1.0850   68.2460   68.0730 C   0  0  0  0  0  0  0  0  0  0  0  0
    1.4190   67.3040   69.0620 C   0  0  0  0  0  0  0  0  0  0  0  0
    2.2940   69.4060   67.6350 Cl  0  0  0  0  0  0  0  0  0  0  0  0
   -0.4520   69.1100   66.3740 N   0  0  0  0  0  0  0  0  0  0  0  0
   -0.0570   64.1230   70.2440 O   0  0  0  0  0  0  0  0  0  0  0  0
    2.2390   64.6720   70.5510 C   0  0  0  0  0  0  0  0  0  0  0  0
    2.2410   63.3410   69.8240 N   0  0  0  0  0  4  0  0  0  0  0  0
    3.5450   62.6770   69.4690 C   0  0  0  0  0  0  0  0  0  0  0  0
    3.7940   62.9780   67.9850 C   0  0  0  0  0  0  0  0  0  0  0  0
    3.4300   61.1650   69.6770 C   0  0  0  0  0  0  0  0  0  0  0  0
    4.6650   63.2780   70.3200 C   0  0  0  0  0  0  0  0  0  0  0  0
    0.6460   65.7796   71.4464 H   0  0  0  0  0  0  0  0  0  0  0  0
   -1.4991   65.5641   69.1290 H   0  0  0  0  0  0  0  0  0  0  0  0
    2.4124   67.3428   69.5328 H   0  0  0  0  0  0  0  0  0  0  0  0
    0.2221   69.8427   66.1099 H   0  0  0  0  0  0  0  0  0  0  0  0
   -1.3243   68.9955   65.8384 H   0  0  0  0  0  0  0  0  0  0  0  0
   -0.3521   63.7357   71.1060 H   0  0  0  0  0  0  0  0  0  0  0  0
    2.9401   65.3645   70.0622 H   0  0  0  0  0  0  0  0  0  0  0  0
    2.5524   64.5347   71.5964 H   0  0  0  0  0  0  0  0  0  0  0  0
    1.7218   62.6779   70.4170 H   0  0  0  0  0  0  0  0  0  0  0  0
    1.8367   63.5732   68.9056 H   0  0  0  0  0  0  0  0  0  0  0  0
    4.4928   63.8227   67.8944 H   0  0  0  0  0  0  0  0  0  0  0  0
    4.2259   62.0910   67.4984 H   0  0  0  0  0  0  0  0  0  0  0  0
    2.8418   63.2360   67.4984 H   0  0  0  0  0  0  0  0  0  0  0  0
    3.4131   60.9433   70.7543 H   0  0  0  0  0  0  0  0  0  0  0  0
    2.5015   60.8006   69.2131 H   0  0  0  0  0  0  0  0  0  0  0  0
    4.2927   60.6644   69.2131 H   0  0  0  0  0  0  0  0  0  0  0  0
    4.4251   63.1493   71.3858 H   0  0  0  0  0  0  0  0  0  0  0  0
    5.6123   62.7671   70.0931 H   0  0  0  0  0  0  0  0  0  0  0  0
    4.7630   64.3499   70.0931 H   0  0  0  0  0  0  0  0  0  0  0  0
  2  1  1  0
  3  2  2  0
  4  3  1  0
  5  4  1  0
  6  4  2  0
  7  6  1  0
  8  7  2  0
  8  2  1  0
  9  7  1  0
 10  6  1  0
 11  1  1  0
 12  1  1  0
 13 12  1  0
 14 13  1  0
 15 14  1  0
 16 14  1  0
 17 14  1  0
  1 18  1  1
  3 19  1  0
  8 20  1  0
 10 21  1  0
 10 22  1  0
 11 23  1  0
 12 24  1  0
 12 25  1  0
 13 26  1  0
 13 27  1  0
 15 28  1  0
 15 29  1  0
 15 30  1  0
 16 31  1  0
 16 32  1  0
 16 33  1  0
 17 34  1  0
 17 35  1  0
 17 36  1  0
M  CHG  1  13   1
M  END
>  <score>  (6) 
-6.97

$$$$
=
     RDKit          3D

 36 36  0  0  0  0  0  0  0  0999 V2000
    2.5120   69.0670   65.9890 C   0  0  1  0  0  0  0  0  0  0  0  0
    1.1920   68.5020   66.4740 C   0  0  0  0  0  0  0  0  0  0  0  0
    0.0220   68.8240   65.7610 C   0  0  0  0  0  0  0  0  0  0  0  0
   -1.2350   68.3570   66.1710 C   0  0  0  0  0  0  0  0  0  0  0  0
   -2.6150   68.8350   65.2410 Cl  0  0  0  0  0  0  0  0  0  0  0  0
   -1.3770   67.5180   67.2860 C   0  0  0  0  0  0  0  0  0  0  0  0
   -0.2110   67.2190   68.0080 C   0  0  0  0  0  0  0  0  0  0  0  0
    1.0520   67.6850   67.6020 C   0  0  0  0  0  0  0  0  0  0  0  0
   -0.2790   66.2400   69.4340 Cl  0  0  0  0  0  0  0  0  0  0  0  0
   -2.6490   67.1770   67.7840 N   0  0  0  0  0  0  0  0  0  0  0  0
    3.3230   69.3830   67.1380 O   0  0  0  0  0  0  0  0  0  0  0  0
    3.4010   68.1670   65.0930 C   0  0  0  0  0  0  0  0  0  0  0  0
    2.9850   68.3780   63.6500 N   0  0  0  0  0  4  0  0  0  0  0  0
    4.0120   68.3080   62.5500 C   0  0  0  0  0  0  0  0  0  0  0  0
    4.4510   66.8400   62.4600 C   0  0  0  0  0  0  0  0  0  0  0  0
    5.2140   69.1860   62.9070 C   0  0  0  0  0  0  0  0  0  0  0  0
    3.3680   68.7440   61.2330 C   0  0  0  0  0  0  0  0  0  0  0  0
    2.2046   69.9183   65.3638 H   0  0  0  0  0  0  0  0  0  0  0  0
    0.0952   69.4553   64.8632 H   0  0  0  0  0  0  0  0  0  0  0  0
    1.9444   67.4030   68.1801 H   0  0  0  0  0  0  0  0  0  0  0  0
   -2.7324   66.5594   68.6040 H   0  0  0  0  0  0  0  0  0  0  0  0
   -3.4962   67.5452   67.3283 H   0  0  0  0  0  0  0  0  0  0  0  0
    2.8154   69.1852   67.9646 H   0  0  0  0  0  0  0  0  0  0  0  0
    4.4582   68.4431   65.2201 H   0  0  0  0  0  0  0  0  0  0  0  0
    3.2777   67.1106   65.3738 H   0  0  0  0  0  0  0  0  0  0  0  0
    2.2740   67.6634   63.4384 H   0  0  0  0  0  0  0  0  0  0  0  0
    2.6871   69.3638   63.6322 H   0  0  0  0  0  0  0  0  0  0  0  0
    4.5733   66.4311   63.4738 H   0  0  0  0  0  0  0  0  0  0  0  0
    3.6867   66.2611   61.9208 H   0  0  0  0  0  0  0  0  0  0  0  0
    5.4077   66.7758   61.9208 H   0  0  0  0  0  0  0  0  0  0  0  0
    5.3066   69.2536   64.0010 H   0  0  0  0  0  0  0  0  0  0  0  0
    6.1294   68.7424   62.4883 H   0  0  0  0  0  0  0  0  0  0  0  0
    5.0698   70.1929   62.4883 H   0  0  0  0  0  0  0  0  0  0  0  0
    2.4741   69.3492   61.4446 H   0  0  0  0  0  0  0  0  0  0  0  0
    4.0869   69.3419   60.6536 H   0  0  0  0  0  0  0  0  0  0  0  0
    3.0798   67.8545   60.6536 H   0  0  0  0  0  0  0  0  0  0  0  0
  2  1  1  0
  3  2  2  0
  4  3  1  0
  5  4  1  0
  6  4  2  0
  7  6  1  0
  8  7  2  0
  8  2  1  0
  9  7  1  0
 10  6  1  0
 11  1  1  0
 12  1  1  0
 13 12  1  0
 14 13  1  0
 15 14  1  0
 16 14  1  0
 17 14  1  0
  1 18  1  6
  3 19  1  0
  8 20  1  0
 10 21  1  0
 10 22  1  0
 11 23  1  0
 12 24  1  0
 12 25  1  0
 13 26  1  0
 13 27  1  0
 15 28  1  0
 15 29  1  0
 15 30  1  0
 16 31  1  0
 16 32  1  0
 16 33  1  0
 17 34  1  0
 17 35  1  0
 17 36  1  0
M  CHG  1  13   1
M  END
>  <score>  (7) 
-6.787

$$$$
=
     RDKit          3D

 36 36  0  0  0  0  0  0  0  0999 V2000
    2.3790   69.0700   65.9490 C   0  0  1  0  0  0  0  0  0  0  0  0
    1.0110   68.5930   66.3940 C   0  0  0  0  0  0  0  0  0  0  0  0
    0.9250   67.7670   67.5300 C   0  0  0  0  0  0  0  0  0  0  0  0
   -0.3070   67.2700   67.9810 C   0  0  0  0  0  0  0  0  0  0  0  0
   -0.3010   66.2380   69.3700 Cl  0  0  0  0  0  0  0  0  0  0  0  0
   -1.5100   67.6060   67.3420 C   0  0  0  0  0  0  0  0  0  0  0  0
   -1.4170   68.4100   66.1950 C   0  0  0  0  0  0  0  0  0  0  0  0
   -0.1850   68.9100   65.7390 C   0  0  0  0  0  0  0  0  0  0  0  0
   -2.8330   68.8370   65.2960 Cl  0  0  0  0  0  0  0  0  0  0  0  0
   -2.7220   66.9860   67.6990 N   0  0  0  0  0  0  0  0  0  0  0  0
    3.1630   69.3650   67.1210 O   0  0  0  0  0  0  0  0  0  0  0  0
    3.2460   68.1000   65.1060 C   0  0  0  0  0  0  0  0  0  0  0  0
    2.8710   68.2770   63.6470 N   0  0  0  0  0  4  0  0  0  0  0  0
    3.9390   68.2580   62.5850 C   0  0  0  0  0  0  0  0  0  0  0  0
    4.4170   66.8040   62.4760 C   0  0  0  0  0  0  0  0  0  0  0  0
    5.1060   69.1550   63.0080 C   0  0  0  0  0  0  0  0  0  0  0  0
    3.3350   68.7110   61.2550 C   0  0  0  0  0  0  0  0  0  0  0  0
    2.1460   69.9235   65.2954 H   0  0  0  0  0  0  0  0  0  0  0  0
    1.8434   67.5054   68.0761 H   0  0  0  0  0  0  0  0  0  0  0  0
   -0.1602   69.5612   64.8528 H   0  0  0  0  0  0  0  0  0  0  0  0
   -3.5949   67.2463   67.2181 H   0  0  0  0  0  0  0  0  0  0  0  0
   -2.7361   66.2719   68.4412 H   0  0  0  0  0  0  0  0  0  0  0  0
    2.6319   69.1652   67.9322 H   0  0  0  0  0  0  0  0  0  0  0  0
    4.3115   68.3337   65.2478 H   0  0  0  0  0  0  0  0  0  0  0  0
    3.0696   67.0609   65.4207 H   0  0  0  0  0  0  0  0  0  0  0  0
    2.2098   67.5216   63.4166 H   0  0  0  0  0  0  0  0  0  0  0  0
    2.5187   69.2441   63.6098 H   0  0  0  0  0  0  0  0  0  0  0  0
    4.5542   66.3866   63.4844 H   0  0  0  0  0  0  0  0  0  0  0  0
    3.6665   66.2110   61.9327 H   0  0  0  0  0  0  0  0  0  0  0  0
    5.3729   66.7720   61.9327 H   0  0  0  0  0  0  0  0  0  0  0  0
    5.1583   69.1952   64.1060 H   0  0  0  0  0  0  0  0  0  0  0  0
    6.0463   68.7449   62.6109 H   0  0  0  0  0  0  0  0  0  0  0  0
    4.9516   70.1691   62.6109 H   0  0  0  0  0  0  0  0  0  0  0  0
    2.4687   69.3607   61.4481 H   0  0  0  0  0  0  0  0  0  0  0  0
    4.0898   69.2676   60.6801 H   0  0  0  0  0  0  0  0  0  0  0  0
    3.0121   67.8305   60.6801 H   0  0  0  0  0  0  0  0  0  0  0  0
  2  1  1  0
  3  2  2  0
  4  3  1  0
  5  4  1  0
  6  4  2  0
  7  6  1  0
  8  7  2  0
  8  2  1  0
  9  7  1  0
 10  6  1  0
 11  1  1  0
 12  1  1  0
 13 12  1  0
 14 13  1  0
 15 14  1  0
 16 14  1  0
 17 14  1  0
  1 18  1  6
  3 19  1  0
  8 20  1  0
 10 21  1  0
 10 22  1  0
 11 23  1  0
 12 24  1  0
 12 25  1  0
 13 26  1  0
 13 27  1  0
 15 28  1  0
 15 29  1  0
 15 30  1  0
 16 31  1  0
 16 32  1  0
 16 33  1  0
 17 34  1  0
 17 35  1  0
 17 36  1  0
M  CHG  1  13   1
M  END
>  <score>  (8) 
-6.756

$$$$
=
     RDKit          3D

 36 36  0  0  0  0  0  0  0  0999 V2000
    3.0580   69.0310   66.6960 C   0  0  1  0  0  0  0  0  0  0  0  0
    3.0720   68.9370   65.1830 C   0  0  0  0  0  0  0  0  0  0  0  0
    4.3150   68.8920   64.5250 C   0  0  0  0  0  0  0  0  0  0  0  0
    4.4000   68.8320   63.1260 C   0  0  0  0  0  0  0  0  0  0  0  0
    5.9760   68.8110   62.4140 Cl  0  0  0  0  0  0  0  0  0  0  0  0
    3.2500   68.7740   62.3250 C   0  0  0  0  0  0  0  0  0  0  0  0
    2.0120   68.8430   62.9840 C   0  0  0  0  0  0  0  0  0  0  0  0
    1.9220   68.9040   64.3860 C   0  0  0  0  0  0  0  0  0  0  0  0
    0.5300   68.8380   62.0890 Cl  0  0  0  0  0  0  0  0  0  0  0  0
    3.3330   68.8690   60.9230 N   0  0  0  0  0  0  0  0  0  0  0  0
    4.0480   69.9970   67.1020 O   0  0  0  0  0  0  0  0  0  0  0  0
    1.7420   69.4750   67.3840 C   0  0  0  0  0  0  0  0  0  0  0  0
    1.0480   68.2380   67.9200 N   0  0  0  0  0  4  0  0  0  0  0  0
   -0.2750   67.8050   67.3440 C   0  0  0  0  0  0  0  0  0  0  0  0
    0.0460   67.0060   66.0740 C   0  0  0  0  0  0  0  0  0  0  0  0
   -1.1110   69.0360   66.9840 C   0  0  0  0  0  0  0  0  0  0  0  0
   -0.9960   66.9120   68.3550 C   0  0  0  0  0  0  0  0  0  0  0  0
    3.2357   67.9926   67.0123 H   0  0  0  0  0  0  0  0  0  0  0  0
    5.2399   68.9041   65.1204 H   0  0  0  0  0  0  0  0  0  0  0  0
    0.9316   68.9261   64.8641 H   0  0  0  0  0  0  0  0  0  0  0  0
    2.4768   68.8242   60.3522 H   0  0  0  0  0  0  0  0  0  0  0  0
    4.2499   68.9833   60.4679 H   0  0  0  0  0  0  0  0  0  0  0  0
    4.0865   70.0345   68.0905 H   0  0  0  0  0  0  0  0  0  0  0  0
    1.9682   70.1634   68.2116 H   0  0  0  0  0  0  0  0  0  0  0  0
    1.0923   69.9935   66.6636 H   0  0  0  0  0  0  0  0  0  0  0  0
    1.7003   67.4516   67.7897 H   0  0  0  0  0  0  0  0  0  0  0  0
    0.8095   68.5016   68.8867 H   0  0  0  0  0  0  0  0  0  0  0  0
    0.4427   66.0186   66.3525 H   0  0  0  0  0  0  0  0  0  0  0  0
   -0.8707   66.8785   65.4795 H   0  0  0  0  0  0  0  0  0  0  0  0
    0.7961   67.5481   65.4795 H   0  0  0  0  0  0  0  0  0  0  0  0
   -1.4482   69.5326   67.9058 H   0  0  0  0  0  0  0  0  0  0  0  0
   -0.4997   69.7345   66.3938 H   0  0  0  0  0  0  0  0  0  0  0  0
   -1.9857   68.7254   66.3938 H   0  0  0  0  0  0  0  0  0  0  0  0
   -0.7382   67.2313   69.3756 H   0  0  0  0  0  0  0  0  0  0  0  0
   -2.0830   66.9954   68.2083 H   0  0  0  0  0  0  0  0  0  0  0  0
   -0.6854   65.8670   68.2083 H   0  0  0  0  0  0  0  0  0  0  0  0
  2  1  1  0
  3  2  2  0
  4  3  1  0
  5  4  1  0
  6  4  2  0
  7  6  1  0
  8  7  2  0
  8  2  1  0
  9  7  1  0
 10  6  1  0
 11  1  1  0
 12  1  1  0
 13 12  1  0
 14 13  1  0
 15 14  1  0
 16 14  1  0
 17 14  1  0
  1 18  1  1
  3 19  1  0
  8 20  1  0
 10 21  1  0
 10 22  1  0
 11 23  1  0
 12 24  1  0
 12 25  1  0
 13 26  1  0
 13 27  1  0
 15 28  1  0
 15 29  1  0
 15 30  1  0
 16 31  1  0
 16 32  1  0
 16 33  1  0
 17 34  1  0
 17 35  1  0
 17 36  1  0
M  CHG  1  13   1
M  END
>  <score>  (9) 
-6.668

$$$$
