=
     RDKit          3D

 65 68  0  0  0  0  0  0  0  0999 V2000
    0.4670   66.3290   69.3850 C   0  0  0  0  0  0  0  0  0  0  0  0
    1.3780   67.3340   69.0300 C   0  0  0  0  0  0  0  0  0  0  0  0
    1.0550   68.2980   68.0650 C   0  0  0  0  0  0  0  0  0  0  0  0
   -0.1880   68.2700   67.4400 C   0  0  0  0  0  0  0  0  0  0  0  0
   -1.1090   67.2850   67.8020 C   0  0  0  0  0  0  0  0  0  0  0  0
   -0.7910   66.3270   68.7680 C   0  0  0  0  0  0  0  0  0  0  0  0
    3.8430   60.5620   73.6280 C   0  0  0  0  0  0  0  0  0  0  0  0
    3.3490   61.6490   72.7180 C   0  0  0  0  0  0  0  0  0  0  0  0
    4.0290   61.9450   71.5290 C   0  0  0  0  0  0  0  0  0  0  0  0
    3.5560   62.9360   70.6650 C   0  0  0  0  0  0  0  0  0  0  0  0
    2.3920   63.6320   70.9790 C   0  0  0  0  0  0  0  0  0  0  0  0
    1.7030   63.3340   72.1530 C   0  0  0  0  0  0  0  0  0  0  0  0
    2.1700   62.3440   73.0220 C   0  0  0  0  0  0  0  0  0  0  0  0
    0.4730   64.0800   72.4540 C   0  0  0  0  0  0  0  0  0  0  0  0
   -0.2160   63.8650   73.4420 O   0  0  0  0  0  0  0  0  0  0  0  0
    0.0840   65.1210   71.4890 C   0  0  0  0  0  0  0  0  0  0  0  0
    0.8330   65.3190   70.3960 C   0  0  0  0  0  0  0  0  0  0  0  0
    1.9740   64.5910   70.0910 O   0  0  0  0  0  0  0  0  0  0  0  0
   -0.6140   69.1040   66.4470 O   0  0  0  0  0  0  0  0  0  0  0  0
   -0.8670   68.5620   65.1520 C   0  0  0  0  0  0  0  0  0  0  0  0
    0.2050   68.9280   64.1200 C   0  0  0  0  0  0  0  0  0  0  0  0
    1.6080   69.1510   64.7010 C   0  0  0  0  0  0  0  0  0  0  0  0
    2.6810   68.3050   64.0080 C   0  0  0  0  0  0  0  0  0  0  0  0
    3.9380   68.1570   64.8600 C   0  0  0  0  0  0  0  0  0  0  0  0
    4.8440   69.3910   64.8910 C   0  0  0  0  0  0  0  0  0  0  0  0
    5.0310   70.0510   66.2390 N   0  0  0  0  0  4  0  0  0  0  0  0
    6.4490   70.0490   66.7560 C   0  0  0  0  0  0  0  0  0  0  0  0
    6.5540   71.0140   67.9290 C   0  0  0  0  0  0  0  0  0  0  0  0
    5.5450   70.6860   69.0250 C   0  0  0  0  0  0  0  0  0  0  0  0
    4.1250   70.6040   68.4740 C   0  0  0  0  0  0  0  0  0  0  0  0
    4.0290   69.6430   67.2960 C   0  0  0  0  0  0  0  0  0  0  0  0
    2.3636   67.3665   69.5174 H   0  0  0  0  0  0  0  0  0  0  0  0
    1.7850   69.0776   67.8015 H   0  0  0  0  0  0  0  0  0  0  0  0
   -2.0977   67.2630   67.3204 H   0  0  0  0  0  0  0  0  0  0  0  0
   -1.5341   65.5652   69.0463 H   0  0  0  0  0  0  0  0  0  0  0  0
    3.7036   60.8688   74.6751 H   0  0  0  0  0  0  0  0  0  0  0  0
    3.2760   59.6387   73.4378 H   0  0  0  0  0  0  0  0  0  0  0  0
    4.9114   60.3819   73.4378 H   0  0  0  0  0  0  0  0  0  0  0  0
    4.9445   61.3915   71.2732 H   0  0  0  0  0  0  0  0  0  0  0  0
    4.1024   63.1658   69.7384 H   0  0  0  0  0  0  0  0  0  0  0  0
    1.6140   62.1108   73.9420 H   0  0  0  0  0  0  0  0  0  0  0  0
   -0.8143   65.7314   71.6638 H   0  0  0  0  0  0  0  0  0  0  0  0
   -0.9115   67.4660   65.2351 H   0  0  0  0  0  0  0  0  0  0  0  0
   -1.8169   68.9907   64.8000 H   0  0  0  0  0  0  0  0  0  0  0  0
    0.2648   68.1121   63.3846 H   0  0  0  0  0  0  0  0  0  0  0  0
   -0.1039   69.8874   63.6795 H   0  0  0  0  0  0  0  0  0  0  0  0
    1.8705   70.2131   64.5870 H   0  0  0  0  0  0  0  0  0  0  0  0
    1.5799   68.8478   65.7580 H   0  0  0  0  0  0  0  0  0  0  0  0
    2.2690   67.3049   63.8079 H   0  0  0  0  0  0  0  0  0  0  0  0
    2.9634   68.8157   63.0756 H   0  0  0  0  0  0  0  0  0  0  0  0
    3.6275   67.9349   65.8916 H   0  0  0  0  0  0  0  0  0  0  0  0
    4.5293   67.3512   64.4006 H   0  0  0  0  0  0  0  0  0  0  0  0
    5.8363   69.0876   64.5258 H   0  0  0  0  0  0  0  0  0  0  0  0
    4.3395   70.1412   64.2644 H   0  0  0  0  0  0  0  0  0  0  0  0
    4.8173   71.0366   66.0298 H   0  0  0  0  0  0  0  0  0  0  0  0
    6.7185   69.0354   67.0878 H   0  0  0  0  0  0  0  0  0  0  0  0
    7.1352   70.3630   65.9557 H   0  0  0  0  0  0  0  0  0  0  0  0
    7.5686   70.9539   68.3497 H   0  0  0  0  0  0  0  0  0  0  0  0
    6.3387   72.0271   67.5584 H   0  0  0  0  0  0  0  0  0  0  0  0
    5.8095   69.7181   69.4758 H   0  0  0  0  0  0  0  0  0  0  0  0
    5.5775   71.4903   69.7747 H   0  0  0  0  0  0  0  0  0  0  0  0
    3.4529   70.2565   69.2725 H   0  0  0  0  0  0  0  0  0  0  0  0
    3.8368   71.6056   68.1221 H   0  0  0  0  0  0  0  0  0  0  0  0
    4.2490   68.6204   67.6364 H   0  0  0  0  0  0  0  0  0  0  0  0
    3.0134   69.6748   66.8746 H   0  0  0  0  0  0  0  0  0  0  0  0
  2  1  2  0
  3  2  1  0
  4  3  2  0
  5  4  1  0
  6  5  2  0
  6  1  1  0
  8  7  1  0
  9  8  2  0
 10  9  1  0
 11 10  2  0
 12 11  1  0
 13 12  2  0
 13  8  1  0
 14 12  1  0
 15 14  2  0
 16 14  1  0
 17 16  2  0
 17  1  1  0
 18 17  1  0
 18 11  1  0
 19  4  1  0
 20 19  1  0
 21 20  1  0
 22 21  1  0
 23 22  1  0
 24 23  1  0
 25 24  1  0
 26 25  1  0
 27 26  1  0
 28 27  1  0
 29 28  1  0
 30 29  1  0
 31 30  1  0
 31 26  1  0
  2 32  1  0
  3 33  1  0
  5 34  1  0
  6 35  1  0
  7 36  1  0
  7 37  1  0
  7 38  1  0
  9 39  1  0
 10 40  1  0
 13 41  1  0
 16 42  1  0
 20 43  1  0
 20 44  1  0
 21 45  1  0
 21 46  1  0
 22 47  1  0
 22 48  1  0
 23 49  1  0
 23 50  1  0
 24 51  1  0
 24 52  1  0
 25 53  1  0
 25 54  1  0
 26 55  1  0
 27 56  1  0
 27 57  1  0
 28 58  1  0
 28 59  1  0
 29 60  1  0
 29 61  1  0
 30 62  1  0
 30 63  1  0
 31 64  1  0
 31 65  1  0
M  CHG  1  26   1
M  END
>  <score>  (1) 
-10.233

$$$$
=
     RDKit          3D

 65 68  0  0  0  0  0  0  0  0999 V2000
    0.3980   66.3890   69.3030 C   0  0  0  0  0  0  0  0  0  0  0  0
    1.2370   67.4510   68.9350 C   0  0  0  0  0  0  0  0  0  0  0  0
    0.7990   68.4500   68.0550 C   0  0  0  0  0  0  0  0  0  0  0  0
   -0.4880   68.4010   67.5290 C   0  0  0  0  0  0  0  0  0  0  0  0
   -1.3380   67.3580   67.9060 C   0  0  0  0  0  0  0  0  0  0  0  0
   -0.9040   66.3640   68.7880 C   0  0  0  0  0  0  0  0  0  0  0  0
    4.4900   60.7710   73.0910 C   0  0  0  0  0  0  0  0  0  0  0  0
    3.8620   61.8620   72.2740 C   0  0  0  0  0  0  0  0  0  0  0  0
    4.5230   62.3790   71.1500 C   0  0  0  0  0  0  0  0  0  0  0  0
    3.9290   63.3740   70.3700 C   0  0  0  0  0  0  0  0  0  0  0  0
    2.6650   63.8540   70.7020 C   0  0  0  0  0  0  0  0  0  0  0  0
    1.9970   63.3360   71.8090 C   0  0  0  0  0  0  0  0  0  0  0  0
    2.5840   62.3390   72.5940 C   0  0  0  0  0  0  0  0  0  0  0  0
    0.6600   63.8560   72.1290 C   0  0  0  0  0  0  0  0  0  0  0  0
   -0.0150   63.4380   73.0600 O   0  0  0  0  0  0  0  0  0  0  0  0
    0.1440   64.9240   71.2580 C   0  0  0  0  0  0  0  0  0  0  0  0
    0.8850   65.3440   70.2230 C   0  0  0  0  0  0  0  0  0  0  0  0
    2.1310   64.8290   69.8960 O   0  0  0  0  0  0  0  0  0  0  0  0
   -1.0270   69.2670   66.6220 O   0  0  0  0  0  0  0  0  0  0  0  0
   -1.8530   68.7500   65.5810 C   0  0  0  0  0  0  0  0  0  0  0  0
   -1.3300   69.0670   64.1760 C   0  0  0  0  0  0  0  0  0  0  0  0
    0.1730   68.8230   63.9790 C   0  0  0  0  0  0  0  0  0  0  0  0
    0.5650   68.6840   62.5040 C   0  0  0  0  0  0  0  0  0  0  0  0
    2.0780   68.6370   62.3120 C   0  0  0  0  0  0  0  0  0  0  0  0
    2.8160   67.6800   63.2510 C   0  0  0  0  0  0  0  0  0  0  0  0
    3.7570   68.3160   64.2520 N   0  0  0  0  0  4  0  0  0  0  0  0
    3.0800   69.0730   65.3680 C   0  0  0  0  0  0  0  0  0  0  0  0
    4.0990   69.3680   66.4610 C   0  0  0  0  0  0  0  0  0  0  0  0
    5.3120   70.1160   65.9160 C   0  0  0  0  0  0  0  0  0  0  0  0
    5.9360   69.3850   64.7310 C   0  0  0  0  0  0  0  0  0  0  0  0
    4.9090   69.0860   63.6460 C   0  0  0  0  0  0  0  0  0  0  0  0
    2.2568   67.5007   69.3443 H   0  0  0  0  0  0  0  0  0  0  0  0
    1.4738   69.2740   67.7798 H   0  0  0  0  0  0  0  0  0  0  0  0
   -2.3611   67.3186   67.5039 H   0  0  0  0  0  0  0  0  0  0  0  0
   -1.5907   65.5558   69.0798 H   0  0  0  0  0  0  0  0  0  0  0  0
    4.3618   60.9938   74.1605 H   0  0  0  0  0  0  0  0  0  0  0  0
    4.0059   59.8117   72.8556 H   0  0  0  0  0  0  0  0  0  0  0  0
    5.5627   60.7078   72.8556 H   0  0  0  0  0  0  0  0  0  0  0  0
    5.5187   61.9972   70.8802 H   0  0  0  0  0  0  0  0  0  0  0  0
    4.4591   63.7777   69.4948 H   0  0  0  0  0  0  0  0  0  0  0  0
    2.0439   61.9301   73.4606 H   0  0  0  0  0  0  0  0  0  0  0  0
   -0.8406   65.3734   71.4545 H   0  0  0  0  0  0  0  0  0  0  0  0
   -1.9122   67.6573   65.6929 H   0  0  0  0  0  0  0  0  0  0  0  0
   -2.8373   69.2314   65.6777 H   0  0  0  0  0  0  0  0  0  0  0  0
   -1.8760   68.4380   63.4575 H   0  0  0  0  0  0  0  0  0  0  0  0
   -1.4922   70.1438   64.0205 H   0  0  0  0  0  0  0  0  0  0  0  0
    0.7259   69.6701   64.4110 H   0  0  0  0  0  0  0  0  0  0  0  0
    0.4223   67.8750   64.4781 H   0  0  0  0  0  0  0  0  0  0  0  0
    0.1285   67.7555   62.1074 H   0  0  0  0  0  0  0  0  0  0  0  0
    0.1838   69.5660   61.9686 H   0  0  0  0  0  0  0  0  0  0  0  0
    2.2818   68.3254   61.2769 H   0  0  0  0  0  0  0  0  0  0  0  0
    2.4504   69.6458   62.5437 H   0  0  0  0  0  0  0  0  0  0  0  0
    2.0599   67.1137   63.8146 H   0  0  0  0  0  0  0  0  0  0  0  0
    3.4531   67.0632   62.6001 H   0  0  0  0  0  0  0  0  0  0  0  0
    4.1863   67.4941   64.7004 H   0  0  0  0  0  0  0  0  0  0  0  0
    2.6739   70.0181   64.9784 H   0  0  0  0  0  0  0  0  0  0  0  0
    2.2590   68.4684   65.7807 H   0  0  0  0  0  0  0  0  0  0  0  0
    3.6206   69.9829   67.2376 H   0  0  0  0  0  0  0  0  0  0  0  0
    4.4452   68.4092   66.8743 H   0  0  0  0  0  0  0  0  0  0  0  0
    4.9970   71.1187   65.5914 H   0  0  0  0  0  0  0  0  0  0  0  0
    6.0645   70.1807   66.7157 H   0  0  0  0  0  0  0  0  0  0  0  0
    6.7321   70.0129   64.3044 H   0  0  0  0  0  0  0  0  0  0  0  0
    6.3389   68.4278   65.0935 H   0  0  0  0  0  0  0  0  0  0  0  0
    4.5375   70.0299   63.2205 H   0  0  0  0  0  0  0  0  0  0  0  0
    5.3756   68.4878   62.8495 H   0  0  0  0  0  0  0  0  0  0  0  0
  2  1  2  0
  3  2  1  0
  4  3  2  0
  5  4  1  0
  6  5  2  0
  6  1  1  0
  8  7  1  0
  9  8  2  0
 10  9  1  0
 11 10  2  0
 12 11  1  0
 13 12  2  0
 13  8  1  0
 14 12  1  0
 15 14  2  0
 16 14  1  0
 17 16  2  0
 17  1  1  0
 18 17  1  0
 18 11  1  0
 19  4  1  0
 20 19  1  0
 21 20  1  0
 22 21  1  0
 23 22  1  0
 24 23  1  0
 25 24  1  0
 26 25  1  0
 27 26  1  0
 28 27  1  0
 29 28  1  0
 30 29  1  0
 31 30  1  0
 31 26  1  0
  2 32  1  0
  3 33  1  0
  5 34  1  0
  6 35  1  0
  7 36  1  0
  7 37  1  0
  7 38  1  0
  9 39  1  0
 10 40  1  0
 13 41  1  0
 16 42  1  0
 20 43  1  0
 20 44  1  0
 21 45  1  0
 21 46  1  0
 22 47  1  0
 22 48  1  0
 23 49  1  0
 23 50  1  0
 24 51  1  0
 24 52  1  0
 25 53  1  0
 25 54  1  0
 26 55  1  0
 27 56  1  0
 27 57  1  0
 28 58  1  0
 28 59  1  0
 29 60  1  0
 29 61  1  0
 30 62  1  0
 30 63  1  0
 31 64  1  0
 31 65  1  0
M  CHG  1  26   1
M  END
>  <score>  (2) 
-10.05

$$$$
=
     RDKit          3D

 65 68  0  0  0  0  0  0  0  0999 V2000
    1.4180   62.6250   71.4260 C   0  0  0  0  0  0  0  0  0  0  0  0
    2.3960   63.3190   70.6980 C   0  0  0  0  0  0  0  0  0  0  0  0
    2.2140   64.6610   70.3370 C   0  0  0  0  0  0  0  0  0  0  0  0
    1.0490   65.3300   70.7010 C   0  0  0  0  0  0  0  0  0  0  0  0
    0.0800   64.6530   71.4440 C   0  0  0  0  0  0  0  0  0  0  0  0
    0.2620   63.3160   71.8100 C   0  0  0  0  0  0  0  0  0  0  0  0
    0.9170   55.2520   74.2630 C   0  0  0  0  0  0  0  0  0  0  0  0
    0.8440   56.6730   73.7850 C   0  0  0  0  0  0  0  0  0  0  0  0
   -0.2420   57.4870   74.1370 C   0  0  0  0  0  0  0  0  0  0  0  0
   -0.3000   58.8190   73.7190 C   0  0  0  0  0  0  0  0  0  0  0  0
    0.7350   59.3510   72.9520 C   0  0  0  0  0  0  0  0  0  0  0  0
    1.8230   58.5520   72.6100 C   0  0  0  0  0  0  0  0  0  0  0  0
    1.8880   57.2190   73.0260 C   0  0  0  0  0  0  0  0  0  0  0  0
    2.9040   59.1440   71.8080 C   0  0  0  0  0  0  0  0  0  0  0  0
    3.9130   58.5300   71.4890 O   0  0  0  0  0  0  0  0  0  0  0  0
    2.7250   60.5460   71.3980 C   0  0  0  0  0  0  0  0  0  0  0  0
    1.6280   61.2100   71.7860 C   0  0  0  0  0  0  0  0  0  0  0  0
    0.6250   60.6660   72.5740 O   0  0  0  0  0  0  0  0  0  0  0  0
    0.7140   66.6110   70.3710 O   0  0  0  0  0  0  0  0  0  0  0  0
    1.3910   67.2440   69.2860 C   0  0  0  0  0  0  0  0  0  0  0  0
    0.6040   67.2010   67.9710 C   0  0  0  0  0  0  0  0  0  0  0  0
    0.2020   68.5750   67.4170 C   0  0  0  0  0  0  0  0  0  0  0  0
    1.0340   68.9930   66.2000 C   0  0  0  0  0  0  0  0  0  0  0  0
    2.3280   68.1910   66.0840 C   0  0  0  0  0  0  0  0  0  0  0  0
    3.5550   69.0070   65.6700 C   0  0  0  0  0  0  0  0  0  0  0  0
    4.4350   69.5110   66.7930 N   0  0  0  0  0  4  0  0  0  0  0  0
    3.7100   70.2740   67.8750 C   0  0  0  0  0  0  0  0  0  0  0  0
    4.6300   70.4280   69.0790 C   0  0  0  0  0  0  0  0  0  0  0  0
    5.9520   71.0880   68.7010 C   0  0  0  0  0  0  0  0  0  0  0  0
    6.6340   70.3580   67.5470 C   0  0  0  0  0  0  0  0  0  0  0  0
    5.7060   70.2010   66.3490 C   0  0  0  0  0  0  0  0  0  0  0  0
    3.3214   62.8011   70.4055 H   0  0  0  0  0  0  0  0  0  0  0  0
    2.9931   65.1863   69.7651 H   0  0  0  0  0  0  0  0  0  0  0  0
   -0.8383   65.1783   71.7453 H   0  0  0  0  0  0  0  0  0  0  0  0
   -0.5086   62.8029   72.4041 H   0  0  0  0  0  0  0  0  0  0  0  0
    0.9179   55.2347   75.3629 H   0  0  0  0  0  0  0  0  0  0  0  0
    0.0463   54.6939   73.8882 H   0  0  0  0  0  0  0  0  0  0  0  0
    1.8403   54.7860   73.8882 H   0  0  0  0  0  0  0  0  0  0  0  0
   -1.0569   57.0726   74.7487 H   0  0  0  0  0  0  0  0  0  0  0  0
   -1.1605   59.4463   73.9946 H   0  0  0  0  0  0  0  0  0  0  0  0
    2.7569   56.5999   72.7581 H   0  0  0  0  0  0  0  0  0  0  0  0
    3.4852   61.0443   70.7785 H   0  0  0  0  0  0  0  0  0  0  0  0
    1.5688   68.2964   69.5520 H   0  0  0  0  0  0  0  0  0  0  0  0
    2.3289   66.6932   69.1220 H   0  0  0  0  0  0  0  0  0  0  0  0
    1.2253   66.6961   67.2166 H   0  0  0  0  0  0  0  0  0  0  0  0
   -0.3334   66.6679   68.1881 H   0  0  0  0  0  0  0  0  0  0  0  0
   -0.8572   68.5387   67.1225 H   0  0  0  0  0  0  0  0  0  0  0  0
    0.3808   69.3162   68.2099 H   0  0  0  0  0  0  0  0  0  0  0  0
    0.4360   68.8344   65.2905 H   0  0  0  0  0  0  0  0  0  0  0  0
    1.3028   70.0526   66.3221 H   0  0  0  0  0  0  0  0  0  0  0  0
    2.5357   67.7335   67.0625 H   0  0  0  0  0  0  0  0  0  0  0  0
    2.1637   67.4527   65.2853 H   0  0  0  0  0  0  0  0  0  0  0  0
    4.1741   68.3737   65.0175 H   0  0  0  0  0  0  0  0  0  0  0  0
    3.1565   69.9089   65.1823 H   0  0  0  0  0  0  0  0  0  0  0  0
    4.7441   68.6348   67.2375 H   0  0  0  0  0  0  0  0  0  0  0  0
    3.4271   71.2680   67.4982 H   0  0  0  0  0  0  0  0  0  0  0  0
    2.8027   69.7264   68.1699 H   0  0  0  0  0  0  0  0  0  0  0  0
    4.1260   71.0478   69.8352 H   0  0  0  0  0  0  0  0  0  0  0  0
    4.8491   69.4244   69.4724 H   0  0  0  0  0  0  0  0  0  0  0  0
    5.7587   72.1285   68.4009 H   0  0  0  0  0  0  0  0  0  0  0  0
    6.6187   71.0490   69.5751 H   0  0  0  0  0  0  0  0  0  0  0  0
    7.5207   70.9309   67.2378 H   0  0  0  0  0  0  0  0  0  0  0  0
    6.9142   69.3532   67.8962 H   0  0  0  0  0  0  0  0  0  0  0  0
    5.4628   71.1925   65.9393 H   0  0  0  0  0  0  0  0  0  0  0  0
    6.2020   69.5995   65.5730 H   0  0  0  0  0  0  0  0  0  0  0  0
  2  1  2  0
  3  2  1  0
  4  3  2  0
  5  4  1  0
  6  5  2  0
  6  1  1  0
  8  7  1  0
  9  8  2  0
 10  9  1  0
 11 10  2  0
 12 11  1  0
 13 12  2  0
 13  8  1  0
 14 12  1  0
 15 14  2  0
 16 14  1  0
 17 16  2  0
 17  1  1  0
 18 17  1  0
 18 11  1  0
 19  4  1  0
 20 19  1  0
 21 20  1  0
 22 21  1  0
 23 22  1  0
 24 23  1  0
 25 24  1  0
 26 25  1  0
 27 26  1  0
 28 27  1  0
 29 28  1  0
 30 29  1  0
 31 30  1  0
 31 26  1  0
  2 32  1  0
  3 33  1  0
  5 34  1  0
  6 35  1  0
  7 36  1  0
  7 37  1  0
  7 38  1  0
  9 39  1  0
 10 40  1  0
 13 41  1  0
 16 42  1  0
 20 43  1  0
 20 44  1  0
 21 45  1  0
 21 46  1  0
 22 47  1  0
 22 48  1  0
 23 49  1  0
 23 50  1  0
 24 51  1  0
 24 52  1  0
 25 53  1  0
 25 54  1  0
 26 55  1  0
 27 56  1  0
 27 57  1  0
 28 58  1  0
 28 59  1  0
 29 60  1  0
 29 61  1  0
 30 62  1  0
 30 63  1  0
 31 64  1  0
 31 65  1  0
M  CHG  1  26   1
M  END
>  <score>  (3) 
-9.494

$$$$
=
     RDKit          3D

 65 68  0  0  0  0  0  0  0  0999 V2000
    0.7680   61.7160   72.0840 C   0  0  0  0  0  0  0  0  0  0  0  0
    1.9600   61.7560   71.3470 C   0  0  0  0  0  0  0  0  0  0  0  0
    2.3540   62.9170   70.6670 C   0  0  0  0  0  0  0  0  0  0  0  0
    1.5590   64.0580   70.7170 C   0  0  0  0  0  0  0  0  0  0  0  0
    0.3800   64.0340   71.4660 C   0  0  0  0  0  0  0  0  0  0  0  0
   -0.0110   62.8790   72.1490 C   0  0  0  0  0  0  0  0  0  0  0  0
    0.2150   54.4160   75.0940 C   0  0  0  0  0  0  0  0  0  0  0  0
    0.4860   55.7550   74.4720 C   0  0  0  0  0  0  0  0  0  0  0  0
    1.6430   55.9630   73.7090 C   0  0  0  0  0  0  0  0  0  0  0  0
    1.8850   57.1990   73.1030 C   0  0  0  0  0  0  0  0  0  0  0  0
    0.9660   58.2340   73.2490 C   0  0  0  0  0  0  0  0  0  0  0  0
   -0.1930   58.0300   73.9950 C   0  0  0  0  0  0  0  0  0  0  0  0
   -0.4420   56.7970   74.6020 C   0  0  0  0  0  0  0  0  0  0  0  0
   -1.1490   59.1390   74.1230 C   0  0  0  0  0  0  0  0  0  0  0  0
   -2.2080   59.0430   74.7290 O   0  0  0  0  0  0  0  0  0  0  0  0
   -0.7790   60.4050   73.4700 C   0  0  0  0  0  0  0  0  0  0  0  0
    0.3690   60.4800   72.7820 C   0  0  0  0  0  0  0  0  0  0  0  0
    1.2550   59.4240   72.6280 O   0  0  0  0  0  0  0  0  0  0  0  0
    1.7870   65.2330   70.0610 O   0  0  0  0  0  0  0  0  0  0  0  0
    0.8970   66.3270   70.2760 C   0  0  0  0  0  0  0  0  0  0  0  0
    0.1580   66.7670   69.0070 C   0  0  0  0  0  0  0  0  0  0  0  0
    1.0410   67.4440   67.9500 C   0  0  0  0  0  0  0  0  0  0  0  0
    0.4940   68.8010   67.4970 C   0  0  0  0  0  0  0  0  0  0  0  0
    1.5090   69.9250   67.6860 C   0  0  0  0  0  0  0  0  0  0  0  0
    2.6380   69.6120   68.6710 C   0  0  0  0  0  0  0  0  0  0  0  0
    4.0480   69.8400   68.1680 N   0  0  0  0  0  4  0  0  0  0  0  0
    4.7580   71.0210   68.7830 C   0  0  0  0  0  0  0  0  0  0  0  0
    6.2420   70.9390   68.4510 C   0  0  0  0  0  0  0  0  0  0  0  0
    6.4820   70.8450   66.9470 C   0  0  0  0  0  0  0  0  0  0  0  0
    5.6890   69.7010   66.3230 C   0  0  0  0  0  0  0  0  0  0  0  0
    4.2070   69.7850   66.6650 C   0  0  0  0  0  0  0  0  0  0  0  0
    2.5974   60.8606   71.3015 H   0  0  0  0  0  0  0  0  0  0  0  0
    3.2925   62.9260   70.0934 H   0  0  0  0  0  0  0  0  0  0  0  0
   -0.2484   64.9353   71.5189 H   0  0  0  0  0  0  0  0  0  0  0  0
   -0.9374   62.8829   72.7421 H   0  0  0  0  0  0  0  0  0  0  0  0
    0.2341   54.5101   76.1898 H   0  0  0  0  0  0  0  0  0  0  0  0
   -0.7741   54.0565   74.7740 H   0  0  0  0  0  0  0  0  0  0  0  0
    0.9865   53.7002   74.7740 H   0  0  0  0  0  0  0  0  0  0  0  0
    2.3681   55.1451   73.5858 H   0  0  0  0  0  0  0  0  0  0  0  0
    2.7998   57.3534   72.5120 H   0  0  0  0  0  0  0  0  0  0  0  0
   -1.3647   56.6441   75.1810 H   0  0  0  0  0  0  0  0  0  0  0  0
   -1.4387   61.2819   73.5459 H   0  0  0  0  0  0  0  0  0  0  0  0
    0.1518   66.0281   71.0279 H   0  0  0  0  0  0  0  0  0  0  0  0
    1.5051   67.1803   70.6109 H   0  0  0  0  0  0  0  0  0  0  0  0
   -0.2995   65.8765   68.5513 H   0  0  0  0  0  0  0  0  0  0  0  0
   -0.5790   67.5199   69.3232 H   0  0  0  0  0  0  0  0  0  0  0  0
    2.0445   67.5941   68.3748 H   0  0  0  0  0  0  0  0  0  0  0  0
    1.0639   66.7863   67.0685 H   0  0  0  0  0  0  0  0  0  0  0  0
    0.2296   68.7382   66.4311 H   0  0  0  0  0  0  0  0  0  0  0  0
   -0.3857   69.0335   68.1152 H   0  0  0  0  0  0  0  0  0  0  0  0
    1.9602   70.1466   66.7076 H   0  0  0  0  0  0  0  0  0  0  0  0
    0.9543   70.7746   68.1108 H   0  0  0  0  0  0  0  0  0  0  0  0
    2.4926   70.2439   69.5596 H   0  0  0  0  0  0  0  0  0  0  0  0
    2.5667   68.5318   68.8661 H   0  0  0  0  0  0  0  0  0  0  0  0
    4.5436   69.0095   68.5222 H   0  0  0  0  0  0  0  0  0  0  0  0
    4.3407   71.9541   68.3765 H   0  0  0  0  0  0  0  0  0  0  0  0
    4.6213   71.0081   69.8744 H   0  0  0  0  0  0  0  0  0  0  0  0
    6.7432   71.8393   68.8359 H   0  0  0  0  0  0  0  0  0  0  0  0
    6.6474   70.0300   68.9193 H   0  0  0  0  0  0  0  0  0  0  0  0
    6.1749   71.7907   66.4766 H   0  0  0  0  0  0  0  0  0  0  0  0
    7.5523   70.6532   66.7804 H   0  0  0  0  0  0  0  0  0  0  0  0
    5.8047   69.7427   65.2299 H   0  0  0  0  0  0  0  0  0  0  0  0
    6.0792   68.7552   66.7270 H   0  0  0  0  0  0  0  0  0  0  0  0
    3.7762   70.6919   66.2156 H   0  0  0  0  0  0  0  0  0  0  0  0
    3.6848   68.9014   66.2693 H   0  0  0  0  0  0  0  0  0  0  0  0
  2  1  2  0
  3  2  1  0
  4  3  2  0
  5  4  1  0
  6  5  2  0
  6  1  1  0
  8  7  1  0
  9  8  2  0
 10  9  1  0
 11 10  2  0
 12 11  1  0
 13 12  2  0
 13  8  1  0
 14 12  1  0
 15 14  2  0
 16 14  1  0
 17 16  2  0
 17  1  1  0
 18 17  1  0
 18 11  1  0
 19  4  1  0
 20 19  1  0
 21 20  1  0
 22 21  1  0
 23 22  1  0
 24 23  1  0
 25 24  1  0
 26 25  1  0
 27 26  1  0
 28 27  1  0
 29 28  1  0
 30 29  1  0
 31 30  1  0
 31 26  1  0
  2 32  1  0
  3 33  1  0
  5 34  1  0
  6 35  1  0
  7 36  1  0
  7 37  1  0
  7 38  1  0
  9 39  1  0
 10 40  1  0
 13 41  1  0
 16 42  1  0
 20 43  1  0
 20 44  1  0
 21 45  1  0
 21 46  1  0
 22 47  1  0
 22 48  1  0
 23 49  1  0
 23 50  1  0
 24 51  1  0
 24 52  1  0
 25 53  1  0
 25 54  1  0
 26 55  1  0
 27 56  1  0
 27 57  1  0
 28 58  1  0
 28 59  1  0
 29 60  1  0
 29 61  1  0
 30 62  1  0
 30 63  1  0
 31 64  1  0
 31 65  1  0
M  CHG  1  26   1
M  END
>  <score>  (4) 
-9.491

$$$$
=
     RDKit          3D

 65 68  0  0  0  0  0  0  0  0999 V2000
    1.5730   62.9110   71.0640 C   0  0  0  0  0  0  0  0  0  0  0  0
    2.5790   63.6730   70.4520 C   0  0  0  0  0  0  0  0  0  0  0  0
    2.3570   65.0090   70.0900 C   0  0  0  0  0  0  0  0  0  0  0  0
    1.1240   65.6040   70.3370 C   0  0  0  0  0  0  0  0  0  0  0  0
    0.1230   64.8590   70.9660 C   0  0  0  0  0  0  0  0  0  0  0  0
    0.3440   63.5280   71.3320 C   0  0  0  0  0  0  0  0  0  0  0  0
    1.4340   55.6050   74.1070 C   0  0  0  0  0  0  0  0  0  0  0  0
    1.3010   57.0150   73.6100 C   0  0  0  0  0  0  0  0  0  0  0  0
    0.2680   57.8390   74.0770 C   0  0  0  0  0  0  0  0  0  0  0  0
    0.1570   59.1610   73.6390 C   0  0  0  0  0  0  0  0  0  0  0  0
    1.0870   59.6730   72.7370 C   0  0  0  0  0  0  0  0  0  0  0  0
    2.1240   58.8650   72.2800 C   0  0  0  0  0  0  0  0  0  0  0  0
    2.2410   57.5410   72.7140 C   0  0  0  0  0  0  0  0  0  0  0  0
    3.0950   59.4350   71.3350 C   0  0  0  0  0  0  0  0  0  0  0  0
    4.0570   58.8120   70.9050 O   0  0  0  0  0  0  0  0  0  0  0  0
    2.8660   60.8280   70.9190 C   0  0  0  0  0  0  0  0  0  0  0  0
    1.8260   61.5040   71.4270 C   0  0  0  0  0  0  0  0  0  0  0  0
    0.9300   60.9800   72.3470 O   0  0  0  0  0  0  0  0  0  0  0  0
    0.7500   66.8690   69.9890 O   0  0  0  0  0  0  0  0  0  0  0  0
    1.2450   67.4240   68.7710 C   0  0  0  0  0  0  0  0  0  0  0  0
    2.0480   68.7140   68.9730 C   0  0  0  0  0  0  0  0  0  0  0  0
    2.2800   69.5340   67.6970 C   0  0  0  0  0  0  0  0  0  0  0  0
    3.7660   69.7780   67.4080 C   0  0  0  0  0  0  0  0  0  0  0  0
    4.1290   69.4700   65.9590 C   0  0  0  0  0  0  0  0  0  0  0  0
    3.3320   68.3280   65.3240 C   0  0  0  0  0  0  0  0  0  0  0  0
    2.3540   68.7180   64.2360 N   0  0  0  0  0  4  0  0  0  0  0  0
    0.9100   68.3950   64.5350 C   0  0  0  0  0  0  0  0  0  0  0  0
    0.0200   69.1230   63.5370 C   0  0  0  0  0  0  0  0  0  0  0  0
    0.3940   68.7900   62.0960 C   0  0  0  0  0  0  0  0  0  0  0  0
    1.8760   69.0380   61.8300 C   0  0  0  0  0  0  0  0  0  0  0  0
    2.7610   68.3120   62.8370 C   0  0  0  0  0  0  0  0  0  0  0  0
    3.5588   63.2145   70.2527 H   0  0  0  0  0  0  0  0  0  0  0  0
    3.1594   65.5881   69.6096 H   0  0  0  0  0  0  0  0  0  0  0  0
   -0.8508   65.3256   71.1757 H   0  0  0  0  0  0  0  0  0  0  0  0
   -0.4533   62.9606   71.8344 H   0  0  0  0  0  0  0  0  0  0  0  0
    1.4342   55.6024   75.2070 H   0  0  0  0  0  0  0  0  0  0  0  0
    0.5884   55.0053   73.7391 H   0  0  0  0  0  0  0  0  0  0  0  0
    2.3768   55.1739   73.7391 H   0  0  0  0  0  0  0  0  0  0  0  0
   -0.4631   57.4407   74.7959 H   0  0  0  0  0  0  0  0  0  0  0  0
   -0.6629   59.7962   74.0055 H   0  0  0  0  0  0  0  0  0  0  0  0
    3.0693   56.9137   72.3528 H   0  0  0  0  0  0  0  0  0  0  0  0
    3.5422   61.3101   70.1977 H   0  0  0  0  0  0  0  0  0  0  0  0
    1.8955   66.6802   68.2877 H   0  0  0  0  0  0  0  0  0  0  0  0
    0.3725   67.6778   68.1511 H   0  0  0  0  0  0  0  0  0  0  0  0
    1.5056   69.3457   69.6918 H   0  0  0  0  0  0  0  0  0  0  0  0
    3.0425   68.4071   69.3290 H   0  0  0  0  0  0  0  0  0  0  0  0
    1.8412   68.9918   66.8464 H   0  0  0  0  0  0  0  0  0  0  0  0
    1.8062   70.5158   67.8441 H   0  0  0  0  0  0  0  0  0  0  0  0
    3.9986   70.8330   67.6149 H   0  0  0  0  0  0  0  0  0  0  0  0
    4.3505   69.1054   68.0530 H   0  0  0  0  0  0  0  0  0  0  0  0
    3.9578   70.3787   65.3633 H   0  0  0  0  0  0  0  0  0  0  0  0
    5.1801   69.1459   65.9664 H   0  0  0  0  0  0  0  0  0  0  0  0
    4.0513   67.6181   64.8897 H   0  0  0  0  0  0  0  0  0  0  0  0
    2.7176   67.9116   66.1359 H   0  0  0  0  0  0  0  0  0  0  0  0
    2.4117   69.7463   64.2475 H   0  0  0  0  0  0  0  0  0  0  0  0
    0.7497   67.3102   64.4487 H   0  0  0  0  0  0  0  0  0  0  0  0
    0.6619   68.7175   65.5570 H   0  0  0  0  0  0  0  0  0  0  0  0
   -1.0253   68.8279   63.7108 H   0  0  0  0  0  0  0  0  0  0  0  0
    0.1552   70.2047   63.6840 H   0  0  0  0  0  0  0  0  0  0  0  0
    0.1691   67.7304   61.9043 H   0  0  0  0  0  0  0  0  0  0  0  0
   -0.1896   69.4417   61.4291 H   0  0  0  0  0  0  0  0  0  0  0  0
    2.1208   68.6814   60.8186 H   0  0  0  0  0  0  0  0  0  0  0  0
    2.0645   70.1176   61.9249 H   0  0  0  0  0  0  0  0  0  0  0  0
    2.6389   67.2252   62.7186 H   0  0  0  0  0  0  0  0  0  0  0  0
    3.8142   68.5788   62.6651 H   0  0  0  0  0  0  0  0  0  0  0  0
  2  1  2  0
  3  2  1  0
  4  3  2  0
  5  4  1  0
  6  5  2  0
  6  1  1  0
  8  7  1  0
  9  8  2  0
 10  9  1  0
 11 10  2  0
 12 11  1  0
 13 12  2  0
 13  8  1  0
 14 12  1  0
 15 14  2  0
 16 14  1  0
 17 16  2  0
 17  1  1  0
 18 17  1  0
 18 11  1  0
 19  4  1  0
 20 19  1  0
 21 20  1  0
 22 21  1  0
 23 22  1  0
 24 23  1  0
 25 24  1  0
 26 25  1  0
 27 26  1  0
 28 27  1  0
 29 28  1  0
 30 29  1  0
 31 30  1  0
 31 26  1  0
  2 32  1  0
  3 33  1  0
  5 34  1  0
  6 35  1  0
  7 36  1  0
  7 37  1  0
  7 38  1  0
  9 39  1  0
 10 40  1  0
 13 41  1  0
 16 42  1  0
 20 43  1  0
 20 44  1  0
 21 45  1  0
 21 46  1  0
 22 47  1  0
 22 48  1  0
 23 49  1  0
 23 50  1  0
 24 51  1  0
 24 52  1  0
 25 53  1  0
 25 54  1  0
 26 55  1  0
 27 56  1  0
 27 57  1  0
 28 58  1  0
 28 59  1  0
 29 60  1  0
 29 61  1  0
 30 62  1  0
 30 63  1  0
 31 64  1  0
 31 65  1  0
M  CHG  1  26   1
M  END
>  <score>  (5) 
-9.406

$$$$
=
     RDKit          3D

 65 68  0  0  0  0  0  0  0  0999 V2000
    1.4950   62.6680   71.4270 C   0  0  0  0  0  0  0  0  0  0  0  0
    2.5560   63.2240   70.6970 C   0  0  0  0  0  0  0  0  0  0  0  0
    2.5140   64.5530   70.2560 C   0  0  0  0  0  0  0  0  0  0  0  0
    1.4090   65.3490   70.5410 C   0  0  0  0  0  0  0  0  0  0  0  0
    0.3570   64.8100   71.2850 C   0  0  0  0  0  0  0  0  0  0  0  0
    0.3990   63.4860   71.7300 C   0  0  0  0  0  0  0  0  0  0  0  0
    0.1860   55.5430   74.6170 C   0  0  0  0  0  0  0  0  0  0  0  0
    0.2670   56.9350   74.0610 C   0  0  0  0  0  0  0  0  0  0  0  0
   -0.7560   57.8600   74.3120 C   0  0  0  0  0  0  0  0  0  0  0  0
   -0.6720   59.1660   73.8210 C   0  0  0  0  0  0  0  0  0  0  0  0
    0.4420   59.5590   73.0840 C   0  0  0  0  0  0  0  0  0  0  0  0
    1.4690   58.6490   72.8430 C   0  0  0  0  0  0  0  0  0  0  0  0
    1.3920   57.3420   73.3310 C   0  0  0  0  0  0  0  0  0  0  0  0
    2.6360   59.0960   72.0700 C   0  0  0  0  0  0  0  0  0  0  0  0
    3.6000   58.3790   71.8370 O   0  0  0  0  0  0  0  0  0  0  0  0
    2.6060   60.4830   71.5770 C   0  0  0  0  0  0  0  0  0  0  0  0
    1.5560   61.2630   71.8710 C   0  0  0  0  0  0  0  0  0  0  0  0
    0.4710   60.8550   72.6320 O   0  0  0  0  0  0  0  0  0  0  0  0
    1.2080   66.6340   70.1290 O   0  0  0  0  0  0  0  0  0  0  0  0
    0.3330   66.8770   69.0290 C   0  0  0  0  0  0  0  0  0  0  0  0
    0.8080   68.0120   68.1140 C   0  0  0  0  0  0  0  0  0  0  0  0
   -0.3170   68.7980   67.4270 C   0  0  0  0  0  0  0  0  0  0  0  0
   -0.4180   68.5060   65.9260 C   0  0  0  0  0  0  0  0  0  0  0  0
    0.9130   68.0480   65.3370 C   0  0  0  0  0  0  0  0  0  0  0  0
    1.2890   68.7060   64.0080 C   0  0  0  0  0  0  0  0  0  0  0  0
    2.7580   69.0090   63.8010 N   0  0  0  0  0  4  0  0  0  0  0  0
    3.3670   68.3880   62.5680 C   0  0  0  0  0  0  0  0  0  0  0  0
    4.7230   69.0290   62.3050 C   0  0  0  0  0  0  0  0  0  0  0  0
    5.6450   68.9210   63.5150 C   0  0  0  0  0  0  0  0  0  0  0  0
    4.9850   69.4720   64.7750 C   0  0  0  0  0  0  0  0  0  0  0  0
    3.6250   68.8320   65.0280 C   0  0  0  0  0  0  0  0  0  0  0  0
    3.4362   62.6057   70.4669 H   0  0  0  0  0  0  0  0  0  0  0  0
    3.3564   64.9681   69.6832 H   0  0  0  0  0  0  0  0  0  0  0  0
   -0.5157   65.4357   71.5237 H   0  0  0  0  0  0  0  0  0  0  0  0
   -0.4352   63.0829   72.3229 H   0  0  0  0  0  0  0  0  0  0  0  0
    0.1885   55.5865   75.7161 H   0  0  0  0  0  0  0  0  0  0  0  0
   -0.7416   55.0634   74.2711 H   0  0  0  0  0  0  0  0  0  0  0  0
    1.0517   54.9591   74.2711 H   0  0  0  0  0  0  0  0  0  0  0  0
   -1.6335   57.5551   74.9011 H   0  0  0  0  0  0  0  0  0  0  0  0
   -1.4842   59.8817   74.0164 H   0  0  0  0  0  0  0  0  0  0  0  0
    2.2126   56.6341   73.1426 H   0  0  0  0  0  0  0  0  0  0  0  0
    3.4373   60.8756   70.9731 H   0  0  0  0  0  0  0  0  0  0  0  0
    0.2584   65.9559   68.4324 H   0  0  0  0  0  0  0  0  0  0  0  0
   -0.6382   67.1807   69.4468 H   0  0  0  0  0  0  0  0  0  0  0  0
    1.3970   68.7163   68.7199 H   0  0  0  0  0  0  0  0  0  0  0  0
    1.3908   67.5386   67.3101 H   0  0  0  0  0  0  0  0  0  0  0  0
   -1.2726   68.5305   67.9017 H   0  0  0  0  0  0  0  0  0  0  0  0
   -0.0889   69.8681   67.5405 H   0  0  0  0  0  0  0  0  0  0  0  0
   -1.1660   67.7149   65.7686 H   0  0  0  0  0  0  0  0  0  0  0  0
   -0.7085   69.4382   65.4195 H   0  0  0  0  0  0  0  0  0  0  0  0
    1.7051   68.2734   66.0662 H   0  0  0  0  0  0  0  0  0  0  0  0
    0.8054   66.9731   65.1298 H   0  0  0  0  0  0  0  0  0  0  0  0
    0.9683   68.0336   63.1986 H   0  0  0  0  0  0  0  0  0  0  0  0
    0.7857   69.6841   64.0124 H   0  0  0  0  0  0  0  0  0  0  0  0
    2.7489   70.0228   63.6192 H   0  0  0  0  0  0  0  0  0  0  0  0
    3.4949   67.3068   62.7250 H   0  0  0  0  0  0  0  0  0  0  0  0
    2.7055   68.5529   61.7047 H   0  0  0  0  0  0  0  0  0  0  0  0
    5.1962   68.5231   61.4505 H   0  0  0  0  0  0  0  0  0  0  0  0
    4.5612   70.0961   62.0927 H   0  0  0  0  0  0  0  0  0  0  0  0
    5.8977   67.8629   63.6779 H   0  0  0  0  0  0  0  0  0  0  0  0
    6.5490   69.5142   63.3127 H   0  0  0  0  0  0  0  0  0  0  0  0
    5.6389   69.2710   65.6364 H   0  0  0  0  0  0  0  0  0  0  0  0
    4.8338   70.5528   64.6370 H   0  0  0  0  0  0  0  0  0  0  0  0
    3.7555   67.7596   65.2351 H   0  0  0  0  0  0  0  0  0  0  0  0
    3.1448   69.3125   65.8932 H   0  0  0  0  0  0  0  0  0  0  0  0
  2  1  2  0
  3  2  1  0
  4  3  2  0
  5  4  1  0
  6  5  2  0
  6  1  1  0
  8  7  1  0
  9  8  2  0
 10  9  1  0
 11 10  2  0
 12 11  1  0
 13 12  2  0
 13  8  1  0
 14 12  1  0
 15 14  2  0
 16 14  1  0
 17 16  2  0
 17  1  1  0
 18 17  1  0
 18 11  1  0
 19  4  1  0
 20 19  1  0
 21 20  1  0
 22 21  1  0
 23 22  1  0
 24 23  1  0
 25 24  1  0
 26 25  1  0
 27 26  1  0
 28 27  1  0
 29 28  1  0
 30 29  1  0
 31 30  1  0
 31 26  1  0
  2 32  1  0
  3 33  1  0
  5 34  1  0
  6 35  1  0
  7 36  1  0
  7 37  1  0
  7 38  1  0
  9 39  1  0
 10 40  1  0
 13 41  1  0
 16 42  1  0
 20 43  1  0
 20 44  1  0
 21 45  1  0
 21 46  1  0
 22 47  1  0
 22 48  1  0
 23 49  1  0
 23 50  1  0
 24 51  1  0
 24 52  1  0
 25 53  1  0
 25 54  1  0
 26 55  1  0
 27 56  1  0
 27 57  1  0
 28 58  1  0
 28 59  1  0
 29 60  1  0
 29 61  1  0
 30 62  1  0
 30 63  1  0
 31 64  1  0
 31 65  1  0
M  CHG  1  26   1
M  END
>  <score>  (6) 
-9.391

$$$$
=
     RDKit          3D

 65 68  0  0  0  0  0  0  0  0999 V2000
    0.8270   61.9310   72.0610 C   0  0  0  0  0  0  0  0  0  0  0  0
    2.0490   62.0200   71.3790 C   0  0  0  0  0  0  0  0  0  0  0  0
    2.4380   63.2040   70.7390 C   0  0  0  0  0  0  0  0  0  0  0  0
    1.6080   64.3200   70.7710 C   0  0  0  0  0  0  0  0  0  0  0  0
    0.3980   64.2470   71.4650 C   0  0  0  0  0  0  0  0  0  0  0  0
    0.0110   63.0680   72.1090 C   0  0  0  0  0  0  0  0  0  0  0  0
    0.3380   54.5480   74.8750 C   0  0  0  0  0  0  0  0  0  0  0  0
    0.5990   55.9070   74.2930 C   0  0  0  0  0  0  0  0  0  0  0  0
    1.7690   56.1540   73.5620 C   0  0  0  0  0  0  0  0  0  0  0  0
    2.0020   57.4090   72.9930 C   0  0  0  0  0  0  0  0  0  0  0  0
    1.0610   58.4250   73.1430 C   0  0  0  0  0  0  0  0  0  0  0  0
   -0.1100   58.1820   73.8560 C   0  0  0  0  0  0  0  0  0  0  0  0
   -0.3510   56.9290   74.4270 C   0  0  0  0  0  0  0  0  0  0  0  0
   -1.0890   59.2700   73.9900 C   0  0  0  0  0  0  0  0  0  0  0  0
   -2.1600   59.1400   74.5690 O   0  0  0  0  0  0  0  0  0  0  0  0
   -0.7270   60.5580   73.3770 C   0  0  0  0  0  0  0  0  0  0  0  0
    0.4350   60.6700   72.7190 C   0  0  0  0  0  0  0  0  0  0  0  0
    1.3430   59.6350   72.5590 O   0  0  0  0  0  0  0  0  0  0  0  0
    1.8290   65.5130   70.1470 O   0  0  0  0  0  0  0  0  0  0  0  0
    0.7890   66.4900   70.1370 C   0  0  0  0  0  0  0  0  0  0  0  0
    0.6280   67.1910   68.7830 C   0  0  0  0  0  0  0  0  0  0  0  0
   -0.7180   66.9470   68.0880 C   0  0  0  0  0  0  0  0  0  0  0  0
   -0.9740   67.9160   66.9280 C   0  0  0  0  0  0  0  0  0  0  0  0
    0.2020   68.8600   66.6970 C   0  0  0  0  0  0  0  0  0  0  0  0
    1.0900   68.5020   65.5030 C   0  0  0  0  0  0  0  0  0  0  0  0
    2.5000   69.0520   65.5270 N   0  0  0  0  0  4  0  0  0  0  0  0
    3.4060   68.5240   64.4410 C   0  0  0  0  0  0  0  0  0  0  0  0
    4.6590   69.3870   64.3740 C   0  0  0  0  0  0  0  0  0  0  0  0
    5.3670   69.4630   65.7240 C   0  0  0  0  0  0  0  0  0  0  0  0
    4.4180   69.9140   66.8300 C   0  0  0  0  0  0  0  0  0  0  0  0
    3.1630   69.0510   66.8860 C   0  0  0  0  0  0  0  0  0  0  0  0
    2.7141   61.1445   71.3459 H   0  0  0  0  0  0  0  0  0  0  0  0
    3.4014   63.2513   70.2103 H   0  0  0  0  0  0  0  0  0  0  0  0
   -0.2588   65.1285   71.5053 H   0  0  0  0  0  0  0  0  0  0  0  0
   -0.9418   63.0332   72.6576 H   0  0  0  0  0  0  0  0  0  0  0  0
    0.3501   54.6109   75.9731 H   0  0  0  0  0  0  0  0  0  0  0  0
   -0.6457   54.1880   74.5392 H   0  0  0  0  0  0  0  0  0  0  0  0
    1.1184   53.8493   74.5392 H   0  0  0  0  0  0  0  0  0  0  0  0
    2.5112   55.3521   73.4349 H   0  0  0  0  0  0  0  0  0  0  0  0
    2.9272   57.5942   72.4275 H   0  0  0  0  0  0  0  0  0  0  0  0
   -1.2839   56.7454   74.9802 H   0  0  0  0  0  0  0  0  0  0  0  0
   -1.4042   61.4210   73.4582 H   0  0  0  0  0  0  0  0  0  0  0  0
   -0.1596   65.9926   70.3876 H   0  0  0  0  0  0  0  0  0  0  0  0
    1.0598   67.2614   70.8729 H   0  0  0  0  0  0  0  0  0  0  0  0
    0.7393   68.2736   68.9428 H   0  0  0  0  0  0  0  0  0  0  0  0
    1.3989   66.7683   68.1219 H   0  0  0  0  0  0  0  0  0  0  0  0
   -0.7296   65.9193   67.6960 H   0  0  0  0  0  0  0  0  0  0  0  0
   -1.5095   67.1090   68.8346 H   0  0  0  0  0  0  0  0  0  0  0  0
   -1.1464   67.3335   66.0110 H   0  0  0  0  0  0  0  0  0  0  0  0
   -1.8523   68.5264   67.1848 H   0  0  0  0  0  0  0  0  0  0  0  0
   -0.1985   69.8715   66.5340 H   0  0  0  0  0  0  0  0  0  0  0  0
    0.8396   68.7832   67.5900 H   0  0  0  0  0  0  0  0  0  0  0  0
    1.1589   67.4053   65.4535 H   0  0  0  0  0  0  0  0  0  0  0  0
    0.6088   68.9668   64.6298 H   0  0  0  0  0  0  0  0  0  0  0  0
    2.3510   70.0454   65.2994 H   0  0  0  0  0  0  0  0  0  0  0  0
    3.6862   67.4848   64.6680 H   0  0  0  0  0  0  0  0  0  0  0  0
    2.8825   68.5550   63.4740 H   0  0  0  0  0  0  0  0  0  0  0  0
    5.3491   68.9561   63.6337 H   0  0  0  0  0  0  0  0  0  0  0  0
    4.3581   70.4055   64.0876 H   0  0  0  0  0  0  0  0  0  0  0  0
    5.7625   68.4681   65.9764 H   0  0  0  0  0  0  0  0  0  0  0  0
    6.1798   70.2000   65.6457 H   0  0  0  0  0  0  0  0  0  0  0  0
    4.9397   69.8468   67.7961 H   0  0  0  0  0  0  0  0  0  0  0  0
    4.1120   70.9489   66.6169 H   0  0  0  0  0  0  0  0  0  0  0  0
    3.4359   68.0217   67.1618 H   0  0  0  0  0  0  0  0  0  0  0  0
    2.4686   69.4556   67.6371 H   0  0  0  0  0  0  0  0  0  0  0  0
  2  1  2  0
  3  2  1  0
  4  3  2  0
  5  4  1  0
  6  5  2  0
  6  1  1  0
  8  7  1  0
  9  8  2  0
 10  9  1  0
 11 10  2  0
 12 11  1  0
 13 12  2  0
 13  8  1  0
 14 12  1  0
 15 14  2  0
 16 14  1  0
 17 16  2  0
 17  1  1  0
 18 17  1  0
 18 11  1  0
 19  4  1  0
 20 19  1  0
 21 20  1  0
 22 21  1  0
 23 22  1  0
 24 23  1  0
 25 24  1  0
 26 25  1  0
 27 26  1  0
 28 27  1  0
 29 28  1  0
 30 29  1  0
 31 30  1  0
 31 26  1  0
  2 32  1  0
  3 33  1  0
  5 34  1  0
  6 35  1  0
  7 36  1  0
  7 37  1  0
  7 38  1  0
  9 39  1  0
 10 40  1  0
 13 41  1  0
 16 42  1  0
 20 43  1  0
 20 44  1  0
 21 45  1  0
 21 46  1  0
 22 47  1  0
 22 48  1  0
 23 49  1  0
 23 50  1  0
 24 51  1  0
 24 52  1  0
 25 53  1  0
 25 54  1  0
 26 55  1  0
 27 56  1  0
 27 57  1  0
 28 58  1  0
 28 59  1  0
 29 60  1  0
 29 61  1  0
 30 62  1  0
 30 63  1  0
 31 64  1  0
 31 65  1  0
M  CHG  1  26   1
M  END
>  <score>  (7) 
-9.386

$$$$
=
     RDKit          3D

 65 68  0  0  0  0  0  0  0  0999 V2000
    0.2790   65.7580   69.9990 C   0  0  0  0  0  0  0  0  0  0  0  0
   -0.3750   66.0750   71.1980 C   0  0  0  0  0  0  0  0  0  0  0  0
   -0.0880   65.3850   72.3840 C   0  0  0  0  0  0  0  0  0  0  0  0
    0.8600   64.3670   72.3880 C   0  0  0  0  0  0  0  0  0  0  0  0
    1.5320   64.0590   71.2020 C   0  0  0  0  0  0  0  0  0  0  0  0
    1.2510   64.7490   70.0190 C   0  0  0  0  0  0  0  0  0  0  0  0
    0.3730   69.5660   63.0600 C   0  0  0  0  0  0  0  0  0  0  0  0
    0.5270   68.8030   64.3430 C   0  0  0  0  0  0  0  0  0  0  0  0
    1.7900   68.3550   64.7560 C   0  0  0  0  0  0  0  0  0  0  0  0
    1.9420   67.6700   65.9640 C   0  0  0  0  0  0  0  0  0  0  0  0
    0.8340   67.4360   66.7740 C   0  0  0  0  0  0  0  0  0  0  0  0
   -0.4220   67.8900   66.3760 C   0  0  0  0  0  0  0  0  0  0  0  0
   -0.5820   68.5770   65.1690 C   0  0  0  0  0  0  0  0  0  0  0  0
   -1.5710   67.6360   67.2560 C   0  0  0  0  0  0  0  0  0  0  0  0
   -2.7040   68.0250   67.0060 O   0  0  0  0  0  0  0  0  0  0  0  0
   -1.3010   66.8790   68.4890 C   0  0  0  0  0  0  0  0  0  0  0  0
   -0.0470   66.4900   68.7610 C   0  0  0  0  0  0  0  0  0  0  0  0
    1.0450   66.7610   67.9510 O   0  0  0  0  0  0  0  0  0  0  0  0
    1.1970   63.5770   73.4480 O   0  0  0  0  0  0  0  0  0  0  0  0
    1.9290   62.3760   73.2090 C   0  0  0  0  0  0  0  0  0  0  0  0
    2.0470   61.4800   74.4470 C   0  0  0  0  0  0  0  0  0  0  0  0
    2.3750   60.0110   74.1500 C   0  0  0  0  0  0  0  0  0  0  0  0
    1.8420   59.5450   72.7900 C   0  0  0  0  0  0  0  0  0  0  0  0
    2.7290   58.4780   72.1580 C   0  0  0  0  0  0  0  0  0  0  0  0
    4.0580   58.9930   71.6000 C   0  0  0  0  0  0  0  0  0  0  0  0
    4.0420   60.3880   71.0130 N   0  0  0  0  0  4  0  0  0  0  0  0
    3.7500   60.4510   69.5330 C   0  0  0  0  0  0  0  0  0  0  0  0
    3.4370   61.8920   69.1480 C   0  0  0  0  0  0  0  0  0  0  0  0
    4.5610   62.8420   69.5500 C   0  0  0  0  0  0  0  0  0  0  0  0
    4.9080   62.7060   71.0300 C   0  0  0  0  0  0  0  0  0  0  0  0
    5.2120   61.2620   71.4100 C   0  0  0  0  0  0  0  0  0  0  0  0
   -1.1260   66.8787   71.2082 H   0  0  0  0  0  0  0  0  0  0  0  0
   -0.6136   65.6491   73.3135 H   0  0  0  0  0  0  0  0  0  0  0  0
    2.2917   63.2635   71.1992 H   0  0  0  0  0  0  0  0  0  0  0  0
    1.7968   64.4980   69.0975 H   0  0  0  0  0  0  0  0  0  0  0  0
    0.1599   70.6216   63.2845 H   0  0  0  0  0  0  0  0  0  0  0  0
    1.3035   69.4956   62.4775 H   0  0  0  0  0  0  0  0  0  0  0  0
   -0.4573   69.1402   62.4775 H   0  0  0  0  0  0  0  0  0  0  0  0
    2.6693   68.5447   64.1229 H   0  0  0  0  0  0  0  0  0  0  0  0
    2.9360   67.3159   66.2749 H   0  0  0  0  0  0  0  0  0  0  0  0
   -1.5762   68.9393   64.8685 H   0  0  0  0  0  0  0  0  0  0  0  0
   -2.1204   66.6346   69.1810 H   0  0  0  0  0  0  0  0  0  0  0  0
    1.4201   61.8093   72.4153 H   0  0  0  0  0  0  0  0  0  0  0  0
    2.9494   62.6688   72.9209 H   0  0  0  0  0  0  0  0  0  0  0  0
    2.8436   61.8855   75.0881 H   0  0  0  0  0  0  0  0  0  0  0  0
    1.0577   61.4849   74.9279 H   0  0  0  0  0  0  0  0  0  0  0  0
    3.4678   59.8861   74.1604 H   0  0  0  0  0  0  0  0  0  0  0  0
    1.8864   59.4003   74.9235 H   0  0  0  0  0  0  0  0  0  0  0  0
    0.8327   59.1300   72.9285 H   0  0  0  0  0  0  0  0  0  0  0  0
    1.8286   60.4148   72.1168 H   0  0  0  0  0  0  0  0  0  0  0  0
    2.9506   57.7202   72.9239 H   0  0  0  0  0  0  0  0  0  0  0  0
    2.1680   58.0787   71.3002 H   0  0  0  0  0  0  0  0  0  0  0  0
    4.7923   58.9822   72.4190 H   0  0  0  0  0  0  0  0  0  0  0  0
    4.3036   58.3243   70.7618 H   0  0  0  0  0  0  0  0  0  0  0  0
    3.2213   60.8085   71.4719 H   0  0  0  0  0  0  0  0  0  0  0  0
    4.6273   60.1012   68.9691 H   0  0  0  0  0  0  0  0  0  0  0  0
    2.8887   59.8087   69.2973 H   0  0  0  0  0  0  0  0  0  0  0  0
    3.2967   61.9471   68.0584 H   0  0  0  0  0  0  0  0  0  0  0  0
    2.5239   62.1977   69.6798 H   0  0  0  0  0  0  0  0  0  0  0  0
    5.4545   62.6118   68.9511 H   0  0  0  0  0  0  0  0  0  0  0  0
    4.2221   63.8727   69.3690 H   0  0  0  0  0  0  0  0  0  0  0  0
    5.7913   63.3247   71.2468 H   0  0  0  0  0  0  0  0  0  0  0  0
    4.0388   63.0380   71.6167 H   0  0  0  0  0  0  0  0  0  0  0  0
    6.1179   60.9258   70.8843 H   0  0  0  0  0  0  0  0  0  0  0  0
    5.3755   61.1913   72.4955 H   0  0  0  0  0  0  0  0  0  0  0  0
  2  1  2  0
  3  2  1  0
  4  3  2  0
  5  4  1  0
  6  5  2  0
  6  1  1  0
  8  7  1  0
  9  8  2  0
 10  9  1  0
 11 10  2  0
 12 11  1  0
 13 12  2  0
 13  8  1  0
 14 12  1  0
 15 14  2  0
 16 14  1  0
 17 16  2  0
 17  1  1  0
 18 17  1  0
 18 11  1  0
 19  4  1  0
 20 19  1  0
 21 20  1  0
 22 21  1  0
 23 22  1  0
 24 23  1  0
 25 24  1  0
 26 25  1  0
 27 26  1  0
 28 27  1  0
 29 28  1  0
 30 29  1  0
 31 30  1  0
 31 26  1  0
  2 32  1  0
  3 33  1  0
  5 34  1  0
  6 35  1  0
  7 36  1  0
  7 37  1  0
  7 38  1  0
  9 39  1  0
 10 40  1  0
 13 41  1  0
 16 42  1  0
 20 43  1  0
 20 44  1  0
 21 45  1  0
 21 46  1  0
 22 47  1  0
 22 48  1  0
 23 49  1  0
 23 50  1  0
 24 51  1  0
 24 52  1  0
 25 53  1  0
 25 54  1  0
 26 55  1  0
 27 56  1  0
 27 57  1  0
 28 58  1  0
 28 59  1  0
 29 60  1  0
 29 61  1  0
 30 62  1  0
 30 63  1  0
 31 64  1  0
 31 65  1  0
M  CHG  1  26   1
M  END
>  <score>  (8) 
-9.145

$$$$
=
     RDKit          3D

 65 68  0  0  0  0  0  0  0  0999 V2000
    0.5070   67.2080   67.5370 C   0  0  0  0  0  0  0  0  0  0  0  0
    1.5410   67.1320   68.4820 C   0  0  0  0  0  0  0  0  0  0  0  0
    1.2920   66.7160   69.7970 C   0  0  0  0  0  0  0  0  0  0  0  0
    0.0020   66.3680   70.1870 C   0  0  0  0  0  0  0  0  0  0  0  0
   -1.0290   66.4200   69.2470 C   0  0  0  0  0  0  0  0  0  0  0  0
   -0.7820   66.8300   67.9330 C   0  0  0  0  0  0  0  0  0  0  0  0
    3.7430   68.9530   60.5270 C   0  0  0  0  0  0  0  0  0  0  0  0
    3.2800   68.5310   61.8910 C   0  0  0  0  0  0  0  0  0  0  0  0
    4.1610   67.8890   62.7730 C   0  0  0  0  0  0  0  0  0  0  0  0
    3.7430   67.5200   64.0540 C   0  0  0  0  0  0  0  0  0  0  0  0
    2.4420   67.8000   64.4670 C   0  0  0  0  0  0  0  0  0  0  0  0
    1.5660   68.4490   63.6010 C   0  0  0  0  0  0  0  0  0  0  0  0
    1.9770   68.8220   62.3180 C   0  0  0  0  0  0  0  0  0  0  0  0
    0.2030   68.7380   64.0680 C   0  0  0  0  0  0  0  0  0  0  0  0
   -0.6250   69.3340   63.3910 O   0  0  0  0  0  0  0  0  0  0  0  0
   -0.1380   68.2790   65.4240 C   0  0  0  0  0  0  0  0  0  0  0  0
    0.7920   67.6580   66.1620 C   0  0  0  0  0  0  0  0  0  0  0  0
    2.0900   67.4180   65.7380 O   0  0  0  0  0  0  0  0  0  0  0  0
   -0.3950   66.0030   71.4400 O   0  0  0  0  0  0  0  0  0  0  0  0
    0.3830   65.0480   72.1600 C   0  0  0  0  0  0  0  0  0  0  0  0
    0.1000   63.5990   71.7460 C   0  0  0  0  0  0  0  0  0  0  0  0
    0.1890   62.5750   72.8860 C   0  0  0  0  0  0  0  0  0  0  0  0
    0.0910   61.1270   72.3940 C   0  0  0  0  0  0  0  0  0  0  0  0
    1.1980   60.2470   72.9690 C   0  0  0  0  0  0  0  0  0  0  0  0
    2.4000   60.0400   72.0450 C   0  0  0  0  0  0  0  0  0  0  0  0
    2.7250   61.1790   71.1010 N   0  0  0  0  0  4  0  0  0  0  0  0
    3.1080   60.7550   69.7040 C   0  0  0  0  0  0  0  0  0  0  0  0
    3.0810   61.9730   68.7900 C   0  0  0  0  0  0  0  0  0  0  0  0
    3.9720   63.0950   69.3130 C   0  0  0  0  0  0  0  0  0  0  0  0
    3.6330   63.4540   70.7570 C   0  0  0  0  0  0  0  0  0  0  0  0
    3.6550   62.2300   71.6650 C   0  0  0  0  0  0  0  0  0  0  0  0
    2.5650   67.4036   68.1858 H   0  0  0  0  0  0  0  0  0  0  0  0
    2.1175   66.6644   70.5222 H   0  0  0  0  0  0  0  0  0  0  0  0
   -2.0490   66.1347   69.5439 H   0  0  0  0  0  0  0  0  0  0  0  0
   -1.6063   66.8558   67.2051 H   0  0  0  0  0  0  0  0  0  0  0  0
    4.5526   69.6909   60.6266 H   0  0  0  0  0  0  0  0  0  0  0  0
    4.1129   68.0749   59.9774 H   0  0  0  0  0  0  0  0  0  0  0  0
    2.9028   69.4025   59.9774 H   0  0  0  0  0  0  0  0  0  0  0  0
    5.1912   67.6738   62.4532 H   0  0  0  0  0  0  0  0  0  0  0  0
    4.4396   67.0094   64.7352 H   0  0  0  0  0  0  0  0  0  0  0  0
    1.2796   69.3426   61.6452 H   0  0  0  0  0  0  0  0  0  0  0  0
   -1.1476   68.4443   65.8282 H   0  0  0  0  0  0  0  0  0  0  0  0
    1.4477   65.2601   71.9827 H   0  0  0  0  0  0  0  0  0  0  0  0
    0.1128   65.1420   73.2221 H   0  0  0  0  0  0  0  0  0  0  0  0
   -0.9154   63.5554   71.3253 H   0  0  0  0  0  0  0  0  0  0  0  0
    0.8817   63.3254   71.0221 H   0  0  0  0  0  0  0  0  0  0  0  0
    1.1517   62.7063   73.4018 H   0  0  0  0  0  0  0  0  0  0  0  0
   -0.6627   62.7541   73.5587 H   0  0  0  0  0  0  0  0  0  0  0  0
   -0.8828   60.7149   72.6972 H   0  0  0  0  0  0  0  0  0  0  0  0
    0.1991   61.1340   71.2993 H   0  0  0  0  0  0  0  0  0  0  0  0
    1.5573   60.7131   73.8983 H   0  0  0  0  0  0  0  0  0  0  0  0
    0.7532   59.2531   73.1249 H   0  0  0  0  0  0  0  0  0  0  0  0
    3.2831   59.8667   72.6776 H   0  0  0  0  0  0  0  0  0  0  0  0
    2.1305   59.1915   71.3989 H   0  0  0  0  0  0  0  0  0  0  0  0
    1.8142   61.6497   71.0027 H   0  0  0  0  0  0  0  0  0  0  0  0
    4.1200   60.3240   69.7140 H   0  0  0  0  0  0  0  0  0  0  0  0
    2.3971   59.9999   69.3373 H   0  0  0  0  0  0  0  0  0  0  0  0
    3.4324   61.6760   67.7909 H   0  0  0  0  0  0  0  0  0  0  0  0
    2.0475   62.3478   68.7511 H   0  0  0  0  0  0  0  0  0  0  0  0
    5.0217   62.7702   69.2628 H   0  0  0  0  0  0  0  0  0  0  0  0
    3.8064   63.9855   68.6888 H   0  0  0  0  0  0  0  0  0  0  0  0
    4.3697   64.1834   71.1248 H   0  0  0  0  0  0  0  0  0  0  0  0
    2.6168   63.8747   70.7750 H   0  0  0  0  0  0  0  0  0  0  0  0
    4.6775   61.8278   71.7164 H   0  0  0  0  0  0  0  0  0  0  0  0
    3.3258   62.5124   72.6759 H   0  0  0  0  0  0  0  0  0  0  0  0
  2  1  2  0
  3  2  1  0
  4  3  2  0
  5  4  1  0
  6  5  2  0
  6  1  1  0
  8  7  1  0
  9  8  2  0
 10  9  1  0
 11 10  2  0
 12 11  1  0
 13 12  2  0
 13  8  1  0
 14 12  1  0
 15 14  2  0
 16 14  1  0
 17 16  2  0
 17  1  1  0
 18 17  1  0
 18 11  1  0
 19  4  1  0
 20 19  1  0
 21 20  1  0
 22 21  1  0
 23 22  1  0
 24 23  1  0
 25 24  1  0
 26 25  1  0
 27 26  1  0
 28 27  1  0
 29 28  1  0
 30 29  1  0
 31 30  1  0
 31 26  1  0
  2 32  1  0
  3 33  1  0
  5 34  1  0
  6 35  1  0
  7 36  1  0
  7 37  1  0
  7 38  1  0
  9 39  1  0
 10 40  1  0
 13 41  1  0
 16 42  1  0
 20 43  1  0
 20 44  1  0
 21 45  1  0
 21 46  1  0
 22 47  1  0
 22 48  1  0
 23 49  1  0
 23 50  1  0
 24 51  1  0
 24 52  1  0
 25 53  1  0
 25 54  1  0
 26 55  1  0
 27 56  1  0
 27 57  1  0
 28 58  1  0
 28 59  1  0
 29 60  1  0
 29 61  1  0
 30 62  1  0
 30 63  1  0
 31 64  1  0
 31 65  1  0
M  CHG  1  26   1
M  END
>  <score>  (9) 
-8.973

$$$$
