=
     RDKit          3D

 60 65  0  0  0  0  0  0  0  0999 V2000
    1.1540   67.0560   67.9140 N   0  0  0  0  0  4  0  0  0  0  0  0
    0.4640   67.6740   66.9460 C   0  0  0  0  0  0  0  0  0  0  0  0
   -1.2790   67.5750   66.8280 S   0  0  0  0  0  0  0  0  0  0  0  0
   -1.3610   68.6260   65.3420 C   0  0  0  0  0  0  0  0  0  0  0  0
    0.0590   69.0580   65.0840 C   0  0  0  0  0  0  0  0  0  0  0  0
    0.4430   69.7990   64.1980 O   0  0  0  0  0  0  0  0  0  0  0  0
    0.9750   68.4840   66.0270 N   0  0  0  0  0  0  0  0  0  0  0  0
    2.3200   68.7030   65.9060 C   0  0  0  0  0  0  0  0  0  0  0  0
    2.9900   68.2910   64.7450 C   0  0  0  0  0  0  0  0  0  0  0  0
    2.3600   67.5280   63.6080 C   0  0  0  0  0  0  0  0  0  0  0  0
    2.8270   68.0620   62.2500 C   0  0  0  0  0  0  0  0  0  0  0  0
    4.3290   68.3640   62.1570 C   0  0  0  0  0  0  0  0  0  0  0  0
    5.1060   68.0870   63.4430 C   0  0  0  0  0  0  0  0  0  0  0  0
    4.3440   68.5790   64.6450 C   0  0  0  0  0  0  0  0  0  0  0  0
    5.0190   69.2690   65.5830 N   0  0  0  0  0  0  0  0  0  0  0  0
    4.3920   69.6570   66.6980 C   0  0  0  0  0  0  0  0  0  0  0  0
    3.0280   69.3980   66.9280 C   0  0  0  0  0  0  0  0  0  0  0  0
    2.4550   69.8300   68.1530 C   0  0  0  0  0  0  0  0  0  0  0  0
    3.2090   70.5180   69.1010 C   0  0  0  0  0  0  0  0  0  0  0  0
    4.5460   70.7810   68.8500 C   0  0  0  0  0  0  0  0  0  0  0  0
    5.1220   70.3460   67.6560 C   0  0  0  0  0  0  0  0  0  0  0  0
    1.5810   66.8940   70.6510 O   0  0  0  0  0  0  0  0  0  0  0  0
    0.9350   65.9690   70.1610 C   0  0  0  0  0  0  0  0  0  0  0  0
    0.6030   65.9200   68.8080 N   0  0  0  0  0  0  0  0  0  0  0  0
    0.3920   64.8060   70.9830 C   0  0  0  0  0  0  0  0  0  0  0  0
    1.4210   63.7110   71.1050 C   0  0  0  0  0  0  0  0  0  0  0  0
    2.6600   63.8710   70.6150 C   0  0  0  0  0  0  0  0  0  0  0  0
    3.7300   62.8660   70.7420 C   0  0  0  0  0  0  0  0  0  0  0  0
    4.8520   63.1060   70.3160 O   0  0  0  0  0  0  0  0  0  0  0  0
    3.4070   61.6930   71.3920 O   0  0  0  0  0  0  0  0  0  0  0  0
    2.1050   61.4650   71.8800 C   0  0  0  0  0  0  0  0  0  0  0  0
    1.0960   62.4280   71.7510 C   0  0  0  0  0  0  0  0  0  0  0  0
   -0.1740   62.1000   72.2470 C   0  0  0  0  0  0  0  0  0  0  0  0
   -0.4020   60.8670   72.8680 C   0  0  0  0  0  0  0  0  0  0  0  0
    0.6300   59.9440   72.9890 C   0  0  0  0  0  0  0  0  0  0  0  0
    1.8920   60.2290   72.4940 C   0  0  0  0  0  0  0  0  0  0  0  0
    0.3520   58.7620   73.6040 O   0  0  0  0  0  0  0  0  0  0  0  0
    2.1248   67.3603   68.0752 H   0  0  0  0  0  0  0  0  0  0  0  0
   -1.7517   68.0549   64.4869 H   0  0  0  0  0  0  0  0  0  0  0  0
   -2.0327   69.4856   65.4833 H   0  0  0  0  0  0  0  0  0  0  0  0
    2.6392   66.4672   63.6907 H   0  0  0  0  0  0  0  0  0  0  0  0
    1.2687   67.6505   63.6715 H   0  0  0  0  0  0  0  0  0  0  0  0
    2.5812   67.3112   61.4846 H   0  0  0  0  0  0  0  0  0  0  0  0
    2.3093   69.0210   62.1007 H   0  0  0  0  0  0  0  0  0  0  0  0
    4.7564   67.7434   61.3556 H   0  0  0  0  0  0  0  0  0  0  0  0
    4.4222   69.4419   61.9582 H   0  0  0  0  0  0  0  0  0  0  0  0
    5.2702   67.0035   63.5388 H   0  0  0  0  0  0  0  0  0  0  0  0
    6.0684   68.6174   63.3945 H   0  0  0  0  0  0  0  0  0  0  0  0
    1.3953   69.6174   68.3575 H   0  0  0  0  0  0  0  0  0  0  0  0
    2.7463   70.8501   70.0421 H   0  0  0  0  0  0  0  0  0  0  0  0
    5.1499   71.3296   69.5878 H   0  0  0  0  0  0  0  0  0  0  0  0
    6.1855   70.5553   67.4687 H   0  0  0  0  0  0  0  0  0  0  0  0
    0.0192   65.1642   68.4222 H   0  0  0  0  0  0  0  0  0  0  0  0
    0.1282   65.1668   71.9881 H   0  0  0  0  0  0  0  0  0  0  0  0
   -0.4964   64.4005   70.4767 H   0  0  0  0  0  0  0  0  0  0  0  0
    2.8905   64.8081   70.0872 H   0  0  0  0  0  0  0  0  0  0  0  0
   -0.9998   62.8197   72.1468 H   0  0  0  0  0  0  0  0  0  0  0  0
   -1.4009   60.6275   73.2615 H   0  0  0  0  0  0  0  0  0  0  0  0
    2.7087   59.4975   72.5827 H   0  0  0  0  0  0  0  0  0  0  0  0
    1.0616   58.0796   73.7088 H   0  0  0  0  0  0  0  0  0  0  0  0
  2  1  2  0
  3  2  1  0
  4  3  1  0
  5  4  1  0
  6  5  2  0
  7  5  1  0
  7  2  1  0
  8  7  1  0
  9  8  1  0
 10  9  1  0
 11 10  1  0
 12 11  1  0
 13 12  1  0
 14 13  1  0
 14  9  2  0
 15 14  1  0
 16 15  2  0
 17 16  1  0
 17  8  2  0
 18 17  1  0
 19 18  2  0
 20 19  1  0
 21 20  2  0
 21 16  1  0
 23 22  2  0
 24 23  1  0
 24  1  1  0
 25 23  1  0
 26 25  1  0
 27 26  2  0
 28 27  1  0
 29 28  2  0
 30 28  1  0
 31 30  1  0
 32 31  2  0
 32 26  1  0
 33 32  1  0
 34 33  2  0
 35 34  1  0
 36 35  2  0
 36 31  1  0
 37 35  1  0
  1 38  1  0
  4 39  1  0
  4 40  1  0
 10 41  1  0
 10 42  1  0
 11 43  1  0
 11 44  1  0
 12 45  1  0
 12 46  1  0
 13 47  1  0
 13 48  1  0
 18 49  1  0
 19 50  1  0
 20 51  1  0
 21 52  1  0
 24 53  1  0
 25 54  1  0
 25 55  1  0
 27 56  1  0
 33 57  1  0
 34 58  1  0
 36 59  1  0
 37 60  1  0
M  CHG  1   1   1
M  END
>  <score>  (1) 
-13.093

$$$$
=
     RDKit          3D

 60 65  0  0  0  0  0  0  0  0999 V2000
    0.6510   67.1010   68.0150 N   0  0  0  0  0  4  0  0  0  0  0  0
    0.0840   67.7350   66.9800 C   0  0  0  0  0  0  0  0  0  0  0  0
   -1.6460   67.7430   66.7200 S   0  0  0  0  0  0  0  0  0  0  0  0
   -1.5380   68.7560   65.2090 C   0  0  0  0  0  0  0  0  0  0  0  0
   -0.0760   69.0900   65.0610 C   0  0  0  0  0  0  0  0  0  0  0  0
    0.4270   69.7800   64.1930 O   0  0  0  0  0  0  0  0  0  0  0  0
    0.7210   68.4840   66.0890 N   0  0  0  0  0  0  0  0  0  0  0  0
    2.0820   68.6140   66.0760 C   0  0  0  0  0  0  0  0  0  0  0  0
    2.8250   68.0350   65.0370 C   0  0  0  0  0  0  0  0  0  0  0  0
    2.2520   67.1810   63.9350 C   0  0  0  0  0  0  0  0  0  0  0  0
    2.8730   67.5290   62.5780 C   0  0  0  0  0  0  0  0  0  0  0  0
    4.3940   67.7360   62.5980 C   0  0  0  0  0  0  0  0  0  0  0  0
    5.0320   67.5660   63.9760 C   0  0  0  0  0  0  0  0  0  0  0  0
    4.1990   68.2350   65.0370 C   0  0  0  0  0  0  0  0  0  0  0  0
    4.8310   68.9900   65.9540 N   0  0  0  0  0  0  0  0  0  0  0  0
    4.1330   69.5380   66.9550 C   0  0  0  0  0  0  0  0  0  0  0  0
    2.7400   69.3820   67.0790 C   0  0  0  0  0  0  0  0  0  0  0  0
    2.0880   69.9830   68.1870 C   0  0  0  0  0  0  0  0  0  0  0  0
    2.7970   70.7340   69.1230 C   0  0  0  0  0  0  0  0  0  0  0  0
    4.1660   70.8920   68.9750 C   0  0  0  0  0  0  0  0  0  0  0  0
    4.8170   70.2920   67.8980 C   0  0  0  0  0  0  0  0  0  0  0  0
    1.7810   65.9790   70.2880 O   0  0  0  0  0  0  0  0  0  0  0  0
    0.6740   65.5430   69.9780 C   0  0  0  0  0  0  0  0  0  0  0  0
   -0.0440   66.0270   68.8860 N   0  0  0  0  0  0  0  0  0  0  0  0
   -0.0490   64.4650   70.7770 C   0  0  0  0  0  0  0  0  0  0  0  0
    0.9170   63.7140   71.6570 C   0  0  0  0  0  0  0  0  0  0  0  0
    0.8990   63.8670   72.9900 C   0  0  0  0  0  0  0  0  0  0  0  0
    1.7770   63.1300   73.9140 C   0  0  0  0  0  0  0  0  0  0  0  0
    1.6660   63.2850   75.1230 O   0  0  0  0  0  0  0  0  0  0  0  0
    2.6740   62.2470   73.3490 O   0  0  0  0  0  0  0  0  0  0  0  0
    2.7570   62.0890   71.9510 C   0  0  0  0  0  0  0  0  0  0  0  0
    1.9180   62.7980   71.0820 C   0  0  0  0  0  0  0  0  0  0  0  0
    2.0920   62.5920   69.7070 C   0  0  0  0  0  0  0  0  0  0  0  0
    3.0530   61.6890   69.2360 C   0  0  0  0  0  0  0  0  0  0  0  0
    3.8570   60.9940   70.1310 C   0  0  0  0  0  0  0  0  0  0  0  0
    3.7220   61.1880   71.4970 C   0  0  0  0  0  0  0  0  0  0  0  0
    4.7720   60.1280   69.6170 O   0  0  0  0  0  0  0  0  0  0  0  0
    1.6235   67.3470   68.2489 H   0  0  0  0  0  0  0  0  0  0  0  0
   -1.8940   68.1875   64.3372 H   0  0  0  0  0  0  0  0  0  0  0  0
   -2.1616   69.6598   65.2744 H   0  0  0  0  0  0  0  0  0  0  0  0
    2.4536   66.1233   64.1602 H   0  0  0  0  0  0  0  0  0  0  0  0
    1.1696   67.3686   63.8788 H   0  0  0  0  0  0  0  0  0  0  0  0
    2.6487   66.7096   61.8792 H   0  0  0  0  0  0  0  0  0  0  0  0
    2.4343   68.4913   62.2753 H   0  0  0  0  0  0  0  0  0  0  0  0
    4.8505   67.0052   61.9142 H   0  0  0  0  0  0  0  0  0  0  0  0
    4.5750   68.7771   62.2925 H   0  0  0  0  0  0  0  0  0  0  0  0
    5.1146   66.4933   64.2054 H   0  0  0  0  0  0  0  0  0  0  0  0
    6.0281   68.0326   63.9634 H   0  0  0  0  0  0  0  0  0  0  0  0
    1.0025   69.8537   68.3095 H   0  0  0  0  0  0  0  0  0  0  0  0
    2.2741   71.1977   69.9725 H   0  0  0  0  0  0  0  0  0  0  0  0
    4.7358   71.4876   69.7034 H   0  0  0  0  0  0  0  0  0  0  0  0
    5.9044   70.4200   67.7927 H   0  0  0  0  0  0  0  0  0  0  0  0
   -0.9915   65.6863   68.6691 H   0  0  0  0  0  0  0  0  0  0  0  0
   -0.8181   64.9369   71.4061 H   0  0  0  0  0  0  0  0  0  0  0  0
   -0.5116   63.7557   70.0749 H   0  0  0  0  0  0  0  0  0  0  0  0
    0.1854   64.5863   73.4182 H   0  0  0  0  0  0  0  0  0  0  0  0
    1.4673   63.1453   68.9903 H   0  0  0  0  0  0  0  0  0  0  0  0
    3.1718   61.5294   68.1541 H   0  0  0  0  0  0  0  0  0  0  0  0
    4.3613   60.6439   72.2078 H   0  0  0  0  0  0  0  0  0  0  0  0
    5.3629   59.6147   70.2232 H   0  0  0  0  0  0  0  0  0  0  0  0
  2  1  2  0
  3  2  1  0
  4  3  1  0
  5  4  1  0
  6  5  2  0
  7  5  1  0
  7  2  1  0
  8  7  1  0
  9  8  1  0
 10  9  1  0
 11 10  1  0
 12 11  1  0
 13 12  1  0
 14 13  1  0
 14  9  2  0
 15 14  1  0
 16 15  2  0
 17 16  1  0
 17  8  2  0
 18 17  1  0
 19 18  2  0
 20 19  1  0
 21 20  2  0
 21 16  1  0
 23 22  2  0
 24 23  1  0
 24  1  1  0
 25 23  1  0
 26 25  1  0
 27 26  2  0
 28 27  1  0
 29 28  2  0
 30 28  1  0
 31 30  1  0
 32 31  2  0
 32 26  1  0
 33 32  1  0
 34 33  2  0
 35 34  1  0
 36 35  2  0
 36 31  1  0
 37 35  1  0
  1 38  1  0
  4 39  1  0
  4 40  1  0
 10 41  1  0
 10 42  1  0
 11 43  1  0
 11 44  1  0
 12 45  1  0
 12 46  1  0
 13 47  1  0
 13 48  1  0
 18 49  1  0
 19 50  1  0
 20 51  1  0
 21 52  1  0
 24 53  1  0
 25 54  1  0
 25 55  1  0
 27 56  1  0
 33 57  1  0
 34 58  1  0
 36 59  1  0
 37 60  1  0
M  CHG  1   1   1
M  END
>  <score>  (2) 
-12.7

$$$$
=
     RDKit          3D

 60 65  0  0  0  0  0  0  0  0999 V2000
    1.5170   66.5920   68.4710 N   0  0  0  0  0  4  0  0  0  0  0  0
    0.6300   67.1950   67.6700 C   0  0  0  0  0  0  0  0  0  0  0  0
   -1.0940   66.9420   67.8230 S   0  0  0  0  0  0  0  0  0  0  0  0
   -1.5050   68.0610   66.4440 C   0  0  0  0  0  0  0  0  0  0  0  0
   -0.1870   68.6360   65.9960 C   0  0  0  0  0  0  0  0  0  0  0  0
   -0.0160   69.4570   65.1130 O   0  0  0  0  0  0  0  0  0  0  0  0
    0.9160   68.0980   66.7400 N   0  0  0  0  0  0  0  0  0  0  0  0
    2.2000   68.4470   66.4230 C   0  0  0  0  0  0  0  0  0  0  0  0
    2.8620   69.4230   67.1810 C   0  0  0  0  0  0  0  0  0  0  0  0
    2.2420   70.2140   68.3050 C   0  0  0  0  0  0  0  0  0  0  0  0
    3.2040   70.3510   69.4890 C   0  0  0  0  0  0  0  0  0  0  0  0
    4.6550   70.6770   69.1070 C   0  0  0  0  0  0  0  0  0  0  0  0
    4.8960   70.8030   67.6030 C   0  0  0  0  0  0  0  0  0  0  0  0
    4.1810   69.7080   66.8550 C   0  0  0  0  0  0  0  0  0  0  0  0
    4.8540   69.0620   65.8850 N   0  0  0  0  0  0  0  0  0  0  0  0
    4.2280   68.1370   65.1500 C   0  0  0  0  0  0  0  0  0  0  0  0
    2.8840   67.7810   65.3660 C   0  0  0  0  0  0  0  0  0  0  0  0
    2.2980   66.8030   64.5200 C   0  0  0  0  0  0  0  0  0  0  0  0
    3.0350   66.1840   63.5120 C   0  0  0  0  0  0  0  0  0  0  0  0
    4.3640   66.5330   63.3260 C   0  0  0  0  0  0  0  0  0  0  0  0
    4.9420   67.5050   64.1420 C   0  0  0  0  0  0  0  0  0  0  0  0
    0.4190   66.7500   71.0150 O   0  0  0  0  0  0  0  0  0  0  0  0
    0.6930   65.6160   70.6280 C   0  0  0  0  0  0  0  0  0  0  0  0
    1.2170   65.3620   69.3610 N   0  0  0  0  0  0  0  0  0  0  0  0
    0.4490   64.3680   71.4670 C   0  0  0  0  0  0  0  0  0  0  0  0
    1.6270   63.4300   71.3850 C   0  0  0  0  0  0  0  0  0  0  0  0
    2.7900   63.8280   70.8480 C   0  0  0  0  0  0  0  0  0  0  0  0
    3.9950   62.9840   70.7800 C   0  0  0  0  0  0  0  0  0  0  0  0
    5.0370   63.4360   70.3220 O   0  0  0  0  0  0  0  0  0  0  0  0
    3.8900   61.7070   71.2910 O   0  0  0  0  0  0  0  0  0  0  0  0
    2.6740   61.2340   71.8230 C   0  0  0  0  0  0  0  0  0  0  0  0
    1.5340   62.0450   71.8800 C   0  0  0  0  0  0  0  0  0  0  0  0
    0.3650   61.4780   72.4030 C   0  0  0  0  0  0  0  0  0  0  0  0
    0.3590   60.1580   72.8730 C   0  0  0  0  0  0  0  0  0  0  0  0
    1.5160   59.3900   72.8120 C   0  0  0  0  0  0  0  0  0  0  0  0
    2.6840   59.9150   72.2840 C   0  0  0  0  0  0  0  0  0  0  0  0
    1.4530   58.1160   73.2850 O   0  0  0  0  0  0  0  0  0  0  0  0
    2.4724   66.9761   68.4970 H   0  0  0  0  0  0  0  0  0  0  0  0
   -1.9815   67.5038   65.6239 H   0  0  0  0  0  0  0  0  0  0  0  0
   -2.2137   68.8454   66.7482 H   0  0  0  0  0  0  0  0  0  0  0  0
    1.9832   71.2175   67.9362 H   0  0  0  0  0  0  0  0  0  0  0  0
    1.3434   69.6808   68.6490 H   0  0  0  0  0  0  0  0  0  0  0  0
    2.8326   71.1562   70.1399 H   0  0  0  0  0  0  0  0  0  0  0  0
    3.2278   69.3686   69.9832 H   0  0  0  0  0  0  0  0  0  0  0  0
    4.9302   71.6307   69.5811 H   0  0  0  0  0  0  0  0  0  0  0  0
    5.2696   69.8337   69.4551 H   0  0  0  0  0  0  0  0  0  0  0  0
    4.5231   71.7787   67.2581 H   0  0  0  0  0  0  0  0  0  0  0  0
    5.9754   70.7166   67.4096 H   0  0  0  0  0  0  0  0  0  0  0  0
    1.2424   66.5286   64.6628 H   0  0  0  0  0  0  0  0  0  0  0  0
    2.5661   65.4246   62.8691 H   0  0  0  0  0  0  0  0  0  0  0  0
    4.9589   66.0460   62.5393 H   0  0  0  0  0  0  0  0  0  0  0  0
    5.9953   67.7788   63.9818 H   0  0  0  0  0  0  0  0  0  0  0  0
    1.3958   64.4020   69.0333 H   0  0  0  0  0  0  0  0  0  0  0  0
    0.2947   64.6626   72.5155 H   0  0  0  0  0  0  0  0  0  0  0  0
   -0.4415   63.8510   71.0800 H   0  0  0  0  0  0  0  0  0  0  0  0
    2.8471   64.8454   70.4337 H   0  0  0  0  0  0  0  0  0  0  0  0
   -0.5579   62.0751   72.4452 H   0  0  0  0  0  0  0  0  0  0  0  0
   -0.5633   59.7285   73.2912 H   0  0  0  0  0  0  0  0  0  0  0  0
    3.5991   59.3071   72.2288 H   0  0  0  0  0  0  0  0  0  0  0  0
    2.2563   57.5379   73.2587 H   0  0  0  0  0  0  0  0  0  0  0  0
  2  1  2  0
  3  2  1  0
  4  3  1  0
  5  4  1  0
  6  5  2  0
  7  5  1  0
  7  2  1  0
  8  7  1  0
  9  8  1  0
 10  9  1  0
 11 10  1  0
 12 11  1  0
 13 12  1  0
 14 13  1  0
 14  9  2  0
 15 14  1  0
 16 15  2  0
 17 16  1  0
 17  8  2  0
 18 17  1  0
 19 18  2  0
 20 19  1  0
 21 20  2  0
 21 16  1  0
 23 22  2  0
 24 23  1  0
 24  1  1  0
 25 23  1  0
 26 25  1  0
 27 26  2  0
 28 27  1  0
 29 28  2  0
 30 28  1  0
 31 30  1  0
 32 31  2  0
 32 26  1  0
 33 32  1  0
 34 33  2  0
 35 34  1  0
 36 35  2  0
 36 31  1  0
 37 35  1  0
  1 38  1  0
  4 39  1  0
  4 40  1  0
 10 41  1  0
 10 42  1  0
 11 43  1  0
 11 44  1  0
 12 45  1  0
 12 46  1  0
 13 47  1  0
 13 48  1  0
 18 49  1  0
 19 50  1  0
 20 51  1  0
 21 52  1  0
 24 53  1  0
 25 54  1  0
 25 55  1  0
 27 56  1  0
 33 57  1  0
 34 58  1  0
 36 59  1  0
 37 60  1  0
M  CHG  1   1   1
M  END
>  <score>  (3) 
-12.587

$$$$
=
     RDKit          3D

 60 65  0  0  0  0  0  0  0  0999 V2000
    0.6110   67.1280   68.0100 N   0  0  0  0  0  4  0  0  0  0  0  0
    0.0360   67.7450   66.9700 C   0  0  0  0  0  0  0  0  0  0  0  0
   -1.6960   67.7430   66.7200 S   0  0  0  0  0  0  0  0  0  0  0  0
   -1.6020   68.7350   65.1950 C   0  0  0  0  0  0  0  0  0  0  0  0
   -0.1430   69.0730   65.0330 C   0  0  0  0  0  0  0  0  0  0  0  0
    0.3520   69.7520   64.1520 O   0  0  0  0  0  0  0  0  0  0  0  0
    0.6640   68.4850   66.0640 N   0  0  0  0  0  0  0  0  0  0  0  0
    2.0250   68.6200   66.0400 C   0  0  0  0  0  0  0  0  0  0  0  0
    2.6550   69.4720   66.9580 C   0  0  0  0  0  0  0  0  0  0  0  0
    1.9420   70.3500   67.9540 C   0  0  0  0  0  0  0  0  0  0  0  0
    2.6360   70.3250   69.3190 C   0  0  0  0  0  0  0  0  0  0  0  0
    4.1680   70.4100   69.2660 C   0  0  0  0  0  0  0  0  0  0  0  0
    4.7430   70.4990   67.8530 C   0  0  0  0  0  0  0  0  0  0  0  0
    4.0410   69.5380   66.9300 C   0  0  0  0  0  0  0  0  0  0  0  0
    4.7950   68.7940   66.1000 N   0  0  0  0  0  0  0  0  0  0  0  0
    4.2030   67.9860   65.2140 C   0  0  0  0  0  0  0  0  0  0  0  0
    2.8050   67.8540   65.1270 C   0  0  0  0  0  0  0  0  0  0  0  0
    2.2670   66.9880   64.1390 C   0  0  0  0  0  0  0  0  0  0  0  0
    3.0950   66.2590   63.2880 C   0  0  0  0  0  0  0  0  0  0  0  0
    4.4710   66.3860   63.4010 C   0  0  0  0  0  0  0  0  0  0  0  0
    5.0080   67.2480   64.3570 C   0  0  0  0  0  0  0  0  0  0  0  0
    1.8050   65.9600   70.2260 O   0  0  0  0  0  0  0  0  0  0  0  0
    0.6760   65.5530   69.9580 C   0  0  0  0  0  0  0  0  0  0  0  0
   -0.0740   66.0630   68.8990 N   0  0  0  0  0  0  0  0  0  0  0  0
   -0.0400   64.4850   70.7770 C   0  0  0  0  0  0  0  0  0  0  0  0
    0.9310   63.7580   71.6720 C   0  0  0  0  0  0  0  0  0  0  0  0
    0.9060   63.9320   73.0030 C   0  0  0  0  0  0  0  0  0  0  0  0
    1.7890   63.2190   73.9410 C   0  0  0  0  0  0  0  0  0  0  0  0
    1.6720   63.3910   75.1470 O   0  0  0  0  0  0  0  0  0  0  0  0
    2.6970   62.3360   73.3920 O   0  0  0  0  0  0  0  0  0  0  0  0
    2.7870   62.1580   71.9970 C   0  0  0  0  0  0  0  0  0  0  0  0
    1.9440   62.8440   71.1150 C   0  0  0  0  0  0  0  0  0  0  0  0
    2.1250   62.6190   69.7440 C   0  0  0  0  0  0  0  0  0  0  0  0
    3.0970   61.7190   69.2900 C   0  0  0  0  0  0  0  0  0  0  0  0
    3.9050   61.0460   70.1990 C   0  0  0  0  0  0  0  0  0  0  0  0
    3.7630   61.2600   71.5610 C   0  0  0  0  0  0  0  0  0  0  0  0
    4.8310   60.1820   69.7020 O   0  0  0  0  0  0  0  0  0  0  0  0
    1.5835   67.3817   68.2354 H   0  0  0  0  0  0  0  0  0  0  0  0
   -1.9611   68.1529   64.3335 H   0  0  0  0  0  0  0  0  0  0  0  0
   -2.2291   69.6369   65.2519 H   0  0  0  0  0  0  0  0  0  0  0  0
    1.9313   71.3833   67.5769 H   0  0  0  0  0  0  0  0  0  0  0  0
    0.9176   69.9695   68.0797 H   0  0  0  0  0  0  0  0  0  0  0  0
    2.2664   71.1786   69.9061 H   0  0  0  0  0  0  0  0  0  0  0  0
    2.3961   69.3506   69.7696 H   0  0  0  0  0  0  0  0  0  0  0  0
    4.4832   71.3044   69.8234 H   0  0  0  0  0  0  0  0  0  0  0  0
    4.5512   69.4768   69.7045 H   0  0  0  0  0  0  0  0  0  0  0  0
    4.6128   71.5235   67.4742 H   0  0  0  0  0  0  0  0  0  0  0  0
    5.8109   70.2378   67.8891 H   0  0  0  0  0  0  0  0  0  0  0  0
    1.1755   66.8907   64.0435 H   0  0  0  0  0  0  0  0  0  0  0  0
    2.6604   65.5880   62.5324 H   0  0  0  0  0  0  0  0  0  0  0  0
    5.1356   65.8100   62.7403 H   0  0  0  0  0  0  0  0  0  0  0  0
    6.1009   67.3459   64.4341 H   0  0  0  0  0  0  0  0  0  0  0  0
   -1.0371   65.7462   68.7174 H   0  0  0  0  0  0  0  0  0  0  0  0
   -0.8131   64.9632   71.3964 H   0  0  0  0  0  0  0  0  0  0  0  0
   -0.4969   63.7591   70.0883 H   0  0  0  0  0  0  0  0  0  0  0  0
    0.1829   64.6499   73.4174 H   0  0  0  0  0  0  0  0  0  0  0  0
    1.4972   63.1548   69.0168 H   0  0  0  0  0  0  0  0  0  0  0  0
    3.2214   61.5441   68.2111 H   0  0  0  0  0  0  0  0  0  0  0  0
    4.4052   60.7338   72.2826 H   0  0  0  0  0  0  0  0  0  0  0  0
    5.4247   59.6843   70.3184 H   0  0  0  0  0  0  0  0  0  0  0  0
  2  1  2  0
  3  2  1  0
  4  3  1  0
  5  4  1  0
  6  5  2  0
  7  5  1  0
  7  2  1  0
  8  7  1  0
  9  8  1  0
 10  9  1  0
 11 10  1  0
 12 11  1  0
 13 12  1  0
 14 13  1  0
 14  9  2  0
 15 14  1  0
 16 15  2  0
 17 16  1  0
 17  8  2  0
 18 17  1  0
 19 18  2  0
 20 19  1  0
 21 20  2  0
 21 16  1  0
 23 22  2  0
 24 23  1  0
 24  1  1  0
 25 23  1  0
 26 25  1  0
 27 26  2  0
 28 27  1  0
 29 28  2  0
 30 28  1  0
 31 30  1  0
 32 31  2  0
 32 26  1  0
 33 32  1  0
 34 33  2  0
 35 34  1  0
 36 35  2  0
 36 31  1  0
 37 35  1  0
  1 38  1  0
  4 39  1  0
  4 40  1  0
 10 41  1  0
 10 42  1  0
 11 43  1  0
 11 44  1  0
 12 45  1  0
 12 46  1  0
 13 47  1  0
 13 48  1  0
 18 49  1  0
 19 50  1  0
 20 51  1  0
 21 52  1  0
 24 53  1  0
 25 54  1  0
 25 55  1  0
 27 56  1  0
 33 57  1  0
 34 58  1  0
 36 59  1  0
 37 60  1  0
M  CHG  1   1   1
M  END
>  <score>  (4) 
-11.711

$$$$
=
     RDKit          3D

 60 65  0  0  0  0  0  0  0  0999 V2000
   -2.1940   63.3520   75.7410 N   0  0  0  0  0  4  0  0  0  0  0  0
   -2.6570   63.1990   76.9880 C   0  0  0  0  0  0  0  0  0  0  0  0
   -1.6570   63.4680   78.3990 S   0  0  0  0  0  0  0  0  0  0  0  0
   -2.9900   63.0640   79.5740 C   0  0  0  0  0  0  0  0  0  0  0  0
   -4.2050   62.8080   78.7200 C   0  0  0  0  0  0  0  0  0  0  0  0
   -5.3240   62.5350   79.1140 O   0  0  0  0  0  0  0  0  0  0  0  0
   -3.9110   62.9160   77.3200 N   0  0  0  0  0  0  0  0  0  0  0  0
   -4.8740   62.6440   76.3880 C   0  0  0  0  0  0  0  0  0  0  0  0
   -5.6810   63.6810   75.8980 C   0  0  0  0  0  0  0  0  0  0  0  0
   -5.6400   65.1090   76.3780 C   0  0  0  0  0  0  0  0  0  0  0  0
   -5.7310   66.0940   75.2090 C   0  0  0  0  0  0  0  0  0  0  0  0
   -6.7730   65.7340   74.1410 C   0  0  0  0  0  0  0  0  0  0  0  0
   -7.5400   64.4430   74.4220 C   0  0  0  0  0  0  0  0  0  0  0  0
   -6.6100   63.3660   74.9160 C   0  0  0  0  0  0  0  0  0  0  0  0
   -6.7350   62.1340   74.3910 N   0  0  0  0  0  0  0  0  0  0  0  0
   -5.9780   61.1350   74.8590 C   0  0  0  0  0  0  0  0  0  0  0  0
   -5.0200   61.3230   75.8720 C   0  0  0  0  0  0  0  0  0  0  0  0
   -4.2790   60.1990   76.3190 C   0  0  0  0  0  0  0  0  0  0  0  0
   -4.4670   58.9380   75.7570 C   0  0  0  0  0  0  0  0  0  0  0  0
   -5.4020   58.7750   74.7460 C   0  0  0  0  0  0  0  0  0  0  0  0
   -6.1460   59.8710   74.3120 C   0  0  0  0  0  0  0  0  0  0  0  0
   -1.0980   62.0240   73.5650 O   0  0  0  0  0  0  0  0  0  0  0  0
   -0.3020   62.6660   74.2470 C   0  0  0  0  0  0  0  0  0  0  0  0
   -0.6980   63.4190   75.3520 N   0  0  0  0  0  0  0  0  0  0  0  0
    1.1870   62.7480   73.9350 C   0  0  0  0  0  0  0  0  0  0  0  0
    1.4130   62.9300   72.4550 C   0  0  0  0  0  0  0  0  0  0  0  0
    1.0320   64.0570   71.8330 C   0  0  0  0  0  0  0  0  0  0  0  0
    1.2660   64.3250   70.4030 C   0  0  0  0  0  0  0  0  0  0  0  0
    0.9360   65.3990   69.9180 O   0  0  0  0  0  0  0  0  0  0  0  0
    1.9010   63.3350   69.6810 O   0  0  0  0  0  0  0  0  0  0  0  0
    2.2760   62.1190   70.2850 C   0  0  0  0  0  0  0  0  0  0  0  0
    2.0460   61.8750   71.6450 C   0  0  0  0  0  0  0  0  0  0  0  0
    2.4330   60.6270   72.1500 C   0  0  0  0  0  0  0  0  0  0  0  0
    3.0490   59.6800   71.3210 C   0  0  0  0  0  0  0  0  0  0  0  0
    3.2720   59.9660   69.9800 C   0  0  0  0  0  0  0  0  0  0  0  0
    2.8850   61.1850   69.4450 C   0  0  0  0  0  0  0  0  0  0  0  0
    3.8760   59.0110   69.2220 O   0  0  0  0  0  0  0  0  0  0  0  0
   -2.8866   63.4311   74.9828 H   0  0  0  0  0  0  0  0  0  0  0  0
   -2.7321   62.1673   80.1566 H   0  0  0  0  0  0  0  0  0  0  0  0
   -3.1596   63.8746   80.2980 H   0  0  0  0  0  0  0  0  0  0  0  0
   -6.4865   65.2822   77.0587 H   0  0  0  0  0  0  0  0  0  0  0  0
   -4.6832   65.2731   76.8954 H   0  0  0  0  0  0  0  0  0  0  0  0
   -5.9859   67.0840   75.6152 H   0  0  0  0  0  0  0  0  0  0  0  0
   -4.7526   66.0685   74.7068 H   0  0  0  0  0  0  0  0  0  0  0  0
   -7.4983   66.5584   74.0754 H   0  0  0  0  0  0  0  0  0  0  0  0
   -6.2210   65.5750   73.2029 H   0  0  0  0  0  0  0  0  0  0  0  0
   -8.3056   64.6376   75.1875 H   0  0  0  0  0  0  0  0  0  0  0  0
   -8.0108   64.1018   73.4882 H   0  0  0  0  0  0  0  0  0  0  0  0
   -3.5414   60.3254   77.1252 H   0  0  0  0  0  0  0  0  0  0  0  0
   -3.8787   58.0791   76.1123 H   0  0  0  0  0  0  0  0  0  0  0  0
   -5.5557   57.7863   74.2890 H   0  0  0  0  0  0  0  0  0  0  0  0
   -6.8881   59.7296   73.5124 H   0  0  0  0  0  0  0  0  0  0  0  0
   -0.0271   63.9920   75.8834 H   0  0  0  0  0  0  0  0  0  0  0  0
    1.6223   63.6022   74.4744 H   0  0  0  0  0  0  0  0  0  0  0  0
    1.6668   61.8107   74.2531 H   0  0  0  0  0  0  0  0  0  0  0  0
    0.5146   64.8257   72.4258 H   0  0  0  0  0  0  0  0  0  0  0  0
    2.2515   60.3879   73.2082 H   0  0  0  0  0  0  0  0  0  0  0  0
    3.3568   58.7077   71.7331 H   0  0  0  0  0  0  0  0  0  0  0  0
    3.0541   61.4113   68.3819 H   0  0  0  0  0  0  0  0  0  0  0  0
    4.0515   59.1786   68.2622 H   0  0  0  0  0  0  0  0  0  0  0  0
  2  1  2  0
  3  2  1  0
  4  3  1  0
  5  4  1  0
  6  5  2  0
  7  5  1  0
  7  2  1  0
  8  7  1  0
  9  8  1  0
 10  9  1  0
 11 10  1  0
 12 11  1  0
 13 12  1  0
 14 13  1  0
 14  9  2  0
 15 14  1  0
 16 15  2  0
 17 16  1  0
 17  8  2  0
 18 17  1  0
 19 18  2  0
 20 19  1  0
 21 20  2  0
 21 16  1  0
 23 22  2  0
 24 23  1  0
 24  1  1  0
 25 23  1  0
 26 25  1  0
 27 26  2  0
 28 27  1  0
 29 28  2  0
 30 28  1  0
 31 30  1  0
 32 31  2  0
 32 26  1  0
 33 32  1  0
 34 33  2  0
 35 34  1  0
 36 35  2  0
 36 31  1  0
 37 35  1  0
  1 38  1  0
  4 39  1  0
  4 40  1  0
 10 41  1  0
 10 42  1  0
 11 43  1  0
 11 44  1  0
 12 45  1  0
 12 46  1  0
 13 47  1  0
 13 48  1  0
 18 49  1  0
 19 50  1  0
 20 51  1  0
 21 52  1  0
 24 53  1  0
 25 54  1  0
 25 55  1  0
 27 56  1  0
 33 57  1  0
 34 58  1  0
 36 59  1  0
 37 60  1  0
M  CHG  1   1   1
M  END
>  <score>  (5) 
-10.95

$$$$
=
     RDKit          3D

 60 65  0  0  0  0  0  0  0  0999 V2000
   -3.7070   61.6770   74.5380 N   0  0  0  0  0  4  0  0  0  0  0  0
   -4.5010   61.0830   75.4370 C   0  0  0  0  0  0  0  0  0  0  0  0
   -4.1480   59.5030   76.1020 S   0  0  0  0  0  0  0  0  0  0  0  0
   -5.6340   59.4780   77.1560 C   0  0  0  0  0  0  0  0  0  0  0  0
   -6.2900   60.8180   76.9470 C   0  0  0  0  0  0  0  0  0  0  0  0
   -7.2990   61.2250   77.4920 O   0  0  0  0  0  0  0  0  0  0  0  0
   -5.5810   61.6200   75.9910 N   0  0  0  0  0  0  0  0  0  0  0  0
   -6.0690   62.8420   75.6160 C   0  0  0  0  0  0  0  0  0  0  0  0
   -5.5530   64.0060   76.2030 C   0  0  0  0  0  0  0  0  0  0  0  0
   -4.5300   64.0370   77.3090 C   0  0  0  0  0  0  0  0  0  0  0  0
   -3.4800   65.1260   77.0690 C   0  0  0  0  0  0  0  0  0  0  0  0
   -4.0420   66.4700   76.5850 C   0  0  0  0  0  0  0  0  0  0  0  0
   -5.5610   66.4900   76.4160 C   0  0  0  0  0  0  0  0  0  0  0  0
   -6.0420   65.2260   75.7550 C   0  0  0  0  0  0  0  0  0  0  0  0
   -6.9440   65.3350   74.7630 N   0  0  0  0  0  0  0  0  0  0  0  0
   -7.4500   64.2300   74.2040 C   0  0  0  0  0  0  0  0  0  0  0  0
   -7.0550   62.9370   74.5920 C   0  0  0  0  0  0  0  0  0  0  0  0
   -7.6640   61.8240   73.9560 C   0  0  0  0  0  0  0  0  0  0  0  0
   -8.6130   61.9960   72.9510 C   0  0  0  0  0  0  0  0  0  0  0  0
   -8.9770   63.2770   72.5680 C   0  0  0  0  0  0  0  0  0  0  0  0
   -8.3960   64.3770   73.1990 C   0  0  0  0  0  0  0  0  0  0  0  0
   -1.0480   62.4700   74.4570 O   0  0  0  0  0  0  0  0  0  0  0  0
   -1.3330   61.5040   73.7510 C   0  0  0  0  0  0  0  0  0  0  0  0
   -2.6160   60.9590   73.7080 N   0  0  0  0  0  0  0  0  0  0  0  0
   -0.3110   60.7740   72.8880 C   0  0  0  0  0  0  0  0  0  0  0  0
    0.5710   61.7550   72.1590 C   0  0  0  0  0  0  0  0  0  0  0  0
    0.0950   62.9440   71.7570 C   0  0  0  0  0  0  0  0  0  0  0  0
    0.9110   63.9710   71.0850 C   0  0  0  0  0  0  0  0  0  0  0  0
    0.4190   65.0530   70.7950 O   0  0  0  0  0  0  0  0  0  0  0  0
    2.2350   63.6590   70.8530 O   0  0  0  0  0  0  0  0  0  0  0  0
    2.7630   62.4050   71.2180 C   0  0  0  0  0  0  0  0  0  0  0  0
    1.9770   61.4360   71.8530 C   0  0  0  0  0  0  0  0  0  0  0  0
    2.5840   60.2100   72.1550 C   0  0  0  0  0  0  0  0  0  0  0  0
    3.9330   59.9860   71.8520 C   0  0  0  0  0  0  0  0  0  0  0  0
    4.6830   60.9790   71.2330 C   0  0  0  0  0  0  0  0  0  0  0  0
    4.1080   62.1960   70.9050 C   0  0  0  0  0  0  0  0  0  0  0  0
    5.9890   60.7080   70.9640 O   0  0  0  0  0  0  0  0  0  0  0  0
   -3.8315   62.6883   74.3873 H   0  0  0  0  0  0  0  0  0  0  0  0
   -6.3100   58.6659   76.8503 H   0  0  0  0  0  0  0  0  0  0  0  0
   -5.3850   59.3029   78.2130 H   0  0  0  0  0  0  0  0  0  0  0  0
   -5.0403   64.2359   78.2630 H   0  0  0  0  0  0  0  0  0  0  0  0
   -4.0190   63.0633   77.3352 H   0  0  0  0  0  0  0  0  0  0  0  0
   -2.9455   65.2997   78.0146 H   0  0  0  0  0  0  0  0  0  0  0  0
   -2.8296   64.7553   76.2631 H   0  0  0  0  0  0  0  0  0  0  0  0
   -3.7663   67.2430   77.3174 H   0  0  0  0  0  0  0  0  0  0  0  0
   -3.6109   66.6526   75.5896 H   0  0  0  0  0  0  0  0  0  0  0  0
   -6.0328   66.5816   77.4055 H   0  0  0  0  0  0  0  0  0  0  0  0
   -5.8339   67.3458   75.7810 H   0  0  0  0  0  0  0  0  0  0  0  0
   -7.3812   60.8061   74.2625 H   0  0  0  0  0  0  0  0  0  0  0  0
   -9.0701   61.1214   72.4650 H   0  0  0  0  0  0  0  0  0  0  0  0
   -9.7201   63.4256   71.7707 H   0  0  0  0  0  0  0  0  0  0  0  0
   -8.6960   65.3896   72.8914 H   0  0  0  0  0  0  0  0  0  0  0  0
   -2.8272   60.1190   73.1506 H   0  0  0  0  0  0  0  0  0  0  0  0
    0.3134   60.1357   73.5304 H   0  0  0  0  0  0  0  0  0  0  0  0
   -0.8471   60.1630   72.1469 H   0  0  0  0  0  0  0  0  0  0  0  0
   -0.9669   63.1649   71.9400 H   0  0  0  0  0  0  0  0  0  0  0  0
    1.9949   59.4148   72.6352 H   0  0  0  0  0  0  0  0  0  0  0  0
    4.3997   59.0224   72.1044 H   0  0  0  0  0  0  0  0  0  0  0  0
    4.6980   62.9807   70.4088 H   0  0  0  0  0  0  0  0  0  0  0  0
    6.5556   61.3902   70.5239 H   0  0  0  0  0  0  0  0  0  0  0  0
  2  1  2  0
  3  2  1  0
  4  3  1  0
  5  4  1  0
  6  5  2  0
  7  5  1  0
  7  2  1  0
  8  7  1  0
  9  8  1  0
 10  9  1  0
 11 10  1  0
 12 11  1  0
 13 12  1  0
 14 13  1  0
 14  9  2  0
 15 14  1  0
 16 15  2  0
 17 16  1  0
 17  8  2  0
 18 17  1  0
 19 18  2  0
 20 19  1  0
 21 20  2  0
 21 16  1  0
 23 22  2  0
 24 23  1  0
 24  1  1  0
 25 23  1  0
 26 25  1  0
 27 26  2  0
 28 27  1  0
 29 28  2  0
 30 28  1  0
 31 30  1  0
 32 31  2  0
 32 26  1  0
 33 32  1  0
 34 33  2  0
 35 34  1  0
 36 35  2  0
 36 31  1  0
 37 35  1  0
  1 38  1  0
  4 39  1  0
  4 40  1  0
 10 41  1  0
 10 42  1  0
 11 43  1  0
 11 44  1  0
 12 45  1  0
 12 46  1  0
 13 47  1  0
 13 48  1  0
 18 49  1  0
 19 50  1  0
 20 51  1  0
 21 52  1  0
 24 53  1  0
 25 54  1  0
 25 55  1  0
 27 56  1  0
 33 57  1  0
 34 58  1  0
 36 59  1  0
 37 60  1  0
M  CHG  1   1   1
M  END
>  <score>  (6) 
-10.833

$$$$
=
     RDKit          3D

 60 65  0  0  0  0  0  0  0  0999 V2000
   -2.8000   62.6860   75.3870 N   0  0  0  0  0  4  0  0  0  0  0  0
   -3.3320   62.3580   76.5710 C   0  0  0  0  0  0  0  0  0  0  0  0
   -2.4580   62.5490   78.0750 S   0  0  0  0  0  0  0  0  0  0  0  0
   -3.8260   61.9090   79.0940 C   0  0  0  0  0  0  0  0  0  0  0  0
   -4.9520   61.6500   78.1270 C   0  0  0  0  0  0  0  0  0  0  0  0
   -6.0660   61.2440   78.4020 O   0  0  0  0  0  0  0  0  0  0  0  0
   -4.5740   61.9380   76.7730 N   0  0  0  0  0  0  0  0  0  0  0  0
   -5.4430   61.6920   75.7450 C   0  0  0  0  0  0  0  0  0  0  0  0
   -5.4790   60.4220   75.1540 C   0  0  0  0  0  0  0  0  0  0  0  0
   -4.5600   59.2790   75.5020 C   0  0  0  0  0  0  0  0  0  0  0  0
   -5.3220   57.9520   75.5780 C   0  0  0  0  0  0  0  0  0  0  0  0
   -6.3400   57.7270   74.4520 C   0  0  0  0  0  0  0  0  0  0  0  0
   -6.4270   58.8720   73.4460 C   0  0  0  0  0  0  0  0  0  0  0  0
   -6.4120   60.2040   74.1490 C   0  0  0  0  0  0  0  0  0  0  0  0
   -7.3010   61.1360   73.7580 N   0  0  0  0  0  0  0  0  0  0  0  0
   -7.2670   62.3540   74.3080 C   0  0  0  0  0  0  0  0  0  0  0  0
   -6.3490   62.7040   75.3150 C   0  0  0  0  0  0  0  0  0  0  0  0
   -6.3750   64.0290   75.8230 C   0  0  0  0  0  0  0  0  0  0  0  0
   -7.3010   64.9630   75.3620 C   0  0  0  0  0  0  0  0  0  0  0  0
   -8.2110   64.5950   74.3830 C   0  0  0  0  0  0  0  0  0  0  0  0
   -8.1810   63.3000   73.8660 C   0  0  0  0  0  0  0  0  0  0  0  0
   -1.3150   61.2690   73.5190 O   0  0  0  0  0  0  0  0  0  0  0  0
   -0.6870   62.1000   74.1730 C   0  0  0  0  0  0  0  0  0  0  0  0
   -1.2930   62.9190   75.1250 N   0  0  0  0  0  0  0  0  0  0  0  0
    0.8030   62.3550   73.9830 C   0  0  0  0  0  0  0  0  0  0  0  0
    1.1160   62.6400   72.5370 C   0  0  0  0  0  0  0  0  0  0  0  0
    0.7220   63.7860   71.9580 C   0  0  0  0  0  0  0  0  0  0  0  0
    1.0350   64.1530   70.5660 C   0  0  0  0  0  0  0  0  0  0  0  0
    0.6860   65.2400   70.1250 O   0  0  0  0  0  0  0  0  0  0  0  0
    1.7640   63.2410   69.8310 O   0  0  0  0  0  0  0  0  0  0  0  0
    2.1580   62.0080   70.3860 C   0  0  0  0  0  0  0  0  0  0  0  0
    1.8520   61.6680   71.7100 C   0  0  0  0  0  0  0  0  0  0  0  0
    2.2660   60.4090   72.1640 C   0  0  0  0  0  0  0  0  0  0  0  0
    2.9810   59.5450   71.3240 C   0  0  0  0  0  0  0  0  0  0  0  0
    3.2760   59.9250   70.0210 C   0  0  0  0  0  0  0  0  0  0  0  0
    2.8670   61.1560   69.5350 C   0  0  0  0  0  0  0  0  0  0  0  0
    3.9750   59.0470   69.2500 O   0  0  0  0  0  0  0  0  0  0  0  0
   -3.4432   62.7913   74.5894 H   0  0  0  0  0  0  0  0  0  0  0  0
   -3.5285   60.9776   79.5979 H   0  0  0  0  0  0  0  0  0  0  0  0
   -4.1170   62.6179   79.8832 H   0  0  0  0  0  0  0  0  0  0  0  0
   -3.7795   59.1998   74.7309 H   0  0  0  0  0  0  0  0  0  0  0  0
   -4.1157   59.4800   76.4880 H   0  0  0  0  0  0  0  0  0  0  0  0
   -4.5877   57.1337   75.5435 H   0  0  0  0  0  0  0  0  0  0  0  0
   -5.8984   57.9801   76.5144 H   0  0  0  0  0  0  0  0  0  0  0  0
   -6.0574   56.8126   73.9097 H   0  0  0  0  0  0  0  0  0  0  0  0
   -7.3277   57.6522   74.9305 H   0  0  0  0  0  0  0  0  0  0  0  0
   -5.5682   58.8161   72.7609 H   0  0  0  0  0  0  0  0  0  0  0  0
   -7.3697   58.7791   72.8868 H   0  0  0  0  0  0  0  0  0  0  0  0
   -5.6501   64.3245   76.5957 H   0  0  0  0  0  0  0  0  0  0  0  0
   -7.3098   65.9839   75.7716 H   0  0  0  0  0  0  0  0  0  0  0  0
   -8.9524   65.3201   74.0161 H   0  0  0  0  0  0  0  0  0  0  0  0
   -8.9032   63.0203   73.0848 H   0  0  0  0  0  0  0  0  0  0  0  0
   -0.7631   63.6440   75.6294 H   0  0  0  0  0  0  0  0  0  0  0  0
    1.1019   63.2195   74.5940 H   0  0  0  0  0  0  0  0  0  0  0  0
    1.3572   61.4571   74.2938 H   0  0  0  0  0  0  0  0  0  0  0  0
    0.1305   64.4925   72.5588 H   0  0  0  0  0  0  0  0  0  0  0  0
    2.0272   60.0954   73.1909 H   0  0  0  0  0  0  0  0  0  0  0  0
    3.3094   58.5637   71.6972 H   0  0  0  0  0  0  0  0  0  0  0  0
    3.0953   61.4563   68.5017 H   0  0  0  0  0  0  0  0  0  0  0  0
    4.2042   59.2820   68.3160 H   0  0  0  0  0  0  0  0  0  0  0  0
  2  1  2  0
  3  2  1  0
  4  3  1  0
  5  4  1  0
  6  5  2  0
  7  5  1  0
  7  2  1  0
  8  7  1  0
  9  8  1  0
 10  9  1  0
 11 10  1  0
 12 11  1  0
 13 12  1  0
 14 13  1  0
 14  9  2  0
 15 14  1  0
 16 15  2  0
 17 16  1  0
 17  8  2  0
 18 17  1  0
 19 18  2  0
 20 19  1  0
 21 20  2  0
 21 16  1  0
 23 22  2  0
 24 23  1  0
 24  1  1  0
 25 23  1  0
 26 25  1  0
 27 26  2  0
 28 27  1  0
 29 28  2  0
 30 28  1  0
 31 30  1  0
 32 31  2  0
 32 26  1  0
 33 32  1  0
 34 33  2  0
 35 34  1  0
 36 35  2  0
 36 31  1  0
 37 35  1  0
  1 38  1  0
  4 39  1  0
  4 40  1  0
 10 41  1  0
 10 42  1  0
 11 43  1  0
 11 44  1  0
 12 45  1  0
 12 46  1  0
 13 47  1  0
 13 48  1  0
 18 49  1  0
 19 50  1  0
 20 51  1  0
 21 52  1  0
 24 53  1  0
 25 54  1  0
 25 55  1  0
 27 56  1  0
 33 57  1  0
 34 58  1  0
 36 59  1  0
 37 60  1  0
M  CHG  1   1   1
M  END
>  <score>  (7) 
-10.813

$$$$
=
     RDKit          3D

 60 65  0  0  0  0  0  0  0  0999 V2000
    1.5610   66.4580   68.7300 N   0  0  0  0  0  4  0  0  0  0  0  0
    0.6160   67.0590   67.9960 C   0  0  0  0  0  0  0  0  0  0  0  0
   -1.0920   66.8570   68.3200 S   0  0  0  0  0  0  0  0  0  0  0  0
   -1.6060   67.9420   66.9490 C   0  0  0  0  0  0  0  0  0  0  0  0
   -0.3230   68.4660   66.3580 C   0  0  0  0  0  0  0  0  0  0  0  0
   -0.2170   69.2530   65.4350 O   0  0  0  0  0  0  0  0  0  0  0  0
    0.8330   67.9230   67.0130 N   0  0  0  0  0  0  0  0  0  0  0  0
    2.0890   68.2270   66.5640 C   0  0  0  0  0  0  0  0  0  0  0  0
    2.8120   69.2630   67.1710 C   0  0  0  0  0  0  0  0  0  0  0  0
    2.2860   70.1620   68.2600 C   0  0  0  0  0  0  0  0  0  0  0  0
    3.3400   70.4010   69.3460 C   0  0  0  0  0  0  0  0  0  0  0  0
    4.7570   70.6740   68.8220 C   0  0  0  0  0  0  0  0  0  0  0  0
    4.8780   70.6540   67.2990 C   0  0  0  0  0  0  0  0  0  0  0  0
    4.1020   69.5020   66.7170 C   0  0  0  0  0  0  0  0  0  0  0  0
    4.6930   68.7600   65.7620 N   0  0  0  0  0  0  0  0  0  0  0  0
    4.0080   67.7760   65.1700 C   0  0  0  0  0  0  0  0  0  0  0  0
    2.6840   67.4570   65.5230 C   0  0  0  0  0  0  0  0  0  0  0  0
    2.0300   66.4100   64.8230 C   0  0  0  0  0  0  0  0  0  0  0  0
    2.6830   65.6910   63.8240 C   0  0  0  0  0  0  0  0  0  0  0  0
    3.9940   66.0060   63.5010 C   0  0  0  0  0  0  0  0  0  0  0  0
    4.6380   67.0440   64.1730 C   0  0  0  0  0  0  0  0  0  0  0  0
    3.0800   64.1350   68.7300 O   0  0  0  0  0  0  0  0  0  0  0  0
    2.1510   64.1590   69.5350 C   0  0  0  0  0  0  0  0  0  0  0  0
    1.3170   65.2660   69.6860 N   0  0  0  0  0  0  0  0  0  0  0  0
    1.8400   63.0060   70.4820 C   0  0  0  0  0  0  0  0  0  0  0  0
    1.2380   63.5160   71.7660 C   0  0  0  0  0  0  0  0  0  0  0  0
    0.5070   64.6420   71.7870 C   0  0  0  0  0  0  0  0  0  0  0  0
   -0.1520   65.1720   72.9920 C   0  0  0  0  0  0  0  0  0  0  0  0
   -0.8460   66.1770   72.9210 O   0  0  0  0  0  0  0  0  0  0  0  0
    0.0230   64.4590   74.1610 O   0  0  0  0  0  0  0  0  0  0  0  0
    0.8200   63.2980   74.1930 C   0  0  0  0  0  0  0  0  0  0  0  0
    1.4440   62.8050   73.0410 C   0  0  0  0  0  0  0  0  0  0  0  0
    2.2360   61.6580   73.1770 C   0  0  0  0  0  0  0  0  0  0  0  0
    2.3680   61.0240   74.4190 C   0  0  0  0  0  0  0  0  0  0  0  0
    1.7210   61.5370   75.5370 C   0  0  0  0  0  0  0  0  0  0  0  0
    0.9440   62.6800   75.4400 C   0  0  0  0  0  0  0  0  0  0  0  0
    1.8830   60.8790   76.7170 O   0  0  0  0  0  0  0  0  0  0  0  0
    2.5235   66.8164   68.6523 H   0  0  0  0  0  0  0  0  0  0  0  0
   -2.1724   67.3722   66.1977 H   0  0  0  0  0  0  0  0  0  0  0  0
   -2.2629   68.7549   67.2920 H   0  0  0  0  0  0  0  0  0  0  0  0
    2.0007   71.1287   67.8193 H   0  0  0  0  0  0  0  0  0  0  0  0
    1.4168   69.6722   68.7233 H   0  0  0  0  0  0  0  0  0  0  0  0
    3.0238   71.2683   69.9442 H   0  0  0  0  0  0  0  0  0  0  0  0
    3.4002   69.4695   69.9280 H   0  0  0  0  0  0  0  0  0  0  0  0
    5.0717   71.6655   69.1798 H   0  0  0  0  0  0  0  0  0  0  0  0
    5.3949   69.8614   69.1997 H   0  0  0  0  0  0  0  0  0  0  0  0
    4.4828   71.5969   66.8932 H   0  0  0  0  0  0  0  0  0  0  0  0
    5.9383   70.5369   67.0306 H   0  0  0  0  0  0  0  0  0  0  0  0
    0.9882   66.1615   65.0738 H   0  0  0  0  0  0  0  0  0  0  0  0
    2.1621   64.8792   63.2953 H   0  0  0  0  0  0  0  0  0  0  0  0
    4.5227   65.4405   62.7195 H   0  0  0  0  0  0  0  0  0  0  0  0
    5.6761   67.2902   63.9052 H   0  0  0  0  0  0  0  0  0  0  0  0
    0.5744   65.2892   70.3994 H   0  0  0  0  0  0  0  0  0  0  0  0
    1.1281   62.3224   69.9964 H   0  0  0  0  0  0  0  0  0  0  0  0
    2.7770   62.4795   70.7164 H   0  0  0  0  0  0  0  0  0  0  0  0
    0.3937   65.2023   70.8472 H   0  0  0  0  0  0  0  0  0  0  0  0
    2.7597   61.2509   72.2995 H   0  0  0  0  0  0  0  0  0  0  0  0
    2.9852   60.1180   74.5097 H   0  0  0  0  0  0  0  0  0  0  0  0
    0.4362   63.0916   76.3247 H   0  0  0  0  0  0  0  0  0  0  0  0
    1.4381   61.2138   77.5356 H   0  0  0  0  0  0  0  0  0  0  0  0
  2  1  2  0
  3  2  1  0
  4  3  1  0
  5  4  1  0
  6  5  2  0
  7  5  1  0
  7  2  1  0
  8  7  1  0
  9  8  1  0
 10  9  1  0
 11 10  1  0
 12 11  1  0
 13 12  1  0
 14 13  1  0
 14  9  2  0
 15 14  1  0
 16 15  2  0
 17 16  1  0
 17  8  2  0
 18 17  1  0
 19 18  2  0
 20 19  1  0
 21 20  2  0
 21 16  1  0
 23 22  2  0
 24 23  1  0
 24  1  1  0
 25 23  1  0
 26 25  1  0
 27 26  2  0
 28 27  1  0
 29 28  2  0
 30 28  1  0
 31 30  1  0
 32 31  2  0
 32 26  1  0
 33 32  1  0
 34 33  2  0
 35 34  1  0
 36 35  2  0
 36 31  1  0
 37 35  1  0
  1 38  1  0
  4 39  1  0
  4 40  1  0
 10 41  1  0
 10 42  1  0
 11 43  1  0
 11 44  1  0
 12 45  1  0
 12 46  1  0
 13 47  1  0
 13 48  1  0
 18 49  1  0
 19 50  1  0
 20 51  1  0
 21 52  1  0
 24 53  1  0
 25 54  1  0
 25 55  1  0
 27 56  1  0
 33 57  1  0
 34 58  1  0
 36 59  1  0
 37 60  1  0
M  CHG  1   1   1
M  END
>  <score>  (8) 
-10.596

$$$$
=
     RDKit          3D

 60 65  0  0  0  0  0  0  0  0999 V2000
   -1.6390   60.9740   74.1490 N   0  0  0  0  0  4  0  0  0  0  0  0
   -1.1290   61.9910   74.8540 C   0  0  0  0  0  0  0  0  0  0  0  0
   -2.0210   62.7860   76.1320 S   0  0  0  0  0  0  0  0  0  0  0  0
   -0.6750   63.9540   76.5140 C   0  0  0  0  0  0  0  0  0  0  0  0
    0.4610   63.5570   75.6080 C   0  0  0  0  0  0  0  0  0  0  0  0
    1.5660   64.0650   75.5640 O   0  0  0  0  0  0  0  0  0  0  0  0
    0.1060   62.4660   74.7450 N   0  0  0  0  0  0  0  0  0  0  0  0
    0.9860   62.0160   73.8000 C   0  0  0  0  0  0  0  0  0  0  0  0
    1.0050   62.6090   72.5300 C   0  0  0  0  0  0  0  0  0  0  0  0
    0.0570   63.6830   72.0620 C   0  0  0  0  0  0  0  0  0  0  0  0
    0.7890   64.7680   71.2660 C   0  0  0  0  0  0  0  0  0  0  0  0
    1.8210   64.2430   70.2580 C   0  0  0  0  0  0  0  0  0  0  0  0
    1.9480   62.7210   70.2240 C   0  0  0  0  0  0  0  0  0  0  0  0
    1.9500   62.1550   71.6200 C   0  0  0  0  0  0  0  0  0  0  0  0
    2.8640   61.2130   71.9190 N   0  0  0  0  0  0  0  0  0  0  0  0
    2.8470   60.6340   73.1240 C   0  0  0  0  0  0  0  0  0  0  0  0
    1.9200   60.9890   74.1210 C   0  0  0  0  0  0  0  0  0  0  0  0
    1.9660   60.3030   75.3630 C   0  0  0  0  0  0  0  0  0  0  0  0
    2.9190   59.3170   75.6090 C   0  0  0  0  0  0  0  0  0  0  0  0
    3.8370   58.9930   74.6220 C   0  0  0  0  0  0  0  0  0  0  0  0
    3.7890   59.6510   73.3930 C   0  0  0  0  0  0  0  0  0  0  0  0
   -2.7790   58.9060   75.6080 O   0  0  0  0  0  0  0  0  0  0  0  0
   -3.5460   59.5120   74.8620 C   0  0  0  0  0  0  0  0  0  0  0  0
   -3.1390   60.5990   74.0900 N   0  0  0  0  0  0  0  0  0  0  0  0
   -5.0270   59.1730   74.7370 C   0  0  0  0  0  0  0  0  0  0  0  0
   -5.8750   60.2340   75.3910 C   0  0  0  0  0  0  0  0  0  0  0  0
   -5.7490   60.5100   76.6990 C   0  0  0  0  0  0  0  0  0  0  0  0
   -6.5070   61.5650   77.3930 C   0  0  0  0  0  0  0  0  0  0  0  0
   -6.2990   61.7930   78.5770 O   0  0  0  0  0  0  0  0  0  0  0  0
   -7.4050   62.2870   76.6330 O   0  0  0  0  0  0  0  0  0  0  0  0
   -7.6010   61.9990   75.2680 C   0  0  0  0  0  0  0  0  0  0  0  0
   -6.8770   60.9910   74.6200 C   0  0  0  0  0  0  0  0  0  0  0  0
   -7.1590   60.7630   73.2670 C   0  0  0  0  0  0  0  0  0  0  0  0
   -8.1120   61.5390   72.5950 C   0  0  0  0  0  0  0  0  0  0  0  0
   -8.8010   62.5390   73.2710 C   0  0  0  0  0  0  0  0  0  0  0  0
   -8.5580   62.7790   74.6130 C   0  0  0  0  0  0  0  0  0  0  0  0
   -9.7130   63.2630   72.5670 O   0  0  0  0  0  0  0  0  0  0  0  0
   -0.9827   60.3968   73.6040 H   0  0  0  0  0  0  0  0  0  0  0  0
   -0.9905   64.9873   76.3070 H   0  0  0  0  0  0  0  0  0  0  0  0
   -0.3871   63.9169   77.5750 H   0  0  0  0  0  0  0  0  0  0  0  0
   -0.7121   63.2269   71.4214 H   0  0  0  0  0  0  0  0  0  0  0  0
   -0.3987   64.1514   72.9468 H   0  0  0  0  0  0  0  0  0  0  0  0
    0.0382   65.3522   70.7138 H   0  0  0  0  0  0  0  0  0  0  0  0
    1.3500   65.3646   72.0004 H   0  0  0  0  0  0  0  0  0  0  0  0
    1.5287   64.5869   69.2549 H   0  0  0  0  0  0  0  0  0  0  0  0
    2.7989   64.6339   70.5756 H   0  0  0  0  0  0  0  0  0  0  0  0
    1.0991   62.3003   69.6651 H   0  0  0  0  0  0  0  0  0  0  0  0
    2.8966   62.4564   69.7340 H   0  0  0  0  0  0  0  0  0  0  0  0
    1.2354   60.5547   76.1459 H   0  0  0  0  0  0  0  0  0  0  0  0
    2.9429   58.7994   76.5793 H   0  0  0  0  0  0  0  0  0  0  0  0
    4.5989   58.2214   74.8070 H   0  0  0  0  0  0  0  0  0  0  0  0
    4.5187   59.3831   72.6147 H   0  0  0  0  0  0  0  0  0  0  0  0
   -3.8049   61.1272   73.5082 H   0  0  0  0  0  0  0  0  0  0  0  0
   -5.2928   59.1045   73.6718 H   0  0  0  0  0  0  0  0  0  0  0  0
   -5.2130   58.2126   75.2401 H   0  0  0  0  0  0  0  0  0  0  0  0
   -5.0371   59.9125   77.2874 H   0  0  0  0  0  0  0  0  0  0  0  0
   -6.6266   59.9664   72.7267 H   0  0  0  0  0  0  0  0  0  0  0  0
   -8.3156   61.3565   71.5295 H   0  0  0  0  0  0  0  0  0  0  0  0
   -9.1061   63.5661   75.1516 H   0  0  0  0  0  0  0  0  0  0  0  0
  -10.2239   63.9839   73.0135 H   0  0  0  0  0  0  0  0  0  0  0  0
  2  1  2  0
  3  2  1  0
  4  3  1  0
  5  4  1  0
  6  5  2  0
  7  5  1  0
  7  2  1  0
  8  7  1  0
  9  8  1  0
 10  9  1  0
 11 10  1  0
 12 11  1  0
 13 12  1  0
 14 13  1  0
 14  9  2  0
 15 14  1  0
 16 15  2  0
 17 16  1  0
 17  8  2  0
 18 17  1  0
 19 18  2  0
 20 19  1  0
 21 20  2  0
 21 16  1  0
 23 22  2  0
 24 23  1  0
 24  1  1  0
 25 23  1  0
 26 25  1  0
 27 26  2  0
 28 27  1  0
 29 28  2  0
 30 28  1  0
 31 30  1  0
 32 31  2  0
 32 26  1  0
 33 32  1  0
 34 33  2  0
 35 34  1  0
 36 35  2  0
 36 31  1  0
 37 35  1  0
  1 38  1  0
  4 39  1  0
  4 40  1  0
 10 41  1  0
 10 42  1  0
 11 43  1  0
 11 44  1  0
 12 45  1  0
 12 46  1  0
 13 47  1  0
 13 48  1  0
 18 49  1  0
 19 50  1  0
 20 51  1  0
 21 52  1  0
 24 53  1  0
 25 54  1  0
 25 55  1  0
 27 56  1  0
 33 57  1  0
 34 58  1  0
 36 59  1  0
 37 60  1  0
M  CHG  1   1   1
M  END
>  <score>  (9) 
-10.104

$$$$
