=
     RDKit          3D

 16 17  0  0  0  0  0  0  0  0999 V2000
    7.7380   71.1810   69.4980 Cl  0  0  0  0  0  0  0  0  0  0  0  0
    6.3740   70.6570   68.5850 C   0  0  0  0  0  0  0  0  0  0  0  0
    6.5550   70.2630   67.2430 C   0  0  0  0  0  0  0  0  0  0  0  0
    5.4690   69.8330   66.4750 C   0  0  0  0  0  0  0  0  0  0  0  0
    4.2350   69.8180   67.0930 C   0  0  0  0  0  0  0  0  0  0  0  0
    4.0530   70.2070   68.4190 C   0  0  0  0  0  0  0  0  0  0  0  0
    5.1140   70.6330   69.1910 C   0  0  0  0  0  0  0  0  0  0  0  0
    2.7200   70.1000   68.8030 N   0  0  0  0  0  0  0  0  0  0  0  0
    1.9390   69.6360   67.7620 C   0  0  0  0  0  0  0  0  0  0  0  0
    0.7470   69.4300   67.7560 O   0  0  0  0  0  0  0  0  0  0  0  0
    2.9220   69.4280   66.5750 C   0  0  0  0  0  0  0  0  0  0  0  0
    2.6640   69.0320   65.4620 O   0  0  0  0  0  0  0  0  0  0  0  0
    7.5598   70.2943   66.7966 H   0  0  0  0  0  0  0  0  0  0  0  0
    5.5921   69.5212   65.4273 H   0  0  0  0  0  0  0  0  0  0  0  0
    4.9749   70.9405   70.2379 H   0  0  0  0  0  0  0  0  0  0  0  0
    2.3625   70.3356   69.7398 H   0  0  0  0  0  0  0  0  0  0  0  0
  2  1  1  0
  3  2  2  0
  4  3  1  0
  5  4  2  0
  6  5  1  0
  7  6  2  0
  7  2  1  0
  8  6  1  0
  9  8  1  0
 10  9  2  0
 11  9  1  0
 11  5  1  0
 12 11  2  0
  3 13  1  0
  4 14  1  0
  7 15  1  0
  8 16  1  0
M  END
>  <score>  (1) 
-8.041

$$$$
=
     RDKit          3D

 16 17  0  0  0  0  0  0  0  0999 V2000
    7.8540   71.3370   69.5310 Cl  0  0  0  0  0  0  0  0  0  0  0  0
    6.5250   70.7780   68.5890 C   0  0  0  0  0  0  0  0  0  0  0  0
    5.2470   70.7000   69.1800 C   0  0  0  0  0  0  0  0  0  0  0  0
    4.1470   70.2510   68.4430 C   0  0  0  0  0  0  0  0  0  0  0  0
    4.3800   69.8950   67.1290 C   0  0  0  0  0  0  0  0  0  0  0  0
    5.6420   69.9710   66.5430 C   0  0  0  0  0  0  0  0  0  0  0  0
    6.7380   70.4120   67.2550 C   0  0  0  0  0  0  0  0  0  0  0  0
    5.6120   69.5570   65.2140 N   0  0  0  0  0  0  0  0  0  0  0  0
    4.3360   69.1840   64.8390 C   0  0  0  0  0  0  0  0  0  0  0  0
    3.9620   68.7780   63.7630 O   0  0  0  0  0  0  0  0  0  0  0  0
    3.4590   69.3950   66.1060 C   0  0  0  0  0  0  0  0  0  0  0  0
    2.2740   69.1910   66.2280 O   0  0  0  0  0  0  0  0  0  0  0  0
    5.1142   70.9953   70.2313 H   0  0  0  0  0  0  0  0  0  0  0  0
    3.1435   70.1844   68.8886 H   0  0  0  0  0  0  0  0  0  0  0  0
    7.7352   70.4733   66.7948 H   0  0  0  0  0  0  0  0  0  0  0  0
    6.4330   69.5322   64.5925 H   0  0  0  0  0  0  0  0  0  0  0  0
  2  1  1  0
  3  2  2  0
  4  3  1  0
  5  4  2  0
  6  5  1  0
  7  6  2  0
  7  2  1  0
  8  6  1  0
  9  8  1  0
 10  9  2  0
 11  9  1  0
 11  5  1  0
 12 11  2  0
  3 13  1  0
  4 14  1  0
  7 15  1  0
  8 16  1  0
M  END
>  <score>  (2) 
-7.984

$$$$
=
     RDKit          3D

 16 17  0  0  0  0  0  0  0  0999 V2000
    3.7910   68.6830   63.3240 Cl  0  0  0  0  0  0  0  0  0  0  0  0
    4.1090   69.2170   64.9300 C   0  0  0  0  0  0  0  0  0  0  0  0
    3.1000   69.0980   65.9080 C   0  0  0  0  0  0  0  0  0  0  0  0
    3.3270   69.5210   67.2210 C   0  0  0  0  0  0  0  0  0  0  0  0
    4.5710   70.0530   67.4990 C   0  0  0  0  0  0  0  0  0  0  0  0
    5.5690   70.1720   66.5350 C   0  0  0  0  0  0  0  0  0  0  0  0
    5.3630   69.7590   65.2350 C   0  0  0  0  0  0  0  0  0  0  0  0
    6.7250   70.7370   67.0660 N   0  0  0  0  0  0  0  0  0  0  0  0
    6.5660   71.0250   68.4070 C   0  0  0  0  0  0  0  0  0  0  0  0
    7.3680   71.5180   69.1670 O   0  0  0  0  0  0  0  0  0  0  0  0
    5.1160   70.5790   68.7520 C   0  0  0  0  0  0  0  0  0  0  0  0
    4.5560   70.6480   69.8210 O   0  0  0  0  0  0  0  0  0  0  0  0
    2.1249   68.6682   65.6351 H   0  0  0  0  0  0  0  0  0  0  0  0
    2.5514   69.4342   67.9962 H   0  0  0  0  0  0  0  0  0  0  0  0
    6.1496   69.8515   64.4717 H   0  0  0  0  0  0  0  0  0  0  0  0
    7.5856   70.9166   66.5293 H   0  0  0  0  0  0  0  0  0  0  0  0
  2  1  1  0
  3  2  2  0
  4  3  1  0
  5  4  2  0
  6  5  1  0
  7  6  2  0
  7  2  1  0
  8  6  1  0
  9  8  1  0
 10  9  2  0
 11  9  1  0
 11  5  1  0
 12 11  2  0
  3 13  1  0
  4 14  1  0
  7 15  1  0
  8 16  1  0
M  END
>  <score>  (3) 
-7.836

$$$$
=
     RDKit          3D

 16 17  0  0  0  0  0  0  0  0999 V2000
    3.7520   70.2390   69.3080 Cl  0  0  0  0  0  0  0  0  0  0  0  0
    4.0990   69.9320   67.6490 C   0  0  0  0  0  0  0  0  0  0  0  0
    5.4000   70.1760   67.1610 C   0  0  0  0  0  0  0  0  0  0  0  0
    5.7140   69.9370   65.8200 C   0  0  0  0  0  0  0  0  0  0  0  0
    4.6970   69.4590   65.0170 C   0  0  0  0  0  0  0  0  0  0  0  0
    3.4120   69.2180   65.4960 C   0  0  0  0  0  0  0  0  0  0  0  0
    3.0850   69.4470   66.8170 C   0  0  0  0  0  0  0  0  0  0  0  0
    2.5740   68.7410   64.4920 N   0  0  0  0  0  0  0  0  0  0  0  0
    3.2500   68.6360   63.2910 C   0  0  0  0  0  0  0  0  0  0  0  0
    2.8240   68.2590   62.2240 O   0  0  0  0  0  0  0  0  0  0  0  0
    4.6990   69.1130   63.5940 C   0  0  0  0  0  0  0  0  0  0  0  0
    5.6290   69.1860   62.8260 O   0  0  0  0  0  0  0  0  0  0  0  0
    6.1746   70.5579   67.8422 H   0  0  0  0  0  0  0  0  0  0  0  0
    6.7233   70.1209   65.4231 H   0  0  0  0  0  0  0  0  0  0  0  0
    2.0711   69.2564   67.1988 H   0  0  0  0  0  0  0  0  0  0  0  0
    1.5820   68.4985   64.6263 H   0  0  0  0  0  0  0  0  0  0  0  0
  2  1  1  0
  3  2  2  0
  4  3  1  0
  5  4  2  0
  6  5  1  0
  7  6  2  0
  7  2  1  0
  8  6  1  0
  9  8  1  0
 10  9  2  0
 11  9  1  0
 11  5  1  0
 12 11  2  0
  3 13  1  0
  4 14  1  0
  7 15  1  0
  8 16  1  0
M  END
>  <score>  (4) 
-7.506

$$$$
=
     RDKit          3D

 16 17  0  0  0  0  0  0  0  0999 V2000
    2.7490   68.1590   62.9640 Cl  0  0  0  0  0  0  0  0  0  0  0  0
    3.5220   68.8130   64.3570 C   0  0  0  0  0  0  0  0  0  0  0  0
    4.8850   69.1700   64.2850 C   0  0  0  0  0  0  0  0  0  0  0  0
    5.5410   69.7040   65.3980 C   0  0  0  0  0  0  0  0  0  0  0  0
    4.7930   69.8570   66.5490 C   0  0  0  0  0  0  0  0  0  0  0  0
    3.4470   69.5050   66.6230 C   0  0  0  0  0  0  0  0  0  0  0  0
    2.7840   68.9780   65.5340 C   0  0  0  0  0  0  0  0  0  0  0  0
    2.9230   69.7570   67.8880 N   0  0  0  0  0  0  0  0  0  0  0  0
    3.8840   70.2890   68.7260 C   0  0  0  0  0  0  0  0  0  0  0  0
    3.7670   70.6210   69.8830 O   0  0  0  0  0  0  0  0  0  0  0  0
    5.1760   70.3780   67.8630 C   0  0  0  0  0  0  0  0  0  0  0  0
    6.2630   70.7860   68.1990 O   0  0  0  0  0  0  0  0  0  0  0  0
    5.4367   69.0268   63.3442 H   0  0  0  0  0  0  0  0  0  0  0  0
    6.6028   69.9889   65.3590 H   0  0  0  0  0  0  0  0  0  0  0  0
    1.7212   68.6996   65.5888 H   0  0  0  0  0  0  0  0  0  0  0  0
    1.9478   69.5714   68.1628 H   0  0  0  0  0  0  0  0  0  0  0  0
  2  1  1  0
  3  2  2  0
  4  3  1  0
  5  4  2  0
  6  5  1  0
  7  6  2  0
  7  2  1  0
  8  6  1  0
  9  8  1  0
 10  9  2  0
 11  9  1  0
 11  5  1  0
 12 11  2  0
  3 13  1  0
  4 14  1  0
  7 15  1  0
  8 16  1  0
M  END
>  <score>  (5) 
-7.44

$$$$
=
     RDKit          3D

 16 17  0  0  0  0  0  0  0  0999 V2000
    5.3130   70.3400   68.0610 Cl  0  0  0  0  0  0  0  0  0  0  0  0
    4.2790   69.7400   66.8220 C   0  0  0  0  0  0  0  0  0  0  0  0
    2.9590   69.3650   67.1480 C   0  0  0  0  0  0  0  0  0  0  0  0
    2.0940   68.8750   66.1650 C   0  0  0  0  0  0  0  0  0  0  0  0
    2.5980   68.7790   64.8820 C   0  0  0  0  0  0  0  0  0  0  0  0
    3.9020   69.1490   64.5580 C   0  0  0  0  0  0  0  0  0  0  0  0
    4.7680   69.6350   65.5150 C   0  0  0  0  0  0  0  0  0  0  0  0
    4.1630   68.9580   63.2040 N   0  0  0  0  0  0  0  0  0  0  0  0
    3.0550   68.4540   62.5510 C   0  0  0  0  0  0  0  0  0  0  0  0
    2.9400   68.1750   61.3790 O   0  0  0  0  0  0  0  0  0  0  0  0
    1.9620   68.3140   63.6480 C   0  0  0  0  0  0  0  0  0  0  0  0
    0.8310   67.9080   63.5180 O   0  0  0  0  0  0  0  0  0  0  0  0
    2.6067   69.4590   68.1858 H   0  0  0  0  0  0  0  0  0  0  0  0
    1.0611   68.5799   66.4017 H   0  0  0  0  0  0  0  0  0  0  0  0
    5.7979   69.9273   65.2621 H   0  0  0  0  0  0  0  0  0  0  0  0
    5.0636   69.1652   62.7491 H   0  0  0  0  0  0  0  0  0  0  0  0
  2  1  1  0
  3  2  2  0
  4  3  1  0
  5  4  2  0
  6  5  1  0
  7  6  2  0
  7  2  1  0
  8  6  1  0
  9  8  1  0
 10  9  2  0
 11  9  1  0
 11  5  1  0
 12 11  2  0
  3 13  1  0
  4 14  1  0
  7 15  1  0
  8 16  1  0
M  END
>  <score>  (6) 
-7.259

$$$$
=
     RDKit          3D

 16 17  0  0  0  0  0  0  0  0999 V2000
    0.1530   68.9600   67.4780 Cl  0  0  0  0  0  0  0  0  0  0  0  0
    1.8380   69.2950   67.3520 C   0  0  0  0  0  0  0  0  0  0  0  0
    2.5110   69.0000   66.1480 C   0  0  0  0  0  0  0  0  0  0  0  0
    3.8770   69.2600   66.0140 C   0  0  0  0  0  0  0  0  0  0  0  0
    4.5180   69.8110   67.1060 C   0  0  0  0  0  0  0  0  0  0  0  0
    3.8560   70.1030   68.2970 C   0  0  0  0  0  0  0  0  0  0  0  0
    2.5080   69.8530   68.4470 C   0  0  0  0  0  0  0  0  0  0  0  0
    4.7220   70.6500   69.2400 N   0  0  0  0  0  0  0  0  0  0  0  0
    6.0040   70.7530   68.7360 C   0  0  0  0  0  0  0  0  0  0  0  0
    6.9920   71.1820   69.2870 O   0  0  0  0  0  0  0  0  0  0  0  0
    5.9190   70.1960   67.2860 C   0  0  0  0  0  0  0  0  0  0  0  0
    6.8130   70.0980   66.4790 O   0  0  0  0  0  0  0  0  0  0  0  0
    1.9549   68.5610   65.3065 H   0  0  0  0  0  0  0  0  0  0  0  0
    4.4169   69.0362   65.0821 H   0  0  0  0  0  0  0  0  0  0  0  0
    1.9825   70.0820   69.3858 H   0  0  0  0  0  0  0  0  0  0  0  0
    4.4435   70.9397   70.1884 H   0  0  0  0  0  0  0  0  0  0  0  0
  2  1  1  0
  3  2  2  0
  4  3  1  0
  5  4  2  0
  6  5  1  0
  7  6  2  0
  7  2  1  0
  8  6  1  0
  9  8  1  0
 10  9  2  0
 11  9  1  0
 11  5  1  0
 12 11  2  0
  3 13  1  0
  4 14  1  0
  7 15  1  0
  8 16  1  0
M  END
>  <score>  (7) 
-6.935

$$$$
=
     RDKit          3D

 16 17  0  0  0  0  0  0  0  0999 V2000
   -0.7670   68.0980   66.2210 Cl  0  0  0  0  0  0  0  0  0  0  0  0
    0.8450   68.4980   65.7650 C   0  0  0  0  0  0  0  0  0  0  0  0
    1.2220   68.4010   64.4100 C   0  0  0  0  0  0  0  0  0  0  0  0
    2.5220   68.7190   64.0070 C   0  0  0  0  0  0  0  0  0  0  0  0
    3.3990   69.1260   64.9940 C   0  0  0  0  0  0  0  0  0  0  0  0
    3.0290   69.2230   66.3340 C   0  0  0  0  0  0  0  0  0  0  0  0
    1.7500   68.9130   66.7480 C   0  0  0  0  0  0  0  0  0  0  0  0
    4.0900   69.6530   67.1260 N   0  0  0  0  0  0  0  0  0  0  0  0
    5.2220   69.8670   66.3640 C   0  0  0  0  0  0  0  0  0  0  0  0
    6.3120   70.2410   66.7330 O   0  0  0  0  0  0  0  0  0  0  0  0
    4.8050   69.5230   64.9050 C   0  0  0  0  0  0  0  0  0  0  0  0
    5.4890   69.5700   63.9100 O   0  0  0  0  0  0  0  0  0  0  0  0
    0.4855   68.0717   63.6623 H   0  0  0  0  0  0  0  0  0  0  0  0
    2.8322   68.6486   62.9540 H   0  0  0  0  0  0  0  0  0  0  0  0
    1.4546   68.9888   67.8049 H   0  0  0  0  0  0  0  0  0  0  0  0
    4.0378   69.7930   68.1451 H   0  0  0  0  0  0  0  0  0  0  0  0
  2  1  1  0
  3  2  2  0
  4  3  1  0
  5  4  2  0
  6  5  1  0
  7  6  2  0
  7  2  1  0
  8  6  1  0
  9  8  1  0
 10  9  2  0
 11  9  1  0
 11  5  1  0
 12 11  2  0
  3 13  1  0
  4 14  1  0
  7 15  1  0
  8 16  1  0
M  END
>  <score>  (8) 
-6.708

$$$$
=
     RDKit          3D

 16 17  0  0  0  0  0  0  0  0999 V2000
    0.3390   68.7280   66.6290 Cl  0  0  0  0  0  0  0  0  0  0  0  0
    1.5340   68.0510   65.5890 C   0  0  0  0  0  0  0  0  0  0  0  0
    2.2830   68.9040   64.7530 C   0  0  0  0  0  0  0  0  0  0  0  0
    3.2600   68.3860   63.8980 C   0  0  0  0  0  0  0  0  0  0  0  0
    3.4450   67.0180   63.9190 C   0  0  0  0  0  0  0  0  0  0  0  0
    2.7070   66.1720   64.7440 C   0  0  0  0  0  0  0  0  0  0  0  0
    1.7390   66.6670   65.5940 C   0  0  0  0  0  0  0  0  0  0  0  0
    3.0820   64.8420   64.5770 N   0  0  0  0  0  0  0  0  0  0  0  0
    4.0880   64.7250   63.6380 C   0  0  0  0  0  0  0  0  0  0  0  0
    4.6410   63.7190   63.2560 O   0  0  0  0  0  0  0  0  0  0  0  0
    4.3720   66.1770   63.1580 C   0  0  0  0  0  0  0  0  0  0  0  0
    5.1810   66.5400   62.3360 O   0  0  0  0  0  0  0  0  0  0  0  0
    2.0967   69.9879   64.7737 H   0  0  0  0  0  0  0  0  0  0  0  0
    3.8534   69.0375   63.2396 H   0  0  0  0  0  0  0  0  0  0  0  0
    1.1541   66.0024   66.2469 H   0  0  0  0  0  0  0  0  0  0  0  0
    2.6645   64.0500   65.0863 H   0  0  0  0  0  0  0  0  0  0  0  0
  2  1  1  0
  3  2  2  0
  4  3  1  0
  5  4  2  0
  6  5  1  0
  7  6  2  0
  7  2  1  0
  8  6  1  0
  9  8  1  0
 10  9  2  0
 11  9  1  0
 11  5  1  0
 12 11  2  0
  3 13  1  0
  4 14  1  0
  7 15  1  0
  8 16  1  0
M  END
>  <score>  (9) 
-6.688

$$$$
