=
     RDKit          3D

 51 53  0  0  0  0  0  0  0  0999 V2000
    2.5350   59.8460   71.9240 C   0  0  0  0  0  0  0  0  0  0  0  0
    2.7130   60.9620   71.1030 C   0  0  0  0  0  0  0  0  0  0  0  0
    1.7310   61.9340   71.1210 C   0  0  0  0  0  0  0  0  0  0  0  0
    0.5930   61.8530   71.9100 C   0  0  0  0  0  0  0  0  0  0  0  0
    0.4030   60.7530   72.7330 C   0  0  0  0  0  0  0  0  0  0  0  0
    1.3740   59.7390   72.7420 C   0  0  0  0  0  0  0  0  0  0  0  0
   -0.2880   63.0550   71.7720 C   0  0  0  0  0  0  0  0  0  0  0  0
    0.3530   63.8690   70.6240 C   0  0  2  0  0  0  0  0  0  0  0  0
    1.6750   63.1750   70.3630 C   0  0  0  0  0  0  0  0  0  0  0  0
    2.5610   63.5630   69.6220 O   0  0  0  0  0  0  0  0  0  0  0  0
    3.4650   57.8780   70.9320 C   0  0  0  0  0  0  0  0  0  0  0  0
    3.4240   58.8030   72.0100 O   0  0  0  0  0  0  0  0  0  0  0  0
    1.2960   58.6060   73.5140 O   0  0  0  0  0  0  0  0  0  0  0  0
    0.0070   58.1370   73.8810 C   0  0  0  0  0  0  0  0  0  0  0  0
    0.5840   65.3430   70.9620 C   0  0  0  0  0  0  0  0  0  0  0  0
    0.4250   66.2560   69.7680 C   0  0  0  0  0  0  0  0  0  0  0  0
    1.4180   67.1840   69.4410 C   0  0  0  0  0  0  0  0  0  0  0  0
    1.2720   68.0170   68.3280 C   0  0  0  0  0  0  0  0  0  0  0  0
    0.1280   67.9330   67.5210 C   0  0  0  0  0  0  0  0  0  0  0  0
   -0.8710   67.0090   67.8570 C   0  0  0  0  0  0  0  0  0  0  0  0
   -0.7220   66.1780   68.9690 C   0  0  0  0  0  0  0  0  0  0  0  0
   -0.0080   68.7940   66.2950 C   0  0  0  0  0  0  0  0  0  0  0  0
    0.2110   68.0310   65.0070 N   0  0  0  0  0  4  0  0  0  0  0  0
    1.5550   67.3640   64.9800 C   0  0  0  0  0  0  0  0  0  0  0  0
   -0.0160   68.8690   63.7790 C   0  0  0  0  0  0  0  0  0  0  0  0
    3.6032   61.0635   70.4649 H   0  0  0  0  0  0  0  0  0  0  0  0
   -0.4924   60.6764   73.3673 H   0  0  0  0  0  0  0  0  0  0  0  0
   -1.3149   62.7578   71.5127 H   0  0  0  0  0  0  0  0  0  0  0  0
   -0.3614   63.6316   72.7059 H   0  0  0  0  0  0  0  0  0  0  0  0
   -0.3176   63.8918   69.7524 H   0  0  0  0  0  0  0  0  0  0  0  0
    3.5104   56.8534   71.3296 H   0  0  0  0  0  0  0  0  0  0  0  0
    2.5609   57.9925   70.3160 H   0  0  0  0  0  0  0  0  0  0  0  0
    4.3554   58.0721   70.3160 H   0  0  0  0  0  0  0  0  0  0  0  0
   -0.0740   58.1075   74.9776 H   0  0  0  0  0  0  0  0  0  0  0  0
   -0.7589   58.8141   73.4748 H   0  0  0  0  0  0  0  0  0  0  0  0
   -0.1447   57.1260   73.4748 H   0  0  0  0  0  0  0  0  0  0  0  0
   -0.1417   65.6437   71.7320 H   0  0  0  0  0  0  0  0  0  0  0  0
    1.6215   65.4405   71.3142 H   0  0  0  0  0  0  0  0  0  0  0  0
    2.3212   67.2593   70.0643 H   0  0  0  0  0  0  0  0  0  0  0  0
    2.0604   68.7440   68.0832 H   0  0  0  0  0  0  0  0  0  0  0  0
   -1.7790   66.9381   67.2401 H   0  0  0  0  0  0  0  0  0  0  0  0
   -1.5128   65.4556   69.2196 H   0  0  0  0  0  0  0  0  0  0  0  0
   -1.0204   69.2238   66.2795 H   0  0  0  0  0  0  0  0  0  0  0  0
    0.7684   69.5712   66.3521 H   0  0  0  0  0  0  0  0  0  0  0  0
   -0.5069   67.2926   64.9869 H   0  0  0  0  0  0  0  0  0  0  0  0
    1.9001   67.1927   66.0103 H   0  0  0  0  0  0  0  0  0  0  0  0
    1.4758   66.4007   64.4549 H   0  0  0  0  0  0  0  0  0  0  0  0
    2.2743   68.0097   64.4549 H   0  0  0  0  0  0  0  0  0  0  0  0
   -0.2928   69.8907   64.0783 H   0  0  0  0  0  0  0  0  0  0  0  0
    0.9063   68.8995   63.1802 H   0  0  0  0  0  0  0  0  0  0  0  0
   -0.8275   68.4298   63.1802 H   0  0  0  0  0  0  0  0  0  0  0  0
  2  1  2  0
  3  2  1  0
  4  3  2  0
  5  4  1  0
  6  1  1  0
  6  5  2  0
  7  4  1  0
  8  7  1  0
  9  8  1  0
  9  3  1  0
 10  9  2  0
 12 11  1  0
 12  1  1  0
 13  6  1  0
 14 13  1  0
 15  8  1  0
 16 15  1  0
 17 16  2  0
 18 17  1  0
 19 18  2  0
 20 19  1  0
 21 20  2  0
 21 16  1  0
 22 19  1  0
 23 22  1  0
 24 23  1  0
 25 23  1  0
  2 26  1  0
  5 27  1  0
  7 28  1  0
  7 29  1  0
  8 30  1  6
 11 31  1  0
 11 32  1  0
 11 33  1  0
 14 34  1  0
 14 35  1  0
 14 36  1  0
 15 37  1  0
 15 38  1  0
 17 39  1  0
 18 40  1  0
 20 41  1  0
 21 42  1  0
 22 43  1  0
 22 44  1  0
 23 45  1  0
 24 46  1  0
 24 47  1  0
 24 48  1  0
 25 49  1  0
 25 50  1  0
 25 51  1  0
M  CHG  1  23   1
M  END
>  <score>  (1) 
-8.817

$$$$
=
     RDKit          3D

 51 53  0  0  0  0  0  0  0  0999 V2000
    2.5540   61.4880   72.3790 C   0  0  0  0  0  0  0  0  0  0  0  0
    1.5800   62.4550   72.6420 C   0  0  0  0  0  0  0  0  0  0  0  0
    1.4840   63.5210   71.7680 C   0  0  0  0  0  0  0  0  0  0  0  0
    2.2970   63.6690   70.6540 C   0  0  0  0  0  0  0  0  0  0  0  0
    3.2660   62.7170   70.3770 C   0  0  0  0  0  0  0  0  0  0  0  0
    3.4020   61.6200   71.2430 C   0  0  0  0  0  0  0  0  0  0  0  0
    1.9570   64.8880   69.8540 C   0  0  0  0  0  0  0  0  0  0  0  0
    0.9060   65.6290   70.7130 C   0  0  2  0  0  0  0  0  0  0  0  0
    0.5680   64.6520   71.8210 C   0  0  0  0  0  0  0  0  0  0  0  0
   -0.3120   64.7790   72.6520 O   0  0  0  0  0  0  0  0  0  0  0  0
    1.7740   59.3610   73.1460 C   0  0  0  0  0  0  0  0  0  0  0  0
    2.7670   60.3780   73.1580 O   0  0  0  0  0  0  0  0  0  0  0  0
    4.3230   60.6150   71.0720 O   0  0  0  0  0  0  0  0  0  0  0  0
    5.6930   60.9240   71.2790 C   0  0  0  0  0  0  0  0  0  0  0  0
   -0.3570   66.0220   69.9460 C   0  0  0  0  0  0  0  0  0  0  0  0
   -0.0660   66.8120   68.6910 C   0  0  0  0  0  0  0  0  0  0  0  0
    1.1410   67.5030   68.5450 C   0  0  0  0  0  0  0  0  0  0  0  0
    1.4110   68.2220   67.3780 C   0  0  0  0  0  0  0  0  0  0  0  0
    0.4760   68.2600   66.3320 C   0  0  0  0  0  0  0  0  0  0  0  0
   -0.7370   67.5750   66.4840 C   0  0  0  0  0  0  0  0  0  0  0  0
   -1.0030   66.8570   67.6520 C   0  0  0  0  0  0  0  0  0  0  0  0
    0.7860   68.9920   65.0550 C   0  0  0  0  0  0  0  0  0  0  0  0
    0.8840   68.0760   63.8560 N   0  0  0  0  0  4  0  0  0  0  0  0
    2.3110   67.7690   63.5060 C   0  0  0  0  0  0  0  0  0  0  0  0
    0.1190   68.5810   62.6630 C   0  0  0  0  0  0  0  0  0  0  0  0
    0.9138   62.3706   73.5133 H   0  0  0  0  0  0  0  0  0  0  0  0
    3.9160   62.8190   69.4955 H   0  0  0  0  0  0  0  0  0  0  0  0
    2.8479   65.5150   69.7019 H   0  0  0  0  0  0  0  0  0  0  0  0
    1.5802   64.6402   68.8507 H   0  0  0  0  0  0  0  0  0  0  0  0
    1.3136   66.5853   71.0726 H   0  0  0  0  0  0  0  0  0  0  0  0
    1.5117   59.0924   74.1800 H   0  0  0  0  0  0  0  0  0  0  0  0
    0.8783   59.7292   72.6244 H   0  0  0  0  0  0  0  0  0  0  0  0
    2.1635   58.4743   72.6244 H   0  0  0  0  0  0  0  0  0  0  0  0
    5.8993   60.9705   72.3585 H   0  0  0  0  0  0  0  0  0  0  0  0
    6.3182   60.1443   70.8195 H   0  0  0  0  0  0  0  0  0  0  0  0
    5.9230   61.8966   70.8195 H   0  0  0  0  0  0  0  0  0  0  0  0
   -0.8959   65.1050   69.6655 H   0  0  0  0  0  0  0  0  0  0  0  0
   -0.9559   66.6654   70.6074 H   0  0  0  0  0  0  0  0  0  0  0  0
    1.8840   67.4802   69.3558 H   0  0  0  0  0  0  0  0  0  0  0  0
    2.3638   68.7625   67.2782 H   0  0  0  0  0  0  0  0  0  0  0  0
   -1.4848   67.6030   65.6778 H   0  0  0  0  0  0  0  0  0  0  0  0
   -1.9582   66.3216   67.7565 H   0  0  0  0  0  0  0  0  0  0  0  0
   -0.0114   69.7268   64.8701 H   0  0  0  0  0  0  0  0  0  0  0  0
    1.7672   69.4728   65.1820 H   0  0  0  0  0  0  0  0  0  0  0  0
    0.4321   67.1935   64.1352 H   0  0  0  0  0  0  0  0  0  0  0  0
    2.8960   67.6431   64.4290 H   0  0  0  0  0  0  0  0  0  0  0  0
    2.3525   66.8414   62.9163 H   0  0  0  0  0  0  0  0  0  0  0  0
    2.7303   68.5975   62.9163 H   0  0  0  0  0  0  0  0  0  0  0  0
   -0.7538   69.1571   63.0041 H   0  0  0  0  0  0  0  0  0  0  0  0
    0.7705   69.2271   62.0563 H   0  0  0  0  0  0  0  0  0  0  0  0
   -0.2191   67.7280   62.0563 H   0  0  0  0  0  0  0  0  0  0  0  0
  2  1  2  0
  3  2  1  0
  4  3  2  0
  5  4  1  0
  6  1  1  0
  6  5  2  0
  7  4  1  0
  8  7  1  0
  9  8  1  0
  9  3  1  0
 10  9  2  0
 12 11  1  0
 12  1  1  0
 13  6  1  0
 14 13  1  0
 15  8  1  0
 16 15  1  0
 17 16  2  0
 18 17  1  0
 19 18  2  0
 20 19  1  0
 21 20  2  0
 21 16  1  0
 22 19  1  0
 23 22  1  0
 24 23  1  0
 25 23  1  0
  2 26  1  0
  5 27  1  0
  7 28  1  0
  7 29  1  0
  8 30  1  1
 11 31  1  0
 11 32  1  0
 11 33  1  0
 14 34  1  0
 14 35  1  0
 14 36  1  0
 15 37  1  0
 15 38  1  0
 17 39  1  0
 18 40  1  0
 20 41  1  0
 21 42  1  0
 22 43  1  0
 22 44  1  0
 23 45  1  0
 24 46  1  0
 24 47  1  0
 24 48  1  0
 25 49  1  0
 25 50  1  0
 25 51  1  0
M  CHG  1  23   1
M  END
>  <score>  (2) 
-8.031

$$$$
=
     RDKit          3D

 51 53  0  0  0  0  0  0  0  0999 V2000
    0.9020   62.0020   72.2500 C   0  0  0  0  0  0  0  0  0  0  0  0
    0.3030   63.2640   72.2950 C   0  0  0  0  0  0  0  0  0  0  0  0
    0.7060   64.1980   71.3590 C   0  0  0  0  0  0  0  0  0  0  0  0
    1.6630   63.9400   70.3890 C   0  0  0  0  0  0  0  0  0  0  0  0
    2.2640   62.6920   70.3280 C   0  0  0  0  0  0  0  0  0  0  0  0
    1.8880   61.7150   71.2650 C   0  0  0  0  0  0  0  0  0  0  0  0
    1.8840   65.1060   69.4770 C   0  0  0  0  0  0  0  0  0  0  0  0
    1.0540   66.2480   70.1090 C   0  0  2  0  0  0  0  0  0  0  0  0
    0.2470   65.5700   71.1980 C   0  0  0  0  0  0  0  0  0  0  0  0
   -0.6370   66.0770   71.8640 O   0  0  0  0  0  0  0  0  0  0  0  0
   -0.7670   60.6740   73.3330 C   0  0  0  0  0  0  0  0  0  0  0  0
    0.6050   60.9770   73.1140 O   0  0  0  0  0  0  0  0  0  0  0  0
    2.4120   60.4460   71.3030 O   0  0  0  0  0  0  0  0  0  0  0  0
    3.4430   60.1220   70.3820 C   0  0  0  0  0  0  0  0  0  0  0  0
    0.1250   66.9590   69.1230 C   0  0  0  0  0  0  0  0  0  0  0  0
    0.8450   67.4790   67.9010 C   0  0  0  0  0  0  0  0  0  0  0  0
    0.5350   66.9920   66.6270 C   0  0  0  0  0  0  0  0  0  0  0  0
    1.1950   67.4850   65.4980 C   0  0  0  0  0  0  0  0  0  0  0  0
    2.1760   68.4800   65.6250 C   0  0  0  0  0  0  0  0  0  0  0  0
    2.4930   68.9590   66.9030 C   0  0  0  0  0  0  0  0  0  0  0  0
    1.8310   68.4640   68.0290 C   0  0  0  0  0  0  0  0  0  0  0  0
    2.8520   69.0470   64.4060 C   0  0  0  0  0  0  0  0  0  0  0  0
    3.3210   67.9820   63.4390 N   0  0  0  0  0  4  0  0  0  0  0  0
    4.6330   67.3890   63.8600 C   0  0  0  0  0  0  0  0  0  0  0  0
    3.3600   68.4570   62.0130 C   0  0  0  0  0  0  0  0  0  0  0  0
   -0.4616   63.5053   73.0481 H   0  0  0  0  0  0  0  0  0  0  0  0
    3.0206   62.4711   69.5607 H   0  0  0  0  0  0  0  0  0  0  0  0
    2.9501   65.3742   69.4387 H   0  0  0  0  0  0  0  0  0  0  0  0
    1.5837   64.8919   68.4407 H   0  0  0  0  0  0  0  0  0  0  0  0
    1.7189   67.0429   70.4778 H   0  0  0  0  0  0  0  0  0  0  0  0
   -0.9648   60.6303   74.4142 H   0  0  0  0  0  0  0  0  0  0  0  0
   -1.3924   61.4557   72.8771 H   0  0  0  0  0  0  0  0  0  0  0  0
   -1.0051   59.7016   72.8771 H   0  0  0  0  0  0  0  0  0  0  0  0
    4.3510   59.8367   70.9335 H   0  0  0  0  0  0  0  0  0  0  0  0
    3.1191   59.2823   69.7495 H   0  0  0  0  0  0  0  0  0  0  0  0
    3.6576   60.9960   69.7495 H   0  0  0  0  0  0  0  0  0  0  0  0
   -0.6496   66.2490   68.7974 H   0  0  0  0  0  0  0  0  0  0  0  0
   -0.3051   67.8267   69.6446 H   0  0  0  0  0  0  0  0  0  0  0  0
   -0.2347   66.2145   66.5127 H   0  0  0  0  0  0  0  0  0  0  0  0
    0.9435   67.0901   64.5026 H   0  0  0  0  0  0  0  0  0  0  0  0
    3.2686   69.7302   67.0204 H   0  0  0  0  0  0  0  0  0  0  0  0
    2.0871   68.8521   69.0259 H   0  0  0  0  0  0  0  0  0  0  0  0
    2.1405   69.7044   63.8849 H   0  0  0  0  0  0  0  0  0  0  0  0
    3.7425   69.5942   64.7490 H   0  0  0  0  0  0  0  0  0  0  0  0
    2.6137   67.2341   63.4733 H   0  0  0  0  0  0  0  0  0  0  0  0
    4.6885   67.3639   64.9583 H   0  0  0  0  0  0  0  0  0  0  0  0
    4.7164   66.3657   63.4652 H   0  0  0  0  0  0  0  0  0  0  0  0
    5.4562   68.0025   63.4652 H   0  0  0  0  0  0  0  0  0  0  0  0
    3.4500   69.5531   61.9940 H   0  0  0  0  0  0  0  0  0  0  0  0
    4.2244   68.0092   61.5009 H   0  0  0  0  0  0  0  0  0  0  0  0
    2.4341   68.1562   61.5009 H   0  0  0  0  0  0  0  0  0  0  0  0
  2  1  2  0
  3  2  1  0
  4  3  2  0
  5  4  1  0
  6  1  1  0
  6  5  2  0
  7  4  1  0
  8  7  1  0
  9  8  1  0
  9  3  1  0
 10  9  2  0
 12 11  1  0
 12  1  1  0
 13  6  1  0
 14 13  1  0
 15  8  1  0
 16 15  1  0
 17 16  2  0
 18 17  1  0
 19 18  2  0
 20 19  1  0
 21 20  2  0
 21 16  1  0
 22 19  1  0
 23 22  1  0
 24 23  1  0
 25 23  1  0
  2 26  1  0
  5 27  1  0
  7 28  1  0
  7 29  1  0
  8 30  1  1
 11 31  1  0
 11 32  1  0
 11 33  1  0
 14 34  1  0
 14 35  1  0
 14 36  1  0
 15 37  1  0
 15 38  1  0
 17 39  1  0
 18 40  1  0
 20 41  1  0
 21 42  1  0
 22 43  1  0
 22 44  1  0
 23 45  1  0
 24 46  1  0
 24 47  1  0
 24 48  1  0
 25 49  1  0
 25 50  1  0
 25 51  1  0
M  CHG  1  23   1
M  END
>  <score>  (3) 
-7.943

$$$$
=
     RDKit          3D

 51 53  0  0  0  0  0  0  0  0999 V2000
    3.8720   68.9300   65.5780 C   0  0  0  0  0  0  0  0  0  0  0  0
    2.8770   69.4420   66.4160 C   0  0  0  0  0  0  0  0  0  0  0  0
    1.7280   68.6920   66.5800 C   0  0  0  0  0  0  0  0  0  0  0  0
    1.5240   67.4680   65.9610 C   0  0  0  0  0  0  0  0  0  0  0  0
    2.5020   66.9440   65.1300 C   0  0  0  0  0  0  0  0  0  0  0  0
    3.6830   67.6770   64.9300 C   0  0  0  0  0  0  0  0  0  0  0  0
    0.2160   66.8460   66.3390 C   0  0  0  0  0  0  0  0  0  0  0  0
   -0.5020   67.9370   67.1670 C   0  0  2  0  0  0  0  0  0  0  0  0
    0.5550   69.0020   67.3840 C   0  0  0  0  0  0  0  0  0  0  0  0
    0.4560   69.9840   68.0960 O   0  0  0  0  0  0  0  0  0  0  0  0
    5.8210   70.0240   66.4300 C   0  0  0  0  0  0  0  0  0  0  0  0
    5.0630   69.5630   65.3200 O   0  0  0  0  0  0  0  0  0  0  0  0
    4.7200   67.2610   64.1320 O   0  0  0  0  0  0  0  0  0  0  0  0
    4.4430   66.2970   63.1270 C   0  0  0  0  0  0  0  0  0  0  0  0
   -1.0420   67.4430   68.5100 C   0  0  0  0  0  0  0  0  0  0  0  0
   -0.1150   66.4660   69.1970 C   0  0  0  0  0  0  0  0  0  0  0  0
   -0.5470   65.1750   69.5170 C   0  0  0  0  0  0  0  0  0  0  0  0
    0.3170   64.2710   70.1390 C   0  0  0  0  0  0  0  0  0  0  0  0
    1.6330   64.6440   70.4510 C   0  0  0  0  0  0  0  0  0  0  0  0
    2.0610   65.9410   70.1400 C   0  0  0  0  0  0  0  0  0  0  0  0
    1.1950   66.8420   69.5160 C   0  0  0  0  0  0  0  0  0  0  0  0
    2.5800   63.6550   71.0770 C   0  0  0  0  0  0  0  0  0  0  0  0
    3.7990   63.3820   70.2250 N   0  0  0  0  0  4  0  0  0  0  0  0
    3.4360   62.6940   68.9410 C   0  0  0  0  0  0  0  0  0  0  0  0
    4.8800   62.6410   70.9620 C   0  0  0  0  0  0  0  0  0  0  0  0
    3.0042   70.4078   66.9268 H   0  0  0  0  0  0  0  0  0  0  0  0
    2.3557   65.9719   64.6363 H   0  0  0  0  0  0  0  0  0  0  0  0
   -0.3675   66.5906   65.4421 H   0  0  0  0  0  0  0  0  0  0  0  0
    0.3435   65.9087   66.9004 H   0  0  0  0  0  0  0  0  0  0  0  0
   -1.3931   68.2964   66.6315 H   0  0  0  0  0  0  0  0  0  0  0  0
    5.3244   69.7220   67.3639 H   0  0  0  0  0  0  0  0  0  0  0  0
    6.8294   69.5861   66.3927 H   0  0  0  0  0  0  0  0  0  0  0  0
    5.8960   71.1208   66.3927 H   0  0  0  0  0  0  0  0  0  0  0  0
    4.1687   65.3425   63.6001 H   0  0  0  0  0  0  0  0  0  0  0  0
    3.6096   66.6489   62.5012 H   0  0  0  0  0  0  0  0  0  0  0  0
    5.3360   66.1528   62.5012 H   0  0  0  0  0  0  0  0  0  0  0  0
   -1.1876   68.3110   69.1698 H   0  0  0  0  0  0  0  0  0  0  0  0
   -1.9864   66.9154   68.3105 H   0  0  0  0  0  0  0  0  0  0  0  0
   -1.5759   64.8690   69.2768 H   0  0  0  0  0  0  0  0  0  0  0  0
   -0.0369   63.2592   70.3861 H   0  0  0  0  0  0  0  0  0  0  0  0
    3.0863   66.2522   70.3889 H   0  0  0  0  0  0  0  0  0  0  0  0
    1.5456   67.8560   69.2732 H   0  0  0  0  0  0  0  0  0  0  0  0
    2.9125   64.0539   72.0467 H   0  0  0  0  0  0  0  0  0  0  0  0
    2.0369   62.7048   71.1876 H   0  0  0  0  0  0  0  0  0  0  0  0
    4.1926   64.3038   69.9877 H   0  0  0  0  0  0  0  0  0  0  0  0
    2.9334   61.7415   69.1648 H   0  0  0  0  0  0  0  0  0  0  0  0
    2.7599   63.3373   68.3587 H   0  0  0  0  0  0  0  0  0  0  0  0
    4.3487   62.4991   68.3587 H   0  0  0  0  0  0  0  0  0  0  0  0
    4.7243   62.7477   72.0457 H   0  0  0  0  0  0  0  0  0  0  0  0
    4.8455   61.5758   70.6897 H   0  0  0  0  0  0  0  0  0  0  0  0
    5.8611   63.0574   70.6897 H   0  0  0  0  0  0  0  0  0  0  0  0
  2  1  2  0
  3  2  1  0
  4  3  2  0
  5  4  1  0
  6  1  1  0
  6  5  2  0
  7  4  1  0
  8  7  1  0
  9  8  1  0
  9  3  1  0
 10  9  2  0
 12 11  1  0
 12  1  1  0
 13  6  1  0
 14 13  1  0
 15  8  1  0
 16 15  1  0
 17 16  2  0
 18 17  1  0
 19 18  2  0
 20 19  1  0
 21 20  2  0
 21 16  1  0
 22 19  1  0
 23 22  1  0
 24 23  1  0
 25 23  1  0
  2 26  1  0
  5 27  1  0
  7 28  1  0
  7 29  1  0
  8 30  1  6
 11 31  1  0
 11 32  1  0
 11 33  1  0
 14 34  1  0
 14 35  1  0
 14 36  1  0
 15 37  1  0
 15 38  1  0
 17 39  1  0
 18 40  1  0
 20 41  1  0
 21 42  1  0
 22 43  1  0
 22 44  1  0
 23 45  1  0
 24 46  1  0
 24 47  1  0
 24 48  1  0
 25 49  1  0
 25 50  1  0
 25 51  1  0
M  CHG  1  23   1
M  END
>  <score>  (4) 
-7.507

$$$$
=
     RDKit          3D

 51 53  0  0  0  0  0  0  0  0999 V2000
   -0.5550   67.2300   66.8540 C   0  0  0  0  0  0  0  0  0  0  0  0
    0.6920   66.7380   66.4600 C   0  0  0  0  0  0  0  0  0  0  0  0
    1.3330   67.3800   65.4180 C   0  0  0  0  0  0  0  0  0  0  0  0
    0.8030   68.4780   64.7580 C   0  0  0  0  0  0  0  0  0  0  0  0
   -0.4310   68.9810   65.1390 C   0  0  0  0  0  0  0  0  0  0  0  0
   -1.1210   68.3550   66.1900 C   0  0  0  0  0  0  0  0  0  0  0  0
    1.7180   69.0070   63.6980 C   0  0  0  0  0  0  0  0  0  0  0  0
    2.8650   67.9720   63.6310 C   0  0  2  0  0  0  0  0  0  0  0  0
    2.6220   67.0640   64.8210 C   0  0  0  0  0  0  0  0  0  0  0  0
    3.3640   66.1850   65.2210 O   0  0  0  0  0  0  0  0  0  0  0  0
   -0.6700   66.4720   69.1200 C   0  0  0  0  0  0  0  0  0  0  0  0
   -1.3090   66.6960   67.8700 O   0  0  0  0  0  0  0  0  0  0  0  0
   -2.3480   68.7620   66.6550 O   0  0  0  0  0  0  0  0  0  0  0  0
   -3.4290   68.8030   65.7360 C   0  0  0  0  0  0  0  0  0  0  0  0
    4.2630   68.5880   63.7100 C   0  0  0  0  0  0  0  0  0  0  0  0
    4.5780   69.1700   65.0690 C   0  0  0  0  0  0  0  0  0  0  0  0
    3.5570   69.4340   65.9870 C   0  0  0  0  0  0  0  0  0  0  0  0
    3.8540   69.9590   67.2480 C   0  0  0  0  0  0  0  0  0  0  0  0
    5.1830   70.2270   67.6120 C   0  0  0  0  0  0  0  0  0  0  0  0
    6.2030   69.9720   66.6870 C   0  0  0  0  0  0  0  0  0  0  0  0
    5.9020   69.4460   65.4280 C   0  0  0  0  0  0  0  0  0  0  0  0
    5.5080   70.7470   68.9860 C   0  0  0  0  0  0  0  0  0  0  0  0
    6.9540   70.5270   69.3750 N   0  0  0  0  0  4  0  0  0  0  0  0
    7.0970   70.2340   70.8390 C   0  0  0  0  0  0  0  0  0  0  0  0
    7.8570   71.6490   68.9440 C   0  0  0  0  0  0  0  0  0  0  0  0
    1.1469   65.8709   66.9613 H   0  0  0  0  0  0  0  0  0  0  0  0
   -0.8620   69.8544   64.6277 H   0  0  0  0  0  0  0  0  0  0  0  0
    1.1969   69.0741   62.7316 H   0  0  0  0  0  0  0  0  0  0  0  0
    2.0799   70.0210   63.9234 H   0  0  0  0  0  0  0  0  0  0  0  0
    2.8519   67.4509   62.6623 H   0  0  0  0  0  0  0  0  0  0  0  0
   -1.3657   66.7159   69.9364 H   0  0  0  0  0  0  0  0  0  0  0  0
   -0.3720   65.4158   69.1954 H   0  0  0  0  0  0  0  0  0  0  0  0
    0.2222   67.1110   69.1954 H   0  0  0  0  0  0  0  0  0  0  0  0
   -4.3792   68.8390   66.2890 H   0  0  0  0  0  0  0  0  0  0  0  0
   -3.3387   69.6984   65.1034 H   0  0  0  0  0  0  0  0  0  0  0  0
   -3.4068   67.9034   65.1034 H   0  0  0  0  0  0  0  0  0  0  0  0
    5.0033   67.8065   63.4836 H   0  0  0  0  0  0  0  0  0  0  0  0
    4.2998   69.4128   62.9832 H   0  0  0  0  0  0  0  0  0  0  0  0
    2.5116   69.2269   65.7147 H   0  0  0  0  0  0  0  0  0  0  0  0
    3.0408   70.1635   67.9599 H   0  0  0  0  0  0  0  0  0  0  0  0
    7.2483   70.1873   66.9534 H   0  0  0  0  0  0  0  0  0  0  0  0
    6.7134   69.2470   64.7124 H   0  0  0  0  0  0  0  0  0  0  0  0
    5.2988   71.8266   69.0107 H   0  0  0  0  0  0  0  0  0  0  0  0
    4.8862   70.1916   69.7035 H   0  0  0  0  0  0  0  0  0  0  0  0
    7.2648   69.6927   68.8570 H   0  0  0  0  0  0  0  0  0  0  0  0
    6.6880   71.0721   71.4223 H   0  0  0  0  0  0  0  0  0  0  0  0
    6.5468   69.3136   71.0842 H   0  0  0  0  0  0  0  0  0  0  0  0
    8.1611   70.1014   71.0842 H   0  0  0  0  0  0  0  0  0  0  0  0
    8.2637   72.1543   69.8324 H   0  0  0  0  0  0  0  0  0  0  0  0
    8.6837   71.2437   68.3421 H   0  0  0  0  0  0  0  0  0  0  0  0
    7.2843   72.3700   68.3421 H   0  0  0  0  0  0  0  0  0  0  0  0
  2  1  2  0
  3  2  1  0
  4  3  2  0
  5  4  1  0
  6  1  1  0
  6  5  2  0
  7  4  1  0
  8  7  1  0
  9  8  1  0
  9  3  1  0
 10  9  2  0
 12 11  1  0
 12  1  1  0
 13  6  1  0
 14 13  1  0
 15  8  1  0
 16 15  1  0
 17 16  2  0
 18 17  1  0
 19 18  2  0
 20 19  1  0
 21 20  2  0
 21 16  1  0
 22 19  1  0
 23 22  1  0
 24 23  1  0
 25 23  1  0
  2 26  1  0
  5 27  1  0
  7 28  1  0
  7 29  1  0
  8 30  1  6
 11 31  1  0
 11 32  1  0
 11 33  1  0
 14 34  1  0
 14 35  1  0
 14 36  1  0
 15 37  1  0
 15 38  1  0
 17 39  1  0
 18 40  1  0
 20 41  1  0
 21 42  1  0
 22 43  1  0
 22 44  1  0
 23 45  1  0
 24 46  1  0
 24 47  1  0
 24 48  1  0
 25 49  1  0
 25 50  1  0
 25 51  1  0
M  CHG  1  23   1
M  END
>  <score>  (5) 
-7.428

$$$$
=
     RDKit          3D

 51 53  0  0  0  0  0  0  0  0999 V2000
    0.8520   69.4420   62.1760 C   0  0  0  0  0  0  0  0  0  0  0  0
   -0.1020   69.4630   63.1960 C   0  0  0  0  0  0  0  0  0  0  0  0
    0.1480   68.7020   64.3220 C   0  0  0  0  0  0  0  0  0  0  0  0
    1.2900   67.9330   64.4830 C   0  0  0  0  0  0  0  0  0  0  0  0
    2.2490   67.9050   63.4820 C   0  0  0  0  0  0  0  0  0  0  0  0
    2.0310   68.6580   62.3170 C   0  0  0  0  0  0  0  0  0  0  0  0
    1.3340   67.2410   65.8100 C   0  0  0  0  0  0  0  0  0  0  0  0
   -0.0520   67.5250   66.4350 C   0  0  2  0  0  0  0  0  0  0  0  0
   -0.6800   68.5480   65.5100 C   0  0  0  0  0  0  0  0  0  0  0  0
   -1.7240   69.1460   65.6960 O   0  0  0  0  0  0  0  0  0  0  0  0
   -0.3600   69.8420   60.1520 C   0  0  0  0  0  0  0  0  0  0  0  0
    0.7390   70.1450   61.0010 O   0  0  0  0  0  0  0  0  0  0  0  0
    2.9070   68.7100   61.2600 O   0  0  0  0  0  0  0  0  0  0  0  0
    4.0420   67.8580   61.2930 C   0  0  0  0  0  0  0  0  0  0  0  0
    0.0110   68.0680   67.8640 C   0  0  0  0  0  0  0  0  0  0  0  0
    0.3020   66.9990   68.8910 C   0  0  0  0  0  0  0  0  0  0  0  0
   -0.6700   66.0530   69.2330 C   0  0  0  0  0  0  0  0  0  0  0  0
   -0.3930   65.0580   70.1740 C   0  0  0  0  0  0  0  0  0  0  0  0
    0.8670   64.9900   70.7880 C   0  0  0  0  0  0  0  0  0  0  0  0
    1.8360   65.9440   70.4520 C   0  0  0  0  0  0  0  0  0  0  0  0
    1.5560   66.9370   69.5110 C   0  0  0  0  0  0  0  0  0  0  0  0
    1.1830   63.8900   71.7650 C   0  0  0  0  0  0  0  0  0  0  0  0
    2.4320   63.1170   71.4020 N   0  0  0  0  0  4  0  0  0  0  0  0
    2.2950   62.4340   70.0730 C   0  0  0  0  0  0  0  0  0  0  0  0
    2.8640   62.1560   72.4750 C   0  0  0  0  0  0  0  0  0  0  0  0
   -1.0192   70.0636   63.1062 H   0  0  0  0  0  0  0  0  0  0  0  0
    3.1632   67.3044   63.5983 H   0  0  0  0  0  0  0  0  0  0  0  0
    1.4890   66.1597   65.6807 H   0  0  0  0  0  0  0  0  0  0  0  0
    2.1610   67.5965   66.4422 H   0  0  0  0  0  0  0  0  0  0  0  0
   -0.6283   66.5922   66.5237 H   0  0  0  0  0  0  0  0  0  0  0  0
   -1.2407   69.5992   60.7648 H   0  0  0  0  0  0  0  0  0  0  0  0
   -0.5836   70.7120   59.5171 H   0  0  0  0  0  0  0  0  0  0  0  0
   -0.1062   68.9803   59.5171 H   0  0  0  0  0  0  0  0  0  0  0  0
    4.3159   67.6524   62.3383 H   0  0  0  0  0  0  0  0  0  0  0  0
    3.8056   66.9124   60.7831 H   0  0  0  0  0  0  0  0  0  0  0  0
    4.8840   68.3490   60.7831 H   0  0  0  0  0  0  0  0  0  0  0  0
    0.8045   68.8281   67.9152 H   0  0  0  0  0  0  0  0  0  0  0  0
   -0.9777   68.4889   68.0992 H   0  0  0  0  0  0  0  0  0  0  0  0
   -1.6609   66.0928   68.7571 H   0  0  0  0  0  0  0  0  0  0  0  0
   -1.1682   64.3227   70.4354 H   0  0  0  0  0  0  0  0  0  0  0  0
    2.8247   65.9107   70.9329 H   0  0  0  0  0  0  0  0  0  0  0  0
    2.3278   67.6775   69.2544 H   0  0  0  0  0  0  0  0  0  0  0  0
    1.3236   64.3355   72.7609 H   0  0  0  0  0  0  0  0  0  0  0  0
    0.3412   63.1821   71.7467 H   0  0  0  0  0  0  0  0  0  0  0  0
    3.1852   63.8149   71.3210 H   0  0  0  0  0  0  0  0  0  0  0  0
    2.0809   61.3665   70.2297 H   0  0  0  0  0  0  0  0  0  0  0  0
    1.4712   62.8940   69.5075 H   0  0  0  0  0  0  0  0  0  0  0  0
    3.2325   62.5408   69.5075 H   0  0  0  0  0  0  0  0  0  0  0  0
    2.6659   62.5966   73.4632 H   0  0  0  0  0  0  0  0  0  0  0  0
    2.3019   61.2160   72.3733 H   0  0  0  0  0  0  0  0  0  0  0  0
    3.9402   61.9525   72.3733 H   0  0  0  0  0  0  0  0  0  0  0  0
  2  1  2  0
  3  2  1  0
  4  3  2  0
  5  4  1  0
  6  1  1  0
  6  5  2  0
  7  4  1  0
  8  7  1  0
  9  8  1  0
  9  3  1  0
 10  9  2  0
 12 11  1  0
 12  1  1  0
 13  6  1  0
 14 13  1  0
 15  8  1  0
 16 15  1  0
 17 16  2  0
 18 17  1  0
 19 18  2  0
 20 19  1  0
 21 20  2  0
 21 16  1  0
 22 19  1  0
 23 22  1  0
 24 23  1  0
 25 23  1  0
  2 26  1  0
  5 27  1  0
  7 28  1  0
  7 29  1  0
  8 30  1  1
 11 31  1  0
 11 32  1  0
 11 33  1  0
 14 34  1  0
 14 35  1  0
 14 36  1  0
 15 37  1  0
 15 38  1  0
 17 39  1  0
 18 40  1  0
 20 41  1  0
 21 42  1  0
 22 43  1  0
 22 44  1  0
 23 45  1  0
 24 46  1  0
 24 47  1  0
 24 48  1  0
 25 49  1  0
 25 50  1  0
 25 51  1  0
M  CHG  1  23   1
M  END
>  <score>  (6) 
-7.406

$$$$
=
     RDKit          3D

 51 53  0  0  0  0  0  0  0  0999 V2000
    3.4790   68.5420   64.2630 C   0  0  0  0  0  0  0  0  0  0  0  0
    3.0550   69.1780   65.4330 C   0  0  0  0  0  0  0  0  0  0  0  0
    2.3430   68.4260   66.3480 C   0  0  0  0  0  0  0  0  0  0  0  0
    2.0380   67.0860   66.1610 C   0  0  0  0  0  0  0  0  0  0  0  0
    2.4550   66.4400   65.0070 C   0  0  0  0  0  0  0  0  0  0  0  0
    3.1770   67.1680   64.0470 C   0  0  0  0  0  0  0  0  0  0  0  0
    1.2960   66.4990   67.3200 C   0  0  0  0  0  0  0  0  0  0  0  0
    0.9920   67.7100   68.2330 C   0  0  2  0  0  0  0  0  0  0  0  0
    1.7890   68.8480   67.6260 C   0  0  0  0  0  0  0  0  0  0  0  0
    1.9400   69.9580   68.1030 O   0  0  0  0  0  0  0  0  0  0  0  0
    5.5360   69.5320   63.5460 C   0  0  0  0  0  0  0  0  0  0  0  0
    4.1930   69.1600   63.2660 O   0  0  0  0  0  0  0  0  0  0  0  0
    3.6420   66.6370   62.8690 O   0  0  0  0  0  0  0  0  0  0  0  0
    4.4190   65.4510   62.9330 C   0  0  0  0  0  0  0  0  0  0  0  0
    1.3900   67.5020   69.6940 C   0  0  0  0  0  0  0  0  0  0  0  0
    1.4370   66.0440   70.0920 C   0  0  0  0  0  0  0  0  0  0  0  0
    2.6560   65.3640   70.1710 C   0  0  0  0  0  0  0  0  0  0  0  0
    2.6960   64.0200   70.5530 C   0  0  0  0  0  0  0  0  0  0  0  0
    1.5130   63.3330   70.8650 C   0  0  0  0  0  0  0  0  0  0  0  0
    0.2920   64.0130   70.7760 C   0  0  0  0  0  0  0  0  0  0  0  0
    0.2560   65.3570   70.3950 C   0  0  0  0  0  0  0  0  0  0  0  0
    1.5590   61.9010   71.3230 C   0  0  0  0  0  0  0  0  0  0  0  0
    2.9520   61.4430   71.6960 N   0  0  0  0  0  4  0  0  0  0  0  0
    3.2750   60.1050   71.0980 C   0  0  0  0  0  0  0  0  0  0  0  0
    3.2020   61.4600   73.1790 C   0  0  0  0  0  0  0  0  0  0  0  0
    3.2799   70.2386   65.6188 H   0  0  0  0  0  0  0  0  0  0  0  0
    2.2245   65.3765   64.8463 H   0  0  0  0  0  0  0  0  0  0  0  0
    0.3641   66.0208   66.9840 H   0  0  0  0  0  0  0  0  0  0  0  0
    1.8736   65.7182   67.8365 H   0  0  0  0  0  0  0  0  0  0  0  0
   -0.0915   67.8957   68.2713 H   0  0  0  0  0  0  0  0  0  0  0  0
    5.6856   69.5734   64.6350 H   0  0  0  0  0  0  0  0  0  0  0  0
    6.2206   68.7897   63.1098 H   0  0  0  0  0  0  0  0  0  0  0  0
    5.7411   70.5208   63.1098 H   0  0  0  0  0  0  0  0  0  0  0  0
    4.5941   65.1837   63.9856 H   0  0  0  0  0  0  0  0  0  0  0  0
    3.8813   64.6329   62.4315 H   0  0  0  0  0  0  0  0  0  0  0  0
    5.3838   65.6172   62.4315 H   0  0  0  0  0  0  0  0  0  0  0  0
    2.3864   67.9406   69.8517 H   0  0  0  0  0  0  0  0  0  0  0  0
    0.6240   67.9882   70.3160 H   0  0  0  0  0  0  0  0  0  0  0  0
    3.5912   65.8909   69.9306 H   0  0  0  0  0  0  0  0  0  0  0  0
    3.6621   63.4970   70.6094 H   0  0  0  0  0  0  0  0  0  0  0  0
   -0.6451   63.4856   71.0076 H   0  0  0  0  0  0  0  0  0  0  0  0
   -0.7098   65.8799   70.3327 H   0  0  0  0  0  0  0  0  0  0  0  0
    0.9075   61.7935   72.2028 H   0  0  0  0  0  0  0  0  0  0  0  0
    1.2217   61.2763   70.4828 H   0  0  0  0  0  0  0  0  0  0  0  0
    3.5973   62.1343   71.2878 H   0  0  0  0  0  0  0  0  0  0  0  0
    3.4509   59.3764   71.9031 H   0  0  0  0  0  0  0  0  0  0  0  0
    2.4324   59.7682   70.4763 H   0  0  0  0  0  0  0  0  0  0  0  0
    4.1785   60.1897   70.4763 H   0  0  0  0  0  0  0  0  0  0  0  0
    2.2427   61.3948   73.7133 H   0  0  0  0  0  0  0  0  0  0  0  0
    3.8340   60.6028   73.4542 H   0  0  0  0  0  0  0  0  0  0  0  0
    3.7121   62.3949   73.4542 H   0  0  0  0  0  0  0  0  0  0  0  0
  2  1  2  0
  3  2  1  0
  4  3  2  0
  5  4  1  0
  6  1  1  0
  6  5  2  0
  7  4  1  0
  8  7  1  0
  9  8  1  0
  9  3  1  0
 10  9  2  0
 12 11  1  0
 12  1  1  0
 13  6  1  0
 14 13  1  0
 15  8  1  0
 16 15  1  0
 17 16  2  0
 18 17  1  0
 19 18  2  0
 20 19  1  0
 21 20  2  0
 21 16  1  0
 22 19  1  0
 23 22  1  0
 24 23  1  0
 25 23  1  0
  2 26  1  0
  5 27  1  0
  7 28  1  0
  7 29  1  0
  8 30  1  1
 11 31  1  0
 11 32  1  0
 11 33  1  0
 14 34  1  0
 14 35  1  0
 14 36  1  0
 15 37  1  0
 15 38  1  0
 17 39  1  0
 18 40  1  0
 20 41  1  0
 21 42  1  0
 22 43  1  0
 22 44  1  0
 23 45  1  0
 24 46  1  0
 24 47  1  0
 24 48  1  0
 25 49  1  0
 25 50  1  0
 25 51  1  0
M  CHG  1  23   1
M  END
>  <score>  (7) 
-7.375

$$$$
=
     RDKit          3D

 51 53  0  0  0  0  0  0  0  0999 V2000
    2.9130   62.5510   69.7500 C   0  0  0  0  0  0  0  0  0  0  0  0
    3.4130   61.2470   69.7770 C   0  0  0  0  0  0  0  0  0  0  0  0
    2.9670   60.4110   70.7830 C   0  0  0  0  0  0  0  0  0  0  0  0
    2.0550   60.8030   71.7510 C   0  0  0  0  0  0  0  0  0  0  0  0
    1.5460   62.0920   71.7360 C   0  0  0  0  0  0  0  0  0  0  0  0
    1.9770   62.9780   70.7350 C   0  0  0  0  0  0  0  0  0  0  0  0
    1.7100   59.6950   72.6960 C   0  0  0  0  0  0  0  0  0  0  0  0
    2.6790   58.5510   72.3150 C   0  0  2  0  0  0  0  0  0  0  0  0
    3.3350   59.0250   71.0330 C   0  0  0  0  0  0  0  0  0  0  0  0
    4.0760   58.3750   70.3180 O   0  0  0  0  0  0  0  0  0  0  0  0
    3.7260   63.0290   67.5510 C   0  0  0  0  0  0  0  0  0  0  0  0
    3.2650   63.4920   68.8140 O   0  0  0  0  0  0  0  0  0  0  0  0
    1.5450   64.2760   70.6180 O   0  0  0  0  0  0  0  0  0  0  0  0
    0.4130   64.6720   71.3780 C   0  0  0  0  0  0  0  0  0  0  0  0
    1.9910   57.2030   72.0940 C   0  0  0  0  0  0  0  0  0  0  0  0
    1.2870   56.6880   73.3280 C   0  0  0  0  0  0  0  0  0  0  0  0
   -0.0710   56.3600   73.2920 C   0  0  0  0  0  0  0  0  0  0  0  0
   -0.7150   55.8710   74.4320 C   0  0  0  0  0  0  0  0  0  0  0  0
   -0.0060   55.7000   75.6310 C   0  0  0  0  0  0  0  0  0  0  0  0
    1.3530   56.0390   75.6680 C   0  0  0  0  0  0  0  0  0  0  0  0
    1.9930   56.5260   74.5260 C   0  0  0  0  0  0  0  0  0  0  0  0
   -0.6850   55.1280   76.8460 C   0  0  0  0  0  0  0  0  0  0  0  0
   -1.2440   53.7410   76.6140 N   0  0  0  0  0  4  0  0  0  0  0  0
   -2.7300   53.7000   76.8180 C   0  0  0  0  0  0  0  0  0  0  0  0
   -0.5450   52.6820   77.4210 C   0  0  0  0  0  0  0  0  0  0  0  0
    4.1357   60.8981   69.0247 H   0  0  0  0  0  0  0  0  0  0  0  0
    0.8177   62.4153   72.4943 H   0  0  0  0  0  0  0  0  0  0  0  0
    1.8683   60.0086   73.7384 H   0  0  0  0  0  0  0  0  0  0  0  0
    0.6547   59.3935   72.6223 H   0  0  0  0  0  0  0  0  0  0  0  0
    3.3881   58.3627   73.1346 H   0  0  0  0  0  0  0  0  0  0  0  0
    4.4948   62.2569   67.7019 H   0  0  0  0  0  0  0  0  0  0  0  0
    2.8834   62.6023   66.9871 H   0  0  0  0  0  0  0  0  0  0  0  0
    4.1564   63.8697   66.9871 H   0  0  0  0  0  0  0  0  0  0  0  0
    0.6447   64.5910   72.4503 H   0  0  0  0  0  0  0  0  0  0  0  0
    0.1552   65.7137   71.1363 H   0  0  0  0  0  0  0  0  0  0  0  0
   -0.4379   64.0182   71.1363 H   0  0  0  0  0  0  0  0  0  0  0  0
    1.2496   57.3160   71.2893 H   0  0  0  0  0  0  0  0  0  0  0  0
    2.7728   56.4742   71.8339 H   0  0  0  0  0  0  0  0  0  0  0  0
   -0.6381   56.4878   72.3582 H   0  0  0  0  0  0  0  0  0  0  0  0
   -1.7848   55.6185   74.3891 H   0  0  0  0  0  0  0  0  0  0  0  0
    1.9200   55.9208   76.6032 H   0  0  0  0  0  0  0  0  0  0  0  0
    3.0613   56.7846   74.5683 H   0  0  0  0  0  0  0  0  0  0  0  0
    0.0470   55.0782   77.6656 H   0  0  0  0  0  0  0  0  0  0  0  0
   -1.5313   55.7868   77.0902 H   0  0  0  0  0  0  0  0  0  0  0  0
   -1.0572   53.5196   75.6256 H   0  0  0  0  0  0  0  0  0  0  0  0
   -2.9522   53.6939   77.8953 H   0  0  0  0  0  0  0  0  0  0  0  0
   -3.1884   54.5858   76.3541 H   0  0  0  0  0  0  0  0  0  0  0  0
   -3.1388   52.7902   76.3541 H   0  0  0  0  0  0  0  0  0  0  0  0
   -0.6812   52.8883   78.4929 H   0  0  0  0  0  0  0  0  0  0  0  0
   -0.9708   51.6968   77.1802 H   0  0  0  0  0  0  0  0  0  0  0  0
    0.5283   52.6863   77.1802 H   0  0  0  0  0  0  0  0  0  0  0  0
  2  1  2  0
  3  2  1  0
  4  3  2  0
  5  4  1  0
  6  1  1  0
  6  5  2  0
  7  4  1  0
  8  7  1  0
  9  8  1  0
  9  3  1  0
 10  9  2  0
 12 11  1  0
 12  1  1  0
 13  6  1  0
 14 13  1  0
 15  8  1  0
 16 15  1  0
 17 16  2  0
 18 17  1  0
 19 18  2  0
 20 19  1  0
 21 20  2  0
 21 16  1  0
 22 19  1  0
 23 22  1  0
 24 23  1  0
 25 23  1  0
  2 26  1  0
  5 27  1  0
  7 28  1  0
  7 29  1  0
  8 30  1  1
 11 31  1  0
 11 32  1  0
 11 33  1  0
 14 34  1  0
 14 35  1  0
 14 36  1  0
 15 37  1  0
 15 38  1  0
 17 39  1  0
 18 40  1  0
 20 41  1  0
 21 42  1  0
 22 43  1  0
 22 44  1  0
 23 45  1  0
 24 46  1  0
 24 47  1  0
 24 48  1  0
 25 49  1  0
 25 50  1  0
 25 51  1  0
M  CHG  1  23   1
M  END
>  <score>  (8) 
-7.166

$$$$
=
     RDKit          3D

 51 53  0  0  0  0  0  0  0  0999 V2000
    0.7100   59.8500   72.9340 C   0  0  0  0  0  0  0  0  0  0  0  0
   -0.1400   59.0700   73.7220 C   0  0  0  0  0  0  0  0  0  0  0  0
   -1.3690   59.6040   74.0610 C   0  0  0  0  0  0  0  0  0  0  0  0
   -1.7910   60.8610   73.6560 C   0  0  0  0  0  0  0  0  0  0  0  0
   -0.9610   61.6460   72.8700 C   0  0  0  0  0  0  0  0  0  0  0  0
    0.3000   61.1450   72.5080 C   0  0  0  0  0  0  0  0  0  0  0  0
   -3.1760   61.1800   74.1240 C   0  0  0  0  0  0  0  0  0  0  0  0
   -3.5420   60.0070   75.0640 C   0  0  2  0  0  0  0  0  0  0  0  0
   -2.4210   59.0050   74.8680 C   0  0  0  0  0  0  0  0  0  0  0  0
   -2.3750   57.8760   75.3230 O   0  0  0  0  0  0  0  0  0  0  0  0
    2.4210   58.1780   72.9470 C   0  0  0  0  0  0  0  0  0  0  0  0
    1.9580   59.4530   72.5220 O   0  0  0  0  0  0  0  0  0  0  0  0
    1.2060   61.8290   71.7340 O   0  0  0  0  0  0  0  0  0  0  0  0
    1.6480   63.0980   72.1910 C   0  0  0  0  0  0  0  0  0  0  0  0
   -4.8930   59.3610   74.7540 C   0  0  0  0  0  0  0  0  0  0  0  0
   -5.9810   60.3720   74.4740 C   0  0  0  0  0  0  0  0  0  0  0  0
   -6.2370   61.4140   75.3710 C   0  0  0  0  0  0  0  0  0  0  0  0
   -7.2350   62.3540   75.1010 C   0  0  0  0  0  0  0  0  0  0  0  0
   -7.9950   62.2680   73.9250 C   0  0  0  0  0  0  0  0  0  0  0  0
   -7.7450   61.2170   73.0330 C   0  0  0  0  0  0  0  0  0  0  0  0
   -6.7450   60.2800   73.3050 C   0  0  0  0  0  0  0  0  0  0  0  0
   -9.0370   63.3070   73.6090 C   0  0  0  0  0  0  0  0  0  0  0  0
   -8.4440   64.6110   73.1230 N   0  0  0  0  0  4  0  0  0  0  0  0
   -8.9430   65.7790   73.9210 C   0  0  0  0  0  0  0  0  0  0  0  0
   -8.6310   64.8290   71.6470 C   0  0  0  0  0  0  0  0  0  0  0  0
    0.1582   58.0668   74.0605 H   0  0  0  0  0  0  0  0  0  0  0  0
   -1.2844   62.6430   72.5361 H   0  0  0  0  0  0  0  0  0  0  0  0
   -3.1928   62.1355   74.6687 H   0  0  0  0  0  0  0  0  0  0  0  0
   -3.8864   61.2883   73.2911 H   0  0  0  0  0  0  0  0  0  0  0  0
   -3.6439   60.3651   76.0991 H   0  0  0  0  0  0  0  0  0  0  0  0
    2.4346   58.1406   74.0463 H   0  0  0  0  0  0  0  0  0  0  0  0
    1.7491   57.3968   72.5618 H   0  0  0  0  0  0  0  0  0  0  0  0
    3.4376   58.0100   72.5618 H   0  0  0  0  0  0  0  0  0  0  0  0
    1.6523   63.1105   73.2909 H   0  0  0  0  0  0  0  0  0  0  0  0
    2.6653   63.2881   71.8181 H   0  0  0  0  0  0  0  0  0  0  0  0
    0.9689   63.8789   71.8181 H   0  0  0  0  0  0  0  0  0  0  0  0
   -4.7784   58.7157   73.8706 H   0  0  0  0  0  0  0  0  0  0  0  0
   -5.1961   58.7895   75.6437 H   0  0  0  0  0  0  0  0  0  0  0  0
   -5.6480   61.4942   76.2965 H   0  0  0  0  0  0  0  0  0  0  0  0
   -7.4262   63.1677   75.8161 H   0  0  0  0  0  0  0  0  0  0  0  0
   -8.3402   61.1289   72.1121 H   0  0  0  0  0  0  0  0  0  0  0  0
   -6.5564   59.4624   72.5937 H   0  0  0  0  0  0  0  0  0  0  0  0
   -9.7009   62.9108   72.8265 H   0  0  0  0  0  0  0  0  0  0  0  0
   -9.5815   63.5205   74.5406 H   0  0  0  0  0  0  0  0  0  0  0  0
   -7.4282   64.5373   73.2765 H   0  0  0  0  0  0  0  0  0  0  0  0
   -8.8482   65.5571   74.9942 H   0  0  0  0  0  0  0  0  0  0  0  0
   -8.3474   66.6711   73.6770 H   0  0  0  0  0  0  0  0  0  0  0  0
   -9.9993   65.9653   73.6770 H   0  0  0  0  0  0  0  0  0  0  0  0
   -9.3394   65.6548   71.4852 H   0  0  0  0  0  0  0  0  0  0  0  0
   -7.6635   65.0806   71.1880 H   0  0  0  0  0  0  0  0  0  0  0  0
   -9.0269   63.9111   71.1880 H   0  0  0  0  0  0  0  0  0  0  0  0
  2  1  2  0
  3  2  1  0
  4  3  2  0
  5  4  1  0
  6  1  1  0
  6  5  2  0
  7  4  1  0
  8  7  1  0
  9  8  1  0
  9  3  1  0
 10  9  2  0
 12 11  1  0
 12  1  1  0
 13  6  1  0
 14 13  1  0
 15  8  1  0
 16 15  1  0
 17 16  2  0
 18 17  1  0
 19 18  2  0
 20 19  1  0
 21 20  2  0
 21 16  1  0
 22 19  1  0
 23 22  1  0
 24 23  1  0
 25 23  1  0
  2 26  1  0
  5 27  1  0
  7 28  1  0
  7 29  1  0
  8 30  1  1
 11 31  1  0
 11 32  1  0
 11 33  1  0
 14 34  1  0
 14 35  1  0
 14 36  1  0
 15 37  1  0
 15 38  1  0
 17 39  1  0
 18 40  1  0
 20 41  1  0
 21 42  1  0
 22 43  1  0
 22 44  1  0
 23 45  1  0
 24 46  1  0
 24 47  1  0
 24 48  1  0
 25 49  1  0
 25 50  1  0
 25 51  1  0
M  CHG  1  23   1
M  END
>  <score>  (9) 
-6.773

$$$$
