=
     RDKit          3D

 16 17  0  0  0  0  0  0  0  0999 V2000
    4.3850   68.7640   62.2880 O   0  0  0  0  0  0  0  0  0  0  0  0
    4.5100   69.0700   63.4520 C   0  0  0  0  0  0  0  0  0  0  0  0
    5.6450   69.5180   64.1010 N   0  0  0  0  0  0  0  0  0  0  0  0
    5.3870   69.7650   65.4450 C   0  0  0  0  0  0  0  0  0  0  0  0
    4.0600   69.4950   65.7680 C   0  0  0  0  0  0  0  0  0  0  0  0
    3.4020   69.0370   64.5430 C   0  0  0  0  0  0  0  0  0  0  0  0
    2.2470   68.7070   64.4180 O   0  0  0  0  0  0  0  0  0  0  0  0
    3.5530   69.6610   67.0420 C   0  0  0  0  0  0  0  0  0  0  0  0
    4.4380   70.1220   68.0210 C   0  0  0  0  0  0  0  0  0  0  0  0
    5.7910   70.4000   67.7010 C   0  0  0  0  0  0  0  0  0  0  0  0
    6.2760   70.2190   66.3960 C   0  0  0  0  0  0  0  0  0  0  0  0
    6.9130   70.9690   68.8880 Cl  0  0  0  0  0  0  0  0  0  0  0  0
    3.8130   70.3340   69.6190 Cl  0  0  0  0  0  0  0  0  0  0  0  0
    6.5609   69.6513   63.6490 H   0  0  0  0  0  0  0  0  0  0  0  0
    2.5009   69.4405   67.2756 H   0  0  0  0  0  0  0  0  0  0  0  0
    7.3250   70.4313   66.1420 H   0  0  0  0  0  0  0  0  0  0  0  0
  2  1  2  0
  3  2  1  0
  4  3  1  0
  5  4  2  0
  6  2  1  0
  6  5  1  0
  7  6  2  0
  8  5  1  0
  9  8  2  0
 10  9  1  0
 11  4  1  0
 11 10  2  0
 12 10  1  0
 13  9  1  0
  3 14  1  0
  8 15  1  0
 11 16  1  0
M  END
>  <score>  (1) 
-8.104

$$$$
=
     RDKit          3D

 16 17  0  0  0  0  0  0  0  0999 V2000
    7.3730   71.4460   69.1440 O   0  0  0  0  0  0  0  0  0  0  0  0
    6.5510   70.9630   68.3990 C   0  0  0  0  0  0  0  0  0  0  0  0
    6.6960   70.6310   67.0650 N   0  0  0  0  0  0  0  0  0  0  0  0
    5.5180   70.0970   66.5520 C   0  0  0  0  0  0  0  0  0  0  0  0
    4.5180   70.0430   67.5200 C   0  0  0  0  0  0  0  0  0  0  0  0
    5.0860   70.5820   68.7580 C   0  0  0  0  0  0  0  0  0  0  0  0
    4.5280   70.7000   69.8220 O   0  0  0  0  0  0  0  0  0  0  0  0
    3.2540   69.5520   67.2610 C   0  0  0  0  0  0  0  0  0  0  0  0
    3.0040   69.1000   65.9610 C   0  0  0  0  0  0  0  0  0  0  0  0
    4.0150   69.1510   64.9700 C   0  0  0  0  0  0  0  0  0  0  0  0
    5.2920   69.6570   65.2660 C   0  0  0  0  0  0  0  0  0  0  0  0
    3.7400   68.6010   63.3530 Cl  0  0  0  0  0  0  0  0  0  0  0  0
    1.4240   68.4840   65.6270 Cl  0  0  0  0  0  0  0  0  0  0  0  0
    7.5617   70.7617   66.5224 H   0  0  0  0  0  0  0  0  0  0  0  0
    2.4791   69.5178   68.0410 H   0  0  0  0  0  0  0  0  0  0  0  0
    6.0808   69.7002   64.5006 H   0  0  0  0  0  0  0  0  0  0  0  0
  2  1  2  0
  3  2  1  0
  4  3  1  0
  5  4  2  0
  6  2  1  0
  6  5  1  0
  7  6  2  0
  8  5  1  0
  9  8  2  0
 10  9  1  0
 11  4  1  0
 11 10  2  0
 12 10  1  0
 13  9  1  0
  3 14  1  0
  8 15  1  0
 11 16  1  0
M  END
>  <score>  (2) 
-8.096

$$$$
=
     RDKit          3D

 16 17  0  0  0  0  0  0  0  0999 V2000
    2.8860   68.2470   62.0100 O   0  0  0  0  0  0  0  0  0  0  0  0
    3.2650   68.6020   63.1030 C   0  0  0  0  0  0  0  0  0  0  0  0
    2.5340   68.6940   64.2730 N   0  0  0  0  0  0  0  0  0  0  0  0
    3.3270   69.1450   65.3230 C   0  0  0  0  0  0  0  0  0  0  0  0
    4.6360   69.3790   64.9110 C   0  0  0  0  0  0  0  0  0  0  0  0
    4.7030   69.0560   63.4840 C   0  0  0  0  0  0  0  0  0  0  0  0
    5.6720   69.1310   62.7660 O   0  0  0  0  0  0  0  0  0  0  0  0
    5.6200   69.8310   65.7670 C   0  0  0  0  0  0  0  0  0  0  0  0
    5.2490   70.0530   67.0980 C   0  0  0  0  0  0  0  0  0  0  0  0
    3.9190   69.8170   67.5260 C   0  0  0  0  0  0  0  0  0  0  0  0
    2.9410   69.3580   66.6290 C   0  0  0  0  0  0  0  0  0  0  0  0
    3.4250   70.0820   69.1630 Cl  0  0  0  0  0  0  0  0  0  0  0  0
    6.4730   70.6190   68.1780 Cl  0  0  0  0  0  0  0  0  0  0  0  0
    1.5345   68.4596   64.3561 H   0  0  0  0  0  0  0  0  0  0  0  0
    6.6483   70.0085   65.4190 H   0  0  0  0  0  0  0  0  0  0  0  0
    1.9067   69.1755   66.9559 H   0  0  0  0  0  0  0  0  0  0  0  0
  2  1  2  0
  3  2  1  0
  4  3  1  0
  5  4  2  0
  6  2  1  0
  6  5  1  0
  7  6  2  0
  8  5  1  0
  9  8  2  0
 10  9  1  0
 11  4  1  0
 11 10  2  0
 12 10  1  0
 13  9  1  0
  3 14  1  0
  8 15  1  0
 11 16  1  0
M  END
>  <score>  (3) 
-8.004

$$$$
=
     RDKit          3D

 16 17  0  0  0  0  0  0  0  0999 V2000
    3.8350   70.5760   69.8300 O   0  0  0  0  0  0  0  0  0  0  0  0
    3.9340   70.2550   68.6680 C   0  0  0  0  0  0  0  0  0  0  0  0
    2.9550   69.7420   67.8360 N   0  0  0  0  0  0  0  0  0  0  0  0
    3.4600   69.4970   66.5640 C   0  0  0  0  0  0  0  0  0  0  0  0
    4.8090   69.8330   66.4750 C   0  0  0  0  0  0  0  0  0  0  0  0
    5.2140   70.3370   67.7890 C   0  0  0  0  0  0  0  0  0  0  0  0
    6.3100   70.7290   68.1110 O   0  0  0  0  0  0  0  0  0  0  0  0
    5.5410   69.6830   65.3150 C   0  0  0  0  0  0  0  0  0  0  0  0
    4.8680   69.1680   64.2020 C   0  0  0  0  0  0  0  0  0  0  0  0
    3.4960   68.8230   64.2830 C   0  0  0  0  0  0  0  0  0  0  0  0
    2.7790   68.9870   65.4790 C   0  0  0  0  0  0  0  0  0  0  0  0
    2.6320   68.1830   62.9270 Cl  0  0  0  0  0  0  0  0  0  0  0  0
    5.7770   68.9770   62.7440 Cl  0  0  0  0  0  0  0  0  0  0  0  0
    1.9812   69.5650   68.1211 H   0  0  0  0  0  0  0  0  0  0  0  0
    6.6055   69.9560   65.2676 H   0  0  0  0  0  0  0  0  0  0  0  0
    1.7144   68.7188   65.5478 H   0  0  0  0  0  0  0  0  0  0  0  0
  2  1  2  0
  3  2  1  0
  4  3  1  0
  5  4  2  0
  6  2  1  0
  6  5  1  0
  7  6  2  0
  8  5  1  0
  9  8  2  0
 10  9  1  0
 11  4  1  0
 11 10  2  0
 12 10  1  0
 13  9  1  0
  3 14  1  0
  8 15  1  0
 11 16  1  0
M  END
>  <score>  (4) 
-7.881

$$$$
=
     RDKit          3D

 16 17  0  0  0  0  0  0  0  0999 V2000
    3.9470   70.5460   69.7320 O   0  0  0  0  0  0  0  0  0  0  0  0
    3.9590   70.2250   68.5660 C   0  0  0  0  0  0  0  0  0  0  0  0
    5.0170   70.2670   67.6780 N   0  0  0  0  0  0  0  0  0  0  0  0
    4.6340   69.8130   66.4210 C   0  0  0  0  0  0  0  0  0  0  0  0
    3.2920   69.4420   66.4000 C   0  0  0  0  0  0  0  0  0  0  0  0
    2.7600   69.6700   67.7450 C   0  0  0  0  0  0  0  0  0  0  0  0
    1.6310   69.4670   68.1240 O   0  0  0  0  0  0  0  0  0  0  0  0
    2.6690   68.9570   65.2670 C   0  0  0  0  0  0  0  0  0  0  0  0
    3.4490   68.8480   64.1110 C   0  0  0  0  0  0  0  0  0  0  0  0
    4.8160   69.2240   64.1240 C   0  0  0  0  0  0  0  0  0  0  0  0
    5.4200   69.7140   65.2930 C   0  0  0  0  0  0  0  0  0  0  0  0
    5.8100   69.1040   62.7130 Cl  0  0  0  0  0  0  0  0  0  0  0  0
    2.6790   68.2420   62.6880 Cl  0  0  0  0  0  0  0  0  0  0  0  0
    5.9649   70.5920   67.9161 H   0  0  0  0  0  0  0  0  0  0  0  0
    1.6073   68.6694   65.2733 H   0  0  0  0  0  0  0  0  0  0  0  0
    6.4800   70.0077   65.3081 H   0  0  0  0  0  0  0  0  0  0  0  0
  2  1  2  0
  3  2  1  0
  4  3  1  0
  5  4  2  0
  6  2  1  0
  6  5  1  0
  7  6  2  0
  8  5  1  0
  9  8  2  0
 10  9  1  0
 11  4  1  0
 11 10  2  0
 12 10  1  0
 13  9  1  0
  3 14  1  0
  8 15  1  0
 11 16  1  0
M  END
>  <score>  (5) 
-7.714

$$$$
=
     RDKit          3D

 16 17  0  0  0  0  0  0  0  0999 V2000
   -1.4740   68.3560   67.2610 O   0  0  0  0  0  0  0  0  0  0  0  0
   -0.3050   68.6200   67.0950 C   0  0  0  0  0  0  0  0  0  0  0  0
    0.6000   69.1120   68.0160 N   0  0  0  0  0  0  0  0  0  0  0  0
    1.8540   69.2860   67.4400 C   0  0  0  0  0  0  0  0  0  0  0  0
    1.8550   68.9170   66.0970 C   0  0  0  0  0  0  0  0  0  0  0  0
    0.5000   68.4690   65.7720 C   0  0  0  0  0  0  0  0  0  0  0  0
    0.1030   68.0690   64.7040 O   0  0  0  0  0  0  0  0  0  0  0  0
    2.9810   68.9960   65.3020 C   0  0  0  0  0  0  0  0  0  0  0  0
    4.1510   69.4710   65.9040 C   0  0  0  0  0  0  0  0  0  0  0  0
    4.1590   69.8490   67.2700 C   0  0  0  0  0  0  0  0  0  0  0  0
    2.9960   69.7570   68.0520 C   0  0  0  0  0  0  0  0  0  0  0  0
    5.5870   70.4410   68.0470 Cl  0  0  0  0  0  0  0  0  0  0  0  0
    5.5660   69.5740   64.9170 Cl  0  0  0  0  0  0  0  0  0  0  0  0
    0.3756   69.3221   68.9991 H   0  0  0  0  0  0  0  0  0  0  0  0
    2.9591   68.6989   64.2431 H   0  0  0  0  0  0  0  0  0  0  0  0
    2.9963   70.0496   69.1124 H   0  0  0  0  0  0  0  0  0  0  0  0
  2  1  2  0
  3  2  1  0
  4  3  1  0
  5  4  2  0
  6  2  1  0
  6  5  1  0
  7  6  2  0
  8  5  1  0
  9  8  2  0
 10  9  1  0
 11  4  1  0
 11 10  2  0
 12 10  1  0
 13  9  1  0
  3 14  1  0
  8 15  1  0
 11 16  1  0
M  END
>  <score>  (6) 
-7.64

$$$$
=
     RDKit          3D

 16 17  0  0  0  0  0  0  0  0999 V2000
   -1.2220   67.9680   65.8580 O   0  0  0  0  0  0  0  0  0  0  0  0
   -0.0560   68.2700   65.7350 C   0  0  0  0  0  0  0  0  0  0  0  0
    0.7050   68.2870   64.5810 N   0  0  0  0  0  0  0  0  0  0  0  0
    2.0080   68.6930   64.8490 C   0  0  0  0  0  0  0  0  0  0  0  0
    2.1890   68.9700   66.2010 C   0  0  0  0  0  0  0  0  0  0  0  0
    0.9070   68.7270   66.8670 C   0  0  0  0  0  0  0  0  0  0  0  0
    0.6620   68.8570   68.0420 O   0  0  0  0  0  0  0  0  0  0  0  0
    3.3960   69.3920   66.7220 C   0  0  0  0  0  0  0  0  0  0  0  0
    4.4590   69.5350   65.8240 C   0  0  0  0  0  0  0  0  0  0  0  0
    4.2840   69.2560   64.4460 C   0  0  0  0  0  0  0  0  0  0  0  0
    3.0420   68.8280   63.9480 C   0  0  0  0  0  0  0  0  0  0  0  0
    5.5750   69.4210   63.3080 Cl  0  0  0  0  0  0  0  0  0  0  0  0
    5.9740   70.0630   66.4660 Cl  0  0  0  0  0  0  0  0  0  0  0  0
    0.3537   68.0328   63.6467 H   0  0  0  0  0  0  0  0  0  0  0  0
    3.5162   69.6060   67.7943 H   0  0  0  0  0  0  0  0  0  0  0  0
    2.9003   68.6089   62.8794 H   0  0  0  0  0  0  0  0  0  0  0  0
  2  1  2  0
  3  2  1  0
  4  3  1  0
  5  4  2  0
  6  2  1  0
  6  5  1  0
  7  6  2  0
  8  5  1  0
  9  8  2  0
 10  9  1  0
 11  4  1  0
 11 10  2  0
 12 10  1  0
 13  9  1  0
  3 14  1  0
  8 15  1  0
 11 16  1  0
M  END
>  <score>  (7) 
-7.557

$$$$
=
     RDKit          3D

 16 17  0  0  0  0  0  0  0  0999 V2000
    5.5590   69.0460   62.0610 O   0  0  0  0  0  0  0  0  0  0  0  0
    4.9780   69.1060   63.1210 C   0  0  0  0  0  0  0  0  0  0  0  0
    5.4510   69.5810   64.3300 N   0  0  0  0  0  0  0  0  0  0  0  0
    4.4800   69.4830   65.3200 C   0  0  0  0  0  0  0  0  0  0  0  0
    3.2990   68.9350   64.8250 C   0  0  0  0  0  0  0  0  0  0  0  0
    3.5170   68.6540   63.4040 C   0  0  0  0  0  0  0  0  0  0  0  0
    2.7250   68.1750   62.6280 O   0  0  0  0  0  0  0  0  0  0  0  0
    2.1820   68.7330   65.6100 C   0  0  0  0  0  0  0  0  0  0  0  0
    2.2770   69.1070   66.9550 C   0  0  0  0  0  0  0  0  0  0  0  0
    3.4750   69.6660   67.4680 C   0  0  0  0  0  0  0  0  0  0  0  0
    4.5940   69.8570   66.6410 C   0  0  0  0  0  0  0  0  0  0  0  0
    3.6270   70.1380   69.1240 Cl  0  0  0  0  0  0  0  0  0  0  0  0
    0.8840   68.8590   67.9470 Cl  0  0  0  0  0  0  0  0  0  0  0  0
    6.3981   69.9579   64.4778 H   0  0  0  0  0  0  0  0  0  0  0  0
    1.2597   68.2981   65.1974 H   0  0  0  0  0  0  0  0  0  0  0  0
    5.5264   70.2890   67.0333 H   0  0  0  0  0  0  0  0  0  0  0  0
  2  1  2  0
  3  2  1  0
  4  3  1  0
  5  4  2  0
  6  2  1  0
  6  5  1  0
  7  6  2  0
  8  5  1  0
  9  8  2  0
 10  9  1  0
 11  4  1  0
 11 10  2  0
 12 10  1  0
 13  9  1  0
  3 14  1  0
  8 15  1  0
 11 16  1  0
M  END
>  <score>  (8) 
-7.475

$$$$
=
     RDKit          3D

 16 17  0  0  0  0  0  0  0  0999 V2000
   -1.5200   68.4630   65.2030 O   0  0  0  0  0  0  0  0  0  0  0  0
   -0.3270   68.6050   65.0590 C   0  0  0  0  0  0  0  0  0  0  0  0
    0.6240   68.8730   66.0260 N   0  0  0  0  0  0  0  0  0  0  0  0
    1.8940   68.9670   65.4650 C   0  0  0  0  0  0  0  0  0  0  0  0
    1.8600   68.7660   64.0880 C   0  0  0  0  0  0  0  0  0  0  0  0
    0.4630   68.5220   63.7220 C   0  0  0  0  0  0  0  0  0  0  0  0
    0.0280   68.3050   62.6160 O   0  0  0  0  0  0  0  0  0  0  0  0
    2.9920   68.8080   63.2990 C   0  0  0  0  0  0  0  0  0  0  0  0
    4.2050   69.0650   63.9450 C   0  0  0  0  0  0  0  0  0  0  0  0
    4.2500   69.2710   65.3460 C   0  0  0  0  0  0  0  0  0  0  0  0
    3.0790   69.2220   66.1210 C   0  0  0  0  0  0  0  0  0  0  0  0
    5.7320   69.5930   66.1770 Cl  0  0  0  0  0  0  0  0  0  0  0  0
    5.6290   69.1200   62.9660 Cl  0  0  0  0  0  0  0  0  0  0  0  0
    0.4196   68.9879   67.0289 H   0  0  0  0  0  0  0  0  0  0  0  0
    2.9420   68.6467   62.2120 H   0  0  0  0  0  0  0  0  0  0  0  0
    3.1069   69.3810   67.2091 H   0  0  0  0  0  0  0  0  0  0  0  0
  2  1  2  0
  3  2  1  0
  4  3  1  0
  5  4  2  0
  6  2  1  0
  6  5  1  0
  7  6  2  0
  8  5  1  0
  9  8  2  0
 10  9  1  0
 11  4  1  0
 11 10  2  0
 12 10  1  0
 13  9  1  0
  3 14  1  0
  8 15  1  0
 11 16  1  0
M  END
>  <score>  (9) 
-7.326

$$$$
