=
     RDKit          3D

 17 16  0  0  0  0  0  0  0  0999 V2000
    5.1240   70.8750   68.5350 N   0  0  0  0  0  0  0  0  0  0  0  0
    5.6170   69.8030   66.2870 C   0  0  0  0  0  0  0  0  0  0  0  0
    4.6310   70.0620   67.4210 C   0  0  0  0  0  0  0  0  0  0  0  0
    4.6030   70.5850   69.7050 N   0  0  0  0  0  0  0  0  0  0  0  0
    3.3710   70.6780   69.6990 O   0  0  0  0  0  0  0  0  0  0  0  0
    6.5410   71.2560   68.4630 C   0  0  0  0  0  0  0  0  0  0  0  0
    7.4200   70.8420   69.6430 C   0  0  0  0  0  0  0  0  0  0  0  0
    6.6000   69.5448   66.7077 H   0  0  0  0  0  0  0  0  0  0  0  0
    5.2529   68.9700   65.6676 H   0  0  0  0  0  0  0  0  0  0  0  0
    5.7093   70.7074   65.6676 H   0  0  0  0  0  0  0  0  0  0  0  0
    4.3238   69.0871   67.8275 H   0  0  0  0  0  0  0  0  0  0  0  0
    3.8129   70.6442   66.9718 H   0  0  0  0  0  0  0  0  0  0  0  0
    6.9638   70.8003   67.5555 H   0  0  0  0  0  0  0  0  0  0  0  0
    6.5470   72.3560   68.4677 H   0  0  0  0  0  0  0  0  0  0  0  0
    6.9066   71.0838   70.5853 H   0  0  0  0  0  0  0  0  0  0  0  0
    7.6103   69.7596   69.5964 H   0  0  0  0  0  0  0  0  0  0  0  0
    8.3757   71.3847   69.5964 H   0  0  0  0  0  0  0  0  0  0  0  0
  3  1  1  0
  3  2  1  0
  4  1  1  0
  5  4  2  0
  6  1  1  0
  7  6  1  0
  2  8  1  0
  2  9  1  0
  2 10  1  0
  3 11  1  0
  3 12  1  0
  6 13  1  0
  6 14  1  0
  7 15  1  0
  7 16  1  0
  7 17  1  0
M  END
>  <score>  (1) 
-4.396

$$$$
=
     RDKit          3D

 17 16  0  0  0  0  0  0  0  0999 V2000
    5.2640   70.5090   67.6940 N   0  0  0  0  0  0  0  0  0  0  0  0
    5.2690   69.8290   65.2480 C   0  0  0  0  0  0  0  0  0  0  0  0
    4.6420   69.7150   66.6330 C   0  0  0  0  0  0  0  0  0  0  0  0
    6.0520   71.4730   67.2770 N   0  0  0  0  0  0  0  0  0  0  0  0
    6.0100   72.4590   68.0200 O   0  0  0  0  0  0  0  0  0  0  0  0
    4.4330   70.7360   68.8850 C   0  0  0  0  0  0  0  0  0  0  0  0
    2.9840   70.2540   68.8070 C   0  0  0  0  0  0  0  0  0  0  0  0
    6.3467   70.0250   65.3484 H   0  0  0  0  0  0  0  0  0  0  0  0
    5.1170   68.8885   64.6981 H   0  0  0  0  0  0  0  0  0  0  0  0
    4.7957   70.6558   64.6981 H   0  0  0  0  0  0  0  0  0  0  0  0
    4.6868   68.6583   66.9352 H   0  0  0  0  0  0  0  0  0  0  0  0
    3.6225   70.1144   66.5272 H   0  0  0  0  0  0  0  0  0  0  0  0
    4.9120   70.2200   69.7302 H   0  0  0  0  0  0  0  0  0  0  0  0
    4.3712   71.8289   68.9932 H   0  0  0  0  0  0  0  0  0  0  0  0
    2.5863   70.1217   69.8240 H   0  0  0  0  0  0  0  0  0  0  0  0
    2.3781   70.9990   68.2704 H   0  0  0  0  0  0  0  0  0  0  0  0
    2.9451   69.2945   68.2704 H   0  0  0  0  0  0  0  0  0  0  0  0
  3  1  1  0
  3  2  1  0
  4  1  1  0
  5  4  2  0
  6  1  1  0
  7  6  1  0
  2  8  1  0
  2  9  1  0
  2 10  1  0
  3 11  1  0
  3 12  1  0
  6 13  1  0
  6 14  1  0
  7 15  1  0
  7 16  1  0
  7 17  1  0
M  END
>  <score>  (2) 
-4.307

$$$$
=
     RDKit          3D

 17 16  0  0  0  0  0  0  0  0999 V2000
    5.1340   70.6190   68.3820 N   0  0  0  0  0  0  0  0  0  0  0  0
    7.4280   70.8930   69.4360 C   0  0  0  0  0  0  0  0  0  0  0  0
    6.4740   71.2030   68.2870 C   0  0  0  0  0  0  0  0  0  0  0  0
    4.2710   71.3210   69.0790 N   0  0  0  0  0  0  0  0  0  0  0  0
    3.5950   70.6100   69.8300 O   0  0  0  0  0  0  0  0  0  0  0  0
    4.6680   69.9060   67.1850 C   0  0  0  0  0  0  0  0  0  0  0  0
    5.5900   69.9460   65.9660 C   0  0  0  0  0  0  0  0  0  0  0  0
    6.9143   71.0599   70.3943 H   0  0  0  0  0  0  0  0  0  0  0  0
    7.7513   69.8436   69.3712 H   0  0  0  0  0  0  0  0  0  0  0  0
    8.3064   71.5519   69.3712 H   0  0  0  0  0  0  0  0  0  0  0  0
    6.9355   70.8342   67.3591 H   0  0  0  0  0  0  0  0  0  0  0  0
    6.3226   72.2921   68.3165 H   0  0  0  0  0  0  0  0  0  0  0  0
    4.5226   68.8508   67.4598 H   0  0  0  0  0  0  0  0  0  0  0  0
    3.7507   70.4272   66.8739 H   0  0  0  0  0  0  0  0  0  0  0  0
    6.6372   69.9914   66.2997 H   0  0  0  0  0  0  0  0  0  0  0  0
    5.4370   69.0404   65.3607 H   0  0  0  0  0  0  0  0  0  0  0  0
    5.3591   70.8350   65.3607 H   0  0  0  0  0  0  0  0  0  0  0  0
  3  1  1  0
  3  2  1  0
  4  1  1  0
  5  4  2  0
  6  1  1  0
  7  6  1  0
  2  8  1  0
  2  9  1  0
  2 10  1  0
  3 11  1  0
  3 12  1  0
  6 13  1  0
  6 14  1  0
  7 15  1  0
  7 16  1  0
  7 17  1  0
M  END
>  <score>  (3) 
-4.287

$$$$
=
     RDKit          3D

 17 16  0  0  0  0  0  0  0  0999 V2000
    5.2760   71.1290   68.0330 N   0  0  0  0  0  0  0  0  0  0  0  0
    3.0130   70.3530   68.8830 C   0  0  0  0  0  0  0  0  0  0  0  0
    4.4540   70.7500   69.1840 C   0  0  0  0  0  0  0  0  0  0  0  0
    6.0440   72.1770   68.2210 N   0  0  0  0  0  0  0  0  0  0  0  0
    7.1470   71.8650   68.6820 O   0  0  0  0  0  0  0  0  0  0  0  0
    5.7820   70.0130   67.2210 C   0  0  0  0  0  0  0  0  0  0  0  0
    5.1410   69.8250   65.8460 C   0  0  0  0  0  0  0  0  0  0  0  0
    2.4691   70.2031   69.8273 H   0  0  0  0  0  0  0  0  0  0  0  0
    2.5266   71.1506   68.3023 H   0  0  0  0  0  0  0  0  0  0  0  0
    3.0037   69.4188   68.3023 H   0  0  0  0  0  0  0  0  0  0  0  0
    4.9411   69.8958   69.6770 H   0  0  0  0  0  0  0  0  0  0  0  0
    4.3854   71.6545   69.8062 H   0  0  0  0  0  0  0  0  0  0  0  0
    6.8597   70.1723   67.0685 H   0  0  0  0  0  0  0  0  0  0  0  0
    5.5303   69.1037   67.7865 H   0  0  0  0  0  0  0  0  0  0  0  0
    4.0921   69.5174   65.9694 H   0  0  0  0  0  0  0  0  0  0  0  0
    5.1820   70.7730   65.2896 H   0  0  0  0  0  0  0  0  0  0  0  0
    5.6876   69.0493   65.2896 H   0  0  0  0  0  0  0  0  0  0  0  0
  3  1  1  0
  3  2  1  0
  4  1  1  0
  5  4  2  0
  6  1  1  0
  7  6  1  0
  2  8  1  0
  2  9  1  0
  2 10  1  0
  3 11  1  0
  3 12  1  0
  6 13  1  0
  6 14  1  0
  7 15  1  0
  7 16  1  0
  7 17  1  0
M  END
>  <score>  (4) 
-4.195

$$$$
=
     RDKit          3D

 17 16  0  0  0  0  0  0  0  0999 V2000
    4.1070   60.4120   69.9570 N   0  0  0  0  0  0  0  0  0  0  0  0
    5.1770   61.5310   71.9700 C   0  0  0  0  0  0  0  0  0  0  0  0
    4.5790   60.2790   71.3360 C   0  0  0  0  0  0  0  0  0  0  0  0
    3.9010   59.2770   69.3290 N   0  0  0  0  0  0  0  0  0  0  0  0
    3.9260   58.3110   70.0990 O   0  0  0  0  0  0  0  0  0  0  0  0
    3.1990   61.5390   69.7040 C   0  0  0  0  0  0  0  0  0  0  0  0
    3.6660   62.5750   68.6810 C   0  0  0  0  0  0  0  0  0  0  0  0
    5.1350   61.4430   73.0657 H   0  0  0  0  0  0  0  0  0  0  0  0
    6.2241   61.6393   71.6508 H   0  0  0  0  0  0  0  0  0  0  0  0
    4.6032   62.4135   71.6508 H   0  0  0  0  0  0  0  0  0  0  0  0
    3.7244   59.9661   71.9539 H   0  0  0  0  0  0  0  0  0  0  0  0
    5.4015   59.5498   71.2951 H   0  0  0  0  0  0  0  0  0  0  0  0
    2.2438   61.1253   69.3485 H   0  0  0  0  0  0  0  0  0  0  0  0
    3.1349   62.0812   70.6589 H   0  0  0  0  0  0  0  0  0  0  0  0
    4.0631   63.4560   69.2065 H   0  0  0  0  0  0  0  0  0  0  0  0
    4.4542   62.1381   68.0503 H   0  0  0  0  0  0  0  0  0  0  0  0
    2.8166   62.8762   68.0503 H   0  0  0  0  0  0  0  0  0  0  0  0
  3  1  1  0
  3  2  1  0
  4  1  1  0
  5  4  2  0
  6  1  1  0
  7  6  1  0
  2  8  1  0
  2  9  1  0
  2 10  1  0
  3 11  1  0
  3 12  1  0
  6 13  1  0
  6 14  1  0
  7 15  1  0
  7 16  1  0
  7 17  1  0
M  END
>  <score>  (5) 
-3.899

$$$$
=
     RDKit          3D

 17 16  0  0  0  0  0  0  0  0999 V2000
    3.8000   66.2250   63.8760 N   0  0  0  0  0  0  0  0  0  0  0  0
    3.8330   63.8610   64.8010 C   0  0  0  0  0  0  0  0  0  0  0  0
    3.1150   65.1990   64.6650 C   0  0  0  0  0  0  0  0  0  0  0  0
    4.4720   65.7740   62.8430 N   0  0  0  0  0  0  0  0  0  0  0  0
    4.3110   66.4800   61.8410 O   0  0  0  0  0  0  0  0  0  0  0  0
    3.0950   67.5100   63.7590 C   0  0  0  0  0  0  0  0  0  0  0  0
    3.6610   68.6740   64.5730 C   0  0  0  0  0  0  0  0  0  0  0  0
    3.9619   63.6207   65.8667 H   0  0  0  0  0  0  0  0  0  0  0  0
    3.2362   63.0738   64.3172 H   0  0  0  0  0  0  0  0  0  0  0  0
    4.8190   63.9231   64.3172 H   0  0  0  0  0  0  0  0  0  0  0  0
    2.9614   65.6014   65.6771 H   0  0  0  0  0  0  0  0  0  0  0  0
    2.1862   64.9795   64.1180 H   0  0  0  0  0  0  0  0  0  0  0  0
    3.1101   67.8045   62.6993 H   0  0  0  0  0  0  0  0  0  0  0  0
    2.0900   67.3295   64.1681 H   0  0  0  0  0  0  0  0  0  0  0  0
    3.5553   68.4566   65.6461 H   0  0  0  0  0  0  0  0  0  0  0  0
    4.7252   68.8086   64.3293 H   0  0  0  0  0  0  0  0  0  0  0  0
    3.1097   69.5942   64.3293 H   0  0  0  0  0  0  0  0  0  0  0  0
  3  1  1  0
  3  2  1  0
  4  1  1  0
  5  4  2  0
  6  1  1  0
  7  6  1  0
  2  8  1  0
  2  9  1  0
  2 10  1  0
  3 11  1  0
  3 12  1  0
  6 13  1  0
  6 14  1  0
  7 15  1  0
  7 16  1  0
  7 17  1  0
M  END
>  <score>  (6) 
-3.87

$$$$
=
     RDKit          3D

 17 16  0  0  0  0  0  0  0  0999 V2000
    3.5180   60.6970   70.0870 N   0  0  0  0  0  0  0  0  0  0  0  0
    3.7440   62.7940   68.6730 C   0  0  0  0  0  0  0  0  0  0  0  0
    2.8480   61.7220   69.2840 C   0  0  0  0  0  0  0  0  0  0  0  0
    4.1370   59.7670   69.3960 N   0  0  0  0  0  0  0  0  0  0  0  0
    3.8610   58.6320   69.7970 O   0  0  0  0  0  0  0  0  0  0  0  0
    4.1190   61.1680   71.3420 C   0  0  0  0  0  0  0  0  0  0  0  0
    5.6420   61.0790   71.4440 C   0  0  0  0  0  0  0  0  0  0  0  0
    4.2259   63.3706   69.4763 H   0  0  0  0  0  0  0  0  0  0  0  0
    4.5153   62.3164   68.0510 H   0  0  0  0  0  0  0  0  0  0  0  0
    3.1371   63.4683   68.0510 H   0  0  0  0  0  0  0  0  0  0  0  0
    2.3244   61.2137   68.4609 H   0  0  0  0  0  0  0  0  0  0  0  0
    2.1864   62.2556   69.9822 H   0  0  0  0  0  0  0  0  0  0  0  0
    3.8363   62.2230   71.4728 H   0  0  0  0  0  0  0  0  0  0  0  0
    3.7349   60.4925   72.1205 H   0  0  0  0  0  0  0  0  0  0  0  0
    5.9382   61.0617   72.5032 H   0  0  0  0  0  0  0  0  0  0  0  0
    5.9894   60.1590   70.9511 H   0  0  0  0  0  0  0  0  0  0  0  0
    6.0942   61.9523   70.9511 H   0  0  0  0  0  0  0  0  0  0  0  0
  3  1  1  0
  3  2  1  0
  4  1  1  0
  5  4  2  0
  6  1  1  0
  7  6  1  0
  2  8  1  0
  2  9  1  0
  2 10  1  0
  3 11  1  0
  3 12  1  0
  6 13  1  0
  6 14  1  0
  7 15  1  0
  7 16  1  0
  7 17  1  0
M  END
>  <score>  (7) 
-3.864

$$$$
=
     RDKit          3D

 17 16  0  0  0  0  0  0  0  0999 V2000
    2.3190   66.9030   64.9970 N   0  0  0  0  0  0  0  0  0  0  0  0
    3.5310   69.0630   65.5580 C   0  0  0  0  0  0  0  0  0  0  0  0
    2.3650   68.3610   64.8700 C   0  0  0  0  0  0  0  0  0  0  0  0
    1.1130   66.3850   65.0120 N   0  0  0  0  0  0  0  0  0  0  0  0
    0.4500   66.7840   65.9760 O   0  0  0  0  0  0  0  0  0  0  0  0
    3.3970   66.1740   64.3140 C   0  0  0  0  0  0  0  0  0  0  0  0
    3.4830   64.6720   64.5870 C   0  0  0  0  0  0  0  0  0  0  0  0
    3.4105   68.9905   66.6490 H   0  0  0  0  0  0  0  0  0  0  0  0
    4.4750   68.5830   65.2606 H   0  0  0  0  0  0  0  0  0  0  0  0
    3.5485   70.1219   65.2606 H   0  0  0  0  0  0  0  0  0  0  0  0
    2.4138   68.6026   63.7980 H   0  0  0  0  0  0  0  0  0  0  0  0
    1.4609   68.7282   65.3778 H   0  0  0  0  0  0  0  0  0  0  0  0
    3.2586   66.3097   63.2312 H   0  0  0  0  0  0  0  0  0  0  0  0
    4.3318   66.5965   64.7111 H   0  0  0  0  0  0  0  0  0  0  0  0
    3.4930   64.4967   65.6729 H   0  0  0  0  0  0  0  0  0  0  0  0
    2.6122   64.1680   64.1423 H   0  0  0  0  0  0  0  0  0  0  0  0
    4.4056   64.2707   64.1423 H   0  0  0  0  0  0  0  0  0  0  0  0
  3  1  1  0
  3  2  1  0
  4  1  1  0
  5  4  2  0
  6  1  1  0
  7  6  1  0
  2  8  1  0
  2  9  1  0
  2 10  1  0
  3 11  1  0
  3 12  1  0
  6 13  1  0
  6 14  1  0
  7 15  1  0
  7 16  1  0
  7 17  1  0
M  END
>  <score>  (8) 
-3.851

$$$$
=
     RDKit          3D

 17 16  0  0  0  0  0  0  0  0999 V2000
    3.2900   66.2930   64.3530 N   0  0  0  0  0  0  0  0  0  0  0  0
    4.0090   63.8660   64.5590 C   0  0  0  0  0  0  0  0  0  0  0  0
    4.1420   65.2120   63.8540 C   0  0  0  0  0  0  0  0  0  0  0  0
    2.4540   65.9460   65.3040 N   0  0  0  0  0  0  0  0  0  0  0  0
    1.2780   66.1520   64.9830 O   0  0  0  0  0  0  0  0  0  0  0  0
    3.9180   67.6200   64.4080 C   0  0  0  0  0  0  0  0  0  0  0  0
    3.3430   68.6860   63.4750 C   0  0  0  0  0  0  0  0  0  0  0  0
    4.0242   64.0195   65.6481 H   0  0  0  0  0  0  0  0  0  0  0  0
    3.0597   63.3922   64.2687 H   0  0  0  0  0  0  0  0  0  0  0  0
    4.8473   63.2156   64.2687 H   0  0  0  0  0  0  0  0  0  0  0  0
    3.9014   65.0590   62.7916 H   0  0  0  0  0  0  0  0  0  0  0  0
    5.1743   65.5413   64.0433 H   0  0  0  0  0  0  0  0  0  0  0  0
    3.8235   67.9920   65.4389 H   0  0  0  0  0  0  0  0  0  0  0  0
    4.9537   67.4661   64.0709 H   0  0  0  0  0  0  0  0  0  0  0  0
    2.9046   69.4987   64.0728 H   0  0  0  0  0  0  0  0  0  0  0  0
    4.1458   69.0895   62.8404 H   0  0  0  0  0  0  0  0  0  0  0  0
    2.5648   68.2368   62.8404 H   0  0  0  0  0  0  0  0  0  0  0  0
  3  1  1  0
  3  2  1  0
  4  1  1  0
  5  4  2  0
  6  1  1  0
  7  6  1  0
  2  8  1  0
  2  9  1  0
  2 10  1  0
  3 11  1  0
  3 12  1  0
  6 13  1  0
  6 14  1  0
  7 15  1  0
  7 16  1  0
  7 17  1  0
M  END
>  <score>  (9) 
-3.752

$$$$
