=
     RDKit          3D

 42 44  0  0  0  0  0  0  0  0999 V2000
    2.9400   68.3470   62.2100 C   0  0  0  0  0  0  0  0  0  0  0  0
    3.3410   67.8190   61.1750 O   0  0  0  0  0  0  0  0  0  0  0  0
    3.7320   68.5670   63.3350 N   0  0  0  0  0  0  0  0  0  0  0  0
    5.1350   68.1590   63.2850 C   0  0  0  0  0  0  0  0  0  0  0  0
    6.0210   69.1450   64.0380 C   0  0  0  0  0  0  0  0  0  0  0  0
    5.6350   69.2470   65.5280 C   0  0  0  0  0  0  0  0  0  0  0  0
    4.1460   68.9200   65.7540 C   0  0  0  0  0  0  0  0  0  0  0  0
    3.2790   69.2570   64.5440 C   0  0  0  0  0  0  0  0  0  0  0  0
    1.0300   67.4260   64.0740 F   0  0  0  0  0  0  0  0  0  0  0  0
    0.6440   68.3160   63.1490 C   0  0  0  0  0  0  0  0  0  0  0  0
   -0.6790   68.7470   63.1410 C   0  0  0  0  0  0  0  0  0  0  0  0
   -1.0970   69.6810   62.1890 C   0  0  0  0  0  0  0  0  0  0  0  0
   -0.1900   70.1770   61.2480 C   0  0  0  0  0  0  0  0  0  0  0  0
    1.1370   69.7440   61.2580 C   0  0  0  0  0  0  0  0  0  0  0  0
    1.5510   68.8230   62.2230 C   0  0  0  0  0  0  0  0  0  0  0  0
    5.9880   70.6320   66.1110 C   0  0  0  0  0  0  0  0  0  0  0  0
    6.1460   70.6330   67.6130 C   0  0  0  0  0  0  0  0  0  0  0  0
    5.0210   70.5540   68.4460 C   0  0  0  0  0  0  0  0  0  0  0  0
    5.1680   70.5470   69.8340 C   0  0  0  0  0  0  0  0  0  0  0  0
    6.4370   70.6170   70.4030 C   0  0  0  0  0  0  0  0  0  0  0  0
    7.5630   70.6960   69.5850 C   0  0  0  0  0  0  0  0  0  0  0  0
    7.4180   70.7050   68.1960 C   0  0  0  0  0  0  0  0  0  0  0  0
    5.2361   67.1636   63.7422 H   0  0  0  0  0  0  0  0  0  0  0  0
    5.4545   68.1356   62.2327 H   0  0  0  0  0  0  0  0  0  0  0  0
    7.0665   68.8112   63.9640 H   0  0  0  0  0  0  0  0  0  0  0  0
    5.8873   70.1378   63.5835 H   0  0  0  0  0  0  0  0  0  0  0  0
    6.2285   68.4931   66.0659 H   0  0  0  0  0  0  0  0  0  0  0  0
    4.0501   67.8451   65.9673 H   0  0  0  0  0  0  0  0  0  0  0  0
    3.7948   69.5346   66.5960 H   0  0  0  0  0  0  0  0  0  0  0  0
    3.3193   70.3423   64.3696 H   0  0  0  0  0  0  0  0  0  0  0  0
    2.2522   68.9262   64.7592 H   0  0  0  0  0  0  0  0  0  0  0  0
   -1.3925   68.3545   63.8805 H   0  0  0  0  0  0  0  0  0  0  0  0
   -2.1413   70.0263   62.1802 H   0  0  0  0  0  0  0  0  0  0  0  0
   -0.5226   70.9099   60.4982 H   0  0  0  0  0  0  0  0  0  0  0  0
    1.8505   70.1248   60.5124 H   0  0  0  0  0  0  0  0  0  0  0  0
    6.9342   70.9677   65.6615 H   0  0  0  0  0  0  0  0  0  0  0  0
    5.1506   71.3048   65.8741 H   0  0  0  0  0  0  0  0  0  0  0  0
    4.0159   70.4972   68.0027 H   0  0  0  0  0  0  0  0  0  0  0  0
    4.2796   70.4861   70.4797 H   0  0  0  0  0  0  0  0  0  0  0  0
    6.5508   70.6100   71.4971 H   0  0  0  0  0  0  0  0  0  0  0  0
    8.5658   70.7513   70.0336 H   0  0  0  0  0  0  0  0  0  0  0  0
    8.3094   70.7691   67.5547 H   0  0  0  0  0  0  0  0  0  0  0  0
  2  1  2  0
  3  1  1  0
  4  3  1  0
  5  4  1  0
  6  5  1  0
  7  6  1  0
  8  3  1  0
  8  7  1  0
 10  9  1  0
 11 10  2  0
 12 11  1  0
 13 12  2  0
 14 13  1  0
 15 14  2  0
 15 10  1  0
 15  1  1  0
 16  6  1  0
 17 16  1  0
 18 17  2  0
 19 18  1  0
 20 19  2  0
 21 20  1  0
 22 21  2  0
 22 17  1  0
  4 23  1  0
  4 24  1  0
  5 25  1  0
  5 26  1  0
  6 27  1  0
  7 28  1  0
  7 29  1  0
  8 30  1  0
  8 31  1  0
 11 32  1  0
 12 33  1  0
 13 34  1  0
 14 35  1  0
 16 36  1  0
 16 37  1  0
 18 38  1  0
 19 39  1  0
 20 40  1  0
 21 41  1  0
 22 42  1  0
M  END
>  <score>  (1) 
-9.19

$$$$
=
     RDKit          3D

 42 44  0  0  0  0  0  0  0  0999 V2000
    0.8910   68.5520   66.6850 C   0  0  0  0  0  0  0  0  0  0  0  0
   -0.0060   69.0780   66.0310 O   0  0  0  0  0  0  0  0  0  0  0  0
    0.6790   67.7610   67.8120 N   0  0  0  0  0  0  0  0  0  0  0  0
   -0.6980   67.5270   68.2460 C   0  0  0  0  0  0  0  0  0  0  0  0
   -0.8710   66.1130   68.7880 C   0  0  0  0  0  0  0  0  0  0  0  0
    0.0340   65.8480   70.0080 C   0  0  0  0  0  0  0  0  0  0  0  0
    1.3050   66.7200   69.9740 C   0  0  0  0  0  0  0  0  0  0  0  0
    1.7380   67.0750   68.5550 C   0  0  0  0  0  0  0  0  0  0  0  0
    2.8010   70.1240   68.0470 F   0  0  0  0  0  0  0  0  0  0  0  0
    3.1590   69.5360   66.8970 C   0  0  0  0  0  0  0  0  0  0  0  0
    4.4520   69.7250   66.4180 C   0  0  0  0  0  0  0  0  0  0  0  0
    4.8450   69.1120   65.2260 C   0  0  0  0  0  0  0  0  0  0  0  0
    3.9430   68.3150   64.5160 C   0  0  0  0  0  0  0  0  0  0  0  0
    2.6470   68.1250   64.9970 C   0  0  0  0  0  0  0  0  0  0  0  0
    2.2650   68.7280   66.1990 C   0  0  0  0  0  0  0  0  0  0  0  0
    0.3980   64.3530   70.1290 C   0  0  0  0  0  0  0  0  0  0  0  0
    0.8040   63.9410   71.5240 C   0  0  0  0  0  0  0  0  0  0  0  0
    0.0540   64.3530   72.6340 C   0  0  0  0  0  0  0  0  0  0  0  0
    0.4250   63.9660   73.9220 C   0  0  0  0  0  0  0  0  0  0  0  0
    1.5470   63.1640   74.1150 C   0  0  0  0  0  0  0  0  0  0  0  0
    2.3010   62.7490   73.0200 C   0  0  0  0  0  0  0  0  0  0  0  0
    1.9330   63.1360   71.7300 C   0  0  0  0  0  0  0  0  0  0  0  0
   -0.9528   68.2482   69.0366 H   0  0  0  0  0  0  0  0  0  0  0  0
   -1.3631   67.6520   67.3788 H   0  0  0  0  0  0  0  0  0  0  0  0
   -1.9203   65.9730   69.0870 H   0  0  0  0  0  0  0  0  0  0  0  0
   -0.5864   65.4072   67.9938 H   0  0  0  0  0  0  0  0  0  0  0  0
   -0.5418   66.1292   70.9020 H   0  0  0  0  0  0  0  0  0  0  0  0
    1.1076   67.6514   70.5250 H   0  0  0  0  0  0  0  0  0  0  0  0
    2.1183   66.1396   70.4340 H   0  0  0  0  0  0  0  0  0  0  0  0
    2.0025   66.1494   68.0227 H   0  0  0  0  0  0  0  0  0  0  0  0
    2.5994   67.7556   68.6237 H   0  0  0  0  0  0  0  0  0  0  0  0
    5.1613   70.3543   66.9756 H   0  0  0  0  0  0  0  0  0  0  0  0
    5.8668   69.2569   64.8453 H   0  0  0  0  0  0  0  0  0  0  0  0
    4.2553   67.8365   63.5761 H   0  0  0  0  0  0  0  0  0  0  0  0
    1.9320   67.5060   64.4352 H   0  0  0  0  0  0  0  0  0  0  0  0
   -0.4770   63.7567   69.8310 H   0  0  0  0  0  0  0  0  0  0  0  0
    1.2654   64.1781   69.4755 H   0  0  0  0  0  0  0  0  0  0  0  0
   -0.8337   64.9861   72.4886 H   0  0  0  0  0  0  0  0  0  0  0  0
   -0.1699   64.2950   74.7868 H   0  0  0  0  0  0  0  0  0  0  0  0
    1.8374   62.8586   75.1311 H   0  0  0  0  0  0  0  0  0  0  0  0
    3.1875   62.1156   73.1717 H   0  0  0  0  0  0  0  0  0  0  0  0
    2.5333   62.8068   70.8690 H   0  0  0  0  0  0  0  0  0  0  0  0
  2  1  2  0
  3  1  1  0
  4  3  1  0
  5  4  1  0
  6  5  1  0
  7  6  1  0
  8  3  1  0
  8  7  1  0
 10  9  1  0
 11 10  2  0
 12 11  1  0
 13 12  2  0
 14 13  1  0
 15 14  2  0
 15 10  1  0
 15  1  1  0
 16  6  1  0
 17 16  1  0
 18 17  2  0
 19 18  1  0
 20 19  2  0
 21 20  1  0
 22 21  2  0
 22 17  1  0
  4 23  1  0
  4 24  1  0
  5 25  1  0
  5 26  1  0
  6 27  1  0
  7 28  1  0
  7 29  1  0
  8 30  1  0
  8 31  1  0
 11 32  1  0
 12 33  1  0
 13 34  1  0
 14 35  1  0
 16 36  1  0
 16 37  1  0
 18 38  1  0
 19 39  1  0
 20 40  1  0
 21 41  1  0
 22 42  1  0
M  END
>  <score>  (2) 
-9.104

$$$$
=
     RDKit          3D

 42 44  0  0  0  0  0  0  0  0999 V2000
    1.3990   62.3740   73.3140 C   0  0  0  0  0  0  0  0  0  0  0  0
    1.1030   62.4060   74.5070 O   0  0  0  0  0  0  0  0  0  0  0  0
    0.8990   63.2570   72.3590 N   0  0  0  0  0  0  0  0  0  0  0  0
   -0.0280   64.2990   72.7970 C   0  0  0  0  0  0  0  0  0  0  0  0
    0.1980   65.5950   72.0270 C   0  0  0  0  0  0  0  0  0  0  0  0
   -0.0170   65.4100   70.5110 C   0  0  0  0  0  0  0  0  0  0  0  0
    0.2680   63.9620   70.0670 C   0  0  0  0  0  0  0  0  0  0  0  0
    1.3000   63.2680   70.9510 C   0  0  0  0  0  0  0  0  0  0  0  0
    0.6880   59.7520   72.5450 F   0  0  0  0  0  0  0  0  0  0  0  0
    1.9850   60.0870   72.5520 C   0  0  0  0  0  0  0  0  0  0  0  0
    2.9290   59.1320   72.1850 C   0  0  0  0  0  0  0  0  0  0  0  0
    4.2860   59.4670   72.1780 C   0  0  0  0  0  0  0  0  0  0  0  0
    4.6930   60.7530   72.5410 C   0  0  0  0  0  0  0  0  0  0  0  0
    3.7460   61.7100   72.9080 C   0  0  0  0  0  0  0  0  0  0  0  0
    2.3900   61.3740   72.8970 C   0  0  0  0  0  0  0  0  0  0  0  0
    0.8280   66.4110   69.6940 C   0  0  0  0  0  0  0  0  0  0  0  0
    0.0660   67.0680   68.5680 C   0  0  0  0  0  0  0  0  0  0  0  0
    0.6830   68.0300   67.7570 C   0  0  0  0  0  0  0  0  0  0  0  0
   -0.0190   68.6310   66.7110 C   0  0  0  0  0  0  0  0  0  0  0  0
   -1.3440   68.2780   66.4650 C   0  0  0  0  0  0  0  0  0  0  0  0
   -1.9690   67.3230   67.2650 C   0  0  0  0  0  0  0  0  0  0  0  0
   -1.2680   66.7210   68.3120 C   0  0  0  0  0  0  0  0  0  0  0  0
   -1.0595   63.9561   72.6280 H   0  0  0  0  0  0  0  0  0  0  0  0
    0.1452   64.4934   73.8658 H   0  0  0  0  0  0  0  0  0  0  0  0
   -0.5067   66.3549   72.3957 H   0  0  0  0  0  0  0  0  0  0  0  0
    1.2401   65.9086   72.1871 H   0  0  0  0  0  0  0  0  0  0  0  0
   -1.0781   65.6185   70.3094 H   0  0  0  0  0  0  0  0  0  0  0  0
   -0.6709   63.3903   70.1068 H   0  0  0  0  0  0  0  0  0  0  0  0
    0.6770   64.0015   69.0466 H   0  0  0  0  0  0  0  0  0  0  0  0
    2.2596   63.7979   70.8594 H   0  0  0  0  0  0  0  0  0  0  0  0
    1.3875   62.2242   70.6150 H   0  0  0  0  0  0  0  0  0  0  0  0
    2.6085   58.1185   71.9018 H   0  0  0  0  0  0  0  0  0  0  0  0
    5.0351   58.7163   71.8860 H   0  0  0  0  0  0  0  0  0  0  0  0
    5.7621   61.0118   72.5376 H   0  0  0  0  0  0  0  0  0  0  0  0
    4.0646   62.7205   73.2035 H   0  0  0  0  0  0  0  0  0  0  0  0
    1.1899   67.1965   70.3737 H   0  0  0  0  0  0  0  0  0  0  0  0
    1.6506   65.8411   69.2373 H   0  0  0  0  0  0  0  0  0  0  0  0
    1.7288   68.3137   67.9463 H   0  0  0  0  0  0  0  0  0  0  0  0
    0.4748   69.3846   66.0799 H   0  0  0  0  0  0  0  0  0  0  0  0
   -1.8963   68.7524   65.6404 H   0  0  0  0  0  0  0  0  0  0  0  0
   -3.0151   67.0433   67.0715 H   0  0  0  0  0  0  0  0  0  0  0  0
   -1.7664   65.9686   68.9409 H   0  0  0  0  0  0  0  0  0  0  0  0
  2  1  2  0
  3  1  1  0
  4  3  1  0
  5  4  1  0
  6  5  1  0
  7  6  1  0
  8  3  1  0
  8  7  1  0
 10  9  1  0
 11 10  2  0
 12 11  1  0
 13 12  2  0
 14 13  1  0
 15 14  2  0
 15 10  1  0
 15  1  1  0
 16  6  1  0
 17 16  1  0
 18 17  2  0
 19 18  1  0
 20 19  2  0
 21 20  1  0
 22 21  2  0
 22 17  1  0
  4 23  1  0
  4 24  1  0
  5 25  1  0
  5 26  1  0
  6 27  1  0
  7 28  1  0
  7 29  1  0
  8 30  1  0
  8 31  1  0
 11 32  1  0
 12 33  1  0
 13 34  1  0
 14 35  1  0
 16 36  1  0
 16 37  1  0
 18 38  1  0
 19 39  1  0
 20 40  1  0
 21 41  1  0
 22 42  1  0
M  END
>  <score>  (3) 
-8.755

$$$$
=
     RDKit          3D

 42 44  0  0  0  0  0  0  0  0999 V2000
    1.1240   59.8610   74.9200 C   0  0  0  0  0  0  0  0  0  0  0  0
    1.7610   59.9780   75.9640 O   0  0  0  0  0  0  0  0  0  0  0  0
    0.7290   60.9300   74.1180 N   0  0  0  0  0  0  0  0  0  0  0  0
    1.1020   62.2820   74.5320 C   0  0  0  0  0  0  0  0  0  0  0  0
    1.4360   63.1530   73.3270 C   0  0  0  0  0  0  0  0  0  0  0  0
    0.2380   63.2920   72.3660 C   0  0  0  0  0  0  0  0  0  0  0  0
   -0.6990   62.0720   72.4440 C   0  0  0  0  0  0  0  0  0  0  0  0
    0.0320   60.7920   72.8380 C   0  0  0  0  0  0  0  0  0  0  0  0
    2.9460   58.3060   73.4250 F   0  0  0  0  0  0  0  0  0  0  0  0
    1.7470   57.7830   73.7150 C   0  0  0  0  0  0  0  0  0  0  0  0
    1.4450   56.5010   73.2670 C   0  0  0  0  0  0  0  0  0  0  0  0
    0.2020   55.9360   73.5680 C   0  0  0  0  0  0  0  0  0  0  0  0
   -0.7340   56.6590   74.3120 C   0  0  0  0  0  0  0  0  0  0  0  0
   -0.4300   57.9440   74.7620 C   0  0  0  0  0  0  0  0  0  0  0  0
    0.8210   58.4960   74.4720 C   0  0  0  0  0  0  0  0  0  0  0  0
    0.7020   63.5360   70.9140 C   0  0  0  0  0  0  0  0  0  0  0  0
    2.1070   63.0550   70.6400 C   0  0  0  0  0  0  0  0  0  0  0  0
    2.3490   61.7120   70.3190 C   0  0  0  0  0  0  0  0  0  0  0  0
    3.6460   61.2690   70.0580 C   0  0  0  0  0  0  0  0  0  0  0  0
    4.7140   62.1610   70.1150 C   0  0  0  0  0  0  0  0  0  0  0  0
    4.4870   63.4990   70.4340 C   0  0  0  0  0  0  0  0  0  0  0  0
    3.1900   63.9440   70.6970 C   0  0  0  0  0  0  0  0  0  0  0  0
    0.2624   62.7342   75.0803 H   0  0  0  0  0  0  0  0  0  0  0  0
    1.9931   62.2172   75.1736 H   0  0  0  0  0  0  0  0  0  0  0  0
    1.7254   64.1534   73.6810 H   0  0  0  0  0  0  0  0  0  0  0  0
    2.2589   62.6724   72.7775 H   0  0  0  0  0  0  0  0  0  0  0  0
   -0.3334   64.1740   72.6909 H   0  0  0  0  0  0  0  0  0  0  0  0
   -1.4800   62.2754   73.1914 H   0  0  0  0  0  0  0  0  0  0  0  0
   -1.1253   61.9160   71.4420 H   0  0  0  0  0  0  0  0  0  0  0  0
    0.7679   60.5487   72.0574 H   0  0  0  0  0  0  0  0  0  0  0  0
   -0.7160   59.9923   72.9430 H   0  0  0  0  0  0  0  0  0  0  0  0
    2.1812   55.9341   72.6783 H   0  0  0  0  0  0  0  0  0  0  0  0
   -0.0393   54.9212   73.2187 H   0  0  0  0  0  0  0  0  0  0  0  0
   -1.7129   56.2139   74.5434 H   0  0  0  0  0  0  0  0  0  0  0  0
   -1.1688   58.5182   75.3404 H   0  0  0  0  0  0  0  0  0  0  0  0
    0.0152   63.0082   70.2360 H   0  0  0  0  0  0  0  0  0  0  0  0
    0.6958   64.6239   70.7516 H   0  0  0  0  0  0  0  0  0  0  0  0
    1.5100   61.0021   70.2726 H   0  0  0  0  0  0  0  0  0  0  0  0
    3.8254   60.2132   69.8067 H   0  0  0  0  0  0  0  0  0  0  0  0
    5.7359   61.8101   69.9085 H   0  0  0  0  0  0  0  0  0  0  0  0
    5.3299   64.2043   70.4785 H   0  0  0  0  0  0  0  0  0  0  0  0
    3.0163   65.0001   70.9509 H   0  0  0  0  0  0  0  0  0  0  0  0
  2  1  2  0
  3  1  1  0
  4  3  1  0
  5  4  1  0
  6  5  1  0
  7  6  1  0
  8  3  1  0
  8  7  1  0
 10  9  1  0
 11 10  2  0
 12 11  1  0
 13 12  2  0
 14 13  1  0
 15 14  2  0
 15 10  1  0
 15  1  1  0
 16  6  1  0
 17 16  1  0
 18 17  2  0
 19 18  1  0
 20 19  2  0
 21 20  1  0
 22 21  2  0
 22 17  1  0
  4 23  1  0
  4 24  1  0
  5 25  1  0
  5 26  1  0
  6 27  1  0
  7 28  1  0
  7 29  1  0
  8 30  1  0
  8 31  1  0
 11 32  1  0
 12 33  1  0
 13 34  1  0
 14 35  1  0
 16 36  1  0
 16 37  1  0
 18 38  1  0
 19 39  1  0
 20 40  1  0
 21 41  1  0
 22 42  1  0
M  END
>  <score>  (4) 
-8.452

$$$$
=
     RDKit          3D

 42 44  0  0  0  0  0  0  0  0999 V2000
    2.0200   56.5910   75.5860 C   0  0  0  0  0  0  0  0  0  0  0  0
    2.4340   56.4930   76.7390 O   0  0  0  0  0  0  0  0  0  0  0  0
    2.3270   57.6470   74.7300 N   0  0  0  0  0  0  0  0  0  0  0  0
    3.2080   58.7050   75.2230 C   0  0  0  0  0  0  0  0  0  0  0  0
    4.1250   59.2150   74.1180 C   0  0  0  0  0  0  0  0  0  0  0  0
    3.3320   59.8060   72.9360 C   0  0  0  0  0  0  0  0  0  0  0  0
    1.9350   59.1670   72.8120 C   0  0  0  0  0  0  0  0  0  0  0  0
    1.8940   57.7350   73.3350 C   0  0  0  0  0  0  0  0  0  0  0  0
   -0.7960   56.5590   75.7940 F   0  0  0  0  0  0  0  0  0  0  0  0
   -0.1840   55.5110   75.2260 C   0  0  0  0  0  0  0  0  0  0  0  0
   -0.9570   54.4490   74.7660 C   0  0  0  0  0  0  0  0  0  0  0  0
   -0.3370   53.3510   74.1630 C   0  0  0  0  0  0  0  0  0  0  0  0
    1.0530   53.3190   74.0260 C   0  0  0  0  0  0  0  0  0  0  0  0
    1.8280   54.3850   74.4870 C   0  0  0  0  0  0  0  0  0  0  0  0
    1.2000   55.4870   75.0740 C   0  0  0  0  0  0  0  0  0  0  0  0
    4.1130   59.6810   71.6100 C   0  0  0  0  0  0  0  0  0  0  0  0
    4.0520   60.9230   70.7530 C   0  0  0  0  0  0  0  0  0  0  0  0
    3.2290   60.9640   69.6190 C   0  0  0  0  0  0  0  0  0  0  0  0
    3.1670   62.1140   68.8310 C   0  0  0  0  0  0  0  0  0  0  0  0
    3.9240   63.2340   69.1670 C   0  0  0  0  0  0  0  0  0  0  0  0
    4.7470   63.2040   70.2920 C   0  0  0  0  0  0  0  0  0  0  0  0
    4.8120   62.0540   71.0810 C   0  0  0  0  0  0  0  0  0  0  0  0
    2.5946   59.5392   75.5944 H   0  0  0  0  0  0  0  0  0  0  0  0
    3.8304   58.2930   76.0310 H   0  0  0  0  0  0  0  0  0  0  0  0
    4.7798   59.9959   74.5321 H   0  0  0  0  0  0  0  0  0  0  0  0
    4.7103   58.3629   73.7421 H   0  0  0  0  0  0  0  0  0  0  0  0
    3.1932   60.8768   73.1459 H   0  0  0  0  0  0  0  0  0  0  0  0
    1.2189   59.7723   73.3872 H   0  0  0  0  0  0  0  0  0  0  0  0
    1.6768   59.1377   71.7431 H   0  0  0  0  0  0  0  0  0  0  0  0
    2.5580   57.1124   72.7173 H   0  0  0  0  0  0  0  0  0  0  0  0
    0.8531   57.3835   73.2801 H   0  0  0  0  0  0  0  0  0  0  0  0
   -2.0512   54.4736   74.8765 H   0  0  0  0  0  0  0  0  0  0  0  0
   -0.9445   52.5107   73.7957 H   0  0  0  0  0  0  0  0  0  0  0  0
    1.5380   52.4519   73.5538 H   0  0  0  0  0  0  0  0  0  0  0  0
    2.9233   54.3577   74.3890 H   0  0  0  0  0  0  0  0  0  0  0  0
    5.1671   59.4725   71.8456 H   0  0  0  0  0  0  0  0  0  0  0  0
    3.6443   58.8689   71.0349 H   0  0  0  0  0  0  0  0  0  0  0  0
    2.6278   60.0835   69.3484 H   0  0  0  0  0  0  0  0  0  0  0  0
    2.5189   62.1361   67.9425 H   0  0  0  0  0  0  0  0  0  0  0  0
    3.8726   64.1404   68.5459 H   0  0  0  0  0  0  0  0  0  0  0  0
    5.3458   64.0875   70.5583 H   0  0  0  0  0  0  0  0  0  0  0  0
    5.4644   62.0355   71.9665 H   0  0  0  0  0  0  0  0  0  0  0  0
  2  1  2  0
  3  1  1  0
  4  3  1  0
  5  4  1  0
  6  5  1  0
  7  6  1  0
  8  3  1  0
  8  7  1  0
 10  9  1  0
 11 10  2  0
 12 11  1  0
 13 12  2  0
 14 13  1  0
 15 14  2  0
 15 10  1  0
 15  1  1  0
 16  6  1  0
 17 16  1  0
 18 17  2  0
 19 18  1  0
 20 19  2  0
 21 20  1  0
 22 21  2  0
 22 17  1  0
  4 23  1  0
  4 24  1  0
  5 25  1  0
  5 26  1  0
  6 27  1  0
  7 28  1  0
  7 29  1  0
  8 30  1  0
  8 31  1  0
 11 32  1  0
 12 33  1  0
 13 34  1  0
 14 35  1  0
 16 36  1  0
 16 37  1  0
 18 38  1  0
 19 39  1  0
 20 40  1  0
 21 41  1  0
 22 42  1  0
M  END
>  <score>  (5) 
-8.403

$$$$
=
     RDKit          3D

 42 44  0  0  0  0  0  0  0  0999 V2000
    0.1140   61.0490   73.6540 C   0  0  0  0  0  0  0  0  0  0  0  0
   -0.9330   60.4260   73.4970 O   0  0  0  0  0  0  0  0  0  0  0  0
    1.3820   60.5270   73.4100 N   0  0  0  0  0  0  0  0  0  0  0  0
    1.4830   59.1520   72.9220 C   0  0  0  0  0  0  0  0  0  0  0  0
    2.6220   59.0070   71.9210 C   0  0  0  0  0  0  0  0  0  0  0  0
    3.9870   59.3630   72.5440 C   0  0  0  0  0  0  0  0  0  0  0  0
    3.8400   60.3740   73.6970 C   0  0  0  0  0  0  0  0  0  0  0  0
    2.6280   61.2850   73.5300 C   0  0  0  0  0  0  0  0  0  0  0  0
    0.3620   63.2020   71.8440 F   0  0  0  0  0  0  0  0  0  0  0  0
    0.1560   63.4760   73.1390 C   0  0  0  0  0  0  0  0  0  0  0  0
    0.0760   64.8060   73.5420 C   0  0  0  0  0  0  0  0  0  0  0  0
   -0.1470   65.1110   74.8870 C   0  0  0  0  0  0  0  0  0  0  0  0
   -0.2860   64.0840   75.8250 C   0  0  0  0  0  0  0  0  0  0  0  0
   -0.2070   62.7500   75.4200 C   0  0  0  0  0  0  0  0  0  0  0  0
    0.0000   62.4530   74.0700 C   0  0  0  0  0  0  0  0  0  0  0  0
    4.9760   59.8850   71.4790 C   0  0  0  0  0  0  0  0  0  0  0  0
    4.4640   61.0820   70.7140 C   0  0  0  0  0  0  0  0  0  0  0  0
    4.9660   62.3630   70.9800 C   0  0  0  0  0  0  0  0  0  0  0  0
    4.4980   63.4690   70.2670 C   0  0  0  0  0  0  0  0  0  0  0  0
    3.5260   63.3050   69.2830 C   0  0  0  0  0  0  0  0  0  0  0  0
    3.0190   62.0360   69.0100 C   0  0  0  0  0  0  0  0  0  0  0  0
    3.4850   60.9290   69.7230 C   0  0  0  0  0  0  0  0  0  0  0  0
    1.6662   58.4810   73.7742 H   0  0  0  0  0  0  0  0  0  0  0  0
    0.5406   58.8900   72.4189 H   0  0  0  0  0  0  0  0  0  0  0  0
    2.6537   57.9659   71.5673 H   0  0  0  0  0  0  0  0  0  0  0  0
    2.4354   59.7037   71.0905 H   0  0  0  0  0  0  0  0  0  0  0  0
    4.4008   58.4343   72.9639 H   0  0  0  0  0  0  0  0  0  0  0  0
    3.7355   59.8187   74.6408 H   0  0  0  0  0  0  0  0  0  0  0  0
    4.7369   61.0108   73.6969 H   0  0  0  0  0  0  0  0  0  0  0  0
    2.7628   61.8919   72.6225 H   0  0  0  0  0  0  0  0  0  0  0  0
    2.5542   61.9183   74.4263 H   0  0  0  0  0  0  0  0  0  0  0  0
    0.1880   65.6140   72.8040 H   0  0  0  0  0  0  0  0  0  0  0  0
   -0.2133   66.1609   75.2083 H   0  0  0  0  0  0  0  0  0  0  0  0
   -0.4579   64.3271   76.8839 H   0  0  0  0  0  0  0  0  0  0  0  0
   -0.3068   61.9397   76.1572 H   0  0  0  0  0  0  0  0  0  0  0  0
    5.9119   60.1685   71.9827 H   0  0  0  0  0  0  0  0  0  0  0  0
    5.1224   59.0745   70.7498 H   0  0  0  0  0  0  0  0  0  0  0  0
    5.7340   62.4984   71.7558 H   0  0  0  0  0  0  0  0  0  0  0  0
    4.8976   64.4709   70.4828 H   0  0  0  0  0  0  0  0  0  0  0  0
    3.1587   64.1768   68.7216 H   0  0  0  0  0  0  0  0  0  0  0  0
    2.2516   61.9061   68.2327 H   0  0  0  0  0  0  0  0  0  0  0  0
    3.0805   59.9296   69.5050 H   0  0  0  0  0  0  0  0  0  0  0  0
  2  1  2  0
  3  1  1  0
  4  3  1  0
  5  4  1  0
  6  5  1  0
  7  6  1  0
  8  3  1  0
  8  7  1  0
 10  9  1  0
 11 10  2  0
 12 11  1  0
 13 12  2  0
 14 13  1  0
 15 14  2  0
 15 10  1  0
 15  1  1  0
 16  6  1  0
 17 16  1  0
 18 17  2  0
 19 18  1  0
 20 19  2  0
 21 20  1  0
 22 21  2  0
 22 17  1  0
  4 23  1  0
  4 24  1  0
  5 25  1  0
  5 26  1  0
  6 27  1  0
  7 28  1  0
  7 29  1  0
  8 30  1  0
  8 31  1  0
 11 32  1  0
 12 33  1  0
 13 34  1  0
 14 35  1  0
 16 36  1  0
 16 37  1  0
 18 38  1  0
 19 39  1  0
 20 40  1  0
 21 41  1  0
 22 42  1  0
M  END
>  <score>  (6) 
-8.222

$$$$
=
     RDKit          3D

 42 44  0  0  0  0  0  0  0  0999 V2000
    4.3000   61.1070   72.2850 C   0  0  0  0  0  0  0  0  0  0  0  0
    5.2390   61.5610   72.9360 O   0  0  0  0  0  0  0  0  0  0  0  0
    3.6320   59.9240   72.5920 N   0  0  0  0  0  0  0  0  0  0  0  0
    4.0590   59.1730   73.7720 C   0  0  0  0  0  0  0  0  0  0  0  0
    2.8680   58.5380   74.4790 C   0  0  0  0  0  0  0  0  0  0  0  0
    2.1150   57.5490   73.5670 C   0  0  0  0  0  0  0  0  0  0  0  0
    2.2680   57.9190   72.0780 C   0  0  0  0  0  0  0  0  0  0  0  0
    2.4700   59.4150   71.8610 C   0  0  0  0  0  0  0  0  0  0  0  0
    4.8540   60.4200   69.6030 F   0  0  0  0  0  0  0  0  0  0  0  0
    4.1520   61.5360   69.8450 C   0  0  0  0  0  0  0  0  0  0  0  0
    3.7270   62.3120   68.7710 C   0  0  0  0  0  0  0  0  0  0  0  0
    2.9860   63.4730   69.0050 C   0  0  0  0  0  0  0  0  0  0  0  0
    2.6760   63.8550   70.3130 C   0  0  0  0  0  0  0  0  0  0  0  0
    3.1010   63.0760   71.3900 C   0  0  0  0  0  0  0  0  0  0  0  0
    3.8280   61.9070   71.1480 C   0  0  0  0  0  0  0  0  0  0  0  0
    0.6240   57.4430   73.9560 C   0  0  0  0  0  0  0  0  0  0  0  0
    0.1760   56.0310   74.2510 C   0  0  0  0  0  0  0  0  0  0  0  0
    1.0310   54.9480   74.0050 C   0  0  0  0  0  0  0  0  0  0  0  0
    0.6200   53.6440   74.2840 C   0  0  0  0  0  0  0  0  0  0  0  0
   -0.6470   53.4090   74.8120 C   0  0  0  0  0  0  0  0  0  0  0  0
   -1.5070   54.4780   75.0600 C   0  0  0  0  0  0  0  0  0  0  0  0
   -1.0980   55.7830   74.7800 C   0  0  0  0  0  0  0  0  0  0  0  0
    4.7561   58.3810   73.4609 H   0  0  0  0  0  0  0  0  0  0  0  0
    4.5495   59.8678   74.4696 H   0  0  0  0  0  0  0  0  0  0  0  0
    3.2286   57.9982   75.3670 H   0  0  0  0  0  0  0  0  0  0  0  0
    2.1705   59.3415   74.7579 H   0  0  0  0  0  0  0  0  0  0  0  0
    2.5743   56.5606   73.7157 H   0  0  0  0  0  0  0  0  0  0  0  0
    3.1380   57.3836   71.6699 H   0  0  0  0  0  0  0  0  0  0  0  0
    1.3372   57.6319   71.5670 H   0  0  0  0  0  0  0  0  0  0  0  0
    1.5720   59.9482   72.2062 H   0  0  0  0  0  0  0  0  0  0  0  0
    2.6444   59.5818   70.7878 H   0  0  0  0  0  0  0  0  0  0  0  0
    3.9735   62.0124   67.7417 H   0  0  0  0  0  0  0  0  0  0  0  0
    2.6460   64.0874   68.1583 H   0  0  0  0  0  0  0  0  0  0  0  0
    2.0957   64.7718   70.4940 H   0  0  0  0  0  0  0  0  0  0  0  0
    2.8658   63.3794   72.4208 H   0  0  0  0  0  0  0  0  0  0  0  0
    0.4540   58.0566   74.8530 H   0  0  0  0  0  0  0  0  0  0  0  0
    0.0392   57.7938   73.0929 H   0  0  0  0  0  0  0  0  0  0  0  0
    2.0334   55.1273   73.5889 H   0  0  0  0  0  0  0  0  0  0  0  0
    1.2978   52.8004   74.0866 H   0  0  0  0  0  0  0  0  0  0  0  0
   -0.9690   52.3807   75.0332 H   0  0  0  0  0  0  0  0  0  0  0  0
   -2.5082   54.2930   75.4765 H   0  0  0  0  0  0  0  0  0  0  0  0
   -1.7807   56.6230   74.9760 H   0  0  0  0  0  0  0  0  0  0  0  0
  2  1  2  0
  3  1  1  0
  4  3  1  0
  5  4  1  0
  6  5  1  0
  7  6  1  0
  8  3  1  0
  8  7  1  0
 10  9  1  0
 11 10  2  0
 12 11  1  0
 13 12  2  0
 14 13  1  0
 15 14  2  0
 15 10  1  0
 15  1  1  0
 16  6  1  0
 17 16  1  0
 18 17  2  0
 19 18  1  0
 20 19  2  0
 21 20  1  0
 22 21  2  0
 22 17  1  0
  4 23  1  0
  4 24  1  0
  5 25  1  0
  5 26  1  0
  6 27  1  0
  7 28  1  0
  7 29  1  0
  8 30  1  0
  8 31  1  0
 11 32  1  0
 12 33  1  0
 13 34  1  0
 14 35  1  0
 16 36  1  0
 16 37  1  0
 18 38  1  0
 19 39  1  0
 20 40  1  0
 21 41  1  0
 22 42  1  0
M  END
>  <score>  (7) 
-8.211

$$$$
=
     RDKit          3D

 42 44  0  0  0  0  0  0  0  0999 V2000
    0.1230   58.2930   74.0190 C   0  0  0  0  0  0  0  0  0  0  0  0
   -0.3960   57.2140   74.2960 O   0  0  0  0  0  0  0  0  0  0  0  0
    1.2840   58.4320   73.2610 N   0  0  0  0  0  0  0  0  0  0  0  0
    1.9250   57.2220   72.7480 C   0  0  0  0  0  0  0  0  0  0  0  0
    2.5130   57.4580   71.3610 C   0  0  0  0  0  0  0  0  0  0  0  0
    3.5860   58.5650   71.3700 C   0  0  0  0  0  0  0  0  0  0  0  0
    3.3440   59.5840   72.5010 C   0  0  0  0  0  0  0  0  0  0  0  0
    1.8700   59.7150   72.8690 C   0  0  0  0  0  0  0  0  0  0  0  0
    0.6690   59.5210   76.5020 F   0  0  0  0  0  0  0  0  0  0  0  0
   -0.2790   60.0550   75.7190 C   0  0  0  0  0  0  0  0  0  0  0  0
   -0.9570   61.1870   76.1590 C   0  0  0  0  0  0  0  0  0  0  0  0
   -1.9420   61.7630   75.3510 C   0  0  0  0  0  0  0  0  0  0  0  0
   -2.2460   61.2010   74.1080 C   0  0  0  0  0  0  0  0  0  0  0  0
   -1.5640   60.0650   73.6670 C   0  0  0  0  0  0  0  0  0  0  0  0
   -0.5690   59.5050   74.4730 C   0  0  0  0  0  0  0  0  0  0  0  0
    3.6780   59.2760   70.0020 C   0  0  0  0  0  0  0  0  0  0  0  0
    3.8930   60.7670   70.1090 C   0  0  0  0  0  0  0  0  0  0  0  0
    4.9990   61.2770   70.8040 C   0  0  0  0  0  0  0  0  0  0  0  0
    5.2020   62.6550   70.8970 C   0  0  0  0  0  0  0  0  0  0  0  0
    4.3050   63.5350   70.2970 C   0  0  0  0  0  0  0  0  0  0  0  0
    3.2020   63.0400   69.6040 C   0  0  0  0  0  0  0  0  0  0  0  0
    2.9960   61.6620   69.5110 C   0  0  0  0  0  0  0  0  0  0  0  0
    2.7315   56.9242   73.4342 H   0  0  0  0  0  0  0  0  0  0  0  0
    1.1664   56.4287   72.6755 H   0  0  0  0  0  0  0  0  0  0  0  0
    2.9702   56.5229   71.0052 H   0  0  0  0  0  0  0  0  0  0  0  0
    1.6978   57.7800   70.6964 H   0  0  0  0  0  0  0  0  0  0  0  0
    4.5515   58.0741   71.5621 H   0  0  0  0  0  0  0  0  0  0  0  0
    3.9018   59.2600   73.3920 H   0  0  0  0  0  0  0  0  0  0  0  0
    3.6857   60.5661   72.1423 H   0  0  0  0  0  0  0  0  0  0  0  0
    1.3206   60.1049   71.9994 H   0  0  0  0  0  0  0  0  0  0  0  0
    1.7948   60.3982   73.7278 H   0  0  0  0  0  0  0  0  0  0  0  0
   -0.7192   61.6272   77.1386 H   0  0  0  0  0  0  0  0  0  0  0  0
   -2.4785   62.6599   75.6942 H   0  0  0  0  0  0  0  0  0  0  0  0
   -3.0238   61.6543   73.4760 H   0  0  0  0  0  0  0  0  0  0  0  0
   -1.8079   59.6147   72.6935 H   0  0  0  0  0  0  0  0  0  0  0  0
    4.5190   58.8427   69.4407 H   0  0  0  0  0  0  0  0  0  0  0  0
    2.7140   59.1246   69.4942 H   0  0  0  0  0  0  0  0  0  0  0  0
    5.7114   60.5866   71.2791 H   0  0  0  0  0  0  0  0  0  0  0  0
    6.0718   63.0462   71.4450 H   0  0  0  0  0  0  0  0  0  0  0  0
    4.4670   64.6205   70.3700 H   0  0  0  0  0  0  0  0  0  0  0  0
    2.4933   63.7350   69.1300 H   0  0  0  0  0  0  0  0  0  0  0  0
    2.1230   61.2762   68.9642 H   0  0  0  0  0  0  0  0  0  0  0  0
  2  1  2  0
  3  1  1  0
  4  3  1  0
  5  4  1  0
  6  5  1  0
  7  6  1  0
  8  3  1  0
  8  7  1  0
 10  9  1  0
 11 10  2  0
 12 11  1  0
 13 12  2  0
 14 13  1  0
 15 14  2  0
 15 10  1  0
 15  1  1  0
 16  6  1  0
 17 16  1  0
 18 17  2  0
 19 18  1  0
 20 19  2  0
 21 20  1  0
 22 21  2  0
 22 17  1  0
  4 23  1  0
  4 24  1  0
  5 25  1  0
  5 26  1  0
  6 27  1  0
  7 28  1  0
  7 29  1  0
  8 30  1  0
  8 31  1  0
 11 32  1  0
 12 33  1  0
 13 34  1  0
 14 35  1  0
 16 36  1  0
 16 37  1  0
 18 38  1  0
 19 39  1  0
 20 40  1  0
 21 41  1  0
 22 42  1  0
M  END
>  <score>  (8) 
-8.142

$$$$
=
     RDKit          3D

 42 44  0  0  0  0  0  0  0  0999 V2000
    3.6370   61.1660   72.6610 C   0  0  0  0  0  0  0  0  0  0  0  0
    4.7190   61.1900   73.2450 O   0  0  0  0  0  0  0  0  0  0  0  0
    2.4380   60.7740   73.2500 N   0  0  0  0  0  0  0  0  0  0  0  0
    2.4540   60.3740   74.6570 C   0  0  0  0  0  0  0  0  0  0  0  0
    1.1860   60.8250   75.3710 C   0  0  0  0  0  0  0  0  0  0  0  0
   -0.0810   60.2080   74.7440 C   0  0  0  0  0  0  0  0  0  0  0  0
    0.1230   59.8860   73.2500 C   0  0  0  0  0  0  0  0  0  0  0  0
    1.1360   60.8100   72.5810 C   0  0  0  0  0  0  0  0  0  0  0  0
    3.8950   59.4300   70.4490 F   0  0  0  0  0  0  0  0  0  0  0  0
    3.7730   60.7450   70.2200 C   0  0  0  0  0  0  0  0  0  0  0  0
    3.7820   61.2030   68.9060 C   0  0  0  0  0  0  0  0  0  0  0  0
    3.6470   62.5700   68.6480 C   0  0  0  0  0  0  0  0  0  0  0  0
    3.5080   63.4730   69.7050 C   0  0  0  0  0  0  0  0  0  0  0  0
    3.4980   63.0120   71.0230 C   0  0  0  0  0  0  0  0  0  0  0  0
    3.6170   61.6430   71.2730 C   0  0  0  0  0  0  0  0  0  0  0  0
   -1.3130   61.1160   74.9470 C   0  0  0  0  0  0  0  0  0  0  0  0
   -2.6210   60.3620   74.9780 C   0  0  0  0  0  0  0  0  0  0  0  0
   -3.7940   60.9520   74.4890 C   0  0  0  0  0  0  0  0  0  0  0  0
   -5.0020   60.2530   74.5120 C   0  0  0  0  0  0  0  0  0  0  0  0
   -5.0490   58.9570   75.0200 C   0  0  0  0  0  0  0  0  0  0  0  0
   -3.8890   58.3590   75.5100 C   0  0  0  0  0  0  0  0  0  0  0  0
   -2.6800   59.0580   75.4900 C   0  0  0  0  0  0  0  0  0  0  0  0
    2.5300   59.2783   74.7180 H   0  0  0  0  0  0  0  0  0  0  0  0
    3.3173   60.8497   75.1452 H   0  0  0  0  0  0  0  0  0  0  0  0
    1.2449   60.5196   76.4261 H   0  0  0  0  0  0  0  0  0  0  0  0
    1.1137   61.9186   75.2766 H   0  0  0  0  0  0  0  0  0  0  0  0
   -0.2705   59.2598   75.2684 H   0  0  0  0  0  0  0  0  0  0  0  0
    0.4788   58.8491   73.1590 H   0  0  0  0  0  0  0  0  0  0  0  0
   -0.8431   60.0307   72.7442 H   0  0  0  0  0  0  0  0  0  0  0  0
    0.7504   61.8398   72.6099 H   0  0  0  0  0  0  0  0  0  0  0  0
    1.2768   60.4663   71.5456 H   0  0  0  0  0  0  0  0  0  0  0  0
    3.8949   60.4923   68.0740 H   0  0  0  0  0  0  0  0  0  0  0  0
    3.6502   62.9357   67.6106 H   0  0  0  0  0  0  0  0  0  0  0  0
    3.4063   64.5487   69.4986 H   0  0  0  0  0  0  0  0  0  0  0  0
    3.3972   63.7213   71.8577 H   0  0  0  0  0  0  0  0  0  0  0  0
   -1.1973   61.6510   75.9011 H   0  0  0  0  0  0  0  0  0  0  0  0
   -1.3551   61.7998   74.0864 H   0  0  0  0  0  0  0  0  0  0  0  0
   -3.7627   61.9742   74.0838 H   0  0  0  0  0  0  0  0  0  0  0  0
   -5.9179   60.7263   74.1285 H   0  0  0  0  0  0  0  0  0  0  0  0
   -6.0008   58.4057   75.0345 H   0  0  0  0  0  0  0  0  0  0  0  0
   -3.9259   57.3360   75.9126 H   0  0  0  0  0  0  0  0  0  0  0  0
   -1.7676   58.5821   75.8787 H   0  0  0  0  0  0  0  0  0  0  0  0
  2  1  2  0
  3  1  1  0
  4  3  1  0
  5  4  1  0
  6  5  1  0
  7  6  1  0
  8  3  1  0
  8  7  1  0
 10  9  1  0
 11 10  2  0
 12 11  1  0
 13 12  2  0
 14 13  1  0
 15 14  2  0
 15 10  1  0
 15  1  1  0
 16  6  1  0
 17 16  1  0
 18 17  2  0
 19 18  1  0
 20 19  2  0
 21 20  1  0
 22 21  2  0
 22 17  1  0
  4 23  1  0
  4 24  1  0
  5 25  1  0
  5 26  1  0
  6 27  1  0
  7 28  1  0
  7 29  1  0
  8 30  1  0
  8 31  1  0
 11 32  1  0
 12 33  1  0
 13 34  1  0
 14 35  1  0
 16 36  1  0
 16 37  1  0
 18 38  1  0
 19 39  1  0
 20 40  1  0
 21 41  1  0
 22 42  1  0
M  END
>  <score>  (9) 
-7.794

$$$$
