=
     RDKit          3D

 12 11  0  0  0  0  0  0  0  0999 V2000
    6.1650   71.0660   68.3890 S   0  0  0  0  0  6  0  0  0  0  0  0
    6.2880   70.0610   67.3540 O   0  0  0  0  0  0  0  0  0  0  0  0
    5.9230   72.4600   68.0820 O   0  0  0  0  0  0  0  0  0  0  0  0
    7.5750   70.9550   69.4630 C   0  0  0  0  0  0  0  0  0  0  0  0
    3.6990   70.8900   69.1840 C   0  0  0  0  0  0  0  0  0  0  0  0
    5.0480   70.5690   69.4650 O   0  0  0  0  0  0  0  0  0  0  0  0
    7.2409   70.9813   70.5107 H   0  0  0  0  0  0  0  0  0  0  0  0
    8.1083   70.0121   69.2718 H   0  0  0  0  0  0  0  0  0  0  0  0
    8.2492   71.8028   69.2718 H   0  0  0  0  0  0  0  0  0  0  0  0
    3.1490   71.0209   70.1276 H   0  0  0  0  0  0  0  0  0  0  0  0
    3.6575   71.8231   68.6030 H   0  0  0  0  0  0  0  0  0  0  0  0
    3.2417   70.0756   68.6030 H   0  0  0  0  0  0  0  0  0  0  0  0
  2  1  2  0
  3  1  2  0
  4  1  1  0
  6  5  1  0
  6  1  1  0
  4  7  1  0
  4  8  1  0
  4  9  1  0
  5 10  1  0
  5 11  1  0
  5 12  1  0
M  END
>  <score>  (1) 
-3.889

$$$$
=
     RDKit          3D

 12 11  0  0  0  0  0  0  0  0999 V2000
    6.1160   71.1480   68.5530 S   0  0  0  0  0  6  0  0  0  0  0  0
    7.1570   70.8050   69.4980 O   0  0  0  0  0  0  0  0  0  0  0  0
    5.9790   72.4850   68.0130 O   0  0  0  0  0  0  0  0  0  0  0  0
    4.5510   70.6360   69.2170 C   0  0  0  0  0  0  0  0  0  0  0  0
    4.9490   69.8050   66.6610 C   0  0  0  0  0  0  0  0  0  0  0  0
    6.1700   70.0910   67.3150 O   0  0  0  0  0  0  0  0  0  0  0  0
    4.5964   70.6509   70.3160 H   0  0  0  0  0  0  0  0  0  0  0  0
    3.7642   71.3236   68.8732 H   0  0  0  0  0  0  0  0  0  0  0  0
    4.3227   69.6163   68.8732 H   0  0  0  0  0  0  0  0  0  0  0  0
    4.1655   69.6215   67.4110 H   0  0  0  0  0  0  0  0  0  0  0  0
    4.6611   70.6600   66.0317 H   0  0  0  0  0  0  0  0  0  0  0  0
    5.0707   68.9111   66.0317 H   0  0  0  0  0  0  0  0  0  0  0  0
  2  1  2  0
  3  1  2  0
  4  1  1  0
  6  5  1  0
  6  1  1  0
  4  7  1  0
  4  8  1  0
  4  9  1  0
  5 10  1  0
  5 11  1  0
  5 12  1  0
M  END
>  <score>  (2) 
-3.854

$$$$
=
     RDKit          3D

 12 11  0  0  0  0  0  0  0  0999 V2000
   -0.5970   67.8680   66.6790 S   0  0  0  0  0  6  0  0  0  0  0  0
    0.2270   66.8140   66.1250 O   0  0  0  0  0  0  0  0  0  0  0  0
   -0.0540   68.8920   67.5460 O   0  0  0  0  0  0  0  0  0  0  0  0
   -2.0050   67.1330   67.4730 C   0  0  0  0  0  0  0  0  0  0  0  0
   -2.7950   68.7690   65.6290 C   0  0  0  0  0  0  0  0  0  0  0  0
   -1.4020   68.5910   65.4610 O   0  0  0  0  0  0  0  0  0  0  0  0
   -1.8846   67.1958   68.5646 H   0  0  0  0  0  0  0  0  0  0  0  0
   -2.9169   67.6701   67.1731 H   0  0  0  0  0  0  0  0  0  0  0  0
   -2.0857   66.0777   67.1731 H   0  0  0  0  0  0  0  0  0  0  0  0
   -3.0339   68.7995   66.7023 H   0  0  0  0  0  0  0  0  0  0  0  0
   -3.1034   69.7139   65.1577 H   0  0  0  0  0  0  0  0  0  0  0  0
   -3.3311   67.9321   65.1577 H   0  0  0  0  0  0  0  0  0  0  0  0
  2  1  2  0
  3  1  2  0
  4  1  1  0
  6  5  1  0
  6  1  1  0
  4  7  1  0
  4  8  1  0
  4  9  1  0
  5 10  1  0
  5 11  1  0
  5 12  1  0
M  END
>  <score>  (3) 
-3.478

$$$$
=
     RDKit          3D

 12 11  0  0  0  0  0  0  0  0999 V2000
   -0.4620   67.4780   67.2970 S   0  0  0  0  0  6  0  0  0  0  0  0
   -0.0780   68.8380   67.6110 O   0  0  0  0  0  0  0  0  0  0  0  0
    0.0070   66.8020   66.1060 O   0  0  0  0  0  0  0  0  0  0  0  0
   -2.2330   67.3550   67.3640 C   0  0  0  0  0  0  0  0  0  0  0  0
    0.9900   66.8790   69.3660 C   0  0  0  0  0  0  0  0  0  0  0  0
   -0.1420   66.5380   68.5890 O   0  0  0  0  0  0  0  0  0  0  0  0
   -2.5595   67.3323   68.4142 H   0  0  0  0  0  0  0  0  0  0  0  0
   -2.6803   68.2242   66.8597 H   0  0  0  0  0  0  0  0  0  0  0  0
   -2.5558   66.4323   66.8597 H   0  0  0  0  0  0  0  0  0  0  0  0
    0.7380   66.8031   70.4341 H   0  0  0  0  0  0  0  0  0  0  0  0
    1.8151   66.1896   69.1340 H   0  0  0  0  0  0  0  0  0  0  0  0
    1.2970   67.9095   69.1340 H   0  0  0  0  0  0  0  0  0  0  0  0
  2  1  2  0
  3  1  2  0
  4  1  1  0
  6  5  1  0
  6  1  1  0
  4  7  1  0
  4  8  1  0
  4  9  1  0
  5 10  1  0
  5 11  1  0
  5 12  1  0
M  END
>  <score>  (4) 
-3.476

$$$$
=
     RDKit          3D

 12 11  0  0  0  0  0  0  0  0999 V2000
   -0.4980   67.3370   67.2220 S   0  0  0  0  0  6  0  0  0  0  0  0
   -0.5520   66.5560   68.4400 O   0  0  0  0  0  0  0  0  0  0  0  0
    0.0640   66.8110   65.9960 O   0  0  0  0  0  0  0  0  0  0  0  0
    0.2700   68.8980   67.5790 C   0  0  0  0  0  0  0  0  0  0  0  0
   -2.1070   68.8510   65.8580 C   0  0  0  0  0  0  0  0  0  0  0  0
   -1.9900   67.9100   66.9070 O   0  0  0  0  0  0  0  0  0  0  0  0
    0.3365   69.0332   68.6686 H   0  0  0  0  0  0  0  0  0  0  0  0
    1.2805   68.9173   67.1447 H   0  0  0  0  0  0  0  0  0  0  0  0
   -0.3313   69.7103   67.1447 H   0  0  0  0  0  0  0  0  0  0  0  0
   -2.2323   69.8585   66.2815 H   0  0  0  0  0  0  0  0  0  0  0  0
   -1.1986   68.8241   65.2383 H   0  0  0  0  0  0  0  0  0  0  0  0
   -2.9812   68.6024   65.2383 H   0  0  0  0  0  0  0  0  0  0  0  0
  2  1  2  0
  3  1  2  0
  4  1  1  0
  6  5  1  0
  6  1  1  0
  4  7  1  0
  4  8  1  0
  4  9  1  0
  5 10  1  0
  5 11  1  0
  5 12  1  0
M  END
>  <score>  (5) 
-3.453

$$$$
=
     RDKit          3D

 12 11  0  0  0  0  0  0  0  0999 V2000
   -0.9220   68.1080   66.5380 S   0  0  0  0  0  6  0  0  0  0  0  0
   -0.2290   69.0090   67.4350 O   0  0  0  0  0  0  0  0  0  0  0  0
   -1.5560   68.5710   65.3220 O   0  0  0  0  0  0  0  0  0  0  0  0
   -2.1000   67.1650   67.4750 C   0  0  0  0  0  0  0  0  0  0  0  0
    1.3570   67.2170   65.6680 C   0  0  0  0  0  0  0  0  0  0  0  0
    0.0780   66.8770   66.1660 O   0  0  0  0  0  0  0  0  0  0  0  0
   -1.9161   67.3122   68.5495 H   0  0  0  0  0  0  0  0  0  0  0  0
   -3.1180   67.5005   67.2279 H   0  0  0  0  0  0  0  0  0  0  0  0
   -1.9954   66.0982   67.2279 H   0  0  0  0  0  0  0  0  0  0  0  0
    2.0416   67.3990   66.5095 H   0  0  0  0  0  0  0  0  0  0  0  0
    1.7429   66.3902   65.0535 H   0  0  0  0  0  0  0  0  0  0  0  0
    1.2814   68.1262   65.0535 H   0  0  0  0  0  0  0  0  0  0  0  0
  2  1  2  0
  3  1  2  0
  4  1  1  0
  6  5  1  0
  6  1  1  0
  4  7  1  0
  4  8  1  0
  4  9  1  0
  5 10  1  0
  5 11  1  0
  5 12  1  0
M  END
>  <score>  (6) 
-3.389

$$$$
=
     RDKit          3D

 12 11  0  0  0  0  0  0  0  0999 V2000
   -0.5490   67.2750   67.3590 S   0  0  0  0  0  6  0  0  0  0  0  0
    0.0080   66.8410   66.0950 O   0  0  0  0  0  0  0  0  0  0  0  0
   -0.4400   66.4760   68.5610 O   0  0  0  0  0  0  0  0  0  0  0  0
   -2.2530   67.7090   67.1130 C   0  0  0  0  0  0  0  0  0  0  0  0
    1.3490   69.0480   67.3540 C   0  0  0  0  0  0  0  0  0  0  0  0
    0.0000   68.7750   67.6800 O   0  0  0  0  0  0  0  0  0  0  0  0
   -2.7441   67.8341   68.0893 H   0  0  0  0  0  0  0  0  0  0  0  0
   -2.3136   68.6513   66.5487 H   0  0  0  0  0  0  0  0  0  0  0  0
   -2.7570   66.9105   66.5487 H   0  0  0  0  0  0  0  0  0  0  0  0
    1.9330   69.1662   68.2787 H   0  0  0  0  0  0  0  0  0  0  0  0
    1.7597   68.2148   66.7649 H   0  0  0  0  0  0  0  0  0  0  0  0
    1.4034   69.9754   66.7649 H   0  0  0  0  0  0  0  0  0  0  0  0
  2  1  2  0
  3  1  2  0
  4  1  1  0
  6  5  1  0
  6  1  1  0
  4  7  1  0
  4  8  1  0
  4  9  1  0
  5 10  1  0
  5 11  1  0
  5 12  1  0
M  END
>  <score>  (7) 
-3.364

$$$$
=
     RDKit          3D

 12 11  0  0  0  0  0  0  0  0999 V2000
    3.6330   68.2750   61.8180 S   0  0  0  0  0  6  0  0  0  0  0  0
    4.0300   66.8890   61.6930 O   0  0  0  0  0  0  0  0  0  0  0  0
    3.2170   69.0610   60.6760 O   0  0  0  0  0  0  0  0  0  0  0  0
    4.9070   69.1580   62.6860 C   0  0  0  0  0  0  0  0  0  0  0  0
    1.1830   68.7330   62.5460 C   0  0  0  0  0  0  0  0  0  0  0  0
    2.4870   68.3850   62.9700 O   0  0  0  0  0  0  0  0  0  0  0  0
    4.7535   69.0516   63.7700 H   0  0  0  0  0  0  0  0  0  0  0  0
    5.8898   68.7464   62.4127 H   0  0  0  0  0  0  0  0  0  0  0  0
    4.8665   70.2227   62.4127 H   0  0  0  0  0  0  0  0  0  0  0  0
    0.5447   68.9033   63.4255 H   0  0  0  0  0  0  0  0  0  0  0  0
    1.2268   69.6509   61.9414 H   0  0  0  0  0  0  0  0  0  0  0  0
    0.7636   67.9153   61.9414 H   0  0  0  0  0  0  0  0  0  0  0  0
  2  1  2  0
  3  1  2  0
  4  1  1  0
  6  5  1  0
  6  1  1  0
  4  7  1  0
  4  8  1  0
  4  9  1  0
  5 10  1  0
  5 11  1  0
  5 12  1  0
M  END
>  <score>  (8) 
-3.309

$$$$
=
     RDKit          3D

 12 11  0  0  0  0  0  0  0  0999 V2000
    4.6060   67.1960   62.6960 S   0  0  0  0  0  6  0  0  0  0  0  0
    4.8470   65.7690   62.7490 O   0  0  0  0  0  0  0  0  0  0  0  0
    5.6840   68.1600   62.7590 O   0  0  0  0  0  0  0  0  0  0  0  0
    3.3900   67.6160   63.9200 C   0  0  0  0  0  0  0  0  0  0  0  0
    3.0220   68.7620   61.3600 C   0  0  0  0  0  0  0  0  0  0  0  0
    3.6970   67.5190   61.3840 O   0  0  0  0  0  0  0  0  0  0  0  0
    3.8146   67.4693   64.9241 H   0  0  0  0  0  0  0  0  0  0  0  0
    3.0943   68.6683   63.7971 H   0  0  0  0  0  0  0  0  0  0  0  0
    2.5078   66.9705   63.7971 H   0  0  0  0  0  0  0  0  0  0  0  0
    2.8387   69.0996   62.3907 H   0  0  0  0  0  0  0  0  0  0  0  0
    3.6405   69.5051   60.8353 H   0  0  0  0  0  0  0  0  0  0  0  0
    2.0620   68.6478   60.8353 H   0  0  0  0  0  0  0  0  0  0  0  0
  2  1  2  0
  3  1  2  0
  4  1  1  0
  6  5  1  0
  6  1  1  0
  4  7  1  0
  4  8  1  0
  4  9  1  0
  5 10  1  0
  5 11  1  0
  5 12  1  0
M  END
>  <score>  (9) 
-3.291

$$$$
