=
     RDKit          3D

 24 24  0  0  0  0  0  0  0  0999 V2000
    1.4530   68.4980   65.3120 C   0  0  0  0  0  0  0  0  0  0  0  0
    2.5290   69.1330   66.1270 N   0  0  0  0  0  0  0  0  0  0  0  0
    3.8210   69.2640   65.6240 C   0  0  0  0  0  0  0  0  0  0  0  0
    4.8580   69.7540   66.3160 C   0  0  0  0  0  0  0  0  0  0  0  0
    4.6220   70.1750   67.7170 C   0  0  0  0  0  0  0  0  0  0  0  0
    5.5050   70.6720   68.4080 O   0  0  0  0  0  0  0  0  0  0  0  0
    3.2510   69.9750   68.2740 C   0  0  0  0  0  0  0  0  0  0  0  0
    2.3140   69.4670   67.4630 C   0  0  0  0  0  0  0  0  0  0  0  0
    3.0020   70.3200   69.5840 O   0  0  0  0  0  0  0  0  0  0  0  0
    0.1810   68.3100   66.1460 C   0  0  2  0  0  0  0  0  0  0  0  0
   -0.0080   66.8410   66.5070 N   0  0  0  0  0  4  0  0  0  0  0  0
   -0.7330   68.7360   63.9860 O   0  0  0  0  0  1  0  0  0  0  0  0
   -0.9530   68.7710   65.2150 C   0  0  0  0  0  0  0  0  0  0  0  0
   -1.9620   69.1240   65.9070 O   0  0  0  0  0  0  0  0  0  0  0  0
    1.2269   69.1410   64.4486 H   0  0  0  0  0  0  0  0  0  0  0  0
    1.8021   67.5117   64.9724 H   0  0  0  0  0  0  0  0  0  0  0  0
    4.0023   68.9432   64.5876 H   0  0  0  0  0  0  0  0  0  0  0  0
    5.8544   69.8412   65.8582 H   0  0  0  0  0  0  0  0  0  0  0  0
    1.3089   69.3026   67.8785 H   0  0  0  0  0  0  0  0  0  0  0  0
    2.0976   70.1927   69.9661 H   0  0  0  0  0  0  0  0  0  0  0  0
    0.2135   68.8708   67.0918 H   0  0  0  0  0  0  0  0  0  0  0  0
   -0.0212   66.7382   67.5318 H   0  0  0  0  0  0  0  0  0  0  0  0
   -0.8994   66.5034   66.1166 H   0  0  0  0  0  0  0  0  0  0  0  0
    0.7689   66.2888   66.1166 H   0  0  0  0  0  0  0  0  0  0  0  0
  2  1  1  0
  3  2  1  0
  4  3  2  0
  5  4  1  0
  6  5  2  0
  7  5  1  0
  8  7  2  0
  8  2  1  0
  9  7  1  0
 10  1  1  0
 11 10  1  0
 13 12  1  0
 13 10  1  0
 14 13  2  0
  1 15  1  0
  1 16  1  0
  3 17  1  0
  4 18  1  0
  8 19  1  0
  9 20  1  0
 10 21  1  1
 11 22  1  0
 11 23  1  0
 11 24  1  0
M  CHG  2  11   1  12  -1
M  END
>  <score>  (1) 
-6.798

$$$$
=
     RDKit          3D

 24 24  0  0  0  0  0  0  0  0999 V2000
    3.7690   68.6920   63.8510 C   0  0  0  0  0  0  0  0  0  0  0  0
    4.1140   69.1470   65.2290 N   0  0  0  0  0  0  0  0  0  0  0  0
    3.1350   69.2420   66.2150 C   0  0  0  0  0  0  0  0  0  0  0  0
    3.3470   69.7100   67.4520 C   0  0  0  0  0  0  0  0  0  0  0  0
    4.7130   70.1710   67.7960 C   0  0  0  0  0  0  0  0  0  0  0  0
    5.0040   70.5740   68.9170 O   0  0  0  0  0  0  0  0  0  0  0  0
    5.7460   70.1270   66.7190 C   0  0  0  0  0  0  0  0  0  0  0  0
    5.3850   69.6380   65.5260 C   0  0  0  0  0  0  0  0  0  0  0  0
    7.0180   70.5810   66.9900 O   0  0  0  0  0  0  0  0  0  0  0  0
    5.0180   68.1910   63.1170 C   0  0  2  0  0  0  0  0  0  0  0  0
    5.4730   69.2110   62.0800 N   0  0  0  0  0  4  0  0  0  0  0  0
    4.9000   65.8170   62.9270 O   0  0  0  0  0  1  0  0  0  0  0  0
    4.5520   66.9030   62.4160 C   0  0  0  0  0  0  0  0  0  0  0  0
    3.8610   67.1970   61.3890 O   0  0  0  0  0  0  0  0  0  0  0  0
    3.0350   67.8751   63.9137 H   0  0  0  0  0  0  0  0  0  0  0  0
    3.3480   69.5415   63.2932 H   0  0  0  0  0  0  0  0  0  0  0  0
    2.1177   68.9099   65.9604 H   0  0  0  0  0  0  0  0  0  0  0  0
    2.5323   69.7509   68.1899 H   0  0  0  0  0  0  0  0  0  0  0  0
    6.1411   69.6225   64.7272 H   0  0  0  0  0  0  0  0  0  0  0  0
    7.7126   70.5575   66.2850 H   0  0  0  0  0  0  0  0  0  0  0  0
    5.8663   68.0263   63.7976 H   0  0  0  0  0  0  0  0  0  0  0  0
    5.8447   70.0442   62.5580 H   0  0  0  0  0  0  0  0  0  0  0  0
    6.2090   68.7965   61.4906 H   0  0  0  0  0  0  0  0  0  0  0  0
    4.6729   69.4817   61.4906 H   0  0  0  0  0  0  0  0  0  0  0  0
  2  1  1  0
  3  2  1  0
  4  3  2  0
  5  4  1  0
  6  5  2  0
  7  5  1  0
  8  7  2  0
  8  2  1  0
  9  7  1  0
 10  1  1  0
 11 10  1  0
 13 12  1  0
 13 10  1  0
 14 13  2  0
  1 15  1  0
  1 16  1  0
  3 17  1  0
  4 18  1  0
  8 19  1  0
  9 20  1  0
 10 21  1  1
 11 22  1  0
 11 23  1  0
 11 24  1  0
M  CHG  2  11   1  12  -1
M  END
>  <score>  (2) 
-6.53

$$$$
=
     RDKit          3D

 24 24  0  0  0  0  0  0  0  0999 V2000
    2.1070   68.9280   66.1180 C   0  0  0  0  0  0  0  0  0  0  0  0
    3.2490   69.4420   66.9290 N   0  0  0  0  0  0  0  0  0  0  0  0
    3.0490   69.9160   68.2230 C   0  0  0  0  0  0  0  0  0  0  0  0
    4.0050   70.4590   68.9880 C   0  0  0  0  0  0  0  0  0  0  0  0
    5.3680   70.5780   68.4180 C   0  0  0  0  0  0  0  0  0  0  0  0
    6.3100   71.0240   69.0640 O   0  0  0  0  0  0  0  0  0  0  0  0
    5.5650   70.1270   67.0080 C   0  0  0  0  0  0  0  0  0  0  0  0
    4.5120   69.6090   66.3630 C   0  0  0  0  0  0  0  0  0  0  0  0
    6.8090   70.2560   66.4310 O   0  0  0  0  0  0  0  0  0  0  0  0
    1.5870   67.6050   66.6910 C   0  0  2  0  0  0  0  0  0  0  0  0
    1.9160   66.4500   65.7520 N   0  0  0  0  0  4  0  0  0  0  0  0
   -0.6520   66.7930   66.5850 O   0  0  0  0  0  1  0  0  0  0  0  0
    0.0630   67.8000   66.7690 C   0  0  0  0  0  0  0  0  0  0  0  0
   -0.2030   69.0200   67.0190 O   0  0  0  0  0  0  0  0  0  0  0  0
    1.2947   69.6697   66.1277 H   0  0  0  0  0  0  0  0  0  0  0  0
    2.4541   68.7551   65.0886 H   0  0  0  0  0  0  0  0  0  0  0  0
    2.0365   69.8392   68.6459 H   0  0  0  0  0  0  0  0  0  0  0  0
    3.7852   70.8061   70.0084 H   0  0  0  0  0  0  0  0  0  0  0  0
    4.6528   69.2947   65.3183 H   0  0  0  0  0  0  0  0  0  0  0  0
    6.9545   69.9613   65.4971 H   0  0  0  0  0  0  0  0  0  0  0  0
    2.0386   67.3641   67.6647 H   0  0  0  0  0  0  0  0  0  0  0  0
    2.1540   65.6146   66.3055 H   0  0  0  0  0  0  0  0  0  0  0  0
    1.0993   66.2471   65.1580 H   0  0  0  0  0  0  0  0  0  0  0  0
    2.7170   66.7079   65.1580 H   0  0  0  0  0  0  0  0  0  0  0  0
  2  1  1  0
  3  2  1  0
  4  3  2  0
  5  4  1  0
  6  5  2  0
  7  5  1  0
  8  7  2  0
  8  2  1  0
  9  7  1  0
 10  1  1  0
 11 10  1  0
 13 12  1  0
 13 10  1  0
 14 13  2  0
  1 15  1  0
  1 16  1  0
  3 17  1  0
  4 18  1  0
  8 19  1  0
  9 20  1  0
 10 21  1  1
 11 22  1  0
 11 23  1  0
 11 24  1  0
M  CHG  2  11   1  12  -1
M  END
>  <score>  (3) 
-6.51

$$$$
=
     RDKit          3D

 24 24  0  0  0  0  0  0  0  0999 V2000
    3.9180   68.9030   64.0840 C   0  0  0  0  0  0  0  0  0  0  0  0
    4.2060   69.4360   65.4480 N   0  0  0  0  0  0  0  0  0  0  0  0
    5.4880   69.8570   65.7920 C   0  0  0  0  0  0  0  0  0  0  0  0
    5.8450   70.2780   67.0130 C   0  0  0  0  0  0  0  0  0  0  0  0
    4.8120   70.2850   68.0760 C   0  0  0  0  0  0  0  0  0  0  0  0
    5.0420   70.6930   69.2090 O   0  0  0  0  0  0  0  0  0  0  0  0
    3.4550   69.7730   67.7200 C   0  0  0  0  0  0  0  0  0  0  0  0
    3.2460   69.3790   66.4570 C   0  0  0  0  0  0  0  0  0  0  0  0
    2.4790   69.7290   68.6910 O   0  0  0  0  0  0  0  0  0  0  0  0
    4.9980   67.9040   63.6540 C   0  0  2  0  0  0  0  0  0  0  0  0
    5.5930   68.3060   62.3090 N   0  0  0  0  0  4  0  0  0  0  0  0
    3.1900   66.4390   64.1740 O   0  0  0  0  0  1  0  0  0  0  0  0
    4.2430   66.5700   63.5160 C   0  0  0  0  0  0  0  0  0  0  0  0
    4.8670   65.8030   62.7130 O   0  0  0  0  0  0  0  0  0  0  0  0
    2.9411   68.3973   64.0927 H   0  0  0  0  0  0  0  0  0  0  0  0
    3.9074   69.7411   63.3716 H   0  0  0  0  0  0  0  0  0  0  0  0
    6.2599   69.8430   65.0084 H   0  0  0  0  0  0  0  0  0  0  0  0
    6.8735   70.6084   67.2202 H   0  0  0  0  0  0  0  0  0  0  0  0
    2.2520   68.9847   66.1992 H   0  0  0  0  0  0  0  0  0  0  0  0
    1.5749   69.3920   68.4692 H   0  0  0  0  0  0  0  0  0  0  0  0
    5.8316   67.8536   64.3699 H   0  0  0  0  0  0  0  0  0  0  0  0
    6.4368   68.8761   62.4635 H   0  0  0  0  0  0  0  0  0  0  0  0
    5.8429   67.4599   61.7775 H   0  0  0  0  0  0  0  0  0  0  0  0
    4.9013   68.8536   61.7775 H   0  0  0  0  0  0  0  0  0  0  0  0
  2  1  1  0
  3  2  1  0
  4  3  2  0
  5  4  1  0
  6  5  2  0
  7  5  1  0
  8  7  2  0
  8  2  1  0
  9  7  1  0
 10  1  1  0
 11 10  1  0
 13 12  1  0
 13 10  1  0
 14 13  2  0
  1 15  1  0
  1 16  1  0
  3 17  1  0
  4 18  1  0
  8 19  1  0
  9 20  1  0
 10 21  1  1
 11 22  1  0
 11 23  1  0
 11 24  1  0
M  CHG  2  11   1  12  -1
M  END
>  <score>  (4) 
-6.473

$$$$
=
     RDKit          3D

 24 24  0  0  0  0  0  0  0  0999 V2000
    0.3760   68.8420   67.3070 C   0  0  0  0  0  0  0  0  0  0  0  0
    1.5450   68.8740   66.3800 N   0  0  0  0  0  0  0  0  0  0  0  0
    2.7920   69.3110   66.8210 C   0  0  0  0  0  0  0  0  0  0  0  0
    3.8710   69.4390   66.0370 C   0  0  0  0  0  0  0  0  0  0  0  0
    3.7280   69.1080   64.5990 C   0  0  0  0  0  0  0  0  0  0  0  0
    4.6740   69.1580   63.8200 O   0  0  0  0  0  0  0  0  0  0  0  0
    2.3750   68.7020   64.1170 C   0  0  0  0  0  0  0  0  0  0  0  0
    1.3870   68.6240   65.0180 C   0  0  0  0  0  0  0  0  0  0  0  0
    2.1940   68.4220   62.7800 O   0  0  0  0  0  0  0  0  0  0  0  0
   -0.8680   68.3050   66.5920 C   0  0  2  0  0  0  0  0  0  0  0  0
   -1.8590   69.4320   66.3250 N   0  0  0  0  0  4  0  0  0  0  0  0
   -0.6990   66.4530   68.0830 O   0  0  0  0  0  1  0  0  0  0  0  0
   -1.4720   67.3000   67.5880 C   0  0  0  0  0  0  0  0  0  0  0  0
   -2.7160   67.5290   67.7300 O   0  0  0  0  0  0  0  0  0  0  0  0
    0.6107   68.1904   68.1616 H   0  0  0  0  0  0  0  0  0  0  0  0
    0.1707   69.8659   67.6526 H   0  0  0  0  0  0  0  0  0  0  0  0
    2.8981   69.5685   67.8852 H   0  0  0  0  0  0  0  0  0  0  0  0
    4.8331   69.7791   66.4476 H   0  0  0  0  0  0  0  0  0  0  0  0
    0.3854   68.3443   64.6595 H   0  0  0  0  0  0  0  0  0  0  0  0
    1.3017   68.1516   62.4473 H   0  0  0  0  0  0  0  0  0  0  0  0
   -0.6288   67.8523   65.6184 H   0  0  0  0  0  0  0  0  0  0  0  0
   -2.1945   69.8136   67.2209 H   0  0  0  0  0  0  0  0  0  0  0  0
   -1.3945   70.1773   65.7868 H   0  0  0  0  0  0  0  0  0  0  0  0
   -2.6576   69.0666   65.7868 H   0  0  0  0  0  0  0  0  0  0  0  0
  2  1  1  0
  3  2  1  0
  4  3  2  0
  5  4  1  0
  6  5  2  0
  7  5  1  0
  8  7  2  0
  8  2  1  0
  9  7  1  0
 10  1  1  0
 11 10  1  0
 13 12  1  0
 13 10  1  0
 14 13  2  0
  1 15  1  0
  1 16  1  0
  3 17  1  0
  4 18  1  0
  8 19  1  0
  9 20  1  0
 10 21  1  6
 11 22  1  0
 11 23  1  0
 11 24  1  0
M  CHG  2  11   1  12  -1
M  END
>  <score>  (5) 
-6.348

$$$$
=
     RDKit          3D

 24 24  0  0  0  0  0  0  0  0999 V2000
    4.6180   69.7110   66.8650 C   0  0  0  0  0  0  0  0  0  0  0  0
    4.1270   69.4360   65.4830 N   0  0  0  0  0  0  0  0  0  0  0  0
    2.8210   69.0060   65.2630 C   0  0  0  0  0  0  0  0  0  0  0  0
    2.3250   68.6680   64.0650 C   0  0  0  0  0  0  0  0  0  0  0  0
    3.2300   68.7420   62.8930 C   0  0  0  0  0  0  0  0  0  0  0  0
    2.8470   68.4900   61.7550 O   0  0  0  0  0  0  0  0  0  0  0  0
    4.6470   69.1410   63.1410 C   0  0  0  0  0  0  0  0  0  0  0  0
    5.0010   69.4460   64.3960 C   0  0  0  0  0  0  0  0  0  0  0  0
    5.5270   69.1860   62.0820 O   0  0  0  0  0  0  0  0  0  0  0  0
    5.8460   70.6280   66.8310 C   0  0  2  0  0  0  0  0  0  0  0  0
    7.1280   69.8040   66.8270 N   0  0  0  0  0  4  0  0  0  0  0  0
    5.9290   72.6720   68.0570 O   0  0  0  0  0  1  0  0  0  0  0  0
    5.7470   71.4390   68.1350 C   0  0  0  0  0  0  0  0  0  0  0  0
    5.4840   70.6600   69.1070 O   0  0  0  0  0  0  0  0  0  0  0  0
    3.8186   70.1991   67.4418 H   0  0  0  0  0  0  0  0  0  0  0  0
    4.9010   68.7581   67.3361 H   0  0  0  0  0  0  0  0  0  0  0  0
    2.1504   68.9392   66.1324 H   0  0  0  0  0  0  0  0  0  0  0  0
    1.2791   68.3457   63.9545 H   0  0  0  0  0  0  0  0  0  0  0  0
    6.0494   69.7224   64.5817 H   0  0  0  0  0  0  0  0  0  0  0  0
    6.4695   69.4490   62.2324 H   0  0  0  0  0  0  0  0  0  0  0  0
    5.8711   71.2621   65.9325 H   0  0  0  0  0  0  0  0  0  0  0  0
    7.4190   69.6170   67.7972 H   0  0  0  0  0  0  0  0  0  0  0  0
    6.9610   68.9116   66.3406 H   0  0  0  0  0  0  0  0  0  0  0  0
    7.8705   70.3265   66.3406 H   0  0  0  0  0  0  0  0  0  0  0  0
  2  1  1  0
  3  2  1  0
  4  3  2  0
  5  4  1  0
  6  5  2  0
  7  5  1  0
  8  7  2  0
  8  2  1  0
  9  7  1  0
 10  1  1  0
 11 10  1  0
 13 12  1  0
 13 10  1  0
 14 13  2  0
  1 15  1  0
  1 16  1  0
  3 17  1  0
  4 18  1  0
  8 19  1  0
  9 20  1  0
 10 21  1  6
 11 22  1  0
 11 23  1  0
 11 24  1  0
M  CHG  2  11   1  12  -1
M  END
>  <score>  (6) 
-6.316

$$$$
=
     RDKit          3D

 24 24  0  0  0  0  0  0  0  0999 V2000
    1.3090   69.0040   67.2700 C   0  0  0  0  0  0  0  0  0  0  0  0
    2.3540   69.1440   66.2150 N   0  0  0  0  0  0  0  0  0  0  0  0
    2.0790   68.8130   64.8910 C   0  0  0  0  0  0  0  0  0  0  0  0
    2.9800   68.8400   63.8990 C   0  0  0  0  0  0  0  0  0  0  0  0
    4.3690   69.2360   64.2330 C   0  0  0  0  0  0  0  0  0  0  0  0
    5.2450   69.3270   63.3800 O   0  0  0  0  0  0  0  0  0  0  0  0
    4.6760   69.5290   65.6640 C   0  0  0  0  0  0  0  0  0  0  0  0
    3.6720   69.4550   66.5480 C   0  0  0  0  0  0  0  0  0  0  0  0
    5.9640   69.8650   66.0190 O   0  0  0  0  0  0  0  0  0  0  0  0
   -0.0540   68.6870   66.6440 C   0  0  2  0  0  0  0  0  0  0  0  0
   -1.0910   69.7210   67.0680 N   0  0  0  0  0  4  0  0  0  0  0  0
    0.3960   66.7790   68.0010 O   0  0  0  0  0  1  0  0  0  0  0  0
   -0.4210   67.3080   67.2190 C   0  0  0  0  0  0  0  0  0  0  0  0
   -1.5530   66.9410   66.7670 O   0  0  0  0  0  0  0  0  0  0  0  0
    1.5915   68.1886   67.9521 H   0  0  0  0  0  0  0  0  0  0  0  0
    1.2331   69.9532   67.8207 H   0  0  0  0  0  0  0  0  0  0  0  0
    1.0518   68.5084   64.6419 H   0  0  0  0  0  0  0  0  0  0  0  0
    2.6975   68.5765   62.8691 H   0  0  0  0  0  0  0  0  0  0  0  0
    3.9023   69.6524   67.6053 H   0  0  0  0  0  0  0  0  0  0  0  0
    6.1815   70.0618   66.9646 H   0  0  0  0  0  0  0  0  0  0  0  0
   -0.0233   68.6987   65.5445 H   0  0  0  0  0  0  0  0  0  0  0  0
   -1.1333   69.7632   68.0963 H   0  0  0  0  0  0  0  0  0  0  0  0
   -0.8263   70.6447   66.6971 H   0  0  0  0  0  0  0  0  0  0  0  0
   -2.0140   69.4537   66.6971 H   0  0  0  0  0  0  0  0  0  0  0  0
  2  1  1  0
  3  2  1  0
  4  3  2  0
  5  4  1  0
  6  5  2  0
  7  5  1  0
  8  7  2  0
  8  2  1  0
  9  7  1  0
 10  1  1  0
 11 10  1  0
 13 12  1  0
 13 10  1  0
 14 13  2  0
  1 15  1  0
  1 16  1  0
  3 17  1  0
  4 18  1  0
  8 19  1  0
  9 20  1  0
 10 21  1  6
 11 22  1  0
 11 23  1  0
 11 24  1  0
M  CHG  2  11   1  12  -1
M  END
>  <score>  (7) 
-6.222

$$$$
=
     RDKit          3D

 24 24  0  0  0  0  0  0  0  0999 V2000
    1.9480   67.8600   65.0190 C   0  0  0  0  0  0  0  0  0  0  0  0
    2.8160   68.6130   65.9710 N   0  0  0  0  0  0  0  0  0  0  0  0
    2.3280   69.0190   67.2110 C   0  0  0  0  0  0  0  0  0  0  0  0
    3.0160   69.7590   68.0900 C   0  0  0  0  0  0  0  0  0  0  0  0
    4.3840   70.1890   67.7170 C   0  0  0  0  0  0  0  0  0  0  0  0
    5.0980   70.8340   68.4790 O   0  0  0  0  0  0  0  0  0  0  0  0
    4.8810   69.8070   66.3620 C   0  0  0  0  0  0  0  0  0  0  0  0
    4.0760   69.0670   65.5870 C   0  0  0  0  0  0  0  0  0  0  0  0
    6.1330   70.2190   65.9640 O   0  0  0  0  0  0  0  0  0  0  0  0
    0.7250   68.6950   64.6230 C   0  0  2  0  0  0  0  0  0  0  0  0
   -0.5310   68.1550   65.2960 N   0  0  0  0  0  4  0  0  0  0  0  0
   -0.4880   68.1790   62.6370 O   0  0  0  0  0  1  0  0  0  0  0  0
    0.6230   68.5140   63.0990 C   0  0  0  0  0  0  0  0  0  0  0  0
    1.7520   68.7520   62.5600 O   0  0  0  0  0  0  0  0  0  0  0  0
    2.5277   67.6182   64.1160 H   0  0  0  0  0  0  0  0  0  0  0  0
    1.6025   66.9380   65.5095 H   0  0  0  0  0  0  0  0  0  0  0  0
    1.3087   68.7110   67.4868 H   0  0  0  0  0  0  0  0  0  0  0  0
    2.5787   70.0391   69.0597 H   0  0  0  0  0  0  0  0  0  0  0  0
    4.4337   68.8005   64.5815 H   0  0  0  0  0  0  0  0  0  0  0  0
    6.4737   69.9721   65.0679 H   0  0  0  0  0  0  0  0  0  0  0  0
    0.8211   69.7485   64.9244 H   0  0  0  0  0  0  0  0  0  0  0  0
   -0.4200   68.2027   66.3189 H   0  0  0  0  0  0  0  0  0  0  0  0
   -1.3432   68.7212   65.0120 H   0  0  0  0  0  0  0  0  0  0  0  0
   -0.6788   67.1760   65.0120 H   0  0  0  0  0  0  0  0  0  0  0  0
  2  1  1  0
  3  2  1  0
  4  3  2  0
  5  4  1  0
  6  5  2  0
  7  5  1  0
  8  7  2  0
  8  2  1  0
  9  7  1  0
 10  1  1  0
 11 10  1  0
 13 12  1  0
 13 10  1  0
 14 13  2  0
  1 15  1  0
  1 16  1  0
  3 17  1  0
  4 18  1  0
  8 19  1  0
  9 20  1  0
 10 21  1  6
 11 22  1  0
 11 23  1  0
 11 24  1  0
M  CHG  2  11   1  12  -1
M  END
>  <score>  (8) 
-6.13

$$$$
=
     RDKit          3D

 24 24  0  0  0  0  0  0  0  0999 V2000
    1.7700   68.6980   64.8440 C   0  0  0  0  0  0  0  0  0  0  0  0
    2.5820   67.5440   64.3590 N   0  0  0  0  0  0  0  0  0  0  0  0
    2.5030   66.3030   64.9860 C   0  0  0  0  0  0  0  0  0  0  0  0
    3.2500   65.2400   64.6610 C   0  0  0  0  0  0  0  0  0  0  0  0
    4.2390   65.3940   63.5670 C   0  0  0  0  0  0  0  0  0  0  0  0
    4.9340   64.4610   63.1780 O   0  0  0  0  0  0  0  0  0  0  0  0
    4.3670   66.7430   62.9400 C   0  0  0  0  0  0  0  0  0  0  0  0
    3.5540   67.7150   63.3750 C   0  0  0  0  0  0  0  0  0  0  0  0
    5.3010   66.9340   61.9460 O   0  0  0  0  0  0  0  0  0  0  0  0
    0.3960   68.2260   65.3330 C   0  0  2  0  0  0  0  0  0  0  0  0
   -0.7110   68.8090   64.4620 N   0  0  0  0  0  4  0  0  0  0  0  0
    1.3010   68.6900   67.4890 O   0  0  0  0  0  1  0  0  0  0  0  0
    0.2910   68.7870   66.7610 C   0  0  0  0  0  0  0  0  0  0  0  0
   -0.8710   69.2730   66.9490 O   0  0  0  0  0  0  0  0  0  0  0  0
    2.2996   69.1888   65.6738 H   0  0  0  0  0  0  0  0  0  0  0  0
    1.6263   69.4037   64.0125 H   0  0  0  0  0  0  0  0  0  0  0  0
    1.7771   66.1880   65.8045 H   0  0  0  0  0  0  0  0  0  0  0  0
    3.1335   64.2822   65.1893 H   0  0  0  0  0  0  0  0  0  0  0  0
    3.6607   68.7135   62.9260 H   0  0  0  0  0  0  0  0  0  0  0  0
    5.3970   67.8231   61.5212 H   0  0  0  0  0  0  0  0  0  0  0  0
    0.2903   67.1318   65.2934 H   0  0  0  0  0  0  0  0  0  0  0  0
   -1.4512   69.1988   65.0628 H   0  0  0  0  0  0  0  0  0  0  0  0
   -0.3230   69.5551   63.8673 H   0  0  0  0  0  0  0  0  0  0  0  0
   -1.1067   68.0669   63.8673 H   0  0  0  0  0  0  0  0  0  0  0  0
  2  1  1  0
  3  2  1  0
  4  3  2  0
  5  4  1  0
  6  5  2  0
  7  5  1  0
  8  7  2  0
  8  2  1  0
  9  7  1  0
 10  1  1  0
 11 10  1  0
 13 12  1  0
 13 10  1  0
 14 13  2  0
  1 15  1  0
  1 16  1  0
  3 17  1  0
  4 18  1  0
  8 19  1  0
  9 20  1  0
 10 21  1  1
 11 22  1  0
 11 23  1  0
 11 24  1  0
M  CHG  2  11   1  12  -1
M  END
>  <score>  (9) 
-6.084

$$$$
