=
     RDKit          3D

 41 43  0  0  0  0  0  0  0  0999 V2000
    1.0380   62.0740   71.8450 N   0  0  0  0  0  0  0  0  0  0  0  0
    0.1530   61.2370   72.5880 C   0  0  0  0  0  0  0  0  0  0  0  0
   -1.1640   61.6350   72.9130 C   0  0  0  0  0  0  0  0  0  0  0  0
   -2.0370   60.8270   73.6540 C   0  0  0  0  0  0  0  0  0  0  0  0
   -1.6180   59.5870   74.1030 C   0  0  0  0  0  0  0  0  0  0  0  0
   -0.3270   59.1640   73.8110 C   0  0  0  0  0  0  0  0  0  0  0  0
    0.5540   59.9740   73.0680 C   0  0  0  0  0  0  0  0  0  0  0  0
    2.1530   59.2670   72.7610 S   0  0  0  0  0  0  0  0  0  0  0  0
    3.0480   60.6360   72.0740 C   0  0  0  0  0  0  0  0  0  0  0  0
    2.4380   61.8440   71.6740 C   0  0  0  0  0  0  0  0  0  0  0  0
    3.2980   62.8230   71.1240 C   0  0  0  0  0  0  0  0  0  0  0  0
    4.6720   62.6090   70.9700 C   0  0  0  0  0  0  0  0  0  0  0  0
    5.6500   63.8520   70.2910 Cl  0  0  0  0  0  0  0  0  0  0  0  0
    5.2460   61.4140   71.3610 C   0  0  0  0  0  0  0  0  0  0  0  0
    4.4340   60.4300   71.9120 C   0  0  0  0  0  0  0  0  0  0  0  0
    0.4360   63.1560   71.0430 C   0  0  0  0  0  0  0  0  0  0  0  0
    0.5130   64.5080   71.7670 C   0  0  0  0  0  0  0  0  0  0  0  0
   -0.2740   65.6150   71.0720 C   0  0  0  0  0  0  0  0  0  0  0  0
   -0.7980   66.4500   68.7640 C   0  0  0  0  0  0  0  0  0  0  0  0
    0.2700   65.9070   69.6840 N   0  0  0  0  0  4  0  0  0  0  0  0
    1.4690   66.8210   69.7000 C   0  0  0  0  0  0  0  0  0  0  0  0
   -1.5178   62.6186   72.5704 H   0  0  0  0  0  0  0  0  0  0  0  0
   -3.0549   61.1784   73.8786 H   0  0  0  0  0  0  0  0  0  0  0  0
   -2.2974   58.9451   74.6830 H   0  0  0  0  0  0  0  0  0  0  0  0
    0.0128   58.1799   74.1661 H   0  0  0  0  0  0  0  0  0  0  0  0
    2.8718   63.7860   70.8063 H   0  0  0  0  0  0  0  0  0  0  0  0
    6.3260   61.2449   71.2383 H   0  0  0  0  0  0  0  0  0  0  0  0
    4.8794   59.4748   72.2270 H   0  0  0  0  0  0  0  0  0  0  0  0
    0.9737   63.2325   70.0864 H   0  0  0  0  0  0  0  0  0  0  0  0
   -0.6245   62.9135   70.8801 H   0  0  0  0  0  0  0  0  0  0  0  0
    0.1130   64.3819   72.7839 H   0  0  0  0  0  0  0  0  0  0  0  0
    1.5695   64.8143   71.7699 H   0  0  0  0  0  0  0  0  0  0  0  0
   -1.3253   65.3034   70.9842 H   0  0  0  0  0  0  0  0  0  0  0  0
   -0.1823   66.5304   71.6750 H   0  0  0  0  0  0  0  0  0  0  0  0
   -1.6203   66.8681   69.3633 H   0  0  0  0  0  0  0  0  0  0  0  0
   -0.3687   67.2393   68.1294 H   0  0  0  0  0  0  0  0  0  0  0  0
   -1.1828   65.6381   68.1294 H   0  0  0  0  0  0  0  0  0  0  0  0
    0.5867   64.9994   69.3141 H   0  0  0  0  0  0  0  0  0  0  0  0
    1.7518   67.0366   70.7409 H   0  0  0  0  0  0  0  0  0  0  0  0
    2.3095   66.3323   69.1854 H   0  0  0  0  0  0  0  0  0  0  0  0
    1.2205   67.7609   69.1854 H   0  0  0  0  0  0  0  0  0  0  0  0
  2  1  1  0
  3  2  2  0
  4  3  1  0
  5  4  2  0
  6  5  1  0
  7  6  2  0
  7  2  1  0
  8  7  1  0
  9  8  1  0
 10  9  2  0
 10  1  1  0
 11 10  1  0
 12 11  2  0
 13 12  1  0
 14 12  1  0
 15 14  2  0
 15  9  1  0
 16  1  1  0
 17 16  1  0
 18 17  1  0
 20 19  1  0
 20 18  1  0
 21 20  1  0
  3 22  1  0
  4 23  1  0
  5 24  1  0
  6 25  1  0
 11 26  1  0
 14 27  1  0
 15 28  1  0
 16 29  1  0
 16 30  1  0
 17 31  1  0
 17 32  1  0
 18 33  1  0
 18 34  1  0
 19 35  1  0
 19 36  1  0
 19 37  1  0
 20 38  1  0
 21 39  1  0
 21 40  1  0
 21 41  1  0
M  CHG  1  20   1
M  END
>  <score>  (1) 
-7.449

$$$$
=
     RDKit          3D

 41 43  0  0  0  0  0  0  0  0999 V2000
    1.2500   62.5360   72.0860 N   0  0  0  0  0  0  0  0  0  0  0  0
    2.5860   62.3620   71.6140 C   0  0  0  0  0  0  0  0  0  0  0  0
    3.2230   63.3180   70.7880 C   0  0  0  0  0  0  0  0  0  0  0  0
    4.5280   63.1510   70.3080 C   0  0  0  0  0  0  0  0  0  0  0  0
    5.2460   62.0130   70.6350 C   0  0  0  0  0  0  0  0  0  0  0  0
    4.6510   61.0470   71.4380 C   0  0  0  0  0  0  0  0  0  0  0  0
    3.3380   61.2100   71.9210 C   0  0  0  0  0  0  0  0  0  0  0  0
    2.7450   59.8950   72.9560 S   0  0  0  0  0  0  0  0  0  0  0  0
    1.0260   60.2960   73.1310 C   0  0  0  0  0  0  0  0  0  0  0  0
    0.4670   61.5260   72.7250 C   0  0  0  0  0  0  0  0  0  0  0  0
   -0.9180   61.6890   72.9620 C   0  0  0  0  0  0  0  0  0  0  0  0
   -1.6930   60.6980   73.5730 C   0  0  0  0  0  0  0  0  0  0  0  0
   -3.3730   60.9740   73.8250 Cl  0  0  0  0  0  0  0  0  0  0  0  0
   -1.1220   59.5030   73.9710 C   0  0  0  0  0  0  0  0  0  0  0  0
    0.2360   59.3040   73.7490 C   0  0  0  0  0  0  0  0  0  0  0  0
    0.7000   63.9040   72.0780 C   0  0  0  0  0  0  0  0  0  0  0  0
    0.2990   64.3450   70.6630 C   0  0  0  0  0  0  0  0  0  0  0  0
    0.2740   65.8600   70.4830 C   0  0  0  0  0  0  0  0  0  0  0  0
   -1.1140   66.5540   68.5110 C   0  0  0  0  0  0  0  0  0  0  0  0
    0.2770   66.2540   69.0160 N   0  0  0  0  0  4  0  0  0  0  0  0
    1.2080   67.4010   68.7150 C   0  0  0  0  0  0  0  0  0  0  0  0
    2.6712   64.2287   70.5119 H   0  0  0  0  0  0  0  0  0  0  0  0
    4.9828   63.9240   69.6711 H   0  0  0  0  0  0  0  0  0  0  0  0
    6.2726   61.8754   70.2646 H   0  0  0  0  0  0  0  0  0  0  0  0
    5.2151   60.1399   71.7007 H   0  0  0  0  0  0  0  0  0  0  0  0
   -1.4023   62.6278   72.6551 H   0  0  0  0  0  0  0  0  0  0  0  0
   -1.7308   58.7246   74.4541 H   0  0  0  0  0  0  0  0  0  0  0  0
    0.7021   58.3575   74.0604 H   0  0  0  0  0  0  0  0  0  0  0  0
   -0.1880   63.9353   72.7265 H   0  0  0  0  0  0  0  0  0  0  0  0
    1.4787   64.5895   72.4437 H   0  0  0  0  0  0  0  0  0  0  0  0
    1.0200   63.9211   69.9485 H   0  0  0  0  0  0  0  0  0  0  0  0
   -0.7241   63.9810   70.4879 H   0  0  0  0  0  0  0  0  0  0  0  0
   -0.6344   66.2599   70.9572 H   0  0  0  0  0  0  0  0  0  0  0  0
    1.1794   66.2748   70.9502 H   0  0  0  0  0  0  0  0  0  0  0  0
   -1.7908   66.7000   69.3657 H   0  0  0  0  0  0  0  0  0  0  0  0
   -1.0929   67.4682   67.8997 H   0  0  0  0  0  0  0  0  0  0  0  0
   -1.4716   65.7123   67.8997 H   0  0  0  0  0  0  0  0  0  0  0  0
    0.6358   65.4322   68.5093 H   0  0  0  0  0  0  0  0  0  0  0  0
    1.5649   67.8407   69.6580 H   0  0  0  0  0  0  0  0  0  0  0  0
    2.0665   67.0336   68.1337 H   0  0  0  0  0  0  0  0  0  0  0  0
    0.6718   68.1656   68.1337 H   0  0  0  0  0  0  0  0  0  0  0  0
  2  1  1  0
  3  2  2  0
  4  3  1  0
  5  4  2  0
  6  5  1  0
  7  6  2  0
  7  2  1  0
  8  7  1  0
  9  8  1  0
 10  9  2  0
 10  1  1  0
 11 10  1  0
 12 11  2  0
 13 12  1  0
 14 12  1  0
 15 14  2  0
 15  9  1  0
 16  1  1  0
 17 16  1  0
 18 17  1  0
 20 19  1  0
 20 18  1  0
 21 20  1  0
  3 22  1  0
  4 23  1  0
  5 24  1  0
  6 25  1  0
 11 26  1  0
 14 27  1  0
 15 28  1  0
 16 29  1  0
 16 30  1  0
 17 31  1  0
 17 32  1  0
 18 33  1  0
 18 34  1  0
 19 35  1  0
 19 36  1  0
 19 37  1  0
 20 38  1  0
 21 39  1  0
 21 40  1  0
 21 41  1  0
M  CHG  1  20   1
M  END
>  <score>  (2) 
-7.377

$$$$
=
     RDKit          3D

 41 43  0  0  0  0  0  0  0  0999 V2000
    2.2740   60.3620   72.3090 N   0  0  0  0  0  0  0  0  0  0  0  0
    3.0330   61.4050   71.6990 C   0  0  0  0  0  0  0  0  0  0  0  0
    4.4320   61.3120   71.5200 C   0  0  0  0  0  0  0  0  0  0  0  0
    5.1890   62.3360   70.9350 C   0  0  0  0  0  0  0  0  0  0  0  0
    4.5690   63.4980   70.5110 C   0  0  0  0  0  0  0  0  0  0  0  0
    3.1960   63.6310   70.6770 C   0  0  0  0  0  0  0  0  0  0  0  0
    2.4320   62.6040   71.2670 C   0  0  0  0  0  0  0  0  0  0  0  0
    0.6890   62.9270   71.3750 S   0  0  0  0  0  0  0  0  0  0  0  0
    0.1180   61.5890   72.3910 C   0  0  0  0  0  0  0  0  0  0  0  0
    0.9120   60.4720   72.7280 C   0  0  0  0  0  0  0  0  0  0  0  0
    0.2900   59.4860   73.5270 C   0  0  0  0  0  0  0  0  0  0  0  0
   -1.0370   59.5970   73.9540 C   0  0  0  0  0  0  0  0  0  0  0  0
   -1.7210   58.3520   74.9260 Cl  0  0  0  0  0  0  0  0  0  0  0  0
   -1.7990   60.6970   73.6040 C   0  0  0  0  0  0  0  0  0  0  0  0
   -1.2200   61.6910   72.8240 C   0  0  0  0  0  0  0  0  0  0  0  0
    2.8780   59.0160   72.3480 C   0  0  0  0  0  0  0  0  0  0  0  0
    3.9990   58.9280   73.3920 C   0  0  0  0  0  0  0  0  0  0  0  0
    3.4890   58.7530   74.8190 C   0  0  0  0  0  0  0  0  0  0  0  0
    4.1300   57.0880   76.5840 C   0  0  0  0  0  0  0  0  0  0  0  0
    3.4770   57.2930   75.2380 N   0  0  0  0  0  4  0  0  0  0  0  0
    2.0980   56.6850   75.2200 C   0  0  0  0  0  0  0  0  0  0  0  0
    4.9473   60.3991   71.8533 H   0  0  0  0  0  0  0  0  0  0  0  0
    6.2756   62.2160   70.8129 H   0  0  0  0  0  0  0  0  0  0  0  0
    5.1553   64.3058   70.0486 H   0  0  0  0  0  0  0  0  0  0  0  0
    2.6972   64.5526   70.3426 H   0  0  0  0  0  0  0  0  0  0  0  0
    0.8703   58.5998   73.8235 H   0  0  0  0  0  0  0  0  0  0  0  0
   -2.8439   60.7835   73.9368 H   0  0  0  0  0  0  0  0  0  0  0  0
   -1.8151   62.5714   72.5399 H   0  0  0  0  0  0  0  0  0  0  0  0
    2.0980   58.2822   72.5995 H   0  0  0  0  0  0  0  0  0  0  0  0
    3.3123   58.8058   71.3594 H   0  0  0  0  0  0  0  0  0  0  0  0
    4.6397   58.0691   73.1434 H   0  0  0  0  0  0  0  0  0  0  0  0
    4.5475   59.8809   73.3590 H   0  0  0  0  0  0  0  0  0  0  0  0
    4.1432   59.3143   75.5024 H   0  0  0  0  0  0  0  0  0  0  0  0
    2.4565   59.1298   74.8620 H   0  0  0  0  0  0  0  0  0  0  0  0
    3.4066   57.3151   77.3809 H   0  0  0  0  0  0  0  0  0  0  0  0
    4.4606   56.0429   76.6758 H   0  0  0  0  0  0  0  0  0  0  0  0
    4.9986   57.7567   76.6758 H   0  0  0  0  0  0  0  0  0  0  0  0
    4.0349   56.7969   74.5284 H   0  0  0  0  0  0  0  0  0  0  0  0
    1.7512   56.5321   76.2526 H   0  0  0  0  0  0  0  0  0  0  0  0
    1.4058   57.3614   74.6971 H   0  0  0  0  0  0  0  0  0  0  0  0
    2.1305   55.7178   74.6971 H   0  0  0  0  0  0  0  0  0  0  0  0
  2  1  1  0
  3  2  2  0
  4  3  1  0
  5  4  2  0
  6  5  1  0
  7  6  2  0
  7  2  1  0
  8  7  1  0
  9  8  1  0
 10  9  2  0
 10  1  1  0
 11 10  1  0
 12 11  2  0
 13 12  1  0
 14 12  1  0
 15 14  2  0
 15  9  1  0
 16  1  1  0
 17 16  1  0
 18 17  1  0
 20 19  1  0
 20 18  1  0
 21 20  1  0
  3 22  1  0
  4 23  1  0
  5 24  1  0
  6 25  1  0
 11 26  1  0
 14 27  1  0
 15 28  1  0
 16 29  1  0
 16 30  1  0
 17 31  1  0
 17 32  1  0
 18 33  1  0
 18 34  1  0
 19 35  1  0
 19 36  1  0
 19 37  1  0
 20 38  1  0
 21 39  1  0
 21 40  1  0
 21 41  1  0
M  CHG  1  20   1
M  END
>  <score>  (3) 
-7.213

$$$$
=
     RDKit          3D

 41 43  0  0  0  0  0  0  0  0999 V2000
    2.0670   59.7540   72.6240 N   0  0  0  0  0  0  0  0  0  0  0  0
    3.1200   60.5370   72.0620 C   0  0  0  0  0  0  0  0  0  0  0  0
    4.4600   60.0860   72.0300 C   0  0  0  0  0  0  0  0  0  0  0  0
    5.5030   60.8520   71.4940 C   0  0  0  0  0  0  0  0  0  0  0  0
    5.2410   62.1070   70.9710 C   0  0  0  0  0  0  0  0  0  0  0  0
    3.9380   62.5890   70.9920 C   0  0  0  0  0  0  0  0  0  0  0  0
    2.8870   61.8230   71.5320 C   0  0  0  0  0  0  0  0  0  0  0  0
    1.2820   62.5780   71.4520 S   0  0  0  0  0  0  0  0  0  0  0  0
    0.2990   61.4860   72.4450 C   0  0  0  0  0  0  0  0  0  0  0  0
    0.7470   60.2270   72.8970 C   0  0  0  0  0  0  0  0  0  0  0  0
   -0.1770   59.4740   73.6590 C   0  0  0  0  0  0  0  0  0  0  0  0
   -1.4650   59.9390   73.9440 C   0  0  0  0  0  0  0  0  0  0  0  0
   -2.5290   58.9620   74.8790 Cl  0  0  0  0  0  0  0  0  0  0  0  0
   -1.8860   61.1730   73.4830 C   0  0  0  0  0  0  0  0  0  0  0  0
   -1.0040   61.9440   72.7350 C   0  0  0  0  0  0  0  0  0  0  0  0
    2.3020   58.3040   72.7660 C   0  0  0  0  0  0  0  0  0  0  0  0
    2.7770   57.9440   74.1800 C   0  0  0  0  0  0  0  0  0  0  0  0
    1.9430   56.8490   74.8400 C   0  0  0  0  0  0  0  0  0  0  0  0
    1.9730   54.4820   74.0080 C   0  0  0  0  0  0  0  0  0  0  0  0
    1.3970   55.8650   73.8210 N   0  0  0  0  0  4  0  0  0  0  0  0
   -0.1100   55.8120   73.8000 C   0  0  0  0  0  0  0  0  0  0  0  0
    4.6926   59.0933   72.4428 H   0  0  0  0  0  0  0  0  0  0  0  0
    6.5295   60.4568   71.4886 H   0  0  0  0  0  0  0  0  0  0  0  0
    6.0533   62.7141   70.5447 H   0  0  0  0  0  0  0  0  0  0  0  0
    3.7238   63.5861   70.5797 H   0  0  0  0  0  0  0  0  0  0  0  0
    0.1281   58.4885   74.0406 H   0  0  0  0  0  0  0  0  0  0  0  0
   -2.9000   61.5376   73.7042 H   0  0  0  0  0  0  0  0  0  0  0  0
   -1.3269   62.9275   72.3629 H   0  0  0  0  0  0  0  0  0  0  0  0
    1.3641   57.7684   72.5574 H   0  0  0  0  0  0  0  0  0  0  0  0
    3.0883   58.0118   72.0544 H   0  0  0  0  0  0  0  0  0  0  0  0
    3.8199   57.5995   74.1202 H   0  0  0  0  0  0  0  0  0  0  0  0
    2.6722   58.8483   74.7975 H   0  0  0  0  0  0  0  0  0  0  0  0
    2.5741   56.3047   75.5580 H   0  0  0  0  0  0  0  0  0  0  0  0
    1.0905   57.3262   75.3455 H   0  0  0  0  0  0  0  0  0  0  0  0
    2.0635   54.2647   75.0825 H   0  0  0  0  0  0  0  0  0  0  0  0
    1.3085   53.7415   73.5389 H   0  0  0  0  0  0  0  0  0  0  0  0
    2.9667   54.4321   73.5389 H   0  0  0  0  0  0  0  0  0  0  0  0
    1.7002   56.2210   72.9033 H   0  0  0  0  0  0  0  0  0  0  0  0
   -0.4908   55.7986   74.8319 H   0  0  0  0  0  0  0  0  0  0  0  0
   -0.5008   56.6970   73.2764 H   0  0  0  0  0  0  0  0  0  0  0  0
   -0.4376   54.9018   73.2764 H   0  0  0  0  0  0  0  0  0  0  0  0
  2  1  1  0
  3  2  2  0
  4  3  1  0
  5  4  2  0
  6  5  1  0
  7  6  2  0
  7  2  1  0
  8  7  1  0
  9  8  1  0
 10  9  2  0
 10  1  1  0
 11 10  1  0
 12 11  2  0
 13 12  1  0
 14 12  1  0
 15 14  2  0
 15  9  1  0
 16  1  1  0
 17 16  1  0
 18 17  1  0
 20 19  1  0
 20 18  1  0
 21 20  1  0
  3 22  1  0
  4 23  1  0
  5 24  1  0
  6 25  1  0
 11 26  1  0
 14 27  1  0
 15 28  1  0
 16 29  1  0
 16 30  1  0
 17 31  1  0
 17 32  1  0
 18 33  1  0
 18 34  1  0
 19 35  1  0
 19 36  1  0
 19 37  1  0
 20 38  1  0
 21 39  1  0
 21 40  1  0
 21 41  1  0
M  CHG  1  20   1
M  END
>  <score>  (4) 
-7.174

$$$$
=
     RDKit          3D

 41 43  0  0  0  0  0  0  0  0999 V2000
    1.2510   61.2590   72.1720 N   0  0  0  0  0  0  0  0  0  0  0  0
    2.2060   61.5910   71.1640 C   0  0  0  0  0  0  0  0  0  0  0  0
    2.2030   62.8430   70.5070 C   0  0  0  0  0  0  0  0  0  0  0  0
    3.1270   63.1730   69.5060 C   0  0  0  0  0  0  0  0  0  0  0  0
    4.0880   62.2540   69.1220 C   0  0  0  0  0  0  0  0  0  0  0  0
    4.1180   61.0100   69.7390 C   0  0  0  0  0  0  0  0  0  0  0  0
    3.1900   60.6730   70.7440 C   0  0  0  0  0  0  0  0  0  0  0  0
    3.3890   59.0540   71.4450 S   0  0  0  0  0  0  0  0  0  0  0  0
    1.9250   58.8850   72.4320 C   0  0  0  0  0  0  0  0  0  0  0  0
    1.0470   59.9530   72.7140 C   0  0  0  0  0  0  0  0  0  0  0  0
   -0.0600   59.6470   73.5380 C   0  0  0  0  0  0  0  0  0  0  0  0
   -0.2740   58.3660   74.0570 C   0  0  0  0  0  0  0  0  0  0  0  0
   -1.6470   58.0750   75.0530 Cl  0  0  0  0  0  0  0  0  0  0  0  0
    0.6050   57.3360   73.7750 C   0  0  0  0  0  0  0  0  0  0  0  0
    1.7020   57.5970   72.9630 C   0  0  0  0  0  0  0  0  0  0  0  0
    0.5490   62.3750   72.8340 C   0  0  0  0  0  0  0  0  0  0  0  0
    1.3730   62.9560   73.9920 C   0  0  0  0  0  0  0  0  0  0  0  0
    0.6080   63.0160   75.3110 C   0  0  0  0  0  0  0  0  0  0  0  0
   -1.4890   63.8050   76.4420 C   0  0  0  0  0  0  0  0  0  0  0  0
   -0.6190   63.9060   75.2110 N   0  0  0  0  0  4  0  0  0  0  0  0
   -0.2810   65.3450   74.9180 C   0  0  0  0  0  0  0  0  0  0  0  0
    1.4455   63.5876   70.7928 H   0  0  0  0  0  0  0  0  0  0  0  0
    3.0884   64.1619   69.0259 H   0  0  0  0  0  0  0  0  0  0  0  0
    4.8182   62.5054   68.3387 H   0  0  0  0  0  0  0  0  0  0  0  0
    4.8793   60.2754   69.4378 H   0  0  0  0  0  0  0  0  0  0  0  0
   -0.7783   60.4443   73.7795 H   0  0  0  0  0  0  0  0  0  0  0  0
    0.4388   56.3292   74.1858 H   0  0  0  0  0  0  0  0  0  0  0  0
    2.4081   56.7862   72.7304 H   0  0  0  0  0  0  0  0  0  0  0  0
    0.3637   63.1684   72.0949 H   0  0  0  0  0  0  0  0  0  0  0  0
   -0.3964   61.9906   73.2444 H   0  0  0  0  0  0  0  0  0  0  0  0
    2.2648   62.3280   74.1346 H   0  0  0  0  0  0  0  0  0  0  0  0
    1.6312   63.9900   73.7195 H   0  0  0  0  0  0  0  0  0  0  0  0
    0.2892   61.9993   75.5844 H   0  0  0  0  0  0  0  0  0  0  0  0
    1.2764   63.4394   76.0752 H   0  0  0  0  0  0  0  0  0  0  0  0
   -0.8608   63.8779   77.3420 H   0  0  0  0  0  0  0  0  0  0  0  0
   -2.2234   64.6239   76.4401 H   0  0  0  0  0  0  0  0  0  0  0  0
   -2.0163   62.8396   76.4401 H   0  0  0  0  0  0  0  0  0  0  0  0
   -1.1543   63.5513   74.4057 H   0  0  0  0  0  0  0  0  0  0  0  0
   -0.1526   65.8914   75.8640 H   0  0  0  0  0  0  0  0  0  0  0  0
    0.6525   65.3916   74.3381 H   0  0  0  0  0  0  0  0  0  0  0  0
   -1.0962   65.8024   74.3381 H   0  0  0  0  0  0  0  0  0  0  0  0
  2  1  1  0
  3  2  2  0
  4  3  1  0
  5  4  2  0
  6  5  1  0
  7  6  2  0
  7  2  1  0
  8  7  1  0
  9  8  1  0
 10  9  2  0
 10  1  1  0
 11 10  1  0
 12 11  2  0
 13 12  1  0
 14 12  1  0
 15 14  2  0
 15  9  1  0
 16  1  1  0
 17 16  1  0
 18 17  1  0
 20 19  1  0
 20 18  1  0
 21 20  1  0
  3 22  1  0
  4 23  1  0
  5 24  1  0
  6 25  1  0
 11 26  1  0
 14 27  1  0
 15 28  1  0
 16 29  1  0
 16 30  1  0
 17 31  1  0
 17 32  1  0
 18 33  1  0
 18 34  1  0
 19 35  1  0
 19 36  1  0
 19 37  1  0
 20 38  1  0
 21 39  1  0
 21 40  1  0
 21 41  1  0
M  CHG  1  20   1
M  END
>  <score>  (5) 
-7.062

$$$$
=
     RDKit          3D

 41 43  0  0  0  0  0  0  0  0999 V2000
    1.1290   61.7320   72.3370 N   0  0  0  0  0  0  0  0  0  0  0  0
    1.2510   62.9760   71.6460 C   0  0  0  0  0  0  0  0  0  0  0  0
    0.3190   64.0260   71.8160 C   0  0  0  0  0  0  0  0  0  0  0  0
    0.4210   65.2450   71.1330 C   0  0  0  0  0  0  0  0  0  0  0  0
    1.4630   65.4550   70.2460 C   0  0  0  0  0  0  0  0  0  0  0  0
    2.3950   64.4440   70.0460 C   0  0  0  0  0  0  0  0  0  0  0  0
    2.2940   63.2160   70.7290 C   0  0  0  0  0  0  0  0  0  0  0  0
    3.5830   62.0470   70.3780 S   0  0  0  0  0  0  0  0  0  0  0  0
    2.9880   60.5760   71.1690 C   0  0  0  0  0  0  0  0  0  0  0  0
    1.8880   60.5560   72.0520 C   0  0  0  0  0  0  0  0  0  0  0  0
    1.5630   59.2990   72.6130 C   0  0  0  0  0  0  0  0  0  0  0  0
    2.2930   58.1410   72.3250 C   0  0  0  0  0  0  0  0  0  0  0  0
    1.8320   56.6490   73.0500 Cl  0  0  0  0  0  0  0  0  0  0  0  0
    3.3730   58.1860   71.4630 C   0  0  0  0  0  0  0  0  0  0  0  0
    3.7190   59.4020   70.8870 C   0  0  0  0  0  0  0  0  0  0  0  0
    0.2900   61.7090   73.5500 C   0  0  0  0  0  0  0  0  0  0  0  0
    1.0970   62.0740   74.8040 C   0  0  0  0  0  0  0  0  0  0  0  0
    0.2410   62.6370   75.9340 C   0  0  0  0  0  0  0  0  0  0  0  0
   -1.8760   63.9070   76.3820 C   0  0  0  0  0  0  0  0  0  0  0  0
   -0.7150   63.7080   75.4380 N   0  0  0  0  0  4  0  0  0  0  0  0
   -0.0330   65.0220   75.1540 C   0  0  0  0  0  0  0  0  0  0  0  0
   -0.5197   63.8797   72.5125 H   0  0  0  0  0  0  0  0  0  0  0  0
   -0.3262   66.0345   71.3014 H   0  0  0  0  0  0  0  0  0  0  0  0
    1.5519   66.4096   69.7067 H   0  0  0  0  0  0  0  0  0  0  0  0
    3.2254   64.6051   69.3428 H   0  0  0  0  0  0  0  0  0  0  0  0
    0.7064   59.2296   73.2996 H   0  0  0  0  0  0  0  0  0  0  0  0
    3.9478   57.2757   71.2374 H   0  0  0  0  0  0  0  0  0  0  0  0
    4.5767   59.4506   70.1999 H   0  0  0  0  0  0  0  0  0  0  0  0
   -0.5300   62.4324   73.4304 H   0  0  0  0  0  0  0  0  0  0  0  0
   -0.1009   60.6888   73.6780 H   0  0  0  0  0  0  0  0  0  0  0  0
    1.6033   61.1680   75.1685 H   0  0  0  0  0  0  0  0  0  0  0  0
    1.8090   62.8606   74.5138 H   0  0  0  0  0  0  0  0  0  0  0  0
   -0.3423   61.8183   76.3806 H   0  0  0  0  0  0  0  0  0  0  0  0
    0.9121   63.0948   76.6756 H   0  0  0  0  0  0  0  0  0  0  0  0
   -1.5188   63.8458   77.4206 H   0  0  0  0  0  0  0  0  0  0  0  0
   -2.3259   64.8954   76.2067 H   0  0  0  0  0  0  0  0  0  0  0  0
   -2.6294   63.1249   76.2067 H   0  0  0  0  0  0  0  0  0  0  0  0
   -1.0821   63.3577   74.5417 H   0  0  0  0  0  0  0  0  0  0  0  0
    0.2229   65.5150   76.1034 H   0  0  0  0  0  0  0  0  0  0  0  0
    0.8851   64.8412   74.5757 H   0  0  0  0  0  0  0  0  0  0  0  0
   -0.7093   65.6687   74.5757 H   0  0  0  0  0  0  0  0  0  0  0  0
  2  1  1  0
  3  2  2  0
  4  3  1  0
  5  4  2  0
  6  5  1  0
  7  6  2  0
  7  2  1  0
  8  7  1  0
  9  8  1  0
 10  9  2  0
 10  1  1  0
 11 10  1  0
 12 11  2  0
 13 12  1  0
 14 12  1  0
 15 14  2  0
 15  9  1  0
 16  1  1  0
 17 16  1  0
 18 17  1  0
 20 19  1  0
 20 18  1  0
 21 20  1  0
  3 22  1  0
  4 23  1  0
  5 24  1  0
  6 25  1  0
 11 26  1  0
 14 27  1  0
 15 28  1  0
 16 29  1  0
 16 30  1  0
 17 31  1  0
 17 32  1  0
 18 33  1  0
 18 34  1  0
 19 35  1  0
 19 36  1  0
 19 37  1  0
 20 38  1  0
 21 39  1  0
 21 40  1  0
 21 41  1  0
M  CHG  1  20   1
M  END
>  <score>  (6) 
-6.959

$$$$
=
     RDKit          3D

 41 43  0  0  0  0  0  0  0  0999 V2000
    1.1990   61.7140   72.4370 N   0  0  0  0  0  0  0  0  0  0  0  0
    1.2950   62.9460   71.7230 C   0  0  0  0  0  0  0  0  0  0  0  0
    0.4160   64.0270   71.9640 C   0  0  0  0  0  0  0  0  0  0  0  0
    0.4920   65.2350   71.2590 C   0  0  0  0  0  0  0  0  0  0  0  0
    1.4530   65.4040   70.2770 C   0  0  0  0  0  0  0  0  0  0  0  0
    2.3310   64.3610   70.0050 C   0  0  0  0  0  0  0  0  0  0  0  0
    2.2560   63.1440   70.7100 C   0  0  0  0  0  0  0  0  0  0  0  0
    3.4700   61.9320   70.2560 S   0  0  0  0  0  0  0  0  0  0  0  0
    2.9060   60.4880   71.1180 C   0  0  0  0  0  0  0  0  0  0  0  0
    1.8920   60.5110   72.0980 C   0  0  0  0  0  0  0  0  0  0  0  0
    1.5820   59.2710   72.7030 C   0  0  0  0  0  0  0  0  0  0  0  0
    2.2450   58.0880   72.3640 C   0  0  0  0  0  0  0  0  0  0  0  0
    1.8090   56.6190   73.1470 Cl  0  0  0  0  0  0  0  0  0  0  0  0
    3.2430   58.0890   71.4060 C   0  0  0  0  0  0  0  0  0  0  0  0
    3.5710   59.2890   70.7850 C   0  0  0  0  0  0  0  0  0  0  0  0
    0.4760   61.7300   73.7230 C   0  0  0  0  0  0  0  0  0  0  0  0
    1.3510   62.2770   74.8580 C   0  0  0  0  0  0  0  0  0  0  0  0
    0.7460   62.0730   76.2440 C   0  0  0  0  0  0  0  0  0  0  0  0
    1.3120   63.4890   78.2370 C   0  0  0  0  0  0  0  0  0  0  0  0
    1.7540   62.3530   77.3460 N   0  0  0  0  0  4  0  0  0  0  0  0
    2.0840   61.1330   78.1680 C   0  0  0  0  0  0  0  0  0  0  0  0
   -0.3590   63.9148   72.7365 H   0  0  0  0  0  0  0  0  0  0  0  0
   -0.2119   66.0493   71.4857 H   0  0  0  0  0  0  0  0  0  0  0  0
    1.5209   66.3500   69.7199 H   0  0  0  0  0  0  0  0  0  0  0  0
    3.0972   64.4884   69.2261 H   0  0  0  0  0  0  0  0  0  0  0  0
    0.7915   59.2362   73.4671 H   0  0  0  0  0  0  0  0  0  0  0  0
    3.7667   57.1588   71.1408 H   0  0  0  0  0  0  0  0  0  0  0  0
    4.3624   59.3038   70.0211 H   0  0  0  0  0  0  0  0  0  0  0  0
   -0.4163   62.3654   73.6226 H   0  0  0  0  0  0  0  0  0  0  0  0
    0.1968   60.6958   73.9727 H   0  0  0  0  0  0  0  0  0  0  0  0
    2.3247   61.7663   74.8243 H   0  0  0  0  0  0  0  0  0  0  0  0
    1.4439   63.3618   74.7015 H   0  0  0  0  0  0  0  0  0  0  0  0
   -0.1098   62.7538   76.3628 H   0  0  0  0  0  0  0  0  0  0  0  0
    0.4300   61.0227   76.3282 H   0  0  0  0  0  0  0  0  0  0  0  0
    1.4266   63.1945   79.2906 H   0  0  0  0  0  0  0  0  0  0  0  0
    1.9307   64.3757   78.0347 H   0  0  0  0  0  0  0  0  0  0  0  0
    0.2567   63.7244   78.0347 H   0  0  0  0  0  0  0  0  0  0  0  0
    2.6195   62.6360   76.8646 H   0  0  0  0  0  0  0  0  0  0  0  0
    2.0166   61.3821   79.2373 H   0  0  0  0  0  0  0  0  0  0  0  0
    1.3711   60.3289   77.9332 H   0  0  0  0  0  0  0  0  0  0  0  0
    3.1051   60.7979   77.9332 H   0  0  0  0  0  0  0  0  0  0  0  0
  2  1  1  0
  3  2  2  0
  4  3  1  0
  5  4  2  0
  6  5  1  0
  7  6  2  0
  7  2  1  0
  8  7  1  0
  9  8  1  0
 10  9  2  0
 10  1  1  0
 11 10  1  0
 12 11  2  0
 13 12  1  0
 14 12  1  0
 15 14  2  0
 15  9  1  0
 16  1  1  0
 17 16  1  0
 18 17  1  0
 20 19  1  0
 20 18  1  0
 21 20  1  0
  3 22  1  0
  4 23  1  0
  5 24  1  0
  6 25  1  0
 11 26  1  0
 14 27  1  0
 15 28  1  0
 16 29  1  0
 16 30  1  0
 17 31  1  0
 17 32  1  0
 18 33  1  0
 18 34  1  0
 19 35  1  0
 19 36  1  0
 19 37  1  0
 20 38  1  0
 21 39  1  0
 21 40  1  0
 21 41  1  0
M  CHG  1  20   1
M  END
>  <score>  (7) 
-6.671

$$$$
=
     RDKit          3D

 41 43  0  0  0  0  0  0  0  0999 V2000
    2.5870   61.5930   73.0910 N   0  0  0  0  0  0  0  0  0  0  0  0
    2.9460   61.6000   71.7100 C   0  0  0  0  0  0  0  0  0  0  0  0
    3.9830   60.7870   71.1970 C   0  0  0  0  0  0  0  0  0  0  0  0
    4.3530   60.7970   69.8460 C   0  0  0  0  0  0  0  0  0  0  0  0
    3.6990   61.6300   68.9550 C   0  0  0  0  0  0  0  0  0  0  0  0
    2.6790   62.4510   69.4230 C   0  0  0  0  0  0  0  0  0  0  0  0
    2.3050   62.4450   70.7810 C   0  0  0  0  0  0  0  0  0  0  0  0
    0.9660   63.5330   71.2000 S   0  0  0  0  0  0  0  0  0  0  0  0
    0.9670   63.4700   72.9730 C   0  0  0  0  0  0  0  0  0  0  0  0
    1.7180   62.5380   73.7200 C   0  0  0  0  0  0  0  0  0  0  0  0
    1.5830   62.6130   75.1250 C   0  0  0  0  0  0  0  0  0  0  0  0
    0.7470   63.5470   75.7470 C   0  0  0  0  0  0  0  0  0  0  0  0
    0.6390   63.5730   77.4640 Cl  0  0  0  0  0  0  0  0  0  0  0  0
    0.0140   64.4450   74.9940 C   0  0  0  0  0  0  0  0  0  0  0  0
    0.1250   64.4060   73.6090 C   0  0  0  0  0  0  0  0  0  0  0  0
    2.9940   60.4230   73.8920 C   0  0  0  0  0  0  0  0  0  0  0  0
    1.9360   59.3110   73.8490 C   0  0  0  0  0  0  0  0  0  0  0  0
    2.4090   57.9980   74.4650 C   0  0  0  0  0  0  0  0  0  0  0  0
    1.1600   55.9320   73.7820 C   0  0  0  0  0  0  0  0  0  0  0  0
    2.3220   56.8480   73.4770 N   0  0  0  0  0  4  0  0  0  0  0  0
    2.2740   57.3050   72.0420 C   0  0  0  0  0  0  0  0  0  0  0  0
    4.5208   60.1198   71.8866 H   0  0  0  0  0  0  0  0  0  0  0  0
    5.1637   60.1425   69.4931 H   0  0  0  0  0  0  0  0  0  0  0  0
    3.9820   61.6424   67.8921 H   0  0  0  0  0  0  0  0  0  0  0  0
    2.1553   63.1164   68.7209 H   0  0  0  0  0  0  0  0  0  0  0  0
    2.1551   61.9127   75.7513 H   0  0  0  0  0  0  0  0  0  0  0  0
   -0.6455   65.1776   75.4822 H   0  0  0  0  0  0  0  0  0  0  0  0
   -0.4529   65.1162   72.9994 H   0  0  0  0  0  0  0  0  0  0  0  0
    3.9410   60.0299   73.4936 H   0  0  0  0  0  0  0  0  0  0  0  0
    3.1105   60.7460   74.9370 H   0  0  0  0  0  0  0  0  0  0  0  0
    1.0476   59.6540   74.3996 H   0  0  0  0  0  0  0  0  0  0  0  0
    1.7184   59.1118   72.7893 H   0  0  0  0  0  0  0  0  0  0  0  0
    3.4545   58.1122   74.7874 H   0  0  0  0  0  0  0  0  0  0  0  0
    1.7552   57.7657   75.3186 H   0  0  0  0  0  0  0  0  0  0  0  0
    1.0424   55.8393   74.8718 H   0  0  0  0  0  0  0  0  0  0  0  0
    0.2397   56.3502   73.3482 H   0  0  0  0  0  0  0  0  0  0  0  0
    1.3518   54.9395   73.3482 H   0  0  0  0  0  0  0  0  0  0  0  0
    3.1953   56.3146   73.5943 H   0  0  0  0  0  0  0  0  0  0  0  0
    2.1591   58.3985   72.0091 H   0  0  0  0  0  0  0  0  0  0  0  0
    3.2071   57.0189   71.5347 H   0  0  0  0  0  0  0  0  0  0  0  0
    1.4207   56.8312   71.5347 H   0  0  0  0  0  0  0  0  0  0  0  0
  2  1  1  0
  3  2  2  0
  4  3  1  0
  5  4  2  0
  6  5  1  0
  7  6  2  0
  7  2  1  0
  8  7  1  0
  9  8  1  0
 10  9  2  0
 10  1  1  0
 11 10  1  0
 12 11  2  0
 13 12  1  0
 14 12  1  0
 15 14  2  0
 15  9  1  0
 16  1  1  0
 17 16  1  0
 18 17  1  0
 20 19  1  0
 20 18  1  0
 21 20  1  0
  3 22  1  0
  4 23  1  0
  5 24  1  0
  6 25  1  0
 11 26  1  0
 14 27  1  0
 15 28  1  0
 16 29  1  0
 16 30  1  0
 17 31  1  0
 17 32  1  0
 18 33  1  0
 18 34  1  0
 19 35  1  0
 19 36  1  0
 19 37  1  0
 20 38  1  0
 21 39  1  0
 21 40  1  0
 21 41  1  0
M  CHG  1  20   1
M  END
>  <score>  (8) 
-6.538

$$$$
=
     RDKit          3D

 41 43  0  0  0  0  0  0  0  0999 V2000
    1.6950   58.9710   72.8980 N   0  0  0  0  0  0  0  0  0  0  0  0
    0.9630   57.8820   73.4590 C   0  0  0  0  0  0  0  0  0  0  0  0
    1.4880   56.5700   73.5150 C   0  0  0  0  0  0  0  0  0  0  0  0
    0.7720   55.4920   74.0510 C   0  0  0  0  0  0  0  0  0  0  0  0
   -0.5040   55.6870   74.5490 C   0  0  0  0  0  0  0  0  0  0  0  0
   -1.0590   56.9610   74.5040 C   0  0  0  0  0  0  0  0  0  0  0  0
   -0.3430   58.0480   73.9640 C   0  0  0  0  0  0  0  0  0  0  0  0
   -1.1880   59.6080   74.0120 S   0  0  0  0  0  0  0  0  0  0  0  0
   -0.1360   60.6410   73.0250 C   0  0  0  0  0  0  0  0  0  0  0  0
    1.1540   60.2590   72.6010 C   0  0  0  0  0  0  0  0  0  0  0  0
    1.8660   61.2150   71.8400 C   0  0  0  0  0  0  0  0  0  0  0  0
    1.3350   62.4720   71.5320 C   0  0  0  0  0  0  0  0  0  0  0  0
    2.2670   63.5790   70.6000 Cl  0  0  0  0  0  0  0  0  0  0  0  0
    0.0710   62.8270   71.9660 C   0  0  0  0  0  0  0  0  0  0  0  0
   -0.6620   61.9120   72.7120 C   0  0  0  0  0  0  0  0  0  0  0  0
    3.1580   58.8170   72.7830 C   0  0  0  0  0  0  0  0  0  0  0  0
    3.8870   59.4230   73.9900 C   0  0  0  0  0  0  0  0  0  0  0  0
    4.1750   58.4120   75.0960 C   0  0  0  0  0  0  0  0  0  0  0  0
    2.5600   59.8450   76.3760 C   0  0  0  0  0  0  0  0  0  0  0  0
    3.7650   58.9380   76.4610 N   0  0  0  0  0  4  0  0  0  0  0  0
    3.5320   57.8420   77.4700 C   0  0  0  0  0  0  0  0  0  0  0  0
    2.4992   56.3888   73.1218 H   0  0  0  0  0  0  0  0  0  0  0  0
    1.2245   54.4897   74.0760 H   0  0  0  0  0  0  0  0  0  0  0  0
   -1.0713   54.8461   74.9745 H   0  0  0  0  0  0  0  0  0  0  0  0
   -2.0738   57.1231   74.8964 H   0  0  0  0  0  0  0  0  0  0  0  0
    2.8730   60.9612   71.4774 H   0  0  0  0  0  0  0  0  0  0  0  0
   -0.3467   63.8157   71.7251 H   0  0  0  0  0  0  0  0  0  0  0  0
   -1.6683   62.1830   73.0640 H   0  0  0  0  0  0  0  0  0  0  0  0
    3.4003   57.7458   72.7207 H   0  0  0  0  0  0  0  0  0  0  0  0
    3.4896   59.3483   71.8787 H   0  0  0  0  0  0  0  0  0  0  0  0
    4.8430   59.8433   73.6446 H   0  0  0  0  0  0  0  0  0  0  0  0
    3.2246   60.1905   74.4169 H   0  0  0  0  0  0  0  0  0  0  0  0
    3.6162   57.4876   74.8879 H   0  0  0  0  0  0  0  0  0  0  0  0
    5.2585   58.2232   75.1134 H   0  0  0  0  0  0  0  0  0  0  0  0
    2.2209   60.1002   77.3908 H   0  0  0  0  0  0  0  0  0  0  0  0
    2.8309   60.7652   75.8376 H   0  0  0  0  0  0  0  0  0  0  0  0
    1.7507   59.3300   75.8376 H   0  0  0  0  0  0  0  0  0  0  0  0
    4.5656   59.4926   76.7961 H   0  0  0  0  0  0  0  0  0  0  0  0
    3.6197   58.2543   78.4860 H   0  0  0  0  0  0  0  0  0  0  0  0
    2.5247   57.4228   77.3300 H   0  0  0  0  0  0  0  0  0  0  0  0
    4.2817   57.0493   77.3300 H   0  0  0  0  0  0  0  0  0  0  0  0
  2  1  1  0
  3  2  2  0
  4  3  1  0
  5  4  2  0
  6  5  1  0
  7  6  2  0
  7  2  1  0
  8  7  1  0
  9  8  1  0
 10  9  2  0
 10  1  1  0
 11 10  1  0
 12 11  2  0
 13 12  1  0
 14 12  1  0
 15 14  2  0
 15  9  1  0
 16  1  1  0
 17 16  1  0
 18 17  1  0
 20 19  1  0
 20 18  1  0
 21 20  1  0
  3 22  1  0
  4 23  1  0
  5 24  1  0
  6 25  1  0
 11 26  1  0
 14 27  1  0
 15 28  1  0
 16 29  1  0
 16 30  1  0
 17 31  1  0
 17 32  1  0
 18 33  1  0
 18 34  1  0
 19 35  1  0
 19 36  1  0
 19 37  1  0
 20 38  1  0
 21 39  1  0
 21 40  1  0
 21 41  1  0
M  CHG  1  20   1
M  END
>  <score>  (9) 
-6.471

$$$$
