=
     RDKit          3D

 75 80  0  0  0  0  0  0  0  0999 V2000
    0.3470   65.3560   70.8490 C   0  0  0  0  0  0  0  0  0  0  0  0
   -0.2870   66.0500   71.6400 O   0  0  0  0  0  0  0  0  0  0  0  0
    0.2550   65.5100   69.4890 N   0  0  0  0  0  0  0  0  0  0  0  0
    1.7940   62.6970   73.0910 N   0  0  0  0  0  0  0  0  0  0  0  0
    1.0480   63.7070   72.4970 C   0  0  0  0  0  0  0  0  0  0  0  0
    1.2770   64.2870   71.3100 C   0  0  0  0  0  0  0  0  0  0  0  0
    2.4560   63.8060   70.5500 C   0  0  0  0  0  0  0  0  0  0  0  0
    2.7490   64.2840   69.4550 O   0  0  0  0  0  0  0  0  0  0  0  0
    3.2810   62.7300   71.1540 C   0  0  0  0  0  0  0  0  0  0  0  0
    2.9320   62.1990   72.4140 C   0  0  0  0  0  0  0  0  0  0  0  0
    3.7590   61.1830   72.9220 C   0  0  0  0  0  0  0  0  0  0  0  0
    4.8760   60.7190   72.2140 C   0  0  0  0  0  0  0  0  0  0  0  0
    5.1980   61.2630   70.9750 C   0  0  0  0  0  0  0  0  0  0  0  0
    4.4010   62.2690   70.4420 C   0  0  0  0  0  0  0  0  0  0  0  0
    1.4320   62.1690   74.4230 C   0  0  0  0  0  0  0  0  0  0  0  0
   -2.3090   59.9680   74.5340 C   0  0  0  0  0  0  0  0  0  0  0  0
   -1.1960   59.4480   73.8770 C   0  0  0  0  0  0  0  0  0  0  0  0
    0.0030   60.1700   73.8400 C   0  0  0  0  0  0  0  0  0  0  0  0
    0.1060   61.4310   74.4500 C   0  0  0  0  0  0  0  0  0  0  0  0
   -1.0120   61.9360   75.1240 C   0  0  0  0  0  0  0  0  0  0  0  0
   -2.2080   61.2130   75.1580 C   0  0  0  0  0  0  0  0  0  0  0  0
   -4.6440   60.2190   74.9060 C   0  0  0  0  0  0  0  0  0  0  0  0
   -3.5340   59.3700   74.6440 O   0  0  0  0  0  0  0  0  0  0  0  0
   -0.5590   66.5350   68.8740 C   0  0  0  0  0  0  0  0  0  0  0  0
    0.1870   67.2480   67.7510 C   0  0  0  0  0  0  0  0  0  0  0  0
    1.3460   68.0710   68.3050 C   0  0  0  0  0  0  0  0  0  0  0  0
    1.4810   69.3040   67.5170 N   0  0  0  0  0  0  0  0  0  0  0  0
    2.7480   69.3810   66.8660 C   0  0  0  0  0  0  0  0  0  0  0  0
    2.8200   69.0580   65.4960 C   0  0  0  0  0  0  0  0  0  0  0  0
    1.6010   68.5820   64.7410 C   0  0  0  0  0  0  0  0  0  0  0  0
    1.9230   67.9290   63.3980 C   0  0  0  0  0  0  0  0  0  0  0  0
    2.9230   68.7760   62.6250 C   0  0  0  0  0  0  0  0  0  0  0  0
    4.2320   68.8680   63.4000 C   0  0  0  0  0  0  0  0  0  0  0  0
    4.0450   69.2240   64.8530 C   0  0  0  0  0  0  0  0  0  0  0  0
    5.1600   69.6570   65.4870 N   0  0  0  0  0  0  0  0  0  0  0  0
    5.0940   69.9590   66.7890 C   0  0  0  0  0  0  0  0  0  0  0  0
    3.9080   69.8500   67.5450 C   0  0  0  0  0  0  0  0  0  0  0  0
    3.9470   70.2120   68.9150 C   0  0  0  0  0  0  0  0  0  0  0  0
    5.1230   70.6600   69.5130 C   0  0  0  0  0  0  0  0  0  0  0  0
    6.2770   70.7530   68.7490 C   0  0  0  0  0  0  0  0  0  0  0  0
    6.2550   70.4060   67.4020 C   0  0  0  0  0  0  0  0  0  0  0  0
    7.7380   71.3040   69.4710 Cl  0  0  0  0  0  0  0  0  0  0  0  0
    0.7868   64.8702   68.8817 H   0  0  0  0  0  0  0  0  0  0  0  0
    0.1760   64.0699   73.0608 H   0  0  0  0  0  0  0  0  0  0  0  0
    3.5236   60.7402   73.9010 H   0  0  0  0  0  0  0  0  0  0  0  0
    5.5012   59.9206   72.6403 H   0  0  0  0  0  0  0  0  0  0  0  0
    6.0765   60.8998   70.4215 H   0  0  0  0  0  0  0  0  0  0  0  0
    4.6471   62.7045   69.4623 H   0  0  0  0  0  0  0  0  0  0  0  0
    2.2216   61.4752   74.7473 H   0  0  0  0  0  0  0  0  0  0  0  0
    1.3304   63.0348   75.0939 H   0  0  0  0  0  0  0  0  0  0  0  0
   -1.2595   58.4661   73.3853 H   0  0  0  0  0  0  0  0  0  0  0  0
    0.8769   59.7436   73.3258 H   0  0  0  0  0  0  0  0  0  0  0  0
   -0.9490   62.9100   75.6312 H   0  0  0  0  0  0  0  0  0  0  0  0
   -3.0802   61.6300   75.6828 H   0  0  0  0  0  0  0  0  0  0  0  0
   -4.7785   60.3218   75.9929 H   0  0  0  0  0  0  0  0  0  0  0  0
   -4.4605   61.2094   74.4639 H   0  0  0  0  0  0  0  0  0  0  0  0
   -5.5518   59.7826   74.4639 H   0  0  0  0  0  0  0  0  0  0  0  0
   -1.4660   66.0699   68.4605 H   0  0  0  0  0  0  0  0  0  0  0  0
   -0.8137   67.2788   69.6434 H   0  0  0  0  0  0  0  0  0  0  0  0
    0.5806   66.4993   67.0478 H   0  0  0  0  0  0  0  0  0  0  0  0
   -0.5122   67.9254   67.2389 H   0  0  0  0  0  0  0  0  0  0  0  0
    1.1471   68.3259   69.3564 H   0  0  0  0  0  0  0  0  0  0  0  0
    2.2769   67.4882   68.2431 H   0  0  0  0  0  0  0  0  0  0  0  0
    0.7494   70.0253   67.4436 H   0  0  0  0  0  0  0  0  0  0  0  0
    1.0713   67.8475   65.3655 H   0  0  0  0  0  0  0  0  0  0  0  0
    0.9900   69.4711   64.5263 H   0  0  0  0  0  0  0  0  0  0  0  0
    2.3515   66.9312   63.5732 H   0  0  0  0  0  0  0  0  0  0  0  0
    0.9969   67.8437   62.8106 H   0  0  0  0  0  0  0  0  0  0  0  0
    3.1112   68.3144   61.6444 H   0  0  0  0  0  0  0  0  0  0  0  0
    2.5117   69.7868   62.4869 H   0  0  0  0  0  0  0  0  0  0  0  0
    4.7402   67.8942   63.3424 H   0  0  0  0  0  0  0  0  0  0  0  0
    4.8239   69.6742   62.9422 H   0  0  0  0  0  0  0  0  0  0  0  0
    3.0302   70.1377   69.5182 H   0  0  0  0  0  0  0  0  0  0  0  0
    5.1361   70.9365   70.5776 H   0  0  0  0  0  0  0  0  0  0  0  0
    7.1786   70.4879   66.8102 H   0  0  0  0  0  0  0  0  0  0  0  0
  2  1  2  0
  3  1  1  0
  5  4  1  0
  6  1  1  0
  6  5  2  0
  7  6  1  0
  8  7  2  0
  9  7  1  0
 10  9  2  0
 10  4  1  0
 11 10  1  0
 12 11  2  0
 13 12  1  0
 14 13  2  0
 14  9  1  0
 15  4  1  0
 17 16  2  0
 18 17  1  0
 19 18  2  0
 19 15  1  0
 20 19  1  0
 21 20  2  0
 21 16  1  0
 23 22  1  0
 23 16  1  0
 24  3  1  0
 25 24  1  0
 26 25  1  0
 27 26  1  0
 28 27  1  0
 29 28  1  0
 30 29  1  0
 31 30  1  0
 32 31  1  0
 33 32  1  0
 34 33  1  0
 34 29  2  0
 35 34  1  0
 36 35  2  0
 37 36  1  0
 37 28  2  0
 38 37  1  0
 39 38  2  0
 40 39  1  0
 41 36  1  0
 41 40  2  0
 42 40  1  0
  3 43  1  0
  5 44  1  0
 11 45  1  0
 12 46  1  0
 13 47  1  0
 14 48  1  0
 15 49  1  0
 15 50  1  0
 17 51  1  0
 18 52  1  0
 20 53  1  0
 21 54  1  0
 22 55  1  0
 22 56  1  0
 22 57  1  0
 24 58  1  0
 24 59  1  0
 25 60  1  0
 25 61  1  0
 26 62  1  0
 26 63  1  0
 27 64  1  0
 30 65  1  0
 30 66  1  0
 31 67  1  0
 31 68  1  0
 32 69  1  0
 32 70  1  0
 33 71  1  0
 33 72  1  0
 38 73  1  0
 39 74  1  0
 41 75  1  0
M  END
>  <score>  (1) 
-13.285

$$$$
=
     RDKit          3D

 75 80  0  0  0  0  0  0  0  0999 V2000
    0.4110   65.2570   70.9090 C   0  0  0  0  0  0  0  0  0  0  0  0
   -0.1650   65.9690   71.7280 O   0  0  0  0  0  0  0  0  0  0  0  0
    0.2610   65.4130   69.5540 N   0  0  0  0  0  0  0  0  0  0  0  0
    1.8760   62.5490   73.0810 N   0  0  0  0  0  0  0  0  0  0  0  0
    1.1330   63.5810   72.5210 C   0  0  0  0  0  0  0  0  0  0  0  0
    1.3310   64.1610   71.3280 C   0  0  0  0  0  0  0  0  0  0  0  0
    2.4650   63.6540   70.5200 C   0  0  0  0  0  0  0  0  0  0  0  0
    2.7270   64.1300   69.4170 O   0  0  0  0  0  0  0  0  0  0  0  0
    3.2850   62.5530   71.0860 C   0  0  0  0  0  0  0  0  0  0  0  0
    2.9720   62.0240   72.3570 C   0  0  0  0  0  0  0  0  0  0  0  0
    3.7910   60.9840   72.8270 C   0  0  0  0  0  0  0  0  0  0  0  0
    4.8670   60.4950   72.0730 C   0  0  0  0  0  0  0  0  0  0  0  0
    5.1540   61.0370   70.8250 C   0  0  0  0  0  0  0  0  0  0  0  0
    4.3630   62.0670   70.3280 C   0  0  0  0  0  0  0  0  0  0  0  0
    1.5530   62.0240   74.4230 C   0  0  0  0  0  0  0  0  0  0  0  0
   -2.3880   60.2140   74.6400 C   0  0  0  0  0  0  0  0  0  0  0  0
   -2.1360   61.4460   75.2420 C   0  0  0  0  0  0  0  0  0  0  0  0
   -0.8590   62.0160   75.1720 C   0  0  0  0  0  0  0  0  0  0  0  0
    0.1910   61.3590   74.5110 C   0  0  0  0  0  0  0  0  0  0  0  0
   -0.0780   60.1310   73.8940 C   0  0  0  0  0  0  0  0  0  0  0  0
   -1.3540   59.5640   73.9660 C   0  0  0  0  0  0  0  0  0  0  0  0
   -3.8710   58.7300   75.7590 C   0  0  0  0  0  0  0  0  0  0  0  0
   -3.5830   59.5490   74.6330 O   0  0  0  0  0  0  0  0  0  0  0  0
   -0.5500   66.4620   68.9760 C   0  0  0  0  0  0  0  0  0  0  0  0
    0.1660   67.1580   67.8240 C   0  0  0  0  0  0  0  0  0  0  0  0
    1.3500   67.9750   68.3350 C   0  0  0  0  0  0  0  0  0  0  0  0
    1.3810   69.2660   67.6330 N   0  0  0  0  0  0  0  0  0  0  0  0
    2.6120   69.4630   66.9410 C   0  0  0  0  0  0  0  0  0  0  0  0
    3.7260   69.9230   67.6720 C   0  0  0  0  0  0  0  0  0  0  0  0
    3.6110   70.2600   69.1400 C   0  0  0  0  0  0  0  0  0  0  0  0
    4.7810   71.0840   69.6770 C   0  0  0  0  0  0  0  0  0  0  0  0
    6.1020   70.4930   69.2090 C   0  0  0  0  0  0  0  0  0  0  0  0
    6.1830   70.5450   67.6880 C   0  0  0  0  0  0  0  0  0  0  0  0
    4.9450   70.0250   67.0030 C   0  0  0  0  0  0  0  0  0  0  0  0
    5.0960   69.7250   65.6910 N   0  0  0  0  0  0  0  0  0  0  0  0
    4.0380   69.2920   64.9960 C   0  0  0  0  0  0  0  0  0  0  0  0
    2.7570   69.1310   65.5650 C   0  0  0  0  0  0  0  0  0  0  0  0
    1.7090   68.6500   64.7390 C   0  0  0  0  0  0  0  0  0  0  0  0
    1.9260   68.3480   63.3950 C   0  0  0  0  0  0  0  0  0  0  0  0
    3.1930   68.5210   62.8600 C   0  0  0  0  0  0  0  0  0  0  0  0
    4.2330   68.9880   63.6570 C   0  0  0  0  0  0  0  0  0  0  0  0
    3.4780   68.1540   61.2040 Cl  0  0  0  0  0  0  0  0  0  0  0  0
    0.7448   64.7575   68.9238 H   0  0  0  0  0  0  0  0  0  0  0  0
    0.2930   63.9629   73.1198 H   0  0  0  0  0  0  0  0  0  0  0  0
    3.5826   60.5417   73.8124 H   0  0  0  0  0  0  0  0  0  0  0  0
    5.4874   59.6783   72.4707 H   0  0  0  0  0  0  0  0  0  0  0  0
    6.0001   60.6540   70.2356 H   0  0  0  0  0  0  0  0  0  0  0  0
    4.5815   62.5012   69.3412 H   0  0  0  0  0  0  0  0  0  0  0  0
    2.3185   61.2838   74.6990 H   0  0  0  0  0  0  0  0  0  0  0  0
    1.5330   62.8853   75.1069 H   0  0  0  0  0  0  0  0  0  0  0  0
   -2.9428   61.9718   75.7736 H   0  0  0  0  0  0  0  0  0  0  0  0
   -0.6757   62.9935   75.6421 H   0  0  0  0  0  0  0  0  0  0  0  0
    0.7212   59.6082   73.3482 H   0  0  0  0  0  0  0  0  0  0  0  0
   -1.5449   58.5933   73.4852 H   0  0  0  0  0  0  0  0  0  0  0  0
   -3.6728   59.2936   76.6826 H   0  0  0  0  0  0  0  0  0  0  0  0
   -4.9288   58.4293   75.7328 H   0  0  0  0  0  0  0  0  0  0  0  0
   -3.2342   57.8334   75.7328 H   0  0  0  0  0  0  0  0  0  0  0  0
   -1.4862   66.0230   68.6007 H   0  0  0  0  0  0  0  0  0  0  0  0
   -0.7508   67.2101   69.7571 H   0  0  0  0  0  0  0  0  0  0  0  0
    0.5303   66.3997   67.1153 H   0  0  0  0  0  0  0  0  0  0  0  0
   -0.5427   67.8373   67.3278 H   0  0  0  0  0  0  0  0  0  0  0  0
    1.2406   68.1459   69.4161 H   0  0  0  0  0  0  0  0  0  0  0  0
    2.2861   67.4285   68.1481 H   0  0  0  0  0  0  0  0  0  0  0  0
    0.6073   69.9459   67.6401 H   0  0  0  0  0  0  0  0  0  0  0  0
    2.6844   70.8327   69.2929 H   0  0  0  0  0  0  0  0  0  0  0  0
    3.6119   69.3066   69.6887 H   0  0  0  0  0  0  0  0  0  0  0  0
    4.6956   72.1175   69.3100 H   0  0  0  0  0  0  0  0  0  0  0  0
    4.7528   71.0709   70.7766 H   0  0  0  0  0  0  0  0  0  0  0  0
    6.9331   71.0716   69.6386 H   0  0  0  0  0  0  0  0  0  0  0  0
    6.1680   69.4460   69.5398 H   0  0  0  0  0  0  0  0  0  0  0  0
    6.3369   71.5906   67.3828 H   0  0  0  0  0  0  0  0  0  0  0  0
    7.0177   69.8956   67.3855 H   0  0  0  0  0  0  0  0  0  0  0  0
    0.7051   68.5125   65.1671 H   0  0  0  0  0  0  0  0  0  0  0  0
    1.1022   67.9772   62.7674 H   0  0  0  0  0  0  0  0  0  0  0  0
    5.2320   69.1190   63.2155 H   0  0  0  0  0  0  0  0  0  0  0  0
  2  1  2  0
  3  1  1  0
  5  4  1  0
  6  1  1  0
  6  5  2  0
  7  6  1  0
  8  7  2  0
  9  7  1  0
 10  9  2  0
 10  4  1  0
 11 10  1  0
 12 11  2  0
 13 12  1  0
 14 13  2  0
 14  9  1  0
 15  4  1  0
 17 16  2  0
 18 17  1  0
 19 18  2  0
 19 15  1  0
 20 19  1  0
 21 20  2  0
 21 16  1  0
 23 22  1  0
 23 16  1  0
 24  3  1  0
 25 24  1  0
 26 25  1  0
 27 26  1  0
 28 27  1  0
 29 28  1  0
 30 29  1  0
 31 30  1  0
 32 31  1  0
 33 32  1  0
 34 33  1  0
 34 29  2  0
 35 34  1  0
 36 35  2  0
 37 36  1  0
 37 28  2  0
 38 37  1  0
 39 38  2  0
 40 39  1  0
 41 36  1  0
 41 40  2  0
 42 40  1  0
  3 43  1  0
  5 44  1  0
 11 45  1  0
 12 46  1  0
 13 47  1  0
 14 48  1  0
 15 49  1  0
 15 50  1  0
 17 51  1  0
 18 52  1  0
 20 53  1  0
 21 54  1  0
 22 55  1  0
 22 56  1  0
 22 57  1  0
 24 58  1  0
 24 59  1  0
 25 60  1  0
 25 61  1  0
 26 62  1  0
 26 63  1  0
 27 64  1  0
 30 65  1  0
 30 66  1  0
 31 67  1  0
 31 68  1  0
 32 69  1  0
 32 70  1  0
 33 71  1  0
 33 72  1  0
 38 73  1  0
 39 74  1  0
 41 75  1  0
M  END
>  <score>  (2) 
-12.736

$$$$
=
     RDKit          3D

 75 80  0  0  0  0  0  0  0  0999 V2000
   -0.5270   67.7770   67.5400 C   0  0  0  0  0  0  0  0  0  0  0  0
   -1.5360   68.3560   67.9350 O   0  0  0  0  0  0  0  0  0  0  0  0
    0.0870   66.7830   68.2600 N   0  0  0  0  0  0  0  0  0  0  0  0
    2.2160   68.2590   65.0020 N   0  0  0  0  0  0  0  0  0  0  0  0
    1.4440   68.0000   66.1290 C   0  0  0  0  0  0  0  0  0  0  0  0
    0.1120   68.1090   66.2350 C   0  0  0  0  0  0  0  0  0  0  0  0
   -0.6190   68.5570   65.0260 C   0  0  0  0  0  0  0  0  0  0  0  0
   -1.8420   68.6920   65.0320 O   0  0  0  0  0  0  0  0  0  0  0  0
    0.1710   68.8470   63.8030 C   0  0  0  0  0  0  0  0  0  0  0  0
    1.5730   68.6920   63.8180 C   0  0  0  0  0  0  0  0  0  0  0  0
    2.2540   68.9830   62.6240 C   0  0  0  0  0  0  0  0  0  0  0  0
    1.5740   69.4080   61.4740 C   0  0  0  0  0  0  0  0  0  0  0  0
    0.1920   69.5550   61.4880 C   0  0  0  0  0  0  0  0  0  0  0  0
   -0.5140   69.2730   62.6530 C   0  0  0  0  0  0  0  0  0  0  0  0
    3.6860   68.1180   65.0410 C   0  0  0  0  0  0  0  0  0  0  0  0
    5.6120   70.8030   67.8570 C   0  0  0  0  0  0  0  0  0  0  0  0
    4.3030   70.3740   68.0650 C   0  0  0  0  0  0  0  0  0  0  0  0
    3.6890   69.5140   67.1450 C   0  0  0  0  0  0  0  0  0  0  0  0
    4.3690   69.0790   65.9970 C   0  0  0  0  0  0  0  0  0  0  0  0
    5.6910   69.5010   65.8080 C   0  0  0  0  0  0  0  0  0  0  0  0
    6.3000   70.3600   66.7270 C   0  0  0  0  0  0  0  0  0  0  0  0
    7.3890   71.0580   69.4160 C   0  0  0  0  0  0  0  0  0  0  0  0
    6.3260   71.6380   68.6720 O   0  0  0  0  0  0  0  0  0  0  0  0
   -0.4320   66.2990   69.5200 C   0  0  0  0  0  0  0  0  0  0  0  0
    0.6780   66.0940   70.5450 C   0  0  0  0  0  0  0  0  0  0  0  0
    0.3660   64.9080   71.4540 C   0  0  0  0  0  0  0  0  0  0  0  0
    0.3530   63.6770   70.6500 N   0  0  0  0  0  0  0  0  0  0  0  0
    0.9980   62.5980   71.3240 C   0  0  0  0  0  0  0  0  0  0  0  0
    2.3850   62.4290   71.1460 C   0  0  0  0  0  0  0  0  0  0  0  0
    3.1690   63.3270   70.2180 C   0  0  0  0  0  0  0  0  0  0  0  0
    4.5510   62.7850   69.8550 C   0  0  0  0  0  0  0  0  0  0  0  0
    5.2690   62.2930   71.1030 C   0  0  0  0  0  0  0  0  0  0  0  0
    4.4900   61.1420   71.7290 C   0  0  0  0  0  0  0  0  0  0  0  0
    3.0170   61.4270   71.8800 C   0  0  0  0  0  0  0  0  0  0  0  0
    2.3570   60.6050   72.7300 N   0  0  0  0  0  0  0  0  0  0  0  0
    1.0390   60.7620   72.8970 C   0  0  0  0  0  0  0  0  0  0  0  0
    0.2910   61.7520   72.2240 C   0  0  0  0  0  0  0  0  0  0  0  0
   -1.0990   61.8400   72.4870 C   0  0  0  0  0  0  0  0  0  0  0  0
   -1.7250   60.9720   73.3810 C   0  0  0  0  0  0  0  0  0  0  0  0
   -0.9680   60.0050   74.0250 C   0  0  0  0  0  0  0  0  0  0  0  0
    0.3990   59.9070   73.7810 C   0  0  0  0  0  0  0  0  0  0  0  0
   -1.7230   58.9250   75.1310 Cl  0  0  0  0  0  0  0  0  0  0  0  0
    0.9519   66.3651   67.8881 H   0  0  0  0  0  0  0  0  0  0  0  0
    1.9835   67.6707   67.0293 H   0  0  0  0  0  0  0  0  0  0  0  0
    3.3481   68.8746   62.5907 H   0  0  0  0  0  0  0  0  0  0  0  0
    2.1377   69.6265   60.5550 H   0  0  0  0  0  0  0  0  0  0  0  0
   -0.3391   69.8915   60.5854 H   0  0  0  0  0  0  0  0  0  0  0  0
   -1.6082   69.3836   62.6737 H   0  0  0  0  0  0  0  0  0  0  0  0
    3.9276   67.0905   65.3507 H   0  0  0  0  0  0  0  0  0  0  0  0
    4.0569   68.3522   64.0323 H   0  0  0  0  0  0  0  0  0  0  0  0
    3.7500   70.7114   68.9540 H   0  0  0  0  0  0  0  0  0  0  0  0
    2.6583   69.1746   67.3252 H   0  0  0  0  0  0  0  0  0  0  0  0
    6.2544   69.1537   64.9294 H   0  0  0  0  0  0  0  0  0  0  0  0
    7.3352   70.6911   66.5572 H   0  0  0  0  0  0  0  0  0  0  0  0
    7.1867   71.1684   70.4916 H   0  0  0  0  0  0  0  0  0  0  0  0
    7.4714   69.9899   69.1661 H   0  0  0  0  0  0  0  0  0  0  0  0
    8.3317   71.5668   69.1661 H   0  0  0  0  0  0  0  0  0  0  0  0
   -1.1509   67.0320   69.9147 H   0  0  0  0  0  0  0  0  0  0  0  0
   -0.9174   65.3282   69.3410 H   0  0  0  0  0  0  0  0  0  0  0  0
    1.6248   65.9048   70.0179 H   0  0  0  0  0  0  0  0  0  0  0  0
    0.7577   67.0001   71.1635 H   0  0  0  0  0  0  0  0  0  0  0  0
    1.1364   64.8298   72.2352 H   0  0  0  0  0  0  0  0  0  0  0  0
   -0.6163   65.0520   71.9277 H   0  0  0  0  0  0  0  0  0  0  0  0
   -0.0704   63.6028   69.7140 H   0  0  0  0  0  0  0  0  0  0  0  0
    2.5922   63.4548   69.2901 H   0  0  0  0  0  0  0  0  0  0  0  0
    3.3275   64.2766   70.7501 H   0  0  0  0  0  0  0  0  0  0  0  0
    4.4392   61.9501   69.1476 H   0  0  0  0  0  0  0  0  0  0  0  0
    5.1424   63.5908   69.3958 H   0  0  0  0  0  0  0  0  0  0  0  0
    6.2769   61.9462   70.8313 H   0  0  0  0  0  0  0  0  0  0  0  0
    5.3425   63.1174   71.8276 H   0  0  0  0  0  0  0  0  0  0  0  0
    4.6095   60.2531   71.0921 H   0  0  0  0  0  0  0  0  0  0  0  0
    4.8958   60.9874   72.7397 H   0  0  0  0  0  0  0  0  0  0  0  0
   -1.6963   62.6090   71.9753 H   0  0  0  0  0  0  0  0  0  0  0  0
   -2.8051   61.0533   73.5728 H   0  0  0  0  0  0  0  0  0  0  0  0
    0.9842   59.1343   74.3010 H   0  0  0  0  0  0  0  0  0  0  0  0
  2  1  2  0
  3  1  1  0
  5  4  1  0
  6  1  1  0
  6  5  2  0
  7  6  1  0
  8  7  2  0
  9  7  1  0
 10  9  2  0
 10  4  1  0
 11 10  1  0
 12 11  2  0
 13 12  1  0
 14 13  2  0
 14  9  1  0
 15  4  1  0
 17 16  2  0
 18 17  1  0
 19 18  2  0
 19 15  1  0
 20 19  1  0
 21 20  2  0
 21 16  1  0
 23 22  1  0
 23 16  1  0
 24  3  1  0
 25 24  1  0
 26 25  1  0
 27 26  1  0
 28 27  1  0
 29 28  1  0
 30 29  1  0
 31 30  1  0
 32 31  1  0
 33 32  1  0
 34 33  1  0
 34 29  2  0
 35 34  1  0
 36 35  2  0
 37 36  1  0
 37 28  2  0
 38 37  1  0
 39 38  2  0
 40 39  1  0
 41 36  1  0
 41 40  2  0
 42 40  1  0
  3 43  1  0
  5 44  1  0
 11 45  1  0
 12 46  1  0
 13 47  1  0
 14 48  1  0
 15 49  1  0
 15 50  1  0
 17 51  1  0
 18 52  1  0
 20 53  1  0
 21 54  1  0
 22 55  1  0
 22 56  1  0
 22 57  1  0
 24 58  1  0
 24 59  1  0
 25 60  1  0
 25 61  1  0
 26 62  1  0
 26 63  1  0
 27 64  1  0
 30 65  1  0
 30 66  1  0
 31 67  1  0
 31 68  1  0
 32 69  1  0
 32 70  1  0
 33 71  1  0
 33 72  1  0
 38 73  1  0
 39 74  1  0
 41 75  1  0
M  END
>  <score>  (3) 
-12.678

$$$$
=
     RDKit          3D

 75 80  0  0  0  0  0  0  0  0999 V2000
    0.9920   65.5380   70.1250 C   0  0  0  0  0  0  0  0  0  0  0  0
    1.7230   66.4710   70.4480 O   0  0  0  0  0  0  0  0  0  0  0  0
   -0.0520   65.6840   69.2480 N   0  0  0  0  0  0  0  0  0  0  0  0
    0.4640   62.5290   72.3310 N   0  0  0  0  0  0  0  0  0  0  0  0
    0.4320   63.7670   71.6980 C   0  0  0  0  0  0  0  0  0  0  0  0
    1.1870   64.1620   70.6640 C   0  0  0  0  0  0  0  0  0  0  0  0
    2.1660   63.1810   70.1390 C   0  0  0  0  0  0  0  0  0  0  0  0
    2.9070   63.4570   69.1970 O   0  0  0  0  0  0  0  0  0  0  0  0
    2.2340   61.8490   70.7920 C   0  0  0  0  0  0  0  0  0  0  0  0
    1.3790   61.5520   71.8750 C   0  0  0  0  0  0  0  0  0  0  0  0
    1.4980   60.2720   72.4420 C   0  0  0  0  0  0  0  0  0  0  0  0
    2.4210   59.3340   71.9550 C   0  0  0  0  0  0  0  0  0  0  0  0
    3.2520   59.6540   70.8880 C   0  0  0  0  0  0  0  0  0  0  0  0
    3.1600   60.9120   70.3020 C   0  0  0  0  0  0  0  0  0  0  0  0
   -0.4180   62.2430   73.4810 C   0  0  0  0  0  0  0  0  0  0  0  0
    1.1380   63.6300   77.2900 C   0  0  0  0  0  0  0  0  0  0  0  0
    1.1290   64.4690   76.1770 C   0  0  0  0  0  0  0  0  0  0  0  0
    0.6320   64.0070   74.9520 C   0  0  0  0  0  0  0  0  0  0  0  0
    0.1470   62.6970   74.8150 C   0  0  0  0  0  0  0  0  0  0  0  0
    0.1430   61.8700   75.9450 C   0  0  0  0  0  0  0  0  0  0  0  0
    0.6410   62.3330   77.1660 C   0  0  0  0  0  0  0  0  0  0  0  0
    1.1660   63.1250   79.6140 C   0  0  0  0  0  0  0  0  0  0  0  0
    1.5920   63.9530   78.5390 O   0  0  0  0  0  0  0  0  0  0  0  0
   -0.3480   66.9380   68.5900 C   0  0  0  0  0  0  0  0  0  0  0  0
    0.7160   67.2990   67.5600 C   0  0  0  0  0  0  0  0  0  0  0  0
    1.5080   68.5260   68.0040 C   0  0  0  0  0  0  0  0  0  0  0  0
    1.6560   69.4410   66.8640 N   0  0  0  0  0  0  0  0  0  0  0  0
    2.9890   69.4450   66.3580 C   0  0  0  0  0  0  0  0  0  0  0  0
    3.1980   69.0820   65.0130 C   0  0  0  0  0  0  0  0  0  0  0  0
    2.0500   68.6390   64.1360 C   0  0  0  0  0  0  0  0  0  0  0  0
    2.4890   67.9350   62.8530 C   0  0  0  0  0  0  0  0  0  0  0  0
    3.6070   68.7160   62.1780 C   0  0  0  0  0  0  0  0  0  0  0  0
    4.8250   68.7730   63.0930 C   0  0  0  0  0  0  0  0  0  0  0  0
    4.4940   69.1770   64.5070 C   0  0  0  0  0  0  0  0  0  0  0  0
    5.5500   69.5790   65.2530 N   0  0  0  0  0  0  0  0  0  0  0  0
    5.3540   69.9200   66.5320 C   0  0  0  0  0  0  0  0  0  0  0  0
    4.0870   69.8820   67.1520 C   0  0  0  0  0  0  0  0  0  0  0  0
    3.9900   70.2800   68.5090 C   0  0  0  0  0  0  0  0  0  0  0  0
    5.1120   70.6940   69.2260 C   0  0  0  0  0  0  0  0  0  0  0  0
    6.3460   70.7160   68.5940 C   0  0  0  0  0  0  0  0  0  0  0  0
    6.4590   70.3330   67.2610 C   0  0  0  0  0  0  0  0  0  0  0  0
    7.7420   71.2240   69.4620 Cl  0  0  0  0  0  0  0  0  0  0  0  0
   -0.6492   64.8685   69.0498 H   0  0  0  0  0  0  0  0  0  0  0  0
   -0.2899   64.4998   72.0877 H   0  0  0  0  0  0  0  0  0  0  0  0
    0.8515   59.9984   73.2888 H   0  0  0  0  0  0  0  0  0  0  0  0
    2.4872   58.3396   72.4205 H   0  0  0  0  0  0  0  0  0  0  0  0
    3.9769   58.9181   70.5099 H   0  0  0  0  0  0  0  0  0  0  0  0
    3.8117   61.1735   69.4553 H   0  0  0  0  0  0  0  0  0  0  0  0
   -1.3773   62.7560   73.3182 H   0  0  0  0  0  0  0  0  0  0  0  0
   -0.5287   61.1499   73.5355 H   0  0  0  0  0  0  0  0  0  0  0  0
    1.5131   65.4963   76.2611 H   0  0  0  0  0  0  0  0  0  0  0  0
    0.6215   64.6816   74.0832 H   0  0  0  0  0  0  0  0  0  0  0  0
   -0.2554   60.8474   75.8710 H   0  0  0  0  0  0  0  0  0  0  0  0
    0.6409   61.6657   78.0405 H   0  0  0  0  0  0  0  0  0  0  0  0
    1.4148   63.6086   80.5702 H   0  0  0  0  0  0  0  0  0  0  0  0
    0.0782   62.9739   79.5516 H   0  0  0  0  0  0  0  0  0  0  0  0
    1.6755   62.1521   79.5516 H   0  0  0  0  0  0  0  0  0  0  0  0
   -1.3207   66.8538   68.0833 H   0  0  0  0  0  0  0  0  0  0  0  0
   -0.3686   67.7295   69.3536 H   0  0  0  0  0  0  0  0  0  0  0  0
    1.4046   66.4496   67.4403 H   0  0  0  0  0  0  0  0  0  0  0  0
    0.2189   67.5273   66.6056 H   0  0  0  0  0  0  0  0  0  0  0  0
    0.9719   69.0356   68.8182 H   0  0  0  0  0  0  0  0  0  0  0  0
    2.5009   68.2165   68.3622 H   0  0  0  0  0  0  0  0  0  0  0  0
    0.8898   70.0104   66.4773 H   0  0  0  0  0  0  0  0  0  0  0  0
    1.4200   67.9463   64.7133 H   0  0  0  0  0  0  0  0  0  0  0  0
    1.5093   69.5479   63.8333 H   0  0  0  0  0  0  0  0  0  0  0  0
    2.8488   66.9249   63.0983 H   0  0  0  0  0  0  0  0  0  0  0  0
    1.6311   67.8733   62.1673 H   0  0  0  0  0  0  0  0  0  0  0  0
    3.8815   68.2194   61.2356 H   0  0  0  0  0  0  0  0  0  0  0  0
    3.2606   69.7394   61.9715 H   0  0  0  0  0  0  0  0  0  0  0  0
    5.2912   67.7769   63.1152 H   0  0  0  0  0  0  0  0  0  0  0  0
    5.5007   69.5398   62.6863 H   0  0  0  0  0  0  0  0  0  0  0  0
    3.0092   70.2619   69.0068 H   0  0  0  0  0  0  0  0  0  0  0  0
    5.0194   70.9990   70.2788 H   0  0  0  0  0  0  0  0  0  0  0  0
    7.4456   70.3584   66.7753 H   0  0  0  0  0  0  0  0  0  0  0  0
  2  1  2  0
  3  1  1  0
  5  4  1  0
  6  1  1  0
  6  5  2  0
  7  6  1  0
  8  7  2  0
  9  7  1  0
 10  9  2  0
 10  4  1  0
 11 10  1  0
 12 11  2  0
 13 12  1  0
 14 13  2  0
 14  9  1  0
 15  4  1  0
 17 16  2  0
 18 17  1  0
 19 18  2  0
 19 15  1  0
 20 19  1  0
 21 20  2  0
 21 16  1  0
 23 22  1  0
 23 16  1  0
 24  3  1  0
 25 24  1  0
 26 25  1  0
 27 26  1  0
 28 27  1  0
 29 28  1  0
 30 29  1  0
 31 30  1  0
 32 31  1  0
 33 32  1  0
 34 33  1  0
 34 29  2  0
 35 34  1  0
 36 35  2  0
 37 36  1  0
 37 28  2  0
 38 37  1  0
 39 38  2  0
 40 39  1  0
 41 36  1  0
 41 40  2  0
 42 40  1  0
  3 43  1  0
  5 44  1  0
 11 45  1  0
 12 46  1  0
 13 47  1  0
 14 48  1  0
 15 49  1  0
 15 50  1  0
 17 51  1  0
 18 52  1  0
 20 53  1  0
 21 54  1  0
 22 55  1  0
 22 56  1  0
 22 57  1  0
 24 58  1  0
 24 59  1  0
 25 60  1  0
 25 61  1  0
 26 62  1  0
 26 63  1  0
 27 64  1  0
 30 65  1  0
 30 66  1  0
 31 67  1  0
 31 68  1  0
 32 69  1  0
 32 70  1  0
 33 71  1  0
 33 72  1  0
 38 73  1  0
 39 74  1  0
 41 75  1  0
M  END
>  <score>  (4) 
-12.252

$$$$
=
     RDKit          3D

 75 80  0  0  0  0  0  0  0  0999 V2000
    0.4040   64.6710   70.6030 C   0  0  0  0  0  0  0  0  0  0  0  0
    0.1000   63.9760   69.6360 O   0  0  0  0  0  0  0  0  0  0  0  0
    0.5260   66.0350   70.5260 N   0  0  0  0  0  0  0  0  0  0  0  0
    1.7700   62.2880   73.1820 N   0  0  0  0  0  0  0  0  0  0  0  0
    1.4180   62.9770   72.0270 C   0  0  0  0  0  0  0  0  0  0  0  0
    0.6610   64.0810   71.9470 C   0  0  0  0  0  0  0  0  0  0  0  0
    0.1370   64.6240   73.2230 C   0  0  0  0  0  0  0  0  0  0  0  0
   -0.5720   65.6290   73.2470 O   0  0  0  0  0  0  0  0  0  0  0  0
    0.4880   63.9130   74.4780 C   0  0  0  0  0  0  0  0  0  0  0  0
    1.2990   62.7580   74.4300 C   0  0  0  0  0  0  0  0  0  0  0  0
    1.5910   62.1390   75.6570 C   0  0  0  0  0  0  0  0  0  0  0  0
    1.1010   62.6430   76.8700 C   0  0  0  0  0  0  0  0  0  0  0  0
    0.3030   63.7810   76.8880 C   0  0  0  0  0  0  0  0  0  0  0  0
   -0.0050   64.4200   75.6920 C   0  0  0  0  0  0  0  0  0  0  0  0
    2.5970   61.0650   73.1130 C   0  0  0  0  0  0  0  0  0  0  0  0
    0.3750   57.3370   73.2470 C   0  0  0  0  0  0  0  0  0  0  0  0
    1.6970   57.3630   72.8060 C   0  0  0  0  0  0  0  0  0  0  0  0
    2.4010   58.5730   72.7590 C   0  0  0  0  0  0  0  0  0  0  0  0
    1.7920   59.7790   73.1410 C   0  0  0  0  0  0  0  0  0  0  0  0
    0.4700   59.7390   73.6010 C   0  0  0  0  0  0  0  0  0  0  0  0
   -0.2310   58.5300   73.6450 C   0  0  0  0  0  0  0  0  0  0  0  0
   -0.1400   55.3200   74.3960 C   0  0  0  0  0  0  0  0  0  0  0  0
   -0.4230   56.2300   73.3410 O   0  0  0  0  0  0  0  0  0  0  0  0
    0.2580   66.7750   69.3120 C   0  0  0  0  0  0  0  0  0  0  0  0
    1.4640   67.6000   68.8770 C   0  0  0  0  0  0  0  0  0  0  0  0
    1.4910   67.7650   67.3610 C   0  0  0  0  0  0  0  0  0  0  0  0
    1.7790   69.1700   67.0360 N   0  0  0  0  0  0  0  0  0  0  0  0
    3.0760   69.3250   66.4640 C   0  0  0  0  0  0  0  0  0  0  0  0
    3.2420   69.0510   65.0920 C   0  0  0  0  0  0  0  0  0  0  0  0
    2.0930   68.5440   64.2520 C   0  0  0  0  0  0  0  0  0  0  0  0
    2.5230   67.9490   62.9120 C   0  0  0  0  0  0  0  0  0  0  0  0
    3.5240   68.8650   62.2240 C   0  0  0  0  0  0  0  0  0  0  0  0
    4.7810   68.9930   63.0780 C   0  0  0  0  0  0  0  0  0  0  0  0
    4.4940   69.2930   64.5270 C   0  0  0  0  0  0  0  0  0  0  0  0
    5.5490   69.7560   65.2390 N   0  0  0  0  0  0  0  0  0  0  0  0
    5.3930   70.0130   66.5420 C   0  0  0  0  0  0  0  0  0  0  0  0
    4.1720   69.8250   67.2230 C   0  0  0  0  0  0  0  0  0  0  0  0
    4.1140   70.1450   68.6040 C   0  0  0  0  0  0  0  0  0  0  0  0
    5.2320   70.6270   69.2830 C   0  0  0  0  0  0  0  0  0  0  0  0
    6.4210   70.7980   68.5920 C   0  0  0  0  0  0  0  0  0  0  0  0
    6.4940   70.4930   67.2360 C   0  0  0  0  0  0  0  0  0  0  0  0
    7.8100   71.3920   69.4140 Cl  0  0  0  0  0  0  0  0  0  0  0  0
    0.8202   66.5532   71.3661 H   0  0  0  0  0  0  0  0  0  0  0  0
    1.8011   62.5738   71.0780 H   0  0  0  0  0  0  0  0  0  0  0  0
    2.2197   61.2364   75.6661 H   0  0  0  0  0  0  0  0  0  0  0  0
    1.3496   62.1347   77.8133 H   0  0  0  0  0  0  0  0  0  0  0  0
   -0.0819   64.1730   77.8410 H   0  0  0  0  0  0  0  0  0  0  0  0
   -0.6344   65.3221   75.6964 H   0  0  0  0  0  0  0  0  0  0  0  0
    3.1770   61.0908   72.1787 H   0  0  0  0  0  0  0  0  0  0  0  0
    3.2383   61.0611   74.0067 H   0  0  0  0  0  0  0  0  0  0  0  0
    2.1891   56.4301   72.4938 H   0  0  0  0  0  0  0  0  0  0  0  0
    3.4467   58.5785   72.4177 H   0  0  0  0  0  0  0  0  0  0  0  0
   -0.0211   60.6665   73.9305 H   0  0  0  0  0  0  0  0  0  0  0  0
   -1.2729   58.5187   73.9976 H   0  0  0  0  0  0  0  0  0  0  0  0
   -0.2956   55.8202   75.3633 H   0  0  0  0  0  0  0  0  0  0  0  0
   -0.8104   54.4511   74.3205 H   0  0  0  0  0  0  0  0  0  0  0  0
    0.9049   54.9846   74.3205 H   0  0  0  0  0  0  0  0  0  0  0  0
    0.0036   66.0655   68.5108 H   0  0  0  0  0  0  0  0  0  0  0  0
   -0.5766   67.4643   69.5076 H   0  0  0  0  0  0  0  0  0  0  0  0
    1.4095   68.5932   69.3467 H   0  0  0  0  0  0  0  0  0  0  0  0
    2.3796   67.0771   69.1904 H   0  0  0  0  0  0  0  0  0  0  0  0
    2.2732   67.1201   66.9340 H   0  0  0  0  0  0  0  0  0  0  0  0
    0.5162   67.4789   66.9392 H   0  0  0  0  0  0  0  0  0  0  0  0
    1.1238   69.9473   67.2014 H   0  0  0  0  0  0  0  0  0  0  0  0
    1.5632   67.7668   64.8223 H   0  0  0  0  0  0  0  0  0  0  0  0
    1.4543   69.4109   64.0269 H   0  0  0  0  0  0  0  0  0  0  0  0
    2.9881   66.9671   63.0836 H   0  0  0  0  0  0  0  0  0  0  0  0
    1.6375   67.8395   62.2687 H   0  0  0  0  0  0  0  0  0  0  0  0
    3.7903   68.4436   61.2435 H   0  0  0  0  0  0  0  0  0  0  0  0
    3.0734   69.8596   62.0907 H   0  0  0  0  0  0  0  0  0  0  0  0
    5.3382   68.0462   63.0220 H   0  0  0  0  0  0  0  0  0  0  0  0
    5.3584   69.8403   62.6798 H   0  0  0  0  0  0  0  0  0  0  0  0
    3.1684   70.0101   69.1496 H   0  0  0  0  0  0  0  0  0  0  0  0
    5.1711   70.8687   70.3544 H   0  0  0  0  0  0  0  0  0  0  0  0
    7.4456   70.6357   66.7030 H   0  0  0  0  0  0  0  0  0  0  0  0
  2  1  2  0
  3  1  1  0
  5  4  1  0
  6  1  1  0
  6  5  2  0
  7  6  1  0
  8  7  2  0
  9  7  1  0
 10  9  2  0
 10  4  1  0
 11 10  1  0
 12 11  2  0
 13 12  1  0
 14 13  2  0
 14  9  1  0
 15  4  1  0
 17 16  2  0
 18 17  1  0
 19 18  2  0
 19 15  1  0
 20 19  1  0
 21 20  2  0
 21 16  1  0
 23 22  1  0
 23 16  1  0
 24  3  1  0
 25 24  1  0
 26 25  1  0
 27 26  1  0
 28 27  1  0
 29 28  1  0
 30 29  1  0
 31 30  1  0
 32 31  1  0
 33 32  1  0
 34 33  1  0
 34 29  2  0
 35 34  1  0
 36 35  2  0
 37 36  1  0
 37 28  2  0
 38 37  1  0
 39 38  2  0
 40 39  1  0
 41 36  1  0
 41 40  2  0
 42 40  1  0
  3 43  1  0
  5 44  1  0
 11 45  1  0
 12 46  1  0
 13 47  1  0
 14 48  1  0
 15 49  1  0
 15 50  1  0
 17 51  1  0
 18 52  1  0
 20 53  1  0
 21 54  1  0
 22 55  1  0
 22 56  1  0
 22 57  1  0
 24 58  1  0
 24 59  1  0
 25 60  1  0
 25 61  1  0
 26 62  1  0
 26 63  1  0
 27 64  1  0
 30 65  1  0
 30 66  1  0
 31 67  1  0
 31 68  1  0
 32 69  1  0
 32 70  1  0
 33 71  1  0
 33 72  1  0
 38 73  1  0
 39 74  1  0
 41 75  1  0
M  END
>  <score>  (5) 
-12.098

$$$$
=
     RDKit          3D

 75 80  0  0  0  0  0  0  0  0999 V2000
    0.2410   65.1770   71.3720 C   0  0  0  0  0  0  0  0  0  0  0  0
   -0.4330   65.9470   72.0530 O   0  0  0  0  0  0  0  0  0  0  0  0
    0.5740   65.4380   70.0680 N   0  0  0  0  0  0  0  0  0  0  0  0
    0.9750   62.4900   73.9090 N   0  0  0  0  0  0  0  0  0  0  0  0
    0.5720   63.6280   73.2210 C   0  0  0  0  0  0  0  0  0  0  0  0
    0.7580   63.8910   71.9190 C   0  0  0  0  0  0  0  0  0  0  0  0
    1.4730   62.8620   71.1270 C   0  0  0  0  0  0  0  0  0  0  0  0
    1.6960   63.0190   69.9280 O   0  0  0  0  0  0  0  0  0  0  0  0
    1.9230   61.6330   71.8280 C   0  0  0  0  0  0  0  0  0  0  0  0
    1.6640   61.4740   73.2060 C   0  0  0  0  0  0  0  0  0  0  0  0
    2.1180   60.2850   73.8010 C   0  0  0  0  0  0  0  0  0  0  0  0
    2.7950   59.3040   73.0630 C   0  0  0  0  0  0  0  0  0  0  0  0
    3.0390   59.4880   71.7070 C   0  0  0  0  0  0  0  0  0  0  0  0
    2.6030   60.6530   71.0850 C   0  0  0  0  0  0  0  0  0  0  0  0
    0.7200   62.3490   75.3580 C   0  0  0  0  0  0  0  0  0  0  0  0
   -3.3960   63.1940   76.4510 C   0  0  0  0  0  0  0  0  0  0  0  0
   -2.3780   64.0930   76.7620 C   0  0  0  0  0  0  0  0  0  0  0  0
   -1.0530   63.8070   76.4110 C   0  0  0  0  0  0  0  0  0  0  0  0
   -0.7210   62.6100   75.7550 C   0  0  0  0  0  0  0  0  0  0  0  0
   -1.7550   61.7230   75.4310 C   0  0  0  0  0  0  0  0  0  0  0  0
   -3.0760   62.0120   75.7830 C   0  0  0  0  0  0  0  0  0  0  0  0
   -5.3550   64.5260   76.2430 C   0  0  0  0  0  0  0  0  0  0  0  0
   -4.7250   63.3510   76.7350 O   0  0  0  0  0  0  0  0  0  0  0  0
    0.2010   66.6650   69.3990 C   0  0  0  0  0  0  0  0  0  0  0  0
    1.2510   67.0920   68.3790 C   0  0  0  0  0  0  0  0  0  0  0  0
    1.7140   68.5220   68.6420 C   0  0  0  0  0  0  0  0  0  0  0  0
    1.6480   69.2870   67.3880 N   0  0  0  0  0  0  0  0  0  0  0  0
    2.9190   69.3590   66.7450 C   0  0  0  0  0  0  0  0  0  0  0  0
    3.0050   69.0000   65.3850 C   0  0  0  0  0  0  0  0  0  0  0  0
    1.7970   68.4900   64.6350 C   0  0  0  0  0  0  0  0  0  0  0  0
    2.1360   67.8030   63.3130 C   0  0  0  0  0  0  0  0  0  0  0  0
    3.1320   68.6390   62.5230 C   0  0  0  0  0  0  0  0  0  0  0  0
    4.4350   68.7670   63.3050 C   0  0  0  0  0  0  0  0  0  0  0  0
    4.2330   69.1610   64.7460 C   0  0  0  0  0  0  0  0  0  0  0  0
    5.3390   69.6230   65.3760 N   0  0  0  0  0  0  0  0  0  0  0  0
    5.2600   69.9610   66.6680 C   0  0  0  0  0  0  0  0  0  0  0  0
    4.0690   69.8600   67.4180 C   0  0  0  0  0  0  0  0  0  0  0  0
    4.0940   70.2600   68.7780 C   0  0  0  0  0  0  0  0  0  0  0  0
    5.2610   70.7380   69.3720 C   0  0  0  0  0  0  0  0  0  0  0  0
    6.4190   70.8220   68.6140 C   0  0  0  0  0  0  0  0  0  0  0  0
    6.4110   70.4370   67.2770 C   0  0  0  0  0  0  0  0  0  0  0  0
    7.8680   71.4090   69.3310 Cl  0  0  0  0  0  0  0  0  0  0  0  0
    1.1111   64.7324   69.5439 H   0  0  0  0  0  0  0  0  0  0  0  0
    0.0441   64.3950   73.8067 H   0  0  0  0  0  0  0  0  0  0  0  0
    1.9376   60.1196   74.8734 H   0  0  0  0  0  0  0  0  0  0  0  0
    3.1351   58.3834   73.5598 H   0  0  0  0  0  0  0  0  0  0  0  0
    3.5728   58.7182   71.1304 H   0  0  0  0  0  0  0  0  0  0  0  0
    2.7903   60.8072   70.0121 H   0  0  0  0  0  0  0  0  0  0  0  0
    0.9820   61.3236   75.6580 H   0  0  0  0  0  0  0  0  0  0  0  0
    1.3344   63.1067   75.8664 H   0  0  0  0  0  0  0  0  0  0  0  0
   -2.6161   65.0309   77.2852 H   0  0  0  0  0  0  0  0  0  0  0  0
   -0.2603   64.5304   76.6525 H   0  0  0  0  0  0  0  0  0  0  0  0
   -1.5253   60.7905   74.8947 H   0  0  0  0  0  0  0  0  0  0  0  0
   -3.8738   61.2982   75.5301 H   0  0  0  0  0  0  0  0  0  0  0  0
   -5.6872   65.1456   77.0890 H   0  0  0  0  0  0  0  0  0  0  0  0
   -4.6412   65.0954   75.6296 H   0  0  0  0  0  0  0  0  0  0  0  0
   -6.2243   64.2465   75.6296 H   0  0  0  0  0  0  0  0  0  0  0  0
   -0.7574   66.5118   68.8814 H   0  0  0  0  0  0  0  0  0  0  0  0
    0.1168   67.4575   70.1572 H   0  0  0  0  0  0  0  0  0  0  0  0
    2.1154   66.4151   68.4468 H   0  0  0  0  0  0  0  0  0  0  0  0
    0.8052   67.0455   67.3745 H   0  0  0  0  0  0  0  0  0  0  0  0
    1.0599   68.9888   69.3932 H   0  0  0  0  0  0  0  0  0  0  0  0
    2.7480   68.5138   69.0173 H   0  0  0  0  0  0  0  0  0  0  0  0
    0.7886   69.7183   67.0189 H   0  0  0  0  0  0  0  0  0  0  0  0
    1.2704   67.7677   65.2760 H   0  0  0  0  0  0  0  0  0  0  0  0
    1.1783   69.3661   64.3910 H   0  0  0  0  0  0  0  0  0  0  0  0
    2.5744   66.8155   63.5193 H   0  0  0  0  0  0  0  0  0  0  0  0
    1.2151   67.6908   62.7219 H   0  0  0  0  0  0  0  0  0  0  0  0
    3.3322   68.1521   61.5571 H   0  0  0  0  0  0  0  0  0  0  0  0
    2.7108   69.6409   62.3532 H   0  0  0  0  0  0  0  0  0  0  0  0
    4.9542   67.7976   63.2782 H   0  0  0  0  0  0  0  0  0  0  0  0
    5.0217   69.5666   62.8292 H   0  0  0  0  0  0  0  0  0  0  0  0
    3.1737   70.1917   69.3767 H   0  0  0  0  0  0  0  0  0  0  0  0
    5.2632   71.0446   70.4284 H   0  0  0  0  0  0  0  0  0  0  0  0
    7.3384   70.5119   66.6902 H   0  0  0  0  0  0  0  0  0  0  0  0
  2  1  2  0
  3  1  1  0
  5  4  1  0
  6  1  1  0
  6  5  2  0
  7  6  1  0
  8  7  2  0
  9  7  1  0
 10  9  2  0
 10  4  1  0
 11 10  1  0
 12 11  2  0
 13 12  1  0
 14 13  2  0
 14  9  1  0
 15  4  1  0
 17 16  2  0
 18 17  1  0
 19 18  2  0
 19 15  1  0
 20 19  1  0
 21 20  2  0
 21 16  1  0
 23 22  1  0
 23 16  1  0
 24  3  1  0
 25 24  1  0
 26 25  1  0
 27 26  1  0
 28 27  1  0
 29 28  1  0
 30 29  1  0
 31 30  1  0
 32 31  1  0
 33 32  1  0
 34 33  1  0
 34 29  2  0
 35 34  1  0
 36 35  2  0
 37 36  1  0
 37 28  2  0
 38 37  1  0
 39 38  2  0
 40 39  1  0
 41 36  1  0
 41 40  2  0
 42 40  1  0
  3 43  1  0
  5 44  1  0
 11 45  1  0
 12 46  1  0
 13 47  1  0
 14 48  1  0
 15 49  1  0
 15 50  1  0
 17 51  1  0
 18 52  1  0
 20 53  1  0
 21 54  1  0
 22 55  1  0
 22 56  1  0
 22 57  1  0
 24 58  1  0
 24 59  1  0
 25 60  1  0
 25 61  1  0
 26 62  1  0
 26 63  1  0
 27 64  1  0
 30 65  1  0
 30 66  1  0
 31 67  1  0
 31 68  1  0
 32 69  1  0
 32 70  1  0
 33 71  1  0
 33 72  1  0
 38 73  1  0
 39 74  1  0
 41 75  1  0
M  END
>  <score>  (6) 
-11.623

$$$$
=
     RDKit          3D

 75 80  0  0  0  0  0  0  0  0999 V2000
    3.1400   63.8380   70.5740 C   0  0  0  0  0  0  0  0  0  0  0  0
    4.3040   64.2110   70.4450 O   0  0  0  0  0  0  0  0  0  0  0  0
    2.0730   64.5620   70.1060 N   0  0  0  0  0  0  0  0  0  0  0  0
    1.7800   61.5260   73.2200 N   0  0  0  0  0  0  0  0  0  0  0  0
    2.1820   62.6050   72.4420 C   0  0  0  0  0  0  0  0  0  0  0  0
    2.7950   62.5550   71.2500 C   0  0  0  0  0  0  0  0  0  0  0  0
    3.0790   61.2080   70.7020 C   0  0  0  0  0  0  0  0  0  0  0  0
    3.6440   61.0640   69.6190 O   0  0  0  0  0  0  0  0  0  0  0  0
    2.6680   60.0290   71.5060 C   0  0  0  0  0  0  0  0  0  0  0  0
    2.0260   60.2140   72.7500 C   0  0  0  0  0  0  0  0  0  0  0  0
    1.6650   59.0530   73.4540 C   0  0  0  0  0  0  0  0  0  0  0  0
    1.9290   57.7730   72.9470 C   0  0  0  0  0  0  0  0  0  0  0  0
    2.5640   57.6200   71.7200 C   0  0  0  0  0  0  0  0  0  0  0  0
    2.9340   58.7480   70.9960 C   0  0  0  0  0  0  0  0  0  0  0  0
    1.1340   61.7350   74.5320 C   0  0  0  0  0  0  0  0  0  0  0  0
   -2.9760   60.3630   74.8130 C   0  0  0  0  0  0  0  0  0  0  0  0
   -2.0780   60.1410   75.8550 C   0  0  0  0  0  0  0  0  0  0  0  0
   -0.7530   60.5810   75.7500 C   0  0  0  0  0  0  0  0  0  0  0  0
   -0.2990   61.2390   74.5960 C   0  0  0  0  0  0  0  0  0  0  0  0
   -1.2140   61.4730   73.5630 C   0  0  0  0  0  0  0  0  0  0  0  0
   -2.5360   61.0320   73.6700 C   0  0  0  0  0  0  0  0  0  0  0  0
   -5.2580   61.0280   74.7690 C   0  0  0  0  0  0  0  0  0  0  0  0
   -4.2910   59.9860   74.7860 O   0  0  0  0  0  0  0  0  0  0  0  0
    2.2320   65.8020   69.3780 C   0  0  0  0  0  0  0  0  0  0  0  0
    1.0900   66.7710   69.6600 C   0  0  0  0  0  0  0  0  0  0  0  0
    0.6410   67.4690   68.3790 C   0  0  0  0  0  0  0  0  0  0  0  0
    1.1110   68.8620   68.4010 N   0  0  0  0  0  0  0  0  0  0  0  0
    2.2040   69.0660   67.5100 C   0  0  0  0  0  0  0  0  0  0  0  0
    2.0210   68.7740   66.1430 C   0  0  0  0  0  0  0  0  0  0  0  0
    0.7190   68.1990   65.6360 C   0  0  0  0  0  0  0  0  0  0  0  0
    0.8130   67.6000   64.2340 C   0  0  0  0  0  0  0  0  0  0  0  0
    1.5550   68.5480   63.3030 C   0  0  0  0  0  0  0  0  0  0  0  0
    2.9820   68.7480   63.7980 C   0  0  0  0  0  0  0  0  0  0  0  0
    3.0680   69.0620   65.2700 C   0  0  0  0  0  0  0  0  0  0  0  0
    4.2480   69.5850   65.6790 N   0  0  0  0  0  0  0  0  0  0  0  0
    4.4260   69.8600   66.9760 C   0  0  0  0  0  0  0  0  0  0  0  0
    3.4340   69.6290   67.9540 C   0  0  0  0  0  0  0  0  0  0  0  0
    3.7230   69.9710   69.2990 C   0  0  0  0  0  0  0  0  0  0  0  0
    4.9540   70.5170   69.6600 C   0  0  0  0  0  0  0  0  0  0  0  0
    5.9120   70.7280   68.6810 C   0  0  0  0  0  0  0  0  0  0  0  0
    5.6450   70.4020   67.3550 C   0  0  0  0  0  0  0  0  0  0  0  0
    7.4370   71.4000   69.1090 Cl  0  0  0  0  0  0  0  0  0  0  0  0
    1.1212   64.2089   70.2798 H   0  0  0  0  0  0  0  0  0  0  0  0
    1.9755   63.6067   72.8468 H   0  0  0  0  0  0  0  0  0  0  0  0
    1.1625   59.1509   74.4276 H   0  0  0  0  0  0  0  0  0  0  0  0
    1.6319   56.8845   73.5235 H   0  0  0  0  0  0  0  0  0  0  0  0
    2.7721   56.6147   71.3250 H   0  0  0  0  0  0  0  0  0  0  0  0
    3.4353   58.6368   70.0232 H   0  0  0  0  0  0  0  0  0  0  0  0
    1.7197   61.2022   75.2956 H   0  0  0  0  0  0  0  0  0  0  0  0
    1.1048   62.8209   74.7050 H   0  0  0  0  0  0  0  0  0  0  0  0
   -2.4113   59.6181   76.7635 H   0  0  0  0  0  0  0  0  0  0  0  0
   -0.0572   60.4085   76.5843 H   0  0  0  0  0  0  0  0  0  0  0  0
   -0.8897   62.0088   72.6587 H   0  0  0  0  0  0  0  0  0  0  0  0
   -3.2382   61.2145   72.8432 H   0  0  0  0  0  0  0  0  0  0  0  0
   -5.5158   61.3058   75.8016 H   0  0  0  0  0  0  0  0  0  0  0  0
   -4.8449   61.9032   74.2461 H   0  0  0  0  0  0  0  0  0  0  0  0
   -6.1615   60.6813   74.2461 H   0  0  0  0  0  0  0  0  0  0  0  0
    3.1805   66.2720   69.6771 H   0  0  0  0  0  0  0  0  0  0  0  0
    2.2286   65.5713   68.3025 H   0  0  0  0  0  0  0  0  0  0  0  0
    0.2412   66.2142   70.0836 H   0  0  0  0  0  0  0  0  0  0  0  0
    1.4421   67.5328   70.3712 H   0  0  0  0  0  0  0  0  0  0  0  0
    1.0672   66.9500   67.5078 H   0  0  0  0  0  0  0  0  0  0  0  0
   -0.4567   67.4489   68.3108 H   0  0  0  0  0  0  0  0  0  0  0  0
    0.6999   69.6008   68.9892 H   0  0  0  0  0  0  0  0  0  0  0  0
    0.3956   67.4088   66.3296 H   0  0  0  0  0  0  0  0  0  0  0  0
    0.0016   69.0311   65.5810 H   0  0  0  0  0  0  0  0  0  0  0  0
    1.3535   66.6433   64.2837 H   0  0  0  0  0  0  0  0  0  0  0  0
   -0.2032   67.4390   63.8449 H   0  0  0  0  0  0  0  0  0  0  0  0
    1.5768   68.1213   62.2894 H   0  0  0  0  0  0  0  0  0  0  0  0
    1.0376   69.5186   63.2863 H   0  0  0  0  0  0  0  0  0  0  0  0
    3.5503   67.8263   63.6046 H   0  0  0  0  0  0  0  0  0  0  0  0
    3.3944   69.6127   63.2575 H   0  0  0  0  0  0  0  0  0  0  0  0
    2.9605   69.8022   70.0736 H   0  0  0  0  0  0  0  0  0  0  0  0
    5.1622   70.7770   70.7084 H   0  0  0  0  0  0  0  0  0  0  0  0
    6.4169   70.5778   66.5913 H   0  0  0  0  0  0  0  0  0  0  0  0
  2  1  2  0
  3  1  1  0
  5  4  1  0
  6  1  1  0
  6  5  2  0
  7  6  1  0
  8  7  2  0
  9  7  1  0
 10  9  2  0
 10  4  1  0
 11 10  1  0
 12 11  2  0
 13 12  1  0
 14 13  2  0
 14  9  1  0
 15  4  1  0
 17 16  2  0
 18 17  1  0
 19 18  2  0
 19 15  1  0
 20 19  1  0
 21 20  2  0
 21 16  1  0
 23 22  1  0
 23 16  1  0
 24  3  1  0
 25 24  1  0
 26 25  1  0
 27 26  1  0
 28 27  1  0
 29 28  1  0
 30 29  1  0
 31 30  1  0
 32 31  1  0
 33 32  1  0
 34 33  1  0
 34 29  2  0
 35 34  1  0
 36 35  2  0
 37 36  1  0
 37 28  2  0
 38 37  1  0
 39 38  2  0
 40 39  1  0
 41 36  1  0
 41 40  2  0
 42 40  1  0
  3 43  1  0
  5 44  1  0
 11 45  1  0
 12 46  1  0
 13 47  1  0
 14 48  1  0
 15 49  1  0
 15 50  1  0
 17 51  1  0
 18 52  1  0
 20 53  1  0
 21 54  1  0
 22 55  1  0
 22 56  1  0
 22 57  1  0
 24 58  1  0
 24 59  1  0
 25 60  1  0
 25 61  1  0
 26 62  1  0
 26 63  1  0
 27 64  1  0
 30 65  1  0
 30 66  1  0
 31 67  1  0
 31 68  1  0
 32 69  1  0
 32 70  1  0
 33 71  1  0
 33 72  1  0
 38 73  1  0
 39 74  1  0
 41 75  1  0
M  END
>  <score>  (7) 
-10.464

$$$$
=
     RDKit          3D

 75 80  0  0  0  0  0  0  0  0999 V2000
   -0.0030   65.3180   72.0570 C   0  0  0  0  0  0  0  0  0  0  0  0
   -0.8100   66.1340   72.4950 O   0  0  0  0  0  0  0  0  0  0  0  0
    0.4750   65.3640   70.7720 N   0  0  0  0  0  0  0  0  0  0  0  0
    1.8760   62.1700   72.9260 N   0  0  0  0  0  0  0  0  0  0  0  0
    1.2900   63.2710   72.3130 C   0  0  0  0  0  0  0  0  0  0  0  0
    0.5280   64.2070   72.8970 C   0  0  0  0  0  0  0  0  0  0  0  0
    0.2770   64.0520   74.3500 C   0  0  0  0  0  0  0  0  0  0  0  0
   -0.4150   64.8580   74.9690 O   0  0  0  0  0  0  0  0  0  0  0  0
    0.8830   62.8850   75.0400 C   0  0  0  0  0  0  0  0  0  0  0  0
    1.6700   61.9680   74.3110 C   0  0  0  0  0  0  0  0  0  0  0  0
    2.2120   60.8890   75.0300 C   0  0  0  0  0  0  0  0  0  0  0  0
    1.9820   60.7310   76.4040 C   0  0  0  0  0  0  0  0  0  0  0  0
    1.2000   61.6490   77.0960 C   0  0  0  0  0  0  0  0  0  0  0  0
    0.6500   62.7290   76.4160 C   0  0  0  0  0  0  0  0  0  0  0  0
    2.6750   61.2030   72.1450 C   0  0  0  0  0  0  0  0  0  0  0  0
    3.9820   62.7590   68.3080 C   0  0  0  0  0  0  0  0  0  0  0  0
    3.1330   61.6570   68.3770 C   0  0  0  0  0  0  0  0  0  0  0  0
    2.7240   61.1590   69.6200 C   0  0  0  0  0  0  0  0  0  0  0  0
    3.1680   61.7460   70.8160 C   0  0  0  0  0  0  0  0  0  0  0  0
    4.0060   62.8650   70.7340 C   0  0  0  0  0  0  0  0  0  0  0  0
    4.4120   63.3600   69.4920 C   0  0  0  0  0  0  0  0  0  0  0  0
    3.4880   63.8390   66.2480 C   0  0  0  0  0  0  0  0  0  0  0  0
    4.4550   63.3440   67.1650 O   0  0  0  0  0  0  0  0  0  0  0  0
    0.1060   66.4070   69.8400 C   0  0  0  0  0  0  0  0  0  0  0  0
    1.2820   66.8200   68.9620 C   0  0  0  0  0  0  0  0  0  0  0  0
    1.7420   68.2360   69.2990 C   0  0  0  0  0  0  0  0  0  0  0  0
    1.4860   69.1110   68.1470 N   0  0  0  0  0  0  0  0  0  0  0  0
    2.6430   69.2580   67.3260 C   0  0  0  0  0  0  0  0  0  0  0  0
    2.5410   68.9370   65.9580 C   0  0  0  0  0  0  0  0  0  0  0  0
    1.2570   68.3910   65.3780 C   0  0  0  0  0  0  0  0  0  0  0  0
    1.4250   67.7540   63.9990 C   0  0  0  0  0  0  0  0  0  0  0  0
    2.2580   68.6550   63.0990 C   0  0  0  0  0  0  0  0  0  0  0  0
    3.6550   68.8230   63.6840 C   0  0  0  0  0  0  0  0  0  0  0  0
    3.6530   69.1710   65.1510 C   0  0  0  0  0  0  0  0  0  0  0  0
    4.8200   69.6680   65.6260 N   0  0  0  0  0  0  0  0  0  0  0  0
    4.9190   69.9690   66.9260 C   0  0  0  0  0  0  0  0  0  0  0  0
    3.8580   69.7940   67.8390 C   0  0  0  0  0  0  0  0  0  0  0  0
    4.0670   70.1610   69.1920 C   0  0  0  0  0  0  0  0  0  0  0  0
    5.2890   70.6770   69.6230 C   0  0  0  0  0  0  0  0  0  0  0  0
    6.3170   70.8330   68.7060 C   0  0  0  0  0  0  0  0  0  0  0  0
    6.1280   70.4820   67.3730 C   0  0  0  0  0  0  0  0  0  0  0  0
    7.8310   71.4680   69.2200 Cl  0  0  0  0  0  0  0  0  0  0  0  0
    1.1223   64.6267   70.4584 H   0  0  0  0  0  0  0  0  0  0  0  0
    1.4705   63.3869   71.2341 H   0  0  0  0  0  0  0  0  0  0  0  0
    2.8322   60.1500   74.5016 H   0  0  0  0  0  0  0  0  0  0  0  0
    2.4227   59.8759   76.9375 H   0  0  0  0  0  0  0  0  0  0  0  0
    1.0181   61.5214   78.1733 H   0  0  0  0  0  0  0  0  0  0  0  0
    0.0321   63.4617   76.9557 H   0  0  0  0  0  0  0  0  0  0  0  0
    3.5489   60.9104   72.7455 H   0  0  0  0  0  0  0  0  0  0  0  0
    2.0155   60.3524   71.9182 H   0  0  0  0  0  0  0  0  0  0  0  0
    2.7826   61.1763   67.4517 H   0  0  0  0  0  0  0  0  0  0  0  0
    2.0446   60.2948   69.6603 H   0  0  0  0  0  0  0  0  0  0  0  0
    4.3477   63.3587   71.6557 H   0  0  0  0  0  0  0  0  0  0  0  0
    5.0786   64.2339   69.4469 H   0  0  0  0  0  0  0  0  0  0  0  0
    2.6431   64.2715   66.8040 H   0  0  0  0  0  0  0  0  0  0  0  0
    3.9456   64.6137   65.6152 H   0  0  0  0  0  0  0  0  0  0  0  0
    3.1271   63.0148   65.6152 H   0  0  0  0  0  0  0  0  0  0  0  0
   -0.7072   66.0392   69.1970 H   0  0  0  0  0  0  0  0  0  0  0  0
   -0.2157   67.2857   70.4182 H   0  0  0  0  0  0  0  0  0  0  0  0
    2.1162   66.1218   69.1254 H   0  0  0  0  0  0  0  0  0  0  0  0
    0.9611   66.7955   67.9101 H   0  0  0  0  0  0  0  0  0  0  0  0
    1.1861   68.6057   70.1732 H   0  0  0  0  0  0  0  0  0  0  0  0
    2.8176   68.2315   69.5294 H   0  0  0  0  0  0  0  0  0  0  0  0
    0.5807   69.5635   67.9554 H   0  0  0  0  0  0  0  0  0  0  0  0
    0.8620   67.6292   66.0662 H   0  0  0  0  0  0  0  0  0  0  0  0
    0.5726   69.2435   65.2559 H   0  0  0  0  0  0  0  0  0  0  0  0
    1.9296   66.7826   64.1071 H   0  0  0  0  0  0  0  0  0  0  0  0
    0.4324   67.6147   63.5459 H   0  0  0  0  0  0  0  0  0  0  0  0
    2.3332   68.2028   62.0991 H   0  0  0  0  0  0  0  0  0  0  0  0
    1.7749   69.6405   63.0258 H   0  0  0  0  0  0  0  0  0  0  0  0
    4.2045   67.8795   63.5504 H   0  0  0  0  0  0  0  0  0  0  0  0
    4.1305   69.6606   63.1527 H   0  0  0  0  0  0  0  0  0  0  0  0
    3.2489   70.0363   69.9167 H   0  0  0  0  0  0  0  0  0  0  0  0
    5.4352   70.9565   70.6768 H   0  0  0  0  0  0  0  0  0  0  0  0
    6.9542   70.6140   66.6589 H   0  0  0  0  0  0  0  0  0  0  0  0
  2  1  2  0
  3  1  1  0
  5  4  1  0
  6  1  1  0
  6  5  2  0
  7  6  1  0
  8  7  2  0
  9  7  1  0
 10  9  2  0
 10  4  1  0
 11 10  1  0
 12 11  2  0
 13 12  1  0
 14 13  2  0
 14  9  1  0
 15  4  1  0
 17 16  2  0
 18 17  1  0
 19 18  2  0
 19 15  1  0
 20 19  1  0
 21 20  2  0
 21 16  1  0
 23 22  1  0
 23 16  1  0
 24  3  1  0
 25 24  1  0
 26 25  1  0
 27 26  1  0
 28 27  1  0
 29 28  1  0
 30 29  1  0
 31 30  1  0
 32 31  1  0
 33 32  1  0
 34 33  1  0
 34 29  2  0
 35 34  1  0
 36 35  2  0
 37 36  1  0
 37 28  2  0
 38 37  1  0
 39 38  2  0
 40 39  1  0
 41 36  1  0
 41 40  2  0
 42 40  1  0
  3 43  1  0
  5 44  1  0
 11 45  1  0
 12 46  1  0
 13 47  1  0
 14 48  1  0
 15 49  1  0
 15 50  1  0
 17 51  1  0
 18 52  1  0
 20 53  1  0
 21 54  1  0
 22 55  1  0
 22 56  1  0
 22 57  1  0
 24 58  1  0
 24 59  1  0
 25 60  1  0
 25 61  1  0
 26 62  1  0
 26 63  1  0
 27 64  1  0
 30 65  1  0
 30 66  1  0
 31 67  1  0
 31 68  1  0
 32 69  1  0
 32 70  1  0
 33 71  1  0
 33 72  1  0
 38 73  1  0
 39 74  1  0
 41 75  1  0
M  END
>  <score>  (8) 
-10.341

$$$$
