=
     RDKit          3D

 54 57  0  0  0  0  0  0  0  0999 V2000
   -0.2430   56.3100   74.1880 C   0  0  1  0  0  0  0  0  0  0  0  0
   -1.3730   57.1630   74.8070 C   0  0  0  0  0  0  0  0  0  0  0  0
   -1.0380   58.6340   74.4770 C   0  0  0  0  0  0  0  0  0  0  0  0
    0.1430   58.5520   73.5120 C   0  0  2  0  0  0  0  0  0  0  0  0
    0.9330   57.3210   74.0110 C   0  0  1  0  0  0  0  0  0  0  0  0
    1.6350   57.5600   75.3740 C   0  0  0  0  0  0  0  0  0  0  0  0
    1.9690   56.9710   72.9200 C   0  0  0  0  0  0  0  0  0  0  0  0
    2.8840   58.1560   72.5410 C   0  0  1  0  0  0  0  0  0  0  0  0
    2.1040   59.4660   72.2160 C   0  0  1  0  0  0  0  0  0  0  0  0
    1.0170   59.7950   73.3000 C   0  0  1  0  0  0  0  0  0  0  0  0
    0.1540   60.9970   72.8730 C   0  0  0  0  0  0  0  0  0  0  0  0
    0.9930   62.2190   72.5230 C   0  0  0  0  0  0  0  0  0  0  0  0
    2.0260   61.8620   71.4850 C   0  0  0  0  0  0  0  0  0  0  0  0
    2.0410   62.4920   70.2960 C   0  0  0  0  0  0  0  0  0  0  0  0
    2.9990   62.1280   69.2330 C   0  0  0  0  0  0  0  0  0  0  0  0
    3.0080   62.7100   68.1570 O   0  0  0  0  0  0  0  0  0  0  0  0
    3.9390   61.0290   69.5180 C   0  0  0  0  0  0  0  0  0  0  0  0
    3.9270   60.4000   70.7020 C   0  0  0  0  0  0  0  0  0  0  0  0
    2.9890   60.7240   71.8610 C   0  0  2  0  0  0  0  0  0  0  0  0
    3.8860   61.2160   73.0190 C   0  0  0  0  0  0  0  0  0  0  0  0
    0.1530   55.0130   74.9180 C   0  0  0  0  0  0  0  0  0  0  0  0
   -0.0690   54.9070   76.1330 O   0  0  0  0  0  0  0  0  0  0  0  0
    0.8370   53.8850   74.1630 C   0  0  0  0  0  0  0  0  0  0  0  0
    2.2290   53.8450   74.4090 O   0  0  0  0  0  0  0  0  0  0  0  0
   -0.7130   55.8850   72.8910 O   0  0  0  0  0  0  0  0  0  0  0  0
    3.8370   58.3630   73.5730 O   0  0  0  0  0  0  0  0  0  0  0  0
   -2.3430   56.8859   74.3684 H   0  0  0  0  0  0  0  0  0  0  0  0
   -1.4442   57.0037   75.8931 H   0  0  0  0  0  0  0  0  0  0  0  0
   -1.8959   59.1302   73.9998 H   0  0  0  0  0  0  0  0  0  0  0  0
   -0.8018   59.2205   75.3771 H   0  0  0  0  0  0  0  0  0  0  0  0
   -0.2436   58.4674   72.4857 H   0  0  0  0  0  0  0  0  0  0  0  0
    0.9385   57.3229   76.1917 H   0  0  0  0  0  0  0  0  0  0  0  0
    2.5215   56.9131   75.4483 H   0  0  0  0  0  0  0  0  0  0  0  0
    1.9426   58.6135   75.4483 H   0  0  0  0  0  0  0  0  0  0  0  0
    2.5989   56.1479   73.2884 H   0  0  0  0  0  0  0  0  0  0  0  0
    1.4075   56.6921   72.0162 H   0  0  0  0  0  0  0  0  0  0  0  0
    3.3997   57.8884   71.6069 H   0  0  0  0  0  0  0  0  0  0  0  0
    1.5881   59.2335   71.2727 H   0  0  0  0  0  0  0  0  0  0  0  0
    1.5144   60.0669   74.2427 H   0  0  0  0  0  0  0  0  0  0  0  0
   -0.4385   60.7110   71.9914 H   0  0  0  0  0  0  0  0  0  0  0  0
   -0.4912   61.2653   73.7226 H   0  0  0  0  0  0  0  0  0  0  0  0
    0.3374   63.0083   72.1266 H   0  0  0  0  0  0  0  0  0  0  0  0
    1.5039   62.5750   73.4298 H   0  0  0  0  0  0  0  0  0  0  0  0
    1.3191   63.3011   70.1107 H   0  0  0  0  0  0  0  0  0  0  0  0
    4.6611   60.7203   68.7478 H   0  0  0  0  0  0  0  0  0  0  0  0
    4.6512   59.5853   70.8496 H   0  0  0  0  0  0  0  0  0  0  0  0
    3.4174   60.9590   73.9804 H   0  0  0  0  0  0  0  0  0  0  0  0
    4.8715   60.7322   72.9505 H   0  0  0  0  0  0  0  0  0  0  0  0
    4.0077   62.3071   72.9505 H   0  0  0  0  0  0  0  0  0  0  0  0
    0.3940   52.9285   74.4774 H   0  0  0  0  0  0  0  0  0  0  0  0
    0.6890   54.0601   73.0872 H   0  0  0  0  0  0  0  0  0  0  0  0
    2.3915   53.8403   75.3856 H   0  0  0  0  0  0  0  0  0  0  0  0
   -1.4425   55.2254   73.0042 H   0  0  0  0  0  0  0  0  0  0  0  0
    3.3955   58.2671   74.4539 H   0  0  0  0  0  0  0  0  0  0  0  0
  2  1  1  0
  3  2  1  0
  4  3  1  0
  5  4  1  0
  5  1  1  0
  5  6  1  1
  7  5  1  0
  8  7  1  0
  9  8  1  0
 10  9  1  0
 10  4  1  0
 11 10  1  0
 12 11  1  0
 13 12  1  0
 14 13  2  0
 15 14  1  0
 16 15  2  0
 17 15  1  0
 18 17  2  0
 19  9  1  0
 19 18  1  0
 19 13  1  0
 19 20  1  1
 21  1  1  0
 22 21  2  0
 23 21  1  0
 24 23  1  0
  1 25  1  6
 26  8  1  0
  2 27  1  0
  2 28  1  0
  3 29  1  0
  3 30  1  0
  4 31  1  6
  6 32  1  0
  6 33  1  0
  6 34  1  0
  7 35  1  0
  7 36  1  0
  8 37  1  6
  9 38  1  6
 10 39  1  1
 11 40  1  0
 11 41  1  0
 12 42  1  0
 12 43  1  0
 14 44  1  0
 17 45  1  0
 18 46  1  0
 20 47  1  0
 20 48  1  0
 20 49  1  0
 23 50  1  0
 23 51  1  0
 24 52  1  0
 25 53  1  0
 26 54  1  0
M  END
>  <score>  (1) 
-9.194

$$$$
=
     RDKit          3D

 54 57  0  0  0  0  0  0  0  0999 V2000
    3.1330   61.8650   70.3070 C   0  0  1  0  0  0  0  0  0  0  0  0
    3.9140   60.7820   69.5290 C   0  0  0  0  0  0  0  0  0  0  0  0
    3.6960   59.4570   70.2910 C   0  0  0  0  0  0  0  0  0  0  0  0
    2.6390   59.7870   71.3420 C   0  0  2  0  0  0  0  0  0  0  0  0
    2.9590   61.2480   71.7310 C   0  0  1  0  0  0  0  0  0  0  0  0
    4.2790   61.3890   72.5330 C   0  0  0  0  0  0  0  0  0  0  0  0
    1.7630   61.7730   72.5550 C   0  0  0  0  0  0  0  0  0  0  0  0
    1.4250   60.8900   73.7770 C   0  0  1  0  0  0  0  0  0  0  0  0
    1.2840   59.3760   73.4300 C   0  0  1  0  0  0  0  0  0  0  0  0
    2.4750   58.8550   72.5510 C   0  0  1  0  0  0  0  0  0  0  0  0
    2.2300   57.4070   72.0870 C   0  0  0  0  0  0  0  0  0  0  0  0
    1.9310   56.4680   73.2490 C   0  0  0  0  0  0  0  0  0  0  0  0
    0.7870   57.0050   74.0710 C   0  0  0  0  0  0  0  0  0  0  0  0
   -0.3360   56.2810   74.2280 C   0  0  0  0  0  0  0  0  0  0  0  0
   -1.4990   56.7990   74.9750 C   0  0  0  0  0  0  0  0  0  0  0  0
   -2.5150   56.1310   75.1170 O   0  0  0  0  0  0  0  0  0  0  0  0
   -1.3910   58.1580   75.5370 C   0  0  0  0  0  0  0  0  0  0  0  0
   -0.2730   58.8810   75.3830 C   0  0  0  0  0  0  0  0  0  0  0  0
    0.9800   58.4180   74.6460 C   0  0  2  0  0  0  0  0  0  0  0  0
    2.1050   58.3570   75.7040 C   0  0  0  0  0  0  0  0  0  0  0  0
    3.7070   63.2940   70.3110 C   0  0  0  0  0  0  0  0  0  0  0  0
    4.9050   63.4690   70.0460 O   0  0  0  0  0  0  0  0  0  0  0  0
    2.8210   64.4760   70.6670 C   0  0  0  0  0  0  0  0  0  0  0  0
    1.8900   64.7730   69.6440 O   0  0  0  0  0  0  0  0  0  0  0  0
    1.8420   61.9780   69.6700 O   0  0  0  0  0  0  0  0  0  0  0  0
    2.3950   61.1010   74.7920 O   0  0  0  0  0  0  0  0  0  0  0  0
    3.5284   60.6985   68.5022 H   0  0  0  0  0  0  0  0  0  0  0  0
    4.9830   61.0322   69.4609 H   0  0  0  0  0  0  0  0  0  0  0  0
    3.3349   58.6722   69.6100 H   0  0  0  0  0  0  0  0  0  0  0  0
    4.6253   59.0756   70.7392 H   0  0  0  0  0  0  0  0  0  0  0  0
    1.6429   59.6334   70.9012 H   0  0  0  0  0  0  0  0  0  0  0  0
    4.0578   61.3654   73.6103 H   0  0  0  0  0  0  0  0  0  0  0  0
    4.9531   60.5577   72.2788 H   0  0  0  0  0  0  0  0  0  0  0  0
    4.7623   62.3439   72.2788 H   0  0  0  0  0  0  0  0  0  0  0  0
    2.0031   62.7853   72.9121 H   0  0  0  0  0  0  0  0  0  0  0  0
    0.8838   61.7629   71.8940 H   0  0  0  0  0  0  0  0  0  0  0  0
    0.4334   61.1962   74.1417 H   0  0  0  0  0  0  0  0  0  0  0  0
    0.3665   59.3320   72.8248 H   0  0  0  0  0  0  0  0  0  0  0  0
    3.3966   58.8563   73.1515 H   0  0  0  0  0  0  0  0  0  0  0  0
    1.3744   57.3974   71.3958 H   0  0  0  0  0  0  0  0  0  0  0  0
    3.1482   57.0519   71.5963 H   0  0  0  0  0  0  0  0  0  0  0  0
    1.6617   55.4768   72.8552 H   0  0  0  0  0  0  0  0  0  0  0  0
    2.8245   56.3889   73.8857 H   0  0  0  0  0  0  0  0  0  0  0  0
   -0.3890   55.2746   73.7872 H   0  0  0  0  0  0  0  0  0  0  0  0
   -2.2404   58.5846   76.0907 H   0  0  0  0  0  0  0  0  0  0  0  0
   -0.2576   59.8889   75.8233 H   0  0  0  0  0  0  0  0  0  0  0  0
    1.6630   58.3810   76.7110 H   0  0  0  0  0  0  0  0  0  0  0  0
    2.6777   57.4265   75.5770 H   0  0  0  0  0  0  0  0  0  0  0  0
    2.7750   59.2201   75.5770 H   0  0  0  0  0  0  0  0  0  0  0  0
    2.2704   64.2408   71.5898 H   0  0  0  0  0  0  0  0  0  0  0  0
    3.4683   65.3553   70.8003 H   0  0  0  0  0  0  0  0  0  0  0  0
    1.0298   65.0474   70.0501 H   0  0  0  0  0  0  0  0  0  0  0  0
    1.1368   62.0397   70.3621 H   0  0  0  0  0  0  0  0  0  0  0  0
    1.9684   61.0082   75.6805 H   0  0  0  0  0  0  0  0  0  0  0  0
  2  1  1  0
  3  2  1  0
  4  3  1  0
  5  4  1  0
  5  1  1  0
  5  6  1  1
  7  5  1  0
  8  7  1  0
  9  8  1  0
 10  9  1  0
 10  4  1  0
 11 10  1  0
 12 11  1  0
 13 12  1  0
 14 13  2  0
 15 14  1  0
 16 15  2  0
 17 15  1  0
 18 17  2  0
 19  9  1  0
 19 18  1  0
 19 13  1  0
 19 20  1  1
 21  1  1  0
 22 21  2  0
 23 21  1  0
 24 23  1  0
  1 25  1  6
 26  8  1  0
  2 27  1  0
  2 28  1  0
  3 29  1  0
  3 30  1  0
  4 31  1  6
  6 32  1  0
  6 33  1  0
  6 34  1  0
  7 35  1  0
  7 36  1  0
  8 37  1  1
  9 38  1  6
 10 39  1  1
 11 40  1  0
 11 41  1  0
 12 42  1  0
 12 43  1  0
 14 44  1  0
 17 45  1  0
 18 46  1  0
 20 47  1  0
 20 48  1  0
 20 49  1  0
 23 50  1  0
 23 51  1  0
 24 52  1  0
 25 53  1  0
 26 54  1  0
M  END
>  <score>  (2) 
-8.015

$$$$
=
     RDKit          3D

 54 57  0  0  0  0  0  0  0  0999 V2000
    0.8930   63.9180   70.8820 C   0  0  1  0  0  0  0  0  0  0  0  0
    2.3480   63.7830   70.3800 C   0  0  0  0  0  0  0  0  0  0  0  0
    2.9000   62.4780   70.9940 C   0  0  0  0  0  0  0  0  0  0  0  0
    1.6880   61.8150   71.6430 C   0  0  2  0  0  0  0  0  0  0  0  0
    0.8510   63.0110   72.1520 C   0  0  1  0  0  0  0  0  0  0  0  0
    1.5070   63.7480   73.3490 C   0  0  0  0  0  0  0  0  0  0  0  0
   -0.5380   62.4620   72.5460 C   0  0  0  0  0  0  0  0  0  0  0  0
   -0.4720   61.3020   73.5640 C   0  0  1  0  0  0  0  0  0  0  0  0
    0.5170   60.1680   73.1540 C   0  0  1  0  0  0  0  0  0  0  0  0
    1.9130   60.7310   72.7060 C   0  0  1  0  0  0  0  0  0  0  0  0
    2.8110   59.6100   72.1520 C   0  0  0  0  0  0  0  0  0  0  0  0
    2.9540   58.4470   73.1260 C   0  0  0  0  0  0  0  0  0  0  0  0
    1.5960   57.9390   73.5350 C   0  0  0  0  0  0  0  0  0  0  0  0
    1.2460   56.6620   73.2930 C   0  0  0  0  0  0  0  0  0  0  0  0
   -0.0970   56.1460   73.6250 C   0  0  0  0  0  0  0  0  0  0  0  0
   -0.4040   54.9820   73.4070 O   0  0  0  0  0  0  0  0  0  0  0  0
   -1.0560   57.0920   74.2240 C   0  0  0  0  0  0  0  0  0  0  0  0
   -0.7090   58.3640   74.4670 C   0  0  0  0  0  0  0  0  0  0  0  0
    0.6580   58.9750   74.1760 C   0  0  2  0  0  0  0  0  0  0  0  0
    1.2510   59.3780   75.5450 C   0  0  0  0  0  0  0  0  0  0  0  0
    0.3460   65.3400   71.1100 C   0  0  0  0  0  0  0  0  0  0  0  0
   -0.3070   65.5820   72.1350 O   0  0  0  0  0  0  0  0  0  0  0  0
    0.5790   66.4270   70.0750 C   0  0  0  0  0  0  0  0  0  0  0  0
   -0.1410   66.1900   68.8800 O   0  0  0  0  0  0  0  0  0  0  0  0
    0.0500   63.3500   69.8560 O   0  0  0  0  0  0  0  0  0  0  0  0
   -0.1600   61.8210   74.8480 O   0  0  0  0  0  0  0  0  0  0  0  0
    2.3680   63.7252   69.2817 H   0  0  0  0  0  0  0  0  0  0  0  0
    2.9548   64.6515   70.6758 H   0  0  0  0  0  0  0  0  0  0  0  0
    3.3248   61.8306   70.2127 H   0  0  0  0  0  0  0  0  0  0  0  0
    3.7088   62.6660   71.7155 H   0  0  0  0  0  0  0  0  0  0  0  0
    1.1866   61.1849   70.8937 H   0  0  0  0  0  0  0  0  0  0  0  0
    1.1300   63.3244   74.2916 H   0  0  0  0  0  0  0  0  0  0  0  0
    2.5990   63.6239   73.3021 H   0  0  0  0  0  0  0  0  0  0  0  0
    1.2572   64.8182   73.3021 H   0  0  0  0  0  0  0  0  0  0  0  0
   -1.1243   63.2811   72.9880 H   0  0  0  0  0  0  0  0  0  0  0  0
   -1.0024   62.0656   71.6310 H   0  0  0  0  0  0  0  0  0  0  0  0
   -1.4635   60.8261   73.5853 H   0  0  0  0  0  0  0  0  0  0  0  0
    0.0356   59.7074   72.2787 H   0  0  0  0  0  0  0  0  0  0  0  0
    2.4266   61.1631   73.5775 H   0  0  0  0  0  0  0  0  0  0  0  0
    2.3714   59.2351   71.2159 H   0  0  0  0  0  0  0  0  0  0  0  0
    3.8124   60.0334   71.9852 H   0  0  0  0  0  0  0  0  0  0  0  0
    3.5148   57.6343   72.6412 H   0  0  0  0  0  0  0  0  0  0  0  0
    3.4915   58.7933   74.0211 H   0  0  0  0  0  0  0  0  0  0  0  0
    1.9811   55.9838   72.8351 H   0  0  0  0  0  0  0  0  0  0  0  0
   -2.0707   56.7493   74.4751 H   0  0  0  0  0  0  0  0  0  0  0  0
   -1.4716   59.0199   74.9121 H   0  0  0  0  0  0  0  0  0  0  0  0
    0.6318   58.9572   76.3510 H   0  0  0  0  0  0  0  0  0  0  0  0
    2.2765   58.9890   75.6292 H   0  0  0  0  0  0  0  0  0  0  0  0
    1.2668   60.4747   75.6292 H   0  0  0  0  0  0  0  0  0  0  0  0
    0.2591   67.3916   70.4960 H   0  0  0  0  0  0  0  0  0  0  0  0
    1.6509   66.4340   69.8279 H   0  0  0  0  0  0  0  0  0  0  0  0
   -1.0576   65.8883   69.1013 H   0  0  0  0  0  0  0  0  0  0  0  0
   -0.6925   62.8497   70.2785 H   0  0  0  0  0  0  0  0  0  0  0  0
   -0.5224   61.2181   75.5446 H   0  0  0  0  0  0  0  0  0  0  0  0
  2  1  1  0
  3  2  1  0
  4  3  1  0
  5  4  1  0
  5  1  1  0
  5  6  1  1
  7  5  1  0
  8  7  1  0
  9  8  1  0
 10  9  1  0
 10  4  1  0
 11 10  1  0
 12 11  1  0
 13 12  1  0
 14 13  2  0
 15 14  1  0
 16 15  2  0
 17 15  1  0
 18 17  2  0
 19  9  1  0
 19 18  1  0
 19 13  1  0
 19 20  1  1
 21  1  1  0
 22 21  2  0
 23 21  1  0
 24 23  1  0
  1 25  1  6
 26  8  1  0
  2 27  1  0
  2 28  1  0
  3 29  1  0
  3 30  1  0
  4 31  1  6
  6 32  1  0
  6 33  1  0
  6 34  1  0
  7 35  1  0
  7 36  1  0
  8 37  1  1
  9 38  1  6
 10 39  1  1
 11 40  1  0
 11 41  1  0
 12 42  1  0
 12 43  1  0
 14 44  1  0
 17 45  1  0
 18 46  1  0
 20 47  1  0
 20 48  1  0
 20 49  1  0
 23 50  1  0
 23 51  1  0
 24 52  1  0
 25 53  1  0
 26 54  1  0
M  END
>  <score>  (3) 
-7.974

$$$$
=
     RDKit          3D

 54 57  0  0  0  0  0  0  0  0999 V2000
    3.5980   60.4270   71.0770 C   0  0  1  0  0  0  0  0  0  0  0  0
    3.7530   58.8950   70.9460 C   0  0  0  0  0  0  0  0  0  0  0  0
    2.7040   58.2690   71.8900 C   0  0  0  0  0  0  0  0  0  0  0  0
    1.8560   59.4490   72.3590 C   0  0  2  0  0  0  0  0  0  0  0  0
    2.8710   60.6120   72.4460 C   0  0  1  0  0  0  0  0  0  0  0  0
    3.8850   60.4490   73.6090 C   0  0  0  0  0  0  0  0  0  0  0  0
    2.0590   61.9150   72.6110 C   0  0  0  0  0  0  0  0  0  0  0  0
    1.0840   61.8820   73.8090 C   0  0  1  0  0  0  0  0  0  0  0  0
    0.1770   60.6140   73.8390 C   0  0  1  0  0  0  0  0  0  0  0  0
    0.9970   59.2930   73.6210 C   0  0  1  0  0  0  0  0  0  0  0  0
    0.0630   58.0750   73.4910 C   0  0  0  0  0  0  0  0  0  0  0  0
   -0.9030   57.9570   74.6630 C   0  0  0  0  0  0  0  0  0  0  0  0
   -1.6660   59.2440   74.8420 C   0  0  0  0  0  0  0  0  0  0  0  0
   -3.0090   59.2560   74.7600 C   0  0  0  0  0  0  0  0  0  0  0  0
   -3.7850   60.5060   74.8700 C   0  0  0  0  0  0  0  0  0  0  0  0
   -5.0070   60.5060   74.7990 O   0  0  0  0  0  0  0  0  0  0  0  0
   -3.0290   61.7570   75.0610 C   0  0  0  0  0  0  0  0  0  0  0  0
   -1.6910   61.7480   75.1450 C   0  0  0  0  0  0  0  0  0  0  0  0
   -0.8120   60.5040   75.0620 C   0  0  2  0  0  0  0  0  0  0  0  0
   -0.1140   60.3780   76.4350 C   0  0  0  0  0  0  0  0  0  0  0  0
    4.8650   61.2880   70.9210 C   0  0  0  0  0  0  0  0  0  0  0  0
    5.9790   60.7540   71.0190 O   0  0  0  0  0  0  0  0  0  0  0  0
    4.7520   62.7840   70.6790 C   0  0  0  0  0  0  0  0  0  0  0  0
    4.2040   63.0800   69.4090 O   0  0  0  0  0  0  0  0  0  0  0  0
    2.7240   60.8450   70.0070 O   0  0  0  0  0  0  0  0  0  0  0  0
    1.8170   62.0230   75.0170 O   0  0  0  0  0  0  0  0  0  0  0  0
    3.5666   58.5810   69.9084 H   0  0  0  0  0  0  0  0  0  0  0  0
    4.7709   58.5729   71.2109 H   0  0  0  0  0  0  0  0  0  0  0  0
    2.0854   57.5358   71.3517 H   0  0  0  0  0  0  0  0  0  0  0  0
    3.1670   57.7283   72.7286 H   0  0  0  0  0  0  0  0  0  0  0  0
    1.0368   59.6025   71.6411 H   0  0  0  0  0  0  0  0  0  0  0  0
    3.3571   60.5339   74.5703 H   0  0  0  0  0  0  0  0  0  0  0  0
    4.3658   59.4620   73.5406 H   0  0  0  0  0  0  0  0  0  0  0  0
    4.6509   61.2356   73.5406 H   0  0  0  0  0  0  0  0  0  0  0  0
    2.7623   62.7482   72.7565 H   0  0  0  0  0  0  0  0  0  0  0  0
    1.4524   62.0373   71.7015 H   0  0  0  0  0  0  0  0  0  0  0  0
    0.3920   62.7292   73.6934 H   0  0  0  0  0  0  0  0  0  0  0  0
   -0.4899   60.7510   72.9750 H   0  0  0  0  0  0  0  0  0  0  0  0
    1.6436   59.1198   74.4939 H   0  0  0  0  0  0  0  0  0  0  0  0
   -0.5184   58.1730   72.5624 H   0  0  0  0  0  0  0  0  0  0  0  0
    0.6897   57.1711   73.4803 H   0  0  0  0  0  0  0  0  0  0  0  0
   -1.6119   57.1387   74.4683 H   0  0  0  0  0  0  0  0  0  0  0  0
   -0.3310   57.7492   75.5793 H   0  0  0  0  0  0  0  0  0  0  0  0
   -3.5435   58.3069   74.6066 H   0  0  0  0  0  0  0  0  0  0  0  0
   -3.5705   62.7116   75.1357 H   0  0  0  0  0  0  0  0  0  0  0  0
   -1.1865   62.7154   75.2850 H   0  0  0  0  0  0  0  0  0  0  0  0
   -0.8551   60.5118   77.2368 H   0  0  0  0  0  0  0  0  0  0  0  0
    0.3454   59.3824   76.5228 H   0  0  0  0  0  0  0  0  0  0  0  0
    0.6645   61.1501   76.5228 H   0  0  0  0  0  0  0  0  0  0  0  0
    4.1052   63.2204   71.4544 H   0  0  0  0  0  0  0  0  0  0  0  0
    5.7656   63.2097   70.7169 H   0  0  0  0  0  0  0  0  0  0  0  0
    3.3388   63.5473   69.5237 H   0  0  0  0  0  0  0  0  0  0  0  0
    1.9000   61.2391   70.3889 H   0  0  0  0  0  0  0  0  0  0  0  0
    1.2076   61.9058   75.7884 H   0  0  0  0  0  0  0  0  0  0  0  0
  2  1  1  0
  3  2  1  0
  4  3  1  0
  5  4  1  0
  5  1  1  0
  5  6  1  1
  7  5  1  0
  8  7  1  0
  9  8  1  0
 10  9  1  0
 10  4  1  0
 11 10  1  0
 12 11  1  0
 13 12  1  0
 14 13  2  0
 15 14  1  0
 16 15  2  0
 17 15  1  0
 18 17  2  0
 19  9  1  0
 19 18  1  0
 19 13  1  0
 19 20  1  1
 21  1  1  0
 22 21  2  0
 23 21  1  0
 24 23  1  0
  1 25  1  6
 26  8  1  0
  2 27  1  0
  2 28  1  0
  3 29  1  0
  3 30  1  0
  4 31  1  6
  6 32  1  0
  6 33  1  0
  6 34  1  0
  7 35  1  0
  7 36  1  0
  8 37  1  6
  9 38  1  6
 10 39  1  1
 11 40  1  0
 11 41  1  0
 12 42  1  0
 12 43  1  0
 14 44  1  0
 17 45  1  0
 18 46  1  0
 20 47  1  0
 20 48  1  0
 20 49  1  0
 23 50  1  0
 23 51  1  0
 24 52  1  0
 25 53  1  0
 26 54  1  0
M  END
>  <score>  (4) 
-7.803

$$$$
=
     RDKit          3D

 54 57  0  0  0  0  0  0  0  0999 V2000
    3.4090   61.5090   72.3420 C   0  0  1  0  0  0  0  0  0  0  0  0
    2.2330   62.4080   71.9020 C   0  0  0  0  0  0  0  0  0  0  0  0
    0.9420   61.6670   72.3140 C   0  0  0  0  0  0  0  0  0  0  0  0
    1.4260   60.4880   73.1530 C   0  0  2  0  0  0  0  0  0  0  0  0
    2.7640   60.0950   72.4870 C   0  0  1  0  0  0  0  0  0  0  0  0
    2.5810   59.4520   71.0880 C   0  0  0  0  0  0  0  0  0  0  0  0
    3.4800   59.1180   73.4450 C   0  0  0  0  0  0  0  0  0  0  0  0
    2.6200   57.8930   73.8280 C   0  0  1  0  0  0  0  0  0  0  0  0
    1.1910   58.2680   74.3270 C   0  0  1  0  0  0  0  0  0  0  0  0
    0.4830   59.2990   73.3790 C   0  0  1  0  0  0  0  0  0  0  0  0
   -0.8540   59.7750   73.9780 C   0  0  0  0  0  0  0  0  0  0  0  0
   -1.7720   58.6160   74.3420 C   0  0  0  0  0  0  0  0  0  0  0  0
   -1.0550   57.6470   75.2480 C   0  0  0  0  0  0  0  0  0  0  0  0
   -1.5370   57.3800   76.4750 C   0  0  0  0  0  0  0  0  0  0  0  0
   -0.8290   56.4840   77.4110 C   0  0  0  0  0  0  0  0  0  0  0  0
   -1.2780   56.2430   78.5250 O   0  0  0  0  0  0  0  0  0  0  0  0
    0.4430   55.8970   76.9540 C   0  0  0  0  0  0  0  0  0  0  0  0
    0.9240   56.1600   75.7310 C   0  0  0  0  0  0  0  0  0  0  0  0
    0.2510   57.0550   74.6950 C   0  0  2  0  0  0  0  0  0  0  0  0
   -0.1030   56.1410   73.5000 C   0  0  0  0  0  0  0  0  0  0  0  0
    4.6850   61.5280   71.4790 C   0  0  0  0  0  0  0  0  0  0  0  0
    5.6610   60.8450   71.8210 O   0  0  0  0  0  0  0  0  0  0  0  0
    4.7580   62.4010   70.2380 C   0  0  0  0  0  0  0  0  0  0  0  0
    5.2610   63.6920   70.5210 O   0  0  0  0  0  0  0  0  0  0  0  0
    3.8250   61.9840   73.6410 O   0  0  0  0  0  0  0  0  0  0  0  0
    2.5670   56.9940   72.7310 O   0  0  0  0  0  0  0  0  0  0  0  0
    2.2898   63.3835   72.4071 H   0  0  0  0  0  0  0  0  0  0  0  0
    2.2574   62.5957   70.8184 H   0  0  0  0  0  0  0  0  0  0  0  0
    0.2896   62.3242   72.9077 H   0  0  0  0  0  0  0  0  0  0  0  0
    0.3502   61.3451   71.4444 H   0  0  0  0  0  0  0  0  0  0  0  0
    1.5090   60.8107   74.2013 H   0  0  0  0  0  0  0  0  0  0  0  0
    2.2816   58.3999   71.2043 H   0  0  0  0  0  0  0  0  0  0  0  0
    1.8020   59.9958   70.5336 H   0  0  0  0  0  0  0  0  0  0  0  0
    3.5296   59.5041   70.5336 H   0  0  0  0  0  0  0  0  0  0  0  0
    4.3981   58.7603   72.9560 H   0  0  0  0  0  0  0  0  0  0  0  0
    3.6909   59.6695   74.3731 H   0  0  0  0  0  0  0  0  0  0  0  0
    3.1057   57.4038   74.6852 H   0  0  0  0  0  0  0  0  0  0  0  0
    1.3734   58.7607   75.2934 H   0  0  0  0  0  0  0  0  0  0  0  0
    0.2581   58.8136   72.4178 H   0  0  0  0  0  0  0  0  0  0  0  0
   -0.6460   60.3597   74.8862 H   0  0  0  0  0  0  0  0  0  0  0  0
   -1.3657   60.3819   73.2165 H   0  0  0  0  0  0  0  0  0  0  0  0
   -2.6616   59.0057   74.8584 H   0  0  0  0  0  0  0  0  0  0  0  0
   -2.0705   58.0925   73.4218 H   0  0  0  0  0  0  0  0  0  0  0  0
   -2.4845   57.8417   76.7897 H   0  0  0  0  0  0  0  0  0  0  0  0
    1.0061   55.2332   77.6265 H   0  0  0  0  0  0  0  0  0  0  0  0
    1.8802   55.6933   75.4520 H   0  0  0  0  0  0  0  0  0  0  0  0
   -0.4766   55.1764   73.8742 H   0  0  0  0  0  0  0  0  0  0  0  0
   -0.8797   56.6224   72.8876 H   0  0  0  0  0  0  0  0  0  0  0  0
    0.7953   55.9737   72.8876 H   0  0  0  0  0  0  0  0  0  0  0  0
    5.4180   61.9171   69.5030 H   0  0  0  0  0  0  0  0  0  0  0  0
    3.7368   62.5154   69.8455 H   0  0  0  0  0  0  0  0  0  0  0  0
    5.3106   63.8192   71.5015 H   0  0  0  0  0  0  0  0  0  0  0  0
    3.3670   61.4610   74.3458 H   0  0  0  0  0  0  0  0  0  0  0  0
    2.5122   56.0648   73.0682 H   0  0  0  0  0  0  0  0  0  0  0  0
  2  1  1  0
  3  2  1  0
  4  3  1  0
  5  4  1  0
  5  1  1  0
  5  6  1  6
  7  5  1  0
  8  7  1  0
  9  8  1  0
 10  9  1  0
 10  4  1  0
 11 10  1  0
 12 11  1  0
 13 12  1  0
 14 13  2  0
 15 14  1  0
 16 15  2  0
 17 15  1  0
 18 17  2  0
 19  9  1  0
 19 18  1  0
 19 13  1  0
 19 20  1  6
 21  1  1  0
 22 21  2  0
 23 21  1  0
 24 23  1  0
  1 25  1  1
 26  8  1  0
  2 27  1  0
  2 28  1  0
  3 29  1  0
  3 30  1  0
  4 31  1  1
  6 32  1  0
  6 33  1  0
  6 34  1  0
  7 35  1  0
  7 36  1  0
  8 37  1  1
  9 38  1  1
 10 39  1  6
 11 40  1  0
 11 41  1  0
 12 42  1  0
 12 43  1  0
 14 44  1  0
 17 45  1  0
 18 46  1  0
 20 47  1  0
 20 48  1  0
 20 49  1  0
 23 50  1  0
 23 51  1  0
 24 52  1  0
 25 53  1  0
 26 54  1  0
M  END
>  <score>  (5) 
-7.046

$$$$
=
     RDKit          3D

 54 57  0  0  0  0  0  0  0  0999 V2000
    3.9710   61.9010   71.3810 C   0  0  1  0  0  0  0  0  0  0  0  0
    3.1680   63.0220   70.6830 C   0  0  0  0  0  0  0  0  0  0  0  0
    2.0610   63.4440   71.6740 C   0  0  0  0  0  0  0  0  0  0  0  0
    2.4000   62.7070   72.9670 C   0  0  2  0  0  0  0  0  0  0  0  0
    2.9940   61.3670   72.4740 C   0  0  1  0  0  0  0  0  0  0  0  0
    1.9370   60.4340   71.8280 C   0  0  0  0  0  0  0  0  0  0  0  0
    3.6500   60.6830   73.6940 C   0  0  0  0  0  0  0  0  0  0  0  0
    2.6870   60.5070   74.8890 C   0  0  1  0  0  0  0  0  0  0  0  0
    1.9340   61.8150   75.2800 C   0  0  1  0  0  0  0  0  0  0  0  0
    1.3100   62.5360   74.0330 C   0  0  1  0  0  0  0  0  0  0  0  0
    0.7170   63.9030   74.4230 C   0  0  0  0  0  0  0  0  0  0  0  0
   -0.2760   63.7990   75.5730 C   0  0  0  0  0  0  0  0  0  0  0  0
    0.3580   63.0970   76.7470 C   0  0  0  0  0  0  0  0  0  0  0  0
    0.4620   63.7200   77.9350 C   0  0  0  0  0  0  0  0  0  0  0  0
    1.1310   63.0870   79.0900 C   0  0  0  0  0  0  0  0  0  0  0  0
    1.2160   63.6590   80.1690 O   0  0  0  0  0  0  0  0  0  0  0  0
    1.6990   61.7420   78.8890 C   0  0  0  0  0  0  0  0  0  0  0  0
    1.5950   61.1200   77.7060 C   0  0  0  0  0  0  0  0  0  0  0  0
    0.9060   61.6880   76.4700 C   0  0  2  0  0  0  0  0  0  0  0  0
   -0.2920   60.7560   76.1760 C   0  0  0  0  0  0  0  0  0  0  0  0
    4.5780   60.7990   70.4920 C   0  0  0  0  0  0  0  0  0  0  0  0
    5.7050   60.3570   70.7560 O   0  0  0  0  0  0  0  0  0  0  0  0
    3.8150   60.2800   69.2840 C   0  0  0  0  0  0  0  0  0  0  0  0
    3.7880   58.8670   69.2370 O   0  0  0  0  0  0  0  0  0  0  0  0
    5.1020   62.5390   72.0150 O   0  0  0  0  0  0  0  0  0  0  0  0
    1.7800   59.4510   74.6110 O   0  0  0  0  0  0  0  0  0  0  0  0
    3.8234   63.8763   70.4577 H   0  0  0  0  0  0  0  0  0  0  0  0
    2.7408   62.6742   69.7309 H   0  0  0  0  0  0  0  0  0  0  0  0
    2.0758   64.5325   71.8322 H   0  0  0  0  0  0  0  0  0  0  0  0
    1.0546   63.1973   71.3049 H   0  0  0  0  0  0  0  0  0  0  0  0
    3.0885   63.3286   73.5583 H   0  0  0  0  0  0  0  0  0  0  0  0
    1.3632   59.9275   72.6181 H   0  0  0  0  0  0  0  0  0  0  0  0
    1.2547   61.0297   71.2038 H   0  0  0  0  0  0  0  0  0  0  0  0
    2.4434   59.6830   71.2038 H   0  0  0  0  0  0  0  0  0  0  0  0
    4.0088   59.6898   73.3860 H   0  0  0  0  0  0  0  0  0  0  0  0
    4.4697   61.3349   74.0304 H   0  0  0  0  0  0  0  0  0  0  0  0
    3.2968   60.2514   75.7681 H   0  0  0  0  0  0  0  0  0  0  0  0
    2.7269   62.4595   75.6874 H   0  0  0  0  0  0  0  0  0  0  0  0
    0.4890   61.9232   73.6324 H   0  0  0  0  0  0  0  0  0  0  0  0
    1.5375   64.5709   74.7242 H   0  0  0  0  0  0  0  0  0  0  0  0
    0.1773   64.2959   73.5487 H   0  0  0  0  0  0  0  0  0  0  0  0
   -0.5858   64.8095   75.8780 H   0  0  0  0  0  0  0  0  0  0  0  0
   -1.1514   63.2221   75.2400 H   0  0  0  0  0  0  0  0  0  0  0  0
    0.0373   64.7282   78.0493 H   0  0  0  0  0  0  0  0  0  0  0  0
    2.2155   61.2415   79.7213 H   0  0  0  0  0  0  0  0  0  0  0  0
    2.0429   60.1190   77.6200 H   0  0  0  0  0  0  0  0  0  0  0  0
   -0.7318   60.4139   77.1244 H   0  0  0  0  0  0  0  0  0  0  0  0
   -1.0498   61.3044   75.5972 H   0  0  0  0  0  0  0  0  0  0  0  0
    0.0532   59.8866   75.5972 H   0  0  0  0  0  0  0  0  0  0  0  0
    2.7812   60.6529   69.3308 H   0  0  0  0  0  0  0  0  0  0  0  0
    4.3289   60.6386   68.3799 H   0  0  0  0  0  0  0  0  0  0  0  0
    3.7811   58.5062   70.1589 H   0  0  0  0  0  0  0  0  0  0  0  0
    5.0036   62.4835   72.9985 H   0  0  0  0  0  0  0  0  0  0  0  0
    1.4501   59.0668   75.4617 H   0  0  0  0  0  0  0  0  0  0  0  0
  2  1  1  0
  3  2  1  0
  4  3  1  0
  5  4  1  0
  5  1  1  0
  5  6  1  6
  7  5  1  0
  8  7  1  0
  9  8  1  0
 10  9  1  0
 10  4  1  0
 11 10  1  0
 12 11  1  0
 13 12  1  0
 14 13  2  0
 15 14  1  0
 16 15  2  0
 17 15  1  0
 18 17  2  0
 19  9  1  0
 19 18  1  0
 19 13  1  0
 19 20  1  6
 21  1  1  0
 22 21  2  0
 23 21  1  0
 24 23  1  0
  1 25  1  1
 26  8  1  0
  2 27  1  0
  2 28  1  0
  3 29  1  0
  3 30  1  0
  4 31  1  1
  6 32  1  0
  6 33  1  0
  6 34  1  0
  7 35  1  0
  7 36  1  0
  8 37  1  1
  9 38  1  1
 10 39  1  6
 11 40  1  0
 11 41  1  0
 12 42  1  0
 12 43  1  0
 14 44  1  0
 17 45  1  0
 18 46  1  0
 20 47  1  0
 20 48  1  0
 20 49  1  0
 23 50  1  0
 23 51  1  0
 24 52  1  0
 25 53  1  0
 26 54  1  0
M  END
>  <score>  (6) 
-7.039

$$$$
=
     RDKit          3D

 54 57  0  0  0  0  0  0  0  0999 V2000
    2.8280   62.2430   71.2010 C   0  0  1  0  0  0  0  0  0  0  0  0
    4.3230   62.3340   71.5810 C   0  0  0  0  0  0  0  0  0  0  0  0
    4.5430   61.3220   72.7270 C   0  0  0  0  0  0  0  0  0  0  0  0
    3.2310   60.5480   72.8130 C   0  0  2  0  0  0  0  0  0  0  0  0
    2.1620   61.6070   72.4610 C   0  0  1  0  0  0  0  0  0  0  0  0
    1.9840   62.6820   73.5650 C   0  0  0  0  0  0  0  0  0  0  0  0
    0.8350   60.8530   72.2180 C   0  0  0  0  0  0  0  0  0  0  0  0
    0.4170   59.9510   73.4010 C   0  0  1  0  0  0  0  0  0  0  0  0
    1.5530   59.0030   73.8930 C   0  0  1  0  0  0  0  0  0  0  0  0
    2.9140   59.7610   74.0920 C   0  0  1  0  0  0  0  0  0  0  0  0
    4.0530   58.7780   74.4170 C   0  0  0  0  0  0  0  0  0  0  0  0
    3.7250   57.8810   75.6050 C   0  0  0  0  0  0  0  0  0  0  0  0
    2.4120   57.1770   75.3780 C   0  0  0  0  0  0  0  0  0  0  0  0
    2.3560   55.8330   75.3570 C   0  0  0  0  0  0  0  0  0  0  0  0
    1.0990   55.1090   75.0780 C   0  0  0  0  0  0  0  0  0  0  0  0
    1.0570   53.8860   75.0670 O   0  0  0  0  0  0  0  0  0  0  0  0
   -0.1010   55.9200   74.8070 C   0  0  0  0  0  0  0  0  0  0  0  0
   -0.0490   57.2590   74.8280 C   0  0  0  0  0  0  0  0  0  0  0  0
    1.1980   58.0860   75.1260 C   0  0  2  0  0  0  0  0  0  0  0  0
    0.9000   58.8620   76.4290 C   0  0  0  0  0  0  0  0  0  0  0  0
    2.1370   63.5280   70.7090 C   0  0  0  0  0  0  0  0  0  0  0  0
    2.7880   64.5800   70.6390 O   0  0  0  0  0  0  0  0  0  0  0  0
    0.6620   63.5140   70.3420 C   0  0  0  0  0  0  0  0  0  0  0  0
    0.2190   64.7700   69.8670 O   0  0  0  0  0  0  0  0  0  0  0  0
    2.7420   61.3200   70.0930 O   0  0  0  0  0  0  0  0  0  0  0  0
   -0.0760   60.7600   74.4580 O   0  0  0  0  0  0  0  0  0  0  0  0
    4.9519   62.0732   70.7170 H   0  0  0  0  0  0  0  0  0  0  0  0
    4.5946   63.3538   71.8913 H   0  0  0  0  0  0  0  0  0  0  0  0
    5.3784   60.6457   72.4930 H   0  0  0  0  0  0  0  0  0  0  0  0
    4.7996   61.8153   73.6761 H   0  0  0  0  0  0  0  0  0  0  0  0
    3.2792   59.6931   72.1224 H   0  0  0  0  0  0  0  0  0  0  0  0
    2.0625   62.2079   74.5545 H   0  0  0  0  0  0  0  0  0  0  0  0
    2.7677   63.4469   73.4617 H   0  0  0  0  0  0  0  0  0  0  0  0
    0.9956   63.1535   73.4617 H   0  0  0  0  0  0  0  0  0  0  0  0
    0.0397   61.5932   72.0457 H   0  0  0  0  0  0  0  0  0  0  0  0
    0.9881   60.1977   71.3479 H   0  0  0  0  0  0  0  0  0  0  0  0
   -0.3799   59.2838   73.0407 H   0  0  0  0  0  0  0  0  0  0  0  0
    1.6748   58.2908   73.0636 H   0  0  0  0  0  0  0  0  0  0  0  0
    2.8232   60.4523   74.9428 H   0  0  0  0  0  0  0  0  0  0  0  0
    4.2354   58.1450   73.5361 H   0  0  0  0  0  0  0  0  0  0  0  0
    4.9424   59.3699   74.6791 H   0  0  0  0  0  0  0  0  0  0  0  0
    4.5222   57.1329   75.7266 H   0  0  0  0  0  0  0  0  0  0  0  0
    3.6490   58.4992   76.5117 H   0  0  0  0  0  0  0  0  0  0  0  0
    3.2723   55.2569   75.5532 H   0  0  0  0  0  0  0  0  0  0  0  0
   -1.0543   55.4186   74.5840 H   0  0  0  0  0  0  0  0  0  0  0  0
   -0.9794   57.8052   74.6133 H   0  0  0  0  0  0  0  0  0  0  0  0
    1.1427   58.2299   77.2959 H   0  0  0  0  0  0  0  0  0  0  0  0
    1.5110   59.7762   76.4592 H   0  0  0  0  0  0  0  0  0  0  0  0
   -0.1659   59.1322   76.4592 H   0  0  0  0  0  0  0  0  0  0  0  0
    0.4991   62.7607   69.5572 H   0  0  0  0  0  0  0  0  0  0  0  0
    0.0897   63.2749   71.2505 H   0  0  0  0  0  0  0  0  0  0  0  0
    0.0113   65.3588   70.6353 H   0  0  0  0  0  0  0  0  0  0  0  0
    2.6559   60.3964   70.4388 H   0  0  0  0  0  0  0  0  0  0  0  0
    0.1711   60.3545   75.3267 H   0  0  0  0  0  0  0  0  0  0  0  0
  2  1  1  0
  3  2  1  0
  4  3  1  0
  5  4  1  0
  5  1  1  0
  5  6  1  1
  7  5  1  0
  8  7  1  0
  9  8  1  0
 10  9  1  0
 10  4  1  0
 11 10  1  0
 12 11  1  0
 13 12  1  0
 14 13  2  0
 15 14  1  0
 16 15  2  0
 17 15  1  0
 18 17  2  0
 19  9  1  0
 19 18  1  0
 19 13  1  0
 19 20  1  1
 21  1  1  0
 22 21  2  0
 23 21  1  0
 24 23  1  0
  1 25  1  6
 26  8  1  0
  2 27  1  0
  2 28  1  0
  3 29  1  0
  3 30  1  0
  4 31  1  6
  6 32  1  0
  6 33  1  0
  6 34  1  0
  7 35  1  0
  7 36  1  0
  8 37  1  6
  9 38  1  6
 10 39  1  1
 11 40  1  0
 11 41  1  0
 12 42  1  0
 12 43  1  0
 14 44  1  0
 17 45  1  0
 18 46  1  0
 20 47  1  0
 20 48  1  0
 20 49  1  0
 23 50  1  0
 23 51  1  0
 24 52  1  0
 25 53  1  0
 26 54  1  0
M  END
>  <score>  (7) 
-6.97

$$$$
=
     RDKit          3D

 54 57  0  0  0  0  0  0  0  0999 V2000
    3.6680   61.8290   71.5000 C   0  0  1  0  0  0  0  0  0  0  0  0
    2.6420   62.9660   71.7030 C   0  0  0  0  0  0  0  0  0  0  0  0
    1.9580   62.6970   73.0620 C   0  0  0  0  0  0  0  0  0  0  0  0
    2.7580   61.5510   73.6750 C   0  0  2  0  0  0  0  0  0  0  0  0
    3.1640   60.6980   72.4510 C   0  0  1  0  0  0  0  0  0  0  0  0
    1.9670   59.9560   71.8020 C   0  0  0  0  0  0  0  0  0  0  0  0
    4.2320   59.6910   72.9310 C   0  0  0  0  0  0  0  0  0  0  0  0
    3.7720   58.8340   74.1310 C   0  0  1  0  0  0  0  0  0  0  0  0
    3.1810   59.6730   75.3050 C   0  0  1  0  0  0  0  0  0  0  0  0
    2.1310   60.7310   74.8100 C   0  0  1  0  0  0  0  0  0  0  0  0
    1.6880   61.6520   75.9610 C   0  0  0  0  0  0  0  0  0  0  0  0
    1.1800   60.8720   77.1670 C   0  0  0  0  0  0  0  0  0  0  0  0
    2.2120   59.8650   77.6080 C   0  0  0  0  0  0  0  0  0  0  0  0
    2.7240   59.9170   78.8510 C   0  0  0  0  0  0  0  0  0  0  0  0
    3.7800   58.9860   79.2990 C   0  0  0  0  0  0  0  0  0  0  0  0
    4.2360   59.0370   80.4330 O   0  0  0  0  0  0  0  0  0  0  0  0
    4.2670   57.9970   78.3210 C   0  0  0  0  0  0  0  0  0  0  0  0
    3.7580   57.9430   77.0820 C   0  0  0  0  0  0  0  0  0  0  0  0
    2.6550   58.8490   76.5430 C   0  0  2  0  0  0  0  0  0  0  0  0
    1.4550   57.9280   76.2290 C   0  0  0  0  0  0  0  0  0  0  0  0
    3.9380   61.3600   70.0580 C   0  0  0  0  0  0  0  0  0  0  0  0
    4.8660   60.5690   69.8400 O   0  0  0  0  0  0  0  0  0  0  0  0
    3.0940   61.8860   68.9100 C   0  0  0  0  0  0  0  0  0  0  0  0
    3.6390   63.0600   68.3390 O   0  0  0  0  0  0  0  0  0  0  0  0
    4.9360   62.3310   71.9770 O   0  0  0  0  0  0  0  0  0  0  0  0
    2.8500   57.8530   73.6810 O   0  0  0  0  0  0  0  0  0  0  0  0
    3.1520   63.9405   71.7198 H   0  0  0  0  0  0  0  0  0  0  0  0
    1.9076   62.9920   70.8845 H   0  0  0  0  0  0  0  0  0  0  0  0
    2.0041   63.5895   73.7034 H   0  0  0  0  0  0  0  0  0  0  0  0
    0.8921   62.4492   72.9509 H   0  0  0  0  0  0  0  0  0  0  0  0
    3.5997   61.9720   74.2445 H   0  0  0  0  0  0  0  0  0  0  0  0
    1.3150   59.5519   72.5904 H   0  0  0  0  0  0  0  0  0  0  0  0
    1.3952   60.6583   71.1776 H   0  0  0  0  0  0  0  0  0  0  0  0
    2.3416   59.1315   71.1776 H   0  0  0  0  0  0  0  0  0  0  0  0
    4.4773   59.0184   72.0959 H   0  0  0  0  0  0  0  0  0  0  0  0
    5.1026   60.2752   73.2640 H   0  0  0  0  0  0  0  0  0  0  0  0
    4.6642   58.3435   74.5473 H   0  0  0  0  0  0  0  0  0  0  0  0
    4.0527   60.2143   75.7013 H   0  0  0  0  0  0  0  0  0  0  0  0
    1.2346   60.2096   74.4431 H   0  0  0  0  0  0  0  0  0  0  0  0
    2.5463   62.2652   76.2730 H   0  0  0  0  0  0  0  0  0  0  0  0
    0.8601   62.2751   75.5919 H   0  0  0  0  0  0  0  0  0  0  0  0
    0.9777   61.5703   77.9925 H   0  0  0  0  0  0  0  0  0  0  0  0
    0.2571   60.3420   76.8889 H   0  0  0  0  0  0  0  0  0  0  0  0
    2.3457   60.6741   79.5536 H   0  0  0  0  0  0  0  0  0  0  0  0
    5.0601   57.2925   78.6120 H   0  0  0  0  0  0  0  0  0  0  0  0
    4.1685   57.1846   76.3991 H   0  0  0  0  0  0  0  0  0  0  0  0
    1.0030   57.5811   77.1699 H   0  0  0  0  0  0  0  0  0  0  0  0
    0.7070   58.4861   75.6468 H   0  0  0  0  0  0  0  0  0  0  0  0
    1.8006   57.0611   75.6468 H   0  0  0  0  0  0  0  0  0  0  0  0
    3.0310   61.1104   68.1325 H   0  0  0  0  0  0  0  0  0  0  0  0
    2.0997   62.1353   69.3090 H   0  0  0  0  0  0  0  0  0  0  0  0
    3.9248   63.6756   69.0598 H   0  0  0  0  0  0  0  0  0  0  0  0
    4.9391   62.3322   72.9670 H   0  0  0  0  0  0  0  0  0  0  0  0
    2.4330   57.4093   74.4616 H   0  0  0  0  0  0  0  0  0  0  0  0
  2  1  1  0
  3  2  1  0
  4  3  1  0
  5  4  1  0
  5  1  1  0
  5  6  1  6
  7  5  1  0
  8  7  1  0
  9  8  1  0
 10  9  1  0
 10  4  1  0
 11 10  1  0
 12 11  1  0
 13 12  1  0
 14 13  2  0
 15 14  1  0
 16 15  2  0
 17 15  1  0
 18 17  2  0
 19  9  1  0
 19 18  1  0
 19 13  1  0
 19 20  1  6
 21  1  1  0
 22 21  2  0
 23 21  1  0
 24 23  1  0
  1 25  1  1
 26  8  1  0
  2 27  1  0
  2 28  1  0
  3 29  1  0
  3 30  1  0
  4 31  1  1
  6 32  1  0
  6 33  1  0
  6 34  1  0
  7 35  1  0
  7 36  1  0
  8 37  1  1
  9 38  1  1
 10 39  1  6
 11 40  1  0
 11 41  1  0
 12 42  1  0
 12 43  1  0
 14 44  1  0
 17 45  1  0
 18 46  1  0
 20 47  1  0
 20 48  1  0
 20 49  1  0
 23 50  1  0
 23 51  1  0
 24 52  1  0
 25 53  1  0
 26 54  1  0
M  END
>  <score>  (8) 
-6.711

$$$$
=
     RDKit          3D

 54 57  0  0  0  0  0  0  0  0999 V2000
    1.2050   62.5800   78.4380 C   0  0  1  0  0  0  0  0  0  0  0  0
    1.0140   61.0660   78.6870 C   0  0  0  0  0  0  0  0  0  0  0  0
    0.9100   60.4070   77.2940 C   0  0  0  0  0  0  0  0  0  0  0  0
    1.2560   61.5240   76.3130 C   0  0  2  0  0  0  0  0  0  0  0  0
    0.6740   62.7890   76.9850 C   0  0  1  0  0  0  0  0  0  0  0  0
   -0.8770   62.8180   76.9890 C   0  0  0  0  0  0  0  0  0  0  0  0
    1.2390   64.0100   76.2270 C   0  0  0  0  0  0  0  0  0  0  0  0
    0.9720   63.9640   74.7060 C   0  0  1  0  0  0  0  0  0  0  0  0
    1.3820   62.6150   74.0420 C   0  0  1  0  0  0  0  0  0  0  0  0
    0.8490   61.3730   74.8410 C   0  0  1  0  0  0  0  0  0  0  0  0
    1.4030   60.0600   74.2590 C   0  0  0  0  0  0  0  0  0  0  0  0
    1.1370   59.9280   72.7650 C   0  0  0  0  0  0  0  0  0  0  0  0
    1.6580   61.1400   72.0350 C   0  0  0  0  0  0  0  0  0  0  0  0
    2.5950   61.0060   71.0780 C   0  0  0  0  0  0  0  0  0  0  0  0
    3.1720   62.1740   70.3840 C   0  0  0  0  0  0  0  0  0  0  0  0
    4.0190   62.0420   69.5100 O   0  0  0  0  0  0  0  0  0  0  0  0
    2.6910   63.5070   70.7900 C   0  0  0  0  0  0  0  0  0  0  0  0
    1.7580   63.6430   71.7430 C   0  0  0  0  0  0  0  0  0  0  0  0
    1.0940   62.4940   72.4950 C   0  0  2  0  0  0  0  0  0  0  0  0
   -0.4050   62.5420   72.1220 C   0  0  0  0  0  0  0  0  0  0  0  0
    0.6050   63.5540   79.4700 C   0  0  0  0  0  0  0  0  0  0  0  0
   -0.6200   63.5650   79.6540 O   0  0  0  0  0  0  0  0  0  0  0  0
    1.5030   64.5140   80.2320 C   0  0  0  0  0  0  0  0  0  0  0  0
    2.2440   65.3530   79.3660 O   0  0  0  0  0  0  0  0  0  0  0  0
    2.6280   62.8240   78.4710 O   0  0  0  0  0  0  0  0  0  0  0  0
   -0.3920   64.2690   74.4590 O   0  0  0  0  0  0  0  0  0  0  0  0
    1.8750   60.6590   79.2375 H   0  0  0  0  0  0  0  0  0  0  0  0
    0.1149   60.8704   79.2898 H   0  0  0  0  0  0  0  0  0  0  0  0
    1.6244   59.5755   77.2034 H   0  0  0  0  0  0  0  0  0  0  0  0
   -0.0870   59.9816   77.1071 H   0  0  0  0  0  0  0  0  0  0  0  0
    2.3458   61.5391   76.1647 H   0  0  0  0  0  0  0  0  0  0  0  0
   -1.2409   62.8248   78.0270 H   0  0  0  0  0  0  0  0  0  0  0  0
   -1.2281   63.7229   76.4714 H   0  0  0  0  0  0  0  0  0  0  0  0
   -1.2617   61.9269   76.4714 H   0  0  0  0  0  0  0  0  0  0  0  0
    0.7745   64.9197   76.6354 H   0  0  0  0  0  0  0  0  0  0  0  0
    2.3302   64.0026   76.3660 H   0  0  0  0  0  0  0  0  0  0  0  0
    1.6142   64.7234   74.2359 H   0  0  0  0  0  0  0  0  0  0  0  0
    2.4802   62.6180   74.1053 H   0  0  0  0  0  0  0  0  0  0  0  0
   -0.2472   61.3315   74.7590 H   0  0  0  0  0  0  0  0  0  0  0  0
    2.4895   60.0295   74.4282 H   0  0  0  0  0  0  0  0  0  0  0  0
    0.8922   59.2275   74.7650 H   0  0  0  0  0  0  0  0  0  0  0  0
    1.6429   59.0287   72.3838 H   0  0  0  0  0  0  0  0  0  0  0  0
    0.0526   59.8472   72.5990 H   0  0  0  0  0  0  0  0  0  0  0  0
    2.9404   59.9978   70.8055 H   0  0  0  0  0  0  0  0  0  0  0  0
    3.1037   64.4033   70.3038 H   0  0  0  0  0  0  0  0  0  0  0  0
    1.4463   64.6652   72.0036 H   0  0  0  0  0  0  0  0  0  0  0  0
   -1.0108   62.5614   73.0399 H   0  0  0  0  0  0  0  0  0  0  0  0
   -0.6068   63.4471   71.5303 H   0  0  0  0  0  0  0  0  0  0  0  0
   -0.6643   61.6517   71.5303 H   0  0  0  0  0  0  0  0  0  0  0  0
    0.8781   65.1415   80.8845 H   0  0  0  0  0  0  0  0  0  0  0  0
    2.2176   63.9164   80.8170 H   0  0  0  0  0  0  0  0  0  0  0  0
    2.7949   65.9767   79.9023 H   0  0  0  0  0  0  0  0  0  0  0  0
    2.9321   62.8762   79.4117 H   0  0  0  0  0  0  0  0  0  0  0  0
   -0.8676   64.3754   75.3207 H   0  0  0  0  0  0  0  0  0  0  0  0
  2  1  1  0
  3  2  1  0
  4  3  1  0
  5  4  1  0
  5  1  1  0
  5  6  1  1
  7  5  1  0
  8  7  1  0
  9  8  1  0
 10  9  1  0
 10  4  1  0
 11 10  1  0
 12 11  1  0
 13 12  1  0
 14 13  2  0
 15 14  1  0
 16 15  2  0
 17 15  1  0
 18 17  2  0
 19  9  1  0
 19 18  1  0
 19 13  1  0
 19 20  1  1
 21  1  1  0
 22 21  2  0
 23 21  1  0
 24 23  1  0
  1 25  1  6
 26  8  1  0
  2 27  1  0
  2 28  1  0
  3 29  1  0
  3 30  1  0
  4 31  1  6
  6 32  1  0
  6 33  1  0
  6 34  1  0
  7 35  1  0
  7 36  1  0
  8 37  1  6
  9 38  1  6
 10 39  1  1
 11 40  1  0
 11 41  1  0
 12 42  1  0
 12 43  1  0
 14 44  1  0
 17 45  1  0
 18 46  1  0
 20 47  1  0
 20 48  1  0
 20 49  1  0
 23 50  1  0
 23 51  1  0
 24 52  1  0
 25 53  1  0
 26 54  1  0
M  END
>  <score>  (9) 
-6.595

$$$$
