=
     RDKit          3D

 59 62  0  0  0  0  0  0  0  0999 V2000
    0.2990   66.4710   69.7490 C   0  0  0  0  0  0  0  0  0  0  0  0
   -0.7610   66.4320   68.8490 C   0  0  0  0  0  0  0  0  0  0  0  0
   -0.6400   67.0800   67.6220 C   0  0  0  0  0  0  0  0  0  0  0  0
    0.5410   67.7660   67.2950 C   0  0  0  0  0  0  0  0  0  0  0  0
    1.5210   67.9390   68.2830 C   0  0  0  0  0  0  0  0  0  0  0  0
    1.3990   67.2890   69.5090 C   0  0  0  0  0  0  0  0  0  0  0  0
    0.3370   65.7070   70.8790 O   0  0  0  0  0  0  0  0  0  0  0  0
    3.7910   61.5790   72.6820 C   0  0  0  0  0  0  0  0  0  0  0  0
    3.5600   62.3430   71.5310 C   0  0  0  0  0  0  0  0  0  0  0  0
    2.3310   62.9490   71.3770 C   0  0  0  0  0  0  0  0  0  0  0  0
    1.3200   62.8290   72.3120 C   0  0  0  0  0  0  0  0  0  0  0  0
    1.5320   62.0800   73.4620 C   0  0  0  0  0  0  0  0  0  0  0  0
    2.7780   61.4540   73.6660 C   0  0  0  0  0  0  0  0  0  0  0  0
    0.0670   63.5440   71.9070 C   0  0  0  0  0  0  0  0  0  0  0  0
    0.4500   64.3070   70.6110 C   0  0  2  0  0  0  0  0  0  0  0  0
    1.8740   63.7990   70.2900 C   0  0  0  0  0  0  0  0  0  0  0  0
    2.5720   64.0600   69.3150 O   0  0  0  0  0  0  0  0  0  0  0  0
    5.7160   60.8530   71.4460 C   0  0  0  0  0  0  0  0  0  0  0  0
    5.0590   61.0530   72.6920 O   0  0  0  0  0  0  0  0  0  0  0  0
    3.0710   60.7360   74.7940 O   0  0  0  0  0  0  0  0  0  0  0  0
    2.8000   59.3400   74.8060 C   0  0  0  0  0  0  0  0  0  0  0  0
    0.8040   68.1700   65.8710 C   0  0  0  0  0  0  0  0  0  0  0  0
    2.2400   67.8500   65.3920 N   0  0  0  0  0  4  0  0  0  0  0  0
    2.3140   66.5520   64.5890 C   0  0  0  0  0  0  0  0  0  0  0  0
    3.7630   66.2380   64.1350 C   0  0  0  0  0  0  0  0  0  0  0  0
    4.3990   67.4080   63.3980 N   0  0  0  0  0  4  0  0  0  0  0  0
    4.3330   68.7000   64.2040 C   0  0  0  0  0  0  0  0  0  0  0  0
    2.8900   69.0290   64.6500 C   0  0  0  0  0  0  0  0  0  0  0  0
    3.9040   67.5650   61.9730 C   0  0  0  0  0  0  0  0  0  0  0  0
   -1.6862   65.8944   69.1040 H   0  0  0  0  0  0  0  0  0  0  0  0
   -1.4740   67.0543   66.9052 H   0  0  0  0  0  0  0  0  0  0  0  0
    2.3872   68.5888   68.0896 H   0  0  0  0  0  0  0  0  0  0  0  0
    2.1685   67.4217   70.2838 H   0  0  0  0  0  0  0  0  0  0  0  0
    4.3423   62.4571   70.7662 H   0  0  0  0  0  0  0  0  0  0  0  0
    0.7318   61.9759   74.2096 H   0  0  0  0  0  0  0  0  0  0  0  0
   -0.7427   62.8261   71.7095 H   0  0  0  0  0  0  0  0  0  0  0  0
   -0.2999   64.2190   72.6943 H   0  0  0  0  0  0  0  0  0  0  0  0
   -0.1912   64.1361   69.7337 H   0  0  0  0  0  0  0  0  0  0  0  0
    6.7542   60.5370   71.6255 H   0  0  0  0  0  0  0  0  0  0  0  0
    5.1893   60.0745   70.8746 H   0  0  0  0  0  0  0  0  0  0  0  0
    5.7124   61.7929   70.8746 H   0  0  0  0  0  0  0  0  0  0  0  0
    2.7318   58.9887   75.8461 H   0  0  0  0  0  0  0  0  0  0  0  0
    1.8476   59.1469   74.2906 H   0  0  0  0  0  0  0  0  0  0  0  0
    3.6110   58.8046   74.2906 H   0  0  0  0  0  0  0  0  0  0  0  0
    0.0938   67.6373   65.2215 H   0  0  0  0  0  0  0  0  0  0  0  0
    0.6816   69.2619   65.8174 H   0  0  0  0  0  0  0  0  0  0  0  0
    2.7976   67.6982   66.2446 H   0  0  0  0  0  0  0  0  0  0  0  0
    1.9499   65.7244   65.2155 H   0  0  0  0  0  0  0  0  0  0  0  0
    1.6918   66.6702   63.6896 H   0  0  0  0  0  0  0  0  0  0  0  0
    4.3701   66.0057   65.0224 H   0  0  0  0  0  0  0  0  0  0  0  0
    3.7233   65.3836   63.4433 H   0  0  0  0  0  0  0  0  0  0  0  0
    5.3983   67.1765   63.3048 H   0  0  0  0  0  0  0  0  0  0  0  0
    4.9659   68.5943   65.0975 H   0  0  0  0  0  0  0  0  0  0  0  0
    4.6864   69.5203   63.5620 H   0  0  0  0  0  0  0  0  0  0  0  0
    2.9142   69.9015   65.3195 H   0  0  0  0  0  0  0  0  0  0  0  0
    2.2929   69.2382   63.7502 H   0  0  0  0  0  0  0  0  0  0  0  0
    2.8555   67.8975   61.9836 H   0  0  0  0  0  0  0  0  0  0  0  0
    4.5203   68.3118   61.4509 H   0  0  0  0  0  0  0  0  0  0  0  0
    3.9772   66.5995   61.4509 H   0  0  0  0  0  0  0  0  0  0  0  0
  2  1  2  0
  3  2  1  0
  4  3  2  0
  5  4  1  0
  6  5  2  0
  6  1  1  0
  7  1  1  0
  9  8  2  0
 10  9  1  0
 11 10  2  0
 12 11  1  0
 13 12  2  0
 13  8  1  0
 14 11  1  0
 15 14  1  0
 15  7  1  0
 16 15  1  0
 16 10  1  0
 17 16  2  0
 19  8  1  0
 19 18  1  0
 20 13  1  0
 21 20  1  0
 22  4  1  0
 23 22  1  0
 24 23  1  0
 25 24  1  0
 26 25  1  0
 27 26  1  0
 28 27  1  0
 28 23  1  0
 29 26  1  0
  2 30  1  0
  3 31  1  0
  5 32  1  0
  6 33  1  0
  9 34  1  0
 12 35  1  0
 14 36  1  0
 14 37  1  0
 15 38  1  6
 18 39  1  0
 18 40  1  0
 18 41  1  0
 21 42  1  0
 21 43  1  0
 21 44  1  0
 22 45  1  0
 22 46  1  0
 23 47  1  0
 24 48  1  0
 24 49  1  0
 25 50  1  0
 25 51  1  0
 26 52  1  0
 27 53  1  0
 27 54  1  0
 28 55  1  0
 28 56  1  0
 29 57  1  0
 29 58  1  0
 29 59  1  0
M  CHG  2  23   1  26   1
M  END
>  <score>  (1) 
-9.485

$$$$
=
     RDKit          3D

 59 62  0  0  0  0  0  0  0  0999 V2000
   -0.0870   66.4080   69.2100 C   0  0  0  0  0  0  0  0  0  0  0  0
   -0.9300   66.7210   68.1480 C   0  0  0  0  0  0  0  0  0  0  0  0
   -0.4790   67.5760   67.1450 C   0  0  0  0  0  0  0  0  0  0  0  0
    0.8160   68.1160   67.2040 C   0  0  0  0  0  0  0  0  0  0  0  0
    1.5790   67.9280   68.3660 C   0  0  0  0  0  0  0  0  0  0  0  0
    1.1260   67.0720   69.3670 C   0  0  0  0  0  0  0  0  0  0  0  0
   -0.3770   65.4350   70.1210 O   0  0  0  0  0  0  0  0  0  0  0  0
    1.7270   60.6660   72.3690 C   0  0  0  0  0  0  0  0  0  0  0  0
    0.9970   61.7950   72.7640 C   0  0  0  0  0  0  0  0  0  0  0  0
    1.0650   62.9310   71.9860 C   0  0  0  0  0  0  0  0  0  0  0  0
    1.8270   62.9980   70.8340 C   0  0  0  0  0  0  0  0  0  0  0  0
    2.5530   61.8890   70.4230 C   0  0  0  0  0  0  0  0  0  0  0  0
    2.5030   60.7030   71.1820 C   0  0  0  0  0  0  0  0  0  0  0  0
    1.7720   64.3460   70.1810 C   0  0  0  0  0  0  0  0  0  0  0  0
    0.7140   65.1370   70.9960 C   0  0  2  0  0  0  0  0  0  0  0  0
    0.3860   64.2010   72.1810 C   0  0  0  0  0  0  0  0  0  0  0  0
   -0.3470   64.4190   73.1410 O   0  0  0  0  0  0  0  0  0  0  0  0
    0.2340   59.3570   73.7170 C   0  0  0  0  0  0  0  0  0  0  0  0
    1.5480   59.6200   73.2380 O   0  0  0  0  0  0  0  0  0  0  0  0
    3.1580   59.5580   70.8150 O   0  0  0  0  0  0  0  0  0  0  0  0
    3.6070   59.4300   69.4710 C   0  0  0  0  0  0  0  0  0  0  0  0
    1.4190   68.7530   65.9820 C   0  0  0  0  0  0  0  0  0  0  0  0
    2.6820   68.0250   65.4650 N   0  0  0  0  0  4  0  0  0  0  0  0
    2.3460   66.7980   64.6180 C   0  0  0  0  0  0  0  0  0  0  0  0
    3.6240   66.0710   64.1250 C   0  0  0  0  0  0  0  0  0  0  0  0
    4.5830   67.0150   63.4160 N   0  0  0  0  0  4  0  0  0  0  0  0
    4.9260   68.2330   64.2650 C   0  0  0  0  0  0  0  0  0  0  0  0
    3.6580   68.9730   64.7500 C   0  0  0  0  0  0  0  0  0  0  0  0
    4.1490   67.3710   62.0070 C   0  0  0  0  0  0  0  0  0  0  0  0
   -1.9439   66.2969   68.1010 H   0  0  0  0  0  0  0  0  0  0  0  0
   -1.1401   67.8293   66.3031 H   0  0  0  0  0  0  0  0  0  0  0  0
    2.5358   68.4570   68.4867 H   0  0  0  0  0  0  0  0  0  0  0  0
    1.7244   66.9214   70.2777 H   0  0  0  0  0  0  0  0  0  0  0  0
    0.3824   61.7752   73.6761 H   0  0  0  0  0  0  0  0  0  0  0  0
    3.1642   61.9356   69.5096 H   0  0  0  0  0  0  0  0  0  0  0  0
    2.7522   64.8424   70.2333 H   0  0  0  0  0  0  0  0  0  0  0  0
    1.5115   64.2809   69.1143 H   0  0  0  0  0  0  0  0  0  0  0  0
    1.0298   66.1126   71.3942 H   0  0  0  0  0  0  0  0  0  0  0  0
    0.2377   59.3577   74.8170 H   0  0  0  0  0  0  0  0  0  0  0  0
   -0.4520   60.1357   73.3521 H   0  0  0  0  0  0  0  0  0  0  0  0
   -0.0994   58.3743   73.3521 H   0  0  0  0  0  0  0  0  0  0  0  0
    4.6648   59.1284   69.4650 H   0  0  0  0  0  0  0  0  0  0  0  0
    3.0054   58.6676   68.9545 H   0  0  0  0  0  0  0  0  0  0  0  0
    3.4979   60.3950   68.9545 H   0  0  0  0  0  0  0  0  0  0  0  0
    0.6648   68.7525   65.1813 H   0  0  0  0  0  0  0  0  0  0  0  0
    1.7260   69.7704   66.2661 H   0  0  0  0  0  0  0  0  0  0  0  0
    3.1722   67.6775   66.3016 H   0  0  0  0  0  0  0  0  0  0  0  0
    1.7503   66.0994   65.2239 H   0  0  0  0  0  0  0  0  0  0  0  0
    1.7827   67.1356   63.7355 H   0  0  0  0  0  0  0  0  0  0  0  0
    4.1373   65.6294   64.9919 H   0  0  0  0  0  0  0  0  0  0  0  0
    3.3170   65.2975   63.4056 H   0  0  0  0  0  0  0  0  0  0  0  0
    5.4611   66.4901   63.2963 H   0  0  0  0  0  0  0  0  0  0  0  0
    5.5032   67.9043   65.1418 H   0  0  0  0  0  0  0  0  0  0  0  0
    5.5099   68.9281   63.6439 H   0  0  0  0  0  0  0  0  0  0  0  0
    3.9557   69.7698   65.4475 H   0  0  0  0  0  0  0  0  0  0  0  0
    3.1470   69.3890   63.8692 H   0  0  0  0  0  0  0  0  0  0  0  0
    3.2992   68.0681   62.0502 H   0  0  0  0  0  0  0  0  0  0  0  0
    4.9861   67.8460   61.4745 H   0  0  0  0  0  0  0  0  0  0  0  0
    3.8469   66.4571   61.4745 H   0  0  0  0  0  0  0  0  0  0  0  0
  2  1  2  0
  3  2  1  0
  4  3  2  0
  5  4  1  0
  6  5  2  0
  6  1  1  0
  7  1  1  0
  9  8  2  0
 10  9  1  0
 11 10  2  0
 12 11  1  0
 13 12  2  0
 13  8  1  0
 14 11  1  0
 15 14  1  0
 15  7  1  0
 16 15  1  0
 16 10  1  0
 17 16  2  0
 19  8  1  0
 19 18  1  0
 20 13  1  0
 21 20  1  0
 22  4  1  0
 23 22  1  0
 24 23  1  0
 25 24  1  0
 26 25  1  0
 27 26  1  0
 28 27  1  0
 28 23  1  0
 29 26  1  0
  2 30  1  0
  3 31  1  0
  5 32  1  0
  6 33  1  0
  9 34  1  0
 12 35  1  0
 14 36  1  0
 14 37  1  0
 15 38  1  1
 18 39  1  0
 18 40  1  0
 18 41  1  0
 21 42  1  0
 21 43  1  0
 21 44  1  0
 22 45  1  0
 22 46  1  0
 23 47  1  0
 24 48  1  0
 24 49  1  0
 25 50  1  0
 25 51  1  0
 26 52  1  0
 27 53  1  0
 27 54  1  0
 28 55  1  0
 28 56  1  0
 29 57  1  0
 29 58  1  0
 29 59  1  0
M  CHG  2  23   1  26   1
M  END
>  <score>  (2) 
-8.872

$$$$
=
     RDKit          3D

 59 62  0  0  0  0  0  0  0  0999 V2000
    1.2360   62.6690   71.2670 C   0  0  0  0  0  0  0  0  0  0  0  0
    0.2570   63.5400   71.7350 C   0  0  0  0  0  0  0  0  0  0  0  0
    0.3110   64.8850   71.3800 C   0  0  0  0  0  0  0  0  0  0  0  0
    1.3450   65.3600   70.5560 C   0  0  0  0  0  0  0  0  0  0  0  0
    2.4120   64.5050   70.2440 C   0  0  0  0  0  0  0  0  0  0  0  0
    2.3540   63.1590   70.5990 C   0  0  0  0  0  0  0  0  0  0  0  0
    1.1480   61.3150   71.4050 O   0  0  0  0  0  0  0  0  0  0  0  0
   -0.3380   56.5500   74.1090 C   0  0  0  0  0  0  0  0  0  0  0  0
   -0.7810   57.8720   73.9650 C   0  0  0  0  0  0  0  0  0  0  0  0
    0.1210   58.8270   73.5470 C   0  0  0  0  0  0  0  0  0  0  0  0
    1.4430   58.5310   73.2680 C   0  0  0  0  0  0  0  0  0  0  0  0
    1.8980   57.2260   73.4000 C   0  0  0  0  0  0  0  0  0  0  0  0
    1.0080   56.2160   73.8120 C   0  0  0  0  0  0  0  0  0  0  0  0
    2.2350   59.7390   72.8690 C   0  0  0  0  0  0  0  0  0  0  0  0
    1.1900   60.8820   72.7670 C   0  0  2  0  0  0  0  0  0  0  0  0
   -0.1100   60.2420   73.3070 C   0  0  0  0  0  0  0  0  0  0  0  0
   -1.1990   60.7760   73.4920 O   0  0  0  0  0  0  0  0  0  0  0  0
   -1.4400   55.3980   75.9030 C   0  0  0  0  0  0  0  0  0  0  0  0
   -1.3520   55.7210   74.5200 O   0  0  0  0  0  0  0  0  0  0  0  0
    1.3760   54.9020   73.9220 O   0  0  0  0  0  0  0  0  0  0  0  0
    2.1510   54.5010   75.0450 C   0  0  0  0  0  0  0  0  0  0  0  0
    1.2250   66.7100   69.9050 C   0  0  0  0  0  0  0  0  0  0  0  0
    0.5550   66.6670   68.5120 N   0  0  0  0  0  4  0  0  0  0  0  0
   -0.9610   66.8530   68.5850 C   0  0  0  0  0  0  0  0  0  0  0  0
   -1.6170   66.7870   67.1810 C   0  0  0  0  0  0  0  0  0  0  0  0
   -0.9660   67.7500   66.1990 N   0  0  0  0  0  4  0  0  0  0  0  0
    0.5430   67.5570   66.1190 C   0  0  0  0  0  0  0  0  0  0  0  0
    1.2090   67.6350   67.5120 C   0  0  0  0  0  0  0  0  0  0  0  0
   -1.3750   69.1950   66.4080 C   0  0  0  0  0  0  0  0  0  0  0  0
   -0.5529   63.1688   72.3802 H   0  0  0  0  0  0  0  0  0  0  0  0
   -0.4596   65.5792   71.7464 H   0  0  0  0  0  0  0  0  0  0  0  0
    3.2952   64.8973   69.7187 H   0  0  0  0  0  0  0  0  0  0  0  0
    3.1887   62.4864   70.3522 H   0  0  0  0  0  0  0  0  0  0  0  0
   -1.8254   58.1415   74.1808 H   0  0  0  0  0  0  0  0  0  0  0  0
    2.9487   56.9824   73.1837 H   0  0  0  0  0  0  0  0  0  0  0  0
    2.9933   59.9740   73.6304 H   0  0  0  0  0  0  0  0  0  0  0  0
    2.7773   59.5866   71.9242 H   0  0  0  0  0  0  0  0  0  0  0  0
    1.4016   61.7935   73.3453 H   0  0  0  0  0  0  0  0  0  0  0  0
   -1.1977   56.2873   76.5034 H   0  0  0  0  0  0  0  0  0  0  0  0
   -2.4617   55.0646   76.1374 H   0  0  0  0  0  0  0  0  0  0  0  0
   -0.7286   54.5924   76.1374 H   0  0  0  0  0  0  0  0  0  0  0  0
    1.6235   54.7740   75.9709 H   0  0  0  0  0  0  0  0  0  0  0  0
    2.3017   53.4118   75.0164 H   0  0  0  0  0  0  0  0  0  0  0  0
    3.1272   55.0071   75.0164 H   0  0  0  0  0  0  0  0  0  0  0  0
    0.6256   67.3599   70.5595 H   0  0  0  0  0  0  0  0  0  0  0  0
    2.2468   67.0909   69.7604 H   0  0  0  0  0  0  0  0  0  0  0  0
    0.7170   65.7171   68.1482 H   0  0  0  0  0  0  0  0  0  0  0  0
   -1.3874   66.0585   69.2151 H   0  0  0  0  0  0  0  0  0  0  0  0
   -1.1637   67.8467   69.0111 H   0  0  0  0  0  0  0  0  0  0  0  0
   -1.5188   65.7630   66.7914 H   0  0  0  0  0  0  0  0  0  0  0  0
   -2.6735   67.0742   67.2870 H   0  0  0  0  0  0  0  0  0  0  0  0
   -1.3383   67.5042   65.2706 H   0  0  0  0  0  0  0  0  0  0  0  0
    0.7525   66.5707   65.6794 H   0  0  0  0  0  0  0  0  0  0  0  0
    0.9574   68.3644   65.4974 H   0  0  0  0  0  0  0  0  0  0  0  0
    2.2740   67.3784   67.4125 H   0  0  0  0  0  0  0  0  0  0  0  0
    1.0833   68.6587   67.8945 H   0  0  0  0  0  0  0  0  0  0  0  0
   -1.4350   69.4069   67.4857 H   0  0  0  0  0  0  0  0  0  0  0  0
   -0.6292   69.8578   65.9449 H   0  0  0  0  0  0  0  0  0  0  0  0
   -2.3576   69.3686   65.9449 H   0  0  0  0  0  0  0  0  0  0  0  0
  2  1  2  0
  3  2  1  0
  4  3  2  0
  5  4  1  0
  6  5  2  0
  6  1  1  0
  7  1  1  0
  9  8  2  0
 10  9  1  0
 11 10  2  0
 12 11  1  0
 13 12  2  0
 13  8  1  0
 14 11  1  0
 15 14  1  0
 15  7  1  0
 16 15  1  0
 16 10  1  0
 17 16  2  0
 19  8  1  0
 19 18  1  0
 20 13  1  0
 21 20  1  0
 22  4  1  0
 23 22  1  0
 24 23  1  0
 25 24  1  0
 26 25  1  0
 27 26  1  0
 28 27  1  0
 28 23  1  0
 29 26  1  0
  2 30  1  0
  3 31  1  0
  5 32  1  0
  6 33  1  0
  9 34  1  0
 12 35  1  0
 14 36  1  0
 14 37  1  0
 15 38  1  1
 18 39  1  0
 18 40  1  0
 18 41  1  0
 21 42  1  0
 21 43  1  0
 21 44  1  0
 22 45  1  0
 22 46  1  0
 23 47  1  0
 24 48  1  0
 24 49  1  0
 25 50  1  0
 25 51  1  0
 26 52  1  0
 27 53  1  0
 27 54  1  0
 28 55  1  0
 28 56  1  0
 29 57  1  0
 29 58  1  0
 29 59  1  0
M  CHG  2  23   1  26   1
M  END
>  <score>  (3) 
-8.772

$$$$
=
     RDKit          3D

 59 62  0  0  0  0  0  0  0  0999 V2000
    0.4050   67.3220   68.6120 C   0  0  0  0  0  0  0  0  0  0  0  0
    1.5760   67.2530   69.3590 C   0  0  0  0  0  0  0  0  0  0  0  0
    1.7280   66.2360   70.2990 C   0  0  0  0  0  0  0  0  0  0  0  0
    0.7100   65.2880   70.4890 C   0  0  0  0  0  0  0  0  0  0  0  0
   -0.5260   65.4810   69.8540 C   0  0  0  0  0  0  0  0  0  0  0  0
   -0.6750   66.4980   68.9140 C   0  0  0  0  0  0  0  0  0  0  0  0
    0.2570   68.1600   67.5450 O   0  0  0  0  0  0  0  0  0  0  0  0
    1.2530   69.2930   62.0720 C   0  0  0  0  0  0  0  0  0  0  0  0
    0.1770   69.2410   62.9670 C   0  0  0  0  0  0  0  0  0  0  0  0
    0.3150   68.5010   64.1230 C   0  0  0  0  0  0  0  0  0  0  0  0
    1.4710   67.8080   64.4290 C   0  0  0  0  0  0  0  0  0  0  0  0
    2.5510   67.8520   63.5570 C   0  0  0  0  0  0  0  0  0  0  0  0
    2.4580   68.6060   62.3700 C   0  0  0  0  0  0  0  0  0  0  0  0
    1.3690   67.0490   65.7170 C   0  0  0  0  0  0  0  0  0  0  0  0
    0.0020   67.4730   66.3170 C   0  0  2  0  0  0  0  0  0  0  0  0
   -0.6460   68.3200   65.1980 C   0  0  0  0  0  0  0  0  0  0  0  0
   -1.7680   68.8170   65.1750 O   0  0  0  0  0  0  0  0  0  0  0  0
   -0.3440   70.0010   60.4260 C   0  0  0  0  0  0  0  0  0  0  0  0
    0.9640   70.0730   60.9810 O   0  0  0  0  0  0  0  0  0  0  0  0
    3.4960   68.7290   61.4870 O   0  0  0  0  0  0  0  0  0  0  0  0
    4.8240   68.7750   61.9940 C   0  0  0  0  0  0  0  0  0  0  0  0
    0.9980   64.0170   71.2400 C   0  0  0  0  0  0  0  0  0  0  0  0
    2.3660   63.3870   70.8860 N   0  0  0  0  0  4  0  0  0  0  0  0
    2.8940   62.4730   71.9920 C   0  0  0  0  0  0  0  0  0  0  0  0
    4.2730   61.8660   71.6280 C   0  0  0  0  0  0  0  0  0  0  0  0
    4.2560   61.1770   70.2720 N   0  0  0  0  0  4  0  0  0  0  0  0
    3.7390   62.0910   69.1680 C   0  0  0  0  0  0  0  0  0  0  0  0
    2.3570   62.6900   69.5150 C   0  0  0  0  0  0  0  0  0  0  0  0
    3.5780   59.8200   70.2920 C   0  0  0  0  0  0  0  0  0  0  0  0
    2.3747   67.9944   69.2091 H   0  0  0  0  0  0  0  0  0  0  0  0
    2.6503   66.1755   70.8954 H   0  0  0  0  0  0  0  0  0  0  0  0
   -1.3776   64.8291   70.0985 H   0  0  0  0  0  0  0  0  0  0  0  0
   -1.6423   66.6492   68.4125 H   0  0  0  0  0  0  0  0  0  0  0  0
   -0.7583   69.7788   62.7527 H   0  0  0  0  0  0  0  0  0  0  0  0
    3.4739   67.3014   63.7915 H   0  0  0  0  0  0  0  0  0  0  0  0
    1.3917   65.9650   65.5313 H   0  0  0  0  0  0  0  0  0  0  0  0
    2.2068   67.2666   66.3957 H   0  0  0  0  0  0  0  0  0  0  0  0
   -0.6872   66.6597   66.5882 H   0  0  0  0  0  0  0  0  0  0  0  0
   -1.0851   69.9602   61.2379 H   0  0  0  0  0  0  0  0  0  0  0  0
   -0.5285   70.8903   59.8055 H   0  0  0  0  0  0  0  0  0  0  0  0
   -0.4298   69.0968   59.8055 H   0  0  0  0  0  0  0  0  0  0  0  0
    4.7969   68.7741   63.0937 H   0  0  0  0  0  0  0  0  0  0  0  0
    5.3822   67.8957   61.6402 H   0  0  0  0  0  0  0  0  0  0  0  0
    5.3200   69.6909   61.6402 H   0  0  0  0  0  0  0  0  0  0  0  0
    0.9852   64.2387   72.3173 H   0  0  0  0  0  0  0  0  0  0  0  0
    0.2235   63.2900   70.9543 H   0  0  0  0  0  0  0  0  0  0  0  0
    3.0296   64.1713   70.8119 H   0  0  0  0  0  0  0  0  0  0  0  0
    2.9955   63.0572   72.9185 H   0  0  0  0  0  0  0  0  0  0  0  0
    2.1802   61.6462   72.1221 H   0  0  0  0  0  0  0  0  0  0  0  0
    5.0208   62.6724   71.6065 H   0  0  0  0  0  0  0  0  0  0  0  0
    4.5215   61.1107   72.3882 H   0  0  0  0  0  0  0  0  0  0  0  0
    5.2400   60.9760   70.0434 H   0  0  0  0  0  0  0  0  0  0  0  0
    4.4559   62.9124   69.0216 H   0  0  0  0  0  0  0  0  0  0  0  0
    3.6302   61.4913   68.2523 H   0  0  0  0  0  0  0  0  0  0  0  0
    2.0833   63.4248   68.7435 H   0  0  0  0  0  0  0  0  0  0  0  0
    1.6273   61.8678   69.5536 H   0  0  0  0  0  0  0  0  0  0  0  0
    3.4202   59.5043   71.3338 H   0  0  0  0  0  0  0  0  0  0  0  0
    2.6076   59.8873   69.7783 H   0  0  0  0  0  0  0  0  0  0  0  0
    4.2145   59.0845   69.7783 H   0  0  0  0  0  0  0  0  0  0  0  0
  2  1  2  0
  3  2  1  0
  4  3  2  0
  5  4  1  0
  6  5  2  0
  6  1  1  0
  7  1  1  0
  9  8  2  0
 10  9  1  0
 11 10  2  0
 12 11  1  0
 13 12  2  0
 13  8  1  0
 14 11  1  0
 15 14  1  0
 15  7  1  0
 16 15  1  0
 16 10  1  0
 17 16  2  0
 19  8  1  0
 19 18  1  0
 20 13  1  0
 21 20  1  0
 22  4  1  0
 23 22  1  0
 24 23  1  0
 25 24  1  0
 26 25  1  0
 27 26  1  0
 28 27  1  0
 28 23  1  0
 29 26  1  0
  2 30  1  0
  3 31  1  0
  5 32  1  0
  6 33  1  0
  9 34  1  0
 12 35  1  0
 14 36  1  0
 14 37  1  0
 15 38  1  1
 18 39  1  0
 18 40  1  0
 18 41  1  0
 21 42  1  0
 21 43  1  0
 21 44  1  0
 22 45  1  0
 22 46  1  0
 23 47  1  0
 24 48  1  0
 24 49  1  0
 25 50  1  0
 25 51  1  0
 26 52  1  0
 27 53  1  0
 27 54  1  0
 28 55  1  0
 28 56  1  0
 29 57  1  0
 29 58  1  0
 29 59  1  0
M  CHG  2  23   1  26   1
M  END
>  <score>  (4) 
-8.67

$$$$
=
     RDKit          3D

 59 62  0  0  0  0  0  0  0  0999 V2000
    0.1270   68.0370   67.8090 C   0  0  0  0  0  0  0  0  0  0  0  0
    1.3190   68.0370   68.5280 C   0  0  0  0  0  0  0  0  0  0  0  0
    1.5120   67.0910   69.5320 C   0  0  0  0  0  0  0  0  0  0  0  0
    0.5130   66.1450   69.8150 C   0  0  0  0  0  0  0  0  0  0  0  0
   -0.7410   66.2760   69.2020 C   0  0  0  0  0  0  0  0  0  0  0  0
   -0.9310   67.2220   68.1980 C   0  0  0  0  0  0  0  0  0  0  0  0
   -0.0610   68.7960   66.6910 O   0  0  0  0  0  0  0  0  0  0  0  0
    3.9850   67.1200   63.0790 C   0  0  0  0  0  0  0  0  0  0  0  0
    2.9310   68.0410   63.1400 C   0  0  0  0  0  0  0  0  0  0  0  0
    1.9180   67.8250   64.0510 C   0  0  0  0  0  0  0  0  0  0  0  0
    1.9020   66.7350   64.9010 C   0  0  0  0  0  0  0  0  0  0  0  0
    2.9400   65.8140   64.8580 C   0  0  0  0  0  0  0  0  0  0  0  0
    4.0020   66.0020   63.9520 C   0  0  0  0  0  0  0  0  0  0  0  0
    0.6830   66.6960   65.7710 C   0  0  0  0  0  0  0  0  0  0  0  0
   -0.0510   68.0330   65.4820 C   0  0  2  0  0  0  0  0  0  0  0  0
    0.7470   68.6460   64.3090 C   0  0  0  0  0  0  0  0  0  0  0  0
    0.5060   69.6720   63.6800 O   0  0  0  0  0  0  0  0  0  0  0  0
    5.7990   68.5510   62.4310 C   0  0  0  0  0  0  0  0  0  0  0  0
    4.9130   67.4780   62.1340 O   0  0  0  0  0  0  0  0  0  0  0  0
    5.0780   65.1590   63.8850 O   0  0  0  0  0  0  0  0  0  0  0  0
    4.8530   63.7560   63.9490 C   0  0  0  0  0  0  0  0  0  0  0  0
    0.8420   64.9340   70.6450 C   0  0  0  0  0  0  0  0  0  0  0  0
    1.9500   64.0470   70.0330 N   0  0  0  0  0  4  0  0  0  0  0  0
    3.2810   64.1770   70.7740 C   0  0  0  0  0  0  0  0  0  0  0  0
    4.3850   63.2960   70.1340 C   0  0  0  0  0  0  0  0  0  0  0  0
    3.9480   61.8460   69.9880 N   0  0  0  0  0  4  0  0  0  0  0  0
    2.6260   61.7160   69.2400 C   0  0  0  0  0  0  0  0  0  0  0  0
    1.5150   62.5810   69.8790 C   0  0  0  0  0  0  0  0  0  0  0  0
    3.9760   61.0720   71.2920 C   0  0  0  0  0  0  0  0  0  0  0  0
    2.1014   68.7774   68.3053 H   0  0  0  0  0  0  0  0  0  0  0  0
    2.4506   67.0847   70.1056 H   0  0  0  0  0  0  0  0  0  0  0  0
   -1.5755   65.6310   69.5144 H   0  0  0  0  0  0  0  0  0  0  0  0
   -1.9137   67.3244   67.7145 H   0  0  0  0  0  0  0  0  0  0  0  0
    2.9117   68.9175   62.4757 H   0  0  0  0  0  0  0  0  0  0  0  0
    2.9331   64.9418   65.5282 H   0  0  0  0  0  0  0  0  0  0  0  0
    0.0458   65.8389   65.5076 H   0  0  0  0  0  0  0  0  0  0  0  0
    0.9352   66.5816   66.8356 H   0  0  0  0  0  0  0  0  0  0  0  0
   -1.1084   67.9586   65.1883 H   0  0  0  0  0  0  0  0  0  0  0  0
    5.8895   68.6606   63.5218 H   0  0  0  0  0  0  0  0  0  0  0  0
    6.7888   68.3391   62.0004 H   0  0  0  0  0  0  0  0  0  0  0  0
    5.4037   69.4828   62.0004 H   0  0  0  0  0  0  0  0  0  0  0  0
    4.8024   63.4404   65.0015 H   0  0  0  0  0  0  0  0  0  0  0  0
    3.9045   63.5135   63.4475 H   0  0  0  0  0  0  0  0  0  0  0  0
    5.6781   63.2291   63.4475 H   0  0  0  0  0  0  0  0  0  0  0  0
    1.1757   65.2725   71.6370 H   0  0  0  0  0  0  0  0  0  0  0  0
   -0.0699   64.3211   70.6971 H   0  0  0  0  0  0  0  0  0  0  0  0
    2.1078   64.4068   69.0809 H   0  0  0  0  0  0  0  0  0  0  0  0
    3.6033   65.2283   70.7453 H   0  0  0  0  0  0  0  0  0  0  0  0
    3.1304   63.8377   71.8095 H   0  0  0  0  0  0  0  0  0  0  0  0
    4.6248   63.6961   69.1378 H   0  0  0  0  0  0  0  0  0  0  0  0
    5.2632   63.3198   70.7960 H   0  0  0  0  0  0  0  0  0  0  0  0
    4.6602   61.3926   69.3980 H   0  0  0  0  0  0  0  0  0  0  0  0
    2.7733   62.0385   68.1987 H   0  0  0  0  0  0  0  0  0  0  0  0
    2.3090   60.6638   69.2879 H   0  0  0  0  0  0  0  0  0  0  0  0
    0.6205   62.5404   69.2401 H   0  0  0  0  0  0  0  0  0  0  0  0
    1.3038   62.1801   70.8813 H   0  0  0  0  0  0  0  0  0  0  0  0
    3.9505   61.7760   72.1369 H   0  0  0  0  0  0  0  0  0  0  0  0
    3.1013   60.4069   71.3425 H   0  0  0  0  0  0  0  0  0  0  0  0
    4.8964   60.4718   71.3425 H   0  0  0  0  0  0  0  0  0  0  0  0
  2  1  2  0
  3  2  1  0
  4  3  2  0
  5  4  1  0
  6  5  2  0
  6  1  1  0
  7  1  1  0
  9  8  2  0
 10  9  1  0
 11 10  2  0
 12 11  1  0
 13 12  2  0
 13  8  1  0
 14 11  1  0
 15 14  1  0
 15  7  1  0
 16 15  1  0
 16 10  1  0
 17 16  2  0
 19  8  1  0
 19 18  1  0
 20 13  1  0
 21 20  1  0
 22  4  1  0
 23 22  1  0
 24 23  1  0
 25 24  1  0
 26 25  1  0
 27 26  1  0
 28 27  1  0
 28 23  1  0
 29 26  1  0
  2 30  1  0
  3 31  1  0
  5 32  1  0
  6 33  1  0
  9 34  1  0
 12 35  1  0
 14 36  1  0
 14 37  1  0
 15 38  1  6
 18 39  1  0
 18 40  1  0
 18 41  1  0
 21 42  1  0
 21 43  1  0
 21 44  1  0
 22 45  1  0
 22 46  1  0
 23 47  1  0
 24 48  1  0
 24 49  1  0
 25 50  1  0
 25 51  1  0
 26 52  1  0
 27 53  1  0
 27 54  1  0
 28 55  1  0
 28 56  1  0
 29 57  1  0
 29 58  1  0
 29 59  1  0
M  CHG  2  23   1  26   1
M  END
>  <score>  (5) 
-8.585

$$$$
=
     RDKit          3D

 59 62  0  0  0  0  0  0  0  0999 V2000
    1.8620   63.0410   72.0280 C   0  0  0  0  0  0  0  0  0  0  0  0
    2.6600   63.3200   70.9220 C   0  0  0  0  0  0  0  0  0  0  0  0
    2.3860   64.4450   70.1480 C   0  0  0  0  0  0  0  0  0  0  0  0
    1.3150   65.2910   70.4800 C   0  0  0  0  0  0  0  0  0  0  0  0
    0.4230   64.8950   71.4880 C   0  0  0  0  0  0  0  0  0  0  0  0
    0.7010   63.7710   72.2620 C   0  0  0  0  0  0  0  0  0  0  0  0
    2.1790   62.0800   72.9430 O   0  0  0  0  0  0  0  0  0  0  0  0
    1.4010   56.9400   75.2230 C   0  0  0  0  0  0  0  0  0  0  0  0
    2.4260   57.7030   74.6470 C   0  0  0  0  0  0  0  0  0  0  0  0
    2.0820   58.7580   73.8290 C   0  0  0  0  0  0  0  0  0  0  0  0
    0.7690   59.0900   73.5540 C   0  0  0  0  0  0  0  0  0  0  0  0
   -0.2610   58.3490   74.1200 C   0  0  0  0  0  0  0  0  0  0  0  0
    0.0450   57.2690   74.9720 C   0  0  0  0  0  0  0  0  0  0  0  0
    0.6480   60.2480   72.6120 C   0  0  0  0  0  0  0  0  0  0  0  0
    2.1030   60.7520   72.4170 C   0  0  2  0  0  0  0  0  0  0  0  0
    2.9610   59.6940   73.1470 C   0  0  0  0  0  0  0  0  0  0  0  0
    4.1840   59.6190   73.2080 O   0  0  0  0  0  0  0  0  0  0  0  0
    2.1090   54.6560   75.4320 C   0  0  0  0  0  0  0  0  0  0  0  0
    1.9030   55.9380   76.0150 O   0  0  0  0  0  0  0  0  0  0  0  0
   -0.9170   56.5230   75.5980 O   0  0  0  0  0  0  0  0  0  0  0  0
   -1.4610   55.3990   74.9170 C   0  0  0  0  0  0  0  0  0  0  0  0
    1.2220   66.6610   69.8660 C   0  0  0  0  0  0  0  0  0  0  0  0
    0.5380   66.6710   68.4790 N   0  0  0  0  0  4  0  0  0  0  0  0
   -0.9760   66.8640   68.5740 C   0  0  0  0  0  0  0  0  0  0  0  0
   -1.6460   66.8520   67.1750 C   0  0  0  0  0  0  0  0  0  0  0  0
   -0.9990   67.8450   66.2210 N   0  0  0  0  0  4  0  0  0  0  0  0
    0.5090   67.6460   66.1200 C   0  0  0  0  0  0  0  0  0  0  0  0
    1.1890   67.6700   67.5080 C   0  0  0  0  0  0  0  0  0  0  0  0
   -1.3960   69.2840   66.4860 C   0  0  0  0  0  0  0  0  0  0  0  0
    3.4992   62.6581   70.6618 H   0  0  0  0  0  0  0  0  0  0  0  0
    3.0116   64.6722   69.2722 H   0  0  0  0  0  0  0  0  0  0  0  0
   -0.4960   65.4724   71.6670 H   0  0  0  0  0  0  0  0  0  0  0  0
    0.0050   63.4615   73.0556 H   0  0  0  0  0  0  0  0  0  0  0  0
    3.4819   57.4652   74.8434 H   0  0  0  0  0  0  0  0  0  0  0  0
   -1.3091   58.6038   73.9044 H   0  0  0  0  0  0  0  0  0  0  0  0
    0.2179   59.9242   71.6527 H   0  0  0  0  0  0  0  0  0  0  0  0
   -0.0156   61.0338   73.0021 H   0  0  0  0  0  0  0  0  0  0  0  0
    2.4567   60.8389   71.3791 H   0  0  0  0  0  0  0  0  0  0  0  0
    2.2295   53.9063   76.2279 H   0  0  0  0  0  0  0  0  0  0  0  0
    1.2416   54.3930   74.8088 H   0  0  0  0  0  0  0  0  0  0  0  0
    3.0151   54.6779   74.8088 H   0  0  0  0  0  0  0  0  0  0  0  0
   -1.8176   54.6623   75.6519 H   0  0  0  0  0  0  0  0  0  0  0  0
   -2.3015   55.7240   74.2862 H   0  0  0  0  0  0  0  0  0  0  0  0
   -0.6846   54.9414   74.2862 H   0  0  0  0  0  0  0  0  0  0  0  0
    0.6448   67.3075   70.5434 H   0  0  0  0  0  0  0  0  0  0  0  0
    2.2513   67.0210   69.7214 H   0  0  0  0  0  0  0  0  0  0  0  0
    0.6896   65.7336   68.0800 H   0  0  0  0  0  0  0  0  0  0  0  0
   -1.4015   66.0504   69.1798 H   0  0  0  0  0  0  0  0  0  0  0  0
   -1.1680   67.8431   69.0372 H   0  0  0  0  0  0  0  0  0  0  0  0
   -1.5582   65.8419   66.7485 H   0  0  0  0  0  0  0  0  0  0  0  0
   -2.6995   67.1420   67.3019 H   0  0  0  0  0  0  0  0  0  0  0  0
   -1.3821   67.6346   65.2883 H   0  0  0  0  0  0  0  0  0  0  0  0
    0.7082   66.6748   65.6434 H   0  0  0  0  0  0  0  0  0  0  0  0
    0.9223   68.4731   65.5241 H   0  0  0  0  0  0  0  0  0  0  0  0
    2.2512   67.4103   67.3888 H   0  0  0  0  0  0  0  0  0  0  0  0
    1.0742   68.6801   67.9281 H   0  0  0  0  0  0  0  0  0  0  0  0
   -1.4438   69.4573   67.5712 H   0  0  0  0  0  0  0  0  0  0  0  0
   -0.6503   69.9583   66.0395 H   0  0  0  0  0  0  0  0  0  0  0  0
   -2.3819   69.4805   66.0395 H   0  0  0  0  0  0  0  0  0  0  0  0
  2  1  2  0
  3  2  1  0
  4  3  2  0
  5  4  1  0
  6  5  2  0
  6  1  1  0
  7  1  1  0
  9  8  2  0
 10  9  1  0
 11 10  2  0
 12 11  1  0
 13 12  2  0
 13  8  1  0
 14 11  1  0
 15 14  1  0
 15  7  1  0
 16 15  1  0
 16 10  1  0
 17 16  2  0
 19  8  1  0
 19 18  1  0
 20 13  1  0
 21 20  1  0
 22  4  1  0
 23 22  1  0
 24 23  1  0
 25 24  1  0
 26 25  1  0
 27 26  1  0
 28 27  1  0
 28 23  1  0
 29 26  1  0
  2 30  1  0
  3 31  1  0
  5 32  1  0
  6 33  1  0
  9 34  1  0
 12 35  1  0
 14 36  1  0
 14 37  1  0
 15 38  1  6
 18 39  1  0
 18 40  1  0
 18 41  1  0
 21 42  1  0
 21 43  1  0
 21 44  1  0
 22 45  1  0
 22 46  1  0
 23 47  1  0
 24 48  1  0
 24 49  1  0
 25 50  1  0
 25 51  1  0
 26 52  1  0
 27 53  1  0
 27 54  1  0
 28 55  1  0
 28 56  1  0
 29 57  1  0
 29 58  1  0
 29 59  1  0
M  CHG  2  23   1  26   1
M  END
>  <score>  (6) 
-8.53

$$$$
=
     RDKit          3D

 59 62  0  0  0  0  0  0  0  0999 V2000
    1.3710   66.2920   70.0550 C   0  0  0  0  0  0  0  0  0  0  0  0
    0.1360   66.0410   70.6430 C   0  0  0  0  0  0  0  0  0  0  0  0
   -0.1040   64.7990   71.2260 C   0  0  0  0  0  0  0  0  0  0  0  0
    0.8930   63.8090   71.2220 C   0  0  0  0  0  0  0  0  0  0  0  0
    2.0590   64.0220   70.4730 C   0  0  0  0  0  0  0  0  0  0  0  0
    2.2970   65.2650   69.8920 C   0  0  0  0  0  0  0  0  0  0  0  0
    1.7530   67.5340   69.6390 O   0  0  0  0  0  0  0  0  0  0  0  0
    3.4950   68.5940   64.3410 C   0  0  0  0  0  0  0  0  0  0  0  0
    3.0560   69.2910   65.4750 C   0  0  0  0  0  0  0  0  0  0  0  0
    2.3200   68.6130   66.4230 C   0  0  0  0  0  0  0  0  0  0  0  0
    1.9960   67.2750   66.2960 C   0  0  0  0  0  0  0  0  0  0  0  0
    2.4260   66.5660   65.1820 C   0  0  0  0  0  0  0  0  0  0  0  0
    3.1920   67.2170   64.1940 C   0  0  0  0  0  0  0  0  0  0  0  0
    1.1590   66.7700   67.4320 C   0  0  0  0  0  0  0  0  0  0  0  0
    1.1030   67.9520   68.4360 C   0  0  2  0  0  0  0  0  0  0  0  0
    1.7820   69.1140   67.6770 C   0  0  0  0  0  0  0  0  0  0  0  0
    1.9120   70.2810   68.0330 O   0  0  0  0  0  0  0  0  0  0  0  0
    5.5910   69.0940   63.2850 C   0  0  0  0  0  0  0  0  0  0  0  0
    4.2190   69.4020   63.5020 O   0  0  0  0  0  0  0  0  0  0  0  0
    3.6850   66.5710   63.0930 O   0  0  0  0  0  0  0  0  0  0  0  0
    4.3050   65.3020   63.2650 C   0  0  0  0  0  0  0  0  0  0  0  0
    0.7670   62.6140   72.1270 C   0  0  0  0  0  0  0  0  0  0  0  0
    1.9800   61.6560   72.0590 N   0  0  0  0  0  4  0  0  0  0  0  0
    3.0810   62.0340   73.0490 C   0  0  0  0  0  0  0  0  0  0  0  0
    4.2960   61.0740   72.9520 C   0  0  0  0  0  0  0  0  0  0  0  0
    3.8850   59.6150   73.0780 N   0  0  0  0  0  4  0  0  0  0  0  0
    2.7930   59.2370   72.0840 C   0  0  0  0  0  0  0  0  0  0  0  0
    1.5720   60.1790   72.1820 C   0  0  0  0  0  0  0  0  0  0  0  0
    3.5690   59.1970   74.5010 C   0  0  0  0  0  0  0  0  0  0  0  0
   -0.6443   66.8163   70.6476 H   0  0  0  0  0  0  0  0  0  0  0  0
   -1.0788   64.5922   71.6918 H   0  0  0  0  0  0  0  0  0  0  0  0
    2.7862   63.2068   70.3442 H   0  0  0  0  0  0  0  0  0  0  0  0
    3.2128   65.4348   69.3067 H   0  0  0  0  0  0  0  0  0  0  0  0
    3.2939   70.3570   65.6058 H   0  0  0  0  0  0  0  0  0  0  0  0
    2.1701   65.5019   65.0712 H   0  0  0  0  0  0  0  0  0  0  0  0
    0.1489   66.5089   67.0834 H   0  0  0  0  0  0  0  0  0  0  0  0
    1.5777   65.8590   67.8846 H   0  0  0  0  0  0  0  0  0  0  0  0
    0.1019   68.2770   68.7555 H   0  0  0  0  0  0  0  0  0  0  0  0
    6.0989   68.9800   64.2540 H   0  0  0  0  0  0  0  0  0  0  0  0
    5.6707   68.1556   62.7166 H   0  0  0  0  0  0  0  0  0  0  0  0
    6.0641   69.9083   62.7166 H   0  0  0  0  0  0  0  0  0  0  0  0
    4.4097   65.0876   64.3388 H   0  0  0  0  0  0  0  0  0  0  0  0
    3.6853   64.5244   62.7946 H   0  0  0  0  0  0  0  0  0  0  0  0
    5.2993   65.3129   62.7946 H   0  0  0  0  0  0  0  0  0  0  0  0
    0.6632   62.9710   73.1623 H   0  0  0  0  0  0  0  0  0  0  0  0
   -0.1127   62.0456   71.7908 H   0  0  0  0  0  0  0  0  0  0  0  0
    2.3813   61.7710   71.1174 H   0  0  0  0  0  0  0  0  0  0  0  0
    3.4182   63.0584   72.8327 H   0  0  0  0  0  0  0  0  0  0  0  0
    2.6672   61.9609   74.0656 H   0  0  0  0  0  0  0  0  0  0  0  0
    4.7873   61.2212   71.9789 H   0  0  0  0  0  0  0  0  0  0  0  0
    4.9780   61.3064   73.7832 H   0  0  0  0  0  0  0  0  0  0  0  0
    4.7152   59.0626   72.8200 H   0  0  0  0  0  0  0  0  0  0  0  0
    3.2045   59.2933   71.0654 H   0  0  0  0  0  0  0  0  0  0  0  0
    2.4559   58.2169   72.3202 H   0  0  0  0  0  0  0  0  0  0  0  0
    0.8682   59.9353   71.3725 H   0  0  0  0  0  0  0  0  0  0  0  0
    1.1059   60.0337   73.1677 H   0  0  0  0  0  0  0  0  0  0  0  0
    4.0795   59.8723   75.2034 H   0  0  0  0  0  0  0  0  0  0  0  0
    2.4827   59.2494   74.6659 H   0  0  0  0  0  0  0  0  0  0  0  0
    3.9156   58.1661   74.6659 H   0  0  0  0  0  0  0  0  0  0  0  0
  2  1  2  0
  3  2  1  0
  4  3  2  0
  5  4  1  0
  6  5  2  0
  6  1  1  0
  7  1  1  0
  9  8  2  0
 10  9  1  0
 11 10  2  0
 12 11  1  0
 13 12  2  0
 13  8  1  0
 14 11  1  0
 15 14  1  0
 15  7  1  0
 16 15  1  0
 16 10  1  0
 17 16  2  0
 19  8  1  0
 19 18  1  0
 20 13  1  0
 21 20  1  0
 22  4  1  0
 23 22  1  0
 24 23  1  0
 25 24  1  0
 26 25  1  0
 27 26  1  0
 28 27  1  0
 28 23  1  0
 29 26  1  0
  2 30  1  0
  3 31  1  0
  5 32  1  0
  6 33  1  0
  9 34  1  0
 12 35  1  0
 14 36  1  0
 14 37  1  0
 15 38  1  1
 18 39  1  0
 18 40  1  0
 18 41  1  0
 21 42  1  0
 21 43  1  0
 21 44  1  0
 22 45  1  0
 22 46  1  0
 23 47  1  0
 24 48  1  0
 24 49  1  0
 25 50  1  0
 25 51  1  0
 26 52  1  0
 27 53  1  0
 27 54  1  0
 28 55  1  0
 28 56  1  0
 29 57  1  0
 29 58  1  0
 29 59  1  0
M  CHG  2  23   1  26   1
M  END
>  <score>  (7) 
-8.12

$$$$
=
     RDKit          3D

 59 62  0  0  0  0  0  0  0  0999 V2000
    3.1210   62.2360   70.1660 C   0  0  0  0  0  0  0  0  0  0  0  0
    1.7500   62.0500   70.3080 C   0  0  0  0  0  0  0  0  0  0  0  0
    0.9270   63.1560   70.5090 C   0  0  0  0  0  0  0  0  0  0  0  0
    1.4760   64.4470   70.5660 C   0  0  0  0  0  0  0  0  0  0  0  0
    2.8710   64.5920   70.5970 C   0  0  0  0  0  0  0  0  0  0  0  0
    3.6910   63.4850   70.3940 C   0  0  0  0  0  0  0  0  0  0  0  0
    3.9650   61.2380   69.7740 O   0  0  0  0  0  0  0  0  0  0  0  0
    1.8730   60.1870   74.9460 C   0  0  0  0  0  0  0  0  0  0  0  0
    2.9820   60.8080   74.3540 C   0  0  0  0  0  0  0  0  0  0  0  0
    3.3190   60.4630   73.0630 C   0  0  0  0  0  0  0  0  0  0  0  0
    2.6090   59.5290   72.3320 C   0  0  0  0  0  0  0  0  0  0  0  0
    1.5050   58.9070   72.9000 C   0  0  0  0  0  0  0  0  0  0  0  0
    1.1170   59.2380   74.2130 C   0  0  0  0  0  0  0  0  0  0  0  0
    3.1880   59.2950   70.9700 C   0  0  0  0  0  0  0  0  0  0  0  0
    4.3200   60.3490   70.8360 C   0  0  2  0  0  0  0  0  0  0  0  0
    4.4010   60.9840   72.2430 C   0  0  0  0  0  0  0  0  0  0  0  0
    5.1980   61.8210   72.6540 O   0  0  0  0  0  0  0  0  0  0  0  0
    2.5100   60.1610   77.2600 C   0  0  0  0  0  0  0  0  0  0  0  0
    1.6630   60.6430   76.2230 O   0  0  0  0  0  0  0  0  0  0  0  0
    0.0150   58.6970   74.8200 O   0  0  0  0  0  0  0  0  0  0  0  0
    0.1640   57.4880   75.5540 C   0  0  0  0  0  0  0  0  0  0  0  0
    0.5800   65.6490   70.4450 C   0  0  0  0  0  0  0  0  0  0  0  0
    0.4920   66.2120   69.0070 N   0  0  0  0  0  4  0  0  0  0  0  0
   -0.9410   66.5490   68.5970 C   0  0  0  0  0  0  0  0  0  0  0  0
   -1.0120   67.0930   67.1460 C   0  0  0  0  0  0  0  0  0  0  0  0
   -0.0610   68.2600   66.9250 N   0  0  0  0  0  4  0  0  0  0  0  0
    1.3700   67.9200   67.3250 C   0  0  0  0  0  0  0  0  0  0  0  0
    1.4530   67.3890   68.7750 C   0  0  0  0  0  0  0  0  0  0  0  0
   -0.5550   69.5640   67.5210 C   0  0  0  0  0  0  0  0  0  0  0  0
    1.3194   61.0388   70.2620 H   0  0  0  0  0  0  0  0  0  0  0  0
   -0.1582   63.0171   70.6236 H   0  0  0  0  0  0  0  0  0  0  0  0
    3.3172   65.5803   70.7817 H   0  0  0  0  0  0  0  0  0  0  0  0
    4.7851   63.5973   70.4138 H   0  0  0  0  0  0  0  0  0  0  0  0
    3.5703   61.5544   74.9080 H   0  0  0  0  0  0  0  0  0  0  0  0
    0.9363   58.1595   72.3274 H   0  0  0  0  0  0  0  0  0  0  0  0
    3.5954   58.2762   70.8916 H   0  0  0  0  0  0  0  0  0  0  0  0
    2.4337   59.3913   70.1752 H   0  0  0  0  0  0  0  0  0  0  0  0
    5.3153   59.9684   70.5630 H   0  0  0  0  0  0  0  0  0  0  0  0
    2.0714   60.4106   78.2374 H   0  0  0  0  0  0  0  0  0  0  0  0
    2.6124   59.0693   77.1721 H   0  0  0  0  0  0  0  0  0  0  0  0
    3.5009   60.6305   77.1721 H   0  0  0  0  0  0  0  0  0  0  0  0
    0.1369   57.7075   76.6315 H   0  0  0  0  0  0  0  0  0  0  0  0
   -0.6563   56.8008   75.2991 H   0  0  0  0  0  0  0  0  0  0  0  0
    1.1266   57.0205   75.2991 H   0  0  0  0  0  0  0  0  0  0  0  0
   -0.4315   65.3631   70.7693 H   0  0  0  0  0  0  0  0  0  0  0  0
    1.0130   66.4395   71.0756 H   0  0  0  0  0  0  0  0  0  0  0  0
    0.8038   65.4530   68.3844 H   0  0  0  0  0  0  0  0  0  0  0  0
   -1.5547   65.6387   68.6665 H   0  0  0  0  0  0  0  0  0  0  0  0
   -1.3156   67.3308   69.2741 H   0  0  0  0  0  0  0  0  0  0  0  0
   -0.7473   66.2831   66.4502 H   0  0  0  0  0  0  0  0  0  0  0  0
   -2.0364   67.4526   66.9688 H   0  0  0  0  0  0  0  0  0  0  0  0
   -0.0458   68.4252   65.9085 H   0  0  0  0  0  0  0  0  0  0  0  0
    1.7568   67.1497   66.6416 H   0  0  0  0  0  0  0  0  0  0  0  0
    1.9687   68.8408   67.2645 H   0  0  0  0  0  0  0  0  0  0  0  0
    2.4816   67.0533   68.9731 H   0  0  0  0  0  0  0  0  0  0  0  0
    1.1658   68.2045   69.4550 H   0  0  0  0  0  0  0  0  0  0  0  0
   -0.5300   69.4981   68.6187 H   0  0  0  0  0  0  0  0  0  0  0  0
    0.0933   70.3881   67.1883 H   0  0  0  0  0  0  0  0  0  0  0  0
   -1.5865   69.7517   67.1883 H   0  0  0  0  0  0  0  0  0  0  0  0
  2  1  2  0
  3  2  1  0
  4  3  2  0
  5  4  1  0
  6  5  2  0
  6  1  1  0
  7  1  1  0
  9  8  2  0
 10  9  1  0
 11 10  2  0
 12 11  1  0
 13 12  2  0
 13  8  1  0
 14 11  1  0
 15 14  1  0
 15  7  1  0
 16 15  1  0
 16 10  1  0
 17 16  2  0
 19  8  1  0
 19 18  1  0
 20 13  1  0
 21 20  1  0
 22  4  1  0
 23 22  1  0
 24 23  1  0
 25 24  1  0
 26 25  1  0
 27 26  1  0
 28 27  1  0
 28 23  1  0
 29 26  1  0
  2 30  1  0
  3 31  1  0
  5 32  1  0
  6 33  1  0
  9 34  1  0
 12 35  1  0
 14 36  1  0
 14 37  1  0
 15 38  1  6
 18 39  1  0
 18 40  1  0
 18 41  1  0
 21 42  1  0
 21 43  1  0
 21 44  1  0
 22 45  1  0
 22 46  1  0
 23 47  1  0
 24 48  1  0
 24 49  1  0
 25 50  1  0
 25 51  1  0
 26 52  1  0
 27 53  1  0
 27 54  1  0
 28 55  1  0
 28 56  1  0
 29 57  1  0
 29 58  1  0
 29 59  1  0
M  CHG  2  23   1  26   1
M  END
>  <score>  (8) 
-7.772

$$$$
=
     RDKit          3D

 59 62  0  0  0  0  0  0  0  0999 V2000
    3.6560   58.9990   72.6550 C   0  0  0  0  0  0  0  0  0  0  0  0
    4.1310   58.9890   73.9620 C   0  0  0  0  0  0  0  0  0  0  0  0
    3.3850   58.3600   74.9570 C   0  0  0  0  0  0  0  0  0  0  0  0
    2.1640   57.7400   74.6420 C   0  0  0  0  0  0  0  0  0  0  0  0
    1.6240   57.9150   73.3600 C   0  0  0  0  0  0  0  0  0  0  0  0
    2.3730   58.5430   72.3670 C   0  0  0  0  0  0  0  0  0  0  0  0
    4.4100   59.4170   71.5980 O   0  0  0  0  0  0  0  0  0  0  0  0
    0.9110   63.8450   70.9870 C   0  0  0  0  0  0  0  0  0  0  0  0
    1.8800   63.1470   70.2530 C   0  0  0  0  0  0  0  0  0  0  0  0
    2.8030   62.3850   70.9370 C   0  0  0  0  0  0  0  0  0  0  0  0
    2.8110   62.2860   72.3160 C   0  0  0  0  0  0  0  0  0  0  0  0
    1.8570   62.9670   73.0600 C   0  0  0  0  0  0  0  0  0  0  0  0
    0.8860   63.7470   72.4010 C   0  0  0  0  0  0  0  0  0  0  0  0
    3.9310   61.4330   72.8290 C   0  0  0  0  0  0  0  0  0  0  0  0
    4.5870   60.8350   71.5560 C   0  0  2  0  0  0  0  0  0  0  0  0
    3.8740   61.5650   70.3950 C   0  0  0  0  0  0  0  0  0  0  0  0
    4.1020   61.4830   69.1930 O   0  0  0  0  0  0  0  0  0  0  0  0
    0.2790   65.9430   70.0060 C   0  0  0  0  0  0  0  0  0  0  0  0
    0.0640   64.5450   70.1650 O   0  0  0  0  0  0  0  0  0  0  0  0
   -0.1090   64.4100   73.0670 O   0  0  0  0  0  0  0  0  0  0  0  0
    0.0280   64.6220   74.4670 C   0  0  0  0  0  0  0  0  0  0  0  0
    1.5330   56.7870   75.6200 C   0  0  0  0  0  0  0  0  0  0  0  0
    0.3930   55.9400   75.0090 N   0  0  0  0  0  4  0  0  0  0  0  0
    0.7860   54.4740   74.8260 C   0  0  0  0  0  0  0  0  0  0  0  0
   -0.3630   53.6450   74.1950 C   0  0  0  0  0  0  0  0  0  0  0  0
   -1.6690   53.7990   74.9600 N   0  0  0  0  0  4  0  0  0  0  0  0
   -2.0640   55.2610   75.1330 C   0  0  0  0  0  0  0  0  0  0  0  0
   -0.9310   56.0930   75.7750 C   0  0  0  0  0  0  0  0  0  0  0  0
   -1.7070   53.0110   76.2560 C   0  0  0  0  0  0  0  0  0  0  0  0
    5.0874   59.4734   74.2083 H   0  0  0  0  0  0  0  0  0  0  0  0
    3.7536   58.3488   75.9934 H   0  0  0  0  0  0  0  0  0  0  0  0
    0.6081   57.5562   73.1379 H   0  0  0  0  0  0  0  0  0  0  0  0
    1.9520   58.6778   71.3597 H   0  0  0  0  0  0  0  0  0  0  0  0
    1.9034   63.2060   69.1548 H   0  0  0  0  0  0  0  0  0  0  0  0
    1.8591   62.8981   74.1578 H   0  0  0  0  0  0  0  0  0  0  0  0
    4.6561   62.0412   73.3897 H   0  0  0  0  0  0  0  0  0  0  0  0
    3.5772   60.6535   73.5198 H   0  0  0  0  0  0  0  0  0  0  0  0
    5.6723   60.9796   71.4499 H   0  0  0  0  0  0  0  0  0  0  0  0
    0.3520   66.4176   70.9956 H   0  0  0  0  0  0  0  0  0  0  0  0
    1.2133   66.1094   69.4497 H   0  0  0  0  0  0  0  0  0  0  0  0
   -0.5621   66.3824   69.4497 H   0  0  0  0  0  0  0  0  0  0  0  0
   -0.4906   63.8194   75.0119 H   0  0  0  0  0  0  0  0  0  0  0  0
    1.0946   64.6178   74.7358 H   0  0  0  0  0  0  0  0  0  0  0  0
   -0.4141   65.5927   74.7358 H   0  0  0  0  0  0  0  0  0  0  0  0
    2.3114   56.1053   75.9932 H   0  0  0  0  0  0  0  0  0  0  0  0
    1.0897   57.3943   76.4229 H   0  0  0  0  0  0  0  0  0  0  0  0
    0.2306   56.3199   74.0655 H   0  0  0  0  0  0  0  0  0  0  0  0
    1.6664   54.4206   74.1687 H   0  0  0  0  0  0  0  0  0  0  0  0
    1.0074   54.0526   75.8177 H   0  0  0  0  0  0  0  0  0  0  0  0
   -0.5168   53.9832   73.1596 H   0  0  0  0  0  0  0  0  0  0  0  0
   -0.0735   52.5844   74.2305 H   0  0  0  0  0  0  0  0  0  0  0  0
   -2.3968   53.3699   74.3709 H   0  0  0  0  0  0  0  0  0  0  0  0
   -2.3004   55.6845   74.1457 H   0  0  0  0  0  0  0  0  0  0  0  0
   -2.9366   55.3011   75.8015 H   0  0  0  0  0  0  0  0  0  0  0  0
   -1.2230   57.1535   75.7733 H   0  0  0  0  0  0  0  0  0  0  0  0
   -0.7770   55.7274   76.8010 H   0  0  0  0  0  0  0  0  0  0  0  0
   -1.6735   53.7054   77.1085 H   0  0  0  0  0  0  0  0  0  0  0  0
   -2.6346   52.4214   76.2996 H   0  0  0  0  0  0  0  0  0  0  0  0
   -0.8404   52.3349   76.2996 H   0  0  0  0  0  0  0  0  0  0  0  0
  2  1  2  0
  3  2  1  0
  4  3  2  0
  5  4  1  0
  6  5  2  0
  6  1  1  0
  7  1  1  0
  9  8  2  0
 10  9  1  0
 11 10  2  0
 12 11  1  0
 13 12  2  0
 13  8  1  0
 14 11  1  0
 15 14  1  0
 15  7  1  0
 16 15  1  0
 16 10  1  0
 17 16  2  0
 19  8  1  0
 19 18  1  0
 20 13  1  0
 21 20  1  0
 22  4  1  0
 23 22  1  0
 24 23  1  0
 25 24  1  0
 26 25  1  0
 27 26  1  0
 28 27  1  0
 28 23  1  0
 29 26  1  0
  2 30  1  0
  3 31  1  0
  5 32  1  0
  6 33  1  0
  9 34  1  0
 12 35  1  0
 14 36  1  0
 14 37  1  0
 15 38  1  1
 18 39  1  0
 18 40  1  0
 18 41  1  0
 21 42  1  0
 21 43  1  0
 21 44  1  0
 22 45  1  0
 22 46  1  0
 23 47  1  0
 24 48  1  0
 24 49  1  0
 25 50  1  0
 25 51  1  0
 26 52  1  0
 27 53  1  0
 27 54  1  0
 28 55  1  0
 28 56  1  0
 29 57  1  0
 29 58  1  0
 29 59  1  0
M  CHG  2  23   1  26   1
M  END
>  <score>  (9) 
-7.334

$$$$
