=
     RDKit          3D

 51 55  0  0  0  0  0  0  0  0999 V2000
    0.8530   56.1690   75.0210 C   0  0  0  0  0  0  0  0  0  0  0  0
    1.8820   56.7100   74.2530 C   0  0  0  0  0  0  0  0  0  0  0  0
    1.7370   57.9600   73.6360 C   0  0  0  0  0  0  0  0  0  0  0  0
    2.7760   58.4950   72.8750 C   0  0  0  0  0  0  0  0  0  0  0  0
    2.6780   59.7020   72.2720 N   0  0  0  0  0  4  0  0  0  0  0  0
    3.8140   60.1680   71.4390 C   0  0  0  0  0  0  0  0  0  0  0  0
    3.2730   60.8070   70.1690 C   0  0  0  0  0  0  0  0  0  0  0  0
    2.3740   61.9440   70.5710 C   0  0  0  0  0  0  0  0  0  0  0  0
    1.5730   61.7970   71.7430 C   0  0  0  0  0  0  0  0  0  0  0  0
    1.5670   60.4770   72.4300 C   0  0  0  0  0  0  0  0  0  0  0  0
    0.4850   59.9440   73.1520 C   0  0  0  0  0  0  0  0  0  0  0  0
    0.5400   58.6830   73.7800 C   0  0  0  0  0  0  0  0  0  0  0  0
   -0.5310   58.1150   74.5370 C   0  0  0  0  0  0  0  0  0  0  0  0
   -0.3670   56.8420   75.1190 C   0  0  0  0  0  0  0  0  0  0  0  0
    0.8210   62.9180   72.1920 C   0  0  0  0  0  0  0  0  0  0  0  0
    0.8310   64.0720   71.4140 C   0  0  0  0  0  0  0  0  0  0  0  0
    1.5670   64.1520   70.2540 C   0  0  0  0  0  0  0  0  0  0  0  0
    2.3510   63.1160   69.8060 C   0  0  0  0  0  0  0  0  0  0  0  0
    1.4580   65.3570   69.6330 O   0  0  0  0  0  0  0  0  0  0  0  0
    0.5610   66.0450   70.5220 C   0  0  0  0  0  0  0  0  0  0  0  0
    0.1770   65.2430   71.6570 O   0  0  0  0  0  0  0  0  0  0  0  0
    1.8600   54.0810   74.7310 C   0  0  0  0  0  0  0  0  0  0  0  0
    1.1250   54.9550   75.5900 O   0  0  0  0  0  0  0  0  0  0  0  0
   -1.4150   56.3010   75.8200 O   0  0  0  0  0  0  0  0  0  0  0  0
   -2.0750   55.2930   75.0460 C   0  0  0  0  0  0  0  0  0  0  0  0
    0.1870   62.7740   73.3930 O   0  0  0  0  0  0  0  0  0  0  0  0
    0.7260   63.4210   74.5400 C   0  0  0  0  0  0  0  0  0  0  0  0
   -1.8370   58.8560   74.7250 C   0  0  0  0  0  0  0  0  0  0  0  0
   -2.0780   59.0360   76.1130 O   0  0  0  0  0  0  0  0  0  0  0  0
    2.8200   56.1489   74.1294 H   0  0  0  0  0  0  0  0  0  0  0  0
    3.7050   57.9170   72.7614 H   0  0  0  0  0  0  0  0  0  0  0  0
    4.4033   60.9076   72.0009 H   0  0  0  0  0  0  0  0  0  0  0  0
    4.4565   59.3139   71.1786 H   0  0  0  0  0  0  0  0  0  0  0  0
    4.1051   61.1864   69.5577 H   0  0  0  0  0  0  0  0  0  0  0  0
    2.7145   60.0679   69.5758 H   0  0  0  0  0  0  0  0  0  0  0  0
   -0.4404   60.5336   73.2300 H   0  0  0  0  0  0  0  0  0  0  0  0
    2.9388   63.2045   68.8804 H   0  0  0  0  0  0  0  0  0  0  0  0
    1.0577   66.9561   70.8870 H   0  0  0  0  0  0  0  0  0  0  0  0
   -0.3530   66.2782   69.9561 H   0  0  0  0  0  0  0  0  0  0  0  0
    2.4498   53.3796   75.3394 H   0  0  0  0  0  0  0  0  0  0  0  0
    1.1606   53.5172   74.0962 H   0  0  0  0  0  0  0  0  0  0  0  0
    2.5354   54.6734   74.0962 H   0  0  0  0  0  0  0  0  0  0  0  0
   -2.5510   54.5660   75.7204 H   0  0  0  0  0  0  0  0  0  0  0  0
   -2.8419   55.7614   74.4115 H   0  0  0  0  0  0  0  0  0  0  0  0
   -1.3391   54.7774   74.4115 H   0  0  0  0  0  0  0  0  0  0  0  0
    0.3298   62.9454   75.4493 H   0  0  0  0  0  0  0  0  0  0  0  0
    1.8225   63.3340   74.5287 H   0  0  0  0  0  0  0  0  0  0  0  0
    0.4424   64.4837   74.5287 H   0  0  0  0  0  0  0  0  0  0  0  0
   -1.7770   59.8375   74.2320 H   0  0  0  0  0  0  0  0  0  0  0  0
   -2.6582   58.2747   74.2804 H   0  0  0  0  0  0  0  0  0  0  0  0
   -1.4031   58.5320   76.6332 H   0  0  0  0  0  0  0  0  0  0  0  0
  2  1  2  0
  3  2  1  0
  4  3  2  0
  5  4  1  0
  6  5  1  0
  7  6  1  0
  8  7  1  0
  9  8  2  0
 10  5  2  0
 10  9  1  0
 11 10  1  0
 12 11  2  0
 12  3  1  0
 13 12  1  0
 14 13  2  0
 14  1  1  0
 15  9  1  0
 16 15  2  0
 17 16  1  0
 18 17  2  0
 18  8  1  0
 19 17  1  0
 20 19  1  0
 21 16  1  0
 21 20  1  0
 23 22  1  0
 23  1  1  0
 24 14  1  0
 25 24  1  0
 26 15  1  0
 27 26  1  0
 28 13  1  0
 29 28  1  0
  2 30  1  0
  4 31  1  0
  6 32  1  0
  6 33  1  0
  7 34  1  0
  7 35  1  0
 11 36  1  0
 18 37  1  0
 20 38  1  0
 20 39  1  0
 22 40  1  0
 22 41  1  0
 22 42  1  0
 25 43  1  0
 25 44  1  0
 25 45  1  0
 27 46  1  0
 27 47  1  0
 27 48  1  0
 28 49  1  0
 28 50  1  0
 29 51  1  0
M  CHG  1   5   1
M  END
>  <score>  (1) 
-7.825

$$$$
=
     RDKit          3D

 51 55  0  0  0  0  0  0  0  0999 V2000
    2.2710   63.7610   70.6700 C   0  0  0  0  0  0  0  0  0  0  0  0
    1.2510   63.4250   71.5580 C   0  0  0  0  0  0  0  0  0  0  0  0
    1.1780   62.1400   72.1130 C   0  0  0  0  0  0  0  0  0  0  0  0
    0.1560   61.8160   73.0060 C   0  0  0  0  0  0  0  0  0  0  0  0
    0.0570   60.5910   73.5710 N   0  0  0  0  0  4  0  0  0  0  0  0
   -1.0930   60.3200   74.4690 C   0  0  0  0  0  0  0  0  0  0  0  0
   -1.6400   58.9320   74.1750 C   0  0  0  0  0  0  0  0  0  0  0  0
   -0.5250   57.9430   74.3840 C   0  0  0  0  0  0  0  0  0  0  0  0
    0.8010   58.3250   74.0210 C   0  0  0  0  0  0  0  0  0  0  0  0
    0.9930   59.6290   73.3300 C   0  0  0  0  0  0  0  0  0  0  0  0
    2.0070   59.9110   72.3980 C   0  0  0  0  0  0  0  0  0  0  0  0
    2.1350   61.1680   71.7740 C   0  0  0  0  0  0  0  0  0  0  0  0
    3.1620   61.4990   70.8360 C   0  0  0  0  0  0  0  0  0  0  0  0
    3.1910   62.7890   70.2690 C   0  0  0  0  0  0  0  0  0  0  0  0
    1.8690   57.4400   74.3350 C   0  0  0  0  0  0  0  0  0  0  0  0
    1.5580   56.2060   74.8980 C   0  0  0  0  0  0  0  0  0  0  0  0
    0.2580   55.8480   75.1740 C   0  0  0  0  0  0  0  0  0  0  0  0
   -0.8030   56.6880   74.9370 C   0  0  0  0  0  0  0  0  0  0  0  0
    0.1490   54.6090   75.7250 O   0  0  0  0  0  0  0  0  0  0  0  0
    1.5290   54.2050   75.7670 C   0  0  0  0  0  0  0  0  0  0  0  0
    2.4230   55.2170   75.2620 O   0  0  0  0  0  0  0  0  0  0  0  0
    0.9680   65.6730   70.3470 C   0  0  0  0  0  0  0  0  0  0  0  0
    2.2480   65.0520   70.2160 O   0  0  0  0  0  0  0  0  0  0  0  0
    4.1680   63.0810   69.3510 O   0  0  0  0  0  0  0  0  0  0  0  0
    3.6670   62.9390   68.0180 C   0  0  0  0  0  0  0  0  0  0  0  0
    3.1300   57.9120   74.1010 O   0  0  0  0  0  0  0  0  0  0  0  0
    3.9060   58.3810   75.1970 C   0  0  0  0  0  0  0  0  0  0  0  0
    4.2170   60.4890   70.4420 C   0  0  0  0  0  0  0  0  0  0  0  0
    5.4810   60.9180   70.9300 O   0  0  0  0  0  0  0  0  0  0  0  0
    0.4944   64.1769   71.8265 H   0  0  0  0  0  0  0  0  0  0  0  0
   -0.5930   62.5810   73.2585 H   0  0  0  0  0  0  0  0  0  0  0  0
   -0.7617   60.3707   75.5167 H   0  0  0  0  0  0  0  0  0  0  0  0
   -1.8791   61.0707   74.3000 H   0  0  0  0  0  0  0  0  0  0  0  0
   -2.4730   58.7061   74.8570 H   0  0  0  0  0  0  0  0  0  0  0  0
   -2.0127   58.8774   73.1415 H   0  0  0  0  0  0  0  0  0  0  0  0
    2.7285   59.1198   72.1461 H   0  0  0  0  0  0  0  0  0  0  0  0
   -1.8337   56.3850   75.1734 H   0  0  0  0  0  0  0  0  0  0  0  0
    1.7995   53.9861   76.8105 H   0  0  0  0  0  0  0  0  0  0  0  0
    1.6344   53.3190   75.1236 H   0  0  0  0  0  0  0  0  0  0  0  0
    0.7251   65.7909   71.4133 H   0  0  0  0  0  0  0  0  0  0  0  0
    0.9888   66.6612   69.8643 H   0  0  0  0  0  0  0  0  0  0  0  0
    0.2047   65.0451   69.8643 H   0  0  0  0  0  0  0  0  0  0  0  0
    2.6093   62.6392   68.0538 H   0  0  0  0  0  0  0  0  0  0  0  0
    3.7584   63.8984   67.4878 H   0  0  0  0  0  0  0  0  0  0  0  0
    4.2482   62.1702   67.4878 H   0  0  0  0  0  0  0  0  0  0  0  0
    3.4221   58.0886   76.1406 H   0  0  0  0  0  0  0  0  0  0  0  0
    4.9125   57.9399   75.1490 H   0  0  0  0  0  0  0  0  0  0  0  0
    3.9834   59.4772   75.1490 H   0  0  0  0  0  0  0  0  0  0  0  0
    3.9685   59.5093   70.8760 H   0  0  0  0  0  0  0  0  0  0  0  0
    4.2543   60.4025   69.3460 H   0  0  0  0  0  0  0  0  0  0  0  0
    5.4710   60.9146   71.9199 H   0  0  0  0  0  0  0  0  0  0  0  0
  2  1  2  0
  3  2  1  0
  4  3  2  0
  5  4  1  0
  6  5  1  0
  7  6  1  0
  8  7  1  0
  9  8  2  0
 10  5  2  0
 10  9  1  0
 11 10  1  0
 12 11  2  0
 12  3  1  0
 13 12  1  0
 14 13  2  0
 14  1  1  0
 15  9  1  0
 16 15  2  0
 17 16  1  0
 18 17  2  0
 18  8  1  0
 19 17  1  0
 20 19  1  0
 21 16  1  0
 21 20  1  0
 23 22  1  0
 23  1  1  0
 24 14  1  0
 25 24  1  0
 26 15  1  0
 27 26  1  0
 28 13  1  0
 29 28  1  0
  2 30  1  0
  4 31  1  0
  6 32  1  0
  6 33  1  0
  7 34  1  0
  7 35  1  0
 11 36  1  0
 18 37  1  0
 20 38  1  0
 20 39  1  0
 22 40  1  0
 22 41  1  0
 22 42  1  0
 25 43  1  0
 25 44  1  0
 25 45  1  0
 27 46  1  0
 27 47  1  0
 27 48  1  0
 28 49  1  0
 28 50  1  0
 29 51  1  0
M  CHG  1   5   1
M  END
>  <score>  (2) 
-7.81

$$$$
=
     RDKit          3D

 51 55  0  0  0  0  0  0  0  0999 V2000
    2.8640   61.9680   71.7640 C   0  0  0  0  0  0  0  0  0  0  0  0
    1.7670   61.9680   72.6220 C   0  0  0  0  0  0  0  0  0  0  0  0
    1.2080   60.7660   73.0750 C   0  0  0  0  0  0  0  0  0  0  0  0
    0.1140   60.7780   73.9400 C   0  0  0  0  0  0  0  0  0  0  0  0
   -0.4470   59.6380   74.4060 N   0  0  0  0  0  4  0  0  0  0  0  0
   -1.6420   59.7470   75.2800 C   0  0  0  0  0  0  0  0  0  0  0  0
   -2.6530   58.6850   74.8770 C   0  0  0  0  0  0  0  0  0  0  0  0
   -1.9880   57.3420   75.0080 C   0  0  0  0  0  0  0  0  0  0  0  0
   -0.6040   57.2320   74.6760 C   0  0  0  0  0  0  0  0  0  0  0  0
    0.0750   58.4190   74.0910 C   0  0  0  0  0  0  0  0  0  0  0  0
    1.1490   58.3730   73.1840 C   0  0  0  0  0  0  0  0  0  0  0  0
    1.7490   59.5360   72.6610 C   0  0  0  0  0  0  0  0  0  0  0  0
    2.8530   59.5310   71.7520 C   0  0  0  0  0  0  0  0  0  0  0  0
    3.3720   60.7570   71.2880 C   0  0  0  0  0  0  0  0  0  0  0  0
    0.0520   55.9940   74.9200 C   0  0  0  0  0  0  0  0  0  0  0  0
   -0.7080   54.9250   75.3840 C   0  0  0  0  0  0  0  0  0  0  0  0
   -2.0570   55.0540   75.6310 C   0  0  0  0  0  0  0  0  0  0  0  0
   -2.7250   56.2420   75.4610 C   0  0  0  0  0  0  0  0  0  0  0  0
   -2.6300   53.9070   76.0830 O   0  0  0  0  0  0  0  0  0  0  0  0
   -1.4980   53.0190   76.0930 C   0  0  0  0  0  0  0  0  0  0  0  0
   -0.2800   53.6620   75.6700 O   0  0  0  0  0  0  0  0  0  0  0  0
    2.5900   63.8080   70.3510 C   0  0  0  0  0  0  0  0  0  0  0  0
    3.3320   63.2050   71.4130 O   0  0  0  0  0  0  0  0  0  0  0  0
    4.4150   60.7320   70.3970 O   0  0  0  0  0  0  0  0  0  0  0  0
    5.6590   60.9580   71.0680 C   0  0  0  0  0  0  0  0  0  0  0  0
    1.4050   55.9820   74.7240 O   0  0  0  0  0  0  0  0  0  0  0  0
    1.9750   54.9600   73.9160 C   0  0  0  0  0  0  0  0  0  0  0  0
    3.4720   58.2340   71.2800 C   0  0  0  0  0  0  0  0  0  0  0  0
    3.5380   58.2360   69.8600 O   0  0  0  0  0  0  0  0  0  0  0  0
    1.3336   62.9249   72.9484 H   0  0  0  0  0  0  0  0  0  0  0  0
   -0.3063   61.7450   74.2535 H   0  0  0  0  0  0  0  0  0  0  0  0
   -1.3464   59.5948   76.3285 H   0  0  0  0  0  0  0  0  0  0  0  0
   -2.0906   60.7454   75.1709 H   0  0  0  0  0  0  0  0  0  0  0  0
   -3.5305   58.7339   75.5385 H   0  0  0  0  0  0  0  0  0  0  0  0
   -2.9885   58.8477   73.8421 H   0  0  0  0  0  0  0  0  0  0  0  0
    1.5354   57.3918   72.8709 H   0  0  0  0  0  0  0  0  0  0  0  0
   -3.8010   56.3258   75.6734 H   0  0  0  0  0  0  0  0  0  0  0  0
   -1.3581   52.6395   77.1159 H   0  0  0  0  0  0  0  0  0  0  0  0
   -1.7080   52.2068   75.3815 H   0  0  0  0  0  0  0  0  0  0  0  0
    1.8015   64.4488   70.7724 H   0  0  0  0  0  0  0  0  0  0  0  0
    3.2651   64.4167   69.7315 H   0  0  0  0  0  0  0  0  0  0  0  0
    2.1322   63.0227   69.7315 H   0  0  0  0  0  0  0  0  0  0  0  0
    5.4993   60.9290   72.1560 H   0  0  0  0  0  0  0  0  0  0  0  0
    6.3774   60.1757   70.7818 H   0  0  0  0  0  0  0  0  0  0  0  0
    6.0563   61.9430   70.7818 H   0  0  0  0  0  0  0  0  0  0  0  0
    2.4090   54.1819   74.5611 H   0  0  0  0  0  0  0  0  0  0  0  0
    1.1941   54.5163   73.2810 H   0  0  0  0  0  0  0  0  0  0  0  0
    2.7629   55.3913   73.2810 H   0  0  0  0  0  0  0  0  0  0  0  0
    4.4861   58.1381   71.6951 H   0  0  0  0  0  0  0  0  0  0  0  0
    2.8581   57.3868   71.6198 H   0  0  0  0  0  0  0  0  0  0  0  0
    4.4853   58.2647   69.5737 H   0  0  0  0  0  0  0  0  0  0  0  0
  2  1  2  0
  3  2  1  0
  4  3  2  0
  5  4  1  0
  6  5  1  0
  7  6  1  0
  8  7  1  0
  9  8  2  0
 10  5  2  0
 10  9  1  0
 11 10  1  0
 12 11  2  0
 12  3  1  0
 13 12  1  0
 14 13  2  0
 14  1  1  0
 15  9  1  0
 16 15  2  0
 17 16  1  0
 18 17  2  0
 18  8  1  0
 19 17  1  0
 20 19  1  0
 21 16  1  0
 21 20  1  0
 23 22  1  0
 23  1  1  0
 24 14  1  0
 25 24  1  0
 26 15  1  0
 27 26  1  0
 28 13  1  0
 29 28  1  0
  2 30  1  0
  4 31  1  0
  6 32  1  0
  6 33  1  0
  7 34  1  0
  7 35  1  0
 11 36  1  0
 18 37  1  0
 20 38  1  0
 20 39  1  0
 22 40  1  0
 22 41  1  0
 22 42  1  0
 25 43  1  0
 25 44  1  0
 25 45  1  0
 27 46  1  0
 27 47  1  0
 27 48  1  0
 28 49  1  0
 28 50  1  0
 29 51  1  0
M  CHG  1   5   1
M  END
>  <score>  (3) 
-7.352

$$$$
=
     RDKit          3D

 51 55  0  0  0  0  0  0  0  0999 V2000
    2.0970   61.5540   71.5890 C   0  0  0  0  0  0  0  0  0  0  0  0
    0.8680   61.9650   72.1030 C   0  0  0  0  0  0  0  0  0  0  0  0
    0.0780   61.0900   72.8610 C   0  0  0  0  0  0  0  0  0  0  0  0
   -1.1470   61.5140   73.3770 C   0  0  0  0  0  0  0  0  0  0  0  0
   -1.9340   60.7030   74.1200 N   0  0  0  0  0  4  0  0  0  0  0  0
   -3.2450   61.2230   74.5830 C   0  0  0  0  0  0  0  0  0  0  0  0
   -4.2970   60.1380   74.4210 C   0  0  0  0  0  0  0  0  0  0  0  0
   -3.8570   58.9450   75.2250 C   0  0  0  0  0  0  0  0  0  0  0  0
   -2.4630   58.6420   75.2870 C   0  0  0  0  0  0  0  0  0  0  0  0
   -1.5320   59.4410   74.4450 C   0  0  0  0  0  0  0  0  0  0  0  0
   -0.3250   58.9700   73.9010 C   0  0  0  0  0  0  0  0  0  0  0  0
    0.5140   59.7770   73.1060 C   0  0  0  0  0  0  0  0  0  0  0  0
    1.7570   59.3400   72.5500 C   0  0  0  0  0  0  0  0  0  0  0  0
    2.5150   60.2330   71.7650 C   0  0  0  0  0  0  0  0  0  0  0  0
   -2.0370   57.5930   76.1470 C   0  0  0  0  0  0  0  0  0  0  0  0
   -3.0090   56.8530   76.8150 C   0  0  0  0  0  0  0  0  0  0  0  0
   -4.3500   57.1350   76.6780 C   0  0  0  0  0  0  0  0  0  0  0  0
   -4.8080   58.1710   75.9010 C   0  0  0  0  0  0  0  0  0  0  0  0
   -5.1470   56.3110   77.4080 O   0  0  0  0  0  0  0  0  0  0  0  0
   -4.1680   55.4580   78.0280 C   0  0  0  0  0  0  0  0  0  0  0  0
   -2.8170   55.8080   77.6700 O   0  0  0  0  0  0  0  0  0  0  0  0
    2.2670   62.7230   69.5740 C   0  0  0  0  0  0  0  0  0  0  0  0
    2.7840   62.5060   70.8880 O   0  0  0  0  0  0  0  0  0  0  0  0
    3.6920   59.7890   71.2180 O   0  0  0  0  0  0  0  0  0  0  0  0
    3.4860   59.3340   69.8760 C   0  0  0  0  0  0  0  0  0  0  0  0
   -0.6870   57.4370   76.2830 O   0  0  0  0  0  0  0  0  0  0  0  0
   -0.0980   56.1870   75.9420 C   0  0  0  0  0  0  0  0  0  0  0  0
    2.2720   57.9380   72.7890 C   0  0  0  0  0  0  0  0  0  0  0  0
    3.3980   57.9940   73.6540 O   0  0  0  0  0  0  0  0  0  0  0  0
    0.5140   62.9887   71.9113 H   0  0  0  0  0  0  0  0  0  0  0  0
   -1.4836   62.5412   73.1729 H   0  0  0  0  0  0  0  0  0  0  0  0
   -3.1735   61.5112   75.6422 H   0  0  0  0  0  0  0  0  0  0  0  0
   -3.5259   62.1030   73.9858 H   0  0  0  0  0  0  0  0  0  0  0  0
   -5.2678   60.5003   74.7902 H   0  0  0  0  0  0  0  0  0  0  0  0
   -4.4078   59.8664   73.3608 H   0  0  0  0  0  0  0  0  0  0  0  0
   -0.0233   57.9317   74.1033 H   0  0  0  0  0  0  0  0  0  0  0  0
   -5.8834   58.3849   75.8130 H   0  0  0  0  0  0  0  0  0  0  0  0
   -4.2741   55.5369   79.1200 H   0  0  0  0  0  0  0  0  0  0  0  0
   -4.3498   54.4326   77.6738 H   0  0  0  0  0  0  0  0  0  0  0  0
    1.2548   63.1479   69.6438 H   0  0  0  0  0  0  0  0  0  0  0  0
    2.9217   63.4223   69.0332 H   0  0  0  0  0  0  0  0  0  0  0  0
    2.2265   61.7660   69.0332 H   0  0  0  0  0  0  0  0  0  0  0  0
    3.0324   58.3321   69.8941 H   0  0  0  0  0  0  0  0  0  0  0  0
    2.8155   60.0306   69.3515 H   0  0  0  0  0  0  0  0  0  0  0  0
    4.4519   59.2898   69.3515 H   0  0  0  0  0  0  0  0  0  0  0  0
    0.1597   55.6402   76.8610 H   0  0  0  0  0  0  0  0  0  0  0  0
   -0.8117   55.5945   75.3507 H   0  0  0  0  0  0  0  0  0  0  0  0
    0.8133   56.3602   75.3507 H   0  0  0  0  0  0  0  0  0  0  0  0
    1.4815   57.3300   73.2532 H   0  0  0  0  0  0  0  0  0  0  0  0
    2.5648   57.4839   71.8308 H   0  0  0  0  0  0  0  0  0  0  0  0
    3.0920   57.9788   74.5954 H   0  0  0  0  0  0  0  0  0  0  0  0
  2  1  2  0
  3  2  1  0
  4  3  2  0
  5  4  1  0
  6  5  1  0
  7  6  1  0
  8  7  1  0
  9  8  2  0
 10  5  2  0
 10  9  1  0
 11 10  1  0
 12 11  2  0
 12  3  1  0
 13 12  1  0
 14 13  2  0
 14  1  1  0
 15  9  1  0
 16 15  2  0
 17 16  1  0
 18 17  2  0
 18  8  1  0
 19 17  1  0
 20 19  1  0
 21 16  1  0
 21 20  1  0
 23 22  1  0
 23  1  1  0
 24 14  1  0
 25 24  1  0
 26 15  1  0
 27 26  1  0
 28 13  1  0
 29 28  1  0
  2 30  1  0
  4 31  1  0
  6 32  1  0
  6 33  1  0
  7 34  1  0
  7 35  1  0
 11 36  1  0
 18 37  1  0
 20 38  1  0
 20 39  1  0
 22 40  1  0
 22 41  1  0
 22 42  1  0
 25 43  1  0
 25 44  1  0
 25 45  1  0
 27 46  1  0
 27 47  1  0
 27 48  1  0
 28 49  1  0
 28 50  1  0
 29 51  1  0
M  CHG  1   5   1
M  END
>  <score>  (4) 
-6.655

$$$$
=
     RDKit          3D

 51 55  0  0  0  0  0  0  0  0999 V2000
    3.2980   60.9940   71.3730 C   0  0  0  0  0  0  0  0  0  0  0  0
    2.9920   59.6750   71.7010 C   0  0  0  0  0  0  0  0  0  0  0  0
    1.8880   59.3740   72.5100 C   0  0  0  0  0  0  0  0  0  0  0  0
    1.5860   58.0490   72.8270 C   0  0  0  0  0  0  0  0  0  0  0  0
    0.5250   57.7180   73.5970 N   0  0  0  0  0  4  0  0  0  0  0  0
    0.3120   56.2860   73.9260 C   0  0  0  0  0  0  0  0  0  0  0  0
   -0.0860   56.1640   75.3880 C   0  0  0  0  0  0  0  0  0  0  0  0
   -1.3360   56.9740   75.5960 C   0  0  0  0  0  0  0  0  0  0  0  0
   -1.4830   58.1960   74.8730 C   0  0  0  0  0  0  0  0  0  0  0  0
   -0.3360   58.6720   74.0540 C   0  0  0  0  0  0  0  0  0  0  0  0
   -0.0310   60.0190   73.7910 C   0  0  0  0  0  0  0  0  0  0  0  0
    1.0760   60.4070   73.0100 C   0  0  0  0  0  0  0  0  0  0  0  0
    1.4080   61.7640   72.7050 C   0  0  0  0  0  0  0  0  0  0  0  0
    2.5430   62.0370   71.9150 C   0  0  0  0  0  0  0  0  0  0  0  0
   -2.7180   58.8960   74.9730 C   0  0  0  0  0  0  0  0  0  0  0  0
   -3.6860   58.4030   75.8430 C   0  0  0  0  0  0  0  0  0  0  0  0
   -3.4800   57.2540   76.5730 C   0  0  0  0  0  0  0  0  0  0  0  0
   -2.3260   56.5140   76.4710 C   0  0  0  0  0  0  0  0  0  0  0  0
   -4.5360   56.9250   77.3640 O   0  0  0  0  0  0  0  0  0  0  0  0
   -5.4480   57.9980   77.0650 C   0  0  0  0  0  0  0  0  0  0  0  0
   -4.9210   58.9230   76.0930 O   0  0  0  0  0  0  0  0  0  0  0  0
    5.6300   61.0420   71.2480 C   0  0  0  0  0  0  0  0  0  0  0  0
    4.3840   61.1560   70.5570 O   0  0  0  0  0  0  0  0  0  0  0  0
    2.8610   63.3460   71.6540 O   0  0  0  0  0  0  0  0  0  0  0  0
    2.5370   63.6840   70.3010 C   0  0  0  0  0  0  0  0  0  0  0  0
   -2.8630   59.9790   74.1530 O   0  0  0  0  0  0  0  0  0  0  0  0
   -3.1500   61.2480   74.7290 C   0  0  0  0  0  0  0  0  0  0  0  0
    0.5620   62.9100   73.2140 C   0  0  0  0  0  0  0  0  0  0  0  0
   -0.3130   63.3420   72.1820 O   0  0  0  0  0  0  0  0  0  0  0  0
    3.6248   58.8598   71.3203 H   0  0  0  0  0  0  0  0  0  0  0  0
    2.2319   57.2481   72.4379 H   0  0  0  0  0  0  0  0  0  0  0  0
   -0.4882   55.8776   73.2913 H   0  0  0  0  0  0  0  0  0  0  0  0
    1.2400   55.7232   73.7469 H   0  0  0  0  0  0  0  0  0  0  0  0
   -0.2782   55.1098   75.6363 H   0  0  0  0  0  0  0  0  0  0  0  0
    0.7219   56.5327   76.0371 H   0  0  0  0  0  0  0  0  0  0  0  0
   -0.6816   60.8002   74.2111 H   0  0  0  0  0  0  0  0  0  0  0  0
   -2.1860   55.5932   77.0563 H   0  0  0  0  0  0  0  0  0  0  0  0
   -6.3806   57.5675   76.6713 H   0  0  0  0  0  0  0  0  0  0  0  0
   -5.6190   58.5574   77.9966 H   0  0  0  0  0  0  0  0  0  0  0  0
    5.4503   61.0584   72.3331 H   0  0  0  0  0  0  0  0  0  0  0  0
    6.1175   60.0955   70.9713 H   0  0  0  0  0  0  0  0  0  0  0  0
    6.2811   61.8843   70.9713 H   0  0  0  0  0  0  0  0  0  0  0  0
    1.7758   64.4781   70.2937 H   0  0  0  0  0  0  0  0  0  0  0  0
    3.4415   64.0383   69.7849 H   0  0  0  0  0  0  0  0  0  0  0  0
    2.1448   62.7953   69.7849 H   0  0  0  0  0  0  0  0  0  0  0  0
   -3.1313   61.1655   75.8257 H   0  0  0  0  0  0  0  0  0  0  0  0
   -2.3942   61.9779   74.4033 H   0  0  0  0  0  0  0  0  0  0  0  0
   -4.1463   61.5816   74.4033 H   0  0  0  0  0  0  0  0  0  0  0  0
   -0.0281   62.5749   74.0797 H   0  0  0  0  0  0  0  0  0  0  0  0
    1.2136   63.7427   73.5172 H   0  0  0  0  0  0  0  0  0  0  0  0
   -1.1244   63.7426   72.5835 H   0  0  0  0  0  0  0  0  0  0  0  0
  2  1  2  0
  3  2  1  0
  4  3  2  0
  5  4  1  0
  6  5  1  0
  7  6  1  0
  8  7  1  0
  9  8  2  0
 10  5  2  0
 10  9  1  0
 11 10  1  0
 12 11  2  0
 12  3  1  0
 13 12  1  0
 14 13  2  0
 14  1  1  0
 15  9  1  0
 16 15  2  0
 17 16  1  0
 18 17  2  0
 18  8  1  0
 19 17  1  0
 20 19  1  0
 21 16  1  0
 21 20  1  0
 23 22  1  0
 23  1  1  0
 24 14  1  0
 25 24  1  0
 26 15  1  0
 27 26  1  0
 28 13  1  0
 29 28  1  0
  2 30  1  0
  4 31  1  0
  6 32  1  0
  6 33  1  0
  7 34  1  0
  7 35  1  0
 11 36  1  0
 18 37  1  0
 20 38  1  0
 20 39  1  0
 22 40  1  0
 22 41  1  0
 22 42  1  0
 25 43  1  0
 25 44  1  0
 25 45  1  0
 27 46  1  0
 27 47  1  0
 27 48  1  0
 28 49  1  0
 28 50  1  0
 29 51  1  0
M  CHG  1   5   1
M  END
>  <score>  (5) 
-6.649

$$$$
=
     RDKit          3D

 51 55  0  0  0  0  0  0  0  0999 V2000
    2.0300   59.1590   72.4610 C   0  0  0  0  0  0  0  0  0  0  0  0
    1.4940   57.9820   72.9800 C   0  0  0  0  0  0  0  0  0  0  0  0
    0.2780   57.9920   73.6740 C   0  0  0  0  0  0  0  0  0  0  0  0
   -0.2540   56.8060   74.1830 C   0  0  0  0  0  0  0  0  0  0  0  0
   -1.4300   56.7730   74.8510 N   0  0  0  0  0  4  0  0  0  0  0  0
   -1.8910   55.4750   75.4030 C   0  0  0  0  0  0  0  0  0  0  0  0
   -2.4570   55.6980   76.7960 C   0  0  0  0  0  0  0  0  0  0  0  0
   -3.5850   56.6870   76.6830 C   0  0  0  0  0  0  0  0  0  0  0  0
   -3.4670   57.7490   75.7370 C   0  0  0  0  0  0  0  0  0  0  0  0
   -2.1790   57.9010   75.0070 C   0  0  0  0  0  0  0  0  0  0  0  0
   -1.6480   59.1190   74.5470 C   0  0  0  0  0  0  0  0  0  0  0  0
   -0.4180   59.1980   73.8630 C   0  0  0  0  0  0  0  0  0  0  0  0
    0.1470   60.4140   73.3640 C   0  0  0  0  0  0  0  0  0  0  0  0
    1.3880   60.3770   72.6970 C   0  0  0  0  0  0  0  0  0  0  0  0
   -4.5850   58.6070   75.5410 C   0  0  0  0  0  0  0  0  0  0  0  0
   -5.7040   58.4250   76.3480 C   0  0  0  0  0  0  0  0  0  0  0  0
   -5.7540   57.4280   77.2960 C   0  0  0  0  0  0  0  0  0  0  0  0
   -4.7220   56.5410   77.4870 C   0  0  0  0  0  0  0  0  0  0  0  0
   -6.9270   57.4010   77.9840 O   0  0  0  0  0  0  0  0  0  0  0  0
   -7.6270   58.5010   77.3760 C   0  0  0  0  0  0  0  0  0  0  0  0
   -6.8660   59.1380   76.3310 O   0  0  0  0  0  0  0  0  0  0  0  0
    3.2760   57.8100   71.0160 C   0  0  0  0  0  0  0  0  0  0  0  0
    3.2100   59.0140   71.7830 O   0  0  0  0  0  0  0  0  0  0  0  0
    1.9270   61.5550   72.2480 O   0  0  0  0  0  0  0  0  0  0  0  0
    2.9270   62.0320   73.1550 C   0  0  0  0  0  0  0  0  0  0  0  0
   -4.4760   59.5140   74.5260 O   0  0  0  0  0  0  0  0  0  0  0  0
   -4.6340   60.8980   74.8160 C   0  0  0  0  0  0  0  0  0  0  0  0
   -0.5650   61.7370   73.5380 C   0  0  0  0  0  0  0  0  0  0  0  0
   -1.0030   62.2040   72.2700 O   0  0  0  0  0  0  0  0  0  0  0  0
    2.0331   57.0330   72.8427 H   0  0  0  0  0  0  0  0  0  0  0  0
    0.3010   55.8677   74.0362 H   0  0  0  0  0  0  0  0  0  0  0  0
   -2.6713   55.0543   74.7517 H   0  0  0  0  0  0  0  0  0  0  0  0
   -1.0450   54.7739   75.4553 H   0  0  0  0  0  0  0  0  0  0  0  0
   -2.8323   54.7477   77.2036 H   0  0  0  0  0  0  0  0  0  0  0  0
   -1.6769   56.0814   77.4701 H   0  0  0  0  0  0  0  0  0  0  0  0
   -2.2137   60.0450   74.7277 H   0  0  0  0  0  0  0  0  0  0  0  0
   -4.7868   55.7454   78.2438 H   0  0  0  0  0  0  0  0  0  0  0  0
   -8.5674   58.1250   76.9467 H   0  0  0  0  0  0  0  0  0  0  0  0
   -7.8076   59.2521   78.1591 H   0  0  0  0  0  0  0  0  0  0  0  0
    3.3234   56.9453   71.6943 H   0  0  0  0  0  0  0  0  0  0  0  0
    2.3809   57.7298   70.3817 H   0  0  0  0  0  0  0  0  0  0  0  0
    4.1745   57.8281   70.3817 H   0  0  0  0  0  0  0  0  0  0  0  0
    2.5901   61.8713   74.1897 H   0  0  0  0  0  0  0  0  0  0  0  0
    3.8662   61.4849   72.9860 H   0  0  0  0  0  0  0  0  0  0  0  0
    3.0929   63.1062   72.9860 H   0  0  0  0  0  0  0  0  0  0  0  0
   -4.6507   61.0446   75.9061 H   0  0  0  0  0  0  0  0  0  0  0  0
   -3.7944   61.4615   74.3831 H   0  0  0  0  0  0  0  0  0  0  0  0
   -5.5791   61.2578   74.3831 H   0  0  0  0  0  0  0  0  0  0  0  0
   -1.4330   61.6030   74.2002 H   0  0  0  0  0  0  0  0  0  0  0  0
    0.1232   62.4704   73.9835 H   0  0  0  0  0  0  0  0  0  0  0  0
   -1.6747   62.9202   72.3961 H   0  0  0  0  0  0  0  0  0  0  0  0
  2  1  2  0
  3  2  1  0
  4  3  2  0
  5  4  1  0
  6  5  1  0
  7  6  1  0
  8  7  1  0
  9  8  2  0
 10  5  2  0
 10  9  1  0
 11 10  1  0
 12 11  2  0
 12  3  1  0
 13 12  1  0
 14 13  2  0
 14  1  1  0
 15  9  1  0
 16 15  2  0
 17 16  1  0
 18 17  2  0
 18  8  1  0
 19 17  1  0
 20 19  1  0
 21 16  1  0
 21 20  1  0
 23 22  1  0
 23  1  1  0
 24 14  1  0
 25 24  1  0
 26 15  1  0
 27 26  1  0
 28 13  1  0
 29 28  1  0
  2 30  1  0
  4 31  1  0
  6 32  1  0
  6 33  1  0
  7 34  1  0
  7 35  1  0
 11 36  1  0
 18 37  1  0
 20 38  1  0
 20 39  1  0
 22 40  1  0
 22 41  1  0
 22 42  1  0
 25 43  1  0
 25 44  1  0
 25 45  1  0
 27 46  1  0
 27 47  1  0
 27 48  1  0
 28 49  1  0
 28 50  1  0
 29 51  1  0
M  CHG  1   5   1
M  END
>  <score>  (6) 
-6.085

$$$$
=
     RDKit          3D

 51 55  0  0  0  0  0  0  0  0999 V2000
    2.7800   61.2850   70.9900 C   0  0  0  0  0  0  0  0  0  0  0  0
    2.8140   59.9030   71.1670 C   0  0  0  0  0  0  0  0  0  0  0  0
    2.2210   59.3080   72.2890 C   0  0  0  0  0  0  0  0  0  0  0  0
    2.2560   57.9230   72.4530 C   0  0  0  0  0  0  0  0  0  0  0  0
    1.6870   57.3110   73.5170 N   0  0  0  0  0  4  0  0  0  0  0  0
    1.8180   55.8370   73.6360 C   0  0  0  0  0  0  0  0  0  0  0  0
    2.1170   55.4780   75.0830 C   0  0  0  0  0  0  0  0  0  0  0  0
    0.9920   56.0060   75.9300 C   0  0  0  0  0  0  0  0  0  0  0  0
    0.3940   57.2510   75.5690 C   0  0  0  0  0  0  0  0  0  0  0  0
    1.0000   58.0260   74.4530 C   0  0  0  0  0  0  0  0  0  0  0  0
    0.9890   59.4270   74.3400 C   0  0  0  0  0  0  0  0  0  0  0  0
    1.5860   60.1040   73.2580 C   0  0  0  0  0  0  0  0  0  0  0  0
    1.5800   61.5250   73.0970 C   0  0  0  0  0  0  0  0  0  0  0  0
    2.2130   62.0970   71.9750 C   0  0  0  0  0  0  0  0  0  0  0  0
   -0.7500   57.6860   76.2950 C   0  0  0  0  0  0  0  0  0  0  0  0
   -1.1720   56.9230   77.3790 C   0  0  0  0  0  0  0  0  0  0  0  0
   -0.5270   55.7600   77.7360 C   0  0  0  0  0  0  0  0  0  0  0  0
    0.5490   55.2710   77.0360 C   0  0  0  0  0  0  0  0  0  0  0  0
   -1.0830   55.1500   78.8160 O   0  0  0  0  0  0  0  0  0  0  0  0
   -2.1580   56.0550   79.1210 C   0  0  0  0  0  0  0  0  0  0  0  0
   -2.2280   57.1660   78.2060 O   0  0  0  0  0  0  0  0  0  0  0  0
    4.2280   60.7760   69.2280 C   0  0  0  0  0  0  0  0  0  0  0  0
    3.3720   61.7410   69.8440 O   0  0  0  0  0  0  0  0  0  0  0  0
    2.2200   63.4630   71.8510 O   0  0  0  0  0  0  0  0  0  0  0  0
    1.1720   63.8960   70.9760 C   0  0  0  0  0  0  0  0  0  0  0  0
   -1.3730   58.8060   75.8200 O   0  0  0  0  0  0  0  0  0  0  0  0
   -2.6140   58.6690   75.1390 C   0  0  0  0  0  0  0  0  0  0  0  0
    0.9060   62.4240   74.1100 C   0  0  0  0  0  0  0  0  0  0  0  0
    1.8900   63.2140   74.7620 O   0  0  0  0  0  0  0  0  0  0  0  0
    3.3124   59.2714   70.4169 H   0  0  0  0  0  0  0  0  0  0  0  0
    2.7622   57.3093   71.6933 H   0  0  0  0  0  0  0  0  0  0  0  0
    0.8783   55.3576   73.3244 H   0  0  0  0  0  0  0  0  0  0  0  0
    2.6363   55.4849   72.9907 H   0  0  0  0  0  0  0  0  0  0  0  0
    2.1856   54.3855   75.1909 H   0  0  0  0  0  0  0  0  0  0  0  0
    3.0744   55.9186   75.3981 H   0  0  0  0  0  0  0  0  0  0  0  0
    0.4956   60.0174   75.1261 H   0  0  0  0  0  0  0  0  0  0  0  0
    1.0448   54.3353   77.3339 H   0  0  0  0  0  0  0  0  0  0  0  0
   -3.1074   55.5014   79.0752 H   0  0  0  0  0  0  0  0  0  0  0  0
   -1.9726   56.4637   80.1253 H   0  0  0  0  0  0  0  0  0  0  0  0
    4.7441   60.1941   70.0059 H   0  0  0  0  0  0  0  0  0  0  0  0
    3.6274   60.0996   68.6021 H   0  0  0  0  0  0  0  0  0  0  0  0
    4.9712   61.2916   68.6021 H   0  0  0  0  0  0  0  0  0  0  0  0
    0.3181   64.2488   71.5731 H   0  0  0  0  0  0  0  0  0  0  0  0
    1.5395   64.7160   70.3415 H   0  0  0  0  0  0  0  0  0  0  0  0
    0.8535   63.0558   70.3415 H   0  0  0  0  0  0  0  0  0  0  0  0
   -3.4276   58.5792   75.8739 H   0  0  0  0  0  0  0  0  0  0  0  0
   -2.7857   59.5536   74.5082 H   0  0  0  0  0  0  0  0  0  0  0  0
   -2.5886   57.7682   74.5082 H   0  0  0  0  0  0  0  0  0  0  0  0
    0.1871   63.0806   73.5982 H   0  0  0  0  0  0  0  0  0  0  0  0
    0.3739   61.8105   74.8519 H   0  0  0  0  0  0  0  0  0  0  0  0
    1.7845   63.1293   75.7427 H   0  0  0  0  0  0  0  0  0  0  0  0
  2  1  2  0
  3  2  1  0
  4  3  2  0
  5  4  1  0
  6  5  1  0
  7  6  1  0
  8  7  1  0
  9  8  2  0
 10  5  2  0
 10  9  1  0
 11 10  1  0
 12 11  2  0
 12  3  1  0
 13 12  1  0
 14 13  2  0
 14  1  1  0
 15  9  1  0
 16 15  2  0
 17 16  1  0
 18 17  2  0
 18  8  1  0
 19 17  1  0
 20 19  1  0
 21 16  1  0
 21 20  1  0
 23 22  1  0
 23  1  1  0
 24 14  1  0
 25 24  1  0
 26 15  1  0
 27 26  1  0
 28 13  1  0
 29 28  1  0
  2 30  1  0
  4 31  1  0
  6 32  1  0
  6 33  1  0
  7 34  1  0
  7 35  1  0
 11 36  1  0
 18 37  1  0
 20 38  1  0
 20 39  1  0
 22 40  1  0
 22 41  1  0
 22 42  1  0
 25 43  1  0
 25 44  1  0
 25 45  1  0
 27 46  1  0
 27 47  1  0
 27 48  1  0
 28 49  1  0
 28 50  1  0
 29 51  1  0
M  CHG  1   5   1
M  END
>  <score>  (7) 
-5.964

$$$$
=
     RDKit          3D

 51 55  0  0  0  0  0  0  0  0999 V2000
    1.4840   57.8540   73.5490 C   0  0  0  0  0  0  0  0  0  0  0  0
    0.6030   58.9310   73.6140 C   0  0  0  0  0  0  0  0  0  0  0  0
   -0.6940   58.7680   74.1190 C   0  0  0  0  0  0  0  0  0  0  0  0
   -1.5670   59.8550   74.1860 C   0  0  0  0  0  0  0  0  0  0  0  0
   -2.8230   59.7400   74.6750 N   0  0  0  0  0  4  0  0  0  0  0  0
   -3.6980   60.9380   74.6600 C   0  0  0  0  0  0  0  0  0  0  0  0
   -5.0950   60.5300   74.2220 C   0  0  0  0  0  0  0  0  0  0  0  0
   -5.5950   59.4890   75.1870 C   0  0  0  0  0  0  0  0  0  0  0  0
   -4.6620   58.5450   75.7130 C   0  0  0  0  0  0  0  0  0  0  0  0
   -3.2740   58.5560   75.1790 C   0  0  0  0  0  0  0  0  0  0  0  0
   -2.4350   57.4320   75.0810 C   0  0  0  0  0  0  0  0  0  0  0  0
   -1.1270   57.5060   74.5610 C   0  0  0  0  0  0  0  0  0  0  0  0
   -0.2370   56.3900   74.4620 C   0  0  0  0  0  0  0  0  0  0  0  0
    1.0500   56.5790   73.9200 C   0  0  0  0  0  0  0  0  0  0  0  0
   -5.1090   57.6440   76.7180 C   0  0  0  0  0  0  0  0  0  0  0  0
   -6.4540   57.6650   77.0720 C   0  0  0  0  0  0  0  0  0  0  0  0
   -7.3370   58.5490   76.4930 C   0  0  0  0  0  0  0  0  0  0  0  0
   -6.9450   59.4740   75.5560 C   0  0  0  0  0  0  0  0  0  0  0  0
   -8.6060   58.4250   76.9670 O   0  0  0  0  0  0  0  0  0  0  0  0
   -8.4430   57.3550   77.9150 C   0  0  0  0  0  0  0  0  0  0  0  0
   -7.0830   56.8850   77.9970 O   0  0  0  0  0  0  0  0  0  0  0  0
    2.7980   58.1060   71.6340 C   0  0  0  0  0  0  0  0  0  0  0  0
    2.7280   58.1460   73.0610 O   0  0  0  0  0  0  0  0  0  0  0  0
    1.8810   55.4930   73.8090 O   0  0  0  0  0  0  0  0  0  0  0  0
    2.5980   55.2780   75.0300 C   0  0  0  0  0  0  0  0  0  0  0  0
   -4.1480   56.8600   77.2930 O   0  0  0  0  0  0  0  0  0  0  0  0
   -3.6880   57.1800   78.6010 C   0  0  0  0  0  0  0  0  0  0  0  0
   -0.6540   55.0130   74.9280 C   0  0  0  0  0  0  0  0  0  0  0  0
   -0.7270   54.1420   73.8080 O   0  0  0  0  0  0  0  0  0  0  0  0
    0.9294   59.9217   73.2646 H   0  0  0  0  0  0  0  0  0  0  0  0
   -1.2225   60.8370   73.8296 H   0  0  0  0  0  0  0  0  0  0  0  0
   -3.7414   61.3748   75.6686 H   0  0  0  0  0  0  0  0  0  0  0  0
   -3.2933   61.6829   73.9590 H   0  0  0  0  0  0  0  0  0  0  0  0
   -5.7619   61.4046   74.2366 H   0  0  0  0  0  0  0  0  0  0  0  0
   -5.0740   60.1264   73.1989 H   0  0  0  0  0  0  0  0  0  0  0  0
   -2.8139   56.4577   75.4232 H   0  0  0  0  0  0  0  0  0  0  0  0
   -7.6654   60.1768   75.1122 H   0  0  0  0  0  0  0  0  0  0  0  0
   -8.7512   57.7148   78.9078 H   0  0  0  0  0  0  0  0  0  0  0  0
   -9.0647   56.5135   77.5754 H   0  0  0  0  0  0  0  0  0  0  0  0
    3.7150   57.5820   71.3264 H   0  0  0  0  0  0  0  0  0  0  0  0
    1.9208   57.5728   71.2387 H   0  0  0  0  0  0  0  0  0  0  0  0
    2.8121   59.1324   71.2387 H   0  0  0  0  0  0  0  0  0  0  0  0
    1.9347   55.4769   75.8846 H   0  0  0  0  0  0  0  0  0  0  0  0
    2.9471   54.2357   75.0716 H   0  0  0  0  0  0  0  0  0  0  0  0
    3.4630   55.9563   75.0716 H   0  0  0  0  0  0  0  0  0  0  0  0
   -4.3520   56.7181   79.3464 H   0  0  0  0  0  0  0  0  0  0  0  0
   -2.6653   56.7974   78.7338 H   0  0  0  0  0  0  0  0  0  0  0  0
   -3.6911   58.2719   78.7338 H   0  0  0  0  0  0  0  0  0  0  0  0
    0.0855   54.6280   75.6456 H   0  0  0  0  0  0  0  0  0  0  0  0
   -1.6384   55.0707   75.4156 H   0  0  0  0  0  0  0  0  0  0  0  0
   -0.8054   53.2064   74.1221 H   0  0  0  0  0  0  0  0  0  0  0  0
  2  1  2  0
  3  2  1  0
  4  3  2  0
  5  4  1  0
  6  5  1  0
  7  6  1  0
  8  7  1  0
  9  8  2  0
 10  5  2  0
 10  9  1  0
 11 10  1  0
 12 11  2  0
 12  3  1  0
 13 12  1  0
 14 13  2  0
 14  1  1  0
 15  9  1  0
 16 15  2  0
 17 16  1  0
 18 17  2  0
 18  8  1  0
 19 17  1  0
 20 19  1  0
 21 16  1  0
 21 20  1  0
 23 22  1  0
 23  1  1  0
 24 14  1  0
 25 24  1  0
 26 15  1  0
 27 26  1  0
 28 13  1  0
 29 28  1  0
  2 30  1  0
  4 31  1  0
  6 32  1  0
  6 33  1  0
  7 34  1  0
  7 35  1  0
 11 36  1  0
 18 37  1  0
 20 38  1  0
 20 39  1  0
 22 40  1  0
 22 41  1  0
 22 42  1  0
 25 43  1  0
 25 44  1  0
 25 45  1  0
 27 46  1  0
 27 47  1  0
 27 48  1  0
 28 49  1  0
 28 50  1  0
 29 51  1  0
M  CHG  1   5   1
M  END
>  <score>  (8) 
-5.693

$$$$
=
     RDKit          3D

 51 55  0  0  0  0  0  0  0  0999 V2000
   -3.8200   79.0710   65.1880 C   0  0  0  0  0  0  0  0  0  0  0  0
   -4.6860   78.0120   65.4550 C   0  0  0  0  0  0  0  0  0  0  0  0
   -5.1560   77.7800   66.7550 C   0  0  0  0  0  0  0  0  0  0  0  0
   -6.0280   76.7210   67.0100 C   0  0  0  0  0  0  0  0  0  0  0  0
   -6.5110   76.4700   68.2490 N   0  0  0  0  0  4  0  0  0  0  0  0
   -7.3920   75.2910   68.4360 C   0  0  0  0  0  0  0  0  0  0  0  0
   -7.0080   74.5810   69.7240 C   0  0  0  0  0  0  0  0  0  0  0  0
   -7.1490   75.5650   70.8530 C   0  0  0  0  0  0  0  0  0  0  0  0
   -6.8080   76.9300   70.6120 C   0  0  0  0  0  0  0  0  0  0  0  0
   -6.2050   77.2840   69.2990 C   0  0  0  0  0  0  0  0  0  0  0  0
   -5.2910   78.3300   69.0830 C   0  0  0  0  0  0  0  0  0  0  0  0
   -4.7510   78.6130   67.8120 C   0  0  0  0  0  0  0  0  0  0  0  0
   -3.8340   79.6780   67.5480 C   0  0  0  0  0  0  0  0  0  0  0  0
   -3.3530   79.8680   66.2360 C   0  0  0  0  0  0  0  0  0  0  0  0
   -7.0610   77.8810   71.6400 C   0  0  0  0  0  0  0  0  0  0  0  0
   -7.5430   77.4180   72.8610 C   0  0  0  0  0  0  0  0  0  0  0  0
   -7.7980   76.0820   73.0760 C   0  0  0  0  0  0  0  0  0  0  0  0
   -7.6190   75.1330   72.0990 C   0  0  0  0  0  0  0  0  0  0  0  0
   -8.2660   75.8210   74.3250 O   0  0  0  0  0  0  0  0  0  0  0  0
   -8.2780   77.1410   74.8970 C   0  0  0  0  0  0  0  0  0  0  0  0
   -7.8380   78.1540   73.9700 O   0  0  0  0  0  0  0  0  0  0  0  0
   -2.9720   77.9930   63.2970 C   0  0  0  0  0  0  0  0  0  0  0  0
   -3.4520   79.2070   63.8770 O   0  0  0  0  0  0  0  0  0  0  0  0
   -2.4540   80.8780   66.0070 O   0  0  0  0  0  0  0  0  0  0  0  0
   -1.1310   80.3520   65.8560 C   0  0  0  0  0  0  0  0  0  0  0  0
   -6.8550   79.1910   71.3110 O   0  0  0  0  0  0  0  0  0  0  0  0
   -7.9810   80.0250   71.0610 C   0  0  0  0  0  0  0  0  0  0  0  0
   -3.3720   80.6050   68.6510 C   0  0  0  0  0  0  0  0  0  0  0  0
   -2.1290   80.1420   69.1610 O   0  0  0  0  0  0  0  0  0  0  0  0
   -5.0044   77.3505   64.6358 H   0  0  0  0  0  0  0  0  0  0  0  0
   -6.3325   76.0695   66.1776 H   0  0  0  0  0  0  0  0  0  0  0  0
   -8.4399   75.6202   68.4954 H   0  0  0  0  0  0  0  0  0  0  0  0
   -7.2755   74.6033   67.5854 H   0  0  0  0  0  0  0  0  0  0  0  0
   -7.6751   73.7224   69.8908 H   0  0  0  0  0  0  0  0  0  0  0  0
   -5.9737   74.2112   69.6644 H   0  0  0  0  0  0  0  0  0  0  0  0
   -4.9857   78.9511   69.9380 H   0  0  0  0  0  0  0  0  0  0  0  0
   -7.8371   74.0717   72.2889 H   0  0  0  0  0  0  0  0  0  0  0  0
   -9.3042   77.3772   75.2152 H   0  0  0  0  0  0  0  0  0  0  0  0
   -7.5783   77.1413   75.7457 H   0  0  0  0  0  0  0  0  0  0  0  0
   -2.6940   77.2898   64.0959 H   0  0  0  0  0  0  0  0  0  0  0  0
   -3.7614   77.5469   62.6742 H   0  0  0  0  0  0  0  0  0  0  0  0
   -2.0910   78.2074   62.6742 H   0  0  0  0  0  0  0  0  0  0  0  0
   -0.6905   80.1769   66.8486 H   0  0  0  0  0  0  0  0  0  0  0  0
   -1.1748   79.4029   65.3017 H   0  0  0  0  0  0  0  0  0  0  0  0
   -0.5112   81.0721   65.3017 H   0  0  0  0  0  0  0  0  0  0  0  0
   -8.4174   80.3483   72.0176 H   0  0  0  0  0  0  0  0  0  0  0  0
   -7.6633   80.9074   70.4861 H   0  0  0  0  0  0  0  0  0  0  0  0
   -8.7324   79.4639   70.4861 H   0  0  0  0  0  0  0  0  0  0  0  0
   -3.2491   81.6218   68.2496 H   0  0  0  0  0  0  0  0  0  0  0  0
   -4.1196   80.6205   69.4578 H   0  0  0  0  0  0  0  0  0  0  0  0
   -2.1543   80.1514   70.1506 H   0  0  0  0  0  0  0  0  0  0  0  0
  2  1  2  0
  3  2  1  0
  4  3  2  0
  5  4  1  0
  6  5  1  0
  7  6  1  0
  8  7  1  0
  9  8  2  0
 10  5  2  0
 10  9  1  0
 11 10  1  0
 12 11  2  0
 12  3  1  0
 13 12  1  0
 14 13  2  0
 14  1  1  0
 15  9  1  0
 16 15  2  0
 17 16  1  0
 18 17  2  0
 18  8  1  0
 19 17  1  0
 20 19  1  0
 21 16  1  0
 21 20  1  0
 23 22  1  0
 23  1  1  0
 24 14  1  0
 25 24  1  0
 26 15  1  0
 27 26  1  0
 28 13  1  0
 29 28  1  0
  2 30  1  0
  4 31  1  0
  6 32  1  0
  6 33  1  0
  7 34  1  0
  7 35  1  0
 11 36  1  0
 18 37  1  0
 20 38  1  0
 20 39  1  0
 22 40  1  0
 22 41  1  0
 22 42  1  0
 25 43  1  0
 25 44  1  0
 25 45  1  0
 27 46  1  0
 27 47  1  0
 27 48  1  0
 28 49  1  0
 28 50  1  0
 29 51  1  0
M  CHG  1   5   1
M  END
>  <score>  (9) 
-5.647

$$$$
