=
     RDKit          3D

 30 31  0  0  0  0  0  0  0  0999 V2000
    0.7530   66.6490   65.8370 O   0  0  0  0  0  0  0  0  0  0  0  0
    0.8520   67.8430   65.5760 C   0  0  0  0  0  0  0  0  0  0  0  0
    0.9460   68.3300   64.1750 C   0  0  0  0  0  0  0  0  0  0  0  0
   -0.1520   69.0220   63.6400 C   0  0  0  0  0  0  0  0  0  0  0  0
   -0.1210   69.5100   62.3320 C   0  0  0  0  0  0  0  0  0  0  0  0
    1.0120   69.3170   61.5430 C   0  0  0  0  0  0  0  0  0  0  0  0
    2.1110   68.6310   62.0750 C   0  0  0  0  0  0  0  0  0  0  0  0
    2.0880   68.1350   63.3890 C   0  0  0  0  0  0  0  0  0  0  0  0
    3.3100   68.4390   61.2510 N   0  0  0  0  0  4  0  0  0  0  0  0
    3.9260   67.3700   61.3760 O   0  0  0  0  0  0  0  0  0  0  0  0
    3.6380   69.3580   60.4880 O   0  0  0  0  0  1  0  0  0  0  0  0
    0.8570   68.8240   66.7260 C   0  0  0  0  0  0  0  0  0  0  0  0
   -0.2180   69.1360   67.2240 O   0  0  0  0  0  0  0  0  0  0  0  0
    2.1430   69.3690   67.2400 C   0  0  0  0  0  0  0  0  0  0  0  0
    2.1480   69.9560   68.5170 C   0  0  0  0  0  0  0  0  0  0  0  0
    3.3260   70.4780   69.0570 C   0  0  0  0  0  0  0  0  0  0  0  0
    4.5130   70.4170   68.3290 C   0  0  0  0  0  0  0  0  0  0  0  0
    4.5110   69.8280   67.0580 C   0  0  0  0  0  0  0  0  0  0  0  0
    3.3330   69.3020   66.5060 C   0  0  0  0  0  0  0  0  0  0  0  0
    5.7640   69.7500   66.2960 N   0  0  0  0  0  4  0  0  0  0  0  0
    6.8200   69.9580   66.9090 O   0  0  0  0  0  0  0  0  0  0  0  0
    5.6870   69.4920   65.0870 O   0  0  0  0  0  1  0  0  0  0  0  0
   -1.0475   69.1817   64.2585 H   0  0  0  0  0  0  0  0  0  0  0  0
   -0.9904   70.0466   61.9243 H   0  0  0  0  0  0  0  0  0  0  0  0
    1.0425   69.6999   60.5123 H   0  0  0  0  0  0  0  0  0  0  0  0
    2.9581   67.5990   63.7961 H   0  0  0  0  0  0  0  0  0  0  0  0
    1.2148   70.0049   69.0973 H   0  0  0  0  0  0  0  0  0  0  0  0
    3.3167   70.9371   70.0566 H   0  0  0  0  0  0  0  0  0  0  0  0
    5.4431   70.8277   68.7488 H   0  0  0  0  0  0  0  0  0  0  0  0
    3.3446   68.8418   65.5069 H   0  0  0  0  0  0  0  0  0  0  0  0
  2  1  2  0
  3  2  1  0
  4  3  2  0
  5  4  1  0
  6  5  2  0
  7  6  1  0
  8  7  2  0
  8  3  1  0
  9  7  1  0
 10  9  2  0
 11  9  1  0
 12  2  1  0
 13 12  2  0
 14 12  1  0
 15 14  2  0
 16 15  1  0
 17 16  2  0
 18 17  1  0
 19 18  2  0
 19 14  1  0
 20 18  1  0
 21 20  2  0
 22 20  1  0
  4 23  1  0
  5 24  1  0
  6 25  1  0
  8 26  1  0
 15 27  1  0
 16 28  1  0
 17 29  1  0
 19 30  1  0
M  CHG  4   9   1  11  -1  20   1  22  -1
M  END
>  <score>  (1) 
-9.949

$$$$
=
     RDKit          3D

 30 31  0  0  0  0  0  0  0  0999 V2000
    4.2840   66.8100   64.1480 O   0  0  0  0  0  0  0  0  0  0  0  0
    3.9240   67.9800   64.0780 C   0  0  0  0  0  0  0  0  0  0  0  0
    2.5180   68.3450   63.7620 C   0  0  0  0  0  0  0  0  0  0  0  0
    2.2010   68.6620   62.4320 C   0  0  0  0  0  0  0  0  0  0  0  0
    0.8960   69.0070   62.0710 C   0  0  0  0  0  0  0  0  0  0  0  0
   -0.1100   69.0330   63.0360 C   0  0  0  0  0  0  0  0  0  0  0  0
    0.2030   68.7110   64.3640 C   0  0  0  0  0  0  0  0  0  0  0  0
    1.5120   68.3660   64.7350 C   0  0  0  0  0  0  0  0  0  0  0  0
   -0.8570   68.7250   65.3780 N   0  0  0  0  0  4  0  0  0  0  0  0
   -0.5110   68.7500   66.5680 O   0  0  0  0  0  0  0  0  0  0  0  0
   -2.0320   68.7000   64.9850 O   0  0  0  0  0  1  0  0  0  0  0  0
    4.9500   69.0570   64.3440 C   0  0  0  0  0  0  0  0  0  0  0  0
    5.5900   69.4930   63.3940 O   0  0  0  0  0  0  0  0  0  0  0  0
    5.1480   69.5780   65.7240 C   0  0  0  0  0  0  0  0  0  0  0  0
    6.4530   69.9160   66.1210 C   0  0  0  0  0  0  0  0  0  0  0  0
    6.7020   70.4170   67.4010 C   0  0  0  0  0  0  0  0  0  0  0  0
    5.6490   70.5900   68.2980 C   0  0  0  0  0  0  0  0  0  0  0  0
    4.3460   70.2600   67.9020 C   0  0  0  0  0  0  0  0  0  0  0  0
    4.0870   69.7530   66.6190 C   0  0  0  0  0  0  0  0  0  0  0  0
    3.2350   70.4550   68.8420 N   0  0  0  0  0  4  0  0  0  0  0  0
    3.5110   70.8690   69.9760 O   0  0  0  0  0  0  0  0  0  0  0  0
    2.0930   70.1850   68.4460 O   0  0  0  0  0  1  0  0  0  0  0  0
    2.9891   68.6386   61.6649 H   0  0  0  0  0  0  0  0  0  0  0  0
    0.6624   69.2580   61.0258 H   0  0  0  0  0  0  0  0  0  0  0  0
   -1.1393   69.3036   62.7580 H   0  0  0  0  0  0  0  0  0  0  0  0
    1.7450   68.1146   65.7802 H   0  0  0  0  0  0  0  0  0  0  0  0
    7.2873   69.7847   65.4163 H   0  0  0  0  0  0  0  0  0  0  0  0
    7.7284   70.6749   67.7010 H   0  0  0  0  0  0  0  0  0  0  0  0
    5.8393   70.9822   69.3079 H   0  0  0  0  0  0  0  0  0  0  0  0
    3.0601   69.4958   66.3202 H   0  0  0  0  0  0  0  0  0  0  0  0
  2  1  2  0
  3  2  1  0
  4  3  2  0
  5  4  1  0
  6  5  2  0
  7  6  1  0
  8  7  2  0
  8  3  1  0
  9  7  1  0
 10  9  2  0
 11  9  1  0
 12  2  1  0
 13 12  2  0
 14 12  1  0
 15 14  2  0
 16 15  1  0
 17 16  2  0
 18 17  1  0
 19 18  2  0
 19 14  1  0
 20 18  1  0
 21 20  2  0
 22 20  1  0
  4 23  1  0
  5 24  1  0
  6 25  1  0
  8 26  1  0
 15 27  1  0
 16 28  1  0
 17 29  1  0
 19 30  1  0
M  CHG  4   9   1  11  -1  20   1  22  -1
M  END
>  <score>  (2) 
-9.924

$$$$
=
     RDKit          3D

 30 31  0  0  0  0  0  0  0  0999 V2000
    0.0350   69.2350   67.5310 O   0  0  0  0  0  0  0  0  0  0  0  0
    1.1160   68.9280   67.0400 C   0  0  0  0  0  0  0  0  0  0  0  0
    2.3880   69.5330   67.5150 C   0  0  0  0  0  0  0  0  0  0  0  0
    2.3850   70.1910   68.7550 C   0  0  0  0  0  0  0  0  0  0  0  0
    3.5510   70.7720   69.2580 C   0  0  0  0  0  0  0  0  0  0  0  0
    4.7370   70.6990   68.5300 C   0  0  0  0  0  0  0  0  0  0  0  0
    4.7450   70.0380   67.2940 C   0  0  0  0  0  0  0  0  0  0  0  0
    3.5770   69.4530   66.7800 C   0  0  0  0  0  0  0  0  0  0  0  0
    5.9960   69.9480   66.5320 N   0  0  0  0  0  4  0  0  0  0  0  0
    7.0590   70.0360   67.1630 O   0  0  0  0  0  0  0  0  0  0  0  0
    5.9130   69.8000   65.3050 O   0  0  0  0  0  1  0  0  0  0  0  0
    1.1300   67.8920   65.9390 C   0  0  0  0  0  0  0  0  0  0  0  0
    1.1700   66.7100   66.2590 O   0  0  0  0  0  0  0  0  0  0  0  0
    1.0740   68.3140   64.5130 C   0  0  0  0  0  0  0  0  0  0  0  0
   -0.0970   68.9420   64.0560 C   0  0  0  0  0  0  0  0  0  0  0  0
   -0.2060   69.3670   62.7300 C   0  0  0  0  0  0  0  0  0  0  0  0
    0.8540   69.1740   61.8460 C   0  0  0  0  0  0  0  0  0  0  0  0
    2.0250   68.5530   62.3020 C   0  0  0  0  0  0  0  0  0  0  0  0
    2.1430   68.1200   63.6320 C   0  0  0  0  0  0  0  0  0  0  0  0
    3.1480   68.3610   61.3750 N   0  0  0  0  0  4  0  0  0  0  0  0
    3.2860   69.1900   60.4650 O   0  0  0  0  0  0  0  0  0  0  0  0
    3.8810   67.3790   61.5550 O   0  0  0  0  0  1  0  0  0  0  0  0
    1.4535   70.2496   69.3371 H   0  0  0  0  0  0  0  0  0  0  0  0
    3.5333   71.2876   70.2295 H   0  0  0  0  0  0  0  0  0  0  0  0
    5.6580   71.1557   68.9215 H   0  0  0  0  0  0  0  0  0  0  0  0
    3.5957   68.9366   65.8089 H   0  0  0  0  0  0  0  0  0  0  0  0
   -0.9361   69.1005   64.7494 H   0  0  0  0  0  0  0  0  0  0  0  0
   -1.1291   69.8544   62.3832 H   0  0  0  0  0  0  0  0  0  0  0  0
    0.7725   69.5058   60.8004 H   0  0  0  0  0  0  0  0  0  0  0  0
    3.0667   67.6331   63.9779 H   0  0  0  0  0  0  0  0  0  0  0  0
  2  1  2  0
  3  2  1  0
  4  3  2  0
  5  4  1  0
  6  5  2  0
  7  6  1  0
  8  7  2  0
  8  3  1  0
  9  7  1  0
 10  9  2  0
 11  9  1  0
 12  2  1  0
 13 12  2  0
 14 12  1  0
 15 14  2  0
 16 15  1  0
 17 16  2  0
 18 17  1  0
 19 18  2  0
 19 14  1  0
 20 18  1  0
 21 20  2  0
 22 20  1  0
  4 23  1  0
  5 24  1  0
  6 25  1  0
  8 26  1  0
 15 27  1  0
 16 28  1  0
 17 29  1  0
 19 30  1  0
M  CHG  4   9   1  11  -1  20   1  22  -1
M  END
>  <score>  (3) 
-9.922

$$$$
=
     RDKit          3D

 30 31  0  0  0  0  0  0  0  0999 V2000
    5.6200   69.8030   63.4020 O   0  0  0  0  0  0  0  0  0  0  0  0
    5.0270   69.2800   64.3400 C   0  0  0  0  0  0  0  0  0  0  0  0
    5.2140   69.7480   65.7380 C   0  0  0  0  0  0  0  0  0  0  0  0
    6.4600   70.2870   66.0950 C   0  0  0  0  0  0  0  0  0  0  0  0
    6.6930   70.7500   67.3920 C   0  0  0  0  0  0  0  0  0  0  0  0
    5.6800   70.6840   68.3480 C   0  0  0  0  0  0  0  0  0  0  0  0
    4.4340   70.1520   67.9940 C   0  0  0  0  0  0  0  0  0  0  0  0
    4.1920   69.6820   66.6930 C   0  0  0  0  0  0  0  0  0  0  0  0
    3.3620   70.0950   68.9950 N   0  0  0  0  0  4  0  0  0  0  0  0
    2.4280   69.3060   68.7900 O   0  0  0  0  0  0  0  0  0  0  0  0
    3.4510   70.8430   69.9770 O   0  0  0  0  0  1  0  0  0  0  0  0
    4.0750   68.1460   64.0360 C   0  0  0  0  0  0  0  0  0  0  0  0
    4.5110   67.0010   64.0650 O   0  0  0  0  0  0  0  0  0  0  0  0
    2.6450   68.4290   63.7340 C   0  0  0  0  0  0  0  0  0  0  0  0
    2.2880   68.6650   62.3960 C   0  0  0  0  0  0  0  0  0  0  0  0
    0.9600   68.9290   62.0490 C   0  0  0  0  0  0  0  0  0  0  0  0
   -0.0250   68.9560   63.0340 C   0  0  0  0  0  0  0  0  0  0  0  0
    0.3280   68.7150   64.3680 C   0  0  0  0  0  0  0  0  0  0  0  0
    1.6600   68.4510   64.7280 C   0  0  0  0  0  0  0  0  0  0  0  0
   -0.7110   68.7290   65.4050 N   0  0  0  0  0  4  0  0  0  0  0  0
   -0.3400   68.7860   66.5860 O   0  0  0  0  0  0  0  0  0  0  0  0
   -1.8920   68.6750   65.0370 O   0  0  0  0  0  1  0  0  0  0  0  0
    7.2622   70.3454   65.3446 H   0  0  0  0  0  0  0  0  0  0  0  0
    7.6754   71.1666   67.6592 H   0  0  0  0  0  0  0  0  0  0  0  0
    5.8581   71.0466   69.3711 H   0  0  0  0  0  0  0  0  0  0  0  0
    3.2091   69.2660   66.4267 H   0  0  0  0  0  0  0  0  0  0  0  0
    3.0611   68.6418   61.6138 H   0  0  0  0  0  0  0  0  0  0  0  0
    0.6926   69.1154   60.9984 H   0  0  0  0  0  0  0  0  0  0  0  0
   -1.0713   69.1649   62.7663 H   0  0  0  0  0  0  0  0  0  0  0  0
    1.9257   68.2638   65.7789 H   0  0  0  0  0  0  0  0  0  0  0  0
  2  1  2  0
  3  2  1  0
  4  3  2  0
  5  4  1  0
  6  5  2  0
  7  6  1  0
  8  7  2  0
  8  3  1  0
  9  7  1  0
 10  9  2  0
 11  9  1  0
 12  2  1  0
 13 12  2  0
 14 12  1  0
 15 14  2  0
 16 15  1  0
 17 16  2  0
 18 17  1  0
 19 18  2  0
 19 14  1  0
 20 18  1  0
 21 20  2  0
 22 20  1  0
  4 23  1  0
  5 24  1  0
  6 25  1  0
  8 26  1  0
 15 27  1  0
 16 28  1  0
 17 29  1  0
 19 30  1  0
M  CHG  4   9   1  11  -1  20   1  22  -1
M  END
>  <score>  (4) 
-9.913

$$$$
=
     RDKit          3D

 30 31  0  0  0  0  0  0  0  0999 V2000
    1.5040   69.7440   67.9700 O   0  0  0  0  0  0  0  0  0  0  0  0
    2.2680   69.2300   67.1600 C   0  0  0  0  0  0  0  0  0  0  0  0
    3.6910   69.6460   67.0560 C   0  0  0  0  0  0  0  0  0  0  0  0
    4.3030   69.6030   65.7940 C   0  0  0  0  0  0  0  0  0  0  0  0
    5.6350   69.9890   65.6320 C   0  0  0  0  0  0  0  0  0  0  0  0
    6.3720   70.4280   66.7310 C   0  0  0  0  0  0  0  0  0  0  0  0
    5.7630   70.4760   67.9920 C   0  0  0  0  0  0  0  0  0  0  0  0
    4.4240   70.0890   68.1640 C   0  0  0  0  0  0  0  0  0  0  0  0
    6.5330   70.9510   69.1470 N   0  0  0  0  0  4  0  0  0  0  0  0
    6.2210   70.5110   70.2630 O   0  0  0  0  0  0  0  0  0  0  0  0
    7.4400   71.7690   68.9390 O   0  0  0  0  0  1  0  0  0  0  0  0
    1.7280   68.1340   66.2700 C   0  0  0  0  0  0  0  0  0  0  0  0
    1.5400   67.0280   66.7640 O   0  0  0  0  0  0  0  0  0  0  0  0
    1.4200   68.4130   64.8410 C   0  0  0  0  0  0  0  0  0  0  0  0
    0.1380   68.8920   64.5240 C   0  0  0  0  0  0  0  0  0  0  0  0
   -0.2080   69.1790   63.2010 C   0  0  0  0  0  0  0  0  0  0  0  0
    0.7230   68.9960   62.1810 C   0  0  0  0  0  0  0  0  0  0  0  0
    2.0050   68.5240   62.4960 C   0  0  0  0  0  0  0  0  0  0  0  0
    2.3610   68.2300   63.8210 C   0  0  0  0  0  0  0  0  0  0  0  0
    2.9920   68.3430   61.4240 N   0  0  0  0  0  4  0  0  0  0  0  0
    3.8140   67.4260   61.5530 O   0  0  0  0  0  0  0  0  0  0  0  0
    2.9470   69.1230   60.4630 O   0  0  0  0  0  1  0  0  0  0  0  0
    3.7264   69.2611   64.9218 H   0  0  0  0  0  0  0  0  0  0  0  0
    6.1029   69.9467   64.6374 H   0  0  0  0  0  0  0  0  0  0  0  0
    7.4216   70.7338   66.6093 H   0  0  0  0  0  0  0  0  0  0  0  0
    3.9559   70.1334   69.1585 H   0  0  0  0  0  0  0  0  0  0  0  0
   -0.6006   69.0426   65.3251 H   0  0  0  0  0  0  0  0  0  0  0  0
   -1.2163   69.5497   62.9647 H   0  0  0  0  0  0  0  0  0  0  0  0
    0.4547   69.2198   61.1380 H   0  0  0  0  0  0  0  0  0  0  0  0
    3.3697   67.8593   64.0559 H   0  0  0  0  0  0  0  0  0  0  0  0
  2  1  2  0
  3  2  1  0
  4  3  2  0
  5  4  1  0
  6  5  2  0
  7  6  1  0
  8  7  2  0
  8  3  1  0
  9  7  1  0
 10  9  2  0
 11  9  1  0
 12  2  1  0
 13 12  2  0
 14 12  1  0
 15 14  2  0
 16 15  1  0
 17 16  2  0
 18 17  1  0
 19 18  2  0
 19 14  1  0
 20 18  1  0
 21 20  2  0
 22 20  1  0
  4 23  1  0
  5 24  1  0
  6 25  1  0
  8 26  1  0
 15 27  1  0
 16 28  1  0
 17 29  1  0
 19 30  1  0
M  CHG  4   9   1  11  -1  20   1  22  -1
M  END
>  <score>  (5) 
-9.875

$$$$
=
     RDKit          3D

 30 31  0  0  0  0  0  0  0  0999 V2000
    1.1350   67.1770   66.7060 O   0  0  0  0  0  0  0  0  0  0  0  0
    1.4630   68.2390   66.1900 C   0  0  0  0  0  0  0  0  0  0  0  0
    1.2640   68.4950   64.7390 C   0  0  0  0  0  0  0  0  0  0  0  0
    0.0200   68.9940   64.3200 C   0  0  0  0  0  0  0  0  0  0  0  0
   -0.2250   69.2610   62.9710 C   0  0  0  0  0  0  0  0  0  0  0  0
    0.7730   69.0370   62.0240 C   0  0  0  0  0  0  0  0  0  0  0  0
    2.0170   68.5440   62.4400 C   0  0  0  0  0  0  0  0  0  0  0  0
    2.2710   68.2710   63.7940 C   0  0  0  0  0  0  0  0  0  0  0  0
    3.0730   68.3210   61.4460 N   0  0  0  0  0  4  0  0  0  0  0  0
    3.1110   69.0830   60.4690 O   0  0  0  0  0  0  0  0  0  0  0  0
    3.8560   67.3800   61.6380 O   0  0  0  0  0  1  0  0  0  0  0  0
    2.0650   69.3050   67.0760 C   0  0  0  0  0  0  0  0  0  0  0  0
    1.3270   69.8910   67.8590 O   0  0  0  0  0  0  0  0  0  0  0  0
    3.5200   69.6080   67.0010 C   0  0  0  0  0  0  0  0  0  0  0  0
    4.1720   69.4140   65.7720 C   0  0  0  0  0  0  0  0  0  0  0  0
    5.5360   69.6880   65.6370 C   0  0  0  0  0  0  0  0  0  0  0  0
    6.2620   70.1620   66.7280 C   0  0  0  0  0  0  0  0  0  0  0  0
    5.6130   70.3610   67.9530 C   0  0  0  0  0  0  0  0  0  0  0  0
    4.2440   70.0870   68.0990 C   0  0  0  0  0  0  0  0  0  0  0  0
    6.3740   70.8730   69.1000 N   0  0  0  0  0  4  0  0  0  0  0  0
    6.0390   70.4850   70.2270 O   0  0  0  0  0  0  0  0  0  0  0  0
    7.2960   71.6670   68.8690 O   0  0  0  0  0  1  0  0  0  0  0  0
   -0.7706   69.1767   65.0627 H   0  0  0  0  0  0  0  0  0  0  0  0
   -1.2053   69.6480   62.6560 H   0  0  0  0  0  0  0  0  0  0  0  0
    0.5858   69.2452   60.9602 H   0  0  0  0  0  0  0  0  0  0  0  0
    3.2519   67.8849   64.1083 H   0  0  0  0  0  0  0  0  0  0  0  0
    3.6032   69.0426   64.9068 H   0  0  0  0  0  0  0  0  0  0  0  0
    6.0361   69.5296   64.6701 H   0  0  0  0  0  0  0  0  0  0  0  0
    7.3359   70.3781   66.6278 H   0  0  0  0  0  0  0  0  0  0  0  0
    3.7453   70.2471   69.0663 H   0  0  0  0  0  0  0  0  0  0  0  0
  2  1  2  0
  3  2  1  0
  4  3  2  0
  5  4  1  0
  6  5  2  0
  7  6  1  0
  8  7  2  0
  8  3  1  0
  9  7  1  0
 10  9  2  0
 11  9  1  0
 12  2  1  0
 13 12  2  0
 14 12  1  0
 15 14  2  0
 16 15  1  0
 17 16  2  0
 18 17  1  0
 19 18  2  0
 19 14  1  0
 20 18  1  0
 21 20  2  0
 22 20  1  0
  4 23  1  0
  5 24  1  0
  6 25  1  0
  8 26  1  0
 15 27  1  0
 16 28  1  0
 17 29  1  0
 19 30  1  0
M  CHG  4   9   1  11  -1  20   1  22  -1
M  END
>  <score>  (6) 
-9.871

$$$$
=
     RDKit          3D

 30 31  0  0  0  0  0  0  0  0999 V2000
    4.3460   67.0880   64.6300 O   0  0  0  0  0  0  0  0  0  0  0  0
    3.8460   68.2050   64.7080 C   0  0  0  0  0  0  0  0  0  0  0  0
    2.4170   68.4440   64.3770 C   0  0  0  0  0  0  0  0  0  0  0  0
    2.0980   68.8490   63.0710 C   0  0  0  0  0  0  0  0  0  0  0  0
    0.7720   69.0820   62.6990 C   0  0  0  0  0  0  0  0  0  0  0  0
   -0.2530   68.9100   63.6270 C   0  0  0  0  0  0  0  0  0  0  0  0
    0.0610   68.5010   64.9300 C   0  0  0  0  0  0  0  0  0  0  0  0
    1.3910   68.2660   65.3130 C   0  0  0  0  0  0  0  0  0  0  0  0
   -1.0180   68.3060   65.9050 N   0  0  0  0  0  4  0  0  0  0  0  0
   -1.8220   69.2360   66.0650 O   0  0  0  0  0  0  0  0  0  0  0  0
   -1.0560   67.2280   66.5150 O   0  0  0  0  0  1  0  0  0  0  0  0
    4.7220   69.3450   65.1730 C   0  0  0  0  0  0  0  0  0  0  0  0
    5.4340   69.9020   64.3460 O   0  0  0  0  0  0  0  0  0  0  0  0
    4.6920   69.7810   66.5960 C   0  0  0  0  0  0  0  0  0  0  0  0
    3.4560   69.7690   67.2640 C   0  0  0  0  0  0  0  0  0  0  0  0
    3.3650   70.1590   68.6020 C   0  0  0  0  0  0  0  0  0  0  0  0
    4.5080   70.5620   69.2900 C   0  0  0  0  0  0  0  0  0  0  0  0
    5.7430   70.5680   68.6270 C   0  0  0  0  0  0  0  0  0  0  0  0
    5.8440   70.1800   67.2820 C   0  0  0  0  0  0  0  0  0  0  0  0
    6.9510   70.9790   69.3540 N   0  0  0  0  0  4  0  0  0  0  0  0
    7.6960   71.8030   68.8060 O   0  0  0  0  0  0  0  0  0  0  0  0
    7.1550   70.4700   70.4650 O   0  0  0  0  0  1  0  0  0  0  0  0
    2.9017   68.9844   62.3322 H   0  0  0  0  0  0  0  0  0  0  0  0
    0.5368   69.4014   61.6730 H   0  0  0  0  0  0  0  0  0  0  0  0
   -1.2988   69.0935   63.3395 H   0  0  0  0  0  0  0  0  0  0  0  0
    1.6249   67.9450   66.3388 H   0  0  0  0  0  0  0  0  0  0  0  0
    2.5505   69.4491   66.7276 H   0  0  0  0  0  0  0  0  0  0  0  0
    2.3909   70.1481   69.1129 H   0  0  0  0  0  0  0  0  0  0  0  0
    4.4417   70.8724   70.3432 H   0  0  0  0  0  0  0  0  0  0  0  0
    6.8189   70.1895   66.7726 H   0  0  0  0  0  0  0  0  0  0  0  0
  2  1  2  0
  3  2  1  0
  4  3  2  0
  5  4  1  0
  6  5  2  0
  7  6  1  0
  8  7  2  0
  8  3  1  0
  9  7  1  0
 10  9  2  0
 11  9  1  0
 12  2  1  0
 13 12  2  0
 14 12  1  0
 15 14  2  0
 16 15  1  0
 17 16  2  0
 18 17  1  0
 19 18  2  0
 19 14  1  0
 20 18  1  0
 21 20  2  0
 22 20  1  0
  4 23  1  0
  5 24  1  0
  6 25  1  0
  8 26  1  0
 15 27  1  0
 16 28  1  0
 17 29  1  0
 19 30  1  0
M  CHG  4   9   1  11  -1  20   1  22  -1
M  END
>  <score>  (7) 
-9.678

$$$$
=
     RDKit          3D

 30 31  0  0  0  0  0  0  0  0999 V2000
    3.6630   68.9770   63.4460 O   0  0  0  0  0  0  0  0  0  0  0  0
    3.5460   68.6460   64.6200 C   0  0  0  0  0  0  0  0  0  0  0  0
    4.3040   69.3270   65.7020 C   0  0  0  0  0  0  0  0  0  0  0  0
    5.6090   69.7610   65.4240 C   0  0  0  0  0  0  0  0  0  0  0  0
    6.3680   70.4140   66.3980 C   0  0  0  0  0  0  0  0  0  0  0  0
    5.8300   70.6450   67.6620 C   0  0  0  0  0  0  0  0  0  0  0  0
    4.5250   70.2180   67.9420 C   0  0  0  0  0  0  0  0  0  0  0  0
    3.7560   69.5590   66.9690 C   0  0  0  0  0  0  0  0  0  0  0  0
    3.9510   70.4730   69.2680 N   0  0  0  0  0  4  0  0  0  0  0  0
    2.7190   70.5850   69.3470 O   0  0  0  0  0  0  0  0  0  0  0  0
    4.7320   70.5700   70.2250 O   0  0  0  0  0  1  0  0  0  0  0  0
    2.5850   67.5270   64.9520 C   0  0  0  0  0  0  0  0  0  0  0  0
    3.0010   66.3760   64.9110 O   0  0  0  0  0  0  0  0  0  0  0  0
    1.1800   67.8350   65.3350 C   0  0  0  0  0  0  0  0  0  0  0  0
    0.4450   68.7020   64.5090 C   0  0  0  0  0  0  0  0  0  0  0  0
   -0.8800   69.0240   64.8130 C   0  0  0  0  0  0  0  0  0  0  0  0
   -1.4880   68.4800   65.9430 C   0  0  0  0  0  0  0  0  0  0  0  0
   -0.7590   67.6100   66.7650 C   0  0  0  0  0  0  0  0  0  0  0  0
    0.5740   67.2830   66.4700 C   0  0  0  0  0  0  0  0  0  0  0  0
   -1.4020   67.0250   67.9480 N   0  0  0  0  0  4  0  0  0  0  0  0
   -0.6850   66.3890   68.7320 O   0  0  0  0  0  0  0  0  0  0  0  0
   -2.6210   67.1950   68.0830 O   0  0  0  0  0  1  0  0  0  0  0  0
    6.0395   69.5849   64.4272 H   0  0  0  0  0  0  0  0  0  0  0  0
    7.3909   70.7459   66.1668 H   0  0  0  0  0  0  0  0  0  0  0  0
    6.4239   71.1577   68.4330 H   0  0  0  0  0  0  0  0  0  0  0  0
    2.7327   69.2283   67.2004 H   0  0  0  0  0  0  0  0  0  0  0  0
    0.9178   69.1317   63.6136 H   0  0  0  0  0  0  0  0  0  0  0  0
   -1.4435   69.7070   64.1604 H   0  0  0  0  0  0  0  0  0  0  0  0
   -2.5306   68.7313   66.1874 H   0  0  0  0  0  0  0  0  0  0  0  0
    1.1365   66.6002   67.1238 H   0  0  0  0  0  0  0  0  0  0  0  0
  2  1  2  0
  3  2  1  0
  4  3  2  0
  5  4  1  0
  6  5  2  0
  7  6  1  0
  8  7  2  0
  8  3  1  0
  9  7  1  0
 10  9  2  0
 11  9  1  0
 12  2  1  0
 13 12  2  0
 14 12  1  0
 15 14  2  0
 16 15  1  0
 17 16  2  0
 18 17  1  0
 19 18  2  0
 19 14  1  0
 20 18  1  0
 21 20  2  0
 22 20  1  0
  4 23  1  0
  5 24  1  0
  6 25  1  0
  8 26  1  0
 15 27  1  0
 16 28  1  0
 17 29  1  0
 19 30  1  0
M  CHG  4   9   1  11  -1  20   1  22  -1
M  END
>  <score>  (8) 
-9.598

$$$$
=
     RDKit          3D

 30 31  0  0  0  0  0  0  0  0999 V2000
    0.9100   69.0850   64.5390 O   0  0  0  0  0  0  0  0  0  0  0  0
    1.7730   68.3560   65.0140 C   0  0  0  0  0  0  0  0  0  0  0  0
    2.7270   67.6120   64.1510 C   0  0  0  0  0  0  0  0  0  0  0  0
    3.3000   68.2870   63.0620 C   0  0  0  0  0  0  0  0  0  0  0  0
    4.2080   67.6430   62.2190 C   0  0  0  0  0  0  0  0  0  0  0  0
    4.5600   66.3160   62.4580 C   0  0  0  0  0  0  0  0  0  0  0  0
    3.9950   65.6400   63.5470 C   0  0  0  0  0  0  0  0  0  0  0  0
    3.0790   66.2800   64.3980 C   0  0  0  0  0  0  0  0  0  0  0  0
    4.3750   64.2470   63.8080 N   0  0  0  0  0  4  0  0  0  0  0  0
    3.5170   63.5030   64.3060 O   0  0  0  0  0  0  0  0  0  0  0  0
    5.5300   63.9020   63.5250 O   0  0  0  0  0  1  0  0  0  0  0  0
    1.8600   68.2440   66.5190 C   0  0  0  0  0  0  0  0  0  0  0  0
    1.1890   67.3840   67.0750 O   0  0  0  0  0  0  0  0  0  0  0  0
    2.7590   69.1490   67.2860 C   0  0  0  0  0  0  0  0  0  0  0  0
    2.2920   69.6620   68.5080 C   0  0  0  0  0  0  0  0  0  0  0  0
    3.0930   70.5110   69.2770 C   0  0  0  0  0  0  0  0  0  0  0  0
    4.3700   70.8530   68.8360 C   0  0  0  0  0  0  0  0  0  0  0  0
    4.8390   70.3380   67.6200 C   0  0  0  0  0  0  0  0  0  0  0  0
    4.0420   69.4870   66.8400 C   0  0  0  0  0  0  0  0  0  0  0  0
    6.1900   70.6870   67.1610 N   0  0  0  0  0  4  0  0  0  0  0  0
    7.1070   70.6340   67.9920 O   0  0  0  0  0  0  0  0  0  0  0  0
    6.3270   71.0210   65.9770 O   0  0  0  0  0  1  0  0  0  0  0  0
    3.0305   69.3361   62.8703 H   0  0  0  0  0  0  0  0  0  0  0  0
    4.6454   68.1831   61.3664 H   0  0  0  0  0  0  0  0  0  0  0  0
    5.2751   65.8040   61.7974 H   0  0  0  0  0  0  0  0  0  0  0  0
    2.6423   65.7394   65.2507 H   0  0  0  0  0  0  0  0  0  0  0  0
    1.2862   69.3928   68.8629 H   0  0  0  0  0  0  0  0  0  0  0  0
    2.7154   70.9092   70.2303 H   0  0  0  0  0  0  0  0  0  0  0  0
    5.0042   71.5212   69.4371 H   0  0  0  0  0  0  0  0  0  0  0  0
    4.4216   69.0892   65.8873 H   0  0  0  0  0  0  0  0  0  0  0  0
  2  1  2  0
  3  2  1  0
  4  3  2  0
  5  4  1  0
  6  5  2  0
  7  6  1  0
  8  7  2  0
  8  3  1  0
  9  7  1  0
 10  9  2  0
 11  9  1  0
 12  2  1  0
 13 12  2  0
 14 12  1  0
 15 14  2  0
 16 15  1  0
 17 16  2  0
 18 17  1  0
 19 18  2  0
 19 14  1  0
 20 18  1  0
 21 20  2  0
 22 20  1  0
  4 23  1  0
  5 24  1  0
  6 25  1  0
  8 26  1  0
 15 27  1  0
 16 28  1  0
 17 29  1  0
 19 30  1  0
M  CHG  4   9   1  11  -1  20   1  22  -1
M  END
>  <score>  (9) 
-9.289

$$$$
