=
     RDKit          3D

 58 59  0  0  0  0  0  0  0  0999 V2000
    3.7240   68.0480   64.6700 C   0  0  0  0  0  0  0  0  0  0  0  0
    3.4450   69.0500   63.5020 C   0  0  0  0  0  0  0  0  0  0  0  0
    4.4250   68.9340   62.3380 C   0  0  0  0  0  0  0  0  0  0  0  0
    4.4090   67.5400   61.7200 C   0  0  0  0  0  0  0  0  0  0  0  0
    4.2230   66.4270   62.7470 C   0  0  0  0  0  0  0  0  0  0  0  0
    4.6020   66.8680   64.1610 C   0  0  0  0  0  0  0  0  0  0  0  0
    4.3790   68.7770   65.9080 C   0  0  0  0  0  0  0  0  0  0  0  0
    3.4240   69.6690   66.7200 C   0  0  0  0  0  0  0  0  0  0  0  0
    4.0600   70.1490   68.0290 C   0  0  0  0  0  0  0  0  0  0  0  0
    5.5780   70.3110   67.9530 C   0  0  0  0  0  0  0  0  0  0  0  0
    6.0300   70.6640   66.5460 C   0  0  0  0  0  0  0  0  0  0  0  0
    5.6520   69.5790   65.5330 C   0  0  0  0  0  0  0  0  0  0  0  0
    2.3320   67.5880   65.1550 C   0  0  0  0  0  0  0  0  0  0  0  0
    2.1130   66.5190   65.7120 O   0  0  0  0  0  0  0  0  0  0  0  0
    1.3430   68.4930   64.9080 O   0  0  0  0  0  0  0  0  0  0  0  0
    0.0300   68.1050   65.3680 C   0  0  0  0  0  0  0  0  0  0  0  0
   -0.1800   68.4700   66.8430 C   0  0  0  0  0  0  0  0  0  0  0  0
    0.0680   67.2450   67.7310 N   0  0  0  0  0  4  0  0  0  0  0  0
    0.9990   66.4750   69.9060 C   0  0  0  0  0  0  0  0  0  0  0  0
    1.1020   67.5170   68.8060 C   0  0  0  0  0  0  0  0  0  0  0  0
   -1.2230   66.6820   68.2960 C   0  0  0  0  0  0  0  0  0  0  0  0
   -2.4170   67.2290   67.5320 C   0  0  0  0  0  0  0  0  0  0  0  0
    2.4306   68.8625   63.1202 H   0  0  0  0  0  0  0  0  0  0  0  0
    3.5610   70.0624   63.9163 H   0  0  0  0  0  0  0  0  0  0  0  0
    4.1500   69.6685   61.5667 H   0  0  0  0  0  0  0  0  0  0  0  0
    5.4374   69.1252   62.7235 H   0  0  0  0  0  0  0  0  0  0  0  0
    3.5827   67.4886   60.9958 H   0  0  0  0  0  0  0  0  0  0  0  0
    5.3880   67.3835   61.2434 H   0  0  0  0  0  0  0  0  0  0  0  0
    3.1675   66.1173   62.7447 H   0  0  0  0  0  0  0  0  0  0  0  0
    4.8878   65.5970   62.4655 H   0  0  0  0  0  0  0  0  0  0  0  0
    4.4760   66.0142   64.8430 H   0  0  0  0  0  0  0  0  0  0  0  0
    5.6461   67.2134   64.1360 H   0  0  0  0  0  0  0  0  0  0  0  0
    4.6616   67.9404   66.5639 H   0  0  0  0  0  0  0  0  0  0  0  0
    3.1554   70.5463   66.1132 H   0  0  0  0  0  0  0  0  0  0  0  0
    2.5350   69.0727   66.9730 H   0  0  0  0  0  0  0  0  0  0  0  0
    3.6199   71.1222   68.2922 H   0  0  0  0  0  0  0  0  0  0  0  0
    3.8572   69.3772   68.7861 H   0  0  0  0  0  0  0  0  0  0  0  0
    5.8868   71.1131   68.6395 H   0  0  0  0  0  0  0  0  0  0  0  0
    6.0420   69.3543   68.2350 H   0  0  0  0  0  0  0  0  0  0  0  0
    5.5549   71.6100   66.2471 H   0  0  0  0  0  0  0  0  0  0  0  0
    7.1262   70.7546   66.5539 H   0  0  0  0  0  0  0  0  0  0  0  0
    6.4927   68.8742   65.4521 H   0  0  0  0  0  0  0  0  0  0  0  0
    5.4348   70.0928   64.5849 H   0  0  0  0  0  0  0  0  0  0  0  0
   -0.7283   68.6209   64.7607 H   0  0  0  0  0  0  0  0  0  0  0  0
   -0.0626   67.0136   65.2662 H   0  0  0  0  0  0  0  0  0  0  0  0
    0.5213   69.2699   67.1230 H   0  0  0  0  0  0  0  0  0  0  0  0
   -1.2156   68.8127   66.9845 H   0  0  0  0  0  0  0  0  0  0  0  0
    0.4663   66.5129   67.1258 H   0  0  0  0  0  0  0  0  0  0  0  0
    1.0480   66.9710   70.8866 H   0  0  0  0  0  0  0  0  0  0  0  0
    0.0434   65.9380   69.8141 H   0  0  0  0  0  0  0  0  0  0  0  0
    1.8310   65.7613   69.8141 H   0  0  0  0  0  0  0  0  0  0  0  0
    0.9281   68.5155   69.2335 H   0  0  0  0  0  0  0  0  0  0  0  0
    2.1061   67.4703   68.3593 H   0  0  0  0  0  0  0  0  0  0  0  0
   -1.2088   65.5855   68.2100 H   0  0  0  0  0  0  0  0  0  0  0  0
   -1.3092   66.9765   69.3523 H   0  0  0  0  0  0  0  0  0  0  0  0
   -3.1792   67.5782   68.2441 H   0  0  0  0  0  0  0  0  0  0  0  0
   -2.0940   68.0689   66.8994 H   0  0  0  0  0  0  0  0  0  0  0  0
   -2.8422   66.4359   66.8994 H   0  0  0  0  0  0  0  0  0  0  0  0
  2  1  1  0
  3  2  1  0
  4  3  1  0
  5  4  1  0
  6  5  1  0
  6  1  1  0
  7  1  1  0
  8  7  1  0
  9  8  1  0
 10  9  1  0
 11 10  1  0
 12  7  1  0
 12 11  1  0
 13  1  1  0
 14 13  2  0
 15 13  1  0
 16 15  1  0
 17 16  1  0
 18 17  1  0
 20 19  1  0
 20 18  1  0
 21 18  1  0
 22 21  1  0
  2 23  1  0
  2 24  1  0
  3 25  1  0
  3 26  1  0
  4 27  1  0
  4 28  1  0
  5 29  1  0
  5 30  1  0
  6 31  1  0
  6 32  1  0
  7 33  1  0
  8 34  1  0
  8 35  1  0
  9 36  1  0
  9 37  1  0
 10 38  1  0
 10 39  1  0
 11 40  1  0
 11 41  1  0
 12 42  1  0
 12 43  1  0
 16 44  1  0
 16 45  1  0
 17 46  1  0
 17 47  1  0
 18 48  1  0
 19 49  1  0
 19 50  1  0
 19 51  1  0
 20 52  1  0
 20 53  1  0
 21 54  1  0
 21 55  1  0
 22 56  1  0
 22 57  1  0
 22 58  1  0
M  CHG  1  18   1
M  END
>  <score>  (1) 
-8.425

$$$$
=
     RDKit          3D

 58 59  0  0  0  0  0  0  0  0999 V2000
    0.3980   68.3310   66.7130 C   0  0  0  0  0  0  0  0  0  0  0  0
   -0.6660   69.4770   66.7160 C   0  0  0  0  0  0  0  0  0  0  0  0
   -2.0280   69.0600   66.1670 C   0  0  0  0  0  0  0  0  0  0  0  0
   -2.6340   67.9110   66.9650 C   0  0  0  0  0  0  0  0  0  0  0  0
   -1.5990   66.8960   67.4420 C   0  0  0  0  0  0  0  0  0  0  0  0
   -0.3100   66.9480   66.6220 C   0  0  0  0  0  0  0  0  0  0  0  0
    1.4530   68.5290   65.5550 C   0  0  0  0  0  0  0  0  0  0  0  0
    0.8630   68.5560   64.1340 C   0  0  0  0  0  0  0  0  0  0  0  0
    1.9010   68.9870   63.0910 C   0  0  0  0  0  0  0  0  0  0  0  0
    3.3350   68.5980   63.4510 C   0  0  0  0  0  0  0  0  0  0  0  0
    3.3740   67.3360   64.2970 C   0  0  0  0  0  0  0  0  0  0  0  0
    2.6190   67.5090   65.6190 C   0  0  0  0  0  0  0  0  0  0  0  0
    1.1920   68.5070   68.0250 C   0  0  0  0  0  0  0  0  0  0  0  0
    1.2510   67.6670   68.9150 O   0  0  0  0  0  0  0  0  0  0  0  0
    1.8400   69.7020   68.1130 O   0  0  0  0  0  0  0  0  0  0  0  0
    2.9150   69.7470   69.0750 C   0  0  0  0  0  0  0  0  0  0  0  0
    3.8660   70.9210   68.8040 C   0  0  0  0  0  0  0  0  0  0  0  0
    5.2320   70.4000   68.3470 N   0  0  0  0  0  4  0  0  0  0  0  0
    6.1330   70.4890   66.0300 C   0  0  0  0  0  0  0  0  0  0  0  0
    5.1750   69.7750   66.9670 C   0  0  0  0  0  0  0  0  0  0  0  0
    6.3120   71.4600   68.4610 C   0  0  0  0  0  0  0  0  0  0  0  0
    7.4340   70.9760   69.3630 C   0  0  0  0  0  0  0  0  0  0  0  0
   -0.8011   69.8211   67.7520 H   0  0  0  0  0  0  0  0  0  0  0  0
   -0.2842   70.2680   66.0538 H   0  0  0  0  0  0  0  0  0  0  0  0
   -2.7091   69.9226   66.2121 H   0  0  0  0  0  0  0  0  0  0  0  0
   -1.8884   68.7193   65.1304 H   0  0  0  0  0  0  0  0  0  0  0  0
   -3.1451   68.3284   67.8451 H   0  0  0  0  0  0  0  0  0  0  0  0
   -3.3274   67.3798   66.2964 H   0  0  0  0  0  0  0  0  0  0  0  0
   -1.3569   67.1064   68.4942 H   0  0  0  0  0  0  0  0  0  0  0  0
   -2.0331   65.8926   67.3208 H   0  0  0  0  0  0  0  0  0  0  0  0
    0.3772   66.1745   66.9954 H   0  0  0  0  0  0  0  0  0  0  0  0
   -0.5765   66.7773   65.5685 H   0  0  0  0  0  0  0  0  0  0  0  0
    1.8473   69.5370   65.7508 H   0  0  0  0  0  0  0  0  0  0  0  0
    0.5011   67.5487   63.8802 H   0  0  0  0  0  0  0  0  0  0  0  0
    0.0421   69.2880   64.1200 H   0  0  0  0  0  0  0  0  0  0  0  0
    1.6443   68.5156   62.1308 H   0  0  0  0  0  0  0  0  0  0  0  0
    1.8694   70.0855   63.0422 H   0  0  0  0  0  0  0  0  0  0  0  0
    3.9017   68.4248   62.5243 H   0  0  0  0  0  0  0  0  0  0  0  0
    3.7791   69.4183   64.0340 H   0  0  0  0  0  0  0  0  0  0  0  0
    2.9136   66.5136   63.7298 H   0  0  0  0  0  0  0  0  0  0  0  0
    4.4259   67.1164   64.5321 H   0  0  0  0  0  0  0  0  0  0  0  0
    3.3338   67.8493   66.3827 H   0  0  0  0  0  0  0  0  0  0  0  0
    2.1727   66.5326   65.8588 H   0  0  0  0  0  0  0  0  0  0  0  0
    2.4881   69.8585   70.0826 H   0  0  0  0  0  0  0  0  0  0  0  0
    3.4895   68.8125   68.9934 H   0  0  0  0  0  0  0  0  0  0  0  0
    3.4391   71.5604   68.0172 H   0  0  0  0  0  0  0  0  0  0  0  0
    3.9942   71.5005   69.7302 H   0  0  0  0  0  0  0  0  0  0  0  0
    5.4949   69.6438   68.9951 H   0  0  0  0  0  0  0  0  0  0  0  0
    6.8775   71.0439   66.6198 H   0  0  0  0  0  0  0  0  0  0  0  0
    6.6445   69.7501   65.3957 H   0  0  0  0  0  0  0  0  0  0  0  0
    5.5710   71.1903   65.3957 H   0  0  0  0  0  0  0  0  0  0  0  0
    4.1515   69.8572   66.5725 H   0  0  0  0  0  0  0  0  0  0  0  0
    5.4647   68.7163   67.0394 H   0  0  0  0  0  0  0  0  0  0  0  0
    6.7173   71.6739   67.4610 H   0  0  0  0  0  0  0  0  0  0  0  0
    5.8738   72.3716   68.8935 H   0  0  0  0  0  0  0  0  0  0  0  0
    7.1393   71.1031   70.4151 H   0  0  0  0  0  0  0  0  0  0  0  0
    7.6319   69.9125   69.1636 H   0  0  0  0  0  0  0  0  0  0  0  0
    8.3434   71.5619   69.1636 H   0  0  0  0  0  0  0  0  0  0  0  0
  2  1  1  0
  3  2  1  0
  4  3  1  0
  5  4  1  0
  6  5  1  0
  6  1  1  0
  7  1  1  0
  8  7  1  0
  9  8  1  0
 10  9  1  0
 11 10  1  0
 12  7  1  0
 12 11  1  0
 13  1  1  0
 14 13  2  0
 15 13  1  0
 16 15  1  0
 17 16  1  0
 18 17  1  0
 20 19  1  0
 20 18  1  0
 21 18  1  0
 22 21  1  0
  2 23  1  0
  2 24  1  0
  3 25  1  0
  3 26  1  0
  4 27  1  0
  4 28  1  0
  5 29  1  0
  5 30  1  0
  6 31  1  0
  6 32  1  0
  7 33  1  0
  8 34  1  0
  8 35  1  0
  9 36  1  0
  9 37  1  0
 10 38  1  0
 10 39  1  0
 11 40  1  0
 11 41  1  0
 12 42  1  0
 12 43  1  0
 16 44  1  0
 16 45  1  0
 17 46  1  0
 17 47  1  0
 18 48  1  0
 19 49  1  0
 19 50  1  0
 19 51  1  0
 20 52  1  0
 20 53  1  0
 21 54  1  0
 21 55  1  0
 22 56  1  0
 22 57  1  0
 22 58  1  0
M  CHG  1  18   1
M  END
>  <score>  (2) 
-8.115

$$$$
=
     RDKit          3D

 58 59  0  0  0  0  0  0  0  0999 V2000
    2.8620   68.1360   64.0780 C   0  0  0  0  0  0  0  0  0  0  0  0
    3.4100   68.7550   62.7500 C   0  0  0  0  0  0  0  0  0  0  0  0
    2.4390   68.6650   61.5760 C   0  0  0  0  0  0  0  0  0  0  0  0
    1.1240   69.3790   61.8720 C   0  0  0  0  0  0  0  0  0  0  0  0
    0.6710   69.2330   63.3220 C   0  0  0  0  0  0  0  0  0  0  0  0
    1.3100   68.0300   64.0150 C   0  0  0  0  0  0  0  0  0  0  0  0
    3.5350   66.7400   64.3810 C   0  0  0  0  0  0  0  0  0  0  0  0
    4.3710   66.1560   63.2300 C   0  0  0  0  0  0  0  0  0  0  0  0
    5.1800   64.9310   63.6730 C   0  0  0  0  0  0  0  0  0  0  0  0
    4.5150   64.1240   64.7870 C   0  0  0  0  0  0  0  0  0  0  0  0
    3.0010   64.2320   64.7260 C   0  0  0  0  0  0  0  0  0  0  0  0
    2.5220   65.6780   64.8850 C   0  0  0  0  0  0  0  0  0  0  0  0
    3.3490   69.0780   65.2000 C   0  0  0  0  0  0  0  0  0  0  0  0
    2.7490   69.2680   66.2520 O   0  0  0  0  0  0  0  0  0  0  0  0
    4.5310   69.6950   64.9190 O   0  0  0  0  0  0  0  0  0  0  0  0
    5.5920   69.4470   65.8660 C   0  0  0  0  0  0  0  0  0  0  0  0
    5.9910   70.7270   66.6120 C   0  0  0  0  0  0  0  0  0  0  0  0
    5.9560   70.4900   68.1250 N   0  0  0  0  0  4  0  0  0  0  0  0
    7.2000   70.6240   70.2750 C   0  0  0  0  0  0  0  0  0  0  0  0
    7.3220   70.6590   68.7620 C   0  0  0  0  0  0  0  0  0  0  0  0
    4.8890   71.3260   68.8080 C   0  0  0  0  0  0  0  0  0  0  0  0
    3.7080   70.4560   69.2000 C   0  0  0  0  0  0  0  0  0  0  0  0
    3.6367   69.8161   62.9307 H   0  0  0  0  0  0  0  0  0  0  0  0
    4.3008   68.1729   62.4715 H   0  0  0  0  0  0  0  0  0  0  0  0
    2.9042   69.1274   60.6930 H   0  0  0  0  0  0  0  0  0  0  0  0
    2.2180   67.6026   61.3960 H   0  0  0  0  0  0  0  0  0  0  0  0
    1.2506   70.4493   61.6518 H   0  0  0  0  0  0  0  0  0  0  0  0
    0.3519   68.9146   61.2411 H   0  0  0  0  0  0  0  0  0  0  0  0
    0.9473   70.1449   63.8717 H   0  0  0  0  0  0  0  0  0  0  0  0
   -0.4180   69.0780   63.3186 H   0  0  0  0  0  0  0  0  0  0  0  0
    0.9186   67.9644   65.0409 H   0  0  0  0  0  0  0  0  0  0  0  0
    1.0588   67.1334   63.4293 H   0  0  0  0  0  0  0  0  0  0  0  0
    4.2399   66.9771   65.1915 H   0  0  0  0  0  0  0  0  0  0  0  0
    3.6948   65.8594   62.4147 H   0  0  0  0  0  0  0  0  0  0  0  0
    5.0792   66.9293   62.8975 H   0  0  0  0  0  0  0  0  0  0  0  0
    5.3177   64.2728   62.8025 H   0  0  0  0  0  0  0  0  0  0  0  0
    6.1342   65.3043   64.0731 H   0  0  0  0  0  0  0  0  0  0  0  0
    4.8023   63.0673   64.6831 H   0  0  0  0  0  0  0  0  0  0  0  0
    4.8509   64.5283   65.7533 H   0  0  0  0  0  0  0  0  0  0  0  0
    2.6565   63.8486   63.7542 H   0  0  0  0  0  0  0  0  0  0  0  0
    2.5847   63.6429   65.5565 H   0  0  0  0  0  0  0  0  0  0  0  0
    2.3299   65.8629   65.9522 H   0  0  0  0  0  0  0  0  0  0  0  0
    1.6185   65.7827   64.2664 H   0  0  0  0  0  0  0  0  0  0  0  0
    5.2510   68.6990   66.5969 H   0  0  0  0  0  0  0  0  0  0  0  0
    6.4700   69.0823   65.3127 H   0  0  0  0  0  0  0  0  0  0  0  0
    7.0085   71.0194   66.3134 H   0  0  0  0  0  0  0  0  0  0  0  0
    5.2805   71.5272   66.3574 H   0  0  0  0  0  0  0  0  0  0  0  0
    5.6901   69.5051   68.2669 H   0  0  0  0  0  0  0  0  0  0  0  0
    8.1639   70.9005   70.7271 H   0  0  0  0  0  0  0  0  0  0  0  0
    6.4262   71.3364   70.5970 H   0  0  0  0  0  0  0  0  0  0  0  0
    6.9215   69.6097   70.5970 H   0  0  0  0  0  0  0  0  0  0  0  0
    7.7503   71.6242   68.4537 H   0  0  0  0  0  0  0  0  0  0  0  0
    7.9762   69.8376   68.4344 H   0  0  0  0  0  0  0  0  0  0  0  0
    5.3138   71.7893   69.7107 H   0  0  0  0  0  0  0  0  0  0  0  0
    4.5442   72.1043   68.1114 H   0  0  0  0  0  0  0  0  0  0  0  0
    3.6384   70.4047   70.2966 H   0  0  0  0  0  0  0  0  0  0  0  0
    2.7823   70.8896   68.7937 H   0  0  0  0  0  0  0  0  0  0  0  0
    3.8477   69.4434   68.7937 H   0  0  0  0  0  0  0  0  0  0  0  0
  2  1  1  0
  3  2  1  0
  4  3  1  0
  5  4  1  0
  6  5  1  0
  6  1  1  0
  7  1  1  0
  8  7  1  0
  9  8  1  0
 10  9  1  0
 11 10  1  0
 12  7  1  0
 12 11  1  0
 13  1  1  0
 14 13  2  0
 15 13  1  0
 16 15  1  0
 17 16  1  0
 18 17  1  0
 20 19  1  0
 20 18  1  0
 21 18  1  0
 22 21  1  0
  2 23  1  0
  2 24  1  0
  3 25  1  0
  3 26  1  0
  4 27  1  0
  4 28  1  0
  5 29  1  0
  5 30  1  0
  6 31  1  0
  6 32  1  0
  7 33  1  0
  8 34  1  0
  8 35  1  0
  9 36  1  0
  9 37  1  0
 10 38  1  0
 10 39  1  0
 11 40  1  0
 11 41  1  0
 12 42  1  0
 12 43  1  0
 16 44  1  0
 16 45  1  0
 17 46  1  0
 17 47  1  0
 18 48  1  0
 19 49  1  0
 19 50  1  0
 19 51  1  0
 20 52  1  0
 20 53  1  0
 21 54  1  0
 21 55  1  0
 22 56  1  0
 22 57  1  0
 22 58  1  0
M  CHG  1  18   1
M  END
>  <score>  (3) 
-8.061

$$$$
=
     RDKit          3D

 58 59  0  0  0  0  0  0  0  0999 V2000
    0.7590   68.3950   66.4420 C   0  0  0  0  0  0  0  0  0  0  0  0
    0.6230   67.0760   67.2710 C   0  0  0  0  0  0  0  0  0  0  0  0
   -0.5200   67.0940   68.2830 C   0  0  0  0  0  0  0  0  0  0  0  0
   -1.8690   67.3180   67.6090 C   0  0  0  0  0  0  0  0  0  0  0  0
   -1.8030   68.2870   66.4330 C   0  0  0  0  0  0  0  0  0  0  0  0
   -0.5760   69.1950   66.4930 C   0  0  0  0  0  0  0  0  0  0  0  0
    1.9830   69.2610   66.9360 C   0  0  0  0  0  0  0  0  0  0  0  0
    3.3670   68.7220   66.5350 C   0  0  0  0  0  0  0  0  0  0  0  0
    4.4840   69.7270   66.8380 C   0  0  0  0  0  0  0  0  0  0  0  0
    4.1950   70.6260   68.0400 C   0  0  0  0  0  0  0  0  0  0  0  0
    3.3080   69.9270   69.0570 C   0  0  0  0  0  0  0  0  0  0  0  0
    1.9510   69.5380   68.4620 C   0  0  0  0  0  0  0  0  0  0  0  0
    1.1270   67.9430   65.0120 C   0  0  0  0  0  0  0  0  0  0  0  0
    1.1870   66.7740   64.6510 O   0  0  0  0  0  0  0  0  0  0  0  0
    1.3820   68.9780   64.1630 O   0  0  0  0  0  0  0  0  0  0  0  0
    1.1890   68.6840   62.7630 C   0  0  0  0  0  0  0  0  0  0  0  0
    2.5270   68.5980   62.0170 C   0  0  0  0  0  0  0  0  0  0  0  0
    3.6260   68.0960   62.9580 N   0  0  0  0  0  4  0  0  0  0  0  0
    4.3350   65.7850   63.5480 C   0  0  0  0  0  0  0  0  0  0  0  0
    4.2840   66.8290   62.4470 C   0  0  0  0  0  0  0  0  0  0  0  0
    4.6350   69.1810   63.2860 C   0  0  0  0  0  0  0  0  0  0  0  0
    5.9380   68.9310   62.5480 C   0  0  0  0  0  0  0  0  0  0  0  0
    0.4530   66.2440   66.5719 H   0  0  0  0  0  0  0  0  0  0  0  0
    1.5546   66.9632   67.8449 H   0  0  0  0  0  0  0  0  0  0  0  0
   -0.5421   66.1300   68.8124 H   0  0  0  0  0  0  0  0  0  0  0  0
   -0.3448   67.9249   68.9822 H   0  0  0  0  0  0  0  0  0  0  0  0
   -2.2414   66.3498   67.2430 H   0  0  0  0  0  0  0  0  0  0  0  0
   -2.5383   67.7628   68.3601 H   0  0  0  0  0  0  0  0  0  0  0  0
   -1.7675   67.7068   65.4991 H   0  0  0  0  0  0  0  0  0  0  0  0
   -2.6961   68.9277   66.4766 H   0  0  0  0  0  0  0  0  0  0  0  0
   -0.6062   69.8863   65.6379 H   0  0  0  0  0  0  0  0  0  0  0  0
   -0.6060   69.7357   67.4505 H   0  0  0  0  0  0  0  0  0  0  0  0
    1.8465   70.2095   66.3960 H   0  0  0  0  0  0  0  0  0  0  0  0
    3.5625   67.7946   67.0934 H   0  0  0  0  0  0  0  0  0  0  0  0
    3.3594   68.5390   65.4504 H   0  0  0  0  0  0  0  0  0  0  0  0
    5.4095   69.1671   67.0381 H   0  0  0  0  0  0  0  0  0  0  0  0
    4.5711   70.3839   65.9600 H   0  0  0  0  0  0  0  0  0  0  0  0
    5.1465   70.8963   68.5213 H   0  0  0  0  0  0  0  0  0  0  0  0
    3.6690   71.5232   67.6817 H   0  0  0  0  0  0  0  0  0  0  0  0
    3.8170   69.0165   69.4062 H   0  0  0  0  0  0  0  0  0  0  0  0
    3.1277   70.6249   69.8879 H   0  0  0  0  0  0  0  0  0  0  0  0
    1.2438   70.3596   68.6489 H   0  0  0  0  0  0  0  0  0  0  0  0
    1.6498   68.5983   68.9481 H   0  0  0  0  0  0  0  0  0  0  0  0
    0.6647   67.7216   62.6688 H   0  0  0  0  0  0  0  0  0  0  0  0
    0.5972   69.4974   62.3178 H   0  0  0  0  0  0  0  0  0  0  0  0
    2.4272   67.9021   61.1710 H   0  0  0  0  0  0  0  0  0  0  0  0
    2.7983   69.5989   61.6501 H   0  0  0  0  0  0  0  0  0  0  0  0
    3.1661   67.8460   63.8451 H   0  0  0  0  0  0  0  0  0  0  0  0
    4.3106   66.2841   64.5280 H   0  0  0  0  0  0  0  0  0  0  0  0
    3.4686   65.1134   63.4569 H   0  0  0  0  0  0  0  0  0  0  0  0
    5.2627   65.2011   63.4569 H   0  0  0  0  0  0  0  0  0  0  0  0
    5.3076   67.0589   62.1164 H   0  0  0  0  0  0  0  0  0  0  0  0
    3.6974   66.4342   61.6044 H   0  0  0  0  0  0  0  0  0  0  0  0
    4.2286   70.1575   62.9838 H   0  0  0  0  0  0  0  0  0  0  0  0
    4.8301   69.1721   64.3685 H   0  0  0  0  0  0  0  0  0  0  0  0
    6.7478   68.7756   63.2761 H   0  0  0  0  0  0  0  0  0  0  0  0
    5.8359   68.0361   61.9166 H   0  0  0  0  0  0  0  0  0  0  0  0
    6.1744   69.8002   61.9166 H   0  0  0  0  0  0  0  0  0  0  0  0
  2  1  1  0
  3  2  1  0
  4  3  1  0
  5  4  1  0
  6  5  1  0
  6  1  1  0
  7  1  1  0
  8  7  1  0
  9  8  1  0
 10  9  1  0
 11 10  1  0
 12  7  1  0
 12 11  1  0
 13  1  1  0
 14 13  2  0
 15 13  1  0
 16 15  1  0
 17 16  1  0
 18 17  1  0
 20 19  1  0
 20 18  1  0
 21 18  1  0
 22 21  1  0
  2 23  1  0
  2 24  1  0
  3 25  1  0
  3 26  1  0
  4 27  1  0
  4 28  1  0
  5 29  1  0
  5 30  1  0
  6 31  1  0
  6 32  1  0
  7 33  1  0
  8 34  1  0
  8 35  1  0
  9 36  1  0
  9 37  1  0
 10 38  1  0
 10 39  1  0
 11 40  1  0
 11 41  1  0
 12 42  1  0
 12 43  1  0
 16 44  1  0
 16 45  1  0
 17 46  1  0
 17 47  1  0
 18 48  1  0
 19 49  1  0
 19 50  1  0
 19 51  1  0
 20 52  1  0
 20 53  1  0
 21 54  1  0
 21 55  1  0
 22 56  1  0
 22 57  1  0
 22 58  1  0
M  CHG  1  18   1
M  END
>  <score>  (4) 
-8.035

$$$$
=
     RDKit          3D

 58 59  0  0  0  0  0  0  0  0999 V2000
    0.6360   68.1920   66.7800 C   0  0  0  0  0  0  0  0  0  0  0  0
   -0.3530   69.3290   66.3620 C   0  0  0  0  0  0  0  0  0  0  0  0
   -1.6750   68.8240   65.7920 C   0  0  0  0  0  0  0  0  0  0  0  0
   -2.4250   67.9490   66.7910 C   0  0  0  0  0  0  0  0  0  0  0  0
   -1.5060   67.0670   67.6310 C   0  0  0  0  0  0  0  0  0  0  0  0
   -0.1410   66.8570   66.9760 C   0  0  0  0  0  0  0  0  0  0  0  0
    1.8110   68.0400   65.7370 C   0  0  0  0  0  0  0  0  0  0  0  0
    1.5730   68.7280   64.3820 C   0  0  0  0  0  0  0  0  0  0  0  0
    2.8380   68.7440   63.5160 C   0  0  0  0  0  0  0  0  0  0  0  0
    3.7640   67.5520   63.7570 C   0  0  0  0  0  0  0  0  0  0  0  0
    2.9870   66.3240   64.1990 C   0  0  0  0  0  0  0  0  0  0  0  0
    2.2300   66.5640   65.5090 C   0  0  0  0  0  0  0  0  0  0  0  0
    1.3030   68.6880   68.0810 C   0  0  0  0  0  0  0  0  0  0  0  0
    1.5300   67.9800   69.0550 O   0  0  0  0  0  0  0  0  0  0  0  0
    1.6310   70.0100   68.0550 O   0  0  0  0  0  0  0  0  0  0  0  0
    2.8520   70.3520   68.7450 C   0  0  0  0  0  0  0  0  0  0  0  0
    4.0890   69.8880   67.9650 C   0  0  0  0  0  0  0  0  0  0  0  0
    5.2210   70.9110   68.1100 N   0  0  0  0  0  4  0  0  0  0  0  0
    7.4210   70.9730   69.2700 C   0  0  0  0  0  0  0  0  0  0  0  0
    5.9230   70.8000   69.4500 C   0  0  0  0  0  0  0  0  0  0  0  0
    6.1870   70.8600   66.9420 C   0  0  0  0  0  0  0  0  0  0  0  0
    5.6300   69.9830   65.8340 C   0  0  0  0  0  0  0  0  0  0  0  0
   -0.5706   69.9415   67.2494 H   0  0  0  0  0  0  0  0  0  0  0  0
    0.1401   69.9012   65.5624 H   0  0  0  0  0  0  0  0  0  0  0  0
   -2.3043   69.6882   65.5328 H   0  0  0  0  0  0  0  0  0  0  0  0
   -1.4538   68.2153   64.9029 H   0  0  0  0  0  0  0  0  0  0  0  0
   -2.9958   68.6022   67.4674 H   0  0  0  0  0  0  0  0  0  0  0  0
   -3.0780   67.2798   66.2115 H   0  0  0  0  0  0  0  0  0  0  0  0
   -1.3578   67.5438   68.6111 H   0  0  0  0  0  0  0  0  0  0  0  0
   -1.9854   66.0819   67.7302 H   0  0  0  0  0  0  0  0  0  0  0  0
    0.4579   66.1903   67.6138 H   0  0  0  0  0  0  0  0  0  0  0  0
   -0.3106   66.4189   65.9813 H   0  0  0  0  0  0  0  0  0  0  0  0
    2.6398   68.5776   66.2208 H   0  0  0  0  0  0  0  0  0  0  0  0
    0.7808   68.1873   63.8435 H   0  0  0  0  0  0  0  0  0  0  0  0
    1.2814   69.7706   64.5769 H   0  0  0  0  0  0  0  0  0  0  0  0
    2.5348   68.7398   62.4586 H   0  0  0  0  0  0  0  0  0  0  0  0
    3.4018   69.6486   63.7879 H   0  0  0  0  0  0  0  0  0  0  0  0
    4.2984   67.3201   62.8239 H   0  0  0  0  0  0  0  0  0  0  0  0
    4.4703   67.8198   64.5566 H   0  0  0  0  0  0  0  0  0  0  0  0
    2.2631   66.0603   63.4138 H   0  0  0  0  0  0  0  0  0  0  0  0
    3.7066   65.5092   64.3671 H   0  0  0  0  0  0  0  0  0  0  0  0
    2.8771   66.2558   66.3434 H   0  0  0  0  0  0  0  0  0  0  0  0
    1.3021   65.9761   65.4514 H   0  0  0  0  0  0  0  0  0  0  0  0
    2.8976   71.4439   68.8704 H   0  0  0  0  0  0  0  0  0  0  0  0
    2.8499   69.8448   69.7211 H   0  0  0  0  0  0  0  0  0  0  0  0
    4.4240   68.9172   68.3591 H   0  0  0  0  0  0  0  0  0  0  0  0
    3.8269   69.7913   66.9011 H   0  0  0  0  0  0  0  0  0  0  0  0
    4.7857   71.8442   68.0875 H   0  0  0  0  0  0  0  0  0  0  0  0
    7.9048   71.0289   70.2563 H   0  0  0  0  0  0  0  0  0  0  0  0
    7.8247   70.1155   68.7116 H   0  0  0  0  0  0  0  0  0  0  0  0
    7.6186   71.8999   68.7116 H   0  0  0  0  0  0  0  0  0  0  0  0
    5.7208   69.8105   69.8859 H   0  0  0  0  0  0  0  0  0  0  0  0
    5.5474   71.5877   70.1197 H   0  0  0  0  0  0  0  0  0  0  0  0
    6.3426   71.8780   66.5553 H   0  0  0  0  0  0  0  0  0  0  0  0
    7.1423   70.4372   67.2864 H   0  0  0  0  0  0  0  0  0  0  0  0
    5.0899   69.1327   66.2759 H   0  0  0  0  0  0  0  0  0  0  0  0
    4.9402   70.5721   65.2118 H   0  0  0  0  0  0  0  0  0  0  0  0
    6.4565   69.6091   65.2118 H   0  0  0  0  0  0  0  0  0  0  0  0
  2  1  1  0
  3  2  1  0
  4  3  1  0
  5  4  1  0
  6  5  1  0
  6  1  1  0
  7  1  1  0
  8  7  1  0
  9  8  1  0
 10  9  1  0
 11 10  1  0
 12  7  1  0
 12 11  1  0
 13  1  1  0
 14 13  2  0
 15 13  1  0
 16 15  1  0
 17 16  1  0
 18 17  1  0
 20 19  1  0
 20 18  1  0
 21 18  1  0
 22 21  1  0
  2 23  1  0
  2 24  1  0
  3 25  1  0
  3 26  1  0
  4 27  1  0
  4 28  1  0
  5 29  1  0
  5 30  1  0
  6 31  1  0
  6 32  1  0
  7 33  1  0
  8 34  1  0
  8 35  1  0
  9 36  1  0
  9 37  1  0
 10 38  1  0
 10 39  1  0
 11 40  1  0
 11 41  1  0
 12 42  1  0
 12 43  1  0
 16 44  1  0
 16 45  1  0
 17 46  1  0
 17 47  1  0
 18 48  1  0
 19 49  1  0
 19 50  1  0
 19 51  1  0
 20 52  1  0
 20 53  1  0
 21 54  1  0
 21 55  1  0
 22 56  1  0
 22 57  1  0
 22 58  1  0
M  CHG  1  18   1
M  END
>  <score>  (5) 
-8.009

$$$$
=
     RDKit          3D

 58 59  0  0  0  0  0  0  0  0999 V2000
    0.8750   67.9940   67.3190 C   0  0  0  0  0  0  0  0  0  0  0  0
    0.1330   69.3390   67.6130 C   0  0  0  0  0  0  0  0  0  0  0  0
   -1.1170   69.5570   66.7640 C   0  0  0  0  0  0  0  0  0  0  0  0
   -2.1420   68.4470   66.9710 C   0  0  0  0  0  0  0  0  0  0  0  0
   -1.5120   67.0700   67.1610 C   0  0  0  0  0  0  0  0  0  0  0  0
   -0.0890   66.9990   66.6090 C   0  0  0  0  0  0  0  0  0  0  0  0
    2.1920   68.2360   66.4820 C   0  0  0  0  0  0  0  0  0  0  0  0
    2.9760   69.5060   66.8540 C   0  0  0  0  0  0  0  0  0  0  0  0
    4.3510   69.5500   66.1760 C   0  0  0  0  0  0  0  0  0  0  0  0
    4.3920   68.8450   64.8210 C   0  0  0  0  0  0  0  0  0  0  0  0
    3.0410   68.8920   64.1280 C   0  0  0  0  0  0  0  0  0  0  0  0
    1.9500   68.2000   64.9500 C   0  0  0  0  0  0  0  0  0  0  0  0
    1.3520   67.4810   68.6950 C   0  0  0  0  0  0  0  0  0  0  0  0
    1.8730   68.1830   69.5520 O   0  0  0  0  0  0  0  0  0  0  0  0
    1.1360   66.1480   68.8830 O   0  0  0  0  0  0  0  0  0  0  0  0
    1.2390   65.6980   70.2510 C   0  0  0  0  0  0  0  0  0  0  0  0
    2.3150   64.6150   70.4070 C   0  0  0  0  0  0  0  0  0  0  0  0
    1.7270   63.2360   70.0940 N   0  0  0  0  0  4  0  0  0  0  0  0
    3.6450   62.7510   68.5850 C   0  0  0  0  0  0  0  0  0  0  0  0
    2.7970   62.2250   69.7310 C   0  0  0  0  0  0  0  0  0  0  0  0
    0.8140   62.7430   71.2020 C   0  0  0  0  0  0  0  0  0  0  0  0
    1.5600   62.7090   72.5240 C   0  0  0  0  0  0  0  0  0  0  0  0
   -0.1628   69.3464   68.6725 H   0  0  0  0  0  0  0  0  0  0  0  0
    0.8330   70.1499   67.3630 H   0  0  0  0  0  0  0  0  0  0  0  0
   -1.5727   70.5189   67.0415 H   0  0  0  0  0  0  0  0  0  0  0  0
   -0.8169   69.5527   65.7057 H   0  0  0  0  0  0  0  0  0  0  0  0
   -2.7378   68.6845   67.8646 H   0  0  0  0  0  0  0  0  0  0  0  0
   -2.7588   68.3999   66.0614 H   0  0  0  0  0  0  0  0  0  0  0  0
   -1.4857   66.8389   68.2361 H   0  0  0  0  0  0  0  0  0  0  0  0
   -2.1232   66.3423   66.6070 H   0  0  0  0  0  0  0  0  0  0  0  0
    0.2931   65.9770   66.7485 H   0  0  0  0  0  0  0  0  0  0  0  0
   -0.1288   67.2735   65.5445 H   0  0  0  0  0  0  0  0  0  0  0  0
    2.8241   67.3816   66.7657 H   0  0  0  0  0  0  0  0  0  0  0  0
    2.3963   70.3864   66.5395 H   0  0  0  0  0  0  0  0  0  0  0  0
    3.1333   69.5022   67.9427 H   0  0  0  0  0  0  0  0  0  0  0  0
    4.6313   70.6033   66.0278 H   0  0  0  0  0  0  0  0  0  0  0  0
    5.0515   69.0175   66.8361 H   0  0  0  0  0  0  0  0  0  0  0  0
    5.1385   69.3403   64.1828 H   0  0  0  0  0  0  0  0  0  0  0  0
    4.6576   67.7907   64.9883 H   0  0  0  0  0  0  0  0  0  0  0  0
    2.7569   69.9436   63.9747 H   0  0  0  0  0  0  0  0  0  0  0  0
    3.1324   68.3606   63.1692 H   0  0  0  0  0  0  0  0  0  0  0  0
    1.8943   67.1479   64.6338 H   0  0  0  0  0  0  0  0  0  0  0  0
    1.0157   68.7499   64.7636 H   0  0  0  0  0  0  0  0  0  0  0  0
    1.4985   66.5545   70.8905 H   0  0  0  0  0  0  0  0  0  0  0  0
    0.2708   65.2678   70.5468 H   0  0  0  0  0  0  0  0  0  0  0  0
    3.1430   64.8229   69.7133 H   0  0  0  0  0  0  0  0  0  0  0  0
    2.6829   64.6214   71.4436 H   0  0  0  0  0  0  0  0  0  0  0  0
    1.1382   63.3459   69.2560 H   0  0  0  0  0  0  0  0  0  0  0  0
    4.5143   63.2902   68.9895 H   0  0  0  0  0  0  0  0  0  0  0  0
    3.9907   61.9085   67.9679 H   0  0  0  0  0  0  0  0  0  0  0  0
    3.0439   63.4350   67.9679 H   0  0  0  0  0  0  0  0  0  0  0  0
    2.3187   61.2823   69.4268 H   0  0  0  0  0  0  0  0  0  0  0  0
    3.4411   62.0525   70.6059 H   0  0  0  0  0  0  0  0  0  0  0  0
   -0.0486   63.4200   71.2895 H   0  0  0  0  0  0  0  0  0  0  0  0
    0.4722   61.7263   70.9580 H   0  0  0  0  0  0  0  0  0  0  0  0
    0.8381   62.7419   73.3533 H   0  0  0  0  0  0  0  0  0  0  0  0
    2.1503   61.7830   72.5882 H   0  0  0  0  0  0  0  0  0  0  0  0
    2.2321   63.5774   72.5882 H   0  0  0  0  0  0  0  0  0  0  0  0
  2  1  1  0
  3  2  1  0
  4  3  1  0
  5  4  1  0
  6  5  1  0
  6  1  1  0
  7  1  1  0
  8  7  1  0
  9  8  1  0
 10  9  1  0
 11 10  1  0
 12  7  1  0
 12 11  1  0
 13  1  1  0
 14 13  2  0
 15 13  1  0
 16 15  1  0
 17 16  1  0
 18 17  1  0
 20 19  1  0
 20 18  1  0
 21 18  1  0
 22 21  1  0
  2 23  1  0
  2 24  1  0
  3 25  1  0
  3 26  1  0
  4 27  1  0
  4 28  1  0
  5 29  1  0
  5 30  1  0
  6 31  1  0
  6 32  1  0
  7 33  1  0
  8 34  1  0
  8 35  1  0
  9 36  1  0
  9 37  1  0
 10 38  1  0
 10 39  1  0
 11 40  1  0
 11 41  1  0
 12 42  1  0
 12 43  1  0
 16 44  1  0
 16 45  1  0
 17 46  1  0
 17 47  1  0
 18 48  1  0
 19 49  1  0
 19 50  1  0
 19 51  1  0
 20 52  1  0
 20 53  1  0
 21 54  1  0
 21 55  1  0
 22 56  1  0
 22 57  1  0
 22 58  1  0
M  CHG  1  18   1
M  END
>  <score>  (6) 
-7.885

$$$$
=
     RDKit          3D

 58 59  0  0  0  0  0  0  0  0999 V2000
    1.9210   62.6390   70.7320 C   0  0  0  0  0  0  0  0  0  0  0  0
    3.0620   63.3610   71.5220 C   0  0  0  0  0  0  0  0  0  0  0  0
    4.4670   62.9010   71.1430 C   0  0  0  0  0  0  0  0  0  0  0  0
    4.7580   63.1310   69.6640 C   0  0  0  0  0  0  0  0  0  0  0  0
    3.5490   62.8900   68.7660 C   0  0  0  0  0  0  0  0  0  0  0  0
    2.4950   62.0050   69.4310 C   0  0  0  0  0  0  0  0  0  0  0  0
    1.1860   61.5710   71.6320 C   0  0  0  0  0  0  0  0  0  0  0  0
    0.6360   62.1090   72.9650 C   0  0  0  0  0  0  0  0  0  0  0  0
   -0.2630   61.0860   73.6690 C   0  0  0  0  0  0  0  0  0  0  0  0
    0.1180   59.6330   73.3860 C   0  0  0  0  0  0  0  0  0  0  0  0
    1.6050   59.4910   73.1130 C   0  0  0  0  0  0  0  0  0  0  0  0
    2.0450   60.3060   71.8930 C   0  0  0  0  0  0  0  0  0  0  0  0
    0.8670   63.7300   70.4470 C   0  0  0  0  0  0  0  0  0  0  0  0
   -0.2020   63.5290   69.8830 O   0  0  0  0  0  0  0  0  0  0  0  0
    1.2320   64.9680   70.8870 O   0  0  0  0  0  0  0  0  0  0  0  0
    0.4190   66.0560   70.3980 C   0  0  0  0  0  0  0  0  0  0  0  0
    1.1750   66.9020   69.3640 C   0  0  0  0  0  0  0  0  0  0  0  0
    0.2970   67.1380   68.1300 N   0  0  0  0  0  4  0  0  0  0  0  0
   -2.0020   67.1060   67.1810 C   0  0  0  0  0  0  0  0  0  0  0  0
   -1.1290   66.6710   68.3450 C   0  0  0  0  0  0  0  0  0  0  0  0
    0.3720   68.5740   67.6460 C   0  0  0  0  0  0  0  0  0  0  0  0
    1.5230   68.7430   66.6690 C   0  0  0  0  0  0  0  0  0  0  0  0
    2.9875   64.4411   71.3274 H   0  0  0  0  0  0  0  0  0  0  0  0
    2.9211   63.1110   72.5839 H   0  0  0  0  0  0  0  0  0  0  0  0
    5.1992   63.4627   71.7416 H   0  0  0  0  0  0  0  0  0  0  0  0
    4.5388   61.8215   71.3419 H   0  0  0  0  0  0  0  0  0  0  0  0
    5.0895   64.1714   69.5312 H   0  0  0  0  0  0  0  0  0  0  0  0
    5.5324   62.4079   69.3683 H   0  0  0  0  0  0  0  0  0  0  0  0
    3.0920   63.8602   68.5213 H   0  0  0  0  0  0  0  0  0  0  0  0
    3.9011   62.3703   67.8627 H   0  0  0  0  0  0  0  0  0  0  0  0
    1.6693   61.8457   68.7218 H   0  0  0  0  0  0  0  0  0  0  0  0
    2.9794   61.0565   69.7062 H   0  0  0  0  0  0  0  0  0  0  0  0
    0.3144   61.2935   71.0211 H   0  0  0  0  0  0  0  0  0  0  0  0
    1.4811   62.3532   73.6254 H   0  0  0  0  0  0  0  0  0  0  0  0
    0.0306   63.0013   72.7478 H   0  0  0  0  0  0  0  0  0  0  0  0
   -0.1991   61.2565   74.7538 H   0  0  0  0  0  0  0  0  0  0  0  0
   -1.2813   61.2322   73.2795 H   0  0  0  0  0  0  0  0  0  0  0  0
   -0.1456   59.0178   74.2590 H   0  0  0  0  0  0  0  0  0  0  0  0
   -0.4304   59.3000   72.4925 H   0  0  0  0  0  0  0  0  0  0  0  0
    2.1628   59.8413   73.9940 H   0  0  0  0  0  0  0  0  0  0  0  0
    1.8127   58.4308   72.9061 H   0  0  0  0  0  0  0  0  0  0  0  0
    1.9851   59.6588   71.0056 H   0  0  0  0  0  0  0  0  0  0  0  0
    3.0682   60.6544   72.0970 H   0  0  0  0  0  0  0  0  0  0  0  0
   -0.4863   65.6431   69.9290 H   0  0  0  0  0  0  0  0  0  0  0  0
    0.1588   66.7023   71.2492 H   0  0  0  0  0  0  0  0  0  0  0  0
    1.4408   67.8710   69.8116 H   0  0  0  0  0  0  0  0  0  0  0  0
    2.0864   66.3667   69.0592 H   0  0  0  0  0  0  0  0  0  0  0  0
    0.6808   66.5542   67.3732 H   0  0  0  0  0  0  0  0  0  0  0  0
   -2.9243   67.5655   67.5661 H   0  0  0  0  0  0  0  0  0  0  0  0
   -1.4565   67.8376   66.5669 H   0  0  0  0  0  0  0  0  0  0  0  0
   -2.2576   66.2299   66.5669 H   0  0  0  0  0  0  0  0  0  0  0  0
   -1.5188   67.1090   69.2757 H   0  0  0  0  0  0  0  0  0  0  0  0
   -1.1417   65.5732   68.4138 H   0  0  0  0  0  0  0  0  0  0  0  0
   -0.5710   68.8374   67.1445 H   0  0  0  0  0  0  0  0  0  0  0  0
    0.5371   69.2342   68.5103 H   0  0  0  0  0  0  0  0  0  0  0  0
    2.4607   68.8807   67.2274 H   0  0  0  0  0  0  0  0  0  0  0  0
    1.6013   67.8467   66.0361 H   0  0  0  0  0  0  0  0  0  0  0  0
    1.3404   69.6240   66.0361 H   0  0  0  0  0  0  0  0  0  0  0  0
  2  1  1  0
  3  2  1  0
  4  3  1  0
  5  4  1  0
  6  5  1  0
  6  1  1  0
  7  1  1  0
  8  7  1  0
  9  8  1  0
 10  9  1  0
 11 10  1  0
 12  7  1  0
 12 11  1  0
 13  1  1  0
 14 13  2  0
 15 13  1  0
 16 15  1  0
 17 16  1  0
 18 17  1  0
 20 19  1  0
 20 18  1  0
 21 18  1  0
 22 21  1  0
  2 23  1  0
  2 24  1  0
  3 25  1  0
  3 26  1  0
  4 27  1  0
  4 28  1  0
  5 29  1  0
  5 30  1  0
  6 31  1  0
  6 32  1  0
  7 33  1  0
  8 34  1  0
  8 35  1  0
  9 36  1  0
  9 37  1  0
 10 38  1  0
 10 39  1  0
 11 40  1  0
 11 41  1  0
 12 42  1  0
 12 43  1  0
 16 44  1  0
 16 45  1  0
 17 46  1  0
 17 47  1  0
 18 48  1  0
 19 49  1  0
 19 50  1  0
 19 51  1  0
 20 52  1  0
 20 53  1  0
 21 54  1  0
 21 55  1  0
 22 56  1  0
 22 57  1  0
 22 58  1  0
M  CHG  1  18   1
M  END
>  <score>  (7) 
-7.783

$$$$
=
     RDKit          3D

 58 59  0  0  0  0  0  0  0  0999 V2000
    0.8900   63.1260   72.1000 C   0  0  0  0  0  0  0  0  0  0  0  0
   -0.3030   62.1150   72.1220 C   0  0  0  0  0  0  0  0  0  0  0  0
   -0.2270   61.0890   73.2490 C   0  0  0  0  0  0  0  0  0  0  0  0
   -0.2030   61.7550   74.6210 C   0  0  0  0  0  0  0  0  0  0  0  0
    0.5900   63.0590   74.6460 C   0  0  0  0  0  0  0  0  0  0  0  0
    1.5870   63.1570   73.4910 C   0  0  0  0  0  0  0  0  0  0  0  0
    1.9070   62.7890   70.9400 C   0  0  0  0  0  0  0  0  0  0  0  0
    2.3760   61.3250   70.8900 C   0  0  0  0  0  0  0  0  0  0  0  0
    3.1650   61.0190   69.6110 C   0  0  0  0  0  0  0  0  0  0  0  0
    3.9360   62.2190   69.0610 C   0  0  0  0  0  0  0  0  0  0  0  0
    4.3470   63.1720   70.1700 C   0  0  0  0  0  0  0  0  0  0  0  0
    3.1370   63.7340   70.9220 C   0  0  0  0  0  0  0  0  0  0  0  0
    0.2670   64.4860   71.7170 C   0  0  0  0  0  0  0  0  0  0  0  0
   -0.2060   65.2810   72.5200 O   0  0  0  0  0  0  0  0  0  0  0  0
    0.2890   64.7360   70.3770 O   0  0  0  0  0  0  0  0  0  0  0  0
    0.4030   66.1300   70.0170 C   0  0  0  0  0  0  0  0  0  0  0  0
   -0.6410   66.5250   68.9640 C   0  0  0  0  0  0  0  0  0  0  0  0
    0.0540   67.0130   67.6880 N   0  0  0  0  0  4  0  0  0  0  0  0
   -2.3370   67.5390   67.2440 C   0  0  0  0  0  0  0  0  0  0  0  0
   -0.9170   67.6560   66.7170 C   0  0  0  0  0  0  0  0  0  0  0  0
    1.2450   67.9030   67.9940 C   0  0  0  0  0  0  0  0  0  0  0  0
    0.9300   69.3460   67.6420 C   0  0  0  0  0  0  0  0  0  0  0  0
   -1.2371   62.6848   72.2355 H   0  0  0  0  0  0  0  0  0  0  0  0
   -0.2613   61.5533   71.1772 H   0  0  0  0  0  0  0  0  0  0  0  0
   -1.1047   60.4287   73.1891 H   0  0  0  0  0  0  0  0  0  0  0  0
    0.7059   60.5186   73.1296 H   0  0  0  0  0  0  0  0  0  0  0  0
   -1.2387   61.9705   74.9225 H   0  0  0  0  0  0  0  0  0  0  0  0
    0.2939   61.0585   75.3123 H   0  0  0  0  0  0  0  0  0  0  0  0
   -0.1137   63.9017   74.5778 H   0  0  0  0  0  0  0  0  0  0  0  0
    1.1614   63.0861   75.5856 H   0  0  0  0  0  0  0  0  0  0  0  0
    2.1450   64.1003   73.5854 H   0  0  0  0  0  0  0  0  0  0  0  0
    2.2551   62.2851   73.5504 H   0  0  0  0  0  0  0  0  0  0  0  0
    1.3101   62.9589   70.0318 H   0  0  0  0  0  0  0  0  0  0  0  0
    3.0195   61.1281   71.7601 H   0  0  0  0  0  0  0  0  0  0  0  0
    1.4840   60.6814   70.9017 H   0  0  0  0  0  0  0  0  0  0  0  0
    3.8837   60.2157   69.8305 H   0  0  0  0  0  0  0  0  0  0  0  0
    2.4322   60.7293   68.8435 H   0  0  0  0  0  0  0  0  0  0  0  0
    4.8390   61.8585   68.5466 H   0  0  0  0  0  0  0  0  0  0  0  0
    3.2794   62.7617   68.3651 H   0  0  0  0  0  0  0  0  0  0  0  0
    4.9884   62.6323   70.8823 H   0  0  0  0  0  0  0  0  0  0  0  0
    4.8835   64.0156   69.7112 H   0  0  0  0  0  0  0  0  0  0  0  0
    2.8401   64.6782   70.4420 H   0  0  0  0  0  0  0  0  0  0  0  0
    3.4486   63.8686   71.9683 H   0  0  0  0  0  0  0  0  0  0  0  0
    0.2539   66.7451   70.9167 H   0  0  0  0  0  0  0  0  0  0  0  0
    1.4035   66.2962   69.5910 H   0  0  0  0  0  0  0  0  0  0  0  0
   -1.2660   65.6516   68.7262 H   0  0  0  0  0  0  0  0  0  0  0  0
   -1.2667   67.3360   69.3650 H   0  0  0  0  0  0  0  0  0  0  0  0
    0.4269   66.1785   67.2132 H   0  0  0  0  0  0  0  0  0  0  0  0
   -2.3212   67.5403   68.3439 H   0  0  0  0  0  0  0  0  0  0  0  0
   -2.9328   68.3911   66.8849 H   0  0  0  0  0  0  0  0  0  0  0  0
   -2.7853   66.6009   66.8849 H   0  0  0  0  0  0  0  0  0  0  0  0
   -0.8474   67.1488   65.7434 H   0  0  0  0  0  0  0  0  0  0  0  0
   -0.6615   68.7199   66.6040 H   0  0  0  0  0  0  0  0  0  0  0  0
    1.4829   67.8347   69.0658 H   0  0  0  0  0  0  0  0  0  0  0  0
    2.1045   67.5684   67.3947 H   0  0  0  0  0  0  0  0  0  0  0  0
    0.8027   69.9294   68.5658 H   0  0  0  0  0  0  0  0  0  0  0  0
    1.7570   69.7686   67.0526 H   0  0  0  0  0  0  0  0  0  0  0  0
    0.0021   69.3855   67.0526 H   0  0  0  0  0  0  0  0  0  0  0  0
  2  1  1  0
  3  2  1  0
  4  3  1  0
  5  4  1  0
  6  5  1  0
  6  1  1  0
  7  1  1  0
  8  7  1  0
  9  8  1  0
 10  9  1  0
 11 10  1  0
 12  7  1  0
 12 11  1  0
 13  1  1  0
 14 13  2  0
 15 13  1  0
 16 15  1  0
 17 16  1  0
 18 17  1  0
 20 19  1  0
 20 18  1  0
 21 18  1  0
 22 21  1  0
  2 23  1  0
  2 24  1  0
  3 25  1  0
  3 26  1  0
  4 27  1  0
  4 28  1  0
  5 29  1  0
  5 30  1  0
  6 31  1  0
  6 32  1  0
  7 33  1  0
  8 34  1  0
  8 35  1  0
  9 36  1  0
  9 37  1  0
 10 38  1  0
 10 39  1  0
 11 40  1  0
 11 41  1  0
 12 42  1  0
 12 43  1  0
 16 44  1  0
 16 45  1  0
 17 46  1  0
 17 47  1  0
 18 48  1  0
 19 49  1  0
 19 50  1  0
 19 51  1  0
 20 52  1  0
 20 53  1  0
 21 54  1  0
 21 55  1  0
 22 56  1  0
 22 57  1  0
 22 58  1  0
M  CHG  1  18   1
M  END
>  <score>  (8) 
-7.663

$$$$
=
     RDKit          3D

 58 59  0  0  0  0  0  0  0  0999 V2000
    3.2000   61.8170   71.5790 C   0  0  0  0  0  0  0  0  0  0  0  0
    2.8530   61.0370   70.2690 C   0  0  0  0  0  0  0  0  0  0  0  0
    2.6450   61.9320   69.0500 C   0  0  0  0  0  0  0  0  0  0  0  0
    3.8860   62.7630   68.7390 C   0  0  0  0  0  0  0  0  0  0  0  0
    4.6230   63.2390   69.9880 C   0  0  0  0  0  0  0  0  0  0  0  0
    3.7290   63.2380   71.2280 C   0  0  0  0  0  0  0  0  0  0  0  0
    1.9630   61.8750   72.5580 C   0  0  0  0  0  0  0  0  0  0  0  0
    0.7760   60.9810   72.1620 C   0  0  0  0  0  0  0  0  0  0  0  0
   -0.2810   60.9060   73.2700 C   0  0  0  0  0  0  0  0  0  0  0  0
   -0.3670   62.1690   74.1260 C   0  0  0  0  0  0  0  0  0  0  0  0
    0.0260   63.4050   73.3350 C   0  0  0  0  0  0  0  0  0  0  0  0
    1.4650   63.3220   72.8180 C   0  0  0  0  0  0  0  0  0  0  0  0
    4.2550   60.9520   72.3030 C   0  0  0  0  0  0  0  0  0  0  0  0
    5.2590   60.4960   71.7690 O   0  0  0  0  0  0  0  0  0  0  0  0
    3.9720   60.7350   73.6180 O   0  0  0  0  0  0  0  0  0  0  0  0
    4.1440   59.3730   74.0650 C   0  0  0  0  0  0  0  0  0  0  0  0
    2.8060   58.7400   74.4680 C   0  0  0  0  0  0  0  0  0  0  0  0
    2.6420   57.3750   73.7910 N   0  0  0  0  0  4  0  0  0  0  0  0
    2.1170   56.8250   76.1600 C   0  0  0  0  0  0  0  0  0  0  0  0
    2.0350   56.3430   74.7220 C   0  0  0  0  0  0  0  0  0  0  0  0
    1.8950   57.4790   72.4740 C   0  0  0  0  0  0  0  0  0  0  0  0
    2.8730   57.4750   71.3110 C   0  0  0  0  0  0  0  0  0  0  0  0
    3.6776   60.3423   70.0514 H   0  0  0  0  0  0  0  0  0  0  0  0
    1.8995   60.5192   70.4500 H   0  0  0  0  0  0  0  0  0  0  0  0
    2.4122   61.3003   68.1800 H   0  0  0  0  0  0  0  0  0  0  0  0
    1.8174   62.6225   69.2699 H   0  0  0  0  0  0  0  0  0  0  0  0
    4.5751   62.1502   68.1393 H   0  0  0  0  0  0  0  0  0  0  0  0
    3.5501   63.6597   68.1975 H   0  0  0  0  0  0  0  0  0  0  0  0
    5.4788   62.5720   70.1689 H   0  0  0  0  0  0  0  0  0  0  0  0
    4.9494   64.2744   69.8107 H   0  0  0  0  0  0  0  0  0  0  0  0
    4.3088   63.6195   72.0814 H   0  0  0  0  0  0  0  0  0  0  0  0
    2.8586   63.8756   71.0136 H   0  0  0  0  0  0  0  0  0  0  0  0
    2.3698   61.4616   73.4927 H   0  0  0  0  0  0  0  0  0  0  0  0
    0.3101   61.3910   71.2538 H   0  0  0  0  0  0  0  0  0  0  0  0
    1.1591   59.9646   71.9884 H   0  0  0  0  0  0  0  0  0  0  0  0
   -1.2622   60.7362   72.8026 H   0  0  0  0  0  0  0  0  0  0  0  0
    0.0139   60.0844   73.9394 H   0  0  0  0  0  0  0  0  0  0  0  0
   -1.3999   62.2878   74.4851 H   0  0  0  0  0  0  0  0  0  0  0  0
    0.3309   62.0626   74.9696 H   0  0  0  0  0  0  0  0  0  0  0  0
   -0.6542   63.5085   72.4768 H   0  0  0  0  0  0  0  0  0  0  0  0
   -0.0443   64.2740   74.0057 H   0  0  0  0  0  0  0  0  0  0  0  0
    2.1272   63.7864   73.5636 H   0  0  0  0  0  0  0  0  0  0  0  0
    1.4843   63.8428   71.8493 H   0  0  0  0  0  0  0  0  0  0  0  0
    4.5875   58.7826   73.2497 H   0  0  0  0  0  0  0  0  0  0  0  0
    4.8019   59.3797   74.9466 H   0  0  0  0  0  0  0  0  0  0  0  0
    2.7798   58.6097   75.5599 H   0  0  0  0  0  0  0  0  0  0  0  0
    1.9858   59.4000   74.1492 H   0  0  0  0  0  0  0  0  0  0  0  0
    3.5889   57.0389   73.5645 H   0  0  0  0  0  0  0  0  0  0  0  0
    1.9721   55.9734   76.8410 H   0  0  0  0  0  0  0  0  0  0  0  0
    3.1046   57.2747   76.3402 H   0  0  0  0  0  0  0  0  0  0  0  0
    1.3337   57.5760   76.3402 H   0  0  0  0  0  0  0  0  0  0  0  0
    2.5857   55.3958   74.6238 H   0  0  0  0  0  0  0  0  0  0  0  0
    0.9793   56.1918   74.4526 H   0  0  0  0  0  0  0  0  0  0  0  0
    1.2113   56.6229   72.3761 H   0  0  0  0  0  0  0  0  0  0  0  0
    1.3254   58.4199   72.4592 H   0  0  0  0  0  0  0  0  0  0  0  0
    3.9027   57.4708   71.6979 H   0  0  0  0  0  0  0  0  0  0  0  0
    2.7085   56.5775   70.6966 H   0  0  0  0  0  0  0  0  0  0  0  0
    2.7158   58.3738   70.6966 H   0  0  0  0  0  0  0  0  0  0  0  0
  2  1  1  0
  3  2  1  0
  4  3  1  0
  5  4  1  0
  6  5  1  0
  6  1  1  0
  7  1  1  0
  8  7  1  0
  9  8  1  0
 10  9  1  0
 11 10  1  0
 12  7  1  0
 12 11  1  0
 13  1  1  0
 14 13  2  0
 15 13  1  0
 16 15  1  0
 17 16  1  0
 18 17  1  0
 20 19  1  0
 20 18  1  0
 21 18  1  0
 22 21  1  0
  2 23  1  0
  2 24  1  0
  3 25  1  0
  3 26  1  0
  4 27  1  0
  4 28  1  0
  5 29  1  0
  5 30  1  0
  6 31  1  0
  6 32  1  0
  7 33  1  0
  8 34  1  0
  8 35  1  0
  9 36  1  0
  9 37  1  0
 10 38  1  0
 10 39  1  0
 11 40  1  0
 11 41  1  0
 12 42  1  0
 12 43  1  0
 16 44  1  0
 16 45  1  0
 17 46  1  0
 17 47  1  0
 18 48  1  0
 19 49  1  0
 19 50  1  0
 19 51  1  0
 20 52  1  0
 20 53  1  0
 21 54  1  0
 21 55  1  0
 22 56  1  0
 22 57  1  0
 22 58  1  0
M  CHG  1  18   1
M  END
>  <score>  (9) 
-7.14

$$$$
