=
     RDKit          3D

 41 43  0  0  0  0  0  0  0  0999 V2000
    1.7200   68.3920   65.7610 N   0  0  0  0  0  0  0  0  0  0  0  0
    5.9670   71.0030   68.6340 C   0  0  0  0  0  0  0  0  0  0  0  0
    4.8480   70.3500   67.8770 C   0  0  0  0  0  0  0  0  0  0  0  0
    5.0510   69.8730   66.5810 C   0  0  0  0  0  0  0  0  0  0  0  0
    4.0110   69.2510   65.8850 C   0  0  0  0  0  0  0  0  0  0  0  0
    2.7440   69.0690   66.4680 C   0  0  0  0  0  0  0  0  0  0  0  0
    2.5560   69.5540   67.7700 C   0  0  0  0  0  0  0  0  0  0  0  0
    3.5950   70.1790   68.4690 C   0  0  0  0  0  0  0  0  0  0  0  0
    0.3990   68.1770   66.2300 C   0  0  0  0  0  0  0  0  0  0  0  0
    0.1600   67.2470   67.2620 C   0  0  0  0  0  0  0  0  0  0  0  0
   -1.1270   67.0000   67.7520 C   0  0  0  0  0  0  0  0  0  0  0  0
   -2.2190   67.6780   67.2200 C   0  0  0  0  0  0  0  0  0  0  0  0
   -2.0040   68.5910   66.1990 C   0  0  0  0  0  0  0  0  0  0  0  0
   -0.7220   68.8380   65.7080 C   0  0  0  0  0  0  0  0  0  0  0  0
   -3.0330   69.2890   65.6370 O   0  0  0  0  0  0  0  0  0  0  0  0
    2.0210   68.0490   64.3550 C   0  0  0  0  0  0  0  0  0  0  0  0
    2.7740   66.7560   64.2610 C   0  0  0  0  0  0  0  0  0  0  0  0
    2.4750   65.6890   64.9840 N   0  0  0  0  0  4  0  0  0  0  0  0
    3.3760   64.5780   64.6360 C   0  0  0  0  0  0  0  0  0  0  0  0
    4.2980   65.1900   63.5680 C   0  0  0  0  0  0  0  0  0  0  0  0
    3.8030   66.5660   63.4530 N   0  0  0  0  0  0  0  0  0  0  0  0
    5.7885   70.8989   69.7144 H   0  0  0  0  0  0  0  0  0  0  0  0
    6.9191   70.5187   68.3713 H   0  0  0  0  0  0  0  0  0  0  0  0
    6.0137   72.0701   68.3713 H   0  0  0  0  0  0  0  0  0  0  0  0
    6.0358   69.9874   66.1045 H   0  0  0  0  0  0  0  0  0  0  0  0
    4.1871   68.8960   64.8589 H   0  0  0  0  0  0  0  0  0  0  0  0
    1.5733   69.4411   68.2512 H   0  0  0  0  0  0  0  0  0  0  0  0
    3.4229   70.5388   69.4941 H   0  0  0  0  0  0  0  0  0  0  0  0
    1.0102   66.6994   67.6947 H   0  0  0  0  0  0  0  0  0  0  0  0
   -1.2757   66.2681   68.5596 H   0  0  0  0  0  0  0  0  0  0  0  0
   -3.2338   67.4933   67.6021 H   0  0  0  0  0  0  0  0  0  0  0  0
   -0.5877   69.5663   64.8946 H   0  0  0  0  0  0  0  0  0  0  0  0
   -2.8533   69.9355   64.9090 H   0  0  0  0  0  0  0  0  0  0  0  0
    1.0767   67.9554   63.7986 H   0  0  0  0  0  0  0  0  0  0  0  0
    2.6457   68.8474   63.9280 H   0  0  0  0  0  0  0  0  0  0  0  0
    1.7231   65.6426   65.6864 H   0  0  0  0  0  0  0  0  0  0  0  0
    3.9530   64.2493   65.5130 H   0  0  0  0  0  0  0  0  0  0  0  0
    2.8405   63.6850   64.2813 H   0  0  0  0  0  0  0  0  0  0  0  0
    5.3479   65.1738   63.8959 H   0  0  0  0  0  0  0  0  0  0  0  0
    4.2798   64.6420   62.6144 H   0  0  0  0  0  0  0  0  0  0  0  0
    4.2011   67.2834   62.8303 H   0  0  0  0  0  0  0  0  0  0  0  0
  3  2  1  0
  4  3  2  0
  5  4  1  0
  6  5  2  0
  6  1  1  0
  7  6  1  0
  8  7  2  0
  8  3  1  0
  9  1  1  0
 10  9  2  0
 11 10  1  0
 12 11  2  0
 13 12  1  0
 14 13  2  0
 14  9  1  0
 15 13  1  0
 16  1  1  0
 17 16  1  0
 18 17  2  0
 19 18  1  0
 20 19  1  0
 21 20  1  0
 21 17  1  0
  2 22  1  0
  2 23  1  0
  2 24  1  0
  4 25  1  0
  5 26  1  0
  7 27  1  0
  8 28  1  0
 10 29  1  0
 11 30  1  0
 12 31  1  0
 14 32  1  0
 15 33  1  0
 16 34  1  0
 16 35  1  0
 18 36  1  0
 19 37  1  0
 19 38  1  0
 20 39  1  0
 20 40  1  0
 21 41  1  0
M  CHG  1  18   1
M  END
>  <score>  (1) 
-10.492

$$$$
=
     RDKit          3D

 41 43  0  0  0  0  0  0  0  0999 V2000
    3.3370   68.3250   63.8740 N   0  0  0  0  0  0  0  0  0  0  0  0
    5.7490   70.9210   68.4080 C   0  0  0  0  0  0  0  0  0  0  0  0
    5.1340   70.2180   67.2330 C   0  0  0  0  0  0  0  0  0  0  0  0
    3.8370   69.7090   67.3090 C   0  0  0  0  0  0  0  0  0  0  0  0
    3.2630   69.0680   66.2070 C   0  0  0  0  0  0  0  0  0  0  0  0
    3.9580   68.9350   64.9920 C   0  0  0  0  0  0  0  0  0  0  0  0
    5.2600   69.4510   64.9310 C   0  0  0  0  0  0  0  0  0  0  0  0
    5.8390   70.0920   66.0330 C   0  0  0  0  0  0  0  0  0  0  0  0
    2.0610   68.6630   63.3550 C   0  0  0  0  0  0  0  0  0  0  0  0
    1.9360   69.1010   62.0210 C   0  0  0  0  0  0  0  0  0  0  0  0
    0.6980   69.4490   61.4680 C   0  0  0  0  0  0  0  0  0  0  0  0
   -0.4570   69.3710   62.2390 C   0  0  0  0  0  0  0  0  0  0  0  0
   -0.3530   68.9490   63.5560 C   0  0  0  0  0  0  0  0  0  0  0  0
    0.8810   68.6030   64.1090 C   0  0  0  0  0  0  0  0  0  0  0  0
   -1.4490   68.8500   64.3630 O   0  0  0  0  0  0  0  0  0  0  0  0
    4.1770   67.3920   63.0940 C   0  0  0  0  0  0  0  0  0  0  0  0
    4.0800   65.9960   63.6320 C   0  0  0  0  0  0  0  0  0  0  0  0
    4.7770   64.9820   63.1460 N   0  0  0  0  0  4  0  0  0  0  0  0
    4.4820   63.7580   63.9090 C   0  0  0  0  0  0  0  0  0  0  0  0
    3.4500   64.2280   64.9470 C   0  0  0  0  0  0  0  0  0  0  0  0
    3.2910   65.6520   64.6350 N   0  0  0  0  0  0  0  0  0  0  0  0
    5.3647   70.4817   69.3404 H   0  0  0  0  0  0  0  0  0  0  0  0
    6.8425   70.8069   68.3724 H   0  0  0  0  0  0  0  0  0  0  0  0
    5.4905   71.9896   68.3724 H   0  0  0  0  0  0  0  0  0  0  0  0
    3.2627   69.8127   68.2415 H   0  0  0  0  0  0  0  0  0  0  0  0
    2.2455   68.6588   66.2924 H   0  0  0  0  0  0  0  0  0  0  0  0
    5.8375   69.3505   64.0002 H   0  0  0  0  0  0  0  0  0  0  0  0
    6.8575   70.4999   65.9535 H   0  0  0  0  0  0  0  0  0  0  0  0
    2.8383   69.1714   61.3958 H   0  0  0  0  0  0  0  0  0  0  0  0
    0.6385   69.7846   60.4221 H   0  0  0  0  0  0  0  0  0  0  0  0
   -1.4347   69.6390   61.8121 H   0  0  0  0  0  0  0  0  0  0  0  0
    0.9284   68.2765   65.1583 H   0  0  0  0  0  0  0  0  0  0  0  0
   -1.3481   68.5461   65.2998 H   0  0  0  0  0  0  0  0  0  0  0  0
    3.8412   67.3970   62.0465 H   0  0  0  0  0  0  0  0  0  0  0  0
    5.2239   67.7215   63.1673 H   0  0  0  0  0  0  0  0  0  0  0  0
    5.4296   65.0403   62.3513 H   0  0  0  0  0  0  0  0  0  0  0  0
    4.0587   62.9797   63.2570 H   0  0  0  0  0  0  0  0  0  0  0  0
    5.3768   63.3088   64.3647 H   0  0  0  0  0  0  0  0  0  0  0  0
    2.4982   63.6892   64.8298 H   0  0  0  0  0  0  0  0  0  0  0  0
    3.7656   64.0449   65.9847 H   0  0  0  0  0  0  0  0  0  0  0  0
    2.6540   66.2939   65.1281 H   0  0  0  0  0  0  0  0  0  0  0  0
  3  2  1  0
  4  3  2  0
  5  4  1  0
  6  5  2  0
  6  1  1  0
  7  6  1  0
  8  7  2  0
  8  3  1  0
  9  1  1  0
 10  9  2  0
 11 10  1  0
 12 11  2  0
 13 12  1  0
 14 13  2  0
 14  9  1  0
 15 13  1  0
 16  1  1  0
 17 16  1  0
 18 17  2  0
 19 18  1  0
 20 19  1  0
 21 20  1  0
 21 17  1  0
  2 22  1  0
  2 23  1  0
  2 24  1  0
  4 25  1  0
  5 26  1  0
  7 27  1  0
  8 28  1  0
 10 29  1  0
 11 30  1  0
 12 31  1  0
 14 32  1  0
 15 33  1  0
 16 34  1  0
 16 35  1  0
 18 36  1  0
 19 37  1  0
 19 38  1  0
 20 39  1  0
 20 40  1  0
 21 41  1  0
M  CHG  1  18   1
M  END
>  <score>  (2) 
-10.261

$$$$
=
     RDKit          3D

 41 43  0  0  0  0  0  0  0  0999 V2000
    3.3210   68.3810   63.9190 N   0  0  0  0  0  0  0  0  0  0  0  0
    5.9510   70.7890   68.4350 C   0  0  0  0  0  0  0  0  0  0  0  0
    5.2520   70.1880   67.2510 C   0  0  0  0  0  0  0  0  0  0  0  0
    5.9180   70.0370   66.0350 C   0  0  0  0  0  0  0  0  0  0  0  0
    5.2680   69.4620   64.9380 C   0  0  0  0  0  0  0  0  0  0  0  0
    3.9420   69.0040   65.0290 C   0  0  0  0  0  0  0  0  0  0  0  0
    3.2860   69.1640   66.2580 C   0  0  0  0  0  0  0  0  0  0  0  0
    3.9320   69.7400   67.3580 C   0  0  0  0  0  0  0  0  0  0  0  0
    2.0320   68.6910   63.4150 C   0  0  0  0  0  0  0  0  0  0  0  0
    0.9100   68.6360   64.2660 C   0  0  0  0  0  0  0  0  0  0  0  0
   -0.3800   68.9300   63.8110 C   0  0  0  0  0  0  0  0  0  0  0  0
   -0.5870   69.2870   62.4830 C   0  0  0  0  0  0  0  0  0  0  0  0
    0.5030   69.3400   61.6280 C   0  0  0  0  0  0  0  0  0  0  0  0
    1.7910   69.0460   62.0800 C   0  0  0  0  0  0  0  0  0  0  0  0
    0.3660   69.6850   60.3150 O   0  0  0  0  0  0  0  0  0  0  0  0
    4.1710   67.4650   63.1300 C   0  0  0  0  0  0  0  0  0  0  0  0
    4.0720   66.0590   63.6380 C   0  0  0  0  0  0  0  0  0  0  0  0
    3.2250   65.6890   64.5870 N   0  0  0  0  0  4  0  0  0  0  0  0
    3.3500   64.2440   64.8360 C   0  0  0  0  0  0  0  0  0  0  0  0
    4.4570   63.8100   63.8600 C   0  0  0  0  0  0  0  0  0  0  0  0
    4.8170   65.0640   63.1900 N   0  0  0  0  0  0  0  0  0  0  0  0
    5.5013   70.4024   69.3614 H   0  0  0  0  0  0  0  0  0  0  0  0
    7.0176   70.5216   68.4058 H   0  0  0  0  0  0  0  0  0  0  0  0
    5.8465   71.8836   68.4058 H   0  0  0  0  0  0  0  0  0  0  0  0
    6.9612   70.3722   65.9380 H   0  0  0  0  0  0  0  0  0  0  0  0
    5.8061   69.3661   63.9834 H   0  0  0  0  0  0  0  0  0  0  0  0
    2.2428   68.8301   66.3596 H   0  0  0  0  0  0  0  0  0  0  0  0
    3.3971   69.8409   68.3139 H   0  0  0  0  0  0  0  0  0  0  0  0
    1.0527   68.3535   65.3195 H   0  0  0  0  0  0  0  0  0  0  0  0
   -1.2319   68.8787   64.5049 H   0  0  0  0  0  0  0  0  0  0  0  0
   -1.5973   69.5231   62.1176 H   0  0  0  0  0  0  0  0  0  0  0  0
    2.6337   69.0938   61.3746 H   0  0  0  0  0  0  0  0  0  0  0  0
    1.1609   69.7152   59.7256 H   0  0  0  0  0  0  0  0  0  0  0  0
    3.8463   67.4903   62.0793 H   0  0  0  0  0  0  0  0  0  0  0  0
    5.2163   67.7950   63.2218 H   0  0  0  0  0  0  0  0  0  0  0  0
    2.5751   66.3194   65.0780 H   0  0  0  0  0  0  0  0  0  0  0  0
    3.6441   64.0478   65.8776 H   0  0  0  0  0  0  0  0  0  0  0  0
    2.4065   63.6986   64.6862 H   0  0  0  0  0  0  0  0  0  0  0  0
    5.3178   63.3893   64.4004 H   0  0  0  0  0  0  0  0  0  0  0  0
    4.1353   63.0228   63.1623 H   0  0  0  0  0  0  0  0  0  0  0  0
    5.5484   65.1561   62.4707 H   0  0  0  0  0  0  0  0  0  0  0  0
  3  2  1  0
  4  3  2  0
  5  4  1  0
  6  5  2  0
  6  1  1  0
  7  6  1  0
  8  7  2  0
  8  3  1  0
  9  1  1  0
 10  9  2  0
 11 10  1  0
 12 11  2  0
 13 12  1  0
 14 13  2  0
 14  9  1  0
 15 13  1  0
 16  1  1  0
 17 16  1  0
 18 17  2  0
 19 18  1  0
 20 19  1  0
 21 20  1  0
 21 17  1  0
  2 22  1  0
  2 23  1  0
  2 24  1  0
  4 25  1  0
  5 26  1  0
  7 27  1  0
  8 28  1  0
 10 29  1  0
 11 30  1  0
 12 31  1  0
 14 32  1  0
 15 33  1  0
 16 34  1  0
 16 35  1  0
 18 36  1  0
 19 37  1  0
 19 38  1  0
 20 39  1  0
 20 40  1  0
 21 41  1  0
M  CHG  1  18   1
M  END
>  <score>  (3) 
-10.19

$$$$
=
     RDKit          3D

 41 43  0  0  0  0  0  0  0  0999 V2000
    2.3960   68.2850   65.2360 N   0  0  0  0  0  0  0  0  0  0  0  0
    6.3700   71.1220   68.2800 C   0  0  0  0  0  0  0  0  0  0  0  0
    5.3220   70.4100   67.4770 C   0  0  0  0  0  0  0  0  0  0  0  0
    5.6190   69.9070   66.2090 C   0  0  0  0  0  0  0  0  0  0  0  0
    4.6440   69.2290   65.4700 C   0  0  0  0  0  0  0  0  0  0  0  0
    3.3520   69.0170   65.9830 C   0  0  0  0  0  0  0  0  0  0  0  0
    3.0690   69.5280   67.2570 C   0  0  0  0  0  0  0  0  0  0  0  0
    4.0420   70.2090   67.9990 C   0  0  0  0  0  0  0  0  0  0  0  0
    1.8580   68.6730   63.9830 C   0  0  0  0  0  0  0  0  0  0  0  0
    0.5330   69.1470   63.9000 C   0  0  0  0  0  0  0  0  0  0  0  0
   -0.0400   69.5360   62.6840 C   0  0  0  0  0  0  0  0  0  0  0  0
    0.6990   69.4610   61.5080 C   0  0  0  0  0  0  0  0  0  0  0  0
    2.0020   68.9900   61.5680 C   0  0  0  0  0  0  0  0  0  0  0  0
    2.5750   68.6000   62.7790 C   0  0  0  0  0  0  0  0  0  0  0  0
    2.7780   68.8930   60.4510 O   0  0  0  0  0  0  0  0  0  0  0  0
    2.0840   66.9290   65.7340 C   0  0  0  0  0  0  0  0  0  0  0  0
    0.9310   66.9540   66.6900 C   0  0  0  0  0  0  0  0  0  0  0  0
    1.0780   66.9090   68.0050 N   0  0  0  0  0  4  0  0  0  0  0  0
   -0.2380   66.9840   68.6610 C   0  0  0  0  0  0  0  0  0  0  0  0
   -1.2190   67.0650   67.4790 C   0  0  0  0  0  0  0  0  0  0  0  0
   -0.3340   67.0220   66.3110 N   0  0  0  0  0  0  0  0  0  0  0  0
    6.1669   70.9840   69.3523 H   0  0  0  0  0  0  0  0  0  0  0  0
    7.3605   70.7091   68.0383 H   0  0  0  0  0  0  0  0  0  0  0  0
    6.3511   72.1950   68.0383 H   0  0  0  0  0  0  0  0  0  0  0  0
    6.6261   70.0447   65.7885 H   0  0  0  0  0  0  0  0  0  0  0  0
    4.8931   68.8538   64.4664 H   0  0  0  0  0  0  0  0  0  0  0  0
    2.0637   69.3916   67.6821 H   0  0  0  0  0  0  0  0  0  0  0  0
    3.7962   70.5889   69.0016 H   0  0  0  0  0  0  0  0  0  0  0  0
   -0.0685   69.2131   64.8186 H   0  0  0  0  0  0  0  0  0  0  0  0
   -1.0770   69.9019   62.6581 H   0  0  0  0  0  0  0  0  0  0  0  0
    0.2582   69.7694   60.5485 H   0  0  0  0  0  0  0  0  0  0  0  0
    3.6100   68.2277   62.7901 H   0  0  0  0  0  0  0  0  0  0  0  0
    3.7054   68.5535   60.5205 H   0  0  0  0  0  0  0  0  0  0  0  0
    1.8284   66.2836   64.8807 H   0  0  0  0  0  0  0  0  0  0  0  0
    2.9667   66.5412   66.2636 H   0  0  0  0  0  0  0  0  0  0  0  0
    1.9799   66.8328   68.4966 H   0  0  0  0  0  0  0  0  0  0  0  0
   -0.4268   66.0869   69.2690 H   0  0  0  0  0  0  0  0  0  0  0  0
   -0.3262   67.8349   69.3525 H   0  0  0  0  0  0  0  0  0  0  0  0
   -1.9120   66.2107   67.4814 H   0  0  0  0  0  0  0  0  0  0  0  0
   -1.8569   67.9607   67.5062 H   0  0  0  0  0  0  0  0  0  0  0  0
   -0.6531   67.0420   65.3319 H   0  0  0  0  0  0  0  0  0  0  0  0
  3  2  1  0
  4  3  2  0
  5  4  1  0
  6  5  2  0
  6  1  1  0
  7  6  1  0
  8  7  2  0
  8  3  1  0
  9  1  1  0
 10  9  2  0
 11 10  1  0
 12 11  2  0
 13 12  1  0
 14 13  2  0
 14  9  1  0
 15 13  1  0
 16  1  1  0
 17 16  1  0
 18 17  2  0
 19 18  1  0
 20 19  1  0
 21 20  1  0
 21 17  1  0
  2 22  1  0
  2 23  1  0
  2 24  1  0
  4 25  1  0
  5 26  1  0
  7 27  1  0
  8 28  1  0
 10 29  1  0
 11 30  1  0
 12 31  1  0
 14 32  1  0
 15 33  1  0
 16 34  1  0
 16 35  1  0
 18 36  1  0
 19 37  1  0
 19 38  1  0
 20 39  1  0
 20 40  1  0
 21 41  1  0
M  CHG  1  18   1
M  END
>  <score>  (4) 
-10.147

$$$$
=
     RDKit          3D

 41 43  0  0  0  0  0  0  0  0999 V2000
    2.3190   68.3210   65.5610 N   0  0  0  0  0  0  0  0  0  0  0  0
    6.3540   71.3470   68.3310 C   0  0  0  0  0  0  0  0  0  0  0  0
    5.3160   70.5320   67.6170 C   0  0  0  0  0  0  0  0  0  0  0  0
    4.0800   70.2780   68.2130 C   0  0  0  0  0  0  0  0  0  0  0  0
    3.1090   69.5310   67.5390 C   0  0  0  0  0  0  0  0  0  0  0  0
    3.3360   69.0340   66.2430 C   0  0  0  0  0  0  0  0  0  0  0  0
    4.5830   69.2970   65.6580 C   0  0  0  0  0  0  0  0  0  0  0  0
    5.5580   70.0420   66.3310 C   0  0  0  0  0  0  0  0  0  0  0  0
    0.9790   68.1760   66.0000 C   0  0  0  0  0  0  0  0  0  0  0  0
   -0.0520   68.9030   65.3700 C   0  0  0  0  0  0  0  0  0  0  0  0
   -1.3880   68.7950   65.7730 C   0  0  0  0  0  0  0  0  0  0  0  0
   -1.7330   67.9530   66.8250 C   0  0  0  0  0  0  0  0  0  0  0  0
   -0.7320   67.2360   67.4620 C   0  0  0  0  0  0  0  0  0  0  0  0
    0.6010   67.3430   67.0620 C   0  0  0  0  0  0  0  0  0  0  0  0
   -1.0060   66.3920   68.4990 O   0  0  0  0  0  0  0  0  0  0  0  0
    2.6570   67.8530   64.2000 C   0  0  0  0  0  0  0  0  0  0  0  0
    3.2170   66.4640   64.2270 C   0  0  0  0  0  0  0  0  0  0  0  0
    4.3840   66.1420   63.6910 N   0  0  0  0  0  4  0  0  0  0  0  0
    4.6620   64.7130   63.9140 C   0  0  0  0  0  0  0  0  0  0  0  0
    3.4200   64.2250   64.6780 C   0  0  0  0  0  0  0  0  0  0  0  0
    2.6000   65.4370   64.7850 N   0  0  0  0  0  0  0  0  0  0  0  0
    6.2195   71.2414   69.4176 H   0  0  0  0  0  0  0  0  0  0  0  0
    7.3564   70.9921   68.0494 H   0  0  0  0  0  0  0  0  0  0  0  0
    6.2471   72.4050   68.0494 H   0  0  0  0  0  0  0  0  0  0  0  0
    3.8682   70.6680   69.2195 H   0  0  0  0  0  0  0  0  0  0  0  0
    2.1473   69.3278   68.0328 H   0  0  0  0  0  0  0  0  0  0  0  0
    4.7989   68.9104   64.6511 H   0  0  0  0  0  0  0  0  0  0  0  0
    6.5232   70.2436   65.8434 H   0  0  0  0  0  0  0  0  0  0  0  0
    0.2013   69.5751   64.5369 H   0  0  0  0  0  0  0  0  0  0  0  0
   -2.1661   69.3767   65.2571 H   0  0  0  0  0  0  0  0  0  0  0  0
   -2.7809   67.8578   67.1456 H   0  0  0  0  0  0  0  0  0  0  0  0
    1.3706   66.7617   67.5910 H   0  0  0  0  0  0  0  0  0  0  0  0
   -0.2726   65.8914   68.9369 H   0  0  0  0  0  0  0  0  0  0  0  0
    1.7472   67.8608   63.5818 H   0  0  0  0  0  0  0  0  0  0  0  0
    3.4181   68.5267   63.7796 H   0  0  0  0  0  0  0  0  0  0  0  0
    5.0055   66.7943   63.1919 H   0  0  0  0  0  0  0  0  0  0  0  0
    4.7716   64.1792   62.9584 H   0  0  0  0  0  0  0  0  0  0  0  0
    5.6000   64.5376   64.4612 H   0  0  0  0  0  0  0  0  0  0  0  0
    2.8933   63.4399   64.1157 H   0  0  0  0  0  0  0  0  0  0  0  0
    3.6599   63.7768   65.6535 H   0  0  0  0  0  0  0  0  0  0  0  0
    1.6733   65.4813   65.2323 H   0  0  0  0  0  0  0  0  0  0  0  0
  3  2  1  0
  4  3  2  0
  5  4  1  0
  6  5  2  0
  6  1  1  0
  7  6  1  0
  8  7  2  0
  8  3  1  0
  9  1  1  0
 10  9  2  0
 11 10  1  0
 12 11  2  0
 13 12  1  0
 14 13  2  0
 14  9  1  0
 15 13  1  0
 16  1  1  0
 17 16  1  0
 18 17  2  0
 19 18  1  0
 20 19  1  0
 21 20  1  0
 21 17  1  0
  2 22  1  0
  2 23  1  0
  2 24  1  0
  4 25  1  0
  5 26  1  0
  7 27  1  0
  8 28  1  0
 10 29  1  0
 11 30  1  0
 12 31  1  0
 14 32  1  0
 15 33  1  0
 16 34  1  0
 16 35  1  0
 18 36  1  0
 19 37  1  0
 19 38  1  0
 20 39  1  0
 20 40  1  0
 21 41  1  0
M  CHG  1  18   1
M  END
>  <score>  (5) 
-10.112

$$$$
=
     RDKit          3D

 41 43  0  0  0  0  0  0  0  0999 V2000
    2.5500   68.8950   65.7650 N   0  0  0  0  0  0  0  0  0  0  0  0
   -2.6300   67.1960   67.6070 C   0  0  0  0  0  0  0  0  0  0  0  0
   -1.2840   67.6670   67.1390 C   0  0  0  0  0  0  0  0  0  0  0  0
   -0.1330   67.3580   67.8640 C   0  0  0  0  0  0  0  0  0  0  0  0
    1.1210   67.7850   67.4170 C   0  0  0  0  0  0  0  0  0  0  0  0
    1.2640   68.5150   66.2230 C   0  0  0  0  0  0  0  0  0  0  0  0
    0.0980   68.8180   65.5070 C   0  0  0  0  0  0  0  0  0  0  0  0
   -1.1590   68.3930   65.9530 C   0  0  0  0  0  0  0  0  0  0  0  0
    3.5850   69.4320   66.5710 C   0  0  0  0  0  0  0  0  0  0  0  0
    4.8980   69.5210   66.0650 C   0  0  0  0  0  0  0  0  0  0  0  0
    5.9520   70.0410   66.8260 C   0  0  0  0  0  0  0  0  0  0  0  0
    5.7220   70.4870   68.1230 C   0  0  0  0  0  0  0  0  0  0  0  0
    4.4390   70.4010   68.6400 C   0  0  0  0  0  0  0  0  0  0  0  0
    3.3870   69.8820   67.8840 C   0  0  0  0  0  0  0  0  0  0  0  0
    4.1490   70.8230   69.9050 O   0  0  0  0  0  0  0  0  0  0  0  0
    2.8770   68.5250   64.3720 C   0  0  0  0  0  0  0  0  0  0  0  0
    3.2640   67.0810   64.2700 C   0  0  0  0  0  0  0  0  0  0  0  0
    4.2680   66.6520   63.5210 N   0  0  0  0  0  4  0  0  0  0  0  0
    4.4110   65.1930   63.6620 C   0  0  0  0  0  0  0  0  0  0  0  0
    3.2790   64.8180   64.6340 C   0  0  0  0  0  0  0  0  0  0  0  0
    2.6420   66.1090   64.9120 N   0  0  0  0  0  0  0  0  0  0  0  0
   -2.6536   67.1877   68.7067 H   0  0  0  0  0  0  0  0  0  0  0  0
   -3.4081   67.8753   67.2286 H   0  0  0  0  0  0  0  0  0  0  0  0
   -2.8148   66.1798   67.2286 H   0  0  0  0  0  0  0  0  0  0  0  0
   -0.2125   66.7747   68.7932 H   0  0  0  0  0  0  0  0  0  0  0  0
    2.0148   67.5450   68.0116 H   0  0  0  0  0  0  0  0  0  0  0  0
    0.1719   69.4008   64.5770 H   0  0  0  0  0  0  0  0  0  0  0  0
   -2.0563   68.6332   65.3638 H   0  0  0  0  0  0  0  0  0  0  0  0
    5.1004   69.1715   65.0418 H   0  0  0  0  0  0  0  0  0  0  0  0
    6.9635   70.0968   66.3973 H   0  0  0  0  0  0  0  0  0  0  0  0
    6.5430   70.9003   68.7272 H   0  0  0  0  0  0  0  0  0  0  0  0
    2.3819   69.8248   68.3273 H   0  0  0  0  0  0  0  0  0  0  0  0
    3.2243   70.7508   70.2511 H   0  0  0  0  0  0  0  0  0  0  0  0
    1.9973   68.7061   63.7370 H   0  0  0  0  0  0  0  0  0  0  0  0
    3.7284   69.1374   64.0403 H   0  0  0  0  0  0  0  0  0  0  0  0
    4.8610   67.2499   62.9278 H   0  0  0  0  0  0  0  0  0  0  0  0
    4.2812   64.6890   62.6929 H   0  0  0  0  0  0  0  0  0  0  0  0
    5.4054   64.8911   64.0227 H   0  0  0  0  0  0  0  0  0  0  0  0
    2.5699   64.1201   64.1648 H   0  0  0  0  0  0  0  0  0  0  0  0
    3.6370   64.3072   65.5400 H   0  0  0  0  0  0  0  0  0  0  0  0
    1.8232   66.2396   65.5231 H   0  0  0  0  0  0  0  0  0  0  0  0
  3  2  1  0
  4  3  2  0
  5  4  1  0
  6  5  2  0
  6  1  1  0
  7  6  1  0
  8  7  2  0
  8  3  1  0
  9  1  1  0
 10  9  2  0
 11 10  1  0
 12 11  2  0
 13 12  1  0
 14 13  2  0
 14  9  1  0
 15 13  1  0
 16  1  1  0
 17 16  1  0
 18 17  2  0
 19 18  1  0
 20 19  1  0
 21 20  1  0
 21 17  1  0
  2 22  1  0
  2 23  1  0
  2 24  1  0
  4 25  1  0
  5 26  1  0
  7 27  1  0
  8 28  1  0
 10 29  1  0
 11 30  1  0
 12 31  1  0
 14 32  1  0
 15 33  1  0
 16 34  1  0
 16 35  1  0
 18 36  1  0
 19 37  1  0
 19 38  1  0
 20 39  1  0
 20 40  1  0
 21 41  1  0
M  CHG  1  18   1
M  END
>  <score>  (6) 
-9.301

$$$$
=
     RDKit          3D

 41 43  0  0  0  0  0  0  0  0999 V2000
    1.6580   67.7970   66.2160 N   0  0  0  0  0  0  0  0  0  0  0  0
    5.5680   71.4330   68.3600 C   0  0  0  0  0  0  0  0  0  0  0  0
    4.5650   70.4620   67.8120 C   0  0  0  0  0  0  0  0  0  0  0  0
    3.3950   70.1750   68.5160 C   0  0  0  0  0  0  0  0  0  0  0  0
    2.4550   69.2800   67.9950 C   0  0  0  0  0  0  0  0  0  0  0  0
    2.6470   68.6620   66.7460 C   0  0  0  0  0  0  0  0  0  0  0  0
    3.8270   68.9600   66.0510 C   0  0  0  0  0  0  0  0  0  0  0  0
    4.7710   69.8530   66.5710 C   0  0  0  0  0  0  0  0  0  0  0  0
    0.2760   67.8360   66.5310 C   0  0  0  0  0  0  0  0  0  0  0  0
   -0.2520   66.9550   67.4970 C   0  0  0  0  0  0  0  0  0  0  0  0
   -1.6100   66.9550   67.8360 C   0  0  0  0  0  0  0  0  0  0  0  0
   -2.4850   67.8390   67.2140 C   0  0  0  0  0  0  0  0  0  0  0  0
   -1.9860   68.7080   66.2560 C   0  0  0  0  0  0  0  0  0  0  0  0
   -0.6320   68.7090   65.9150 C   0  0  0  0  0  0  0  0  0  0  0  0
   -2.7920   69.6000   65.6100 O   0  0  0  0  0  0  0  0  0  0  0  0
    2.0930   66.9120   65.1160 C   0  0  0  0  0  0  0  0  0  0  0  0
    2.1630   67.6550   63.8160 C   0  0  0  0  0  0  0  0  0  0  0  0
    3.2190   67.6230   63.0190 N   0  0  0  0  0  4  0  0  0  0  0  0
    2.9610   68.4260   61.8120 C   0  0  0  0  0  0  0  0  0  0  0  0
    1.5410   68.9690   62.0440 C   0  0  0  0  0  0  0  0  0  0  0  0
    1.1820   68.4080   63.3500 N   0  0  0  0  0  0  0  0  0  0  0  0
    5.5410   71.4068   69.4594 H   0  0  0  0  0  0  0  0  0  0  0  0
    6.5741   71.1569   68.0113 H   0  0  0  0  0  0  0  0  0  0  0  0
    5.3247   72.4475   68.0113 H   0  0  0  0  0  0  0  0  0  0  0  0
    3.2106   70.6562   69.4878 H   0  0  0  0  0  0  0  0  0  0  0  0
    1.5471   69.0548   68.5737 H   0  0  0  0  0  0  0  0  0  0  0  0
    4.0149   68.4828   65.0779 H   0  0  0  0  0  0  0  0  0  0  0  0
    5.6828   70.0774   65.9981 H   0  0  0  0  0  0  0  0  0  0  0  0
    0.4234   66.2467   67.9991 H   0  0  0  0  0  0  0  0  0  0  0  0
   -1.9859   66.2543   68.5960 H   0  0  0  0  0  0  0  0  0  0  0  0
   -3.5530   67.8485   67.4772 H   0  0  0  0  0  0  0  0  0  0  0  0
   -0.2702   69.4090   65.1474 H   0  0  0  0  0  0  0  0  0  0  0  0
   -2.4103   70.2097   64.9298 H   0  0  0  0  0  0  0  0  0  0  0  0
    3.0887   66.5088   65.3526 H   0  0  0  0  0  0  0  0  0  0  0  0
    1.3591   66.0991   65.0128 H   0  0  0  0  0  0  0  0  0  0  0  0
    4.0919   67.1122   63.2141 H   0  0  0  0  0  0  0  0  0  0  0  0
    3.6871   69.2474   61.7228 H   0  0  0  0  0  0  0  0  0  0  0  0
    3.0531   67.8461   60.8818 H   0  0  0  0  0  0  0  0  0  0  0  0
    1.5380   70.0686   62.0719 H   0  0  0  0  0  0  0  0  0  0  0  0
    0.8361   68.6937   61.2457 H   0  0  0  0  0  0  0  0  0  0  0  0
    0.2899   68.5771   63.8364 H   0  0  0  0  0  0  0  0  0  0  0  0
  3  2  1  0
  4  3  2  0
  5  4  1  0
  6  5  2  0
  6  1  1  0
  7  6  1  0
  8  7  2  0
  8  3  1  0
  9  1  1  0
 10  9  2  0
 11 10  1  0
 12 11  2  0
 13 12  1  0
 14 13  2  0
 14  9  1  0
 15 13  1  0
 16  1  1  0
 17 16  1  0
 18 17  2  0
 19 18  1  0
 20 19  1  0
 21 20  1  0
 21 17  1  0
  2 22  1  0
  2 23  1  0
  2 24  1  0
  4 25  1  0
  5 26  1  0
  7 27  1  0
  8 28  1  0
 10 29  1  0
 11 30  1  0
 12 31  1  0
 14 32  1  0
 15 33  1  0
 16 34  1  0
 16 35  1  0
 18 36  1  0
 19 37  1  0
 19 38  1  0
 20 39  1  0
 20 40  1  0
 21 41  1  0
M  CHG  1  18   1
M  END
>  <score>  (7) 
-9.111

$$$$
=
     RDKit          3D

 41 43  0  0  0  0  0  0  0  0999 V2000
    3.2830   68.4010   65.8910 N   0  0  0  0  0  0  0  0  0  0  0  0
    6.8760   71.7070   68.9360 C   0  0  0  0  0  0  0  0  0  0  0  0
    5.9260   70.8700   68.1290 C   0  0  0  0  0  0  0  0  0  0  0  0
    6.3400   70.2780   66.9350 C   0  0  0  0  0  0  0  0  0  0  0  0
    5.4580   69.4870   66.1940 C   0  0  0  0  0  0  0  0  0  0  0  0
    4.1430   69.2460   66.6330 C   0  0  0  0  0  0  0  0  0  0  0  0
    3.7420   69.8490   67.8340 C   0  0  0  0  0  0  0  0  0  0  0  0
    4.6230   70.6440   68.5780 C   0  0  0  0  0  0  0  0  0  0  0  0
    3.4570   68.0390   64.5310 C   0  0  0  0  0  0  0  0  0  0  0  0
    3.3070   69.0080   63.5180 C   0  0  0  0  0  0  0  0  0  0  0  0
    3.4650   68.6940   62.1630 C   0  0  0  0  0  0  0  0  0  0  0  0
    3.7780   67.3940   61.7800 C   0  0  0  0  0  0  0  0  0  0  0  0
    3.9220   66.4250   62.7610 C   0  0  0  0  0  0  0  0  0  0  0  0
    3.7640   66.7360   64.1130 C   0  0  0  0  0  0  0  0  0  0  0  0
    4.2300   65.1330   62.4500 O   0  0  0  0  0  0  0  0  0  0  0  0
    2.2280   67.7110   66.6620 C   0  0  0  0  0  0  0  0  0  0  0  0
    0.8740   68.2780   66.3580 C   0  0  0  0  0  0  0  0  0  0  0  0
    0.2110   69.0580   67.1970 N   0  0  0  0  0  4  0  0  0  0  0  0
   -1.0660   69.4730   66.5920 C   0  0  0  0  0  0  0  0  0  0  0  0
   -1.0550   68.7720   65.2230 C   0  0  0  0  0  0  0  0  0  0  0  0
    0.2210   68.0500   65.2320 N   0  0  0  0  0  0  0  0  0  0  0  0
    6.6898   71.5429   70.0076 H   0  0  0  0  0  0  0  0  0  0  0  0
    7.9109   71.4218   68.6958 H   0  0  0  0  0  0  0  0  0  0  0  0
    6.7234   72.7696   68.6958 H   0  0  0  0  0  0  0  0  0  0  0  0
    7.3674   70.4351   66.5748 H   0  0  0  0  0  0  0  0  0  0  0  0
    5.7990   69.0431   65.2471 H   0  0  0  0  0  0  0  0  0  0  0  0
    2.7158   69.6946   68.1987 H   0  0  0  0  0  0  0  0  0  0  0  0
    4.2859   71.0939   69.5235 H   0  0  0  0  0  0  0  0  0  0  0  0
    3.0584   70.0416   63.8008 H   0  0  0  0  0  0  0  0  0  0  0  0
    3.3414   69.4766   61.3999 H   0  0  0  0  0  0  0  0  0  0  0  0
    3.9089   67.1393   60.7179 H   0  0  0  0  0  0  0  0  0  0  0  0
    3.8828   65.9427   64.8657 H   0  0  0  0  0  0  0  0  0  0  0  0
    4.3272   64.4603   63.1698 H   0  0  0  0  0  0  0  0  0  0  0  0
    2.2355   66.6420   66.4028 H   0  0  0  0  0  0  0  0  0  0  0  0
    2.4316   67.8524   67.7337 H   0  0  0  0  0  0  0  0  0  0  0  0
    0.5393   69.3337   68.1336 H   0  0  0  0  0  0  0  0  0  0  0  0
   -1.9181   69.1356   67.2004 H   0  0  0  0  0  0  0  0  0  0  0  0
   -1.1702   70.5653   66.5148 H   0  0  0  0  0  0  0  0  0  0  0  0
   -1.9020   68.0766   65.1282 H   0  0  0  0  0  0  0  0  0  0  0  0
   -1.1522   69.4697   64.3781 H   0  0  0  0  0  0  0  0  0  0  0  0
    0.5609   67.4491   64.4676 H   0  0  0  0  0  0  0  0  0  0  0  0
  3  2  1  0
  4  3  2  0
  5  4  1  0
  6  5  2  0
  6  1  1  0
  7  6  1  0
  8  7  2  0
  8  3  1  0
  9  1  1  0
 10  9  2  0
 11 10  1  0
 12 11  2  0
 13 12  1  0
 14 13  2  0
 14  9  1  0
 15 13  1  0
 16  1  1  0
 17 16  1  0
 18 17  2  0
 19 18  1  0
 20 19  1  0
 21 20  1  0
 21 17  1  0
  2 22  1  0
  2 23  1  0
  2 24  1  0
  4 25  1  0
  5 26  1  0
  7 27  1  0
  8 28  1  0
 10 29  1  0
 11 30  1  0
 12 31  1  0
 14 32  1  0
 15 33  1  0
 16 34  1  0
 16 35  1  0
 18 36  1  0
 19 37  1  0
 19 38  1  0
 20 39  1  0
 20 40  1  0
 21 41  1  0
M  CHG  1  18   1
M  END
>  <score>  (8) 
-8.876

$$$$
=
     RDKit          3D

 41 43  0  0  0  0  0  0  0  0999 V2000
    2.5110   67.8740   64.8310 N   0  0  0  0  0  0  0  0  0  0  0  0
    5.1150   62.9070   63.5400 C   0  0  0  0  0  0  0  0  0  0  0  0
    4.4530   64.2050   63.9020 C   0  0  0  0  0  0  0  0  0  0  0  0
    4.8730   65.4020   63.3230 C   0  0  0  0  0  0  0  0  0  0  0  0
    4.2440   66.6070   63.6510 C   0  0  0  0  0  0  0  0  0  0  0  0
    3.1640   66.6480   64.5510 C   0  0  0  0  0  0  0  0  0  0  0  0
    2.7540   65.4370   65.1250 C   0  0  0  0  0  0  0  0  0  0  0  0
    3.3830   64.2290   64.8000 C   0  0  0  0  0  0  0  0  0  0  0  0
    1.2930   68.0140   65.5430 C   0  0  0  0  0  0  0  0  0  0  0  0
    1.2120   67.6020   66.8880 C   0  0  0  0  0  0  0  0  0  0  0  0
    0.0290   67.7170   67.6280 C   0  0  0  0  0  0  0  0  0  0  0  0
   -1.1140   68.2490   67.0400 C   0  0  0  0  0  0  0  0  0  0  0  0
   -1.0550   68.6540   65.7150 C   0  0  0  0  0  0  0  0  0  0  0  0
    0.1230   68.5390   64.9750 C   0  0  0  0  0  0  0  0  0  0  0  0
   -2.1400   69.1850   65.0810 O   0  0  0  0  0  0  0  0  0  0  0  0
    3.2670   69.1010   64.5020 C   0  0  0  0  0  0  0  0  0  0  0  0
    4.2100   69.4700   65.6060 C   0  0  0  0  0  0  0  0  0  0  0  0
    5.5260   69.4850   65.4600 N   0  0  0  0  0  4  0  0  0  0  0  0
    6.1650   69.9190   66.7140 C   0  0  0  0  0  0  0  0  0  0  0  0
    4.9730   70.1470   67.6590 C   0  0  0  0  0  0  0  0  0  0  0  0
    3.8180   69.8090   66.8220 N   0  0  0  0  0  0  0  0  0  0  0  0
    5.3903   62.3672   64.4581 H   0  0  0  0  0  0  0  0  0  0  0  0
    4.4198   62.2933   62.9483 H   0  0  0  0  0  0  0  0  0  0  0  0
    6.0200   63.1094   62.9483 H   0  0  0  0  0  0  0  0  0  0  0  0
    5.7049   65.3983   62.6033 H   0  0  0  0  0  0  0  0  0  0  0  0
    4.6013   67.5424   63.1956 H   0  0  0  0  0  0  0  0  0  0  0  0
    1.9221   65.4355   65.8447 H   0  0  0  0  0  0  0  0  0  0  0  0
    3.0318   63.2913   65.2554 H   0  0  0  0  0  0  0  0  0  0  0  0
    2.1045   67.1775   67.3709 H   0  0  0  0  0  0  0  0  0  0  0  0
    0.0033   67.3859   68.6767 H   0  0  0  0  0  0  0  0  0  0  0  0
   -2.0467   68.3465   67.6150 H   0  0  0  0  0  0  0  0  0  0  0  0
    0.1339   68.8668   63.9250 H   0  0  0  0  0  0  0  0  0  0  0  0
   -2.0715   69.4664   64.1343 H   0  0  0  0  0  0  0  0  0  0  0  0
    3.8429   68.9311   63.5803 H   0  0  0  0  0  0  0  0  0  0  0  0
    2.5509   69.9249   64.3663 H   0  0  0  0  0  0  0  0  0  0  0  0
    6.0283   69.2309   64.5974 H   0  0  0  0  0  0  0  0  0  0  0  0
    6.8345   69.1389   67.1055 H   0  0  0  0  0  0  0  0  0  0  0  0
    6.7927   70.8138   66.5897 H   0  0  0  0  0  0  0  0  0  0  0  0
    5.0322   69.4861   68.5363 H   0  0  0  0  0  0  0  0  0  0  0  0
    4.9304   71.1690   68.0636 H   0  0  0  0  0  0  0  0  0  0  0  0
    2.8378   69.8324   67.1374 H   0  0  0  0  0  0  0  0  0  0  0  0
  3  2  1  0
  4  3  2  0
  5  4  1  0
  6  5  2  0
  6  1  1  0
  7  6  1  0
  8  7  2  0
  8  3  1  0
  9  1  1  0
 10  9  2  0
 11 10  1  0
 12 11  2  0
 13 12  1  0
 14 13  2  0
 14  9  1  0
 15 13  1  0
 16  1  1  0
 17 16  1  0
 18 17  2  0
 19 18  1  0
 20 19  1  0
 21 20  1  0
 21 17  1  0
  2 22  1  0
  2 23  1  0
  2 24  1  0
  4 25  1  0
  5 26  1  0
  7 27  1  0
  8 28  1  0
 10 29  1  0
 11 30  1  0
 12 31  1  0
 14 32  1  0
 15 33  1  0
 16 34  1  0
 16 35  1  0
 18 36  1  0
 19 37  1  0
 19 38  1  0
 20 39  1  0
 20 40  1  0
 21 41  1  0
M  CHG  1  18   1
M  END
>  <score>  (9) 
-8.572

$$$$
