=
     RDKit          3D

 21 22  0  0  0  0  0  0  0  0999 V2000
    2.3350   69.2220   66.5280 N   0  0  0  0  0  0  0  0  0  0  0  0
    3.3250   69.7250   67.3890 C   0  0  0  0  0  0  0  0  0  0  0  0
    3.2140   70.0990   68.7150 C   0  0  0  0  0  0  0  0  0  0  0  0
    4.3600   70.5800   69.3620 C   0  0  0  0  0  0  0  0  0  0  0  0
    5.5890   70.6850   68.6830 C   0  0  0  0  0  0  0  0  0  0  0  0
    5.6940   70.3050   67.3450 C   0  0  0  0  0  0  0  0  0  0  0  0
    4.5490   69.8300   66.7340 C   0  0  0  0  0  0  0  0  0  0  0  0
    4.3490   69.3590   65.3650 C   0  0  0  0  0  0  0  0  0  0  0  0
    5.1790   69.3340   64.4820 O   0  0  0  0  0  0  0  0  0  0  0  0
    2.8560   68.9480   65.2760 C   0  0  0  0  0  0  0  0  0  0  0  0
    2.3250   68.5270   64.2680 O   0  0  0  0  0  0  0  0  0  0  0  0
    0.9780   68.9000   66.9560 C   0  0  0  0  0  0  0  0  0  0  0  0
    1.1130   66.8880   68.2000 O   0  0  0  0  0  1  0  0  0  0  0  0
    0.6740   67.3960   67.1260 C   0  0  0  0  0  0  0  0  0  0  0  0
    0.0540   66.8440   66.1730 O   0  0  0  0  0  0  0  0  0  0  0  0
    2.2542   70.0213   69.2467 H   0  0  0  0  0  0  0  0  0  0  0  0
    4.2985   70.8807   70.4183 H   0  0  0  0  0  0  0  0  0  0  0  0
    6.4734   71.0698   69.2119 H   0  0  0  0  0  0  0  0  0  0  0  0
    6.6465   70.3801   66.8000 H   0  0  0  0  0  0  0  0  0  0  0  0
    0.8019   69.3928   67.9235 H   0  0  0  0  0  0  0  0  0  0  0  0
    0.3159   69.2529   66.1516 H   0  0  0  0  0  0  0  0  0  0  0  0
  2  1  1  0
  3  2  2  0
  4  3  1  0
  5  4  2  0
  6  5  1  0
  7  2  1  0
  7  6  2  0
  8  7  1  0
  9  8  2  0
 10  8  1  0
 10  1  1  0
 11 10  2  0
 12  1  1  0
 14 13  1  0
 14 12  1  0
 15 14  2  0
  3 16  1  0
  4 17  1  0
  5 18  1  0
  6 19  1  0
 12 20  1  0
 12 21  1  0
M  CHG  1  13  -1
M  END
>  <score>  (1) 
-8.321

$$$$
=
     RDKit          3D

 21 22  0  0  0  0  0  0  0  0999 V2000
    2.7430   69.4690   67.4320 N   0  0  0  0  0  0  0  0  0  0  0  0
    3.4170   69.3710   66.2030 C   0  0  0  0  0  0  0  0  0  0  0  0
    2.9440   68.9140   64.9870 C   0  0  0  0  0  0  0  0  0  0  0  0
    3.8250   68.9120   63.8970 C   0  0  0  0  0  0  0  0  0  0  0  0
    5.1530   69.3580   64.0330 C   0  0  0  0  0  0  0  0  0  0  0  0
    5.6230   69.8190   65.2620 C   0  0  0  0  0  0  0  0  0  0  0  0
    4.7320   69.8140   66.3190 C   0  0  0  0  0  0  0  0  0  0  0  0
    4.9260   70.2340   67.7050 C   0  0  0  0  0  0  0  0  0  0  0  0
    5.9550   70.6460   68.1970 O   0  0  0  0  0  0  0  0  0  0  0  0
    3.5650   69.9990   68.4100 C   0  0  0  0  0  0  0  0  0  0  0  0
    3.3610   70.2190   69.5870 O   0  0  0  0  0  0  0  0  0  0  0  0
    1.3220   69.1810   67.6010 C   0  0  0  0  0  0  0  0  0  0  0  0
    1.1870   67.3870   69.1430 O   0  0  0  0  0  1  0  0  0  0  0  0
    0.9770   67.7150   67.9380 C   0  0  0  0  0  0  0  0  0  0  0  0
    0.5570   67.0100   66.9770 O   0  0  0  0  0  0  0  0  0  0  0  0
    1.9074   68.5625   64.8782 H   0  0  0  0  0  0  0  0  0  0  0  0
    3.4724   68.5556   62.9179 H   0  0  0  0  0  0  0  0  0  0  0  0
    5.8255   69.3427   63.1626 H   0  0  0  0  0  0  0  0  0  0  0  0
    6.6577   70.1714   65.3852 H   0  0  0  0  0  0  0  0  0  0  0  0
    0.9424   69.8145   68.4162 H   0  0  0  0  0  0  0  0  0  0  0  0
    0.8544   69.3851   66.6265 H   0  0  0  0  0  0  0  0  0  0  0  0
  2  1  1  0
  3  2  2  0
  4  3  1  0
  5  4  2  0
  6  5  1  0
  7  2  1  0
  7  6  2  0
  8  7  1  0
  9  8  2  0
 10  8  1  0
 10  1  1  0
 11 10  2  0
 12  1  1  0
 14 13  1  0
 14 12  1  0
 15 14  2  0
  3 16  1  0
  4 17  1  0
  5 18  1  0
  6 19  1  0
 12 20  1  0
 12 21  1  0
M  CHG  1  13  -1
M  END
>  <score>  (2) 
-8.148

$$$$
=
     RDKit          3D

 21 22  0  0  0  0  0  0  0  0999 V2000
    4.8650   69.9450   66.9580 N   0  0  0  0  0  0  0  0  0  0  0  0
    4.4630   69.5570   65.6690 C   0  0  0  0  0  0  0  0  0  0  0  0
    5.2110   69.4930   64.5080 C   0  0  0  0  0  0  0  0  0  0  0  0
    4.5700   69.0740   63.3340 C   0  0  0  0  0  0  0  0  0  0  0  0
    3.2050   68.7310   63.3330 C   0  0  0  0  0  0  0  0  0  0  0  0
    2.4560   68.7970   64.5080 C   0  0  0  0  0  0  0  0  0  0  0  0
    3.1150   69.2090   65.6510 C   0  0  0  0  0  0  0  0  0  0  0  0
    2.6080   69.3720   67.0120 C   0  0  0  0  0  0  0  0  0  0  0  0
    1.4670   69.1970   67.3820 O   0  0  0  0  0  0  0  0  0  0  0  0
    3.8170   69.8510   67.8560 C   0  0  0  0  0  0  0  0  0  0  0  0
    3.7600   70.1120   69.0410 O   0  0  0  0  0  0  0  0  0  0  0  0
    6.2440   70.2620   67.3140 C   0  0  0  0  0  0  0  0  0  0  0  0
    5.9810   72.4970   68.0560 O   0  0  0  0  0  1  0  0  0  0  0  0
    6.4180   71.3560   68.3890 C   0  0  0  0  0  0  0  0  0  0  0  0
    6.9990   71.0000   69.4540 O   0  0  0  0  0  0  0  0  0  0  0  0
    6.2774   69.7629   64.5057 H   0  0  0  0  0  0  0  0  0  0  0  0
    5.1436   69.0122   62.3974 H   0  0  0  0  0  0  0  0  0  0  0  0
    2.7246   68.4081   62.3976 H   0  0  0  0  0  0  0  0  0  0  0  0
    1.3883   68.5329   64.5242 H   0  0  0  0  0  0  0  0  0  0  0  0
    6.7178   69.3420   67.6869 H   0  0  0  0  0  0  0  0  0  0  0  0
    6.7080   70.6604   66.3997 H   0  0  0  0  0  0  0  0  0  0  0  0
  2  1  1  0
  3  2  2  0
  4  3  1  0
  5  4  2  0
  6  5  1  0
  7  2  1  0
  7  6  2  0
  8  7  1  0
  9  8  2  0
 10  8  1  0
 10  1  1  0
 11 10  2  0
 12  1  1  0
 14 13  1  0
 14 12  1  0
 15 14  2  0
  3 16  1  0
  4 17  1  0
  5 18  1  0
  6 19  1  0
 12 20  1  0
 12 21  1  0
M  CHG  1  13  -1
M  END
>  <score>  (3) 
-8.039

$$$$
=
     RDKit          3D

 21 22  0  0  0  0  0  0  0  0999 V2000
    2.4270   69.0660   66.4940 N   0  0  0  0  0  0  0  0  0  0  0  0
    3.7840   69.4330   66.4770 C   0  0  0  0  0  0  0  0  0  0  0  0
    4.7240   69.2370   65.4840 C   0  0  0  0  0  0  0  0  0  0  0  0
    6.0290   69.6960   65.7120 C   0  0  0  0  0  0  0  0  0  0  0  0
    6.3750   70.3360   66.9170 C   0  0  0  0  0  0  0  0  0  0  0  0
    5.4200   70.5320   67.9150 C   0  0  0  0  0  0  0  0  0  0  0  0
    4.1410   70.0730   67.6610 C   0  0  0  0  0  0  0  0  0  0  0  0
    2.9440   70.1350   68.4980 C   0  0  0  0  0  0  0  0  0  0  0  0
    2.8710   70.5900   69.6190 O   0  0  0  0  0  0  0  0  0  0  0  0
    1.8180   69.4630   67.6700 C   0  0  0  0  0  0  0  0  0  0  0  0
    0.6790   69.3150   68.0650 O   0  0  0  0  0  0  0  0  0  0  0  0
    1.7350   68.4760   65.3520 C   0  0  0  0  0  0  0  0  0  0  0  0
    2.1760   66.1530   65.2060 O   0  0  0  0  0  1  0  0  0  0  0  0
    1.2980   67.0060   65.5280 C   0  0  0  0  0  0  0  0  0  0  0  0
    0.1160   66.8250   65.9400 O   0  0  0  0  0  0  0  0  0  0  0  0
    4.4566   68.7356   64.5422 H   0  0  0  0  0  0  0  0  0  0  0  0
    6.7955   69.5536   64.9360 H   0  0  0  0  0  0  0  0  0  0  0  0
    7.4066   70.6844   67.0731 H   0  0  0  0  0  0  0  0  0  0  0  0
    5.6736   71.0300   68.8625 H   0  0  0  0  0  0  0  0  0  0  0  0
    0.8346   69.0761   65.1542 H   0  0  0  0  0  0  0  0  0  0  0  0
    2.4599   68.4790   64.5246 H   0  0  0  0  0  0  0  0  0  0  0  0
  2  1  1  0
  3  2  2  0
  4  3  1  0
  5  4  2  0
  6  5  1  0
  7  2  1  0
  7  6  2  0
  8  7  1  0
  9  8  2  0
 10  8  1  0
 10  1  1  0
 11 10  2  0
 12  1  1  0
 14 13  1  0
 14 12  1  0
 15 14  2  0
  3 16  1  0
  4 17  1  0
  5 18  1  0
  6 19  1  0
 12 20  1  0
 12 21  1  0
M  CHG  1  13  -1
M  END
>  <score>  (4) 
-8.031

$$$$
=
     RDKit          3D

 21 22  0  0  0  0  0  0  0  0999 V2000
    2.3960   68.4680   63.2420 N   0  0  0  0  0  0  0  0  0  0  0  0
    2.9670   68.8680   64.4630 C   0  0  0  0  0  0  0  0  0  0  0  0
    2.3870   68.9200   65.7160 C   0  0  0  0  0  0  0  0  0  0  0  0
    3.1750   69.3640   66.7880 C   0  0  0  0  0  0  0  0  0  0  0  0
    4.5160   69.7480   66.5950 C   0  0  0  0  0  0  0  0  0  0  0  0
    5.0940   69.6910   65.3280 C   0  0  0  0  0  0  0  0  0  0  0  0
    4.2950   69.2460   64.2910 C   0  0  0  0  0  0  0  0  0  0  0  0
    4.6140   69.0760   62.8750 C   0  0  0  0  0  0  0  0  0  0  0  0
    5.6690   69.3370   62.3360 O   0  0  0  0  0  0  0  0  0  0  0  0
    3.3180   68.5390   62.2140 C   0  0  0  0  0  0  0  0  0  0  0  0
    3.2070   68.3020   61.0280 O   0  0  0  0  0  0  0  0  0  0  0  0
    1.0500   67.9170   63.1210 C   0  0  0  0  0  0  0  0  0  0  0  0
    0.2970   69.9650   62.1970 O   0  0  0  0  0  1  0  0  0  0  0  0
   -0.0690   68.9470   62.8550 C   0  0  0  0  0  0  0  0  0  0  0  0
   -1.2020   68.6730   63.3450 O   0  0  0  0  0  0  0  0  0  0  0  0
    1.3391   68.6222   65.8682 H   0  0  0  0  0  0  0  0  0  0  0  0
    2.7382   69.4131   67.7964 H   0  0  0  0  0  0  0  0  0  0  0  0
    5.1123   70.0959   67.4514 H   0  0  0  0  0  0  0  0  0  0  0  0
    6.1401   69.9871   65.1604 H   0  0  0  0  0  0  0  0  0  0  0  0
    1.0522   67.1968   62.2895 H   0  0  0  0  0  0  0  0  0  0  0  0
    0.8195   67.4664   64.0976 H   0  0  0  0  0  0  0  0  0  0  0  0
  2  1  1  0
  3  2  2  0
  4  3  1  0
  5  4  2  0
  6  5  1  0
  7  2  1  0
  7  6  2  0
  8  7  1  0
  9  8  2  0
 10  8  1  0
 10  1  1  0
 11 10  2  0
 12  1  1  0
 14 13  1  0
 14 12  1  0
 15 14  2  0
  3 16  1  0
  4 17  1  0
  5 18  1  0
  6 19  1  0
 12 20  1  0
 12 21  1  0
M  CHG  1  13  -1
M  END
>  <score>  (5) 
-8.018

$$$$
=
     RDKit          3D

 21 22  0  0  0  0  0  0  0  0999 V2000
    1.5430   68.7150   64.8140 N   0  0  0  0  0  0  0  0  0  0  0  0
    2.9020   69.0300   64.9840 C   0  0  0  0  0  0  0  0  0  0  0  0
    3.5630   69.4350   66.1280 C   0  0  0  0  0  0  0  0  0  0  0  0
    4.9370   69.6960   66.0370 C   0  0  0  0  0  0  0  0  0  0  0  0
    5.6260   69.5550   64.8180 C   0  0  0  0  0  0  0  0  0  0  0  0
    4.9530   69.1450   63.6670 C   0  0  0  0  0  0  0  0  0  0  0  0
    3.5990   68.8900   63.7870 C   0  0  0  0  0  0  0  0  0  0  0  0
    2.6400   68.4490   62.7760 C   0  0  0  0  0  0  0  0  0  0  0  0
    2.8690   68.2530   61.6020 O   0  0  0  0  0  0  0  0  0  0  0  0
    1.2800   68.3300   63.5120 C   0  0  0  0  0  0  0  0  0  0  0  0
    0.2410   68.0060   62.9720 O   0  0  0  0  0  0  0  0  0  0  0  0
    0.5810   68.6640   65.9100 C   0  0  0  0  0  0  0  0  0  0  0  0
    1.4510   66.7610   67.0210 O   0  0  0  0  0  1  0  0  0  0  0  0
    0.3900   67.2780   66.5630 C   0  0  0  0  0  0  0  0  0  0  0  0
   -0.7840   66.8120   66.5390 O   0  0  0  0  0  0  0  0  0  0  0  0
    3.0267   69.5491   67.0816 H   0  0  0  0  0  0  0  0  0  0  0  0
    5.4866   70.0167   66.9343 H   0  0  0  0  0  0  0  0  0  0  0  0
    6.7039   69.7698   64.7725 H   0  0  0  0  0  0  0  0  0  0  0  0
    5.4761   69.0296   62.7063 H   0  0  0  0  0  0  0  0  0  0  0  0
    0.9185   69.3624   66.6899 H   0  0  0  0  0  0  0  0  0  0  0  0
   -0.3922   68.9272   65.4700 H   0  0  0  0  0  0  0  0  0  0  0  0
  2  1  1  0
  3  2  2  0
  4  3  1  0
  5  4  2  0
  6  5  1  0
  7  2  1  0
  7  6  2  0
  8  7  1  0
  9  8  2  0
 10  8  1  0
 10  1  1  0
 11 10  2  0
 12  1  1  0
 14 13  1  0
 14 12  1  0
 15 14  2  0
  3 16  1  0
  4 17  1  0
  5 18  1  0
  6 19  1  0
 12 20  1  0
 12 21  1  0
M  CHG  1  13  -1
M  END
>  <score>  (6) 
-7.962

$$$$
=
     RDKit          3D

 21 22  0  0  0  0  0  0  0  0999 V2000
    3.1670   68.7750   64.6360 N   0  0  0  0  0  0  0  0  0  0  0  0
    3.9450   69.3190   65.6720 C   0  0  0  0  0  0  0  0  0  0  0  0
    5.2680   69.7190   65.6470 C   0  0  0  0  0  0  0  0  0  0  0  0
    5.8230   70.2320   66.8270 C   0  0  0  0  0  0  0  0  0  0  0  0
    5.0600   70.3350   68.0060 C   0  0  0  0  0  0  0  0  0  0  0  0
    3.7260   69.9310   68.0240 C   0  0  0  0  0  0  0  0  0  0  0  0
    3.2030   69.4330   66.8450 C   0  0  0  0  0  0  0  0  0  0  0  0
    1.8580   68.9410   66.5550 C   0  0  0  0  0  0  0  0  0  0  0  0
    0.9380   68.8510   67.3400 O   0  0  0  0  0  0  0  0  0  0  0  0
    1.8750   68.5250   65.0610 C   0  0  0  0  0  0  0  0  0  0  0  0
    0.9240   68.0460   64.4770 O   0  0  0  0  0  0  0  0  0  0  0  0
    3.6360   68.6350   63.2610 C   0  0  0  0  0  0  0  0  0  0  0  0
    4.0380   66.9900   61.6030 O   0  0  0  0  0  1  0  0  0  0  0  0
    4.0720   67.2120   62.8490 C   0  0  0  0  0  0  0  0  0  0  0  0
    4.3810   66.4320   63.7950 O   0  0  0  0  0  0  0  0  0  0  0  0
    5.8672   69.6370   64.7282 H   0  0  0  0  0  0  0  0  0  0  0  0
    6.8730   70.5599   66.8324 H   0  0  0  0  0  0  0  0  0  0  0  0
    5.5204   70.7376   68.9203 H   0  0  0  0  0  0  0  0  0  0  0  0
    3.1160   70.0052   68.9364 H   0  0  0  0  0  0  0  0  0  0  0  0
    2.8209   68.9469   62.5915 H   0  0  0  0  0  0  0  0  0  0  0  0
    4.5371   69.2611   63.1840 H   0  0  0  0  0  0  0  0  0  0  0  0
  2  1  1  0
  3  2  2  0
  4  3  1  0
  5  4  2  0
  6  5  1  0
  7  2  1  0
  7  6  2  0
  8  7  1  0
  9  8  2  0
 10  8  1  0
 10  1  1  0
 11 10  2  0
 12  1  1  0
 14 13  1  0
 14 12  1  0
 15 14  2  0
  3 16  1  0
  4 17  1  0
  5 18  1  0
  6 19  1  0
 12 20  1  0
 12 21  1  0
M  CHG  1  13  -1
M  END
>  <score>  (7) 
-7.882

$$$$
=
     RDKit          3D

 21 22  0  0  0  0  0  0  0  0999 V2000
    3.5840   68.7090   64.0070 N   0  0  0  0  0  0  0  0  0  0  0  0
    2.9510   68.7930   65.2590 C   0  0  0  0  0  0  0  0  0  0  0  0
    1.7150   68.3070   65.6420 C   0  0  0  0  0  0  0  0  0  0  0  0
    1.3020   68.5260   66.9630 C   0  0  0  0  0  0  0  0  0  0  0  0
    2.1180   69.2220   67.8750 C   0  0  0  0  0  0  0  0  0  0  0  0
    3.3650   69.7080   67.4830 C   0  0  0  0  0  0  0  0  0  0  0  0
    3.7480   69.4750   66.1750 C   0  0  0  0  0  0  0  0  0  0  0  0
    4.9780   69.8520   65.4820 C   0  0  0  0  0  0  0  0  0  0  0  0
    5.9000   70.4890   65.9440 O   0  0  0  0  0  0  0  0  0  0  0  0
    4.8310   69.3050   64.0380 C   0  0  0  0  0  0  0  0  0  0  0  0
    5.6630   69.4550   63.1660 O   0  0  0  0  0  0  0  0  0  0  0  0
    3.0430   67.9610   62.8770 C   0  0  0  0  0  0  0  0  0  0  0  0
    1.1720   69.1010   61.9760 O   0  0  0  0  0  1  0  0  0  0  0  0
    2.3870   68.8130   61.7690 C   0  0  0  0  0  0  0  0  0  0  0  0
    3.1210   69.0960   60.7800 O   0  0  0  0  0  0  0  0  0  0  0  0
    1.0746   67.7645   64.9310 H   0  0  0  0  0  0  0  0  0  0  0  0
    0.3233   68.1476   67.2931 H   0  0  0  0  0  0  0  0  0  0  0  0
    1.7690   69.3838   68.9055 H   0  0  0  0  0  0  0  0  0  0  0  0
    4.0152   70.2526   68.1834 H   0  0  0  0  0  0  0  0  0  0  0  0
    3.8665   67.3903   62.4229 H   0  0  0  0  0  0  0  0  0  0  0  0
    2.2407   67.3307   63.2883 H   0  0  0  0  0  0  0  0  0  0  0  0
  2  1  1  0
  3  2  2  0
  4  3  1  0
  5  4  2  0
  6  5  1  0
  7  2  1  0
  7  6  2  0
  8  7  1  0
  9  8  2  0
 10  8  1  0
 10  1  1  0
 11 10  2  0
 12  1  1  0
 14 13  1  0
 14 12  1  0
 15 14  2  0
  3 16  1  0
  4 17  1  0
  5 18  1  0
  6 19  1  0
 12 20  1  0
 12 21  1  0
M  CHG  1  13  -1
M  END
>  <score>  (8) 
-7.706

$$$$
=
     RDKit          3D

 21 22  0  0  0  0  0  0  0  0999 V2000
    1.9500   68.2430   64.6760 N   0  0  0  0  0  0  0  0  0  0  0  0
    3.1110   68.8060   65.2360 C   0  0  0  0  0  0  0  0  0  0  0  0
    4.3590   68.9670   64.6650 C   0  0  0  0  0  0  0  0  0  0  0  0
    5.3660   69.5590   65.4410 C   0  0  0  0  0  0  0  0  0  0  0  0
    5.1160   69.9760   66.7620 C   0  0  0  0  0  0  0  0  0  0  0  0
    3.8540   69.8110   67.3310 C   0  0  0  0  0  0  0  0  0  0  0  0
    2.8790   69.2280   66.5420 C   0  0  0  0  0  0  0  0  0  0  0  0
    1.4820   68.9310   66.8520 C   0  0  0  0  0  0  0  0  0  0  0  0
    0.9220   69.1240   67.9100 O   0  0  0  0  0  0  0  0  0  0  0  0
    0.8950   68.2870   65.5690 C   0  0  0  0  0  0  0  0  0  0  0  0
   -0.2480   67.8890   65.4700 O   0  0  0  0  0  0  0  0  0  0  0  0
    1.8510   67.8090   63.2870 C   0  0  0  0  0  0  0  0  0  0  0  0
    0.3570   69.4730   62.5020 O   0  0  0  0  0  1  0  0  0  0  0  0
    1.4680   68.9090   62.2730 C   0  0  0  0  0  0  0  0  0  0  0  0
    2.2830   69.0970   61.3250 O   0  0  0  0  0  0  0  0  0  0  0  0
    4.5566   68.6408   63.6332 H   0  0  0  0  0  0  0  0  0  0  0  0
    6.3682   69.6999   65.0101 H   0  0  0  0  0  0  0  0  0  0  0  0
    5.9235   70.4361   67.3505 H   0  0  0  0  0  0  0  0  0  0  0  0
    3.6429   70.1305   68.3622 H   0  0  0  0  0  0  0  0  0  0  0  0
    2.8274   67.3989   62.9896 H   0  0  0  0  0  0  0  0  0  0  0  0
    1.0338   67.0732   63.2578 H   0  0  0  0  0  0  0  0  0  0  0  0
  2  1  1  0
  3  2  2  0
  4  3  1  0
  5  4  2  0
  6  5  1  0
  7  2  1  0
  7  6  2  0
  8  7  1  0
  9  8  2  0
 10  8  1  0
 10  1  1  0
 11 10  2  0
 12  1  1  0
 14 13  1  0
 14 12  1  0
 15 14  2  0
  3 16  1  0
  4 17  1  0
  5 18  1  0
  6 19  1  0
 12 20  1  0
 12 21  1  0
M  CHG  1  13  -1
M  END
>  <score>  (9) 
-7.611

$$$$
