=
     RDKit          3D

 33 33  0  0  0  0  0  0  0  0999 V2000
    5.6420   68.8120   62.8400 C   0  0  0  0  0  0  0  0  0  0  0  0
    4.2050   68.9480   63.0170 N   0  0  0  0  0  0  0  0  0  0  0  0
    3.8020   69.0720   64.3540 C   0  0  0  0  0  0  0  0  0  0  0  0
    2.5440   68.7920   64.6700 N   0  0  0  0  0  0  0  0  0  0  0  0
    2.1850   68.9330   65.9410 C   0  0  0  0  0  0  0  0  0  0  0  0
    3.0310   69.3400   66.8800 N   0  0  0  0  0  0  0  0  0  0  0  0
    4.2720   69.6200   66.5050 C   0  0  0  0  0  0  0  0  0  0  0  0
    4.6840   69.4980   65.2490 N   0  0  0  0  0  0  0  0  0  0  0  0
    5.1920   70.0390   67.4760 N   0  0  0  0  0  0  0  0  0  0  0  0
    4.5900   70.5530   68.6950 C   0  0  0  0  0  0  0  0  0  0  0  0
    6.3300   70.7730   66.9460 C   0  0  0  0  0  0  0  0  0  0  0  0
    0.8710   68.6160   66.3070 N   0  0  0  0  0  0  0  0  0  0  0  0
   -0.0840   68.6610   65.2110 C   0  0  0  0  0  0  0  0  0  0  0  0
    0.4430   69.1880   67.5740 C   0  0  0  0  0  0  0  0  0  0  0  0
    3.3660   68.0620   62.2240 C   0  0  0  0  0  0  0  0  0  0  0  0
    6.1300   68.7658   63.8248 H   0  0  0  0  0  0  0  0  0  0  0  0
    5.8569   67.8895   62.2807 H   0  0  0  0  0  0  0  0  0  0  0  0
    6.0261   69.6778   62.2807 H   0  0  0  0  0  0  0  0  0  0  0  0
    5.0996   70.1179   69.5673 H   0  0  0  0  0  0  0  0  0  0  0  0
    4.6906   71.6481   68.7201 H   0  0  0  0  0  0  0  0  0  0  0  0
    3.5242   70.2820   68.7201 H   0  0  0  0  0  0  0  0  0  0  0  0
    6.9346   71.1629   67.7781 H   0  0  0  0  0  0  0  0  0  0  0  0
    6.9449   70.1009   66.3295 H   0  0  0  0  0  0  0  0  0  0  0  0
    5.9713   71.6104   66.3295 H   0  0  0  0  0  0  0  0  0  0  0  0
   -1.1054   68.7091   65.6164 H   0  0  0  0  0  0  0  0  0  0  0  0
    0.1078   69.5511   64.5938 H   0  0  0  0  0  0  0  0  0  0  0  0
    0.0233   67.7568   64.5938 H   0  0  0  0  0  0  0  0  0  0  0  0
    0.8763   68.6089   68.4028 H   0  0  0  0  0  0  0  0  0  0  0  0
    0.7836   70.2319   67.6387 H   0  0  0  0  0  0  0  0  0  0  0  0
   -0.6546   69.1558   67.6387 H   0  0  0  0  0  0  0  0  0  0  0  0
    2.7660   67.4284   62.8938 H   0  0  0  0  0  0  0  0  0  0  0  0
    2.6967   68.6615   61.5894 H   0  0  0  0  0  0  0  0  0  0  0  0
    4.0010   67.4264   61.5894 H   0  0  0  0  0  0  0  0  0  0  0  0
  2  1  1  0
  3  2  1  0
  4  3  2  0
  5  4  1  0
  6  5  2  0
  7  6  1  0
  8  3  1  0
  8  7  2  0
  9  7  1  0
 10  9  1  0
 11  9  1  0
 12  5  1  0
 13 12  1  0
 14 12  1  0
 15  2  1  0
  1 16  1  0
  1 17  1  0
  1 18  1  0
 10 19  1  0
 10 20  1  0
 10 21  1  0
 11 22  1  0
 11 23  1  0
 11 24  1  0
 13 25  1  0
 13 26  1  0
 13 27  1  0
 14 28  1  0
 14 29  1  0
 14 30  1  0
 15 31  1  0
 15 32  1  0
 15 33  1  0
M  END
>  <score>  (1) 
-7.462

$$$$
=
     RDKit          3D

 33 33  0  0  0  0  0  0  0  0999 V2000
    6.5430   70.9480   66.9000 C   0  0  0  0  0  0  0  0  0  0  0  0
    5.4550   70.2060   67.5180 N   0  0  0  0  0  0  0  0  0  0  0  0
    4.4850   69.7520   66.6120 C   0  0  0  0  0  0  0  0  0  0  0  0
    3.2790   69.4410   67.0710 N   0  0  0  0  0  0  0  0  0  0  0  0
    2.3850   69.0000   66.1940 C   0  0  0  0  0  0  0  0  0  0  0  0
    2.6600   68.8610   64.9030 N   0  0  0  0  0  0  0  0  0  0  0  0
    3.8860   69.1720   64.5020 C   0  0  0  0  0  0  0  0  0  0  0  0
    4.8190   69.6180   65.3350 N   0  0  0  0  0  0  0  0  0  0  0  0
    4.2030   69.0490   63.1420 N   0  0  0  0  0  0  0  0  0  0  0  0
    3.3140   68.1770   62.3930 C   0  0  0  0  0  0  0  0  0  0  0  0
    5.6260   68.9290   62.8670 C   0  0  0  0  0  0  0  0  0  0  0  0
    1.0960   68.6920   66.6470 N   0  0  0  0  0  0  0  0  0  0  0  0
    1.0140   68.3990   68.0690 C   0  0  0  0  0  0  0  0  0  0  0  0
    0.3320   67.8340   65.7550 C   0  0  0  0  0  0  0  0  0  0  0  0
    4.9060   70.7600   68.7460 C   0  0  0  0  0  0  0  0  0  0  0  0
    7.1812   71.3833   67.6831 H   0  0  0  0  0  0  0  0  0  0  0  0
    7.1413   70.2689   66.2748 H   0  0  0  0  0  0  0  0  0  0  0  0
    6.1292   71.7529   66.2748 H   0  0  0  0  0  0  0  0  0  0  0  0
    2.7081   67.5827   63.0927 H   0  0  0  0  0  0  0  0  0  0  0  0
    2.6516   68.7853   61.7597 H   0  0  0  0  0  0  0  0  0  0  0  0
    3.9094   67.5029   61.7597 H   0  0  0  0  0  0  0  0  0  0  0  0
    6.1802   68.8823   63.8160 H   0  0  0  0  0  0  0  0  0  0  0  0
    5.8116   68.0120   62.2885 H   0  0  0  0  0  0  0  0  0  0  0  0
    5.9625   69.8020   62.2885 H   0  0  0  0  0  0  0  0  0  0  0  0
    1.2666   69.3017   68.6445 H   0  0  0  0  0  0  0  0  0  0  0  0
   -0.0082   68.0789   68.3191 H   0  0  0  0  0  0  0  0  0  0  0  0
    1.7216   67.5948   68.3191 H   0  0  0  0  0  0  0  0  0  0  0  0
   -0.2836   67.1427   66.3493 H   0  0  0  0  0  0  0  0  0  0  0  0
   -0.3199   68.4525   65.1205 H   0  0  0  0  0  0  0  0  0  0  0  0
    1.0216   67.2579   65.1205 H   0  0  0  0  0  0  0  0  0  0  0  0
    5.3838   70.2778   69.6115 H   0  0  0  0  0  0  0  0  0  0  0  0
    5.0975   71.8427   68.7775 H   0  0  0  0  0  0  0  0  0  0  0  0
    3.8216   70.5784   68.7775 H   0  0  0  0  0  0  0  0  0  0  0  0
  2  1  1  0
  3  2  1  0
  4  3  2  0
  5  4  1  0
  6  5  2  0
  7  6  1  0
  8  3  1  0
  8  7  2  0
  9  7  1  0
 10  9  1  0
 11  9  1  0
 12  5  1  0
 13 12  1  0
 14 12  1  0
 15  2  1  0
  1 16  1  0
  1 17  1  0
  1 18  1  0
 10 19  1  0
 10 20  1  0
 10 21  1  0
 11 22  1  0
 11 23  1  0
 11 24  1  0
 13 25  1  0
 13 26  1  0
 13 27  1  0
 14 28  1  0
 14 29  1  0
 14 30  1  0
 15 31  1  0
 15 32  1  0
 15 33  1  0
M  END
>  <score>  (2) 
-7.298

$$$$
=
     RDKit          3D

 33 33  0  0  0  0  0  0  0  0999 V2000
    4.8180   70.5030   68.9460 C   0  0  0  0  0  0  0  0  0  0  0  0
    5.2060   70.5590   67.5450 N   0  0  0  0  0  0  0  0  0  0  0  0
    4.3580   69.8420   66.6880 C   0  0  0  0  0  0  0  0  0  0  0  0
    4.8150   69.4780   65.4970 N   0  0  0  0  0  0  0  0  0  0  0  0
    3.9870   68.8140   64.7000 C   0  0  0  0  0  0  0  0  0  0  0  0
    2.7430   68.5160   65.0530 N   0  0  0  0  0  0  0  0  0  0  0  0
    2.3340   68.9170   66.2500 C   0  0  0  0  0  0  0  0  0  0  0  0
    3.1190   69.5840   67.0870 N   0  0  0  0  0  0  0  0  0  0  0  0
    1.0290   68.6040   66.6570 N   0  0  0  0  0  0  0  0  0  0  0  0
    0.1210   68.2750   65.5710 C   0  0  0  0  0  0  0  0  0  0  0  0
    0.5100   69.4620   67.7110 C   0  0  0  0  0  0  0  0  0  0  0  0
    4.4530   68.3930   63.4480 N   0  0  0  0  0  0  0  0  0  0  0  0
    5.5910   69.1470   62.9460 C   0  0  0  0  0  0  0  0  0  0  0  0
    3.4060   68.0720   62.4910 C   0  0  0  0  0  0  0  0  0  0  0  0
    6.6220   70.3910   67.2560 C   0  0  0  0  0  0  0  0  0  0  0  0
    5.7087   70.6316   69.5786 H   0  0  0  0  0  0  0  0  0  0  0  0
    4.0977   71.3065   69.1594 H   0  0  0  0  0  0  0  0  0  0  0  0
    4.3543   69.5286   69.1594 H   0  0  0  0  0  0  0  0  0  0  0  0
   -0.8367   67.9280   65.9862 H   0  0  0  0  0  0  0  0  0  0  0  0
   -0.0497   69.1684   64.9524 H   0  0  0  0  0  0  0  0  0  0  0  0
    0.5622   67.4796   64.9524 H   0  0  0  0  0  0  0  0  0  0  0  0
    0.7681   69.0353   68.6915 H   0  0  0  0  0  0  0  0  0  0  0  0
    0.9532   70.4646   67.6192 H   0  0  0  0  0  0  0  0  0  0  0  0
   -0.5837   69.5348   67.6192 H   0  0  0  0  0  0  0  0  0  0  0  0
    6.1763   69.5348   63.7928 H   0  0  0  0  0  0  0  0  0  0  0  0
    6.2248   68.4895   62.3328 H   0  0  0  0  0  0  0  0  0  0  0  0
    5.2326   69.9869   62.3328 H   0  0  0  0  0  0  0  0  0  0  0  0
    2.4896   67.7910   63.0306 H   0  0  0  0  0  0  0  0  0  0  0  0
    3.2050   68.9498   61.8593 H   0  0  0  0  0  0  0  0  0  0  0  0
    3.7315   67.2324   61.8593 H   0  0  0  0  0  0  0  0  0  0  0  0
    7.1834   70.3244   68.1996 H   0  0  0  0  0  0  0  0  0  0  0  0
    6.7708   69.4689   66.6750 H   0  0  0  0  0  0  0  0  0  0  0  0
    6.9824   71.2527   66.6750 H   0  0  0  0  0  0  0  0  0  0  0  0
  2  1  1  0
  3  2  1  0
  4  3  2  0
  5  4  1  0
  6  5  2  0
  7  6  1  0
  8  3  1  0
  8  7  2  0
  9  7  1  0
 10  9  1  0
 11  9  1  0
 12  5  1  0
 13 12  1  0
 14 12  1  0
 15  2  1  0
  1 16  1  0
  1 17  1  0
  1 18  1  0
 10 19  1  0
 10 20  1  0
 10 21  1  0
 11 22  1  0
 11 23  1  0
 11 24  1  0
 13 25  1  0
 13 26  1  0
 13 27  1  0
 14 28  1  0
 14 29  1  0
 14 30  1  0
 15 31  1  0
 15 32  1  0
 15 33  1  0
M  END
>  <score>  (3) 
-6.96

$$$$
=
     RDKit          3D

 33 33  0  0  0  0  0  0  0  0999 V2000
    0.3630   69.2970   67.6700 C   0  0  0  0  0  0  0  0  0  0  0  0
    0.8650   68.5760   66.5100 N   0  0  0  0  0  0  0  0  0  0  0  0
    2.1600   68.9490   66.1220 C   0  0  0  0  0  0  0  0  0  0  0  0
    2.5560   68.6840   64.8830 N   0  0  0  0  0  0  0  0  0  0  0  0
    3.7910   69.0340   64.5470 C   0  0  0  0  0  0  0  0  0  0  0  0
    4.6220   69.6250   65.3970 N   0  0  0  0  0  0  0  0  0  0  0  0
    4.1790   69.8530   66.6260 C   0  0  0  0  0  0  0  0  0  0  0  0
    2.9540   69.5230   67.0170 N   0  0  0  0  0  0  0  0  0  0  0  0
    5.0280   70.4880   67.5430 N   0  0  0  0  0  0  0  0  0  0  0  0
    6.4400   70.4250   67.2010 C   0  0  0  0  0  0  0  0  0  0  0  0
    4.6800   70.2630   68.9370 C   0  0  0  0  0  0  0  0  0  0  0  0
    4.2250   68.7920   63.2370 N   0  0  0  0  0  0  0  0  0  0  0  0
    3.4880   67.7460   62.5450 C   0  0  0  0  0  0  0  0  0  0  0  0
    5.6690   68.7980   63.0690 C   0  0  0  0  0  0  0  0  0  0  0  0
   -0.0610   68.4040   65.4010 C   0  0  0  0  0  0  0  0  0  0  0  0
    0.7089   68.8002   68.5884 H   0  0  0  0  0  0  0  0  0  0  0  0
    0.7374   70.3311   67.6492 H   0  0  0  0  0  0  0  0  0  0  0  0
   -0.7368   69.3047   67.6492 H   0  0  0  0  0  0  0  0  0  0  0  0
    7.0397   70.3982   68.1228 H   0  0  0  0  0  0  0  0  0  0  0  0
    6.6342   69.5173   66.6108 H   0  0  0  0  0  0  0  0  0  0  0  0
    6.7142   71.3118   66.6108 H   0  0  0  0  0  0  0  0  0  0  0  0
    5.4271   70.7460   69.5840 H   0  0  0  0  0  0  0  0  0  0  0  0
    3.6872   70.6906   69.1407 H   0  0  0  0  0  0  0  0  0  0  0  0
    4.6625   69.1822   69.1407 H   0  0  0  0  0  0  0  0  0  0  0  0
    3.0181   67.0791   63.2828 H   0  0  0  0  0  0  0  0  0  0  0  0
    2.7101   68.2013   61.9145 H   0  0  0  0  0  0  0  0  0  0  0  0
    4.1785   67.1667   61.9145 H   0  0  0  0  0  0  0  0  0  0  0  0
    6.1531   68.8000   64.0568 H   0  0  0  0  0  0  0  0  0  0  0  0
    5.9770   67.9011   62.5116 H   0  0  0  0  0  0  0  0  0  0  0  0
    5.9696   69.6974   62.5116 H   0  0  0  0  0  0  0  0  0  0  0  0
   -1.0716   68.2163   65.7929 H   0  0  0  0  0  0  0  0  0  0  0  0
   -0.0698   69.3159   64.7859 H   0  0  0  0  0  0  0  0  0  0  0  0
    0.2583   67.5498   64.7859 H   0  0  0  0  0  0  0  0  0  0  0  0
  2  1  1  0
  3  2  1  0
  4  3  2  0
  5  4  1  0
  6  5  2  0
  7  6  1  0
  8  3  1  0
  8  7  2  0
  9  7  1  0
 10  9  1  0
 11  9  1  0
 12  5  1  0
 13 12  1  0
 14 12  1  0
 15  2  1  0
  1 16  1  0
  1 17  1  0
  1 18  1  0
 10 19  1  0
 10 20  1  0
 10 21  1  0
 11 22  1  0
 11 23  1  0
 11 24  1  0
 13 25  1  0
 13 26  1  0
 13 27  1  0
 14 28  1  0
 14 29  1  0
 14 30  1  0
 15 31  1  0
 15 32  1  0
 15 33  1  0
M  END
>  <score>  (4) 
-6.858

$$$$
=
     RDKit          3D

 33 33  0  0  0  0  0  0  0  0999 V2000
    5.6450   70.0830   64.7890 C   0  0  0  0  0  0  0  0  0  0  0  0
    4.9160   69.3860   65.8360 N   0  0  0  0  0  0  0  0  0  0  0  0
    3.5650   69.1570   65.5370 C   0  0  0  0  0  0  0  0  0  0  0  0
    2.7230   68.9180   66.5350 N   0  0  0  0  0  0  0  0  0  0  0  0
    1.4530   68.6900   66.2230 C   0  0  0  0  0  0  0  0  0  0  0  0
    1.0150   68.6910   64.9700 N   0  0  0  0  0  0  0  0  0  0  0  0
    1.9030   68.9210   64.0110 C   0  0  0  0  0  0  0  0  0  0  0  0
    3.1850   69.1550   64.2670 N   0  0  0  0  0  0  0  0  0  0  0  0
    1.4680   68.9430   62.6790 N   0  0  0  0  0  0  0  0  0  0  0  0
    0.1990   68.2730   62.4480 C   0  0  0  0  0  0  0  0  0  0  0  0
    2.5200   68.7110   61.7020 C   0  0  0  0  0  0  0  0  0  0  0  0
    0.5370   68.4630   67.2580 N   0  0  0  0  0  0  0  0  0  0  0  0
    1.1370   67.9980   68.4990 C   0  0  0  0  0  0  0  0  0  0  0  0
   -0.6950   67.8120   66.8420 C   0  0  0  0  0  0  0  0  0  0  0  0
    5.1550   69.8310   67.2010 C   0  0  0  0  0  0  0  0  0  0  0  0
    6.3687   70.7750   65.2444 H   0  0  0  0  0  0  0  0  0  0  0  0
    6.1796   69.3515   64.1652 H   0  0  0  0  0  0  0  0  0  0  0  0
    4.9383   70.6499   64.1652 H   0  0  0  0  0  0  0  0  0  0  0  0
   -0.2669   68.0270   63.4136 H   0  0  0  0  0  0  0  0  0  0  0  0
   -0.4676   68.9367   61.8778 H   0  0  0  0  0  0  0  0  0  0  0  0
    0.3711   67.3482   61.8778 H   0  0  0  0  0  0  0  0  0  0  0  0
    3.4656   68.5025   62.2239 H   0  0  0  0  0  0  0  0  0  0  0  0
    2.2516   67.8505   61.0716 H   0  0  0  0  0  0  0  0  0  0  0  0
    2.6385   69.6046   61.0716 H   0  0  0  0  0  0  0  0  0  0  0  0
    0.5889   68.4227   69.3529 H   0  0  0  0  0  0  0  0  0  0  0  0
    1.0877   66.8999   68.5412 H   0  0  0  0  0  0  0  0  0  0  0  0
    2.1881   68.3197   68.5412 H   0  0  0  0  0  0  0  0  0  0  0  0
   -1.2679   67.5092   67.7309 H   0  0  0  0  0  0  0  0  0  0  0  0
   -1.2941   68.5113   66.2402 H   0  0  0  0  0  0  0  0  0  0  0  0
   -0.4549   66.9231   66.2402 H   0  0  0  0  0  0  0  0  0  0  0  0
    4.7550   69.0862   67.9048 H   0  0  0  0  0  0  0  0  0  0  0  0
    6.2366   69.9466   67.3649 H   0  0  0  0  0  0  0  0  0  0  0  0
    4.6541   70.7965   67.3649 H   0  0  0  0  0  0  0  0  0  0  0  0
  2  1  1  0
  3  2  1  0
  4  3  2  0
  5  4  1  0
  6  5  2  0
  7  6  1  0
  8  3  1  0
  8  7  2  0
  9  7  1  0
 10  9  1  0
 11  9  1  0
 12  5  1  0
 13 12  1  0
 14 12  1  0
 15  2  1  0
  1 16  1  0
  1 17  1  0
  1 18  1  0
 10 19  1  0
 10 20  1  0
 10 21  1  0
 11 22  1  0
 11 23  1  0
 11 24  1  0
 13 25  1  0
 13 26  1  0
 13 27  1  0
 14 28  1  0
 14 29  1  0
 14 30  1  0
 15 31  1  0
 15 32  1  0
 15 33  1  0
M  END
>  <score>  (5) 
-6.505

$$$$
=
     RDKit          3D

 33 33  0  0  0  0  0  0  0  0999 V2000
   -0.2780   68.4070   62.7030 C   0  0  0  0  0  0  0  0  0  0  0  0
    1.1770   68.4050   62.7170 N   0  0  0  0  0  0  0  0  0  0  0  0
    1.7370   68.6650   63.9760 C   0  0  0  0  0  0  0  0  0  0  0  0
    2.9920   69.0910   64.0400 N   0  0  0  0  0  0  0  0  0  0  0  0
    3.5020   69.3150   65.2460 C   0  0  0  0  0  0  0  0  0  0  0  0
    2.8080   69.1250   66.3610 N   0  0  0  0  0  0  0  0  0  0  0  0
    1.5620   68.6840   66.2380 C   0  0  0  0  0  0  0  0  0  0  0  0
    1.0020   68.4440   65.0580 N   0  0  0  0  0  0  0  0  0  0  0  0
    0.7990   68.4880   67.3970 N   0  0  0  0  0  0  0  0  0  0  0  0
    1.5780   68.3520   68.6170 C   0  0  0  0  0  0  0  0  0  0  0  0
   -0.3210   67.5750   67.2280 C   0  0  0  0  0  0  0  0  0  0  0  0
    4.8150   69.7930   65.3410 N   0  0  0  0  0  0  0  0  0  0  0  0
    5.6420   69.5120   64.1770 C   0  0  0  0  0  0  0  0  0  0  0  0
    5.4320   69.6050   66.6440 C   0  0  0  0  0  0  0  0  0  0  0  0
    1.8380   69.0940   61.6190 C   0  0  0  0  0  0  0  0  0  0  0  0
   -0.6546   68.4075   63.7365 H   0  0  0  0  0  0  0  0  0  0  0  0
   -0.6384   69.3056   62.1810 H   0  0  0  0  0  0  0  0  0  0  0  0
   -0.6409   67.5094   62.1810 H   0  0  0  0  0  0  0  0  0  0  0  0
    0.9172   68.4674   69.4888 H   0  0  0  0  0  0  0  0  0  0  0  0
    2.0486   67.3581   68.6426 H   0  0  0  0  0  0  0  0  0  0  0  0
    2.3576   69.1276   68.6426 H   0  0  0  0  0  0  0  0  0  0  0  0
   -0.6967   67.2688   68.2155 H   0  0  0  0  0  0  0  0  0  0  0  0
   -1.1241   68.0791   66.6704 H   0  0  0  0  0  0  0  0  0  0  0  0
    0.0109   66.6868   66.6704 H   0  0  0  0  0  0  0  0  0  0  0  0
    6.6358   69.1743   64.5062 H   0  0  0  0  0  0  0  0  0  0  0  0
    5.1687   68.7242   63.5725 H   0  0  0  0  0  0  0  0  0  0  0  0
    5.7466   70.4250   63.5725 H   0  0  0  0  0  0  0  0  0  0  0  0
    4.6985   69.8285   67.4327 H   0  0  0  0  0  0  0  0  0  0  0  0
    5.7704   68.5630   66.7426 H   0  0  0  0  0  0  0  0  0  0  0  0
    6.2939   70.2813   66.7426 H   0  0  0  0  0  0  0  0  0  0  0  0
    2.5463   69.8324   62.0228 H   0  0  0  0  0  0  0  0  0  0  0  0
    2.3818   68.3635   61.0020 H   0  0  0  0  0  0  0  0  0  0  0  0
    1.0856   69.6070   61.0020 H   0  0  0  0  0  0  0  0  0  0  0  0
  2  1  1  0
  3  2  1  0
  4  3  2  0
  5  4  1  0
  6  5  2  0
  7  6  1  0
  8  3  1  0
  8  7  2  0
  9  7  1  0
 10  9  1  0
 11  9  1  0
 12  5  1  0
 13 12  1  0
 14 12  1  0
 15  2  1  0
  1 16  1  0
  1 17  1  0
  1 18  1  0
 10 19  1  0
 10 20  1  0
 10 21  1  0
 11 22  1  0
 11 23  1  0
 11 24  1  0
 13 25  1  0
 13 26  1  0
 13 27  1  0
 14 28  1  0
 14 29  1  0
 14 30  1  0
 15 31  1  0
 15 32  1  0
 15 33  1  0
M  END
>  <score>  (6) 
-6.294

$$$$
=
     RDKit          3D

 33 33  0  0  0  0  0  0  0  0999 V2000
    5.7620   68.8240   64.9950 C   0  0  0  0  0  0  0  0  0  0  0  0
    4.8080   69.2270   63.9730 N   0  0  0  0  0  0  0  0  0  0  0  0
    3.4670   69.0220   64.3300 C   0  0  0  0  0  0  0  0  0  0  0  0
    2.5540   68.9550   63.3680 N   0  0  0  0  0  0  0  0  0  0  0  0
    1.2910   68.7750   63.7350 C   0  0  0  0  0  0  0  0  0  0  0  0
    0.9250   68.6670   65.0060 N   0  0  0  0  0  0  0  0  0  0  0  0
    1.8770   68.7550   65.9260 C   0  0  0  0  0  0  0  0  0  0  0  0
    3.1560   68.9350   65.6160 N   0  0  0  0  0  0  0  0  0  0  0  0
    1.5240   68.6310   67.2770 N   0  0  0  0  0  0  0  0  0  0  0  0
    0.1180   68.8680   67.5570 C   0  0  0  0  0  0  0  0  0  0  0  0
    2.4850   69.2100   68.2030 C   0  0  0  0  0  0  0  0  0  0  0  0
    0.3110   68.6730   62.7400 N   0  0  0  0  0  0  0  0  0  0  0  0
    0.6830   69.2730   61.4680 C   0  0  0  0  0  0  0  0  0  0  0  0
   -1.0470   68.9090   63.2030 C   0  0  0  0  0  0  0  0  0  0  0  0
    5.1220   68.8460   62.6040 C   0  0  0  0  0  0  0  0  0  0  0  0
    5.3314   69.0059   65.9907 H   0  0  0  0  0  0  0  0  0  0  0  0
    5.9884   67.7534   64.8835 H   0  0  0  0  0  0  0  0  0  0  0  0
    6.6874   69.4081   64.8835 H   0  0  0  0  0  0  0  0  0  0  0  0
   -0.0397   68.8946   68.6453 H   0  0  0  0  0  0  0  0  0  0  0  0
   -0.1860   69.8301   67.1188 H   0  0  0  0  0  0  0  0  0  0  0  0
   -0.4846   68.0588   67.1188 H   0  0  0  0  0  0  0  0  0  0  0  0
    2.1618   69.0153   69.2362 H   0  0  0  0  0  0  0  0  0  0  0  0
    3.4735   68.7570   68.0365 H   0  0  0  0  0  0  0  0  0  0  0  0
    2.5464   70.2956   68.0365 H   0  0  0  0  0  0  0  0  0  0  0  0
    1.2546   70.1949   61.6507 H   0  0  0  0  0  0  0  0  0  0  0  0
    1.3012   68.5656   60.8958 H   0  0  0  0  0  0  0  0  0  0  0  0
   -0.2255   69.5122   60.8958 H   0  0  0  0  0  0  0  0  0  0  0  0
   -1.0641   68.9120   64.3029 H   0  0  0  0  0  0  0  0  0  0  0  0
   -1.3983   69.8817   62.8282 H   0  0  0  0  0  0  0  0  0  0  0  0
   -1.7059   68.1119   62.8282 H   0  0  0  0  0  0  0  0  0  0  0  0
    5.8216   67.9972   62.6109 H   0  0  0  0  0  0  0  0  0  0  0  0
    4.1978   68.5552   62.0832 H   0  0  0  0  0  0  0  0  0  0  0  0
    5.5840   69.6976   62.0832 H   0  0  0  0  0  0  0  0  0  0  0  0
  2  1  1  0
  3  2  1  0
  4  3  2  0
  5  4  1  0
  6  5  2  0
  7  6  1  0
  8  3  1  0
  8  7  2  0
  9  7  1  0
 10  9  1  0
 11  9  1  0
 12  5  1  0
 13 12  1  0
 14 12  1  0
 15  2  1  0
  1 16  1  0
  1 17  1  0
  1 18  1  0
 10 19  1  0
 10 20  1  0
 10 21  1  0
 11 22  1  0
 11 23  1  0
 11 24  1  0
 13 25  1  0
 13 26  1  0
 13 27  1  0
 14 28  1  0
 14 29  1  0
 14 30  1  0
 15 31  1  0
 15 32  1  0
 15 33  1  0
M  END
>  <score>  (7) 
-5.996

$$$$
=
     RDKit          3D

 33 33  0  0  0  0  0  0  0  0999 V2000
    2.2700   68.7310   61.4530 C   0  0  0  0  0  0  0  0  0  0  0  0
    1.3520   69.0010   62.5490 N   0  0  0  0  0  0  0  0  0  0  0  0
    1.9470   68.9470   63.8180 C   0  0  0  0  0  0  0  0  0  0  0  0
    1.1700   68.7650   64.8790 N   0  0  0  0  0  0  0  0  0  0  0  0
    1.7560   68.7330   66.0690 C   0  0  0  0  0  0  0  0  0  0  0  0
    3.0660   68.8780   66.2230 N   0  0  0  0  0  0  0  0  0  0  0  0
    3.7930   69.0720   65.1300 C   0  0  0  0  0  0  0  0  0  0  0  0
    3.2590   69.1130   63.9160 N   0  0  0  0  0  0  0  0  0  0  0  0
    5.1820   69.2140   65.2600 N   0  0  0  0  0  0  0  0  0  0  0  0
    5.6280   69.5850   66.5920 C   0  0  0  0  0  0  0  0  0  0  0  0
    5.8200   69.8900   64.1410 C   0  0  0  0  0  0  0  0  0  0  0  0
    0.9630   68.5130   67.2030 N   0  0  0  0  0  0  0  0  0  0  0  0
   -0.4410   68.8500   67.0270 C   0  0  0  0  0  0  0  0  0  0  0  0
    1.5810   68.9120   68.4580 C   0  0  0  0  0  0  0  0  0  0  0  0
    0.0480   68.3620   62.4760 C   0  0  0  0  0  0  0  0  0  0  0  0
    3.2508   68.4425   61.8589 H   0  0  0  0  0  0  0  0  0  0  0  0
    1.8732   67.9115   60.8358 H   0  0  0  0  0  0  0  0  0  0  0  0
    2.3800   69.6348   60.8358 H   0  0  0  0  0  0  0  0  0  0  0  0
    5.0096   69.0706   67.3423 H   0  0  0  0  0  0  0  0  0  0  0  0
    6.6804   69.2922   66.7211 H   0  0  0  0  0  0  0  0  0  0  0  0
    5.5317   70.6731   66.7211 H   0  0  0  0  0  0  0  0  0  0  0  0
    6.5284   70.6406   64.5216 H   0  0  0  0  0  0  0  0  0  0  0  0
    6.3602   69.1538   63.5276 H   0  0  0  0  0  0  0  0  0  0  0  0
    5.0539   70.3868   63.5276 H   0  0  0  0  0  0  0  0  0  0  0  0
   -0.9169   68.9642   68.0121 H   0  0  0  0  0  0  0  0  0  0  0  0
   -0.5243   69.7936   66.4679 H   0  0  0  0  0  0  0  0  0  0  0  0
   -0.9435   68.0470   66.4679 H   0  0  0  0  0  0  0  0  0  0  0  0
    0.9851   68.5273   69.2988 H   0  0  0  0  0  0  0  0  0  0  0  0
    2.5998   68.5007   68.5121 H   0  0  0  0  0  0  0  0  0  0  0  0
    1.6254   70.0098   68.5121 H   0  0  0  0  0  0  0  0  0  0  0  0
   -0.3276   68.1779   63.4934 H   0  0  0  0  0  0  0  0  0  0  0  0
   -0.6527   69.0188   61.9397 H   0  0  0  0  0  0  0  0  0  0  0  0
    0.1378   67.4058   61.9397 H   0  0  0  0  0  0  0  0  0  0  0  0
  2  1  1  0
  3  2  1  0
  4  3  2  0
  5  4  1  0
  6  5  2  0
  7  6  1  0
  8  3  1  0
  8  7  2  0
  9  7  1  0
 10  9  1  0
 11  9  1  0
 12  5  1  0
 13 12  1  0
 14 12  1  0
 15  2  1  0
  1 16  1  0
  1 17  1  0
  1 18  1  0
 10 19  1  0
 10 20  1  0
 10 21  1  0
 11 22  1  0
 11 23  1  0
 11 24  1  0
 13 25  1  0
 13 26  1  0
 13 27  1  0
 14 28  1  0
 14 29  1  0
 14 30  1  0
 15 31  1  0
 15 32  1  0
 15 33  1  0
M  END
>  <score>  (8) 
-5.856

$$$$
=
     RDKit          3D

 33 33  0  0  0  0  0  0  0  0999 V2000
    3.6240   64.7450   65.5690 C   0  0  0  0  0  0  0  0  0  0  0  0
    3.6880   65.7840   64.5530 N   0  0  0  0  0  0  0  0  0  0  0  0
    2.5580   66.6130   64.5110 C   0  0  0  0  0  0  0  0  0  0  0  0
    2.3140   67.3030   63.4040 N   0  0  0  0  0  0  0  0  0  0  0  0
    1.2460   68.0920   63.3960 C   0  0  0  0  0  0  0  0  0  0  0  0
    0.4380   68.2090   64.4430 N   0  0  0  0  0  0  0  0  0  0  0  0
    0.7380   67.5070   65.5290 C   0  0  0  0  0  0  0  0  0  0  0  0
    1.7930   66.7040   65.5910 N   0  0  0  0  0  0  0  0  0  0  0  0
   -0.1040   67.5990   66.6460 N   0  0  0  0  0  0  0  0  0  0  0  0
   -0.9520   68.7790   66.6660 C   0  0  0  0  0  0  0  0  0  0  0  0
    0.5240   67.2200   67.9020 C   0  0  0  0  0  0  0  0  0  0  0  0
    0.9480   68.8090   62.2310 N   0  0  0  0  0  0  0  0  0  0  0  0
    2.0860   69.0170   61.3480 C   0  0  0  0  0  0  0  0  0  0  0  0
    0.0570   69.9400   62.4290 C   0  0  0  0  0  0  0  0  0  0  0  0
    4.1780   65.3820   63.2430 C   0  0  0  0  0  0  0  0  0  0  0  0
    3.6524   65.2061   66.5673 H   0  0  0  0  0  0  0  0  0  0  0  0
    2.6892   64.1768   65.4540 H   0  0  0  0  0  0  0  0  0  0  0  0
    4.4820   64.0664   65.4540 H   0  0  0  0  0  0  0  0  0  0  0  0
   -1.1576   69.0651   67.7080 H   0  0  0  0  0  0  0  0  0  0  0  0
   -0.4408   69.6067   66.1525 H   0  0  0  0  0  0  0  0  0  0  0  0
   -1.8995   68.5584   66.1525 H   0  0  0  0  0  0  0  0  0  0  0  0
   -0.0844   67.5872   68.7416 H   0  0  0  0  0  0  0  0  0  0  0  0
    0.6016   66.1241   67.9571 H   0  0  0  0  0  0  0  0  0  0  0  0
    1.5298   67.6621   67.9571 H   0  0  0  0  0  0  0  0  0  0  0  0
    2.9917   69.1825   61.9499 H   0  0  0  0  0  0  0  0  0  0  0  0
    2.2247   68.1293   60.7133 H   0  0  0  0  0  0  0  0  0  0  0  0
    1.9017   69.8963   60.7133 H   0  0  0  0  0  0  0  0  0  0  0  0
   -0.0804   70.1144   63.5064 H   0  0  0  0  0  0  0  0  0  0  0  0
    0.4940   70.8366   61.9652 H   0  0  0  0  0  0  0  0  0  0  0  0
   -0.9170   69.7250   61.9652 H   0  0  0  0  0  0  0  0  0  0  0  0
    5.0232   64.6886   63.3646 H   0  0  0  0  0  0  0  0  0  0  0  0
    3.3709   64.8824   62.6871 H   0  0  0  0  0  0  0  0  0  0  0  0
    4.5102   66.2711   62.6871 H   0  0  0  0  0  0  0  0  0  0  0  0
  2  1  1  0
  3  2  1  0
  4  3  2  0
  5  4  1  0
  6  5  2  0
  7  6  1  0
  8  3  1  0
  8  7  2  0
  9  7  1  0
 10  9  1  0
 11  9  1  0
 12  5  1  0
 13 12  1  0
 14 12  1  0
 15  2  1  0
  1 16  1  0
  1 17  1  0
  1 18  1  0
 10 19  1  0
 10 20  1  0
 10 21  1  0
 11 22  1  0
 11 23  1  0
 11 24  1  0
 13 25  1  0
 13 26  1  0
 13 27  1  0
 14 28  1  0
 14 29  1  0
 14 30  1  0
 15 31  1  0
 15 32  1  0
 15 33  1  0
M  END
>  <score>  (9) 
-5.633

$$$$
