=
     RDKit          3D

 38 40  0  0  0  0  0  0  0  0999 V2000
    4.8720   63.4130   70.0730 C   0  0  0  0  0  0  0  0  0  0  0  0
    3.3720   63.2340   70.1410 C   0  0  0  0  0  0  0  0  0  0  0  0
    2.6010   64.2400   70.6020 C   0  0  0  0  0  0  0  0  0  0  0  0
    1.1020   64.3330   70.6790 C   0  0  0  0  0  0  0  0  0  0  0  0
    0.3600   63.2960   71.5210 C   0  0  0  0  0  0  0  0  0  0  0  0
    0.7350   63.2680   72.9820 C   0  0  1  0  0  0  0  0  0  0  0  0
    0.1780   64.3910   73.8130 C   0  0  0  0  0  0  0  0  0  0  0  0
    0.5010   61.9660   73.5670 O   0  0  0  0  0  0  0  0  0  0  0  0
    1.8520   62.4230   73.6050 C   0  0  1  0  0  0  0  0  0  0  0  0
    2.8880   61.6170   72.8810 C   0  0  2  0  0  0  0  0  0  0  0  0
    2.4250   60.6000   71.8370 C   0  0  1  0  0  0  0  0  0  0  0  0
    3.2010   60.6850   70.5040 C   0  0  0  0  0  0  0  0  0  0  0  0
    2.8650   61.9060   69.6250 C   0  0  0  0  0  0  0  0  0  0  0  0
    2.6830   59.3070   72.5380 C   0  0  0  0  0  0  0  0  0  0  0  0
    2.2440   58.0860   72.2070 C   0  0  0  0  0  0  0  0  0  0  0  0
    3.4950   59.5500   73.7390 C   0  0  0  0  0  0  0  0  0  0  0  0
    3.9660   58.7050   74.4780 O   0  0  0  0  0  0  0  0  0  0  0  0
    3.6510   60.8880   73.8700 O   0  0  0  0  0  0  0  0  0  0  0  0
    5.2820   63.4619   71.0926 H   0  0  0  0  0  0  0  0  0  0  0  0
    5.3190   62.5618   69.5385 H   0  0  0  0  0  0  0  0  0  0  0  0
    5.1061   64.3455   69.5385 H   0  0  0  0  0  0  0  0  0  0  0  0
    3.1471   65.1188   70.9753 H   0  0  0  0  0  0  0  0  0  0  0  0
    0.8566   65.3236   71.0896 H   0  0  0  0  0  0  0  0  0  0  0  0
    0.7624   64.1444   69.6499 H   0  0  0  0  0  0  0  0  0  0  0  0
   -0.7171   63.5076   71.4501 H   0  0  0  0  0  0  0  0  0  0  0  0
    0.6424   62.3137   71.1143 H   0  0  0  0  0  0  0  0  0  0  0  0
    0.2968   64.1514   74.8800 H   0  0  0  0  0  0  0  0  0  0  0  0
    0.7195   65.3205   73.5834 H   0  0  0  0  0  0  0  0  0  0  0  0
   -0.8897   64.5224   73.5834 H   0  0  0  0  0  0  0  0  0  0  0  0
    2.6371   62.6676   74.3355 H   0  0  0  0  0  0  0  0  0  0  0  0
    3.4442   62.3701   72.3036 H   0  0  0  0  0  0  0  0  0  0  0  0
    1.3808   60.7557   71.5282 H   0  0  0  0  0  0  0  0  0  0  0  0
    4.2754   60.7192   70.7374 H   0  0  0  0  0  0  0  0  0  0  0  0
    2.9054   59.7996   69.9220 H   0  0  0  0  0  0  0  0  0  0  0  0
    3.3027   61.7388   68.6298 H   0  0  0  0  0  0  0  0  0  0  0  0
    1.7677   61.9820   69.6173 H   0  0  0  0  0  0  0  0  0  0  0  0
    2.5176   57.2172   72.8238 H   0  0  0  0  0  0  0  0  0  0  0  0
    1.6098   57.9517   71.3183 H   0  0  0  0  0  0  0  0  0  0  0  0
  2  1  1  0
  3  2  2  0
  4  3  1  0
  5  4  1  0
  6  5  1  0
  6  7  1  1
  8  6  1  0
  9  8  1  0
  9  6  1  0
 10  9  1  0
 11 10  1  0
 12 11  1  0
 13 12  1  0
 13  2  1  0
 14 11  1  0
 15 14  2  3
 16 14  1  0
 17 16  2  0
 18 16  1  0
 18 10  1  0
  1 19  1  0
  1 20  1  0
  1 21  1  0
  3 22  1  0
  4 23  1  0
  4 24  1  0
  5 25  1  0
  5 26  1  0
  7 27  1  0
  7 28  1  0
  7 29  1  0
  9 30  1  1
 10 31  1  6
 11 32  1  6
 12 33  1  0
 12 34  1  0
 13 35  1  0
 13 36  1  0
 15 37  1  0
 15 38  1  0
M  END
>  <score>  (1) 
-8.461

$$$$
=
     RDKit          3D

 38 40  0  0  0  0  0  0  0  0999 V2000
    4.4880   59.6280   73.7120 C   0  0  0  0  0  0  0  0  0  0  0  0
    3.8250   59.5870   72.3540 C   0  0  0  0  0  0  0  0  0  0  0  0
    4.5090   59.9960   71.2650 C   0  0  0  0  0  0  0  0  0  0  0  0
    4.1040   59.9670   69.8180 C   0  0  0  0  0  0  0  0  0  0  0  0
    2.8580   60.7490   69.4040 C   0  0  0  0  0  0  0  0  0  0  0  0
    2.9140   62.2330   69.6700 C   0  0  1  0  0  0  0  0  0  0  0  0
    3.7690   63.0270   68.7200 C   0  0  0  0  0  0  0  0  0  0  0  0
    1.5920   62.7940   69.8390 O   0  0  0  0  0  0  0  0  0  0  0  0
    2.4660   62.9310   70.9590 C   0  0  1  0  0  0  0  0  0  0  0  0
    2.0630   62.2790   72.2480 C   0  0  2  0  0  0  0  0  0  0  0  0
    0.9800   61.2010   72.2150 C   0  0  1  0  0  0  0  0  0  0  0  0
    1.3510   59.9270   73.0060 C   0  0  0  0  0  0  0  0  0  0  0  0
    2.4180   59.0310   72.3470 C   0  0  0  0  0  0  0  0  0  0  0  0
   -0.1760   61.9130   72.8370 C   0  0  0  0  0  0  0  0  0  0  0  0
   -1.4630   61.5460   72.8480 C   0  0  0  0  0  0  0  0  0  0  0  0
    0.2870   63.1700   73.4430 C   0  0  0  0  0  0  0  0  0  0  0  0
   -0.3760   63.9370   74.1160 O   0  0  0  0  0  0  0  0  0  0  0  0
    1.5980   63.3180   73.1410 O   0  0  0  0  0  0  0  0  0  0  0  0
    3.7190   59.5804   74.4971 H   0  0  0  0  0  0  0  0  0  0  0  0
    5.1692   58.7703   73.8135 H   0  0  0  0  0  0  0  0  0  0  0  0
    5.0583   60.5631   73.8135 H   0  0  0  0  0  0  0  0  0  0  0  0
    5.5079   60.4108   71.4655 H   0  0  0  0  0  0  0  0  0  0  0  0
    4.9478   60.3640   69.2345 H   0  0  0  0  0  0  0  0  0  0  0  0
    3.8432   58.9155   69.6276 H   0  0  0  0  0  0  0  0  0  0  0  0
    2.7070   60.6021   68.3244 H   0  0  0  0  0  0  0  0  0  0  0  0
    2.0340   60.3591   70.0196 H   0  0  0  0  0  0  0  0  0  0  0  0
    4.4572   63.6661   69.2927 H   0  0  0  0  0  0  0  0  0  0  0  0
    4.3486   62.3396   68.0864 H   0  0  0  0  0  0  0  0  0  0  0  0
    3.1263   63.6558   68.0864 H   0  0  0  0  0  0  0  0  0  0  0  0
    2.9351   63.7167   71.5694 H   0  0  0  0  0  0  0  0  0  0  0  0
    2.9715   61.7448   72.5629 H   0  0  0  0  0  0  0  0  0  0  0  0
    0.7935   60.8194   71.2003 H   0  0  0  0  0  0  0  0  0  0  0  0
    1.7286   60.2367   73.9916 H   0  0  0  0  0  0  0  0  0  0  0  0
    0.4338   59.3218   73.0562 H   0  0  0  0  0  0  0  0  0  0  0  0
    2.4303   58.0691   72.8805 H   0  0  0  0  0  0  0  0  0  0  0  0
    2.1308   58.9451   71.2886 H   0  0  0  0  0  0  0  0  0  0  0  0
   -2.2106   62.1772   73.3506 H   0  0  0  0  0  0  0  0  0  0  0  0
   -1.7732   60.6132   72.3544 H   0  0  0  0  0  0  0  0  0  0  0  0
  2  1  1  0
  3  2  2  0
  4  3  1  0
  5  4  1  0
  6  5  1  0
  6  7  1  6
  8  6  1  0
  9  8  1  0
  9  6  1  0
 10  9  1  0
 11 10  1  0
 12 11  1  0
 13 12  1  0
 13  2  1  0
 14 11  1  0
 15 14  2  3
 16 14  1  0
 17 16  2  0
 18 16  1  0
 18 10  1  0
  1 19  1  0
  1 20  1  0
  1 21  1  0
  3 22  1  0
  4 23  1  0
  4 24  1  0
  5 25  1  0
  5 26  1  0
  7 27  1  0
  7 28  1  0
  7 29  1  0
  9 30  1  1
 10 31  1  1
 11 32  1  6
 12 33  1  0
 12 34  1  0
 13 35  1  0
 13 36  1  0
 15 37  1  0
 15 38  1  0
M  END
>  <score>  (2) 
-8.372

$$$$
=
     RDKit          3D

 38 40  0  0  0  0  0  0  0  0999 V2000
    3.0360   57.6940   71.1060 C   0  0  0  0  0  0  0  0  0  0  0  0
    2.9070   58.7510   72.1790 C   0  0  0  0  0  0  0  0  0  0  0  0
    1.7360   58.8960   72.8350 C   0  0  0  0  0  0  0  0  0  0  0  0
    1.3950   59.8010   73.9850 C   0  0  0  0  0  0  0  0  0  0  0  0
    1.5380   61.3090   73.7820 C   0  0  0  0  0  0  0  0  0  0  0  0
    0.6880   61.8910   72.6790 C   0  0  1  0  0  0  0  0  0  0  0  0
   -0.7740   62.0390   73.0010 C   0  0  0  0  0  0  0  0  0  0  0  0
    1.2700   63.1000   72.1390 O   0  0  0  0  0  0  0  0  0  0  0  0
    1.0990   62.0320   71.2090 C   0  0  1  0  0  0  0  0  0  0  0  0
    2.3240   61.4670   70.5530 C   0  0  2  0  0  0  0  0  0  0  0  0
    3.6890   61.7670   71.1750 C   0  0  1  0  0  0  0  0  0  0  0  0
    4.5850   60.5180   71.3300 C   0  0  0  0  0  0  0  0  0  0  0  0
    4.1670   59.5430   72.4490 C   0  0  0  0  0  0  0  0  0  0  0  0
    4.2640   62.7330   70.1920 C   0  0  0  0  0  0  0  0  0  0  0  0
    5.3350   63.5220   70.3400 C   0  0  0  0  0  0  0  0  0  0  0  0
    3.4380   62.7510   68.9760 C   0  0  0  0  0  0  0  0  0  0  0  0
    3.6800   63.3490   67.9440 O   0  0  0  0  0  0  0  0  0  0  0  0
    2.3630   61.9580   69.1930 O   0  0  0  0  0  0  0  0  0  0  0  0
    3.1565   56.7069   71.5763 H   0  0  0  0  0  0  0  0  0  0  0  0
    2.1312   57.6942   70.4805 H   0  0  0  0  0  0  0  0  0  0  0  0
    3.9142   57.9118   70.4805 H   0  0  0  0  0  0  0  0  0  0  0  0
    0.9132   58.2602   72.4760 H   0  0  0  0  0  0  0  0  0  0  0  0
    0.3465   59.6058   74.2543 H   0  0  0  0  0  0  0  0  0  0  0  0
    2.1412   59.5569   74.7555 H   0  0  0  0  0  0  0  0  0  0  0  0
    1.2623   61.8070   74.7233 H   0  0  0  0  0  0  0  0  0  0  0  0
    2.5833   61.4799   73.4852 H   0  0  0  0  0  0  0  0  0  0  0  0
   -0.9095   62.0527   74.0925 H   0  0  0  0  0  0  0  0  0  0  0  0
   -1.1503   62.9798   72.5730 H   0  0  0  0  0  0  0  0  0  0  0  0
   -1.3312   61.1927   72.5730 H   0  0  0  0  0  0  0  0  0  0  0  0
    0.5660   61.8086   70.2731 H   0  0  0  0  0  0  0  0  0  0  0  0
    2.2017   60.3799   70.6678 H   0  0  0  0  0  0  0  0  0  0  0  0
    3.6115   62.1485   72.2038 H   0  0  0  0  0  0  0  0  0  0  0  0
    4.5701   59.9685   70.3772 H   0  0  0  0  0  0  0  0  0  0  0  0
    5.5819   60.8909   71.6077 H   0  0  0  0  0  0  0  0  0  0  0  0
    4.9901   58.8298   72.6033 H   0  0  0  0  0  0  0  0  0  0  0  0
    3.9520   60.1654   73.3301 H   0  0  0  0  0  0  0  0  0  0  0  0
    5.6440   64.1891   69.5218 H   0  0  0  0  0  0  0  0  0  0  0  0
    5.9062   63.5033   71.2799 H   0  0  0  0  0  0  0  0  0  0  0  0
  2  1  1  0
  3  2  2  0
  4  3  1  0
  5  4  1  0
  6  5  1  0
  6  7  1  6
  8  6  1  0
  9  8  1  0
  9  6  1  0
 10  9  1  0
 11 10  1  0
 12 11  1  0
 13 12  1  0
 13  2  1  0
 14 11  1  0
 15 14  2  3
 16 14  1  0
 17 16  2  0
 18 16  1  0
 18 10  1  0
  1 19  1  0
  1 20  1  0
  1 21  1  0
  3 22  1  0
  4 23  1  0
  4 24  1  0
  5 25  1  0
  5 26  1  0
  7 27  1  0
  7 28  1  0
  7 29  1  0
  9 30  1  6
 10 31  1  6
 11 32  1  1
 12 33  1  0
 12 34  1  0
 13 35  1  0
 13 36  1  0
 15 37  1  0
 15 38  1  0
M  END
>  <score>  (3) 
-8.085

$$$$
=
     RDKit          3D

 38 40  0  0  0  0  0  0  0  0999 V2000
    5.6760   60.8370   71.6990 C   0  0  0  0  0  0  0  0  0  0  0  0
    4.4750   61.0760   70.8110 C   0  0  0  0  0  0  0  0  0  0  0  0
    4.3650   62.2390   70.1370 C   0  0  0  0  0  0  0  0  0  0  0  0
    3.3250   62.6670   69.1390 C   0  0  0  0  0  0  0  0  0  0  0  0
    1.8690   62.7240   69.5960 C   0  0  0  0  0  0  0  0  0  0  0  0
    1.5920   63.6670   70.7410 C   0  0  1  0  0  0  0  0  0  0  0  0
    1.5720   65.1280   70.3830 C   0  0  0  0  0  0  0  0  0  0  0  0
    0.4310   63.2580   71.5000 O   0  0  0  0  0  0  0  0  0  0  0  0
    1.6550   63.3120   72.2310 C   0  0  1  0  0  0  0  0  0  0  0  0
    2.1680   62.0410   72.8380 C   0  0  2  0  0  0  0  0  0  0  0  0
    1.6020   60.7110   72.3380 C   0  0  1  0  0  0  0  0  0  0  0  0
    2.6870   59.6590   72.0170 C   0  0  0  0  0  0  0  0  0  0  0  0
    3.5000   59.9220   70.7350 C   0  0  0  0  0  0  0  0  0  0  0  0
    0.7550   60.2880   73.4920 C   0  0  0  0  0  0  0  0  0  0  0  0
   -0.1730   59.3240   73.5260 C   0  0  0  0  0  0  0  0  0  0  0  0
    1.0460   61.1390   74.6560 C   0  0  0  0  0  0  0  0  0  0  0  0
    0.6070   61.0000   75.7830 O   0  0  0  0  0  0  0  0  0  0  0  0
    1.9160   62.0980   74.2610 O   0  0  0  0  0  0  0  0  0  0  0  0
    5.3700   60.8979   72.7538 H   0  0  0  0  0  0  0  0  0  0  0  0
    6.0904   59.8388   71.4945 H   0  0  0  0  0  0  0  0  0  0  0  0
    6.4410   61.6005   71.4945 H   0  0  0  0  0  0  0  0  0  0  0  0
    5.1490   62.9813   70.3477 H   0  0  0  0  0  0  0  0  0  0  0  0
    3.5987   63.6751   68.7943 H   0  0  0  0  0  0  0  0  0  0  0  0
    3.3403   61.8778   68.3729 H   0  0  0  0  0  0  0  0  0  0  0  0
    1.2554   63.0394   68.7392 H   0  0  0  0  0  0  0  0  0  0  0  0
    1.6247   61.7166   69.9640 H   0  0  0  0  0  0  0  0  0  0  0  0
    1.5637   65.7309   71.3030 H   0  0  0  0  0  0  0  0  0  0  0  0
    2.4669   65.3730   69.7921 H   0  0  0  0  0  0  0  0  0  0  0  0
    0.6708   65.3484   69.7921 H   0  0  0  0  0  0  0  0  0  0  0  0
    2.0990   63.8336   73.0917 H   0  0  0  0  0  0  0  0  0  0  0  0
    3.2259   62.0199   72.5372 H   0  0  0  0  0  0  0  0  0  0  0  0
    1.0626   60.8122   71.3847 H   0  0  0  0  0  0  0  0  0  0  0  0
    3.3887   59.6252   72.8635 H   0  0  0  0  0  0  0  0  0  0  0  0
    2.1527   58.7122   71.8495 H   0  0  0  0  0  0  0  0  0  0  0  0
    4.0701   59.0107   70.5016 H   0  0  0  0  0  0  0  0  0  0  0  0
    2.7669   60.1947   69.9615 H   0  0  0  0  0  0  0  0  0  0  0  0
   -0.7233   59.1229   74.4570 H   0  0  0  0  0  0  0  0  0  0  0  0
   -0.3853   58.7329   72.6230 H   0  0  0  0  0  0  0  0  0  0  0  0
  2  1  1  0
  3  2  2  0
  4  3  1  0
  5  4  1  0
  6  5  1  0
  6  7  1  1
  8  6  1  0
  9  8  1  0
  9  6  1  0
 10  9  1  0
 11 10  1  0
 12 11  1  0
 13 12  1  0
 13  2  1  0
 14 11  1  0
 15 14  2  3
 16 14  1  0
 17 16  2  0
 18 16  1  0
 18 10  1  0
  1 19  1  0
  1 20  1  0
  1 21  1  0
  3 22  1  0
  4 23  1  0
  4 24  1  0
  5 25  1  0
  5 26  1  0
  7 27  1  0
  7 28  1  0
  7 29  1  0
  9 30  1  1
 10 31  1  1
 11 32  1  6
 12 33  1  0
 12 34  1  0
 13 35  1  0
 13 36  1  0
 15 37  1  0
 15 38  1  0
M  END
>  <score>  (4) 
-7.876

$$$$
=
     RDKit          3D

 38 40  0  0  0  0  0  0  0  0999 V2000
    2.1890   68.9730   61.7420 C   0  0  0  0  0  0  0  0  0  0  0  0
    3.2970   68.3710   62.5760 C   0  0  0  0  0  0  0  0  0  0  0  0
    3.8890   67.2270   62.1730 C   0  0  0  0  0  0  0  0  0  0  0  0
    5.0550   66.4950   62.7760 C   0  0  0  0  0  0  0  0  0  0  0  0
    4.9260   65.9930   64.2130 C   0  0  0  0  0  0  0  0  0  0  0  0
    3.8010   65.0160   64.4530 C   0  0  1  0  0  0  0  0  0  0  0  0
    4.0430   63.6180   63.9510 C   0  0  0  0  0  0  0  0  0  0  0  0
    3.3490   65.0500   65.8260 O   0  0  0  0  0  0  0  0  0  0  0  0
    2.3650   65.3800   64.8470 C   0  0  1  0  0  0  0  0  0  0  0  0
    1.7580   66.7510   64.8930 C   0  0  2  0  0  0  0  0  0  0  0  0
    2.4700   67.8380   65.6980 C   0  0  1  0  0  0  0  0  0  0  0  0
    2.6240   69.1720   64.9350 C   0  0  0  0  0  0  0  0  0  0  0  0
    3.6730   69.1670   63.8060 C   0  0  0  0  0  0  0  0  0  0  0  0
    1.5660   67.9840   66.8770 C   0  0  0  0  0  0  0  0  0  0  0  0
    1.8090   68.6140   68.0320 C   0  0  0  0  0  0  0  0  0  0  0  0
    0.3050   67.2710   66.6230 C   0  0  0  0  0  0  0  0  0  0  0  0
   -0.6840   67.2720   67.3320 O   0  0  0  0  0  0  0  0  0  0  0  0
    0.4250   66.6250   65.4400 O   0  0  0  0  0  0  0  0  0  0  0  0
    1.4176   69.3921   62.4047 H   0  0  0  0  0  0  0  0  0  0  0  0
    2.6004   69.7716   61.1072 H   0  0  0  0  0  0  0  0  0  0  0  0
    1.7428   68.1933   61.1072 H   0  0  0  0  0  0  0  0  0  0  0  0
    3.4559   66.7638   61.2741 H   0  0  0  0  0  0  0  0  0  0  0  0
    5.2542   65.6192   62.1410 H   0  0  0  0  0  0  0  0  0  0  0  0
    5.8562   67.2474   62.8206 H   0  0  0  0  0  0  0  0  0  0  0  0
    5.8700   65.4993   64.4872 H   0  0  0  0  0  0  0  0  0  0  0  0
    4.6988   66.8774   64.8264 H   0  0  0  0  0  0  0  0  0  0  0  0
    4.1610   62.9365   64.8064 H   0  0  0  0  0  0  0  0  0  0  0  0
    3.1875   63.2946   63.3398 H   0  0  0  0  0  0  0  0  0  0  0  0
    4.9574   63.6010   63.3398 H   0  0  0  0  0  0  0  0  0  0  0  0
    1.3906   65.0249   64.4803 H   0  0  0  0  0  0  0  0  0  0  0  0
    1.8190   67.0968   63.8505 H   0  0  0  0  0  0  0  0  0  0  0  0
    3.5081   67.5705   65.9447 H   0  0  0  0  0  0  0  0  0  0  0  0
    1.6493   69.4249   64.4923 H   0  0  0  0  0  0  0  0  0  0  0  0
    2.9759   69.9067   65.6742 H   0  0  0  0  0  0  0  0  0  0  0  0
    3.8443   70.2087   63.4971 H   0  0  0  0  0  0  0  0  0  0  0  0
    4.5655   68.6777   64.2231 H   0  0  0  0  0  0  0  0  0  0  0  0
    1.0393   68.6390   68.8174 H   0  0  0  0  0  0  0  0  0  0  0  0
    2.7785   69.1070   68.1962 H   0  0  0  0  0  0  0  0  0  0  0  0
  2  1  1  0
  3  2  2  0
  4  3  1  0
  5  4  1  0
  6  5  1  0
  6  7  1  6
  8  6  1  0
  9  8  1  0
  9  6  1  0
 10  9  1  0
 11 10  1  0
 12 11  1  0
 13 12  1  0
 13  2  1  0
 14 11  1  0
 15 14  2  3
 16 14  1  0
 17 16  2  0
 18 16  1  0
 18 10  1  0
  1 19  1  0
  1 20  1  0
  1 21  1  0
  3 22  1  0
  4 23  1  0
  4 24  1  0
  5 25  1  0
  5 26  1  0
  7 27  1  0
  7 28  1  0
  7 29  1  0
  9 30  1  6
 10 31  1  6
 11 32  1  1
 12 33  1  0
 12 34  1  0
 13 35  1  0
 13 36  1  0
 15 37  1  0
 15 38  1  0
M  END
>  <score>  (5) 
-7.869

$$$$
=
     RDKit          3D

 38 40  0  0  0  0  0  0  0  0999 V2000
    3.0410   61.9710   68.5670 C   0  0  0  0  0  0  0  0  0  0  0  0
    3.7830   62.1330   69.8750 C   0  0  0  0  0  0  0  0  0  0  0  0
    4.5970   61.1470   70.3060 C   0  0  0  0  0  0  0  0  0  0  0  0
    5.4970   61.1130   71.5100 C   0  0  0  0  0  0  0  0  0  0  0  0
    4.8590   61.2730   72.8890 C   0  0  0  0  0  0  0  0  0  0  0  0
    3.8360   60.2240   73.2490 C   0  0  1  0  0  0  0  0  0  0  0  0
    4.3950   58.8790   73.6260 C   0  0  0  0  0  0  0  0  0  0  0  0
    2.8760   60.7230   74.2090 O   0  0  0  0  0  0  0  0  0  0  0  0
    2.3320   60.3010   72.9590 C   0  0  1  0  0  0  0  0  0  0  0  0
    1.6230   61.3210   72.1190 C   0  0  2  0  0  0  0  0  0  0  0  0
    1.8460   62.8020   72.4280 C   0  0  1  0  0  0  0  0  0  0  0  0
    2.1540   63.6540   71.1760 C   0  0  0  0  0  0  0  0  0  0  0  0
    3.5590   63.4550   70.5750 C   0  0  0  0  0  0  0  0  0  0  0  0
    0.5390   63.1850   73.0400 C   0  0  0  0  0  0  0  0  0  0  0  0
    0.2400   64.2950   73.7250 C   0  0  0  0  0  0  0  0  0  0  0  0
   -0.4400   62.1080   72.8260 C   0  0  0  0  0  0  0  0  0  0  0  0
   -1.6240   62.1390   73.1070 O   0  0  0  0  0  0  0  0  0  0  0  0
    0.2030   61.0750   72.2330 O   0  0  0  0  0  0  0  0  0  0  0  0
    1.9849   61.7404   68.7707 H   0  0  0  0  0  0  0  0  0  0  0  0
    3.1077   62.9049   67.9895 H   0  0  0  0  0  0  0  0  0  0  0  0
    3.4908   61.1499   67.9895 H   0  0  0  0  0  0  0  0  0  0  0  0
    4.6031   60.2373   69.6877 H   0  0  0  0  0  0  0  0  0  0  0  0
    6.0179   60.1442   71.5013 H   0  0  0  0  0  0  0  0  0  0  0  0
    6.1366   62.0011   71.3992 H   0  0  0  0  0  0  0  0  0  0  0  0
    5.6610   61.2385   73.6411 H   0  0  0  0  0  0  0  0  0  0  0  0
    4.3189   62.2310   72.8663 H   0  0  0  0  0  0  0  0  0  0  0  0
    4.4315   58.7912   74.7219 H   0  0  0  0  0  0  0  0  0  0  0  0
    3.7517   58.0865   73.2159 H   0  0  0  0  0  0  0  0  0  0  0  0
    5.4105   58.7759   73.2159 H   0  0  0  0  0  0  0  0  0  0  0  0
    1.6229   59.5627   72.5564 H   0  0  0  0  0  0  0  0  0  0  0  0
    2.0559   61.1804   71.1176 H   0  0  0  0  0  0  0  0  0  0  0  0
    2.7224   62.9733   73.0703 H   0  0  0  0  0  0  0  0  0  0  0  0
    1.4142   63.4012   70.4022 H   0  0  0  0  0  0  0  0  0  0  0  0
    2.1081   64.7034   71.5026 H   0  0  0  0  0  0  0  0  0  0  0  0
    3.7332   64.2594   69.8452 H   0  0  0  0  0  0  0  0  0  0  0  0
    4.2575   63.4707   71.4246 H   0  0  0  0  0  0  0  0  0  0  0  0
   -0.7763   64.4407   74.1198 H   0  0  0  0  0  0  0  0  0  0  0  0
    1.0105   65.0618   73.8933 H   0  0  0  0  0  0  0  0  0  0  0  0
  2  1  1  0
  3  2  2  0
  4  3  1  0
  5  4  1  0
  6  5  1  0
  6  7  1  1
  8  6  1  0
  9  8  1  0
  9  6  1  0
 10  9  1  0
 11 10  1  0
 12 11  1  0
 13 12  1  0
 13  2  1  0
 14 11  1  0
 15 14  2  3
 16 14  1  0
 17 16  2  0
 18 16  1  0
 18 10  1  0
  1 19  1  0
  1 20  1  0
  1 21  1  0
  3 22  1  0
  4 23  1  0
  4 24  1  0
  5 25  1  0
  5 26  1  0
  7 27  1  0
  7 28  1  0
  7 29  1  0
  9 30  1  1
 10 31  1  6
 11 32  1  1
 12 33  1  0
 12 34  1  0
 13 35  1  0
 13 36  1  0
 15 37  1  0
 15 38  1  0
M  END
>  <score>  (6) 
-7.837

$$$$
=
     RDKit          3D

 38 40  0  0  0  0  0  0  0  0999 V2000
    2.2510   70.6060   68.4280 C   0  0  0  0  0  0  0  0  0  0  0  0
    2.5400   69.3600   67.6210 C   0  0  0  0  0  0  0  0  0  0  0  0
    3.2640   69.4540   66.4860 C   0  0  0  0  0  0  0  0  0  0  0  0
    3.7510   68.3620   65.5740 C   0  0  0  0  0  0  0  0  0  0  0  0
    2.7100   67.4620   64.9100 C   0  0  0  0  0  0  0  0  0  0  0  0
    1.7180   68.1730   64.0230 C   0  0  1  0  0  0  0  0  0  0  0  0
    2.2470   68.6090   62.6830 C   0  0  0  0  0  0  0  0  0  0  0  0
    0.4720   67.4460   63.9260 O   0  0  0  0  0  0  0  0  0  0  0  0
    0.3750   68.7620   64.4700 C   0  0  1  0  0  0  0  0  0  0  0  0
   -0.1260   68.9060   65.8760 C   0  0  2  0  0  0  0  0  0  0  0  0
   -0.1350   67.6720   66.7790 C   0  0  1  0  0  0  0  0  0  0  0  0
    0.4690   67.9250   68.1780 C   0  0  0  0  0  0  0  0  0  0  0  0
    2.0030   68.0770   68.2150 C   0  0  0  0  0  0  0  0  0  0  0  0
   -1.5940   67.3660   66.8610 C   0  0  0  0  0  0  0  0  0  0  0  0
   -2.1810   66.2520   67.3140 C   0  0  0  0  0  0  0  0  0  0  0  0
   -2.3650   68.4910   66.3110 C   0  0  0  0  0  0  0  0  0  0  0  0
   -3.5770   68.6110   66.3180 O   0  0  0  0  0  0  0  0  0  0  0  0
   -1.4870   69.3910   65.8120 O   0  0  0  0  0  0  0  0  0  0  0  0
    2.3060   70.3690   69.5008 H   0  0  0  0  0  0  0  0  0  0  0  0
    2.9933   71.3806   68.1851 H   0  0  0  0  0  0  0  0  0  0  0  0
    1.2435   70.9747   68.1851 H   0  0  0  0  0  0  0  0  0  0  0  0
    3.5371   70.4761   66.1847 H   0  0  0  0  0  0  0  0  0  0  0  0
    4.3290   68.8412   64.7701 H   0  0  0  0  0  0  0  0  0  0  0  0
    4.3165   67.6867   66.2329 H   0  0  0  0  0  0  0  0  0  0  0  0
    3.2429   66.7196   64.2977 H   0  0  0  0  0  0  0  0  0  0  0  0
    2.1242   67.0178   65.7282 H   0  0  0  0  0  0  0  0  0  0  0  0
    3.0883   69.3024   62.8289 H   0  0  0  0  0  0  0  0  0  0  0  0
    2.5909   67.7285   62.1204 H   0  0  0  0  0  0  0  0  0  0  0  0
    1.4484   69.1147   62.1204 H   0  0  0  0  0  0  0  0  0  0  0  0
   -0.1108   69.7261   64.2590 H   0  0  0  0  0  0  0  0  0  0  0  0
    0.6048   69.5829   66.3427 H   0  0  0  0  0  0  0  0  0  0  0  0
    0.4850   66.8539   66.3836 H   0  0  0  0  0  0  0  0  0  0  0  0
    0.0261   68.8492   68.5775 H   0  0  0  0  0  0  0  0  0  0  0  0
    0.2371   67.0313   68.7759 H   0  0  0  0  0  0  0  0  0  0  0  0
    2.3240   68.0287   69.2660 H   0  0  0  0  0  0  0  0  0  0  0  0
    2.4043   67.2629   67.5936 H   0  0  0  0  0  0  0  0  0  0  0  0
   -3.2779   66.1690   67.3133 H   0  0  0  0  0  0  0  0  0  0  0  0
   -1.5667   65.4193   67.6871 H   0  0  0  0  0  0  0  0  0  0  0  0
  2  1  1  0
  3  2  2  0
  4  3  1  0
  5  4  1  0
  6  5  1  0
  6  7  1  6
  8  6  1  0
  9  8  1  0
  9  6  1  0
 10  9  1  0
 11 10  1  0
 12 11  1  0
 13 12  1  0
 13  2  1  0
 14 11  1  0
 15 14  2  3
 16 14  1  0
 17 16  2  0
 18 16  1  0
 18 10  1  0
  1 19  1  0
  1 20  1  0
  1 21  1  0
  3 22  1  0
  4 23  1  0
  4 24  1  0
  5 25  1  0
  5 26  1  0
  7 27  1  0
  7 28  1  0
  7 29  1  0
  9 30  1  6
 10 31  1  1
 11 32  1  6
 12 33  1  0
 12 34  1  0
 13 35  1  0
 13 36  1  0
 15 37  1  0
 15 38  1  0
M  END
>  <score>  (7) 
-7.828

$$$$
=
     RDKit          3D

 38 40  0  0  0  0  0  0  0  0999 V2000
    4.0610   65.3800   63.5200 C   0  0  0  0  0  0  0  0  0  0  0  0
    4.1420   66.8890   63.5640 C   0  0  0  0  0  0  0  0  0  0  0  0
    5.2060   67.4830   64.1450 C   0  0  0  0  0  0  0  0  0  0  0  0
    5.5510   68.9440   64.2320 C   0  0  0  0  0  0  0  0  0  0  0  0
    4.5670   69.8750   64.9390 C   0  0  0  0  0  0  0  0  0  0  0  0
    4.2970   69.5440   66.3860 C   0  0  1  0  0  0  0  0  0  0  0  0
    5.3920   69.9140   67.3490 C   0  0  0  0  0  0  0  0  0  0  0  0
    2.9960   70.0140   66.8060 O   0  0  0  0  0  0  0  0  0  0  0  0
    3.1990   68.6050   66.9020 C   0  0  1  0  0  0  0  0  0  0  0  0
    2.3160   67.7100   66.0840 C   0  0  2  0  0  0  0  0  0  0  0  0
    1.5310   68.3210   64.9230 C   0  0  1  0  0  0  0  0  0  0  0  0
    1.6380   67.5120   63.6110 C   0  0  0  0  0  0  0  0  0  0  0  0
    2.9960   67.6090   62.8890 C   0  0  0  0  0  0  0  0  0  0  0  0
    0.1370   68.3090   65.4600 C   0  0  0  0  0  0  0  0  0  0  0  0
   -0.9380   68.9470   64.9810 C   0  0  0  0  0  0  0  0  0  0  0  0
    0.0860   67.4940   66.6830 C   0  0  0  0  0  0  0  0  0  0  0  0
   -0.9110   67.1940   67.3120 O   0  0  0  0  0  0  0  0  0  0  0  0
    1.3500   67.1090   66.9770 O   0  0  0  0  0  0  0  0  0  0  0  0
    4.0397   64.9839   64.5460 H   0  0  0  0  0  0  0  0  0  0  0  0
    3.1453   65.0772   62.9910 H   0  0  0  0  0  0  0  0  0  0  0  0
    4.9390   64.9809   62.9910 H   0  0  0  0  0  0  0  0  0  0  0  0
    5.9236   66.8002   64.6234 H   0  0  0  0  0  0  0  0  0  0  0  0
    6.5121   69.0217   64.7614 H   0  0  0  0  0  0  0  0  0  0  0  0
    5.5506   69.2879   63.1872 H   0  0  0  0  0  0  0  0  0  0  0  0
    4.9722   70.8966   64.8933 H   0  0  0  0  0  0  0  0  0  0  0  0
    3.6068   69.7597   64.4149 H   0  0  0  0  0  0  0  0  0  0  0  0
    5.0300   69.7917   68.3805 H   0  0  0  0  0  0  0  0  0  0  0  0
    6.2609   69.2596   67.1853 H   0  0  0  0  0  0  0  0  0  0  0  0
    5.6858   70.9613   67.1853 H   0  0  0  0  0  0  0  0  0  0  0  0
    3.2112   67.8060   67.6580 H   0  0  0  0  0  0  0  0  0  0  0  0
    3.0226   67.0176   65.6031 H   0  0  0  0  0  0  0  0  0  0  0  0
    1.9049   69.3147   64.6352 H   0  0  0  0  0  0  0  0  0  0  0  0
    1.4533   66.4538   63.8478 H   0  0  0  0  0  0  0  0  0  0  0  0
    0.8957   67.9448   62.9242 H   0  0  0  0  0  0  0  0  0  0  0  0
    2.8756   67.1853   61.8810 H   0  0  0  0  0  0  0  0  0  0  0  0
    3.2649   68.6756   62.8907 H   0  0  0  0  0  0  0  0  0  0  0  0
   -1.9095   68.8436   65.4864 H   0  0  0  0  0  0  0  0  0  0  0  0
   -0.8498   69.5747   64.0820 H   0  0  0  0  0  0  0  0  0  0  0  0
  2  1  1  0
  3  2  2  0
  4  3  1  0
  5  4  1  0
  6  5  1  0
  6  7  1  1
  8  6  1  0
  9  8  1  0
  9  6  1  0
 10  9  1  0
 11 10  1  0
 12 11  1  0
 13 12  1  0
 13  2  1  0
 14 11  1  0
 15 14  2  3
 16 14  1  0
 17 16  2  0
 18 16  1  0
 18 10  1  0
  1 19  1  0
  1 20  1  0
  1 21  1  0
  3 22  1  0
  4 23  1  0
  4 24  1  0
  5 25  1  0
  5 26  1  0
  7 27  1  0
  7 28  1  0
  7 29  1  0
  9 30  1  1
 10 31  1  6
 11 32  1  6
 12 33  1  0
 12 34  1  0
 13 35  1  0
 13 36  1  0
 15 37  1  0
 15 38  1  0
M  END
>  <score>  (8) 
-7.673

$$$$
=
     RDKit          3D

 38 40  0  0  0  0  0  0  0  0999 V2000
   -0.2030   62.5820   72.5590 C   0  0  0  0  0  0  0  0  0  0  0  0
    1.2940   62.7220   72.4020 C   0  0  0  0  0  0  0  0  0  0  0  0
    1.8170   62.9590   71.1800 C   0  0  0  0  0  0  0  0  0  0  0  0
    3.2450   63.2210   70.7900 C   0  0  0  0  0  0  0  0  0  0  0  0
    4.2840   62.1420   71.0930 C   0  0  0  0  0  0  0  0  0  0  0  0
    4.0330   60.8070   70.4350 C   0  0  1  0  0  0  0  0  0  0  0  0
    4.3460   60.7440   68.9650 C   0  0  0  0  0  0  0  0  0  0  0  0
    4.6300   59.7240   71.1840 O   0  0  0  0  0  0  0  0  0  0  0  0
    3.2130   59.6550   71.0270 C   0  0  1  0  0  0  0  0  0  0  0  0
    2.3660   59.6900   72.2640 C   0  0  2  0  0  0  0  0  0  0  0  0
    2.9960   60.1800   73.5680 C   0  0  1  0  0  0  0  0  0  0  0  0
    2.1310   61.2140   74.3220 C   0  0  0  0  0  0  0  0  0  0  0  0
    2.0830   62.6190   73.6880 C   0  0  0  0  0  0  0  0  0  0  0  0
    3.1240   58.9090   74.3400 C   0  0  0  0  0  0  0  0  0  0  0  0
    3.8330   58.6860   75.4540 C   0  0  0  0  0  0  0  0  0  0  0  0
    2.3650   57.8440   73.6680 C   0  0  0  0  0  0  0  0  0  0  0  0
    2.1760   56.7150   74.0830 O   0  0  0  0  0  0  0  0  0  0  0  0
    1.8850   58.3470   72.5070 O   0  0  0  0  0  0  0  0  0  0  0  0
   -0.4589   62.5581   73.6286 H   0  0  0  0  0  0  0  0  0  0  0  0
   -0.7034   63.4373   72.0813 H   0  0  0  0  0  0  0  0  0  0  0  0
   -0.5361   61.6488   72.0813 H   0  0  0  0  0  0  0  0  0  0  0  0
    1.0944   62.9606   70.3507 H   0  0  0  0  0  0  0  0  0  0  0  0
    3.2604   63.3933   69.7037 H   0  0  0  0  0  0  0  0  0  0  0  0
    3.5469   64.0744   71.4149 H   0  0  0  0  0  0  0  0  0  0  0  0
    5.2645   62.5090   70.7555 H   0  0  0  0  0  0  0  0  0  0  0  0
    4.2319   61.9632   72.1771 H   0  0  0  0  0  0  0  0  0  0  0  0
    5.4158   60.5287   68.8268 H   0  0  0  0  0  0  0  0  0  0  0  0
    3.7483   59.9481   68.4966 H   0  0  0  0  0  0  0  0  0  0  0  0
    4.1027   61.7091   68.4966 H   0  0  0  0  0  0  0  0  0  0  0  0
    2.4458   58.9991   70.5898 H   0  0  0  0  0  0  0  0  0  0  0  0
    1.5979   60.4419   72.0304 H   0  0  0  0  0  0  0  0  0  0  0  0
    3.9423   60.7167   73.4052 H   0  0  0  0  0  0  0  0  0  0  0  0
    1.1024   60.8270   74.3694 H   0  0  0  0  0  0  0  0  0  0  0  0
    2.5993   61.3411   75.3092 H   0  0  0  0  0  0  0  0  0  0  0  0
    1.6322   63.3063   74.4190 H   0  0  0  0  0  0  0  0  0  0  0  0
    3.1218   62.8706   73.4281 H   0  0  0  0  0  0  0  0  0  0  0  0
    3.8322   57.6877   75.9159 H   0  0  0  0  0  0  0  0  0  0  0  0
    4.4162   59.5012   75.9072 H   0  0  0  0  0  0  0  0  0  0  0  0
  2  1  1  0
  3  2  2  0
  4  3  1  0
  5  4  1  0
  6  5  1  0
  6  7  1  6
  8  6  1  0
  9  8  1  0
  9  6  1  0
 10  9  1  0
 11 10  1  0
 12 11  1  0
 13 12  1  0
 13  2  1  0
 14 11  1  0
 15 14  2  3
 16 14  1  0
 17 16  2  0
 18 16  1  0
 18 10  1  0
  1 19  1  0
  1 20  1  0
  1 21  1  0
  3 22  1  0
  4 23  1  0
  4 24  1  0
  5 25  1  0
  5 26  1  0
  7 27  1  0
  7 28  1  0
  7 29  1  0
  9 30  1  6
 10 31  1  6
 11 32  1  6
 12 33  1  0
 12 34  1  0
 13 35  1  0
 13 36  1  0
 15 37  1  0
 15 38  1  0
M  END
>  <score>  (9) 
-7.242

$$$$
