=
     RDKit          3D

 51 54  0  0  0  0  0  0  0  0999 V2000
    0.4950   67.2930   68.2870 N   0  0  1  0  0  4  0  0  0  0  0  0
    1.4470   67.4370   69.4520 C   0  0  0  0  0  0  0  0  0  0  0  0
    1.9000   66.0540   69.9290 C   0  0  0  0  0  0  0  0  0  0  0  0
    0.7560   65.0990   70.1710 C   0  0  0  0  0  0  0  0  0  0  0  0
   -0.4340   65.3730   69.5990 C   0  0  0  0  0  0  0  0  0  0  0  0
   -0.7360   66.5370   68.7190 C   0  0  0  0  0  0  0  0  0  0  0  0
    0.9440   64.0000   71.0130 N   0  0  0  0  0  0  0  0  0  0  0  0
    0.4210   63.9120   72.3630 C   0  0  0  0  0  0  0  0  0  0  0  0
   -0.2520   64.7230   72.9820 O   0  0  0  0  0  0  0  0  0  0  0  0
    0.8590   62.7000   72.9000 N   0  0  0  0  0  0  0  0  0  0  0  0
    1.6270   62.0320   71.9670 C   0  0  0  0  0  0  0  0  0  0  0  0
    1.6930   62.8010   70.8030 C   0  0  0  0  0  0  0  0  0  0  0  0
    2.3740   62.3080   69.7060 C   0  0  0  0  0  0  0  0  0  0  0  0
    3.0060   61.0590   69.8200 C   0  0  0  0  0  0  0  0  0  0  0  0
    2.9410   60.3170   71.0110 C   0  0  0  0  0  0  0  0  0  0  0  0
    2.2360   60.8020   72.1100 C   0  0  0  0  0  0  0  0  0  0  0  0
    0.1920   68.6250   67.6350 C   0  0  0  0  0  0  0  0  0  0  0  0
    0.7250   68.6580   66.2090 C   0  0  0  0  0  0  0  0  0  0  0  0
    2.0850   67.9580   66.0900 C   0  0  0  0  0  0  0  0  0  0  0  0
    3.1330   68.9190   65.5500 C   0  0  0  0  0  0  0  0  0  0  0  0
    3.2080   69.1610   64.3480 O   0  0  0  0  0  0  0  0  0  0  0  0
    6.8160   71.3700   69.0210 F   0  0  0  0  0  0  0  0  0  0  0  0
    5.9330   70.7870   68.2020 C   0  0  0  0  0  0  0  0  0  0  0  0
    4.6400   70.5450   68.6530 C   0  0  0  0  0  0  0  0  0  0  0  0
    3.7090   69.9350   67.8040 C   0  0  0  0  0  0  0  0  0  0  0  0
    4.0820   69.5730   66.5010 C   0  0  0  0  0  0  0  0  0  0  0  0
    5.3930   69.8260   66.0630 C   0  0  0  0  0  0  0  0  0  0  0  0
    6.3180   70.4340   66.9150 C   0  0  0  0  0  0  0  0  0  0  0  0
    0.9499   66.7356   67.5499 H   0  0  0  0  0  0  0  0  0  0  0  0
    2.3250   68.0194   69.1357 H   0  0  0  0  0  0  0  0  0  0  0  0
    0.9347   67.9546   70.2764 H   0  0  0  0  0  0  0  0  0  0  0  0
    2.5604   65.6202   69.1637 H   0  0  0  0  0  0  0  0  0  0  0  0
    2.4147   66.1947   70.8909 H   0  0  0  0  0  0  0  0  0  0  0  0
   -1.2579   64.6726   69.8006 H   0  0  0  0  0  0  0  0  0  0  0  0
   -1.2539   66.1703   67.8205 H   0  0  0  0  0  0  0  0  0  0  0  0
   -1.3582   67.2328   69.3010 H   0  0  0  0  0  0  0  0  0  0  0  0
    0.6425   62.3569   73.8467 H   0  0  0  0  0  0  0  0  0  0  0  0
    2.4198   62.8795   68.7672 H   0  0  0  0  0  0  0  0  0  0  0  0
    3.5619   60.6545   68.9613 H   0  0  0  0  0  0  0  0  0  0  0  0
    3.4512   59.3447   71.0763 H   0  0  0  0  0  0  0  0  0  0  0  0
    2.1679   60.2313   73.0479 H   0  0  0  0  0  0  0  0  0  0  0  0
   -0.8970   68.7794   67.6174 H   0  0  0  0  0  0  0  0  0  0  0  0
    0.6804   69.4224   68.2144 H   0  0  0  0  0  0  0  0  0  0  0  0
    0.0055   68.1517   65.5487 H   0  0  0  0  0  0  0  0  0  0  0  0
    0.8570   69.7108   65.9188 H   0  0  0  0  0  0  0  0  0  0  0  0
    2.3973   67.6024   67.0830 H   0  0  0  0  0  0  0  0  0  0  0  0
    1.9891   67.1096   65.3964 H   0  0  0  0  0  0  0  0  0  0  0  0
    4.3495   70.8322   69.6743 H   0  0  0  0  0  0  0  0  0  0  0  0
    2.6861   69.7397   68.1582 H   0  0  0  0  0  0  0  0  0  0  0  0
    5.6927   69.5435   65.0430 H   0  0  0  0  0  0  0  0  0  0  0  0
    7.3434   70.6317   66.5694 H   0  0  0  0  0  0  0  0  0  0  0  0
  2  1  1  0
  3  2  1  0
  4  3  1  0
  5  4  2  0
  6  5  1  0
  6  1  1  0
  7  4  1  0
  8  7  1  0
  9  8  2  0
 10  8  1  0
 11 10  1  0
 12 11  2  0
 12  7  1  0
 13 12  1  0
 14 13  2  0
 15 14  1  0
 16 15  2  0
 16 11  1  0
 17  1  1  0
 18 17  1  0
 19 18  1  0
 20 19  1  0
 21 20  2  0
 23 22  1  0
 24 23  2  0
 25 24  1  0
 26 25  2  0
 26 20  1  0
 27 26  1  0
 28 27  2  0
 28 23  1  0
  1 29  1  6
  2 30  1  0
  2 31  1  0
  3 32  1  0
  3 33  1  0
  5 34  1  0
  6 35  1  0
  6 36  1  0
 10 37  1  0
 13 38  1  0
 14 39  1  0
 15 40  1  0
 16 41  1  0
 17 42  1  0
 17 43  1  0
 18 44  1  0
 18 45  1  0
 19 46  1  0
 19 47  1  0
 24 48  1  0
 25 49  1  0
 27 50  1  0
 28 51  1  0
M  CHG  1   1   1
M  END
>  <score>  (1) 
-10.406

$$$$
=
     RDKit          3D

 51 54  0  0  0  0  0  0  0  0999 V2000
    0.3910   66.3340   69.2860 N   0  0  1  0  0  4  0  0  0  0  0  0
   -0.9860   66.6850   68.7720 C   0  0  0  0  0  0  0  0  0  0  0  0
   -0.9640   66.7810   67.2430 C   0  0  0  0  0  0  0  0  0  0  0  0
    0.1430   67.6610   66.7140 C   0  0  0  0  0  0  0  0  0  0  0  0
    1.1860   67.9300   67.5260 C   0  0  0  0  0  0  0  0  0  0  0  0
    1.3710   67.4200   68.9140 C   0  0  0  0  0  0  0  0  0  0  0  0
    0.0310   68.2110   65.4350 N   0  0  0  0  0  0  0  0  0  0  0  0
   -1.1850   68.7970   64.9040 C   0  0  0  0  0  0  0  0  0  0  0  0
   -2.2750   68.9260   65.4430 O   0  0  0  0  0  0  0  0  0  0  0  0
   -0.9200   69.1840   63.5900 N   0  0  0  0  0  0  0  0  0  0  0  0
    0.3860   68.8700   63.2690 C   0  0  0  0  0  0  0  0  0  0  0  0
    0.9930   68.2780   64.3790 C   0  0  0  0  0  0  0  0  0  0  0  0
    2.3260   67.9190   64.3090 C   0  0  0  0  0  0  0  0  0  0  0  0
    3.0110   68.1360   63.1020 C   0  0  0  0  0  0  0  0  0  0  0  0
    2.3690   68.7150   61.9940 C   0  0  0  0  0  0  0  0  0  0  0  0
    1.0310   69.0970   62.0720 C   0  0  0  0  0  0  0  0  0  0  0  0
    0.3790   66.0070   70.7630 C   0  0  0  0  0  0  0  0  0  0  0  0
    0.3750   64.5010   70.9790 C   0  0  0  0  0  0  0  0  0  0  0  0
    1.7590   63.9760   71.3810 C   0  0  0  0  0  0  0  0  0  0  0  0
    2.4170   63.2590   70.2120 C   0  0  0  0  0  0  0  0  0  0  0  0
    2.6600   63.8510   69.1630 O   0  0  0  0  0  0  0  0  0  0  0  0
    3.6740   57.8170   70.8620 F   0  0  0  0  0  0  0  0  0  0  0  0
    3.3800   59.1120   70.6990 C   0  0  0  0  0  0  0  0  0  0  0  0
    3.7720   59.7600   69.5330 C   0  0  0  0  0  0  0  0  0  0  0  0
    3.4680   61.1140   69.3530 C   0  0  0  0  0  0  0  0  0  0  0  0
    2.7690   61.8130   70.3480 C   0  0  0  0  0  0  0  0  0  0  0  0
    2.3800   61.1420   71.5190 C   0  0  0  0  0  0  0  0  0  0  0  0
    2.6860   59.7900   71.6930 C   0  0  0  0  0  0  0  0  0  0  0  0
    0.7086   65.4682   68.8273 H   0  0  0  0  0  0  0  0  0  0  0  0
   -1.6991   65.9054   69.0781 H   0  0  0  0  0  0  0  0  0  0  0  0
   -1.2922   67.6549   69.1910 H   0  0  0  0  0  0  0  0  0  0  0  0
   -0.8320   65.7693   66.8318 H   0  0  0  0  0  0  0  0  0  0  0  0
   -1.9166   67.2347   66.9321 H   0  0  0  0  0  0  0  0  0  0  0  0
    1.9729   68.5867   67.1266 H   0  0  0  0  0  0  0  0  0  0  0  0
    2.3903   67.0167   69.0049 H   0  0  0  0  0  0  0  0  0  0  0  0
    1.1971   68.2642   69.5974 H   0  0  0  0  0  0  0  0  0  0  0  0
   -1.5952   69.6350   62.9562 H   0  0  0  0  0  0  0  0  0  0  0  0
    2.8371   67.4749   65.1759 H   0  0  0  0  0  0  0  0  0  0  0  0
    4.0695   67.8474   63.0226 H   0  0  0  0  0  0  0  0  0  0  0  0
    2.9267   68.8678   61.0583 H   0  0  0  0  0  0  0  0  0  0  0  0
    0.5135   69.5583   61.2179 H   0  0  0  0  0  0  0  0  0  0  0  0
    1.2742   66.4374   71.2357 H   0  0  0  0  0  0  0  0  0  0  0  0
   -0.5307   66.4317   71.2124 H   0  0  0  0  0  0  0  0  0  0  0  0
   -0.3426   64.2582   71.7765 H   0  0  0  0  0  0  0  0  0  0  0  0
    0.0915   64.0218   70.0303 H   0  0  0  0  0  0  0  0  0  0  0  0
    2.3914   64.8216   71.6893 H   0  0  0  0  0  0  0  0  0  0  0  0
    1.6423   63.2664   72.2134 H   0  0  0  0  0  0  0  0  0  0  0  0
    4.3198   59.2096   68.7539 H   0  0  0  0  0  0  0  0  0  0  0  0
    3.7770   61.6298   68.4319 H   0  0  0  0  0  0  0  0  0  0  0  0
    1.8314   61.6840   72.3034 H   0  0  0  0  0  0  0  0  0  0  0  0
    2.3796   59.2662   72.6105 H   0  0  0  0  0  0  0  0  0  0  0  0
  2  1  1  0
  3  2  1  0
  4  3  1  0
  5  4  2  0
  6  5  1  0
  6  1  1  0
  7  4  1  0
  8  7  1  0
  9  8  2  0
 10  8  1  0
 11 10  1  0
 12 11  2  0
 12  7  1  0
 13 12  1  0
 14 13  2  0
 15 14  1  0
 16 15  2  0
 16 11  1  0
 17  1  1  0
 18 17  1  0
 19 18  1  0
 20 19  1  0
 21 20  2  0
 23 22  1  0
 24 23  2  0
 25 24  1  0
 26 25  2  0
 26 20  1  0
 27 26  1  0
 28 27  2  0
 28 23  1  0
  1 29  1  6
  2 30  1  0
  2 31  1  0
  3 32  1  0
  3 33  1  0
  5 34  1  0
  6 35  1  0
  6 36  1  0
 10 37  1  0
 13 38  1  0
 14 39  1  0
 15 40  1  0
 16 41  1  0
 17 42  1  0
 17 43  1  0
 18 44  1  0
 18 45  1  0
 19 46  1  0
 19 47  1  0
 24 48  1  0
 25 49  1  0
 27 50  1  0
 28 51  1  0
M  CHG  1   1   1
M  END
>  <score>  (2) 
-10.304

$$$$
=
     RDKit          3D

 51 54  0  0  0  0  0  0  0  0999 V2000
    0.7570   65.8690   69.2520 N   0  0  1  0  0  4  0  0  0  0  0  0
    1.9380   65.9610   70.1910 C   0  0  0  0  0  0  0  0  0  0  0  0
    2.5180   64.5660   70.4390 C   0  0  0  0  0  0  0  0  0  0  0  0
    1.4780   63.5470   70.8400 C   0  0  0  0  0  0  0  0  0  0  0  0
    0.1850   63.8150   70.5660 C   0  0  0  0  0  0  0  0  0  0  0  0
   -0.3310   65.0300   69.8750 C   0  0  0  0  0  0  0  0  0  0  0  0
    1.8740   62.3950   71.5240 N   0  0  0  0  0  0  0  0  0  0  0  0
    1.7240   62.2080   72.9550 C   0  0  0  0  0  0  0  0  0  0  0  0
    1.2450   62.9670   73.7840 O   0  0  0  0  0  0  0  0  0  0  0  0
    2.2790   60.9660   73.2710 N   0  0  0  0  0  0  0  0  0  0  0  0
    2.7680   60.3730   72.1250 C   0  0  0  0  0  0  0  0  0  0  0  0
    2.5310   61.2210   71.0410 C   0  0  0  0  0  0  0  0  0  0  0  0
    2.8940   60.8130   69.7710 C   0  0  0  0  0  0  0  0  0  0  0  0
    3.5230   59.5660   69.6280 C   0  0  0  0  0  0  0  0  0  0  0  0
    3.7690   58.7420   70.7390 C   0  0  0  0  0  0  0  0  0  0  0  0
    3.3830   59.1430   72.0160 C   0  0  0  0  0  0  0  0  0  0  0  0
    0.2860   67.2330   68.7980 C   0  0  0  0  0  0  0  0  0  0  0  0
    0.9810   67.6380   67.5050 C   0  0  0  0  0  0  0  0  0  0  0  0
    1.5930   69.0420   67.6000 C   0  0  0  0  0  0  0  0  0  0  0  0
    2.8080   69.1560   66.6920 C   0  0  0  0  0  0  0  0  0  0  0  0
    2.7740   68.7410   65.5360 O   0  0  0  0  0  0  0  0  0  0  0  0
    7.4380   71.5360   68.8170 F   0  0  0  0  0  0  0  0  0  0  0  0
    6.3410   70.9680   68.3030 C   0  0  0  0  0  0  0  0  0  0  0  0
    6.3710   70.4760   67.0030 C   0  0  0  0  0  0  0  0  0  0  0  0
    5.2290   69.8810   66.4570 C   0  0  0  0  0  0  0  0  0  0  0  0
    4.0580   69.7800   67.2220 C   0  0  0  0  0  0  0  0  0  0  0  0
    4.0460   70.2830   68.5330 C   0  0  0  0  0  0  0  0  0  0  0  0
    5.1890   70.8760   69.0740 C   0  0  0  0  0  0  0  0  0  0  0  0
    1.0525   65.3911   68.3887 H   0  0  0  0  0  0  0  0  0  0  0  0
    2.7109   66.6027   69.7428 H   0  0  0  0  0  0  0  0  0  0  0  0
    1.6065   66.3902   71.1480 H   0  0  0  0  0  0  0  0  0  0  0  0
    3.0055   64.2217   69.5150 H   0  0  0  0  0  0  0  0  0  0  0  0
    3.2271   64.6530   71.2755 H   0  0  0  0  0  0  0  0  0  0  0  0
   -0.5574   63.0674   70.8819 H   0  0  0  0  0  0  0  0  0  0  0  0
   -1.0246   64.7129   69.0823 H   0  0  0  0  0  0  0  0  0  0  0  0
   -0.8269   65.6515   70.6352 H   0  0  0  0  0  0  0  0  0  0  0  0
    2.3174   60.5555   74.2149 H   0  0  0  0  0  0  0  0  0  0  0  0
    2.6952   61.4487   68.8955 H   0  0  0  0  0  0  0  0  0  0  0  0
    3.8290   59.2277   68.6271 H   0  0  0  0  0  0  0  0  0  0  0  0
    4.2702   57.7728   70.5994 H   0  0  0  0  0  0  0  0  0  0  0  0
    3.5604   58.5082   72.8967 H   0  0  0  0  0  0  0  0  0  0  0  0
   -0.8007   67.2026   68.6300 H   0  0  0  0  0  0  0  0  0  0  0  0
    0.5305   67.9697   69.5774 H   0  0  0  0  0  0  0  0  0  0  0  0
    1.7815   66.9149   67.2899 H   0  0  0  0  0  0  0  0  0  0  0  0
    0.2290   67.6474   66.7022 H   0  0  0  0  0  0  0  0  0  0  0  0
    0.8420   69.7856   67.2949 H   0  0  0  0  0  0  0  0  0  0  0  0
    1.9066   69.2239   68.6385 H   0  0  0  0  0  0  0  0  0  0  0  0
    7.2910   70.5545   66.4051 H   0  0  0  0  0  0  0  0  0  0  0  0
    5.2494   69.4925   65.4281 H   0  0  0  0  0  0  0  0  0  0  0  0
    3.1302   70.2095   69.1380 H   0  0  0  0  0  0  0  0  0  0  0  0
    5.1771   71.2670   70.1021 H   0  0  0  0  0  0  0  0  0  0  0  0
  2  1  1  0
  3  2  1  0
  4  3  1  0
  5  4  2  0
  6  5  1  0
  6  1  1  0
  7  4  1  0
  8  7  1  0
  9  8  2  0
 10  8  1  0
 11 10  1  0
 12 11  2  0
 12  7  1  0
 13 12  1  0
 14 13  2  0
 15 14  1  0
 16 15  2  0
 16 11  1  0
 17  1  1  0
 18 17  1  0
 19 18  1  0
 20 19  1  0
 21 20  2  0
 23 22  1  0
 24 23  2  0
 25 24  1  0
 26 25  2  0
 26 20  1  0
 27 26  1  0
 28 27  2  0
 28 23  1  0
  1 29  1  6
  2 30  1  0
  2 31  1  0
  3 32  1  0
  3 33  1  0
  5 34  1  0
  6 35  1  0
  6 36  1  0
 10 37  1  0
 13 38  1  0
 14 39  1  0
 15 40  1  0
 16 41  1  0
 17 42  1  0
 17 43  1  0
 18 44  1  0
 18 45  1  0
 19 46  1  0
 19 47  1  0
 24 48  1  0
 25 49  1  0
 27 50  1  0
 28 51  1  0
M  CHG  1   1   1
M  END
>  <score>  (3) 
-10.126

$$$$
=
     RDKit          3D

 51 54  0  0  0  0  0  0  0  0999 V2000
    0.7730   64.7160   69.9670 N   0  0  1  0  0  4  0  0  0  0  0  0
    2.2200   64.8250   70.3890 C   0  0  0  0  0  0  0  0  0  0  0  0
    2.8830   63.4450   70.3410 C   0  0  0  0  0  0  0  0  0  0  0  0
    2.0990   62.3780   71.0660 C   0  0  0  0  0  0  0  0  0  0  0  0
    0.7930   62.6050   71.3150 C   0  0  0  0  0  0  0  0  0  0  0  0
    0.0240   63.8200   70.9220 C   0  0  0  0  0  0  0  0  0  0  0  0
    2.7520   61.2220   71.5010 N   0  0  0  0  0  0  0  0  0  0  0  0
    3.4240   60.2860   70.6200 C   0  0  0  0  0  0  0  0  0  0  0  0
    3.5510   60.3290   69.4050 O   0  0  0  0  0  0  0  0  0  0  0  0
    3.9030   59.2410   71.4120 N   0  0  0  0  0  0  0  0  0  0  0  0
    3.5670   59.4690   72.7320 C   0  0  0  0  0  0  0  0  0  0  0  0
    2.8660   60.6740   72.8170 C   0  0  0  0  0  0  0  0  0  0  0  0
    2.4640   61.1360   74.0570 C   0  0  0  0  0  0  0  0  0  0  0  0
    2.7500   60.3500   75.1850 C   0  0  0  0  0  0  0  0  0  0  0  0
    3.4380   59.1300   75.0660 C   0  0  0  0  0  0  0  0  0  0  0  0
    3.8630   58.6750   73.8200 C   0  0  0  0  0  0  0  0  0  0  0  0
    0.1330   66.0750   69.7810 C   0  0  0  0  0  0  0  0  0  0  0  0
    1.1480   67.0780   69.2520 C   0  0  0  0  0  0  0  0  0  0  0  0
    0.7280   67.6550   67.8940 C   0  0  0  0  0  0  0  0  0  0  0  0
    1.1140   69.1210   67.7950 C   0  0  0  0  0  0  0  0  0  0  0  0
    0.2630   70.0050   67.8540 O   0  0  0  0  0  0  0  0  0  0  0  0
    6.5260   70.5580   67.2810 F   0  0  0  0  0  0  0  0  0  0  0  0
    5.2380   70.2130   67.3940 C   0  0  0  0  0  0  0  0  0  0  0  0
    4.6090   69.5670   66.3360 C   0  0  0  0  0  0  0  0  0  0  0  0
    3.2630   69.2020   66.4450 C   0  0  0  0  0  0  0  0  0  0  0  0
    2.5530   69.4870   67.6210 C   0  0  0  0  0  0  0  0  0  0  0  0
    3.2050   70.1390   68.6790 C   0  0  0  0  0  0  0  0  0  0  0  0
    4.5500   70.5010   68.5650 C   0  0  0  0  0  0  0  0  0  0  0  0
    0.7281   64.2735   69.0380 H   0  0  0  0  0  0  0  0  0  0  0  0
    2.7484   65.5073   69.7069 H   0  0  0  0  0  0  0  0  0  0  0  0
    2.2690   65.2145   71.4166 H   0  0  0  0  0  0  0  0  0  0  0  0
    2.9886   63.1453   69.2879 H   0  0  0  0  0  0  0  0  0  0  0  0
    3.8555   63.5340   70.8473 H   0  0  0  0  0  0  0  0  0  0  0  0
    0.2447   61.8212   71.8582 H   0  0  0  0  0  0  0  0  0  0  0  0
   -0.9118   63.5004   70.4401 H   0  0  0  0  0  0  0  0  0  0  0  0
   -0.1594   64.4005   71.8382 H   0  0  0  0  0  0  0  0  0  0  0  0
    4.4268   58.4248   71.0650 H   0  0  0  0  0  0  0  0  0  0  0  0
    1.9338   62.0946   74.1571 H   0  0  0  0  0  0  0  0  0  0  0  0
    2.4300   60.6951   76.1792 H   0  0  0  0  0  0  0  0  0  0  0  0
    3.6425   58.5294   75.9646 H   0  0  0  0  0  0  0  0  0  0  0  0
    4.4092   57.7267   73.7090 H   0  0  0  0  0  0  0  0  0  0  0  0
   -0.6969   65.9885   69.0643 H   0  0  0  0  0  0  0  0  0  0  0  0
   -0.2393   66.4275   70.7542 H   0  0  0  0  0  0  0  0  0  0  0  0
    1.2433   67.9021   69.9744 H   0  0  0  0  0  0  0  0  0  0  0  0
    2.1064   66.5549   69.1184 H   0  0  0  0  0  0  0  0  0  0  0  0
    1.2296   67.0939   67.0918 H   0  0  0  0  0  0  0  0  0  0  0  0
   -0.3639   67.5676   67.7933 H   0  0  0  0  0  0  0  0  0  0  0  0
    5.1682   69.3434   65.4155 H   0  0  0  0  0  0  0  0  0  0  0  0
    2.7616   68.6919   65.6093 H   0  0  0  0  0  0  0  0  0  0  0  0
    2.6541   70.3665   69.6035 H   0  0  0  0  0  0  0  0  0  0  0  0
    5.0595   71.0101   69.3964 H   0  0  0  0  0  0  0  0  0  0  0  0
  2  1  1  0
  3  2  1  0
  4  3  1  0
  5  4  2  0
  6  5  1  0
  6  1  1  0
  7  4  1  0
  8  7  1  0
  9  8  2  0
 10  8  1  0
 11 10  1  0
 12 11  2  0
 12  7  1  0
 13 12  1  0
 14 13  2  0
 15 14  1  0
 16 15  2  0
 16 11  1  0
 17  1  1  0
 18 17  1  0
 19 18  1  0
 20 19  1  0
 21 20  2  0
 23 22  1  0
 24 23  2  0
 25 24  1  0
 26 25  2  0
 26 20  1  0
 27 26  1  0
 28 27  2  0
 28 23  1  0
  1 29  1  6
  2 30  1  0
  2 31  1  0
  3 32  1  0
  3 33  1  0
  5 34  1  0
  6 35  1  0
  6 36  1  0
 10 37  1  0
 13 38  1  0
 14 39  1  0
 15 40  1  0
 16 41  1  0
 17 42  1  0
 17 43  1  0
 18 44  1  0
 18 45  1  0
 19 46  1  0
 19 47  1  0
 24 48  1  0
 25 49  1  0
 27 50  1  0
 28 51  1  0
M  CHG  1   1   1
M  END
>  <score>  (4) 
-10.068

$$$$
=
     RDKit          3D

 51 54  0  0  0  0  0  0  0  0999 V2000
    0.0040   67.0060   67.7760 N   0  0  1  0  0  4  0  0  0  0  0  0
   -0.4890   68.3090   67.1910 C   0  0  0  0  0  0  0  0  0  0  0  0
   -0.3120   68.2980   65.6690 C   0  0  0  0  0  0  0  0  0  0  0  0
    1.0770   67.9020   65.2300 C   0  0  0  0  0  0  0  0  0  0  0  0
    1.8580   67.2420   66.1090 C   0  0  0  0  0  0  0  0  0  0  0  0
    1.4760   66.8380   67.4920 C   0  0  0  0  0  0  0  0  0  0  0  0
    1.5280   68.2730   63.9610 N   0  0  0  0  0  0  0  0  0  0  0  0
    0.6760   68.3770   62.7930 C   0  0  0  0  0  0  0  0  0  0  0  0
   -0.5280   68.1830   62.6990 O   0  0  0  0  0  0  0  0  0  0  0  0
    1.4910   68.7160   61.7120 N   0  0  0  0  0  0  0  0  0  0  0  0
    2.8010   68.8260   62.1380 C   0  0  0  0  0  0  0  0  0  0  0  0
    2.8530   68.5640   63.5080 C   0  0  0  0  0  0  0  0  0  0  0  0
    4.0630   68.6620   64.1690 C   0  0  0  0  0  0  0  0  0  0  0  0
    5.2050   68.9890   63.4210 C   0  0  0  0  0  0  0  0  0  0  0  0
    5.1270   69.2260   62.0380 C   0  0  0  0  0  0  0  0  0  0  0  0
    3.9040   69.1500   61.3760 C   0  0  0  0  0  0  0  0  0  0  0  0
   -0.3510   66.8710   69.2400 C   0  0  0  0  0  0  0  0  0  0  0  0
    0.8760   66.4940   70.0580 C   0  0  0  0  0  0  0  0  0  0  0  0
    0.5530   65.4330   71.1180 C   0  0  0  0  0  0  0  0  0  0  0  0
    0.8030   64.0380   70.5690 C   0  0  0  0  0  0  0  0  0  0  0  0
   -0.0550   63.4530   69.9140 O   0  0  0  0  0  0  0  0  0  0  0  0
    5.7930   61.5990   71.4480 F   0  0  0  0  0  0  0  0  0  0  0  0
    4.6020   62.1750   71.2470 C   0  0  0  0  0  0  0  0  0  0  0  0
    3.5700   61.9430   72.1490 C   0  0  0  0  0  0  0  0  0  0  0  0
    2.3210   62.5410   71.9480 C   0  0  0  0  0  0  0  0  0  0  0  0
    2.1150   63.3730   70.8370 C   0  0  0  0  0  0  0  0  0  0  0  0
    3.1690   63.5950   69.9360 C   0  0  0  0  0  0  0  0  0  0  0  0
    4.4140   62.9950   70.1430 C   0  0  0  0  0  0  0  0  0  0  0  0
   -0.4848   66.2262   67.3134 H   0  0  0  0  0  0  0  0  0  0  0  0
   -1.5543   68.4376   67.4333 H   0  0  0  0  0  0  0  0  0  0  0  0
    0.0924   69.1400   67.6170 H   0  0  0  0  0  0  0  0  0  0  0  0
   -1.0303   67.5841   65.2396 H   0  0  0  0  0  0  0  0  0  0  0  0
   -0.4842   69.3250   65.3145 H   0  0  0  0  0  0  0  0  0  0  0  0
    2.8717   66.9770   65.7742 H   0  0  0  0  0  0  0  0  0  0  0  0
    1.7404   65.7795   67.6324 H   0  0  0  0  0  0  0  0  0  0  0  0
    2.0196   67.4958   68.1862 H   0  0  0  0  0  0  0  0  0  0  0  0
    1.1661   68.8618   60.7455 H   0  0  0  0  0  0  0  0  0  0  0  0
    4.1293   68.4882   65.2532 H   0  0  0  0  0  0  0  0  0  0  0  0
    6.1791   69.0611   63.9268 H   0  0  0  0  0  0  0  0  0  0  0  0
    6.0386   69.4733   61.4742 H   0  0  0  0  0  0  0  0  0  0  0  0
    3.8216   69.3396   60.2956 H   0  0  0  0  0  0  0  0  0  0  0  0
   -0.7480   67.8296   69.6053 H   0  0  0  0  0  0  0  0  0  0  0  0
   -1.1063   66.0788   69.3494 H   0  0  0  0  0  0  0  0  0  0  0  0
    1.6466   66.0971   69.3808 H   0  0  0  0  0  0  0  0  0  0  0  0
    1.2307   67.3970   70.5765 H   0  0  0  0  0  0  0  0  0  0  0  0
    1.1918   65.5952   71.9987 H   0  0  0  0  0  0  0  0  0  0  0  0
   -0.5074   65.5205   71.3970 H   0  0  0  0  0  0  0  0  0  0  0  0
    3.7349   61.2906   73.0191 H   0  0  0  0  0  0  0  0  0  0  0  0
    1.5021   62.3592   72.6596 H   0  0  0  0  0  0  0  0  0  0  0  0
    3.0137   64.2449   69.0622 H   0  0  0  0  0  0  0  0  0  0  0  0
    5.2385   63.1712   69.4365 H   0  0  0  0  0  0  0  0  0  0  0  0
  2  1  1  0
  3  2  1  0
  4  3  1  0
  5  4  2  0
  6  5  1  0
  6  1  1  0
  7  4  1  0
  8  7  1  0
  9  8  2  0
 10  8  1  0
 11 10  1  0
 12 11  2  0
 12  7  1  0
 13 12  1  0
 14 13  2  0
 15 14  1  0
 16 15  2  0
 16 11  1  0
 17  1  1  0
 18 17  1  0
 19 18  1  0
 20 19  1  0
 21 20  2  0
 23 22  1  0
 24 23  2  0
 25 24  1  0
 26 25  2  0
 26 20  1  0
 27 26  1  0
 28 27  2  0
 28 23  1  0
  1 29  1  6
  2 30  1  0
  2 31  1  0
  3 32  1  0
  3 33  1  0
  5 34  1  0
  6 35  1  0
  6 36  1  0
 10 37  1  0
 13 38  1  0
 14 39  1  0
 15 40  1  0
 16 41  1  0
 17 42  1  0
 17 43  1  0
 18 44  1  0
 18 45  1  0
 19 46  1  0
 19 47  1  0
 24 48  1  0
 25 49  1  0
 27 50  1  0
 28 51  1  0
M  CHG  1   1   1
M  END
>  <score>  (5) 
-9.899

$$$$
=
     RDKit          3D

 51 54  0  0  0  0  0  0  0  0999 V2000
    0.7610   65.5370   69.5100 N   0  0  1  0  0  4  0  0  0  0  0  0
    2.0720   65.6760   70.2490 C   0  0  0  0  0  0  0  0  0  0  0  0
    2.6530   64.2900   70.5450 C   0  0  0  0  0  0  0  0  0  0  0  0
    1.6650   63.3520   71.1960 C   0  0  0  0  0  0  0  0  0  0  0  0
    0.3510   63.6400   71.0930 C   0  0  0  0  0  0  0  0  0  0  0  0
   -0.2380   64.8020   70.3680 C   0  0  0  0  0  0  0  0  0  0  0  0
    2.1340   62.2580   71.9260 N   0  0  0  0  0  0  0  0  0  0  0  0
    2.1760   62.2030   73.3750 C   0  0  0  0  0  0  0  0  0  0  0  0
    1.8210   63.0460   74.1870 O   0  0  0  0  0  0  0  0  0  0  0  0
    2.7530   60.9820   73.7280 N   0  0  0  0  0  0  0  0  0  0  0  0
    3.0760   60.2760   72.5870 C   0  0  0  0  0  0  0  0  0  0  0  0
    2.7060   61.0290   71.4700 C   0  0  0  0  0  0  0  0  0  0  0  0
    2.8900   60.4990   70.2070 C   0  0  0  0  0  0  0  0  0  0  0  0
    3.4800   59.2300   70.0970 C   0  0  0  0  0  0  0  0  0  0  0  0
    3.8630   58.5030   71.2380 C   0  0  0  0  0  0  0  0  0  0  0  0
    3.6560   59.0270   72.5120 C   0  0  0  0  0  0  0  0  0  0  0  0
    0.2570   66.8680   68.9970 C   0  0  0  0  0  0  0  0  0  0  0  0
    1.1430   67.3810   67.8710 C   0  0  0  0  0  0  0  0  0  0  0  0
    1.1090   68.9110   67.7660 C   0  0  0  0  0  0  0  0  0  0  0  0
    2.5160   69.4820   67.8410 C   0  0  0  0  0  0  0  0  0  0  0  0
    2.9480   69.9630   68.8860 O   0  0  0  0  0  0  0  0  0  0  0  0
    5.8830   69.4360   63.3380 F   0  0  0  0  0  0  0  0  0  0  0  0
    5.0740   69.4440   64.4040 C   0  0  0  0  0  0  0  0  0  0  0  0
    3.7400   69.0860   64.2520 C   0  0  0  0  0  0  0  0  0  0  0  0
    2.8860   69.0920   65.3610 C   0  0  0  0  0  0  0  0  0  0  0  0
    3.3790   69.4570   66.6220 C   0  0  0  0  0  0  0  0  0  0  0  0
    4.7300   69.8160   66.7570 C   0  0  0  0  0  0  0  0  0  0  0  0
    5.5780   69.8080   65.6460 C   0  0  0  0  0  0  0  0  0  0  0  0
    0.9116   64.9676   68.6650 H   0  0  0  0  0  0  0  0  0  0  0  0
    2.7815   66.2442   69.6295 H   0  0  0  0  0  0  0  0  0  0  0  0
    1.8989   66.2062   71.1971 H   0  0  0  0  0  0  0  0  0  0  0  0
    2.9866   63.8421   69.5973 H   0  0  0  0  0  0  0  0  0  0  0  0
    3.4827   64.4303   71.2534 H   0  0  0  0  0  0  0  0  0  0  0  0
   -0.3507   62.9540   71.5899 H   0  0  0  0  0  0  0  0  0  0  0  0
   -1.0502   64.4360   69.7228 H   0  0  0  0  0  0  0  0  0  0  0  0
   -0.6000   65.5109   71.1272 H   0  0  0  0  0  0  0  0  0  0  0  0
    2.9132   60.6576   74.6924 H   0  0  0  0  0  0  0  0  0  0  0  0
    2.5820   61.0574   69.3107 H   0  0  0  0  0  0  0  0  0  0  0  0
    3.6458   58.7963   69.0998 H   0  0  0  0  0  0  0  0  0  0  0  0
    4.3294   57.5134   71.1238 H   0  0  0  0  0  0  0  0  0  0  0  0
    3.9420   58.4702   73.4165 H   0  0  0  0  0  0  0  0  0  0  0  0
   -0.7695   66.7449   68.6212 H   0  0  0  0  0  0  0  0  0  0  0  0
    0.2768   67.5954   69.8219 H   0  0  0  0  0  0  0  0  0  0  0  0
    2.1783   67.0607   68.0595 H   0  0  0  0  0  0  0  0  0  0  0  0
    0.7648   66.9666   66.9248 H   0  0  0  0  0  0  0  0  0  0  0  0
    0.6527   69.1978   66.8071 H   0  0  0  0  0  0  0  0  0  0  0  0
    0.5178   69.3116   68.6026 H   0  0  0  0  0  0  0  0  0  0  0  0
    3.3559   68.7985   63.2622 H   0  0  0  0  0  0  0  0  0  0  0  0
    1.8291   68.8107   65.2435 H   0  0  0  0  0  0  0  0  0  0  0  0
    5.1231   70.1052   67.7428 H   0  0  0  0  0  0  0  0  0  0  0  0
    6.6363   70.0878   65.7544 H   0  0  0  0  0  0  0  0  0  0  0  0
  2  1  1  0
  3  2  1  0
  4  3  1  0
  5  4  2  0
  6  5  1  0
  6  1  1  0
  7  4  1  0
  8  7  1  0
  9  8  2  0
 10  8  1  0
 11 10  1  0
 12 11  2  0
 12  7  1  0
 13 12  1  0
 14 13  2  0
 15 14  1  0
 16 15  2  0
 16 11  1  0
 17  1  1  0
 18 17  1  0
 19 18  1  0
 20 19  1  0
 21 20  2  0
 23 22  1  0
 24 23  2  0
 25 24  1  0
 26 25  2  0
 26 20  1  0
 27 26  1  0
 28 27  2  0
 28 23  1  0
  1 29  1  6
  2 30  1  0
  2 31  1  0
  3 32  1  0
  3 33  1  0
  5 34  1  0
  6 35  1  0
  6 36  1  0
 10 37  1  0
 13 38  1  0
 14 39  1  0
 15 40  1  0
 16 41  1  0
 17 42  1  0
 17 43  1  0
 18 44  1  0
 18 45  1  0
 19 46  1  0
 19 47  1  0
 24 48  1  0
 25 49  1  0
 27 50  1  0
 28 51  1  0
M  CHG  1   1   1
M  END
>  <score>  (6) 
-9.888

$$$$
=
     RDKit          3D

 51 54  0  0  0  0  0  0  0  0999 V2000
    0.9750   65.3160   70.2740 N   0  0  1  0  0  4  0  0  0  0  0  0
    2.2930   64.5780   70.2420 C   0  0  0  0  0  0  0  0  0  0  0  0
    2.0520   63.0730   70.3960 C   0  0  0  0  0  0  0  0  0  0  0  0
    1.1680   62.7250   71.5690 C   0  0  0  0  0  0  0  0  0  0  0  0
    0.3900   63.6950   72.0910 C   0  0  0  0  0  0  0  0  0  0  0  0
    0.2960   65.1000   71.6040 C   0  0  0  0  0  0  0  0  0  0  0  0
    1.2220   61.4380   72.1110 N   0  0  0  0  0  0  0  0  0  0  0  0
    2.3620   60.5500   71.9890 C   0  0  0  0  0  0  0  0  0  0  0  0
    3.4330   60.7460   71.4330 O   0  0  0  0  0  0  0  0  0  0  0  0
    2.0200   59.3470   72.6080 N   0  0  0  0  0  0  0  0  0  0  0  0
    0.7340   59.4310   73.1040 C   0  0  0  0  0  0  0  0  0  0  0  0
    0.2230   60.6990   72.8190 C   0  0  0  0  0  0  0  0  0  0  0  0
   -1.0420   61.0330   73.2640 C   0  0  0  0  0  0  0  0  0  0  0  0
   -1.7800   60.0630   73.9610 C   0  0  0  0  0  0  0  0  0  0  0  0
   -1.2490   58.7870   74.2150 C   0  0  0  0  0  0  0  0  0  0  0  0
    0.0350   58.4570   73.7860 C   0  0  0  0  0  0  0  0  0  0  0  0
    1.1340   66.7750   69.9040 C   0  0  0  0  0  0  0  0  0  0  0  0
    1.0710   66.9550   68.3940 C   0  0  0  0  0  0  0  0  0  0  0  0
    0.7370   68.4010   68.0040 C   0  0  0  0  0  0  0  0  0  0  0  0
    1.7120   68.9080   66.9520 C   0  0  0  0  0  0  0  0  0  0  0  0
    1.4500   68.8250   65.7550 O   0  0  0  0  0  0  0  0  0  0  0  0
    6.5190   71.2190   68.7320 F   0  0  0  0  0  0  0  0  0  0  0  0
    5.3790   70.6670   68.3000 C   0  0  0  0  0  0  0  0  0  0  0  0
    5.3280   70.1160   67.0250 C   0  0  0  0  0  0  0  0  0  0  0  0
    4.1410   69.5360   66.5640 C   0  0  0  0  0  0  0  0  0  0  0  0
    3.0070   69.5120   67.3900 C   0  0  0  0  0  0  0  0  0  0  0  0
    3.0780   70.0740   68.6750 C   0  0  0  0  0  0  0  0  0  0  0  0
    4.2660   70.6520   69.1290 C   0  0  0  0  0  0  0  0  0  0  0  0
    0.3551   64.9253   69.5501 H   0  0  0  0  0  0  0  0  0  0  0  0
    2.7956   64.7706   69.2827 H   0  0  0  0  0  0  0  0  0  0  0  0
    2.9253   64.9301   71.0704 H   0  0  0  0  0  0  0  0  0  0  0  0
    1.5753   62.7003   69.4774 H   0  0  0  0  0  0  0  0  0  0  0  0
    3.0305   62.6039   70.5761 H   0  0  0  0  0  0  0  0  0  0  0  0
   -0.2327   63.4239   72.9563 H   0  0  0  0  0  0  0  0  0  0  0  0
   -0.7669   65.3635   71.5005 H   0  0  0  0  0  0  0  0  0  0  0  0
    0.8102   65.7356   72.3400 H   0  0  0  0  0  0  0  0  0  0  0  0
    2.6329   58.5227   72.6834 H   0  0  0  0  0  0  0  0  0  0  0  0
   -1.4600   62.0331   73.0769 H   0  0  0  0  0  0  0  0  0  0  0  0
   -2.7927   60.3064   74.3148 H   0  0  0  0  0  0  0  0  0  0  0  0
   -1.8516   58.0430   74.7566 H   0  0  0  0  0  0  0  0  0  0  0  0
    0.4707   57.4662   73.9820 H   0  0  0  0  0  0  0  0  0  0  0  0
    0.3257   67.3566   70.3714 H   0  0  0  0  0  0  0  0  0  0  0  0
    2.1126   67.1270   70.2624 H   0  0  0  0  0  0  0  0  0  0  0  0
    2.0467   66.6866   67.9628 H   0  0  0  0  0  0  0  0  0  0  0  0
    0.2736   66.3042   68.0059 H   0  0  0  0  0  0  0  0  0  0  0  0
   -0.2850   68.4398   67.5990 H   0  0  0  0  0  0  0  0  0  0  0  0
    0.8152   69.0376   68.8977 H   0  0  0  0  0  0  0  0  0  0  0  0
    6.2187   70.1358   66.3798 H   0  0  0  0  0  0  0  0  0  0  0  0
    4.0969   69.0994   65.5553 H   0  0  0  0  0  0  0  0  0  0  0  0
    2.1929   70.0590   69.3279 H   0  0  0  0  0  0  0  0  0  0  0  0
    4.3189   71.0919   70.1358 H   0  0  0  0  0  0  0  0  0  0  0  0
  2  1  1  0
  3  2  1  0
  4  3  1  0
  5  4  2  0
  6  5  1  0
  6  1  1  0
  7  4  1  0
  8  7  1  0
  9  8  2  0
 10  8  1  0
 11 10  1  0
 12 11  2  0
 12  7  1  0
 13 12  1  0
 14 13  2  0
 15 14  1  0
 16 15  2  0
 16 11  1  0
 17  1  1  0
 18 17  1  0
 19 18  1  0
 20 19  1  0
 21 20  2  0
 23 22  1  0
 24 23  2  0
 25 24  1  0
 26 25  2  0
 26 20  1  0
 27 26  1  0
 28 27  2  0
 28 23  1  0
  1 29  1  6
  2 30  1  0
  2 31  1  0
  3 32  1  0
  3 33  1  0
  5 34  1  0
  6 35  1  0
  6 36  1  0
 10 37  1  0
 13 38  1  0
 14 39  1  0
 15 40  1  0
 16 41  1  0
 17 42  1  0
 17 43  1  0
 18 44  1  0
 18 45  1  0
 19 46  1  0
 19 47  1  0
 24 48  1  0
 25 49  1  0
 27 50  1  0
 28 51  1  0
M  CHG  1   1   1
M  END
>  <score>  (7) 
-9.779

$$$$
=
     RDKit          3D

 51 54  0  0  0  0  0  0  0  0999 V2000
    0.5710   64.5660   70.8850 N   0  0  1  0  0  4  0  0  0  0  0  0
    1.8640   64.0770   70.2740 C   0  0  0  0  0  0  0  0  0  0  0  0
    1.9330   62.5490   70.3540 C   0  0  0  0  0  0  0  0  0  0  0  0
    1.6490   62.0070   71.7340 C   0  0  0  0  0  0  0  0  0  0  0  0
    1.0030   62.8030   72.6100 C   0  0  0  0  0  0  0  0  0  0  0  0
    0.5140   64.1860   72.3430 C   0  0  0  0  0  0  0  0  0  0  0  0
    2.1050   60.7320   72.0790 N   0  0  0  0  0  0  0  0  0  0  0  0
    3.4280   60.2290   71.7640 C   0  0  0  0  0  0  0  0  0  0  0  0
    4.3460   60.7900   71.1830 O   0  0  0  0  0  0  0  0  0  0  0  0
    3.4910   58.9110   72.2200 N   0  0  0  0  0  0  0  0  0  0  0  0
    2.2840   58.5630   72.7950 C   0  0  0  0  0  0  0  0  0  0  0  0
    1.4200   59.6580   72.7270 C   0  0  0  0  0  0  0  0  0  0  0  0
    0.1600   59.5590   73.2870 C   0  0  0  0  0  0  0  0  0  0  0  0
   -0.2130   58.3400   73.8760 C   0  0  0  0  0  0  0  0  0  0  0  0
    0.6700   57.2480   73.9110 C   0  0  0  0  0  0  0  0  0  0  0  0
    1.9480   57.3540   73.3660 C   0  0  0  0  0  0  0  0  0  0  0  0
    0.3490   66.0420   70.6340 C   0  0  0  0  0  0  0  0  0  0  0  0
    1.4110   66.5920   69.6920 C   0  0  0  0  0  0  0  0  0  0  0  0
    0.7980   67.4510   68.5780 C   0  0  0  0  0  0  0  0  0  0  0  0
    1.7870   68.5080   68.1140 C   0  0  0  0  0  0  0  0  0  0  0  0
    2.3290   69.2630   68.9180 O   0  0  0  0  0  0  0  0  0  0  0  0
    3.1010   69.0060   62.6700 F   0  0  0  0  0  0  0  0  0  0  0  0
    2.7800   68.8850   63.9630 C   0  0  0  0  0  0  0  0  0  0  0  0
    1.5160   68.4230   64.3120 C   0  0  0  0  0  0  0  0  0  0  0  0
    1.1700   68.2920   65.6620 C   0  0  0  0  0  0  0  0  0  0  0  0
    2.1000   68.6260   66.6570 C   0  0  0  0  0  0  0  0  0  0  0  0
    3.3710   69.0910   66.2860 C   0  0  0  0  0  0  0  0  0  0  0  0
    3.7110   69.2190   64.9370 C   0  0  0  0  0  0  0  0  0  0  0  0
   -0.2179   64.0962   70.4184 H   0  0  0  0  0  0  0  0  0  0  0  0
    1.9107   64.3896   69.2204 H   0  0  0  0  0  0  0  0  0  0  0  0
    2.7117   64.5074   70.8274 H   0  0  0  0  0  0  0  0  0  0  0  0
    1.1936   62.1296   69.6558 H   0  0  0  0  0  0  0  0  0  0  0  0
    2.9615   62.2566   70.0959 H   0  0  0  0  0  0  0  0  0  0  0  0
    0.8198   62.3942   73.6146 H   0  0  0  0  0  0  0  0  0  0  0  0
   -0.5297   64.2593   72.6827 H   0  0  0  0  0  0  0  0  0  0  0  0
    1.1754   64.8768   72.8865 H   0  0  0  0  0  0  0  0  0  0  0  0
    4.3112   58.2931   72.1400 H   0  0  0  0  0  0  0  0  0  0  0  0
   -0.5328   60.4133   73.2716 H   0  0  0  0  0  0  0  0  0  0  0  0
   -1.2151   58.2383   74.3181 H   0  0  0  0  0  0  0  0  0  0  0  0
    0.3501   56.3020   74.3722 H   0  0  0  0  0  0  0  0  0  0  0  0
    2.6558   56.5123   73.3902 H   0  0  0  0  0  0  0  0  0  0  0  0
   -0.6438   66.1865   70.1830 H   0  0  0  0  0  0  0  0  0  0  0  0
    0.4138   66.5780   71.5924 H   0  0  0  0  0  0  0  0  0  0  0  0
    2.1145   67.2089   70.2705 H   0  0  0  0  0  0  0  0  0  0  0  0
    1.9244   65.7401   69.2223 H   0  0  0  0  0  0  0  0  0  0  0  0
    0.5330   66.8054   67.7277 H   0  0  0  0  0  0  0  0  0  0  0  0
   -0.1000   67.9518   68.9689 H   0  0  0  0  0  0  0  0  0  0  0  0
    0.7893   68.1610   63.5289 H   0  0  0  0  0  0  0  0  0  0  0  0
    0.1705   67.9278   65.9419 H   0  0  0  0  0  0  0  0  0  0  0  0
    4.1040   69.3563   67.0621 H   0  0  0  0  0  0  0  0  0  0  0  0
    4.7087   69.5816   64.6489 H   0  0  0  0  0  0  0  0  0  0  0  0
  2  1  1  0
  3  2  1  0
  4  3  1  0
  5  4  2  0
  6  5  1  0
  6  1  1  0
  7  4  1  0
  8  7  1  0
  9  8  2  0
 10  8  1  0
 11 10  1  0
 12 11  2  0
 12  7  1  0
 13 12  1  0
 14 13  2  0
 15 14  1  0
 16 15  2  0
 16 11  1  0
 17  1  1  0
 18 17  1  0
 19 18  1  0
 20 19  1  0
 21 20  2  0
 23 22  1  0
 24 23  2  0
 25 24  1  0
 26 25  2  0
 26 20  1  0
 27 26  1  0
 28 27  2  0
 28 23  1  0
  1 29  1  6
  2 30  1  0
  2 31  1  0
  3 32  1  0
  3 33  1  0
  5 34  1  0
  6 35  1  0
  6 36  1  0
 10 37  1  0
 13 38  1  0
 14 39  1  0
 15 40  1  0
 16 41  1  0
 17 42  1  0
 17 43  1  0
 18 44  1  0
 18 45  1  0
 19 46  1  0
 19 47  1  0
 24 48  1  0
 25 49  1  0
 27 50  1  0
 28 51  1  0
M  CHG  1   1   1
M  END
>  <score>  (8) 
-9.031

$$$$
=
     RDKit          3D

 51 54  0  0  0  0  0  0  0  0999 V2000
    3.4550   61.3320   71.6650 N   0  0  1  0  0  4  0  0  0  0  0  0
    4.1430   60.0100   71.4170 C   0  0  0  0  0  0  0  0  0  0  0  0
    3.3220   58.8710   72.0290 C   0  0  0  0  0  0  0  0  0  0  0  0
    2.9370   59.1160   73.4680 C   0  0  0  0  0  0  0  0  0  0  0  0
    2.9790   60.3810   73.9330 C   0  0  0  0  0  0  0  0  0  0  0  0
    3.3560   61.5910   73.1470 C   0  0  0  0  0  0  0  0  0  0  0  0
    2.6050   58.0320   74.2850 N   0  0  0  0  0  0  0  0  0  0  0  0
    3.3880   57.6050   75.4290 C   0  0  0  0  0  0  0  0  0  0  0  0
    4.4180   58.0860   75.8780 O   0  0  0  0  0  0  0  0  0  0  0  0
    2.7730   56.4670   75.9530 N   0  0  0  0  0  0  0  0  0  0  0  0
    1.6560   56.1580   75.2010 C   0  0  0  0  0  0  0  0  0  0  0  0
    1.5270   57.0990   74.1770 C   0  0  0  0  0  0  0  0  0  0  0  0
    0.4460   57.0200   73.3200 C   0  0  0  0  0  0  0  0  0  0  0  0
   -0.4660   55.9660   73.4930 C   0  0  0  0  0  0  0  0  0  0  0  0
   -0.2980   55.0200   74.5190 C   0  0  0  0  0  0  0  0  0  0  0  0
    0.7780   55.1130   75.3980 C   0  0  0  0  0  0  0  0  0  0  0  0
    4.1030   62.4610   70.8930 C   0  0  0  0  0  0  0  0  0  0  0  0
    3.0950   63.1240   69.9650 C   0  0  0  0  0  0  0  0  0  0  0  0
    2.3130   64.2390   70.6720 C   0  0  0  0  0  0  0  0  0  0  0  0
    0.8480   63.8570   70.8090 C   0  0  0  0  0  0  0  0  0  0  0  0
    0.0580   64.0410   69.8860 O   0  0  0  0  0  0  0  0  0  0  0  0
   -0.9100   61.7080   75.6980 F   0  0  0  0  0  0  0  0  0  0  0  0
   -0.4950   62.2110   74.5300 C   0  0  0  0  0  0  0  0  0  0  0  0
   -0.6430   61.4590   73.3710 C   0  0  0  0  0  0  0  0  0  0  0  0
   -0.2110   61.9770   72.1440 C   0  0  0  0  0  0  0  0  0  0  0  0
    0.3680   63.2520   72.0880 C   0  0  0  0  0  0  0  0  0  0  0  0
    0.5090   63.9980   73.2700 C   0  0  0  0  0  0  0  0  0  0  0  0
    0.0770   63.4760   74.4910 C   0  0  0  0  0  0  0  0  0  0  0  0
    2.4925   61.2817   71.3017 H   0  0  0  0  0  0  0  0  0  0  0  0
    4.2408   59.8475   70.3335 H   0  0  0  0  0  0  0  0  0  0  0  0
    5.1396   60.0280   71.8822 H   0  0  0  0  0  0  0  0  0  0  0  0
    2.4024   58.7474   71.4381 H   0  0  0  0  0  0  0  0  0  0  0  0
    3.9523   57.9697   72.0103 H   0  0  0  0  0  0  0  0  0  0  0  0
    2.7106   60.5345   74.9887 H   0  0  0  0  0  0  0  0  0  0  0  0
    2.5957   62.3679   73.3157 H   0  0  0  0  0  0  0  0  0  0  0  0
    4.3527   61.9052   73.4903 H   0  0  0  0  0  0  0  0  0  0  0  0
    3.1014   55.9388   76.7740 H   0  0  0  0  0  0  0  0  0  0  0  0
    0.3033   57.7639   72.5223 H   0  0  0  0  0  0  0  0  0  0  0  0
   -1.3268   55.8793   72.8137 H   0  0  0  0  0  0  0  0  0  0  0  0
   -1.0224   54.1995   74.6284 H   0  0  0  0  0  0  0  0  0  0  0  0
    0.9210   54.3867   76.2117 H   0  0  0  0  0  0  0  0  0  0  0  0
    4.4882   63.2089   71.6017 H   0  0  0  0  0  0  0  0  0  0  0  0
    4.9250   62.0506   70.2881 H   0  0  0  0  0  0  0  0  0  0  0  0
    3.6316   63.5551   69.1069 H   0  0  0  0  0  0  0  0  0  0  0  0
    2.3763   62.3576   69.6391 H   0  0  0  0  0  0  0  0  0  0  0  0
    2.7397   64.4020   71.6727 H   0  0  0  0  0  0  0  0  0  0  0  0
    2.3864   65.1594   70.0740 H   0  0  0  0  0  0  0  0  0  0  0  0
   -1.0986   60.4589   73.4173 H   0  0  0  0  0  0  0  0  0  0  0  0
   -0.3260   61.3837   71.2249 H   0  0  0  0  0  0  0  0  0  0  0  0
    0.9625   64.9995   73.2335 H   0  0  0  0  0  0  0  0  0  0  0  0
    0.1889   64.0623   75.4150 H   0  0  0  0  0  0  0  0  0  0  0  0
  2  1  1  0
  3  2  1  0
  4  3  1  0
  5  4  2  0
  6  5  1  0
  6  1  1  0
  7  4  1  0
  8  7  1  0
  9  8  2  0
 10  8  1  0
 11 10  1  0
 12 11  2  0
 12  7  1  0
 13 12  1  0
 14 13  2  0
 15 14  1  0
 16 15  2  0
 16 11  1  0
 17  1  1  0
 18 17  1  0
 19 18  1  0
 20 19  1  0
 21 20  2  0
 23 22  1  0
 24 23  2  0
 25 24  1  0
 26 25  2  0
 26 20  1  0
 27 26  1  0
 28 27  2  0
 28 23  1  0
  1 29  1  6
  2 30  1  0
  2 31  1  0
  3 32  1  0
  3 33  1  0
  5 34  1  0
  6 35  1  0
  6 36  1  0
 10 37  1  0
 13 38  1  0
 14 39  1  0
 15 40  1  0
 16 41  1  0
 17 42  1  0
 17 43  1  0
 18 44  1  0
 18 45  1  0
 19 46  1  0
 19 47  1  0
 24 48  1  0
 25 49  1  0
 27 50  1  0
 28 51  1  0
M  CHG  1   1   1
M  END
>  <score>  (9) 
-8.484

$$$$
