=
     RDKit          3D

 47 49  0  0  0  0  0  0  0  0999 V2000
    2.8490   68.7330   65.7350 N   0  0  0  0  0  0  0  0  0  0  0  0
    3.5880   69.4230   66.7320 C   0  0  0  0  0  0  0  0  0  0  0  0
    2.9930   69.8380   67.9380 C   0  0  0  0  0  0  0  0  0  0  0  0
    3.7280   70.5090   68.9190 C   0  0  0  0  0  0  0  0  0  0  0  0
    5.0740   70.7880   68.7140 C   0  0  0  0  0  0  0  0  0  0  0  0
    5.6830   70.4050   67.5230 C   0  0  0  0  0  0  0  0  0  0  0  0
    4.9500   69.7370   66.5320 C   0  0  0  0  0  0  0  0  0  0  0  0
    5.8250   69.2220   65.0650 S   0  0  0  0  0  0  0  0  0  0  0  0
    4.4750   69.0400   63.9130 C   0  0  0  0  0  0  0  0  0  0  0  0
    3.1560   68.7910   64.3500 C   0  0  0  0  0  0  0  0  0  0  0  0
    2.1620   68.6480   63.3660 C   0  0  0  0  0  0  0  0  0  0  0  0
    2.4710   68.7010   62.0020 C   0  0  0  0  0  0  0  0  0  0  0  0
    3.7810   68.9120   61.5920 C   0  0  0  0  0  0  0  0  0  0  0  0
    4.7810   69.0850   62.5450 C   0  0  0  0  0  0  0  0  0  0  0  0
    1.8110   67.7720   66.1840 C   0  0  0  0  0  0  0  0  0  0  0  0
    0.5130   68.5140   66.6420 C   0  0  1  0  0  0  0  0  0  0  0  0
   -0.4450   68.7170   65.4700 C   0  0  0  0  0  0  0  0  0  0  0  0
   -0.1500   67.7510   67.8150 N   0  0  0  0  0  4  0  0  0  0  0  0
    0.1120   66.2570   69.8130 C   0  0  0  0  0  0  0  0  0  0  0  0
    0.7950   67.2350   68.8740 C   0  0  0  0  0  0  0  0  0  0  0  0
   -1.2750   66.8280   67.3950 C   0  0  0  0  0  0  0  0  0  0  0  0
   -2.6490   67.4380   67.5810 C   0  0  0  0  0  0  0  0  0  0  0  0
    1.9270   69.6298   68.1121 H   0  0  0  0  0  0  0  0  0  0  0  0
    3.2401   70.8170   69.8555 H   0  0  0  0  0  0  0  0  0  0  0  0
    5.6549   71.3089   69.4893 H   0  0  0  0  0  0  0  0  0  0  0  0
    6.7474   70.6280   67.3578 H   0  0  0  0  0  0  0  0  0  0  0  0
    1.1181   68.4909   63.6751 H   0  0  0  0  0  0  0  0  0  0  0  0
    1.6749   68.5753   61.2534 H   0  0  0  0  0  0  0  0  0  0  0  0
    4.0271   68.9423   60.5203 H   0  0  0  0  0  0  0  0  0  0  0  0
    5.8184   69.2582   62.2228 H   0  0  0  0  0  0  0  0  0  0  0  0
    1.5634   67.0966   65.3518 H   0  0  0  0  0  0  0  0  0  0  0  0
    2.2080   67.2051   67.0390 H   0  0  0  0  0  0  0  0  0  0  0  0
    0.7837   69.5162   67.0057 H   0  0  0  0  0  0  0  0  0  0  0  0
   -1.4536   68.9307   65.8536 H   0  0  0  0  0  0  0  0  0  0  0  0
   -0.0995   69.5619   64.8561 H   0  0  0  0  0  0  0  0  0  0  0  0
   -0.4719   67.8046   64.8561 H   0  0  0  0  0  0  0  0  0  0  0  0
   -0.6456   68.4810   68.3464 H   0  0  0  0  0  0  0  0  0  0  0  0
    0.3143   66.5467   70.8547 H   0  0  0  0  0  0  0  0  0  0  0  0
   -0.9730   66.2721   69.6323 H   0  0  0  0  0  0  0  0  0  0  0  0
    0.4998   65.2436   69.6323 H   0  0  0  0  0  0  0  0  0  0  0  0
    1.1721   68.0863   69.4597 H   0  0  0  0  0  0  0  0  0  0  0  0
    1.6171   66.7062   68.3695 H   0  0  0  0  0  0  0  0  0  0  0  0
   -1.1442   66.5790   66.3316 H   0  0  0  0  0  0  0  0  0  0  0  0
   -1.2235   65.9368   68.0377 H   0  0  0  0  0  0  0  0  0  0  0  0
   -2.8652   67.5340   68.6553 H   0  0  0  0  0  0  0  0  0  0  0  0
   -2.6753   68.4324   67.1114 H   0  0  0  0  0  0  0  0  0  0  0  0
   -3.4042   66.7906   67.1114 H   0  0  0  0  0  0  0  0  0  0  0  0
  2  1  1  0
  3  2  1  0
  4  3  2  0
  5  4  1  0
  6  5  2  0
  7  2  2  0
  7  6  1  0
  8  7  1  0
  9  8  1  0
 10  9  2  0
 10  1  1  0
 11 10  1  0
 12 11  2  0
 13 12  1  0
 14 13  2  0
 14  9  1  0
 15  1  1  0
 16 15  1  0
 17 16  1  0
 18 16  1  0
 20 19  1  0
 20 18  1  0
 21 18  1  0
 22 21  1  0
  3 23  1  0
  4 24  1  0
  5 25  1  0
  6 26  1  0
 11 27  1  0
 12 28  1  0
 13 29  1  0
 14 30  1  0
 15 31  1  0
 15 32  1  0
 16 33  1  1
 17 34  1  0
 17 35  1  0
 17 36  1  0
 18 37  1  0
 19 38  1  0
 19 39  1  0
 19 40  1  0
 20 41  1  0
 20 42  1  0
 21 43  1  0
 21 44  1  0
 22 45  1  0
 22 46  1  0
 22 47  1  0
M  CHG  1  18   1
M  END
>  <score>  (1) 
-9.641

$$$$
=
     RDKit          3D

 47 49  0  0  0  0  0  0  0  0999 V2000
    3.4560   69.0080   66.0450 N   0  0  0  0  0  0  0  0  0  0  0  0
    2.0440   68.9700   66.1900 C   0  0  0  0  0  0  0  0  0  0  0  0
    1.1940   68.7630   65.0890 C   0  0  0  0  0  0  0  0  0  0  0  0
   -0.1960   68.7190   65.2390 C   0  0  0  0  0  0  0  0  0  0  0  0
   -0.7670   68.8890   66.4930 C   0  0  0  0  0  0  0  0  0  0  0  0
    0.0490   69.1130   67.5980 C   0  0  0  0  0  0  0  0  0  0  0  0
    1.4430   69.1650   67.4530 C   0  0  0  0  0  0  0  0  0  0  0  0
    2.4180   69.3890   68.9300 S   0  0  0  0  0  0  0  0  0  0  0  0
    3.9400   70.0130   68.2390 C   0  0  0  0  0  0  0  0  0  0  0  0
    4.3130   69.7440   66.9040 C   0  0  0  0  0  0  0  0  0  0  0  0
    5.5390   70.2670   66.4550 C   0  0  0  0  0  0  0  0  0  0  0  0
    6.3820   70.9880   67.3070 C   0  0  0  0  0  0  0  0  0  0  0  0
    6.0120   71.2120   68.6270 C   0  0  0  0  0  0  0  0  0  0  0  0
    4.7920   70.7300   69.0920 C   0  0  0  0  0  0  0  0  0  0  0  0
    4.0730   68.0960   65.0500 C   0  0  0  0  0  0  0  0  0  0  0  0
    4.1570   68.7690   63.6410 C   0  0  1  0  0  0  0  0  0  0  0  0
    5.5740   69.2600   63.3510 C   0  0  0  0  0  0  0  0  0  0  0  0
    3.6410   67.7940   62.5550 N   0  0  0  0  0  4  0  0  0  0  0  0
    4.2740   65.4760   63.2730 C   0  0  0  0  0  0  0  0  0  0  0  0
    4.5210   66.5980   62.2810 C   0  0  0  0  0  0  0  0  0  0  0  0
    3.0260   68.4780   61.3510 C   0  0  0  0  0  0  0  0  0  0  0  0
    1.6850   69.1160   61.6480 C   0  0  0  0  0  0  0  0  0  0  0  0
    1.6317   68.6329   64.0882 H   0  0  0  0  0  0  0  0  0  0  0  0
   -0.8378   68.5494   64.3619 H   0  0  0  0  0  0  0  0  0  0  0  0
   -1.8597   68.8468   66.6127 H   0  0  0  0  0  0  0  0  0  0  0  0
   -0.4024   69.2502   68.5917 H   0  0  0  0  0  0  0  0  0  0  0  0
    5.8418   70.1053   65.4099 H   0  0  0  0  0  0  0  0  0  0  0  0
    7.3393   71.3782   66.9312 H   0  0  0  0  0  0  0  0  0  0  0  0
    6.6800   71.7677   69.3015 H   0  0  0  0  0  0  0  0  0  0  0  0
    4.4940   70.9125   70.1350 H   0  0  0  0  0  0  0  0  0  0  0  0
    5.0880   67.8348   65.3838 H   0  0  0  0  0  0  0  0  0  0  0  0
    3.4473   67.1950   64.9687 H   0  0  0  0  0  0  0  0  0  0  0  0
    3.5074   69.6566   63.6294 H   0  0  0  0  0  0  0  0  0  0  0  0
    6.1002   69.4423   64.2996 H   0  0  0  0  0  0  0  0  0  0  0  0
    6.1152   68.4970   62.7723 H   0  0  0  0  0  0  0  0  0  0  0  0
    5.5271   70.1943   62.7723 H   0  0  0  0  0  0  0  0  0  0  0  0
    2.8294   67.3340   62.9917 H   0  0  0  0  0  0  0  0  0  0  0  0
    4.3601   65.8669   64.2976 H   0  0  0  0  0  0  0  0  0  0  0  0
    3.2643   65.0671   63.1202 H   0  0  0  0  0  0  0  0  0  0  0  0
    5.0186   64.6809   63.1202 H   0  0  0  0  0  0  0  0  0  0  0  0
    5.5742   66.9080   62.3494 H   0  0  0  0  0  0  0  0  0  0  0  0
    4.2833   66.2226   61.2747 H   0  0  0  0  0  0  0  0  0  0  0  0
    3.7162   69.2607   61.0031 H   0  0  0  0  0  0  0  0  0  0  0  0
    2.8583   67.7054   60.5862 H   0  0  0  0  0  0  0  0  0  0  0  0
    1.5440   69.1831   62.7369 H   0  0  0  0  0  0  0  0  0  0  0  0
    1.6544   70.1252   61.2114 H   0  0  0  0  0  0  0  0  0  0  0  0
    0.8826   68.5031   61.2114 H   0  0  0  0  0  0  0  0  0  0  0  0
  2  1  1  0
  3  2  1  0
  4  3  2  0
  5  4  1  0
  6  5  2  0
  7  2  2  0
  7  6  1  0
  8  7  1  0
  9  8  1  0
 10  9  2  0
 10  1  1  0
 11 10  1  0
 12 11  2  0
 13 12  1  0
 14 13  2  0
 14  9  1  0
 15  1  1  0
 16 15  1  0
 17 16  1  0
 18 16  1  0
 20 19  1  0
 20 18  1  0
 21 18  1  0
 22 21  1  0
  3 23  1  0
  4 24  1  0
  5 25  1  0
  6 26  1  0
 11 27  1  0
 12 28  1  0
 13 29  1  0
 14 30  1  0
 15 31  1  0
 15 32  1  0
 16 33  1  1
 17 34  1  0
 17 35  1  0
 17 36  1  0
 18 37  1  0
 19 38  1  0
 19 39  1  0
 19 40  1  0
 20 41  1  0
 20 42  1  0
 21 43  1  0
 21 44  1  0
 22 45  1  0
 22 46  1  0
 22 47  1  0
M  CHG  1  18   1
M  END
>  <score>  (2) 
-9.025

$$$$
=
     RDKit          3D

 47 49  0  0  0  0  0  0  0  0999 V2000
    2.1210   67.1330   64.7940 N   0  0  0  0  0  0  0  0  0  0  0  0
    1.5650   67.9790   63.7990 C   0  0  0  0  0  0  0  0  0  0  0  0
    0.3120   68.5970   63.9700 C   0  0  0  0  0  0  0  0  0  0  0  0
   -0.2270   69.4360   62.9910 C   0  0  0  0  0  0  0  0  0  0  0  0
    0.4720   69.6710   61.8130 C   0  0  0  0  0  0  0  0  0  0  0  0
    1.7050   69.0600   61.6100 C   0  0  0  0  0  0  0  0  0  0  0  0
    2.2480   68.2120   62.5850 C   0  0  0  0  0  0  0  0  0  0  0  0
    3.8640   67.5240   62.2730 S   0  0  0  0  0  0  0  0  0  0  0  0
    3.8480   66.1140   63.3670 C   0  0  0  0  0  0  0  0  0  0  0  0
    3.0170   66.0700   64.5080 C   0  0  0  0  0  0  0  0  0  0  0  0
    3.0860   64.9220   65.3170 C   0  0  0  0  0  0  0  0  0  0  0  0
    3.9750   63.8800   65.0330 C   0  0  0  0  0  0  0  0  0  0  0  0
    4.8080   63.9580   63.9240 C   0  0  0  0  0  0  0  0  0  0  0  0
    4.7430   65.0700   63.0900 C   0  0  0  0  0  0  0  0  0  0  0  0
    1.8830   67.4880   66.2160 C   0  0  0  0  0  0  0  0  0  0  0  0
    2.1310   69.0110   66.4670 C   0  0  1  0  0  0  0  0  0  0  0  0
    1.2370   69.5340   67.5900 C   0  0  0  0  0  0  0  0  0  0  0  0
    3.6320   69.2670   66.7480 N   0  0  0  0  0  4  0  0  0  0  0  0
    5.2650   70.7000   68.0020 C   0  0  0  0  0  0  0  0  0  0  0  0
    3.9430   69.9560   68.0550 C   0  0  0  0  0  0  0  0  0  0  0  0
    4.4200   69.7160   65.5360 C   0  0  0  0  0  0  0  0  0  0  0  0
    5.5430   68.7680   65.1690 C   0  0  0  0  0  0  0  0  0  0  0  0
   -0.2555   68.4155   64.8947 H   0  0  0  0  0  0  0  0  0  0  0  0
   -1.2058   69.9110   63.1530 H   0  0  0  0  0  0  0  0  0  0  0  0
    0.0522   70.3370   61.0448 H   0  0  0  0  0  0  0  0  0  0  0  0
    2.2582   69.2437   60.6771 H   0  0  0  0  0  0  0  0  0  0  0  0
    2.4258   64.8415   66.1932 H   0  0  0  0  0  0  0  0  0  0  0  0
    4.0145   62.9977   65.6887 H   0  0  0  0  0  0  0  0  0  0  0  0
    5.5157   63.1445   63.7062 H   0  0  0  0  0  0  0  0  0  0  0  0
    5.3975   65.1307   62.2080 H   0  0  0  0  0  0  0  0  0  0  0  0
    0.8422   67.2461   66.4770 H   0  0  0  0  0  0  0  0  0  0  0  0
    2.5828   66.9133   66.8406 H   0  0  0  0  0  0  0  0  0  0  0  0
    1.8603   69.5709   65.5597 H   0  0  0  0  0  0  0  0  0  0  0  0
    1.6805   69.2746   68.5626 H   0  0  0  0  0  0  0  0  0  0  0  0
    1.1469   70.6272   67.5080 H   0  0  0  0  0  0  0  0  0  0  0  0
    0.2399   69.0768   67.5080 H   0  0  0  0  0  0  0  0  0  0  0  0
    4.0190   68.3307   66.9336 H   0  0  0  0  0  0  0  0  0  0  0  0
    5.6159   70.8975   69.0257 H   0  0  0  0  0  0  0  0  0  0  0  0
    6.0091   70.0881   67.4710 H   0  0  0  0  0  0  0  0  0  0  0  0
    5.1281   71.6535   67.4710 H   0  0  0  0  0  0  0  0  0  0  0  0
    3.9920   69.2001   68.8526 H   0  0  0  0  0  0  0  0  0  0  0  0
    3.1469   70.6891   68.2518 H   0  0  0  0  0  0  0  0  0  0  0  0
    3.7326   69.7914   64.6805 H   0  0  0  0  0  0  0  0  0  0  0  0
    4.8783   70.6845   65.7848 H   0  0  0  0  0  0  0  0  0  0  0  0
    6.0068   68.3764   66.0864 H   0  0  0  0  0  0  0  0  0  0  0  0
    5.1395   67.9333   64.5771 H   0  0  0  0  0  0  0  0  0  0  0  0
    6.2982   69.3059   64.5771 H   0  0  0  0  0  0  0  0  0  0  0  0
  2  1  1  0
  3  2  1  0
  4  3  2  0
  5  4  1  0
  6  5  2  0
  7  2  2  0
  7  6  1  0
  8  7  1  0
  9  8  1  0
 10  9  2  0
 10  1  1  0
 11 10  1  0
 12 11  2  0
 13 12  1  0
 14 13  2  0
 14  9  1  0
 15  1  1  0
 16 15  1  0
 17 16  1  0
 18 16  1  0
 20 19  1  0
 20 18  1  0
 21 18  1  0
 22 21  1  0
  3 23  1  0
  4 24  1  0
  5 25  1  0
  6 26  1  0
 11 27  1  0
 12 28  1  0
 13 29  1  0
 14 30  1  0
 15 31  1  0
 15 32  1  0
 16 33  1  6
 17 34  1  0
 17 35  1  0
 17 36  1  0
 18 37  1  0
 19 38  1  0
 19 39  1  0
 19 40  1  0
 20 41  1  0
 20 42  1  0
 21 43  1  0
 21 44  1  0
 22 45  1  0
 22 46  1  0
 22 47  1  0
M  CHG  1  18   1
M  END
>  <score>  (3) 
-8.911

$$$$
=
     RDKit          3D

 47 49  0  0  0  0  0  0  0  0999 V2000
    3.2320   68.8210   66.2290 N   0  0  0  0  0  0  0  0  0  0  0  0
    3.5260   67.8840   65.2040 C   0  0  0  0  0  0  0  0  0  0  0  0
    2.7580   66.7190   65.0260 C   0  0  0  0  0  0  0  0  0  0  0  0
    3.0480   65.8030   64.0100 C   0  0  0  0  0  0  0  0  0  0  0  0
    4.1170   66.0290   63.1520 C   0  0  0  0  0  0  0  0  0  0  0  0
    4.9040   67.1650   63.3160 C   0  0  0  0  0  0  0  0  0  0  0  0
    4.6230   68.0830   64.3370 C   0  0  0  0  0  0  0  0  0  0  0  0
    5.6400   69.5450   64.4340 S   0  0  0  0  0  0  0  0  0  0  0  0
    5.3720   70.0310   66.1300 C   0  0  0  0  0  0  0  0  0  0  0  0
    4.2090   69.6530   66.8350 C   0  0  0  0  0  0  0  0  0  0  0  0
    4.0820   70.0970   68.1630 C   0  0  0  0  0  0  0  0  0  0  0  0
    5.0450   70.9210   68.7540 C   0  0  0  0  0  0  0  0  0  0  0  0
    6.1660   71.3110   68.0320 C   0  0  0  0  0  0  0  0  0  0  0  0
    6.3320   70.8640   66.7240 C   0  0  0  0  0  0  0  0  0  0  0  0
    1.8040   69.0590   66.5600 C   0  0  0  0  0  0  0  0  0  0  0  0
    1.1260   67.7580   67.1030 C   0  0  1  0  0  0  0  0  0  0  0  0
    1.1620   67.7180   68.6300 C   0  0  0  0  0  0  0  0  0  0  0  0
   -0.3140   67.6380   66.5490 N   0  0  0  0  0  4  0  0  0  0  0  0
   -0.7010   68.7620   64.3400 C   0  0  0  0  0  0  0  0  0  0  0  0
   -0.8470   68.8650   65.8470 C   0  0  0  0  0  0  0  0  0  0  0  0
   -1.2720   66.9080   67.4660 C   0  0  0  0  0  0  0  0  0  0  0  0
   -2.7000   67.4010   67.3540 C   0  0  0  0  0  0  0  0  0  0  0  0
    1.9111   66.5244   65.7005 H   0  0  0  0  0  0  0  0  0  0  0  0
    2.4286   64.9019   63.8899 H   0  0  0  0  0  0  0  0  0  0  0  0
    4.3403   65.3135   62.3469 H   0  0  0  0  0  0  0  0  0  0  0  0
    5.7527   67.3437   62.6394 H   0  0  0  0  0  0  0  0  0  0  0  0
    3.2047   69.7890   68.7508 H   0  0  0  0  0  0  0  0  0  0  0  0
    4.9147   71.2608   69.7920 H   0  0  0  0  0  0  0  0  0  0  0  0
    6.9182   71.9693   68.4912 H   0  0  0  0  0  0  0  0  0  0  0  0
    7.2219   71.1660   66.1523 H   0  0  0  0  0  0  0  0  0  0  0  0
    1.7394   69.8446   67.3273 H   0  0  0  0  0  0  0  0  0  0  0  0
    1.2804   69.3688   65.6435 H   0  0  0  0  0  0  0  0  0  0  0  0
    1.6941   66.8847   66.7500 H   0  0  0  0  0  0  0  0  0  0  0  0
    0.4773   68.4788   69.0330 H   0  0  0  0  0  0  0  0  0  0  0  0
    0.8497   66.7224   68.9782 H   0  0  0  0  0  0  0  0  0  0  0  0
    2.1849   67.9240   68.9782 H   0  0  0  0  0  0  0  0  0  0  0  0
   -0.2262   66.9890   65.7541 H   0  0  0  0  0  0  0  0  0  0  0  0
    0.1758   68.1434   64.0980 H   0  0  0  0  0  0  0  0  0  0  0  0
   -1.6042   68.3001   63.9148 H   0  0  0  0  0  0  0  0  0  0  0  0
   -0.5687   69.7679   63.9148 H   0  0  0  0  0  0  0  0  0  0  0  0
   -0.2905   69.7462   66.1990 H   0  0  0  0  0  0  0  0  0  0  0  0
   -1.9182   68.9536   66.0808 H   0  0  0  0  0  0  0  0  0  0  0  0
   -1.2510   65.8378   67.2126 H   0  0  0  0  0  0  0  0  0  0  0  0
   -0.9421   67.0955   68.4985 H   0  0  0  0  0  0  0  0  0  0  0  0
   -3.1181   67.5454   68.3611 H   0  0  0  0  0  0  0  0  0  0  0  0
   -2.7163   68.3568   66.8098 H   0  0  0  0  0  0  0  0  0  0  0  0
   -3.3025   66.6588   66.8098 H   0  0  0  0  0  0  0  0  0  0  0  0
  2  1  1  0
  3  2  1  0
  4  3  2  0
  5  4  1  0
  6  5  2  0
  7  2  2  0
  7  6  1  0
  8  7  1  0
  9  8  1  0
 10  9  2  0
 10  1  1  0
 11 10  1  0
 12 11  2  0
 13 12  1  0
 14 13  2  0
 14  9  1  0
 15  1  1  0
 16 15  1  0
 17 16  1  0
 18 16  1  0
 20 19  1  0
 20 18  1  0
 21 18  1  0
 22 21  1  0
  3 23  1  0
  4 24  1  0
  5 25  1  0
  6 26  1  0
 11 27  1  0
 12 28  1  0
 13 29  1  0
 14 30  1  0
 15 31  1  0
 15 32  1  0
 16 33  1  6
 17 34  1  0
 17 35  1  0
 17 36  1  0
 18 37  1  0
 19 38  1  0
 19 39  1  0
 19 40  1  0
 20 41  1  0
 20 42  1  0
 21 43  1  0
 21 44  1  0
 22 45  1  0
 22 46  1  0
 22 47  1  0
M  CHG  1  18   1
M  END
>  <score>  (4) 
-8.796

$$$$
=
     RDKit          3D

 47 49  0  0  0  0  0  0  0  0999 V2000
    2.0070   67.1560   64.4850 N   0  0  0  0  0  0  0  0  0  0  0  0
    1.6340   68.0170   63.4190 C   0  0  0  0  0  0  0  0  0  0  0  0
    0.3740   68.6430   63.3820 C   0  0  0  0  0  0  0  0  0  0  0  0
    0.0150   69.4960   62.3340 C   0  0  0  0  0  0  0  0  0  0  0  0
    0.9050   69.7360   61.2940 C   0  0  0  0  0  0  0  0  0  0  0  0
    2.1500   69.1160   61.2960 C   0  0  0  0  0  0  0  0  0  0  0  0
    2.5140   68.2550   62.3410 C   0  0  0  0  0  0  0  0  0  0  0  0
    4.1550   67.5550   62.2990 S   0  0  0  0  0  0  0  0  0  0  0  0
    3.9440   66.1360   63.3600 C   0  0  0  0  0  0  0  0  0  0  0  0
    2.9320   66.0890   64.3440 C   0  0  0  0  0  0  0  0  0  0  0  0
    2.8540   64.9330   65.1400 C   0  0  0  0  0  0  0  0  0  0  0  0
    3.7710   63.8860   65.0010 C   0  0  0  0  0  0  0  0  0  0  0  0
    4.7810   63.9660   64.0500 C   0  0  0  0  0  0  0  0  0  0  0  0
    4.8650   65.0870   63.2280 C   0  0  0  0  0  0  0  0  0  0  0  0
    1.5340   67.5000   65.8490 C   0  0  0  0  0  0  0  0  0  0  0  0
    2.6650   68.1880   66.6830 C   0  0  1  0  0  0  0  0  0  0  0  0
    3.2830   69.3530   65.9130 C   0  0  0  0  0  0  0  0  0  0  0  0
    2.1170   68.6230   68.0640 N   0  0  0  0  0  4  0  0  0  0  0  0
    1.1080   66.8490   69.5230 C   0  0  0  0  0  0  0  0  0  0  0  0
    0.8420   67.9420   68.5040 C   0  0  0  0  0  0  0  0  0  0  0  0
    2.2230   70.1100   68.3310 C   0  0  0  0  0  0  0  0  0  0  0  0
    3.4200   70.4790   69.1820 C   0  0  0  0  0  0  0  0  0  0  0  0
   -0.3435   68.4572   64.1948 H   0  0  0  0  0  0  0  0  0  0  0  0
   -0.9738   69.9780   62.3327 H   0  0  0  0  0  0  0  0  0  0  0  0
    0.6261   70.4131   60.4732 H   0  0  0  0  0  0  0  0  0  0  0  0
    2.8542   69.3025   60.4718 H   0  0  0  0  0  0  0  0  0  0  0  0
    2.0532   64.8499   65.8896 H   0  0  0  0  0  0  0  0  0  0  0  0
    3.6925   62.9980   65.6454 H   0  0  0  0  0  0  0  0  0  0  0  0
    5.5099   63.1486   63.9471 H   0  0  0  0  0  0  0  0  0  0  0  0
    5.6595   65.1500   62.4698 H   0  0  0  0  0  0  0  0  0  0  0  0
    0.6784   68.1867   65.7696 H   0  0  0  0  0  0  0  0  0  0  0  0
    1.2398   66.5715   66.3602 H   0  0  0  0  0  0  0  0  0  0  0  0
    3.4727   67.4620   66.8575 H   0  0  0  0  0  0  0  0  0  0  0  0
    3.6764   70.0947   66.6237 H   0  0  0  0  0  0  0  0  0  0  0  0
    4.1023   68.9809   65.2803 H   0  0  0  0  0  0  0  0  0  0  0  0
    2.5154   69.8226   65.2803 H   0  0  0  0  0  0  0  0  0  0  0  0
    2.7850   68.2250   68.7395 H   0  0  0  0  0  0  0  0  0  0  0  0
    1.0076   67.2615   70.5378 H   0  0  0  0  0  0  0  0  0  0  0  0
    0.3819   66.0343   69.3849 H   0  0  0  0  0  0  0  0  0  0  0  0
    2.1273   66.4591   69.3849 H   0  0  0  0  0  0  0  0  0  0  0  0
    0.3543   67.4971   67.6241 H   0  0  0  0  0  0  0  0  0  0  0  0
    0.1962   68.6978   68.9748 H   0  0  0  0  0  0  0  0  0  0  0  0
    2.3046   70.6334   67.3670 H   0  0  0  0  0  0  0  0  0  0  0  0
    1.3219   70.4074   68.8874 H   0  0  0  0  0  0  0  0  0  0  0  0
    3.1529   70.3967   70.2459 H   0  0  0  0  0  0  0  0  0  0  0  0
    4.2529   69.7959   68.9591 H   0  0  0  0  0  0  0  0  0  0  0  0
    3.7237   71.5125   68.9591 H   0  0  0  0  0  0  0  0  0  0  0  0
  2  1  1  0
  3  2  1  0
  4  3  2  0
  5  4  1  0
  6  5  2  0
  7  2  2  0
  7  6  1  0
  8  7  1  0
  9  8  1  0
 10  9  2  0
 10  1  1  0
 11 10  1  0
 12 11  2  0
 13 12  1  0
 14 13  2  0
 14  9  1  0
 15  1  1  0
 16 15  1  0
 17 16  1  0
 18 16  1  0
 20 19  1  0
 20 18  1  0
 21 18  1  0
 22 21  1  0
  3 23  1  0
  4 24  1  0
  5 25  1  0
  6 26  1  0
 11 27  1  0
 12 28  1  0
 13 29  1  0
 14 30  1  0
 15 31  1  0
 15 32  1  0
 16 33  1  1
 17 34  1  0
 17 35  1  0
 17 36  1  0
 18 37  1  0
 19 38  1  0
 19 39  1  0
 19 40  1  0
 20 41  1  0
 20 42  1  0
 21 43  1  0
 21 44  1  0
 22 45  1  0
 22 46  1  0
 22 47  1  0
M  CHG  1  18   1
M  END
>  <score>  (5) 
-8.546

$$$$
=
     RDKit          3D

 47 49  0  0  0  0  0  0  0  0999 V2000
    2.6610   68.7740   65.4270 N   0  0  0  0  0  0  0  0  0  0  0  0
    1.2760   68.8690   65.7250 C   0  0  0  0  0  0  0  0  0  0  0  0
    0.2960   68.7890   64.7190 C   0  0  0  0  0  0  0  0  0  0  0  0
   -1.0670   68.8760   65.0190 C   0  0  0  0  0  0  0  0  0  0  0  0
   -1.4810   69.0520   66.3340 C   0  0  0  0  0  0  0  0  0  0  0  0
   -0.5320   69.1520   67.3470 C   0  0  0  0  0  0  0  0  0  0  0  0
    0.8350   69.0720   67.0520 C   0  0  0  0  0  0  0  0  0  0  0  0
    1.9800   69.1420   68.4180 S   0  0  0  0  0  0  0  0  0  0  0  0
    3.4750   69.6400   67.5810 C   0  0  0  0  0  0  0  0  0  0  0  0
    3.6750   69.3880   66.2070 C   0  0  0  0  0  0  0  0  0  0  0  0
    4.8920   69.8050   65.6400 C   0  0  0  0  0  0  0  0  0  0  0  0
    5.8910   70.4050   66.4140 C   0  0  0  0  0  0  0  0  0  0  0  0
    5.6890   70.6140   67.7730 C   0  0  0  0  0  0  0  0  0  0  0  0
    4.4820   70.2350   68.3550 C   0  0  0  0  0  0  0  0  0  0  0  0
    3.0720   67.8450   64.3440 C   0  0  0  0  0  0  0  0  0  0  0  0
    3.1640   66.3730   64.8660 C   0  0  1  0  0  0  0  0  0  0  0  0
    1.8240   65.6550   64.7200 C   0  0  0  0  0  0  0  0  0  0  0  0
    4.3110   65.6240   64.1460 N   0  0  0  0  0  4  0  0  0  0  0  0
    5.1600   67.1870   62.3770 C   0  0  0  0  0  0  0  0  0  0  0  0
    4.4310   65.8870   62.6630 C   0  0  0  0  0  0  0  0  0  0  0  0
    4.4980   64.1920   64.6020 C   0  0  0  0  0  0  0  0  0  0  0  0
    5.1280   63.3070   63.5460 C   0  0  0  0  0  0  0  0  0  0  0  0
    0.6089   68.6550   63.6730 H   0  0  0  0  0  0  0  0  0  0  0  0
   -1.8124   68.8051   64.2132 H   0  0  0  0  0  0  0  0  0  0  0  0
   -2.5531   69.1119   66.5728 H   0  0  0  0  0  0  0  0  0  0  0  0
   -0.8580   69.2950   68.3878 H   0  0  0  0  0  0  0  0  0  0  0  0
    5.0625   69.6561   64.5635 H   0  0  0  0  0  0  0  0  0  0  0  0
    6.8380   70.7119   65.9461 H   0  0  0  0  0  0  0  0  0  0  0  0
    6.4776   71.0759   68.3851 H   0  0  0  0  0  0  0  0  0  0  0  0
    4.3172   70.4035   69.4295 H   0  0  0  0  0  0  0  0  0  0  0  0
    2.3324   67.8919   63.5311 H   0  0  0  0  0  0  0  0  0  0  0  0
    4.0654   68.1491   63.9825 H   0  0  0  0  0  0  0  0  0  0  0  0
    3.3983   66.3889   65.9406 H   0  0  0  0  0  0  0  0  0  0  0  0
    1.4149   65.4358   65.7173 H   0  0  0  0  0  0  0  0  0  0  0  0
    1.1218   66.2977   64.1688 H   0  0  0  0  0  0  0  0  0  0  0  0
    1.9702   64.7144   64.1688 H   0  0  0  0  0  0  0  0  0  0  0  0
    5.1678   66.0817   64.4885 H   0  0  0  0  0  0  0  0  0  0  0  0
    5.4317   67.6715   63.3264 H   0  0  0  0  0  0  0  0  0  0  0  0
    6.0717   66.9766   61.7986 H   0  0  0  0  0  0  0  0  0  0  0  0
    4.5050   67.8551   61.7986 H   0  0  0  0  0  0  0  0  0  0  0  0
    3.4219   65.9419   62.2286 H   0  0  0  0  0  0  0  0  0  0  0  0
    5.0103   65.0654   62.2164 H   0  0  0  0  0  0  0  0  0  0  0  0
    5.1452   64.1900   65.4914 H   0  0  0  0  0  0  0  0  0  0  0  0
    3.4992   63.7842   64.8169 H   0  0  0  0  0  0  0  0  0  0  0  0
    5.6997   62.5039   64.0341 H   0  0  0  0  0  0  0  0  0  0  0  0
    4.3392   62.8664   62.9186 H   0  0  0  0  0  0  0  0  0  0  0  0
    5.8026   63.9081   62.9186 H   0  0  0  0  0  0  0  0  0  0  0  0
  2  1  1  0
  3  2  1  0
  4  3  2  0
  5  4  1  0
  6  5  2  0
  7  2  2  0
  7  6  1  0
  8  7  1  0
  9  8  1  0
 10  9  2  0
 10  1  1  0
 11 10  1  0
 12 11  2  0
 13 12  1  0
 14 13  2  0
 14  9  1  0
 15  1  1  0
 16 15  1  0
 17 16  1  0
 18 16  1  0
 20 19  1  0
 20 18  1  0
 21 18  1  0
 22 21  1  0
  3 23  1  0
  4 24  1  0
  5 25  1  0
  6 26  1  0
 11 27  1  0
 12 28  1  0
 13 29  1  0
 14 30  1  0
 15 31  1  0
 15 32  1  0
 16 33  1  1
 17 34  1  0
 17 35  1  0
 17 36  1  0
 18 37  1  0
 19 38  1  0
 19 39  1  0
 19 40  1  0
 20 41  1  0
 20 42  1  0
 21 43  1  0
 21 44  1  0
 22 45  1  0
 22 46  1  0
 22 47  1  0
M  CHG  1  18   1
M  END
>  <score>  (6) 
-8.294

$$$$
=
     RDKit          3D

 47 49  0  0  0  0  0  0  0  0999 V2000
    1.9560   68.0930   65.5380 N   0  0  0  0  0  0  0  0  0  0  0  0
    0.5780   68.1010   65.8820 C   0  0  0  0  0  0  0  0  0  0  0  0
    0.1100   67.5130   67.0710 C   0  0  0  0  0  0  0  0  0  0  0  0
   -1.2470   67.5300   67.4080 C   0  0  0  0  0  0  0  0  0  0  0  0
   -2.1680   68.1300   66.5590 C   0  0  0  0  0  0  0  0  0  0  0  0
   -1.7360   68.7040   65.3680 C   0  0  0  0  0  0  0  0  0  0  0  0
   -0.3780   68.6840   65.0210 C   0  0  0  0  0  0  0  0  0  0  0  0
    0.0990   69.5010   63.5090 S   0  0  0  0  0  0  0  0  0  0  0  0
    1.6610   68.7060   63.1730 C   0  0  0  0  0  0  0  0  0  0  0  0
    2.4300   68.1190   64.2010 C   0  0  0  0  0  0  0  0  0  0  0  0
    3.6540   67.5290   63.8390 C   0  0  0  0  0  0  0  0  0  0  0  0
    4.1200   67.5610   62.5200 C   0  0  0  0  0  0  0  0  0  0  0  0
    3.3640   68.1750   61.5300 C   0  0  0  0  0  0  0  0  0  0  0  0
    2.1360   68.7430   61.8530 C   0  0  0  0  0  0  0  0  0  0  0  0
    2.9430   68.2370   66.6370 C   0  0  0  0  0  0  0  0  0  0  0  0
    3.0610   69.7270   67.1000 C   0  0  1  0  0  0  0  0  0  0  0  0
    2.3870   69.9340   68.4550 C   0  0  0  0  0  0  0  0  0  0  0  0
    4.5450   70.1640   67.1110 N   0  0  0  0  0  4  0  0  0  0  0  0
    5.6630   70.0710   64.8670 C   0  0  0  0  0  0  0  0  0  0  0  0
    5.4630   69.3800   66.2040 C   0  0  0  0  0  0  0  0  0  0  0  0
    5.0780   70.5120   68.4850 C   0  0  0  0  0  0  0  0  0  0  0  0
    6.5230   70.9640   68.4680 C   0  0  0  0  0  0  0  0  0  0  0  0
    0.8271   67.0293   67.7505 H   0  0  0  0  0  0  0  0  0  0  0  0
   -1.5856   67.0675   68.3469 H   0  0  0  0  0  0  0  0  0  0  0  0
   -3.2346   68.1512   66.8274 H   0  0  0  0  0  0  0  0  0  0  0  0
   -2.4651   69.1770   64.6937 H   0  0  0  0  0  0  0  0  0  0  0  0
    4.2592   67.0307   64.6106 H   0  0  0  0  0  0  0  0  0  0  0  0
    5.0859   67.0995   62.2671 H   0  0  0  0  0  0  0  0  0  0  0  0
    3.7346   68.2120   60.4950 H   0  0  0  0  0  0  0  0  0  0  0  0
    1.5333   69.2243   61.0687 H   0  0  0  0  0  0  0  0  0  0  0  0
    2.6228   67.6205   67.4899 H   0  0  0  0  0  0  0  0  0  0  0  0
    3.9257   67.9081   66.2679 H   0  0  0  0  0  0  0  0  0  0  0  0
    2.5296   70.3685   66.3816 H   0  0  0  0  0  0  0  0  0  0  0  0
    3.1047   69.7136   69.2590 H   0  0  0  0  0  0  0  0  0  0  0  0
    2.0492   70.9773   68.5409 H   0  0  0  0  0  0  0  0  0  0  0  0
    1.5218   69.2602   68.5409 H   0  0  0  0  0  0  0  0  0  0  0  0
    4.5439   71.0764   66.6330 H   0  0  0  0  0  0  0  0  0  0  0  0
    5.9652   71.1152   65.0355 H   0  0  0  0  0  0  0  0  0  0  0  0
    6.4471   69.5495   64.2984 H   0  0  0  0  0  0  0  0  0  0  0  0
    4.7216   70.0489   64.2984 H   0  0  0  0  0  0  0  0  0  0  0  0
    5.0259   68.3859   66.0287 H   0  0  0  0  0  0  0  0  0  0  0  0
    6.4432   69.3007   66.6969 H   0  0  0  0  0  0  0  0  0  0  0  0
    4.4632   71.3225   68.9034 H   0  0  0  0  0  0  0  0  0  0  0  0
    5.0287   69.5983   69.0955 H   0  0  0  0  0  0  0  0  0  0  0  0
    6.8840   71.0769   69.5009 H   0  0  0  0  0  0  0  0  0  0  0  0
    7.1355   70.2145   67.9454 H   0  0  0  0  0  0  0  0  0  0  0  0
    6.5992   71.9289   67.9454 H   0  0  0  0  0  0  0  0  0  0  0  0
  2  1  1  0
  3  2  1  0
  4  3  2  0
  5  4  1  0
  6  5  2  0
  7  2  2  0
  7  6  1  0
  8  7  1  0
  9  8  1  0
 10  9  2  0
 10  1  1  0
 11 10  1  0
 12 11  2  0
 13 12  1  0
 14 13  2  0
 14  9  1  0
 15  1  1  0
 16 15  1  0
 17 16  1  0
 18 16  1  0
 20 19  1  0
 20 18  1  0
 21 18  1  0
 22 21  1  0
  3 23  1  0
  4 24  1  0
  5 25  1  0
  6 26  1  0
 11 27  1  0
 12 28  1  0
 13 29  1  0
 14 30  1  0
 15 31  1  0
 15 32  1  0
 16 33  1  6
 17 34  1  0
 17 35  1  0
 17 36  1  0
 18 37  1  0
 19 38  1  0
 19 39  1  0
 19 40  1  0
 20 41  1  0
 20 42  1  0
 21 43  1  0
 21 44  1  0
 22 45  1  0
 22 46  1  0
 22 47  1  0
M  CHG  1  18   1
M  END
>  <score>  (7) 
-8.209

$$$$
=
     RDKit          3D

 47 49  0  0  0  0  0  0  0  0999 V2000
    2.0340   60.3950   72.0850 N   0  0  0  0  0  0  0  0  0  0  0  0
    0.7530   60.6570   72.6390 C   0  0  0  0  0  0  0  0  0  0  0  0
   -0.0200   59.6380   73.2270 C   0  0  0  0  0  0  0  0  0  0  0  0
   -1.2770   59.9040   73.7780 C   0  0  0  0  0  0  0  0  0  0  0  0
   -1.7940   61.1930   73.7480 C   0  0  0  0  0  0  0  0  0  0  0  0
   -1.0580   62.2160   73.1570 C   0  0  0  0  0  0  0  0  0  0  0  0
    0.2000   61.9550   72.5970 C   0  0  0  0  0  0  0  0  0  0  0  0
    1.1040   63.3370   71.9200 S   0  0  0  0  0  0  0  0  0  0  0  0
    2.2310   62.4970   70.8210 C   0  0  0  0  0  0  0  0  0  0  0  0
    2.5980   61.1490   71.0230 C   0  0  0  0  0  0  0  0  0  0  0  0
    3.5040   60.5790   70.1110 C   0  0  0  0  0  0  0  0  0  0  0  0
    4.0600   61.3280   69.0690 C   0  0  0  0  0  0  0  0  0  0  0  0
    3.7130   62.6630   68.9080 C   0  0  0  0  0  0  0  0  0  0  0  0
    2.7970   63.2460   69.7790 C   0  0  0  0  0  0  0  0  0  0  0  0
    2.8900   59.3920   72.7660 C   0  0  0  0  0  0  0  0  0  0  0  0
    2.3310   57.9440   72.5690 C   0  0  1  0  0  0  0  0  0  0  0  0
    2.9490   57.2820   71.3390 C   0  0  0  0  0  0  0  0  0  0  0  0
    2.5500   57.1100   73.8540 N   0  0  0  0  0  4  0  0  0  0  0  0
    0.2560   56.1260   73.6010 C   0  0  0  0  0  0  0  0  0  0  0  0
    1.7030   55.8650   73.9750 C   0  0  0  0  0  0  0  0  0  0  0  0
    2.7240   57.9400   75.1080 C   0  0  0  0  0  0  0  0  0  0  0  0
    3.9740   57.5880   75.8880 C   0  0  0  0  0  0  0  0  0  0  0  0
    0.3732   58.6110   73.2535 H   0  0  0  0  0  0  0  0  0  0  0  0
   -1.8582   59.0904   74.2365 H   0  0  0  0  0  0  0  0  0  0  0  0
   -2.7795   61.4041   74.1888 H   0  0  0  0  0  0  0  0  0  0  0  0
   -1.4667   63.2369   73.1293 H   0  0  0  0  0  0  0  0  0  0  0  0
    3.7816   59.5202   70.2196 H   0  0  0  0  0  0  0  0  0  0  0  0
    4.7735   60.8588   68.3756 H   0  0  0  0  0  0  0  0  0  0  0  0
    4.1596   63.2565   68.0966 H   0  0  0  0  0  0  0  0  0  0  0  0
    2.5151   64.3013   69.6492 H   0  0  0  0  0  0  0  0  0  0  0  0
    3.9061   59.4443   72.3478 H   0  0  0  0  0  0  0  0  0  0  0  0
    2.9016   59.6174   73.8426 H   0  0  0  0  0  0  0  0  0  0  0  0
    1.2475   58.0002   72.3879 H   0  0  0  0  0  0  0  0  0  0  0  0
    3.6672   56.5126   71.6586 H   0  0  0  0  0  0  0  0  0  0  0  0
    2.1559   56.8154   70.7363 H   0  0  0  0  0  0  0  0  0  0  0  0
    3.4689   58.0412   70.7363 H   0  0  0  0  0  0  0  0  0  0  0  0
    3.4832   56.6920   73.7299 H   0  0  0  0  0  0  0  0  0  0  0  0
   -0.3453   56.2345   74.5157 H   0  0  0  0  0  0  0  0  0  0  0  0
    0.1915   57.0503   73.0081 H   0  0  0  0  0  0  0  0  0  0  0  0
   -0.1273   55.2825   73.0081 H   0  0  0  0  0  0  0  0  0  0  0  0
    1.7426   55.5077   75.0146 H   0  0  0  0  0  0  0  0  0  0  0  0
    2.1037   55.1116   73.2809 H   0  0  0  0  0  0  0  0  0  0  0  0
    2.7783   59.0004   74.8206 H   0  0  0  0  0  0  0  0  0  0  0  0
    1.8626   57.7320   75.7598 H   0  0  0  0  0  0  0  0  0  0  0  0
    3.7625   57.6475   76.9658 H   0  0  0  0  0  0  0  0  0  0  0  0
    4.2901   56.5659   75.6323 H   0  0  0  0  0  0  0  0  0  0  0  0
    4.7770   58.2949   75.6323 H   0  0  0  0  0  0  0  0  0  0  0  0
  2  1  1  0
  3  2  1  0
  4  3  2  0
  5  4  1  0
  6  5  2  0
  7  2  2  0
  7  6  1  0
  8  7  1  0
  9  8  1  0
 10  9  2  0
 10  1  1  0
 11 10  1  0
 12 11  2  0
 13 12  1  0
 14 13  2  0
 14  9  1  0
 15  1  1  0
 16 15  1  0
 17 16  1  0
 18 16  1  0
 20 19  1  0
 20 18  1  0
 21 18  1  0
 22 21  1  0
  3 23  1  0
  4 24  1  0
  5 25  1  0
  6 26  1  0
 11 27  1  0
 12 28  1  0
 13 29  1  0
 14 30  1  0
 15 31  1  0
 15 32  1  0
 16 33  1  6
 17 34  1  0
 17 35  1  0
 17 36  1  0
 18 37  1  0
 19 38  1  0
 19 39  1  0
 19 40  1  0
 20 41  1  0
 20 42  1  0
 21 43  1  0
 21 44  1  0
 22 45  1  0
 22 46  1  0
 22 47  1  0
M  CHG  1  18   1
M  END
>  <score>  (8) 
-7.451

$$$$
=
     RDKit          3D

 47 49  0  0  0  0  0  0  0  0999 V2000
    2.6090   61.4340   73.6500 N   0  0  0  0  0  0  0  0  0  0  0  0
    3.2850   62.0050   72.5390 C   0  0  0  0  0  0  0  0  0  0  0  0
    4.5710   61.5800   72.1580 C   0  0  0  0  0  0  0  0  0  0  0  0
    5.2280   62.1390   71.0580 C   0  0  0  0  0  0  0  0  0  0  0  0
    4.6160   63.1430   70.3170 C   0  0  0  0  0  0  0  0  0  0  0  0
    3.3510   63.5940   70.6810 C   0  0  0  0  0  0  0  0  0  0  0  0
    2.6900   63.0420   71.7870 C   0  0  0  0  0  0  0  0  0  0  0  0
    1.0440   63.6320   72.1440 S   0  0  0  0  0  0  0  0  0  0  0  0
    0.8890   63.1810   73.8630 C   0  0  0  0  0  0  0  0  0  0  0  0
    1.6490   62.1330   74.4270 C   0  0  0  0  0  0  0  0  0  0  0  0
    1.4450   61.8430   75.7870 C   0  0  0  0  0  0  0  0  0  0  0  0
    0.4940   62.5310   76.5470 C   0  0  0  0  0  0  0  0  0  0  0  0
   -0.2690   63.5360   75.9650 C   0  0  0  0  0  0  0  0  0  0  0  0
   -0.0690   63.8630   74.6270 C   0  0  0  0  0  0  0  0  0  0  0  0
    2.7960   59.9830   73.9020 C   0  0  0  0  0  0  0  0  0  0  0  0
    1.8410   59.1260   73.0080 C   0  0  1  0  0  0  0  0  0  0  0  0
    2.6200   58.3990   71.9140 C   0  0  0  0  0  0  0  0  0  0  0  0
    1.0200   58.1530   73.8880 N   0  0  0  0  0  4  0  0  0  0  0  0
   -0.4480   56.1290   73.6820 C   0  0  0  0  0  0  0  0  0  0  0  0
    0.9040   56.7410   73.3650 C   0  0  0  0  0  0  0  0  0  0  0  0
   -0.2310   58.7630   74.4850 C   0  0  0  0  0  0  0  0  0  0  0  0
   -0.8650   59.8140   73.5970 C   0  0  0  0  0  0  0  0  0  0  0  0
    5.0705   60.7904   72.7386 H   0  0  0  0  0  0  0  0  0  0  0  0
    6.2308   61.7837   70.7785 H   0  0  0  0  0  0  0  0  0  0  0  0
    5.1291   63.5789   69.4471 H   0  0  0  0  0  0  0  0  0  0  0  0
    2.8660   64.3897   70.0964 H   0  0  0  0  0  0  0  0  0  0  0  0
    2.0475   61.0564   76.2647 H   0  0  0  0  0  0  0  0  0  0  0  0
    0.3497   62.2762   77.6073 H   0  0  0  0  0  0  0  0  0  0  0  0
   -1.0263   64.0698   76.5580 H   0  0  0  0  0  0  0  0  0  0  0  0
   -0.6670   64.6625   74.1653 H   0  0  0  0  0  0  0  0  0  0  0  0
    3.8379   59.7112   73.6772 H   0  0  0  0  0  0  0  0  0  0  0  0
    2.5611   59.7796   74.9572 H   0  0  0  0  0  0  0  0  0  0  0  0
    1.1317   59.7950   72.4987 H   0  0  0  0  0  0  0  0  0  0  0  0
    3.3502   57.7176   72.3749 H   0  0  0  0  0  0  0  0  0  0  0  0
    1.9227   57.8213   71.2895 H   0  0  0  0  0  0  0  0  0  0  0  0
    3.1483   59.1345   71.2895 H   0  0  0  0  0  0  0  0  0  0  0  0
    1.6124   57.9994   74.7164 H   0  0  0  0  0  0  0  0  0  0  0  0
   -0.5773   56.0705   74.7728 H   0  0  0  0  0  0  0  0  0  0  0  0
   -1.2437   56.7547   73.2515 H   0  0  0  0  0  0  0  0  0  0  0  0
   -0.5030   55.1182   73.2515 H   0  0  0  0  0  0  0  0  0  0  0  0
    1.6900   56.1252   73.8265 H   0  0  0  0  0  0  0  0  0  0  0  0
    1.0157   56.7726   72.2711 H   0  0  0  0  0  0  0  0  0  0  0  0
   -0.9641   57.9608   74.6553 H   0  0  0  0  0  0  0  0  0  0  0  0
    0.0626   59.2601   75.4213 H   0  0  0  0  0  0  0  0  0  0  0  0
   -1.3324   60.5889   74.2223 H   0  0  0  0  0  0  0  0  0  0  0  0
   -0.0924   60.2720   72.9620 H   0  0  0  0  0  0  0  0  0  0  0  0
   -1.6305   59.3442   72.9620 H   0  0  0  0  0  0  0  0  0  0  0  0
  2  1  1  0
  3  2  1  0
  4  3  2  0
  5  4  1  0
  6  5  2  0
  7  2  2  0
  7  6  1  0
  8  7  1  0
  9  8  1  0
 10  9  2  0
 10  1  1  0
 11 10  1  0
 12 11  2  0
 13 12  1  0
 14 13  2  0
 14  9  1  0
 15  1  1  0
 16 15  1  0
 17 16  1  0
 18 16  1  0
 20 19  1  0
 20 18  1  0
 21 18  1  0
 22 21  1  0
  3 23  1  0
  4 24  1  0
  5 25  1  0
  6 26  1  0
 11 27  1  0
 12 28  1  0
 13 29  1  0
 14 30  1  0
 15 31  1  0
 15 32  1  0
 16 33  1  6
 17 34  1  0
 17 35  1  0
 17 36  1  0
 18 37  1  0
 19 38  1  0
 19 39  1  0
 19 40  1  0
 20 41  1  0
 20 42  1  0
 21 43  1  0
 21 44  1  0
 22 45  1  0
 22 46  1  0
 22 47  1  0
M  CHG  1  18   1
M  END
>  <score>  (9) 
-7.422

$$$$
