=
     RDKit          3D

 62 65  0  0  0  0  0  0  0  0999 V2000
    0.7740   66.7990   69.8040 C   0  0  0  0  0  0  0  0  0  0  0  0
    0.1390   67.1950   68.4790 C   0  0  0  0  0  0  0  0  0  0  0  0
   -1.0820   67.2050   68.3280 O   0  0  0  0  0  0  0  0  0  0  0  0
    4.7750   69.5680   64.5330 C   0  0  0  0  0  0  0  0  0  0  0  0
    5.0450   69.9300   65.8510 C   0  0  0  0  0  0  0  0  0  0  0  0
    4.1840   69.5320   66.8790 C   0  0  0  0  0  0  0  0  0  0  0  0
    3.0400   68.7660   66.6060 C   0  0  0  0  0  0  0  0  0  0  0  0
    2.7630   68.3970   65.2730 C   0  0  0  0  0  0  0  0  0  0  0  0
    3.6370   68.8050   64.2530 C   0  0  0  0  0  0  0  0  0  0  0  0
    1.6200   67.6300   64.9960 C   0  0  0  0  0  0  0  0  0  0  0  0
    0.7570   67.2310   66.0210 C   0  0  0  0  0  0  0  0  0  0  0  0
    1.0250   67.5960   67.3430 C   0  0  0  0  0  0  0  0  0  0  0  0
    2.1670   68.3590   67.6280 C   0  0  0  0  0  0  0  0  0  0  0  0
    5.6380   68.9040   62.4180 C   0  0  0  0  0  0  0  0  0  0  0  0
    5.5310   69.8890   63.4390 O   0  0  0  0  0  0  0  0  0  0  0  0
    0.4740   65.3350   70.1470 C   0  0  0  0  0  0  0  0  0  0  0  0
    1.5290   64.6670   71.0490 C   0  0  1  0  0  0  0  0  0  0  0  0
    0.9070   63.6710   72.0330 C   0  0  0  0  0  0  0  0  0  0  0  0
    1.9580   62.9140   72.8380 C   0  0  0  0  0  0  0  0  0  0  0  0
    2.9780   62.2040   71.9400 N   0  0  1  0  0  4  0  0  0  0  0  0
    3.6200   63.2200   70.9930 C   0  0  0  0  0  0  0  0  0  0  0  0
    2.5790   63.9700   70.1720 C   0  0  0  0  0  0  0  0  0  0  0  0
    4.0850   61.6510   72.8490 C   0  0  0  0  0  0  0  0  0  0  0  0
    2.3000   61.0220   71.1950 C   0  0  0  0  0  0  0  0  0  0  0  0
    1.9060   59.8220   72.0240 C   0  0  0  0  0  0  0  0  0  0  0  0
    0.7910   59.8790   72.8760 C   0  0  0  0  0  0  0  0  0  0  0  0
    0.4300   58.7740   73.6500 C   0  0  0  0  0  0  0  0  0  0  0  0
    1.1720   57.5990   73.5760 C   0  0  0  0  0  0  0  0  0  0  0  0
    2.2700   57.5210   72.7240 C   0  0  0  0  0  0  0  0  0  0  0  0
    2.6330   58.6240   71.9480 C   0  0  0  0  0  0  0  0  0  0  0  0
    1.8633   66.9353   69.7348 H   0  0  0  0  0  0  0  0  0  0  0  0
    0.3530   67.4357   70.5961 H   0  0  0  0  0  0  0  0  0  0  0  0
    5.9371   70.5300   66.0836 H   0  0  0  0  0  0  0  0  0  0  0  0
    4.4066   69.8235   67.9161 H   0  0  0  0  0  0  0  0  0  0  0  0
    3.4224   68.5188   63.2128 H   0  0  0  0  0  0  0  0  0  0  0  0
    1.4005   67.3390   63.9581 H   0  0  0  0  0  0  0  0  0  0  0  0
   -0.1336   66.6293   65.7867 H   0  0  0  0  0  0  0  0  0  0  0  0
    2.3822   68.6431   68.6687 H   0  0  0  0  0  0  0  0  0  0  0  0
    5.7460   67.9102   62.8771 H   0  0  0  0  0  0  0  0  0  0  0  0
    4.7325   68.9231   61.7937 H   0  0  0  0  0  0  0  0  0  0  0  0
    6.5183   69.1171   61.7937 H   0  0  0  0  0  0  0  0  0  0  0  0
   -0.4965   65.2939   70.6631 H   0  0  0  0  0  0  0  0  0  0  0  0
    0.4760   64.7816   69.1963 H   0  0  0  0  0  0  0  0  0  0  0  0
    2.0063   65.4532   71.6523 H   0  0  0  0  0  0  0  0  0  0  0  0
    0.2578   64.2216   72.7296 H   0  0  0  0  0  0  0  0  0  0  0  0
    0.3378   62.9335   71.4481 H   0  0  0  0  0  0  0  0  0  0  0  0
    2.4911   63.6276   73.4834 H   0  0  0  0  0  0  0  0  0  0  0  0
    1.4394   62.1462   73.4310 H   0  0  0  0  0  0  0  0  0  0  0  0
    4.1945   63.9460   71.5871 H   0  0  0  0  0  0  0  0  0  0  0  0
    4.2719   62.6718   70.2970 H   0  0  0  0  0  0  0  0  0  0  0  0
    3.0906   64.7299   69.5630 H   0  0  0  0  0  0  0  0  0  0  0  0
    2.0550   63.2342   69.5443 H   0  0  0  0  0  0  0  0  0  0  0  0
    3.8001   61.7933   73.9019 H   0  0  0  0  0  0  0  0  0  0  0  0
    4.2226   60.5783   72.6482 H   0  0  0  0  0  0  0  0  0  0  0  0
    5.0254   62.1852   72.6482 H   0  0  0  0  0  0  0  0  0  0  0  0
    1.3875   61.4100   70.7189 H   0  0  0  0  0  0  0  0  0  0  0  0
    3.0648   60.6482   70.4983 H   0  0  0  0  0  0  0  0  0  0  0  0
    0.1964   60.8026   72.9342 H   0  0  0  0  0  0  0  0  0  0  0  0
   -0.4415   58.8325   74.3186 H   0  0  0  0  0  0  0  0  0  0  0  0
    0.8907   56.7315   74.1911 H   0  0  0  0  0  0  0  0  0  0  0  0
    2.8523   56.5898   72.6618 H   0  0  0  0  0  0  0  0  0  0  0  0
    3.4969   58.5531   71.2708 H   0  0  0  0  0  0  0  0  0  0  0  0
  2  1  1  0
  3  2  2  0
  5  4  2  0
  6  5  1  0
  7  6  2  0
  8  7  1  0
  9  8  2  0
  9  4  1  0
 10  8  1  0
 11 10  2  0
 12 11  1  0
 12  2  1  0
 13 12  2  0
 13  7  1  0
 15  4  1  0
 15 14  1  0
 16  1  1  0
 17 16  1  0
 18 17  1  0
 19 18  1  0
 20 19  1  0
 21 20  1  0
 22 21  1  0
 22 17  1  0
 20 23  1  1
 24 20  1  0
 25 24  1  0
 26 25  2  0
 27 26  1  0
 28 27  2  0
 29 28  1  0
 30 29  2  0
 30 25  1  0
  1 31  1  0
  1 32  1  0
  5 33  1  0
  6 34  1  0
  9 35  1  0
 10 36  1  0
 11 37  1  0
 13 38  1  0
 14 39  1  0
 14 40  1  0
 14 41  1  0
 16 42  1  0
 16 43  1  0
 17 44  1  1
 18 45  1  0
 18 46  1  0
 19 47  1  0
 19 48  1  0
 21 49  1  0
 21 50  1  0
 22 51  1  0
 22 52  1  0
 23 53  1  0
 23 54  1  0
 23 55  1  0
 24 56  1  0
 24 57  1  0
 26 58  1  0
 27 59  1  0
 28 60  1  0
 29 61  1  0
 30 62  1  0
M  CHG  1  20   1
M  END
>  <score>  (1) 
-10.322

$$$$
=
     RDKit          3D

 62 65  0  0  0  0  0  0  0  0999 V2000
    0.7780   66.3930   70.1410 C   0  0  0  0  0  0  0  0  0  0  0  0
    0.3790   65.4750   71.2890 C   0  0  0  0  0  0  0  0  0  0  0  0
   -0.3950   65.8460   72.1690 O   0  0  0  0  0  0  0  0  0  0  0  0
    3.5600   59.8440   70.3610 C   0  0  0  0  0  0  0  0  0  0  0  0
    3.9610   60.7760   69.4070 C   0  0  0  0  0  0  0  0  0  0  0  0
    3.4120   62.0620   69.4070 C   0  0  0  0  0  0  0  0  0  0  0  0
    2.4530   62.4370   70.3610 C   0  0  0  0  0  0  0  0  0  0  0  0
    2.0450   61.4960   71.3300 C   0  0  0  0  0  0  0  0  0  0  0  0
    2.6060   60.2090   71.3150 C   0  0  0  0  0  0  0  0  0  0  0  0
    1.0870   61.8670   72.2870 C   0  0  0  0  0  0  0  0  0  0  0  0
    0.5350   63.1520   72.2900 C   0  0  0  0  0  0  0  0  0  0  0  0
    0.9340   64.0870   71.3320 C   0  0  0  0  0  0  0  0  0  0  0  0
    1.8930   63.7250   70.3740 C   0  0  0  0  0  0  0  0  0  0  0  0
    3.1600   57.6250   71.1190 C   0  0  0  0  0  0  0  0  0  0  0  0
    4.0160   58.5590   70.4730 O   0  0  0  0  0  0  0  0  0  0  0  0
   -0.4410   66.8000   69.3060 C   0  0  0  0  0  0  0  0  0  0  0  0
   -0.1860   66.8290   67.7870 C   0  0  1  0  0  0  0  0  0  0  0  0
   -0.8220   68.0500   67.1140 C   0  0  0  0  0  0  0  0  0  0  0  0
   -0.4650   68.1520   65.6350 C   0  0  0  0  0  0  0  0  0  0  0  0
    1.0510   68.1470   65.4020 N   0  0  1  0  0  4  0  0  0  0  0  0
    1.6640   66.9010   66.0430 C   0  0  0  0  0  0  0  0  0  0  0  0
    1.3270   66.7990   67.5250 C   0  0  0  0  0  0  0  0  0  0  0  0
    1.2830   68.0520   63.8870 C   0  0  0  0  0  0  0  0  0  0  0  0
    1.6740   69.4700   65.9250 C   0  0  0  0  0  0  0  0  0  0  0  0
    3.1790   69.5240   66.0390 C   0  0  0  0  0  0  0  0  0  0  0  0
    3.7910   69.8340   67.2650 C   0  0  0  0  0  0  0  0  0  0  0  0
    5.1820   69.8930   67.3710 C   0  0  0  0  0  0  0  0  0  0  0  0
    5.9780   69.6360   66.2570 C   0  0  0  0  0  0  0  0  0  0  0  0
    5.3870   69.3120   65.0400 C   0  0  0  0  0  0  0  0  0  0  0  0
    3.9960   69.2510   64.9300 C   0  0  0  0  0  0  0  0  0  0  0  0
    1.2491   67.2978   70.5525 H   0  0  0  0  0  0  0  0  0  0  0  0
    1.4802   65.8512   69.4903 H   0  0  0  0  0  0  0  0  0  0  0  0
    4.7114   60.4998   68.6517 H   0  0  0  0  0  0  0  0  0  0  0  0
    3.7362   62.7900   68.6488 H   0  0  0  0  0  0  0  0  0  0  0  0
    2.2885   59.4735   72.0688 H   0  0  0  0  0  0  0  0  0  0  0  0
    0.7662   61.1370   73.0448 H   0  0  0  0  0  0  0  0  0  0  0  0
   -0.2140   63.4266   73.0474 H   0  0  0  0  0  0  0  0  0  0  0  0
    2.2112   64.4614   69.6214 H   0  0  0  0  0  0  0  0  0  0  0  0
    3.2576   57.7315   72.2095 H   0  0  0  0  0  0  0  0  0  0  0  0
    2.1180   57.8174   70.8236 H   0  0  0  0  0  0  0  0  0  0  0  0
    3.4423   56.6037   70.8236 H   0  0  0  0  0  0  0  0  0  0  0  0
   -1.2509   66.0830   69.5060 H   0  0  0  0  0  0  0  0  0  0  0  0
   -0.6979   67.8276   69.6026 H   0  0  0  0  0  0  0  0  0  0  0  0
   -0.6603   65.9399   67.3459 H   0  0  0  0  0  0  0  0  0  0  0  0
   -1.9154   67.9758   67.2089 H   0  0  0  0  0  0  0  0  0  0  0  0
   -0.4333   68.9488   67.6150 H   0  0  0  0  0  0  0  0  0  0  0  0
   -0.9076   67.2963   65.1041 H   0  0  0  0  0  0  0  0  0  0  0  0
   -0.8610   69.1063   65.2576 H   0  0  0  0  0  0  0  0  0  0  0  0
    1.2767   66.0094   65.5283 H   0  0  0  0  0  0  0  0  0  0  0  0
    2.7575   66.9716   65.9466 H   0  0  0  0  0  0  0  0  0  0  0  0
    1.7340   65.8545   67.9152 H   0  0  0  0  0  0  0  0  0  0  0  0
    1.7711   67.6696   68.0297 H   0  0  0  0  0  0  0  0  0  0  0  0
    2.2853   67.6416   63.6946 H   0  0  0  0  0  0  0  0  0  0  0  0
    0.5246   67.3920   63.4406 H   0  0  0  0  0  0  0  0  0  0  0  0
    1.2053   69.0543   63.4406 H   0  0  0  0  0  0  0  0  0  0  0  0
    1.3644   70.2748   65.2420 H   0  0  0  0  0  0  0  0  0  0  0  0
    1.3068   69.5689   66.9572 H   0  0  0  0  0  0  0  0  0  0  0  0
    3.1684   70.0321   68.1499 H   0  0  0  0  0  0  0  0  0  0  0  0
    5.6496   70.1426   68.3349 H   0  0  0  0  0  0  0  0  0  0  0  0
    7.0736   69.6892   66.3396 H   0  0  0  0  0  0  0  0  0  0  0  0
    6.0166   69.1034   64.1624 H   0  0  0  0  0  0  0  0  0  0  0  0
    3.5364   68.9868   63.9662 H   0  0  0  0  0  0  0  0  0  0  0  0
  2  1  1  0
  3  2  2  0
  5  4  2  0
  6  5  1  0
  7  6  2  0
  8  7  1  0
  9  8  2  0
  9  4  1  0
 10  8  1  0
 11 10  2  0
 12 11  1  0
 12  2  1  0
 13 12  2  0
 13  7  1  0
 15  4  1  0
 15 14  1  0
 16  1  1  0
 17 16  1  0
 18 17  1  0
 19 18  1  0
 20 19  1  0
 21 20  1  0
 22 21  1  0
 22 17  1  0
 20 23  1  6
 24 20  1  0
 25 24  1  0
 26 25  2  0
 27 26  1  0
 28 27  2  0
 29 28  1  0
 30 29  2  0
 30 25  1  0
  1 31  1  0
  1 32  1  0
  5 33  1  0
  6 34  1  0
  9 35  1  0
 10 36  1  0
 11 37  1  0
 13 38  1  0
 14 39  1  0
 14 40  1  0
 14 41  1  0
 16 42  1  0
 16 43  1  0
 17 44  1  6
 18 45  1  0
 18 46  1  0
 19 47  1  0
 19 48  1  0
 21 49  1  0
 21 50  1  0
 22 51  1  0
 22 52  1  0
 23 53  1  0
 23 54  1  0
 23 55  1  0
 24 56  1  0
 24 57  1  0
 26 58  1  0
 27 59  1  0
 28 60  1  0
 29 61  1  0
 30 62  1  0
M  CHG  1  20   1
M  END
>  <score>  (2) 
-10.274

$$$$
=
     RDKit          3D

 62 65  0  0  0  0  0  0  0  0999 V2000
    0.5750   66.2400   70.2610 C   0  0  0  0  0  0  0  0  0  0  0  0
    0.1260   66.7710   68.9060 C   0  0  0  0  0  0  0  0  0  0  0  0
   -1.0270   66.6200   68.5070 O   0  0  0  0  0  0  0  0  0  0  0  0
    4.1520   68.9490   64.2430 C   0  0  0  0  0  0  0  0  0  0  0  0
    3.5110   67.7910   63.8110 C   0  0  0  0  0  0  0  0  0  0  0  0
    2.5970   67.1400   64.6460 C   0  0  0  0  0  0  0  0  0  0  0  0
    2.3080   67.6390   65.9270 C   0  0  0  0  0  0  0  0  0  0  0  0
    2.9540   68.8120   66.3680 C   0  0  0  0  0  0  0  0  0  0  0  0
    3.8700   69.4530   65.5170 C   0  0  0  0  0  0  0  0  0  0  0  0
    2.6680   69.3150   67.6470 C   0  0  0  0  0  0  0  0  0  0  0  0
    1.7540   68.6670   68.4850 C   0  0  0  0  0  0  0  0  0  0  0  0
    1.1130   67.5030   68.0540 C   0  0  0  0  0  0  0  0  0  0  0  0
    1.3920   66.9960   66.7750 C   0  0  0  0  0  0  0  0  0  0  0  0
    5.6650   69.0430   62.4110 C   0  0  0  0  0  0  0  0  0  0  0  0
    5.0620   69.6800   63.5300 O   0  0  0  0  0  0  0  0  0  0  0  0
    0.7640   64.7190   70.2270 C   0  0  0  0  0  0  0  0  0  0  0  0
    0.5580   64.0260   71.5870 C   0  0  1  0  0  0  0  0  0  0  0  0
   -0.3830   62.8200   71.4870 C   0  0  0  0  0  0  0  0  0  0  0  0
   -0.4880   62.0530   72.8020 C   0  0  0  0  0  0  0  0  0  0  0  0
    0.8830   61.6140   73.3300 N   0  0  1  0  0  4  0  0  0  0  0  0
    1.7940   62.8350   73.4640 C   0  0  0  0  0  0  0  0  0  0  0  0
    1.9200   63.5980   72.1510 C   0  0  0  0  0  0  0  0  0  0  0  0
    0.6690   61.0370   74.7370 C   0  0  0  0  0  0  0  0  0  0  0  0
    1.4760   60.5080   72.4160 C   0  0  0  0  0  0  0  0  0  0  0  0
    2.9070   60.6830   71.9650 C   0  0  0  0  0  0  0  0  0  0  0  0
    3.9560   60.6680   72.8990 C   0  0  0  0  0  0  0  0  0  0  0  0
    5.2790   60.8380   72.4860 C   0  0  0  0  0  0  0  0  0  0  0  0
    5.5710   61.0160   71.1360 C   0  0  0  0  0  0  0  0  0  0  0  0
    4.5440   61.0150   70.1970 C   0  0  0  0  0  0  0  0  0  0  0  0
    3.2200   60.8450   70.6060 C   0  0  0  0  0  0  0  0  0  0  0  0
    1.5296   66.7139   70.5334 H   0  0  0  0  0  0  0  0  0  0  0  0
   -0.2022   66.4773   71.0024 H   0  0  0  0  0  0  0  0  0  0  0  0
    3.7239   67.3870   62.8103 H   0  0  0  0  0  0  0  0  0  0  0  0
    2.0977   66.2249   64.2949 H   0  0  0  0  0  0  0  0  0  0  0  0
    4.3749   70.3685   65.8591 H   0  0  0  0  0  0  0  0  0  0  0  0
    3.1690   70.2304   67.9949 H   0  0  0  0  0  0  0  0  0  0  0  0
    1.5400   69.0744   69.4841 H   0  0  0  0  0  0  0  0  0  0  0  0
    0.8856   66.0817   66.4321 H   0  0  0  0  0  0  0  0  0  0  0  0
    6.3816   68.2860   62.7622 H   0  0  0  0  0  0  0  0  0  0  0  0
    4.8877   68.5577   61.8025 H   0  0  0  0  0  0  0  0  0  0  0  0
    6.1922   69.7925   61.8025 H   0  0  0  0  0  0  0  0  0  0  0  0
    0.0417   64.2976   69.5123 H   0  0  0  0  0  0  0  0  0  0  0  0
    1.8088   64.5370   69.9349 H   0  0  0  0  0  0  0  0  0  0  0  0
    0.0811   64.7470   72.2672 H   0  0  0  0  0  0  0  0  0  0  0  0
   -1.3848   63.1761   71.2049 H   0  0  0  0  0  0  0  0  0  0  0  0
    0.0291   62.1350   70.7314 H   0  0  0  0  0  0  0  0  0  0  0  0
   -0.9653   62.7006   73.5522 H   0  0  0  0  0  0  0  0  0  0  0  0
   -1.0835   61.1468   72.6167 H   0  0  0  0  0  0  0  0  0  0  0  0
    1.3765   63.5079   74.2275 H   0  0  0  0  0  0  0  0  0  0  0  0
    2.7958   62.4825   73.7505 H   0  0  0  0  0  0  0  0  0  0  0  0
    2.5292   64.4977   72.3228 H   0  0  0  0  0  0  0  0  0  0  0  0
    2.3893   62.9259   71.4175 H   0  0  0  0  0  0  0  0  0  0  0  0
    0.9483   61.7901   75.4885 H   0  0  0  0  0  0  0  0  0  0  0  0
   -0.3894   60.7661   74.8651 H   0  0  0  0  0  0  0  0  0  0  0  0
    1.2948   60.1415   74.8651 H   0  0  0  0  0  0  0  0  0  0  0  0
    1.4154   59.5566   72.9648 H   0  0  0  0  0  0  0  0  0  0  0  0
    0.8791   60.5509   71.4930 H   0  0  0  0  0  0  0  0  0  0  0  0
    3.7331   60.5209   73.9661 H   0  0  0  0  0  0  0  0  0  0  0  0
    6.0913   60.8313   73.2277 H   0  0  0  0  0  0  0  0  0  0  0  0
    6.6127   61.1573   70.8122 H   0  0  0  0  0  0  0  0  0  0  0  0
    4.7759   61.1485   69.1300 H   0  0  0  0  0  0  0  0  0  0  0  0
    2.4147   60.8379   69.8567 H   0  0  0  0  0  0  0  0  0  0  0  0
  2  1  1  0
  3  2  2  0
  5  4  2  0
  6  5  1  0
  7  6  2  0
  8  7  1  0
  9  8  2  0
  9  4  1  0
 10  8  1  0
 11 10  2  0
 12 11  1  0
 12  2  1  0
 13 12  2  0
 13  7  1  0
 15  4  1  0
 15 14  1  0
 16  1  1  0
 17 16  1  0
 18 17  1  0
 19 18  1  0
 20 19  1  0
 21 20  1  0
 22 21  1  0
 22 17  1  0
 20 23  1  1
 24 20  1  0
 25 24  1  0
 26 25  2  0
 27 26  1  0
 28 27  2  0
 29 28  1  0
 30 29  2  0
 30 25  1  0
  1 31  1  0
  1 32  1  0
  5 33  1  0
  6 34  1  0
  9 35  1  0
 10 36  1  0
 11 37  1  0
 13 38  1  0
 14 39  1  0
 14 40  1  0
 14 41  1  0
 16 42  1  0
 16 43  1  0
 17 44  1  1
 18 45  1  0
 18 46  1  0
 19 47  1  0
 19 48  1  0
 21 49  1  0
 21 50  1  0
 22 51  1  0
 22 52  1  0
 23 53  1  0
 23 54  1  0
 23 55  1  0
 24 56  1  0
 24 57  1  0
 26 58  1  0
 27 59  1  0
 28 60  1  0
 29 61  1  0
 30 62  1  0
M  CHG  1  20   1
M  END
>  <score>  (3) 
-10.193

$$$$
=
     RDKit          3D

 62 65  0  0  0  0  0  0  0  0999 V2000
    0.9120   63.8930   71.4400 C   0  0  0  0  0  0  0  0  0  0  0  0
    0.2210   65.2490   71.4140 C   0  0  0  0  0  0  0  0  0  0  0  0
   -0.3650   65.6900   72.4010 O   0  0  0  0  0  0  0  0  0  0  0  0
   -0.9350   68.4970   65.8630 C   0  0  0  0  0  0  0  0  0  0  0  0
   -2.1090   67.9000   66.3150 C   0  0  0  0  0  0  0  0  0  0  0  0
   -2.1060   67.1470   67.4930 C   0  0  0  0  0  0  0  0  0  0  0  0
   -0.9290   66.9790   68.2400 C   0  0  0  0  0  0  0  0  0  0  0  0
    0.2620   67.5820   67.7860 C   0  0  0  0  0  0  0  0  0  0  0  0
    0.2420   68.3350   66.6010 C   0  0  0  0  0  0  0  0  0  0  0  0
    1.4420   67.4180   68.5290 C   0  0  0  0  0  0  0  0  0  0  0  0
    1.4490   66.6650   69.7080 C   0  0  0  0  0  0  0  0  0  0  0  0
    0.2720   66.0630   70.1610 C   0  0  0  0  0  0  0  0  0  0  0  0
   -0.9120   66.2250   69.4240 C   0  0  0  0  0  0  0  0  0  0  0  0
    0.1760   68.8380   63.7880 C   0  0  0  0  0  0  0  0  0  0  0  0
   -0.8000   69.2560   64.7340 O   0  0  0  0  0  0  0  0  0  0  0  0
    0.0610   62.8500   72.1730 C   0  0  0  0  0  0  0  0  0  0  0  0
    0.8730   61.8610   73.0310 C   0  0  1  0  0  0  0  0  0  0  0  0
    0.7190   60.4130   72.5510 C   0  0  0  0  0  0  0  0  0  0  0  0
    1.6200   59.4480   73.3140 C   0  0  0  0  0  0  0  0  0  0  0  0
    3.0950   59.8690   73.2680 N   0  0  1  0  0  4  0  0  0  0  0  0
    3.2350   61.3000   73.7890 C   0  0  0  0  0  0  0  0  0  0  0  0
    2.3510   62.2750   73.0220 C   0  0  0  0  0  0  0  0  0  0  0  0
    3.8660   58.9480   74.2230 C   0  0  0  0  0  0  0  0  0  0  0  0
    3.6550   59.6870   71.8300 C   0  0  0  0  0  0  0  0  0  0  0  0
    3.8580   60.9370   71.0080 C   0  0  0  0  0  0  0  0  0  0  0  0
    4.8730   61.8510   71.3370 C   0  0  0  0  0  0  0  0  0  0  0  0
    5.0570   63.0110   70.5840 C   0  0  0  0  0  0  0  0  0  0  0  0
    4.2370   63.2700   69.4890 C   0  0  0  0  0  0  0  0  0  0  0  0
    3.2370   62.3670   69.1400 C   0  0  0  0  0  0  0  0  0  0  0  0
    3.0500   61.2040   69.8910 C   0  0  0  0  0  0  0  0  0  0  0  0
    1.0802   63.5564   70.4064 H   0  0  0  0  0  0  0  0  0  0  0  0
    1.8677   63.9998   71.9741 H   0  0  0  0  0  0  0  0  0  0  0  0
   -3.0412   68.0212   65.7438 H   0  0  0  0  0  0  0  0  0  0  0  0
   -3.0393   66.6793   67.8397 H   0  0  0  0  0  0  0  0  0  0  0  0
    1.1702   68.8067   66.2461 H   0  0  0  0  0  0  0  0  0  0  0  0
    2.3732   67.8878   68.1795 H   0  0  0  0  0  0  0  0  0  0  0  0
    2.3817   66.5467   70.2790 H   0  0  0  0  0  0  0  0  0  0  0  0
   -1.8403   65.7540   69.7797 H   0  0  0  0  0  0  0  0  0  0  0  0
    1.0619   68.4586   64.3184 H   0  0  0  0  0  0  0  0  0  0  0  0
   -0.2430   68.0404   63.1569 H   0  0  0  0  0  0  0  0  0  0  0  0
    0.4642   69.6916   63.1569 H   0  0  0  0  0  0  0  0  0  0  0  0
   -0.6429   63.3803   72.8313 H   0  0  0  0  0  0  0  0  0  0  0  0
   -0.4449   62.2546   71.3986 H   0  0  0  0  0  0  0  0  0  0  0  0
    0.4798   61.8994   74.0576 H   0  0  0  0  0  0  0  0  0  0  0  0
   -0.3275   60.1042   72.6905 H   0  0  0  0  0  0  0  0  0  0  0  0
    1.0121   60.3783   71.4913 H   0  0  0  0  0  0  0  0  0  0  0  0
    1.2941   59.4149   74.3641 H   0  0  0  0  0  0  0  0  0  0  0  0
    1.5367   58.4606   72.8364 H   0  0  0  0  0  0  0  0  0  0  0  0
    2.9489   61.3210   74.8509 H   0  0  0  0  0  0  0  0  0  0  0  0
    4.2814   61.6105   73.6529 H   0  0  0  0  0  0  0  0  0  0  0  0
    2.4414   63.2700   73.4822 H   0  0  0  0  0  0  0  0  0  0  0  0
    2.6899   62.2809   71.9755 H   0  0  0  0  0  0  0  0  0  0  0  0
    3.6359   59.2228   75.2630 H   0  0  0  0  0  0  0  0  0  0  0  0
    3.5687   57.9040   74.0453 H   0  0  0  0  0  0  0  0  0  0  0  0
    4.9461   59.0570   74.0453 H   0  0  0  0  0  0  0  0  0  0  0  0
    4.6297   59.1844   71.9151 H   0  0  0  0  0  0  0  0  0  0  0  0
    2.8827   59.1160   71.2939 H   0  0  0  0  0  0  0  0  0  0  0  0
    5.5291   61.6500   72.1968 H   0  0  0  0  0  0  0  0  0  0  0  0
    5.8511   63.7220   70.8558 H   0  0  0  0  0  0  0  0  0  0  0  0
    4.3794   64.1880   68.8999 H   0  0  0  0  0  0  0  0  0  0  0  0
    2.5930   62.5694   68.2715 H   0  0  0  0  0  0  0  0  0  0  0  0
    2.2628   60.4910   69.6048 H   0  0  0  0  0  0  0  0  0  0  0  0
  2  1  1  0
  3  2  2  0
  5  4  2  0
  6  5  1  0
  7  6  2  0
  8  7  1  0
  9  8  2  0
  9  4  1  0
 10  8  1  0
 11 10  2  0
 12 11  1  0
 12  2  1  0
 13 12  2  0
 13  7  1  0
 15  4  1  0
 15 14  1  0
 16  1  1  0
 17 16  1  0
 18 17  1  0
 19 18  1  0
 20 19  1  0
 21 20  1  0
 22 21  1  0
 22 17  1  0
 20 23  1  1
 24 20  1  0
 25 24  1  0
 26 25  2  0
 27 26  1  0
 28 27  2  0
 29 28  1  0
 30 29  2  0
 30 25  1  0
  1 31  1  0
  1 32  1  0
  5 33  1  0
  6 34  1  0
  9 35  1  0
 10 36  1  0
 11 37  1  0
 13 38  1  0
 14 39  1  0
 14 40  1  0
 14 41  1  0
 16 42  1  0
 16 43  1  0
 17 44  1  1
 18 45  1  0
 18 46  1  0
 19 47  1  0
 19 48  1  0
 21 49  1  0
 21 50  1  0
 22 51  1  0
 22 52  1  0
 23 53  1  0
 23 54  1  0
 23 55  1  0
 24 56  1  0
 24 57  1  0
 26 58  1  0
 27 59  1  0
 28 60  1  0
 29 61  1  0
 30 62  1  0
M  CHG  1  20   1
M  END
>  <score>  (4) 
-10.075

$$$$
=
     RDKit          3D

 62 65  0  0  0  0  0  0  0  0999 V2000
   -0.9090   66.8920   68.4780 C   0  0  0  0  0  0  0  0  0  0  0  0
   -0.4630   67.4880   67.1500 C   0  0  0  0  0  0  0  0  0  0  0  0
   -1.2000   67.4870   66.1660 O   0  0  0  0  0  0  0  0  0  0  0  0
    5.1610   70.7070   67.9830 C   0  0  0  0  0  0  0  0  0  0  0  0
    4.3270   70.9220   69.0770 C   0  0  0  0  0  0  0  0  0  0  0  0
    3.0610   70.3300   69.1220 C   0  0  0  0  0  0  0  0  0  0  0  0
    2.6080   69.5130   68.0750 C   0  0  0  0  0  0  0  0  0  0  0  0
    3.4510   69.2920   66.9650 C   0  0  0  0  0  0  0  0  0  0  0  0
    4.7190   69.8940   66.9350 C   0  0  0  0  0  0  0  0  0  0  0  0
    3.0030   68.4740   65.9150 C   0  0  0  0  0  0  0  0  0  0  0  0
    1.7380   67.8810   65.9560 C   0  0  0  0  0  0  0  0  0  0  0  0
    0.8980   68.0980   67.0520 C   0  0  0  0  0  0  0  0  0  0  0  0
    1.3400   68.9120   68.1060 C   0  0  0  0  0  0  0  0  0  0  0  0
    7.3130   71.1100   68.9120 C   0  0  0  0  0  0  0  0  0  0  0  0
    6.4170   71.2230   67.8140 O   0  0  0  0  0  0  0  0  0  0  0  0
    0.2350   66.1310   69.1570 C   0  0  0  0  0  0  0  0  0  0  0  0
   -0.2100   65.2300   70.3240 C   0  0  1  0  0  0  0  0  0  0  0  0
    0.1320   63.7550   70.0830 C   0  0  0  0  0  0  0  0  0  0  0  0
   -0.1890   62.8780   71.2890 C   0  0  0  0  0  0  0  0  0  0  0  0
    0.4920   63.3780   72.5690 N   0  0  1  0  0  4  0  0  0  0  0  0
    0.1070   64.8370   72.8170 C   0  0  0  0  0  0  0  0  0  0  0  0
    0.4390   65.7250   71.6250 C   0  0  0  0  0  0  0  0  0  0  0  0
   -0.0570   62.5460   73.7370 C   0  0  0  0  0  0  0  0  0  0  0  0
    2.0280   63.1610   72.4740 C   0  0  0  0  0  0  0  0  0  0  0  0
    2.5070   61.9900   71.6500 C   0  0  0  0  0  0  0  0  0  0  0  0
    2.3240   60.6740   72.1070 C   0  0  0  0  0  0  0  0  0  0  0  0
    2.7740   59.5890   71.3520 C   0  0  0  0  0  0  0  0  0  0  0  0
    3.4030   59.8050   70.1280 C   0  0  0  0  0  0  0  0  0  0  0  0
    3.5760   61.1020   69.6540 C   0  0  0  0  0  0  0  0  0  0  0  0
    3.1270   62.1890   70.4070 C   0  0  0  0  0  0  0  0  0  0  0  0
   -1.2432   67.7035   69.1411 H   0  0  0  0  0  0  0  0  0  0  0  0
   -1.7299   66.1859   68.2843 H   0  0  0  0  0  0  0  0  0  0  0  0
    4.6648   71.5590   69.9078 H   0  0  0  0  0  0  0  0  0  0  0  0
    2.4105   70.5074   69.9911 H   0  0  0  0  0  0  0  0  0  0  0  0
    5.3772   69.7227   66.0705 H   0  0  0  0  0  0  0  0  0  0  0  0
    3.6568   68.2975   65.0482 H   0  0  0  0  0  0  0  0  0  0  0  0
    1.4031   67.2429   65.1249 H   0  0  0  0  0  0  0  0  0  0  0  0
    0.6819   69.0819   68.9709 H   0  0  0  0  0  0  0  0  0  0  0  0
    6.7494   71.1811   69.8540 H   0  0  0  0  0  0  0  0  0  0  0  0
    7.8290   70.1397   68.8658 H   0  0  0  0  0  0  0  0  0  0  0  0
    8.0538   71.9218   68.8658 H   0  0  0  0  0  0  0  0  0  0  0  0
    0.7253   65.4995   68.4014 H   0  0  0  0  0  0  0  0  0  0  0  0
    0.9093   66.8887   69.5826 H   0  0  0  0  0  0  0  0  0  0  0  0
   -1.3052   65.2941   70.4035 H   0  0  0  0  0  0  0  0  0  0  0  0
   -0.4474   63.3946   69.2202 H   0  0  0  0  0  0  0  0  0  0  0  0
    1.2144   63.6879   69.8987 H   0  0  0  0  0  0  0  0  0  0  0  0
   -1.2779   62.8758   71.4452 H   0  0  0  0  0  0  0  0  0  0  0  0
    0.1885   61.8662   71.0798 H   0  0  0  0  0  0  0  0  0  0  0  0
   -0.9746   64.8911   73.0098 H   0  0  0  0  0  0  0  0  0  0  0  0
    0.6837   65.1985   73.6812 H   0  0  0  0  0  0  0  0  0  0  0  0
    0.0798   66.7436   71.8331 H   0  0  0  0  0  0  0  0  0  0  0  0
    1.5297   65.7017   71.4843 H   0  0  0  0  0  0  0  0  0  0  0  0
    0.2464   63.0058   74.6891 H   0  0  0  0  0  0  0  0  0  0  0  0
   -1.1550   62.5128   73.6793 H   0  0  0  0  0  0  0  0  0  0  0  0
    0.3443   61.5234   73.6793 H   0  0  0  0  0  0  0  0  0  0  0  0
    2.4653   64.0724   72.0403 H   0  0  0  0  0  0  0  0  0  0  0  0
    2.3479   62.9357   73.5020 H   0  0  0  0  0  0  0  0  0  0  0  0
    1.8212   60.4967   73.0692 H   0  0  0  0  0  0  0  0  0  0  0  0
    2.6318   58.5636   71.7238 H   0  0  0  0  0  0  0  0  0  0  0  0
    3.7629   58.9505   69.5362 H   0  0  0  0  0  0  0  0  0  0  0  0
    4.0673   61.2712   68.6845 H   0  0  0  0  0  0  0  0  0  0  0  0
    3.2606   63.2108   70.0221 H   0  0  0  0  0  0  0  0  0  0  0  0
  2  1  1  0
  3  2  2  0
  5  4  2  0
  6  5  1  0
  7  6  2  0
  8  7  1  0
  9  8  2  0
  9  4  1  0
 10  8  1  0
 11 10  2  0
 12 11  1  0
 12  2  1  0
 13 12  2  0
 13  7  1  0
 15  4  1  0
 15 14  1  0
 16  1  1  0
 17 16  1  0
 18 17  1  0
 19 18  1  0
 20 19  1  0
 21 20  1  0
 22 21  1  0
 22 17  1  0
 20 23  1  1
 24 20  1  0
 25 24  1  0
 26 25  2  0
 27 26  1  0
 28 27  2  0
 29 28  1  0
 30 29  2  0
 30 25  1  0
  1 31  1  0
  1 32  1  0
  5 33  1  0
  6 34  1  0
  9 35  1  0
 10 36  1  0
 11 37  1  0
 13 38  1  0
 14 39  1  0
 14 40  1  0
 14 41  1  0
 16 42  1  0
 16 43  1  0
 17 44  1  1
 18 45  1  0
 18 46  1  0
 19 47  1  0
 19 48  1  0
 21 49  1  0
 21 50  1  0
 22 51  1  0
 22 52  1  0
 23 53  1  0
 23 54  1  0
 23 55  1  0
 24 56  1  0
 24 57  1  0
 26 58  1  0
 27 59  1  0
 28 60  1  0
 29 61  1  0
 30 62  1  0
M  CHG  1  20   1
M  END
>  <score>  (5) 
-10.019

$$$$
=
     RDKit          3D

 62 65  0  0  0  0  0  0  0  0999 V2000
   -0.1660   66.0980   69.8320 C   0  0  0  0  0  0  0  0  0  0  0  0
    0.0340   65.4330   71.1870 C   0  0  0  0  0  0  0  0  0  0  0  0
   -0.3180   65.9810   72.2300 O   0  0  0  0  0  0  0  0  0  0  0  0
    3.5500   59.9910   70.3410 C   0  0  0  0  0  0  0  0  0  0  0  0
    3.9340   60.9510   69.4090 C   0  0  0  0  0  0  0  0  0  0  0  0
    3.3160   62.2060   69.3980 C   0  0  0  0  0  0  0  0  0  0  0  0
    2.3030   62.5200   70.3180 C   0  0  0  0  0  0  0  0  0  0  0  0
    1.9110   61.5500   71.2640 C   0  0  0  0  0  0  0  0  0  0  0  0
    2.5420   60.2950   71.2620 C   0  0  0  0  0  0  0  0  0  0  0  0
    0.9000   61.8600   72.1870 C   0  0  0  0  0  0  0  0  0  0  0  0
    0.2790   63.1130   72.1780 C   0  0  0  0  0  0  0  0  0  0  0  0
    0.6620   64.0770   71.2420 C   0  0  0  0  0  0  0  0  0  0  0  0
    1.6740   63.7750   70.3180 C   0  0  0  0  0  0  0  0  0  0  0  0
    3.2840   57.7720   71.1560 C   0  0  0  0  0  0  0  0  0  0  0  0
    4.0700   58.7310   70.4620 O   0  0  0  0  0  0  0  0  0  0  0  0
    0.9970   67.0400   69.4990 C   0  0  0  0  0  0  0  0  0  0  0  0
    0.7490   67.9420   68.2760 C   0  0  1  0  0  0  0  0  0  0  0  0
    2.0190   68.1610   67.4470 C   0  0  0  0  0  0  0  0  0  0  0  0
    1.7520   68.9450   66.1670 C   0  0  0  0  0  0  0  0  0  0  0  0
    0.6610   68.2970   65.3050 N   0  0  1  0  0  4  0  0  0  0  0  0
   -0.6120   68.1260   66.1350 C   0  0  0  0  0  0  0  0  0  0  0  0
   -0.3590   67.3290   67.4070 C   0  0  0  0  0  0  0  0  0  0  0  0
    0.3430   69.2690   64.1590 C   0  0  0  0  0  0  0  0  0  0  0  0
    1.1800   66.9620   64.7040 C   0  0  0  0  0  0  0  0  0  0  0  0
    2.4600   67.0200   63.9040 C   0  0  0  0  0  0  0  0  0  0  0  0
    2.5960   67.9300   62.8410 C   0  0  0  0  0  0  0  0  0  0  0  0
    3.7750   67.9790   62.0940 C   0  0  0  0  0  0  0  0  0  0  0  0
    4.8330   67.1290   62.4040 C   0  0  0  0  0  0  0  0  0  0  0  0
    4.7200   66.2350   63.4640 C   0  0  0  0  0  0  0  0  0  0  0  0
    3.5420   66.1830   64.2140 C   0  0  0  0  0  0  0  0  0  0  0  0
   -0.2309   65.3203   69.0568 H   0  0  0  0  0  0  0  0  0  0  0  0
   -1.0932   66.6888   69.8677 H   0  0  0  0  0  0  0  0  0  0  0  0
    4.7250   60.7223   68.6796 H   0  0  0  0  0  0  0  0  0  0  0  0
    3.6282   62.9576   68.6579 H   0  0  0  0  0  0  0  0  0  0  0  0
    2.2377   59.5369   71.9987 H   0  0  0  0  0  0  0  0  0  0  0  0
    0.5920   61.1071   72.9275 H   0  0  0  0  0  0  0  0  0  0  0  0
   -0.5116   63.3398   72.9084 H   0  0  0  0  0  0  0  0  0  0  0  0
    1.9792   64.5335   69.5822 H   0  0  0  0  0  0  0  0  0  0  0  0
    3.4023   57.9163   72.2401 H   0  0  0  0  0  0  0  0  0  0  0  0
    2.2260   57.8980   70.8826 H   0  0  0  0  0  0  0  0  0  0  0  0
    3.6153   56.7593   70.8826 H   0  0  0  0  0  0  0  0  0  0  0  0
    1.1795   67.6845   70.3715 H   0  0  0  0  0  0  0  0  0  0  0  0
    1.8589   66.4027   69.2519 H   0  0  0  0  0  0  0  0  0  0  0  0
    0.4341   68.9301   68.6428 H   0  0  0  0  0  0  0  0  0  0  0  0
    2.7465   68.7173   68.0563 H   0  0  0  0  0  0  0  0  0  0  0  0
    2.4052   67.1721   67.1591 H   0  0  0  0  0  0  0  0  0  0  0  0
    1.4328   69.9628   66.4355 H   0  0  0  0  0  0  0  0  0  0  0  0
    2.6820   68.9578   65.5797 H   0  0  0  0  0  0  0  0  0  0  0  0
   -0.9940   69.1205   66.4088 H   0  0  0  0  0  0  0  0  0  0  0  0
   -1.3432   67.5733   65.5268 H   0  0  0  0  0  0  0  0  0  0  0  0
   -1.2892   67.2960   67.9932 H   0  0  0  0  0  0  0  0  0  0  0  0
   -0.0314   66.3218   67.1101 H   0  0  0  0  0  0  0  0  0  0  0  0
    0.0265   70.2365   64.5760 H   0  0  0  0  0  0  0  0  0  0  0  0
    1.2410   69.4126   63.5402 H   0  0  0  0  0  0  0  0  0  0  0  0
   -0.4662   68.8541   63.5402 H   0  0  0  0  0  0  0  0  0  0  0  0
    1.3419   66.2636   65.5383 H   0  0  0  0  0  0  0  0  0  0  0  0
    0.4076   66.6544   63.9838 H   0  0  0  0  0  0  0  0  0  0  0  0
    1.7665   68.6094   62.5955 H   0  0  0  0  0  0  0  0  0  0  0  0
    3.8677   68.6900   61.2598 H   0  0  0  0  0  0  0  0  0  0  0  0
    5.7586   67.1642   61.8107 H   0  0  0  0  0  0  0  0  0  0  0  0
    5.5590   65.5682   63.7120 H   0  0  0  0  0  0  0  0  0  0  0  0
    3.4625   65.4790   65.0555 H   0  0  0  0  0  0  0  0  0  0  0  0
  2  1  1  0
  3  2  2  0
  5  4  2  0
  6  5  1  0
  7  6  2  0
  8  7  1  0
  9  8  2  0
  9  4  1  0
 10  8  1  0
 11 10  2  0
 12 11  1  0
 12  2  1  0
 13 12  2  0
 13  7  1  0
 15  4  1  0
 15 14  1  0
 16  1  1  0
 17 16  1  0
 18 17  1  0
 19 18  1  0
 20 19  1  0
 21 20  1  0
 22 21  1  0
 22 17  1  0
 20 23  1  6
 24 20  1  0
 25 24  1  0
 26 25  2  0
 27 26  1  0
 28 27  2  0
 29 28  1  0
 30 29  2  0
 30 25  1  0
  1 31  1  0
  1 32  1  0
  5 33  1  0
  6 34  1  0
  9 35  1  0
 10 36  1  0
 11 37  1  0
 13 38  1  0
 14 39  1  0
 14 40  1  0
 14 41  1  0
 16 42  1  0
 16 43  1  0
 17 44  1  1
 18 45  1  0
 18 46  1  0
 19 47  1  0
 19 48  1  0
 21 49  1  0
 21 50  1  0
 22 51  1  0
 22 52  1  0
 23 53  1  0
 23 54  1  0
 23 55  1  0
 24 56  1  0
 24 57  1  0
 26 58  1  0
 27 59  1  0
 28 60  1  0
 29 61  1  0
 30 62  1  0
M  CHG  1  20   1
M  END
>  <score>  (6) 
-9.946

$$$$
=
     RDKit          3D

 62 65  0  0  0  0  0  0  0  0999 V2000
    0.4000   65.0680   70.5200 C   0  0  0  0  0  0  0  0  0  0  0  0
    1.3540   63.8840   70.5940 C   0  0  0  0  0  0  0  0  0  0  0  0
    2.4430   63.9000   70.0230 O   0  0  0  0  0  0  0  0  0  0  0  0
    0.8750   58.1400   73.6710 C   0  0  0  0  0  0  0  0  0  0  0  0
    2.0870   58.2110   72.9890 C   0  0  0  0  0  0  0  0  0  0  0  0
    2.4130   59.3550   72.2530 C   0  0  0  0  0  0  0  0  0  0  0  0
    1.5320   60.4470   72.1880 C   0  0  0  0  0  0  0  0  0  0  0  0
    0.3040   60.3790   72.8780 C   0  0  0  0  0  0  0  0  0  0  0  0
   -0.0080   59.2230   73.6120 C   0  0  0  0  0  0  0  0  0  0  0  0
   -0.5800   61.4680   72.8160 C   0  0  0  0  0  0  0  0  0  0  0  0
   -0.2580   62.6130   72.0810 C   0  0  0  0  0  0  0  0  0  0  0  0
    0.9570   62.6850   71.3940 C   0  0  0  0  0  0  0  0  0  0  0  0
    1.8460   61.6010   71.4530 C   0  0  0  0  0  0  0  0  0  0  0  0
   -0.3060   56.0770   73.7500 C   0  0  0  0  0  0  0  0  0  0  0  0
    0.4360   57.0860   74.4240 O   0  0  0  0  0  0  0  0  0  0  0  0
    1.1560   66.3750   70.2570 C   0  0  0  0  0  0  0  0  0  0  0  0
    0.5140   67.2730   69.1820 C   0  0  1  0  0  0  0  0  0  0  0  0
    1.5450   68.1500   68.4650 C   0  0  0  0  0  0  0  0  0  0  0  0
    0.9350   68.9440   67.3150 C   0  0  0  0  0  0  0  0  0  0  0  0
    0.2110   68.0440   66.3060 N   0  0  1  0  0  4  0  0  0  0  0  0
   -0.8430   67.2070   67.0320 C   0  0  0  0  0  0  0  0  0  0  0  0
   -0.2400   66.3960   68.1720 C   0  0  0  0  0  0  0  0  0  0  0  0
   -0.5220   68.9600   65.3160 C   0  0  0  0  0  0  0  0  0  0  0  0
    1.2430   67.1820   65.5260 C   0  0  0  0  0  0  0  0  0  0  0  0
    2.3600   67.9160   64.8230 C   0  0  0  0  0  0  0  0  0  0  0  0
    2.3680   68.0280   63.4220 C   0  0  0  0  0  0  0  0  0  0  0  0
    3.4030   68.6980   62.7680 C   0  0  0  0  0  0  0  0  0  0  0  0
    4.4380   69.2700   63.5040 C   0  0  0  0  0  0  0  0  0  0  0  0
    4.4350   69.1820   64.8930 C   0  0  0  0  0  0  0  0  0  0  0  0
    3.4000   68.5130   65.5500 C   0  0  0  0  0  0  0  0  0  0  0  0
   -0.3186   64.8991   69.7044 H   0  0  0  0  0  0  0  0  0  0  0  0
   -0.1209   65.1557   71.4848 H   0  0  0  0  0  0  0  0  0  0  0  0
    2.7896   57.3656   73.0291 H   0  0  0  0  0  0  0  0  0  0  0  0
    3.3728   59.4000   71.7176 H   0  0  0  0  0  0  0  0  0  0  0  0
   -0.9654   59.1683   74.1509 H   0  0  0  0  0  0  0  0  0  0  0  0
   -1.5389   61.4197   73.3529 H   0  0  0  0  0  0  0  0  0  0  0  0
   -0.9615   63.4578   72.0434 H   0  0  0  0  0  0  0  0  0  0  0  0
    2.8038   61.6563   70.9150 H   0  0  0  0  0  0  0  0  0  0  0  0
   -0.7884   55.4210   74.4895 H   0  0  0  0  0  0  0  0  0  0  0  0
   -1.0753   56.5469   73.1196 H   0  0  0  0  0  0  0  0  0  0  0  0
    0.3719   55.4827   73.1196 H   0  0  0  0  0  0  0  0  0  0  0  0
    1.2008   66.9425   71.1982 H   0  0  0  0  0  0  0  0  0  0  0  0
    2.1503   66.0936   69.8800 H   0  0  0  0  0  0  0  0  0  0  0  0
   -0.1881   67.9548   69.6842 H   0  0  0  0  0  0  0  0  0  0  0  0
    1.9752   68.8549   69.1916 H   0  0  0  0  0  0  0  0  0  0  0  0
    2.3138   67.4861   68.0429 H   0  0  0  0  0  0  0  0  0  0  0  0
    0.2139   69.6655   67.7266 H   0  0  0  0  0  0  0  0  0  0  0  0
    1.7541   69.4524   66.7853 H   0  0  0  0  0  0  0  0  0  0  0  0
   -1.6106   67.8799   67.4418 H   0  0  0  0  0  0  0  0  0  0  0  0
   -1.2777   66.5035   66.3067 H   0  0  0  0  0  0  0  0  0  0  0  0
   -1.0503   65.8695   68.6976 H   0  0  0  0  0  0  0  0  0  0  0  0
    0.4832   65.6915   67.7353 H   0  0  0  0  0  0  0  0  0  0  0  0
   -1.1150   69.7010   65.8721 H   0  0  0  0  0  0  0  0  0  0  0  0
    0.2131   69.4788   64.6832 H   0  0  0  0  0  0  0  0  0  0  0  0
   -1.1894   68.3565   64.6832 H   0  0  0  0  0  0  0  0  0  0  0  0
    1.7033   66.4863   66.2431 H   0  0  0  0  0  0  0  0  0  0  0  0
    0.6650   66.7046   64.7210 H   0  0  0  0  0  0  0  0  0  0  0  0
    1.5506   67.5833   62.8353 H   0  0  0  0  0  0  0  0  0  0  0  0
    3.4014   68.7744   61.6707 H   0  0  0  0  0  0  0  0  0  0  0  0
    5.2576   69.7912   62.9876 H   0  0  0  0  0  0  0  0  0  0  0  0
    5.2490   69.6400   65.4741 H   0  0  0  0  0  0  0  0  0  0  0  0
    3.4006   68.4538   66.6484 H   0  0  0  0  0  0  0  0  0  0  0  0
  2  1  1  0
  3  2  2  0
  5  4  2  0
  6  5  1  0
  7  6  2  0
  8  7  1  0
  9  8  2  0
  9  4  1  0
 10  8  1  0
 11 10  2  0
 12 11  1  0
 12  2  1  0
 13 12  2  0
 13  7  1  0
 15  4  1  0
 15 14  1  0
 16  1  1  0
 17 16  1  0
 18 17  1  0
 19 18  1  0
 20 19  1  0
 21 20  1  0
 22 21  1  0
 22 17  1  0
 20 23  1  6
 24 20  1  0
 25 24  1  0
 26 25  2  0
 27 26  1  0
 28 27  2  0
 29 28  1  0
 30 29  2  0
 30 25  1  0
  1 31  1  0
  1 32  1  0
  5 33  1  0
  6 34  1  0
  9 35  1  0
 10 36  1  0
 11 37  1  0
 13 38  1  0
 14 39  1  0
 14 40  1  0
 14 41  1  0
 16 42  1  0
 16 43  1  0
 17 44  1  1
 18 45  1  0
 18 46  1  0
 19 47  1  0
 19 48  1  0
 21 49  1  0
 21 50  1  0
 22 51  1  0
 22 52  1  0
 23 53  1  0
 23 54  1  0
 23 55  1  0
 24 56  1  0
 24 57  1  0
 26 58  1  0
 27 59  1  0
 28 60  1  0
 29 61  1  0
 30 62  1  0
M  CHG  1  20   1
M  END
>  <score>  (7) 
-9.786

$$$$
=
     RDKit          3D

 62 65  0  0  0  0  0  0  0  0999 V2000
    1.9470   64.9970   70.5450 C   0  0  0  0  0  0  0  0  0  0  0  0
    2.4570   63.7080   69.9160 C   0  0  0  0  0  0  0  0  0  0  0  0
    2.9920   63.7010   68.8090 O   0  0  0  0  0  0  0  0  0  0  0  0
    0.5950   58.6690   73.6360 C   0  0  0  0  0  0  0  0  0  0  0  0
   -0.3790   59.6640   73.6660 C   0  0  0  0  0  0  0  0  0  0  0  0
   -0.1990   60.8460   72.9390 C   0  0  0  0  0  0  0  0  0  0  0  0
    0.9580   61.0520   72.1710 C   0  0  0  0  0  0  0  0  0  0  0  0
    1.9470   60.0460   72.1380 C   0  0  0  0  0  0  0  0  0  0  0  0
    1.7500   58.8660   72.8730 C   0  0  0  0  0  0  0  0  0  0  0  0
    3.1050   60.2470   71.3700 C   0  0  0  0  0  0  0  0  0  0  0  0
    3.2890   61.4270   70.6440 C   0  0  0  0  0  0  0  0  0  0  0  0
    2.3140   62.4280   70.6750 C   0  0  0  0  0  0  0  0  0  0  0  0
    1.1520   62.2330   71.4370 C   0  0  0  0  0  0  0  0  0  0  0  0
   -0.3450   56.4890   73.7800 C   0  0  0  0  0  0  0  0  0  0  0  0
    0.5440   57.4720   74.2950 O   0  0  0  0  0  0  0  0  0  0  0  0
    0.4460   65.1810   70.2960 C   0  0  0  0  0  0  0  0  0  0  0  0
    0.0790   66.4980   69.5870 C   0  0  1  0  0  0  0  0  0  0  0  0
    1.3050   67.2020   68.9950 C   0  0  0  0  0  0  0  0  0  0  0  0
    0.9320   68.4370   68.1830 C   0  0  0  0  0  0  0  0  0  0  0  0
   -0.0830   68.1210   67.0770 N   0  0  1  0  0  4  0  0  0  0  0  0
   -1.3170   67.4590   67.6900 C   0  0  0  0  0  0  0  0  0  0  0  0
   -0.9570   66.2140   68.4890 C   0  0  0  0  0  0  0  0  0  0  0  0
   -0.5260   69.4580   66.4660 C   0  0  0  0  0  0  0  0  0  0  0  0
    0.5860   67.2590   65.9720 C   0  0  0  0  0  0  0  0  0  0  0  0
    1.7000   67.9000   65.1780 C   0  0  0  0  0  0  0  0  0  0  0  0
    2.8910   68.2930   65.8110 C   0  0  0  0  0  0  0  0  0  0  0  0
    3.9190   68.8940   65.0820 C   0  0  0  0  0  0  0  0  0  0  0  0
    3.7730   69.1010   63.7120 C   0  0  0  0  0  0  0  0  0  0  0  0
    2.6060   68.7020   63.0690 C   0  0  0  0  0  0  0  0  0  0  0  0
    1.5760   68.1000   63.7950 C   0  0  0  0  0  0  0  0  0  0  0  0
    2.1291   64.9633   71.6293 H   0  0  0  0  0  0  0  0  0  0  0  0
    2.4815   65.8424   70.0872 H   0  0  0  0  0  0  0  0  0  0  0  0
   -1.2919   59.5204   74.2626 H   0  0  0  0  0  0  0  0  0  0  0  0
   -0.9751   61.6249   72.9697 H   0  0  0  0  0  0  0  0  0  0  0  0
    2.5199   58.0807   72.8481 H   0  0  0  0  0  0  0  0  0  0  0  0
    3.8780   59.4650   71.3393 H   0  0  0  0  0  0  0  0  0  0  0  0
    4.2023   61.5681   70.0474 H   0  0  0  0  0  0  0  0  0  0  0  0
    0.3812   63.0175   71.4596 H   0  0  0  0  0  0  0  0  0  0  0  0
   -0.8262   55.9569   74.6139 H   0  0  0  0  0  0  0  0  0  0  0  0
   -1.1144   56.9772   73.1639 H   0  0  0  0  0  0  0  0  0  0  0  0
    0.2179   55.7724   73.1639 H   0  0  0  0  0  0  0  0  0  0  0  0
    0.0948   64.3449   69.6734 H   0  0  0  0  0  0  0  0  0  0  0  0
   -0.0365   65.2096   71.2841 H   0  0  0  0  0  0  0  0  0  0  0  0
   -0.3475   67.1789   70.3383 H   0  0  0  0  0  0  0  0  0  0  0  0
    1.9681   67.5075   69.8177 H   0  0  0  0  0  0  0  0  0  0  0  0
    1.8030   66.4934   68.3169 H   0  0  0  0  0  0  0  0  0  0  0  0
    0.4962   69.1870   68.8595 H   0  0  0  0  0  0  0  0  0  0  0  0
    1.8472   68.8134   67.7027 H   0  0  0  0  0  0  0  0  0  0  0  0
   -1.8118   68.1793   68.3581 H   0  0  0  0  0  0  0  0  0  0  0  0
   -1.9837   67.1557   66.8693 H   0  0  0  0  0  0  0  0  0  0  0  0
   -1.8703   65.8204   68.9592 H   0  0  0  0  0  0  0  0  0  0  0  0
   -0.5145   65.4866   67.7925 H   0  0  0  0  0  0  0  0  0  0  0  0
   -0.7616   70.1691   67.2715 H   0  0  0  0  0  0  0  0  0  0  0  0
    0.2857   69.8639   65.8444 H   0  0  0  0  0  0  0  0  0  0  0  0
   -1.4195   69.2989   65.8444 H   0  0  0  0  0  0  0  0  0  0  0  0
    0.9984   66.3616   66.4563 H   0  0  0  0  0  0  0  0  0  0  0  0
   -0.2116   67.0676   65.2391 H   0  0  0  0  0  0  0  0  0  0  0  0
    3.0148   68.1257   66.8911 H   0  0  0  0  0  0  0  0  0  0  0  0
    4.8444   69.2041   65.5894 H   0  0  0  0  0  0  0  0  0  0  0  0
    4.5806   69.5799   63.1389 H   0  0  0  0  0  0  0  0  0  0  0  0
    2.4941   68.8610   61.9863 H   0  0  0  0  0  0  0  0  0  0  0  0
    0.6594   67.7798   63.2779 H   0  0  0  0  0  0  0  0  0  0  0  0
  2  1  1  0
  3  2  2  0
  5  4  2  0
  6  5  1  0
  7  6  2  0
  8  7  1  0
  9  8  2  0
  9  4  1  0
 10  8  1  0
 11 10  2  0
 12 11  1  0
 12  2  1  0
 13 12  2  0
 13  7  1  0
 15  4  1  0
 15 14  1  0
 16  1  1  0
 17 16  1  0
 18 17  1  0
 19 18  1  0
 20 19  1  0
 21 20  1  0
 22 21  1  0
 22 17  1  0
 20 23  1  6
 24 20  1  0
 25 24  1  0
 26 25  2  0
 27 26  1  0
 28 27  2  0
 29 28  1  0
 30 29  2  0
 30 25  1  0
  1 31  1  0
  1 32  1  0
  5 33  1  0
  6 34  1  0
  9 35  1  0
 10 36  1  0
 11 37  1  0
 13 38  1  0
 14 39  1  0
 14 40  1  0
 14 41  1  0
 16 42  1  0
 16 43  1  0
 17 44  1  1
 18 45  1  0
 18 46  1  0
 19 47  1  0
 19 48  1  0
 21 49  1  0
 21 50  1  0
 22 51  1  0
 22 52  1  0
 23 53  1  0
 23 54  1  0
 23 55  1  0
 24 56  1  0
 24 57  1  0
 26 58  1  0
 27 59  1  0
 28 60  1  0
 29 61  1  0
 30 62  1  0
M  CHG  1  20   1
M  END
>  <score>  (8) 
-9.641

$$$$
=
     RDKit          3D

 62 65  0  0  0  0  0  0  0  0999 V2000
    3.5880   58.9260   72.2010 C   0  0  0  0  0  0  0  0  0  0  0  0
    3.7460   59.5760   70.8330 C   0  0  0  0  0  0  0  0  0  0  0  0
    4.1180   58.9310   69.8550 O   0  0  0  0  0  0  0  0  0  0  0  0
    1.0060   65.4840   70.3120 C   0  0  0  0  0  0  0  0  0  0  0  0
    0.0180   64.5190   70.4900 C   0  0  0  0  0  0  0  0  0  0  0  0
    0.3680   63.1720   70.6260 C   0  0  0  0  0  0  0  0  0  0  0  0
    1.7120   62.7680   70.5880 C   0  0  0  0  0  0  0  0  0  0  0  0
    2.7160   63.7430   70.4080 C   0  0  0  0  0  0  0  0  0  0  0  0
    2.3470   65.0910   70.2730 C   0  0  0  0  0  0  0  0  0  0  0  0
    4.0610   63.3440   70.3700 C   0  0  0  0  0  0  0  0  0  0  0  0
    4.4160   61.9980   70.5060 C   0  0  0  0  0  0  0  0  0  0  0  0
    3.4250   61.0280   70.6810 C   0  0  0  0  0  0  0  0  0  0  0  0
    2.0780   61.4200   70.7240 C   0  0  0  0  0  0  0  0  0  0  0  0
    1.0650   67.3870   68.8860 C   0  0  0  0  0  0  0  0  0  0  0  0
    0.8010   66.8290   70.1670 O   0  0  0  0  0  0  0  0  0  0  0  0
    2.5870   57.7660   72.1520 C   0  0  0  0  0  0  0  0  0  0  0  0
    1.5390   57.7870   73.2810 C   0  0  1  0  0  0  0  0  0  0  0  0
    2.1700   57.5920   74.6640 C   0  0  0  0  0  0  0  0  0  0  0  0
    1.1560   57.7410   75.7940 C   0  0  0  0  0  0  0  0  0  0  0  0
    0.4120   59.0810   75.7340 N   0  0  1  0  0  4  0  0  0  0  0  0
   -0.2470   59.2390   74.3630 C   0  0  0  0  0  0  0  0  0  0  0  0
    0.7610   59.1100   73.2280 C   0  0  0  0  0  0  0  0  0  0  0  0
   -0.7060   59.0330   76.7850 C   0  0  0  0  0  0  0  0  0  0  0  0
    1.3810   60.2440   76.0820 C   0  0  0  0  0  0  0  0  0  0  0  0
    1.0370   61.6120   75.5420 C   0  0  0  0  0  0  0  0  0  0  0  0
   -0.0330   62.3440   76.0850 C   0  0  0  0  0  0  0  0  0  0  0  0
   -0.3590   63.6050   75.5820 C   0  0  0  0  0  0  0  0  0  0  0  0
    0.3830   64.1530   74.5390 C   0  0  0  0  0  0  0  0  0  0  0  0
    1.4550   63.4470   74.0020 C   0  0  0  0  0  0  0  0  0  0  0  0
    1.7850   62.1850   74.5030 C   0  0  0  0  0  0  0  0  0  0  0  0
    4.5649   58.5431   72.5312 H   0  0  0  0  0  0  0  0  0  0  0  0
    3.2098   59.6826   72.9042 H   0  0  0  0  0  0  0  0  0  0  0  0
   -1.0403   64.8170   70.5237 H   0  0  0  0  0  0  0  0  0  0  0  0
   -0.4210   62.4182   70.7647 H   0  0  0  0  0  0  0  0  0  0  0  0
    3.1283   65.8527   70.1338 H   0  0  0  0  0  0  0  0  0  0  0  0
    4.8472   64.1007   70.2313 H   0  0  0  0  0  0  0  0  0  0  0  0
    5.4752   61.7028   70.4752 H   0  0  0  0  0  0  0  0  0  0  0  0
    1.2969   60.6587   70.8665 H   0  0  0  0  0  0  0  0  0  0  0  0
    1.5326   68.3754   69.0059 H   0  0  0  0  0  0  0  0  0  0  0  0
    1.7452   66.7245   68.3306 H   0  0  0  0  0  0  0  0  0  0  0  0
    0.1214   67.4927   68.3306 H   0  0  0  0  0  0  0  0  0  0  0  0
    2.0572   57.8082   71.1889 H   0  0  0  0  0  0  0  0  0  0  0  0
    3.1690   56.8412   72.2786 H   0  0  0  0  0  0  0  0  0  0  0  0
    0.8527   56.9421   73.1227 H   0  0  0  0  0  0  0  0  0  0  0  0
    2.6078   56.5841   74.7133 H   0  0  0  0  0  0  0  0  0  0  0  0
    2.9349   58.3715   74.7958 H   0  0  0  0  0  0  0  0  0  0  0  0
    0.4220   56.9250   75.7208 H   0  0  0  0  0  0  0  0  0  0  0  0
    1.7048   57.7026   76.7465 H   0  0  0  0  0  0  0  0  0  0  0  0
   -1.0152   58.4604   74.2462 H   0  0  0  0  0  0  0  0  0  0  0  0
   -0.6896   60.2448   74.3122 H   0  0  0  0  0  0  0  0  0  0  0  0
    0.2229   59.1648   72.2702 H   0  0  0  0  0  0  0  0  0  0  0  0
    1.4874   59.9296   73.3309 H   0  0  0  0  0  0  0  0  0  0  0  0
   -0.2637   59.0520   77.7920 H   0  0  0  0  0  0  0  0  0  0  0  0
   -1.3662   59.9036   76.6580 H   0  0  0  0  0  0  0  0  0  0  0  0
   -1.2892   58.1090   76.6580 H   0  0  0  0  0  0  0  0  0  0  0  0
    1.4246   60.3220   77.1784 H   0  0  0  0  0  0  0  0  0  0  0  0
    2.3312   59.9773   75.5962 H   0  0  0  0  0  0  0  0  0  0  0  0
   -0.6188   61.9196   76.9137 H   0  0  0  0  0  0  0  0  0  0  0  0
   -1.2028   64.1660   76.0101 H   0  0  0  0  0  0  0  0  0  0  0  0
    0.1217   65.1440   74.1396 H   0  0  0  0  0  0  0  0  0  0  0  0
    2.0438   63.8831   73.1816 H   0  0  0  0  0  0  0  0  0  0  0  0
    2.6388   61.6362   74.0789 H   0  0  0  0  0  0  0  0  0  0  0  0
  2  1  1  0
  3  2  2  0
  5  4  2  0
  6  5  1  0
  7  6  2  0
  8  7  1  0
  9  8  2  0
  9  4  1  0
 10  8  1  0
 11 10  2  0
 12 11  1  0
 12  2  1  0
 13 12  2  0
 13  7  1  0
 15  4  1  0
 15 14  1  0
 16  1  1  0
 17 16  1  0
 18 17  1  0
 19 18  1  0
 20 19  1  0
 21 20  1  0
 22 21  1  0
 22 17  1  0
 20 23  1  1
 24 20  1  0
 25 24  1  0
 26 25  2  0
 27 26  1  0
 28 27  2  0
 29 28  1  0
 30 29  2  0
 30 25  1  0
  1 31  1  0
  1 32  1  0
  5 33  1  0
  6 34  1  0
  9 35  1  0
 10 36  1  0
 11 37  1  0
 13 38  1  0
 14 39  1  0
 14 40  1  0
 14 41  1  0
 16 42  1  0
 16 43  1  0
 17 44  1  6
 18 45  1  0
 18 46  1  0
 19 47  1  0
 19 48  1  0
 21 49  1  0
 21 50  1  0
 22 51  1  0
 22 52  1  0
 23 53  1  0
 23 54  1  0
 23 55  1  0
 24 56  1  0
 24 57  1  0
 26 58  1  0
 27 59  1  0
 28 60  1  0
 29 61  1  0
 30 62  1  0
M  CHG  1  20   1
M  END
>  <score>  (9) 
-9.51

$$$$
