=
     RDKit          3D

 19 19  0  0  0  0  0  0  0  0999 V2000
    4.5580   70.5740   70.0550 O   0  0  0  0  0  0  0  0  0  0  0  0
    4.5970   70.5620   68.8320 C   0  0  0  0  0  0  0  0  0  0  0  0
    5.8030   70.9600   68.0010 C   0  0  1  0  0  0  0  0  0  0  0  0
    7.0560   71.0760   68.8650 C   0  0  0  0  0  0  0  0  0  0  0  0
    6.0230   69.9550   66.8680 C   0  0  0  0  0  0  0  0  0  0  0  0
    4.7680   69.8070   66.0110 C   0  0  0  0  0  0  0  0  0  0  0  0
    3.5940   69.3020   66.8360 C   0  0  0  0  0  0  0  0  0  0  0  0
    3.3570   70.1750   68.0390 C   0  0  0  0  0  0  0  0  0  0  0  0
    2.2450   70.5240   68.4110 O   0  0  0  0  0  0  0  0  0  0  0  0
    5.6035   71.9491   67.5630 H   0  0  0  0  0  0  0  0  0  0  0  0
    6.7725   71.0498   69.9275 H   0  0  0  0  0  0  0  0  0  0  0  0
    7.7320   70.2366   68.6451 H   0  0  0  0  0  0  0  0  0  0  0  0
    7.5665   72.0252   68.6451 H   0  0  0  0  0  0  0  0  0  0  0  0
    6.8514   70.3043   66.2341 H   0  0  0  0  0  0  0  0  0  0  0  0
    6.2601   68.9765   67.3110 H   0  0  0  0  0  0  0  0  0  0  0  0
    4.5096   70.7861   65.5813 H   0  0  0  0  0  0  0  0  0  0  0  0
    4.9742   69.0760   65.2153 H   0  0  0  0  0  0  0  0  0  0  0  0
    2.6897   69.3012   66.2098 H   0  0  0  0  0  0  0  0  0  0  0  0
    3.8260   68.2848   67.1847 H   0  0  0  0  0  0  0  0  0  0  0  0
  2  1  2  0
  3  2  1  0
  4  3  1  0
  5  3  1  0
  6  5  1  0
  7  6  1  0
  8  7  1  0
  8  2  1  0
  9  8  2  0
  3 10  1  6
  4 11  1  0
  4 12  1  0
  4 13  1  0
  5 14  1  0
  5 15  1  0
  6 16  1  0
  6 17  1  0
  7 18  1  0
  7 19  1  0
M  END
>  <score>  (1) 
-6.384

$$$$
=
     RDKit          3D

 19 19  0  0  0  0  0  0  0  0999 V2000
    2.9900   69.6220   66.6050 O   0  0  0  0  0  0  0  0  0  0  0  0
    4.0720   69.8350   67.1350 C   0  0  0  0  0  0  0  0  0  0  0  0
    5.4190   69.5990   66.4770 C   0  0  1  0  0  0  0  0  0  0  0  0
    5.2680   69.3620   64.9770 C   0  0  0  0  0  0  0  0  0  0  0  0
    6.3550   70.7800   66.7440 C   0  0  0  0  0  0  0  0  0  0  0  0
    6.4940   71.0470   68.2400 C   0  0  0  0  0  0  0  0  0  0  0  0
    5.1510   71.3900   68.8660 C   0  0  0  0  0  0  0  0  0  0  0  0
    4.1250   70.3280   68.5750 C   0  0  0  0  0  0  0  0  0  0  0  0
    3.3360   69.9040   69.4070 O   0  0  0  0  0  0  0  0  0  0  0  0
    5.8594   68.6923   66.9173 H   0  0  0  0  0  0  0  0  0  0  0  0
    4.6840   68.4454   64.8076 H   0  0  0  0  0  0  0  0  0  0  0  0
    4.7481   70.2175   64.5211 H   0  0  0  0  0  0  0  0  0  0  0  0
    6.2631   69.2523   64.5211 H   0  0  0  0  0  0  0  0  0  0  0  0
    7.3470   70.5531   66.3264 H   0  0  0  0  0  0  0  0  0  0  0  0
    5.9295   71.6760   66.2684 H   0  0  0  0  0  0  0  0  0  0  0  0
    6.8982   70.1482   68.7286 H   0  0  0  0  0  0  0  0  0  0  0  0
    7.1711   71.9027   68.3791 H   0  0  0  0  0  0  0  0  0  0  0  0
    5.2756   71.4790   69.9553 H   0  0  0  0  0  0  0  0  0  0  0  0
    4.7997   72.3394   68.4357 H   0  0  0  0  0  0  0  0  0  0  0  0
  2  1  2  0
  3  2  1  0
  4  3  1  0
  5  3  1  0
  6  5  1  0
  7  6  1  0
  8  7  1  0
  8  2  1  0
  9  8  2  0
  3 10  1  1
  4 11  1  0
  4 12  1  0
  4 13  1  0
  5 14  1  0
  5 15  1  0
  6 16  1  0
  6 17  1  0
  7 18  1  0
  7 19  1  0
M  END
>  <score>  (2) 
-6.014

$$$$
=
     RDKit          3D

 19 19  0  0  0  0  0  0  0  0999 V2000
    3.5660   71.0690   69.5180 O   0  0  0  0  0  0  0  0  0  0  0  0
    4.1880   70.4670   68.6540 C   0  0  0  0  0  0  0  0  0  0  0  0
    3.5730   69.4930   67.6660 C   0  0  1  0  0  0  0  0  0  0  0  0
    2.0500   69.5880   67.6710 C   0  0  0  0  0  0  0  0  0  0  0  0
    4.1230   69.7430   66.2600 C   0  0  0  0  0  0  0  0  0  0  0  0
    5.6480   69.6790   66.2440 C   0  0  0  0  0  0  0  0  0  0  0  0
    6.2530   70.7350   67.1560 C   0  0  0  0  0  0  0  0  0  0  0  0
    5.6980   70.6350   68.5520 C   0  0  0  0  0  0  0  0  0  0  0  0
    6.3830   70.7300   69.5600 O   0  0  0  0  0  0  0  0  0  0  0  0
    3.8472   68.4740   67.9767 H   0  0  0  0  0  0  0  0  0  0  0  0
    1.6874   69.6106   68.7093 H   0  0  0  0  0  0  0  0  0  0  0  0
    1.7383   70.5073   67.1537 H   0  0  0  0  0  0  0  0  0  0  0  0
    1.6264   68.7145   67.1537 H   0  0  0  0  0  0  0  0  0  0  0  0
    3.7246   68.9777   65.5776 H   0  0  0  0  0  0  0  0  0  0  0  0
    3.8133   70.7484   65.9387 H   0  0  0  0  0  0  0  0  0  0  0  0
    5.9688   68.6838   66.5854 H   0  0  0  0  0  0  0  0  0  0  0  0
    5.9935   69.8670   65.2167 H   0  0  0  0  0  0  0  0  0  0  0  0
    7.3434   70.5945   67.1929 H   0  0  0  0  0  0  0  0  0  0  0  0
    6.0020   71.7272   66.7528 H   0  0  0  0  0  0  0  0  0  0  0  0
  2  1  2  0
  3  2  1  0
  4  3  1  0
  5  3  1  0
  6  5  1  0
  7  6  1  0
  8  7  1  0
  8  2  1  0
  9  8  2  0
  3 10  1  1
  4 11  1  0
  4 12  1  0
  4 13  1  0
  5 14  1  0
  5 15  1  0
  6 16  1  0
  6 17  1  0
  7 18  1  0
  7 19  1  0
M  END
>  <score>  (3) 
-5.942

$$$$
=
     RDKit          3D

 19 19  0  0  0  0  0  0  0  0999 V2000
    3.2860   69.1840   66.8990 O   0  0  0  0  0  0  0  0  0  0  0  0
    4.2170   69.9070   67.2270 C   0  0  0  0  0  0  0  0  0  0  0  0
    4.2280   70.8000   68.4550 C   0  0  1  0  0  0  0  0  0  0  0  0
    3.0760   70.4570   69.3970 C   0  0  0  0  0  0  0  0  0  0  0  0
    5.5690   70.6870   69.1820 C   0  0  0  0  0  0  0  0  0  0  0  0
    6.7330   70.9990   68.2450 C   0  0  0  0  0  0  0  0  0  0  0  0
    6.7740   70.0270   67.0760 C   0  0  0  0  0  0  0  0  0  0  0  0
    5.4570   69.9900   66.3490 C   0  0  0  0  0  0  0  0  0  0  0  0
    5.3590   69.9750   65.1300 O   0  0  0  0  0  0  0  0  0  0  0  0
    4.0930   71.8399   68.1226 H   0  0  0  0  0  0  0  0  0  0  0  0
    3.4125   70.5572   70.4395 H   0  0  0  0  0  0  0  0  0  0  0  0
    2.2365   71.1442   69.2150 H   0  0  0  0  0  0  0  0  0  0  0  0
    2.7491   69.4226   69.2150 H   0  0  0  0  0  0  0  0  0  0  0  0
    5.5833   71.3982   70.0211 H   0  0  0  0  0  0  0  0  0  0  0  0
    5.6819   69.6552   69.5461 H   0  0  0  0  0  0  0  0  0  0  0  0
    6.6172   72.0218   67.8572 H   0  0  0  0  0  0  0  0  0  0  0  0
    7.6712   70.9026   68.8111 H   0  0  0  0  0  0  0  0  0  0  0  0
    7.5613   70.3422   66.3754 H   0  0  0  0  0  0  0  0  0  0  0  0
    6.9822   69.0207   67.4684 H   0  0  0  0  0  0  0  0  0  0  0  0
  2  1  2  0
  3  2  1  0
  4  3  1  0
  5  3  1  0
  6  5  1  0
  7  6  1  0
  8  7  1  0
  8  2  1  0
  9  8  2  0
  3 10  1  6
  4 11  1  0
  4 12  1  0
  4 13  1  0
  5 14  1  0
  5 15  1  0
  6 16  1  0
  6 17  1  0
  7 18  1  0
  7 19  1  0
M  END
>  <score>  (4) 
-5.611

$$$$
=
     RDKit          3D

 19 19  0  0  0  0  0  0  0  0999 V2000
    5.4130   70.0130   67.7180 O   0  0  0  0  0  0  0  0  0  0  0  0
    4.2910   69.8200   67.2700 C   0  0  0  0  0  0  0  0  0  0  0  0
    3.9840   69.4780   65.8240 C   0  0  1  0  0  0  0  0  0  0  0  0
    5.2530   69.0980   65.0650 C   0  0  0  0  0  0  0  0  0  0  0  0
    2.9550   68.3490   65.7510 C   0  0  0  0  0  0  0  0  0  0  0  0
    1.6910   68.7030   66.5300 C   0  0  0  0  0  0  0  0  0  0  0  0
    1.9980   68.9350   68.0020 C   0  0  0  0  0  0  0  0  0  0  0  0
    3.0780   69.9680   68.1780 C   0  0  0  0  0  0  0  0  0  0  0  0
    3.0370   70.8520   69.0230 O   0  0  0  0  0  0  0  0  0  0  0  0
    3.5603   70.3728   65.3446 H   0  0  0  0  0  0  0  0  0  0  0  0
    6.0517   68.8588   65.7826 H   0  0  0  0  0  0  0  0  0  0  0  0
    5.0532   68.2203   64.4328 H   0  0  0  0  0  0  0  0  0  0  0  0
    5.5685   69.9411   64.4328 H   0  0  0  0  0  0  0  0  0  0  0  0
    2.6900   68.1726   64.6981 H   0  0  0  0  0  0  0  0  0  0  0  0
    3.3970   67.4455   66.1963 H   0  0  0  0  0  0  0  0  0  0  0  0
    1.2532   69.6188   66.1062 H   0  0  0  0  0  0  0  0  0  0  0  0
    0.9859   67.8625   66.4498 H   0  0  0  0  0  0  0  0  0  0  0  0
    1.0849   69.2811   68.5085 H   0  0  0  0  0  0  0  0  0  0  0  0
    2.3487   67.9877   68.4375 H   0  0  0  0  0  0  0  0  0  0  0  0
  2  1  2  0
  3  2  1  0
  4  3  1  0
  5  3  1  0
  6  5  1  0
  7  6  1  0
  8  7  1  0
  8  2  1  0
  9  8  2  0
  3 10  1  6
  4 11  1  0
  4 12  1  0
  4 13  1  0
  5 14  1  0
  5 15  1  0
  6 16  1  0
  6 17  1  0
  7 18  1  0
  7 19  1  0
M  END
>  <score>  (5) 
-5.607

$$$$
=
     RDKit          3D

 19 19  0  0  0  0  0  0  0  0999 V2000
    1.2050   67.6500   68.6040 O   0  0  0  0  0  0  0  0  0  0  0  0
    1.5360   68.1120   67.5210 C   0  0  0  0  0  0  0  0  0  0  0  0
    2.2920   69.4140   67.3300 C   0  0  1  0  0  0  0  0  0  0  0  0
    2.8640   69.9200   68.6520 C   0  0  0  0  0  0  0  0  0  0  0  0
    3.4060   69.2350   66.2960 C   0  0  0  0  0  0  0  0  0  0  0  0
    2.8530   68.7020   64.9770 C   0  0  0  0  0  0  0  0  0  0  0  0
    2.1940   67.3450   65.1640 C   0  0  0  0  0  0  0  0  0  0  0  0
    1.1410   67.3920   66.2390 C   0  0  0  0  0  0  0  0  0  0  0  0
    0.0490   66.8520   66.1400 O   0  0  0  0  0  0  0  0  0  0  0  0
    1.5830   70.1688   66.9592 H   0  0  0  0  0  0  0  0  0  0  0  0
    2.3288   69.4465   69.4883 H   0  0  0  0  0  0  0  0  0  0  0  0
    3.9328   69.6663   68.7101 H   0  0  0  0  0  0  0  0  0  0  0  0
    2.7426   71.0117   68.7101 H   0  0  0  0  0  0  0  0  0  0  0  0
    3.8886   70.2070   66.1163 H   0  0  0  0  0  0  0  0  0  0  0  0
    4.1327   68.5084   66.6885 H   0  0  0  0  0  0  0  0  0  0  0  0
    2.1082   69.4117   64.5876 H   0  0  0  0  0  0  0  0  0  0  0  0
    3.6883   68.5885   64.2703 H   0  0  0  0  0  0  0  0  0  0  0  0
    1.7255   67.0405   64.2165 H   0  0  0  0  0  0  0  0  0  0  0  0
    2.9665   66.6224   65.4659 H   0  0  0  0  0  0  0  0  0  0  0  0
  2  1  2  0
  3  2  1  0
  4  3  1  0
  5  3  1  0
  6  5  1  0
  7  6  1  0
  8  7  1  0
  8  2  1  0
  9  8  2  0
  3 10  1  6
  4 11  1  0
  4 12  1  0
  4 13  1  0
  5 14  1  0
  5 15  1  0
  6 16  1  0
  6 17  1  0
  7 18  1  0
  7 19  1  0
M  END
>  <score>  (6) 
-5.447

$$$$
=
     RDKit          3D

 19 19  0  0  0  0  0  0  0  0999 V2000
    2.2880   69.1250   61.1710 O   0  0  0  0  0  0  0  0  0  0  0  0
    2.3240   68.7170   62.3240 C   0  0  0  0  0  0  0  0  0  0  0  0
    3.5950   68.3880   63.0860 C   0  0  1  0  0  0  0  0  0  0  0  0
    4.8280   68.9190   62.3590 C   0  0  0  0  0  0  0  0  0  0  0  0
    3.5240   68.9520   64.5070 C   0  0  0  0  0  0  0  0  0  0  0  0
    2.2800   68.4530   65.2370 C   0  0  0  0  0  0  0  0  0  0  0  0
    1.0100   68.8850   64.5200 C   0  0  0  0  0  0  0  0  0  0  0  0
    1.0260   68.4600   63.0760 C   0  0  0  0  0  0  0  0  0  0  0  0
    0.0580   67.9820   62.5010 O   0  0  0  0  0  0  0  0  0  0  0  0
    3.6842   67.2932   63.1443 H   0  0  0  0  0  0  0  0  0  0  0  0
    5.5777   69.2419   63.0964 H   0  0  0  0  0  0  0  0  0  0  0  0
    5.2526   68.1240   61.7284 H   0  0  0  0  0  0  0  0  0  0  0  0
    4.5421   69.7738   61.7284 H   0  0  0  0  0  0  0  0  0  0  0  0
    4.4182   68.6352   65.0639 H   0  0  0  0  0  0  0  0  0  0  0  0
    3.4747   70.0491   64.4444 H   0  0  0  0  0  0  0  0  0  0  0  0
    2.3088   67.3544   65.2849 H   0  0  0  0  0  0  0  0  0  0  0  0
    2.2730   68.8858   66.2483 H   0  0  0  0  0  0  0  0  0  0  0  0
    0.1433   68.4268   65.0189 H   0  0  0  0  0  0  0  0  0  0  0  0
    0.9456   69.9824   64.5584 H   0  0  0  0  0  0  0  0  0  0  0  0
  2  1  2  0
  3  2  1  0
  4  3  1  0
  5  3  1  0
  6  5  1  0
  7  6  1  0
  8  7  1  0
  8  2  1  0
  9  8  2  0
  3 10  1  1
  4 11  1  0
  4 12  1  0
  4 13  1  0
  5 14  1  0
  5 15  1  0
  6 16  1  0
  6 17  1  0
  7 18  1  0
  7 19  1  0
M  END
>  <score>  (7) 
-5.411

$$$$
=
     RDKit          3D

 19 19  0  0  0  0  0  0  0  0999 V2000
    2.3680   66.3300   65.4130 O   0  0  0  0  0  0  0  0  0  0  0  0
    2.9740   67.3320   65.0570 C   0  0  0  0  0  0  0  0  0  0  0  0
    2.6960   68.7360   65.5620 C   0  0  1  0  0  0  0  0  0  0  0  0
    1.7910   68.7120   66.7910 C   0  0  0  0  0  0  0  0  0  0  0  0
    4.0090   69.4570   65.8750 C   0  0  0  0  0  0  0  0  0  0  0  0
    4.9370   69.4640   64.6630 C   0  0  0  0  0  0  0  0  0  0  0  0
    5.2950   68.0490   64.2350 C   0  0  0  0  0  0  0  0  0  0  0  0
    4.0600   67.2220   63.9960 C   0  0  0  0  0  0  0  0  0  0  0  0
    3.9290   66.4620   63.0470 O   0  0  0  0  0  0  0  0  0  0  0  0
    2.1703   69.2868   64.7681 H   0  0  0  0  0  0  0  0  0  0  0  0
    2.4083   68.7284   67.7013 H   0  0  0  0  0  0  0  0  0  0  0  0
    1.1324   69.5930   66.7787 H   0  0  0  0  0  0  0  0  0  0  0  0
    1.1801   67.7973   66.7787 H   0  0  0  0  0  0  0  0  0  0  0  0
    3.7883   70.4952   66.1640 H   0  0  0  0  0  0  0  0  0  0  0  0
    4.5118   68.9246   66.6958 H   0  0  0  0  0  0  0  0  0  0  0  0
    4.4335   69.9745   63.8288 H   0  0  0  0  0  0  0  0  0  0  0  0
    5.8636   69.9895   64.9373 H   0  0  0  0  0  0  0  0  0  0  0  0
    5.8822   68.0932   63.3059 H   0  0  0  0  0  0  0  0  0  0  0  0
    5.8776   67.5789   65.0410 H   0  0  0  0  0  0  0  0  0  0  0  0
  2  1  2  0
  3  2  1  0
  4  3  1  0
  5  3  1  0
  6  5  1  0
  7  6  1  0
  8  7  1  0
  8  2  1  0
  9  8  2  0
  3 10  1  6
  4 11  1  0
  4 12  1  0
  4 13  1  0
  5 14  1  0
  5 15  1  0
  6 16  1  0
  6 17  1  0
  7 18  1  0
  7 19  1  0
M  END
>  <score>  (8) 
-5.366

$$$$
=
     RDKit          3D

 19 19  0  0  0  0  0  0  0  0999 V2000
    4.1960   66.1520   62.5080 O   0  0  0  0  0  0  0  0  0  0  0  0
    4.0240   66.7780   63.5450 C   0  0  0  0  0  0  0  0  0  0  0  0
    4.7770   68.0380   63.9300 C   0  0  1  0  0  0  0  0  0  0  0  0
    5.5460   68.6080   62.7400 C   0  0  0  0  0  0  0  0  0  0  0  0
    3.8120   69.0820   64.4970 C   0  0  0  0  0  0  0  0  0  0  0  0
    3.0150   68.5180   65.6690 C   0  0  0  0  0  0  0  0  0  0  0  0
    2.1800   67.3200   65.2430 C   0  0  0  0  0  0  0  0  0  0  0  0
    3.0290   66.2700   64.5790 C   0  0  0  0  0  0  0  0  0  0  0  0
    2.9160   65.0720   64.7980 O   0  0  0  0  0  0  0  0  0  0  0  0
    5.5086   67.7738   64.7078 H   0  0  0  0  0  0  0  0  0  0  0  0
    6.3798   69.2261   63.1043 H   0  0  0  0  0  0  0  0  0  0  0  0
    5.9409   67.7827   62.1293 H   0  0  0  0  0  0  0  0  0  0  0  0
    4.8712   69.2258   62.1293 H   0  0  0  0  0  0  0  0  0  0  0  0
    4.3881   69.9535   64.8413 H   0  0  0  0  0  0  0  0  0  0  0  0
    3.1070   69.3716   63.7038 H   0  0  0  0  0  0  0  0  0  0  0  0
    3.7129   68.2055   66.4598 H   0  0  0  0  0  0  0  0  0  0  0  0
    2.3362   69.3016   66.0368 H   0  0  0  0  0  0  0  0  0  0  0  0
    1.7001   66.8836   66.1314 H   0  0  0  0  0  0  0  0  0  0  0  0
    1.4241   67.6628   64.5211 H   0  0  0  0  0  0  0  0  0  0  0  0
  2  1  2  0
  3  2  1  0
  4  3  1  0
  5  3  1  0
  6  5  1  0
  7  6  1  0
  8  7  1  0
  8  2  1  0
  9  8  2  0
  3 10  1  1
  4 11  1  0
  4 12  1  0
  4 13  1  0
  5 14  1  0
  5 15  1  0
  6 16  1  0
  6 17  1  0
  7 18  1  0
  7 19  1  0
M  END
>  <score>  (9) 
-5.338

$$$$
