=
     RDKit          3D

 28 29  0  0  0  0  0  0  0  0999 V2000
    3.2370   67.8060   63.0900 C   0  0  2  0  0  0  0  0  0  0  0  0
    3.2940   68.7020   61.8530 C   0  0  0  0  0  0  0  0  0  0  0  0
    3.6990   68.5070   64.3480 C   0  0  0  0  0  0  0  0  0  0  0  0
    4.9230   69.0760   64.6390 C   0  0  0  0  0  0  0  0  0  0  0  0
    4.9900   69.6580   65.9490 C   0  0  0  0  0  0  0  0  0  0  0  0
    3.7800   69.5090   66.6270 C   0  0  0  0  0  0  0  0  0  0  0  0
    2.6200   68.6770   65.6680 S   0  0  0  0  0  0  0  0  0  0  0  0
    3.6030   70.0040   67.9350 C   0  0  0  0  0  0  0  0  0  0  0  0
    4.6690   70.6560   68.5610 C   0  0  0  0  0  0  0  0  0  0  0  0
    5.8820   70.8130   67.9060 C   0  0  0  0  0  0  0  0  0  0  0  0
    6.0510   70.3210   66.6080 C   0  0  0  0  0  0  0  0  0  0  0  0
    3.9730   66.5460   62.9250 N   0  0  0  0  0  0  0  0  0  0  0  0
    3.8720   65.4550   63.7620 C   0  0  0  0  0  0  0  0  0  0  0  0
    3.0570   65.2870   64.6580 O   0  0  0  0  0  0  0  0  0  0  0  0
    4.8240   64.5000   63.5120 N   0  0  0  0  0  0  0  0  0  0  0  0
    5.2460   66.7480   62.3210 O   0  0  0  0  0  0  0  0  0  0  0  0
    2.1701   67.5637   63.2036 H   0  0  0  0  0  0  0  0  0  0  0  0
    3.3610   69.7546   62.1654 H   0  0  0  0  0  0  0  0  0  0  0  0
    4.1774   68.4411   61.2517 H   0  0  0  0  0  0  0  0  0  0  0  0
    2.3847   68.5552   61.2517 H   0  0  0  0  0  0  0  0  0  0  0  0
    5.7669   69.0825   63.9334 H   0  0  0  0  0  0  0  0  0  0  0  0
    2.6415   69.8791   68.4545 H   0  0  0  0  0  0  0  0  0  0  0  0
    4.5453   71.0479   69.5814 H   0  0  0  0  0  0  0  0  0  0  0  0
    6.7141   71.3266   68.4098 H   0  0  0  0  0  0  0  0  0  0  0  0
    7.0159   70.4506   66.0961 H   0  0  0  0  0  0  0  0  0  0  0  0
    4.8487   63.6377   64.0748 H   0  0  0  0  0  0  0  0  0  0  0  0
    5.5143   64.6450   62.7614 H   0  0  0  0  0  0  0  0  0  0  0  0
    5.9323   66.8569   63.0262 H   0  0  0  0  0  0  0  0  0  0  0  0
  2  1  1  0
  3  1  1  0
  4  3  2  0
  5  4  1  0
  6  5  2  0
  7  3  1  0
  7  6  1  0
  8  6  1  0
  9  8  2  0
 10  9  1  0
 11  5  1  0
 11 10  2  0
 12  1  1  0
 13 12  1  0
 14 13  2  0
 15 13  1  0
 16 12  1  0
  1 17  1  1
  2 18  1  0
  2 19  1  0
  2 20  1  0
  4 21  1  0
  8 22  1  0
  9 23  1  0
 10 24  1  0
 11 25  1  0
 15 26  1  0
 15 27  1  0
 16 28  1  0
M  END
>  <score>  (1) 
-9.017

$$$$
=
     RDKit          3D

 28 29  0  0  0  0  0  0  0  0999 V2000
    1.9950   68.5490   64.6470 C   0  0  2  0  0  0  0  0  0  0  0  0
    2.6030   67.9950   63.3570 C   0  0  0  0  0  0  0  0  0  0  0  0
    3.0350   69.0850   65.6050 C   0  0  0  0  0  0  0  0  0  0  0  0
    2.8990   69.4850   66.9190 C   0  0  0  0  0  0  0  0  0  0  0  0
    4.1240   69.9390   67.5120 C   0  0  0  0  0  0  0  0  0  0  0  0
    5.1800   69.8670   66.6040 C   0  0  0  0  0  0  0  0  0  0  0  0
    4.6570   69.2610   65.0810 S   0  0  0  0  0  0  0  0  0  0  0  0
    6.4860   70.2600   66.9590 C   0  0  0  0  0  0  0  0  0  0  0  0
    6.7210   70.7330   68.2520 C   0  0  0  0  0  0  0  0  0  0  0  0
    5.6860   70.8150   69.1720 C   0  0  0  0  0  0  0  0  0  0  0  0
    4.3920   70.4230   68.8150 C   0  0  0  0  0  0  0  0  0  0  0  0
    1.1330   67.5840   65.3400 N   0  0  0  0  0  0  0  0  0  0  0  0
   -0.0280   67.9010   66.0130 C   0  0  0  0  0  0  0  0  0  0  0  0
   -0.6130   68.9750   66.0080 O   0  0  0  0  0  0  0  0  0  0  0  0
   -0.5190   66.8560   66.7530 N   0  0  0  0  0  0  0  0  0  0  0  0
    1.8740   66.4890   65.8650 O   0  0  0  0  0  0  0  0  0  0  0  0
    1.3664   69.3887   64.3156 H   0  0  0  0  0  0  0  0  0  0  0  0
    3.3951   67.2733   63.6054 H   0  0  0  0  0  0  0  0  0  0  0  0
    1.8206   67.4928   62.7690 H   0  0  0  0  0  0  0  0  0  0  0  0
    3.0305   68.8206   62.7690 H   0  0  0  0  0  0  0  0  0  0  0  0
    1.9418   69.4582   67.4604 H   0  0  0  0  0  0  0  0  0  0  0  0
    7.3069   70.1953   66.2297 H   0  0  0  0  0  0  0  0  0  0  0  0
    7.7354   71.0431   68.5433 H   0  0  0  0  0  0  0  0  0  0  0  0
    5.8841   71.1901   70.1869 H   0  0  0  0  0  0  0  0  0  0  0  0
    3.5775   70.4912   69.5511 H   0  0  0  0  0  0  0  0  0  0  0  0
   -1.3838   66.9738   67.3000 H   0  0  0  0  0  0  0  0  0  0  0  0
   -0.0230   65.9533   66.7618 H   0  0  0  0  0  0  0  0  0  0  0  0
    1.8528   66.5203   66.8543 H   0  0  0  0  0  0  0  0  0  0  0  0
  2  1  1  0
  3  1  1  0
  4  3  2  0
  5  4  1  0
  6  5  2  0
  7  3  1  0
  7  6  1  0
  8  6  1  0
  9  8  2  0
 10  9  1  0
 11  5  1  0
 11 10  2  0
 12  1  1  0
 13 12  1  0
 14 13  2  0
 15 13  1  0
 16 12  1  0
  1 17  1  6
  2 18  1  0
  2 19  1  0
  2 20  1  0
  4 21  1  0
  8 22  1  0
  9 23  1  0
 10 24  1  0
 11 25  1  0
 15 26  1  0
 15 27  1  0
 16 28  1  0
M  END
>  <score>  (2) 
-8.852

$$$$
=
     RDKit          3D

 28 29  0  0  0  0  0  0  0  0999 V2000
    2.9270   67.8390   64.1000 C   0  0  2  0  0  0  0  0  0  0  0  0
    3.0480   68.4650   62.7100 C   0  0  0  0  0  0  0  0  0  0  0  0
    3.6300   68.6440   65.1710 C   0  0  0  0  0  0  0  0  0  0  0  0
    3.1670   69.0650   66.4020 C   0  0  0  0  0  0  0  0  0  0  0  0
    4.1320   69.8140   67.1540 C   0  0  0  0  0  0  0  0  0  0  0  0
    5.3300   69.9410   66.4500 C   0  0  0  0  0  0  0  0  0  0  0  0
    5.2440   69.1600   64.9200 S   0  0  0  0  0  0  0  0  0  0  0  0
    6.4300   70.6390   66.9870 C   0  0  0  0  0  0  0  0  0  0  0  0
    6.3120   71.2150   68.2540 C   0  0  0  0  0  0  0  0  0  0  0  0
    5.1300   71.1030   68.9720 C   0  0  0  0  0  0  0  0  0  0  0  0
    4.0410   70.4090   68.4340 C   0  0  0  0  0  0  0  0  0  0  0  0
    3.3850   66.4450   64.1480 N   0  0  0  0  0  0  0  0  0  0  0  0
    4.2980   65.8810   63.2820 C   0  0  0  0  0  0  0  0  0  0  0  0
    4.9880   66.4650   62.4570 O   0  0  0  0  0  0  0  0  0  0  0  0
    4.3820   64.5180   63.4060 N   0  0  0  0  0  0  0  0  0  0  0  0
    2.3760   65.5700   64.6410 O   0  0  0  0  0  0  0  0  0  0  0  0
    1.8477   67.8493   64.3124 H   0  0  0  0  0  0  0  0  0  0  0  0
    3.2559   69.5406   62.8091 H   0  0  0  0  0  0  0  0  0  0  0  0
    3.8694   67.9819   62.1605 H   0  0  0  0  0  0  0  0  0  0  0  0
    2.1057   68.3228   62.1605 H   0  0  0  0  0  0  0  0  0  0  0  0
    2.1540   68.8466   66.7710 H   0  0  0  0  0  0  0  0  0  0  0  0
    7.3668   70.7288   66.4174 H   0  0  0  0  0  0  0  0  0  0  0  0
    7.1630   71.7618   68.6861 H   0  0  0  0  0  0  0  0  0  0  0  0
    5.0489   71.5618   69.9684 H   0  0  0  0  0  0  0  0  0  0  0  0
    3.1077   70.3255   69.0102 H   0  0  0  0  0  0  0  0  0  0  0  0
    5.0318   63.9857   62.8099 H   0  0  0  0  0  0  0  0  0  0  0  0
    3.7953   64.0264   64.0952 H   0  0  0  0  0  0  0  0  0  0  0  0
    2.3863   65.5789   65.6309 H   0  0  0  0  0  0  0  0  0  0  0  0
  2  1  1  0
  3  1  1  0
  4  3  2  0
  5  4  1  0
  6  5  2  0
  7  3  1  0
  7  6  1  0
  8  6  1  0
  9  8  2  0
 10  9  1  0
 11  5  1  0
 11 10  2  0
 12  1  1  0
 13 12  1  0
 14 13  2  0
 15 13  1  0
 16 12  1  0
  1 17  1  1
  2 18  1  0
  2 19  1  0
  2 20  1  0
  4 21  1  0
  8 22  1  0
  9 23  1  0
 10 24  1  0
 11 25  1  0
 15 26  1  0
 15 27  1  0
 16 28  1  0
M  END
>  <score>  (3) 
-8.681

$$$$
=
     RDKit          3D

 28 29  0  0  0  0  0  0  0  0999 V2000
   -0.0380   67.4900   66.7660 C   0  0  2  0  0  0  0  0  0  0  0  0
   -0.4490   66.9490   68.1360 C   0  0  0  0  0  0  0  0  0  0  0  0
    1.3050   68.1850   66.7860 C   0  0  0  0  0  0  0  0  0  0  0  0
    1.8920   68.9390   67.7820 C   0  0  0  0  0  0  0  0  0  0  0  0
    3.1910   69.4400   67.4350 C   0  0  0  0  0  0  0  0  0  0  0  0
    3.5580   69.0380   66.1510 C   0  0  0  0  0  0  0  0  0  0  0  0
    2.3310   68.0820   65.4170 S   0  0  0  0  0  0  0  0  0  0  0  0
    4.7960   69.4090   65.5880 C   0  0  0  0  0  0  0  0  0  0  0  0
    5.6700   70.1990   66.3400 C   0  0  0  0  0  0  0  0  0  0  0  0
    5.3250   70.6110   67.6190 C   0  0  0  0  0  0  0  0  0  0  0  0
    4.0960   70.2400   68.1720 C   0  0  0  0  0  0  0  0  0  0  0  0
   -1.0460   68.3760   66.1700 N   0  0  0  0  0  0  0  0  0  0  0  0
   -2.3770   68.4160   66.5280 C   0  0  0  0  0  0  0  0  0  0  0  0
   -2.8990   67.8610   67.4850 O   0  0  0  0  0  0  0  0  0  0  0  0
   -3.1390   69.1670   65.6700 N   0  0  0  0  0  0  0  0  0  0  0  0
   -0.7630   68.6620   64.8040 O   0  0  0  0  0  0  0  0  0  0  0  0
    0.0467   66.5956   66.1313 H   0  0  0  0  0  0  0  0  0  0  0  0
    0.0145   67.5591   68.9253 H   0  0  0  0  0  0  0  0  0  0  0  0
   -1.5437   66.9927   68.2341 H   0  0  0  0  0  0  0  0  0  0  0  0
   -0.1134   65.9060   68.2341 H   0  0  0  0  0  0  0  0  0  0  0  0
    1.4095   69.1371   68.7505 H   0  0  0  0  0  0  0  0  0  0  0  0
    5.0696   69.0822   64.5739 H   0  0  0  0  0  0  0  0  0  0  0  0
    6.6396   70.4966   65.9141 H   0  0  0  0  0  0  0  0  0  0  0  0
    6.0218   71.2325   68.2006 H   0  0  0  0  0  0  0  0  0  0  0  0
    3.8307   70.5721   69.1866 H   0  0  0  0  0  0  0  0  0  0  0  0
   -4.1503   69.2704   65.8355 H   0  0  0  0  0  0  0  0  0  0  0  0
   -2.6999   69.6277   64.8601 H   0  0  0  0  0  0  0  0  0  0  0  0
   -0.0677   69.3647   64.7512 H   0  0  0  0  0  0  0  0  0  0  0  0
  2  1  1  0
  3  1  1  0
  4  3  2  0
  5  4  1  0
  6  5  2  0
  7  3  1  0
  7  6  1  0
  8  6  1  0
  9  8  2  0
 10  9  1  0
 11  5  1  0
 11 10  2  0
 12  1  1  0
 13 12  1  0
 14 13  2  0
 15 13  1  0
 16 12  1  0
  1 17  1  6
  2 18  1  0
  2 19  1  0
  2 20  1  0
  4 21  1  0
  8 22  1  0
  9 23  1  0
 10 24  1  0
 11 25  1  0
 15 26  1  0
 15 27  1  0
 16 28  1  0
M  END
>  <score>  (4) 
-8.186

$$$$
=
     RDKit          3D

 28 29  0  0  0  0  0  0  0  0999 V2000
    0.1490   68.8660   67.6400 C   0  0  2  0  0  0  0  0  0  0  0  0
   -1.1400   69.2820   66.9290 C   0  0  0  0  0  0  0  0  0  0  0  0
    1.3680   68.9590   66.7500 C   0  0  0  0  0  0  0  0  0  0  0  0
    2.6490   69.3750   67.0530 C   0  0  0  0  0  0  0  0  0  0  0  0
    3.5500   69.3220   65.9370 C   0  0  0  0  0  0  0  0  0  0  0  0
    2.9060   68.8530   64.7920 C   0  0  0  0  0  0  0  0  0  0  0  0
    1.2510   68.5000   65.1030 S   0  0  0  0  0  0  0  0  0  0  0  0
    3.5890   68.7130   63.5670 C   0  0  0  0  0  0  0  0  0  0  0  0
    4.9410   69.0550   63.5050 C   0  0  0  0  0  0  0  0  0  0  0  0
    5.6030   69.5260   64.6310 C   0  0  0  0  0  0  0  0  0  0  0  0
    4.9200   69.6620   65.8430 C   0  0  0  0  0  0  0  0  0  0  0  0
    0.0720   67.5270   68.2380 N   0  0  0  0  0  0  0  0  0  0  0  0
    0.9320   67.0390   69.1980 C   0  0  0  0  0  0  0  0  0  0  0  0
    1.7770   67.6680   69.8190 O   0  0  0  0  0  0  0  0  0  0  0  0
    0.7750   65.6950   69.4220 N   0  0  0  0  0  0  0  0  0  0  0  0
   -0.4520   66.5670   67.3280 O   0  0  0  0  0  0  0  0  0  0  0  0
    0.2612   69.5958   68.4553 H   0  0  0  0  0  0  0  0  0  0  0  0
   -1.9077   69.5298   67.6768 H   0  0  0  0  0  0  0  0  0  0  0  0
   -0.9438   70.1624   66.2994 H   0  0  0  0  0  0  0  0  0  0  0  0
   -1.4955   68.4530   66.2994 H   0  0  0  0  0  0  0  0  0  0  0  0
    2.9506   69.7149   68.0548 H   0  0  0  0  0  0  0  0  0  0  0  0
    3.0652   68.3403   62.6744 H   0  0  0  0  0  0  0  0  0  0  0  0
    5.4868   68.9504   62.5557 H   0  0  0  0  0  0  0  0  0  0  0  0
    6.6683   69.7930   64.5691 H   0  0  0  0  0  0  0  0  0  0  0  0
    5.4517   70.0362   66.7303 H   0  0  0  0  0  0  0  0  0  0  0  0
    1.3635   65.2169   70.1191 H   0  0  0  0  0  0  0  0  0  0  0  0
    0.0686   65.1638   68.8931 H   0  0  0  0  0  0  0  0  0  0  0  0
   -0.8596   65.8203   67.8344 H   0  0  0  0  0  0  0  0  0  0  0  0
  2  1  1  0
  3  1  1  0
  4  3  2  0
  5  4  1  0
  6  5  2  0
  7  3  1  0
  7  6  1  0
  8  6  1  0
  9  8  2  0
 10  9  1  0
 11  5  1  0
 11 10  2  0
 12  1  1  0
 13 12  1  0
 14 13  2  0
 15 13  1  0
 16 12  1  0
  1 17  1  1
  2 18  1  0
  2 19  1  0
  2 20  1  0
  4 21  1  0
  8 22  1  0
  9 23  1  0
 10 24  1  0
 11 25  1  0
 15 26  1  0
 15 27  1  0
 16 28  1  0
M  END
>  <score>  (5) 
-7.703

$$$$
=
     RDKit          3D

 28 29  0  0  0  0  0  0  0  0999 V2000
    0.2010   67.7340   66.6050 C   0  0  2  0  0  0  0  0  0  0  0  0
    0.4770   67.7590   68.1090 C   0  0  0  0  0  0  0  0  0  0  0  0
    1.4100   68.1080   65.7780 C   0  0  0  0  0  0  0  0  0  0  0  0
    2.5330   68.8280   66.1360 C   0  0  0  0  0  0  0  0  0  0  0  0
    3.4820   68.9810   65.0700 C   0  0  0  0  0  0  0  0  0  0  0  0
    3.0360   68.3530   63.9070 C   0  0  0  0  0  0  0  0  0  0  0  0
    1.5020   67.6130   64.1410 S   0  0  0  0  0  0  0  0  0  0  0  0
    3.8020   68.3670   62.7230 C   0  0  0  0  0  0  0  0  0  0  0  0
    5.0330   69.0270   62.7220 C   0  0  0  0  0  0  0  0  0  0  0  0
    5.4950   69.6600   63.8680 C   0  0  0  0  0  0  0  0  0  0  0  0
    4.7320   69.6430   65.0390 C   0  0  0  0  0  0  0  0  0  0  0  0
   -0.9450   68.5660   66.2150 N   0  0  0  0  0  0  0  0  0  0  0  0
   -2.2460   68.3640   66.6220 C   0  0  0  0  0  0  0  0  0  0  0  0
   -2.6360   67.5870   67.4840 O   0  0  0  0  0  0  0  0  0  0  0  0
   -3.1460   69.1420   65.9420 N   0  0  0  0  0  0  0  0  0  0  0  0
   -0.7810   69.1180   64.9130 O   0  0  0  0  0  0  0  0  0  0  0  0
   -0.0516   66.6854   66.3891 H   0  0  0  0  0  0  0  0  0  0  0  0
   -0.4726   67.6730   68.6575 H   0  0  0  0  0  0  0  0  0  0  0  0
    1.1321   66.9165   68.3756 H   0  0  0  0  0  0  0  0  0  0  0  0
    0.9700   68.7055   68.3756 H   0  0  0  0  0  0  0  0  0  0  0  0
    2.6856   69.2446   67.1425 H   0  0  0  0  0  0  0  0  0  0  0  0
    3.4358   67.8661   61.8147 H   0  0  0  0  0  0  0  0  0  0  0  0
    5.6414   69.0454   61.8057 H   0  0  0  0  0  0  0  0  0  0  0  0
    6.4657   70.1772   63.8544 H   0  0  0  0  0  0  0  0  0  0  0  0
    5.1058   70.1475   65.9422 H   0  0  0  0  0  0  0  0  0  0  0  0
   -4.1506   69.0777   66.1602 H   0  0  0  0  0  0  0  0  0  0  0  0
   -2.8179   69.7911   65.2127 H   0  0  0  0  0  0  0  0  0  0  0  0
   -0.4999   70.0642   64.9887 H   0  0  0  0  0  0  0  0  0  0  0  0
  2  1  1  0
  3  1  1  0
  4  3  2  0
  5  4  1  0
  6  5  2  0
  7  3  1  0
  7  6  1  0
  8  6  1  0
  9  8  2  0
 10  9  1  0
 11  5  1  0
 11 10  2  0
 12  1  1  0
 13 12  1  0
 14 13  2  0
 15 13  1  0
 16 12  1  0
  1 17  1  6
  2 18  1  0
  2 19  1  0
  2 20  1  0
  4 21  1  0
  8 22  1  0
  9 23  1  0
 10 24  1  0
 11 25  1  0
 15 26  1  0
 15 27  1  0
 16 28  1  0
M  END
>  <score>  (6) 
-7.615

$$$$
=
     RDKit          3D

 28 29  0  0  0  0  0  0  0  0999 V2000
    4.4490   60.8820   70.3820 C   0  0  2  0  0  0  0  0  0  0  0  0
    5.6160   60.9480   71.3690 C   0  0  0  0  0  0  0  0  0  0  0  0
    3.4370   61.9860   70.5910 C   0  0  0  0  0  0  0  0  0  0  0  0
    3.3440   63.2220   69.9830 C   0  0  0  0  0  0  0  0  0  0  0  0
    2.2350   64.0080   70.4430 C   0  0  0  0  0  0  0  0  0  0  0  0
    1.5020   63.3230   71.4130 C   0  0  0  0  0  0  0  0  0  0  0  0
    2.1750   61.7730   71.7300 S   0  0  0  0  0  0  0  0  0  0  0  0
    0.3620   63.8940   72.0150 C   0  0  0  0  0  0  0  0  0  0  0  0
   -0.0350   65.1760   71.6280 C   0  0  0  0  0  0  0  0  0  0  0  0
    0.6810   65.8770   70.6670 C   0  0  0  0  0  0  0  0  0  0  0  0
    1.8090   65.3050   70.0730 C   0  0  0  0  0  0  0  0  0  0  0  0
    3.7700   59.5800   70.3780 N   0  0  0  0  0  0  0  0  0  0  0  0
    3.7160   58.7120   71.4470 C   0  0  0  0  0  0  0  0  0  0  0  0
    4.0680   58.9370   72.5970 O   0  0  0  0  0  0  0  0  0  0  0  0
    3.2150   57.4810   71.1110 N   0  0  0  0  0  0  0  0  0  0  0  0
    3.7840   58.9770   69.0890 O   0  0  0  0  0  0  0  0  0  0  0  0
    4.9149   61.0253   69.3959 H   0  0  0  0  0  0  0  0  0  0  0  0
    5.2277   60.9260   72.3979 H   0  0  0  0  0  0  0  0  0  0  0  0
    6.2804   60.0860   71.2094 H   0  0  0  0  0  0  0  0  0  0  0  0
    6.1790   61.8794   71.2094 H   0  0  0  0  0  0  0  0  0  0  0  0
    4.0531   63.5714   69.2181 H   0  0  0  0  0  0  0  0  0  0  0  0
   -0.2053   63.3391   72.7767 H   0  0  0  0  0  0  0  0  0  0  0  0
   -0.9226   65.6342   72.0886 H   0  0  0  0  0  0  0  0  0  0  0  0
    0.3590   66.8866   70.3721 H   0  0  0  0  0  0  0  0  0  0  0  0
    2.3698   65.8675   69.3120 H   0  0  0  0  0  0  0  0  0  0  0  0
    3.1268   56.7475   71.8287 H   0  0  0  0  0  0  0  0  0  0  0  0
    2.9268   57.2896   70.1409 H   0  0  0  0  0  0  0  0  0  0  0  0
    3.8069   57.9920   69.1857 H   0  0  0  0  0  0  0  0  0  0  0  0
  2  1  1  0
  3  1  1  0
  4  3  2  0
  5  4  1  0
  6  5  2  0
  7  3  1  0
  7  6  1  0
  8  6  1  0
  9  8  2  0
 10  9  1  0
 11  5  1  0
 11 10  2  0
 12  1  1  0
 13 12  1  0
 14 13  2  0
 15 13  1  0
 16 12  1  0
  1 17  1  6
  2 18  1  0
  2 19  1  0
  2 20  1  0
  4 21  1  0
  8 22  1  0
  9 23  1  0
 10 24  1  0
 11 25  1  0
 15 26  1  0
 15 27  1  0
 16 28  1  0
M  END
>  <score>  (7) 
-7.22

$$$$
=
     RDKit          3D

 28 29  0  0  0  0  0  0  0  0999 V2000
    1.5090   68.4240   67.6230 C   0  0  2  0  0  0  0  0  0  0  0  0
    2.2440   69.1800   68.7310 C   0  0  0  0  0  0  0  0  0  0  0  0
    2.1780   68.5610   66.2730 C   0  0  0  0  0  0  0  0  0  0  0  0
    1.7070   68.2250   65.0200 C   0  0  0  0  0  0  0  0  0  0  0  0
    2.6350   68.5070   63.9630 C   0  0  0  0  0  0  0  0  0  0  0  0
    3.8120   69.0650   64.4620 C   0  0  0  0  0  0  0  0  0  0  0  0
    3.7550   69.2230   66.1740 S   0  0  0  0  0  0  0  0  0  0  0  0
    4.8750   69.4290   63.6100 C   0  0  0  0  0  0  0  0  0  0  0  0
    4.7400   69.2210   62.2350 C   0  0  0  0  0  0  0  0  0  0  0  0
    3.5790   68.6660   61.7160 C   0  0  0  0  0  0  0  0  0  0  0  0
    2.5280   68.3080   62.5660 C   0  0  0  0  0  0  0  0  0  0  0  0
    0.0920   68.7920   67.5150 N   0  0  0  0  0  0  0  0  0  0  0  0
   -0.8980   67.9860   66.9940 C   0  0  0  0  0  0  0  0  0  0  0  0
   -0.8040   66.8030   66.6960 O   0  0  0  0  0  0  0  0  0  0  0  0
   -2.0830   68.6480   66.8060 N   0  0  0  0  0  0  0  0  0  0  0  0
   -0.0810   70.1910   67.3190 O   0  0  0  0  0  0  0  0  0  0  0  0
    1.5627   67.3685   67.9281 H   0  0  0  0  0  0  0  0  0  0  0  0
    1.8965   68.8226   69.7116 H   0  0  0  0  0  0  0  0  0  0  0  0
    3.3260   69.0045   68.6392 H   0  0  0  0  0  0  0  0  0  0  0  0
    2.0381   70.2566   68.6392 H   0  0  0  0  0  0  0  0  0  0  0  0
    0.7145   67.7830   64.8482 H   0  0  0  0  0  0  0  0  0  0  0  0
    5.7953   69.8694   64.0211 H   0  0  0  0  0  0  0  0  0  0  0  0
    5.5611   69.4996   61.5581 H   0  0  0  0  0  0  0  0  0  0  0  0
    3.4850   68.5070   60.6316 H   0  0  0  0  0  0  0  0  0  0  0  0
    1.6114   67.8685   62.1457 H   0  0  0  0  0  0  0  0  0  0  0  0
   -2.8970   68.1477   66.4211 H   0  0  0  0  0  0  0  0  0  0  0  0
   -2.1597   69.6458   67.0496 H   0  0  0  0  0  0  0  0  0  0  0  0
   -0.1369   70.6430   68.1980 H   0  0  0  0  0  0  0  0  0  0  0  0
  2  1  1  0
  3  1  1  0
  4  3  2  0
  5  4  1  0
  6  5  2  0
  7  3  1  0
  7  6  1  0
  8  6  1  0
  9  8  2  0
 10  9  1  0
 11  5  1  0
 11 10  2  0
 12  1  1  0
 13 12  1  0
 14 13  2  0
 15 13  1  0
 16 12  1  0
  1 17  1  1
  2 18  1  0
  2 19  1  0
  2 20  1  0
  4 21  1  0
  8 22  1  0
  9 23  1  0
 10 24  1  0
 11 25  1  0
 15 26  1  0
 15 27  1  0
 16 28  1  0
M  END
>  <score>  (8) 
-7.218

$$$$
=
     RDKit          3D

 28 29  0  0  0  0  0  0  0  0999 V2000
    0.0970   68.6470   67.0540 C   0  0  2  0  0  0  0  0  0  0  0  0
   -1.2390   67.9520   66.7910 C   0  0  0  0  0  0  0  0  0  0  0  0
    0.9860   68.6980   65.8310 C   0  0  0  0  0  0  0  0  0  0  0  0
    2.3550   68.8530   65.7430 C   0  0  0  0  0  0  0  0  0  0  0  0
    2.8480   68.8500   64.3960 C   0  0  0  0  0  0  0  0  0  0  0  0
    1.8090   68.6880   63.4800 C   0  0  0  0  0  0  0  0  0  0  0  0
    0.2890   68.5490   64.2730 S   0  0  0  0  0  0  0  0  0  0  0  0
    2.0490   68.6530   62.0910 C   0  0  0  0  0  0  0  0  0  0  0  0
    3.3610   68.7870   61.6290 C   0  0  0  0  0  0  0  0  0  0  0  0
    4.4100   68.9510   62.5220 C   0  0  0  0  0  0  0  0  0  0  0  0
    4.1660   68.9840   63.8980 C   0  0  0  0  0  0  0  0  0  0  0  0
    0.8380   68.0660   68.1820 N   0  0  0  0  0  0  0  0  0  0  0  0
    0.4090   67.0030   68.9470 C   0  0  0  0  0  0  0  0  0  0  0  0
   -0.5490   66.2750   68.7250 O   0  0  0  0  0  0  0  0  0  0  0  0
    1.1780   66.8040   70.0640 N   0  0  0  0  0  0  0  0  0  0  0  0
    1.6260   69.0390   68.8580 O   0  0  0  0  0  0  0  0  0  0  0  0
   -0.1783   69.6776   67.3226 H   0  0  0  0  0  0  0  0  0  0  0  0
   -1.7177   67.7030   67.7496 H   0  0  0  0  0  0  0  0  0  0  0  0
   -1.8948   68.6233   66.2171 H   0  0  0  0  0  0  0  0  0  0  0  0
   -1.0658   67.0297   66.2171 H   0  0  0  0  0  0  0  0  0  0  0  0
    3.0059   68.9679   66.6223 H   0  0  0  0  0  0  0  0  0  0  0  0
    1.2174   68.5224   61.3829 H   0  0  0  0  0  0  0  0  0  0  0  0
    3.5638   68.7622   60.5481 H   0  0  0  0  0  0  0  0  0  0  0  0
    5.4383   69.0555   62.1456 H   0  0  0  0  0  0  0  0  0  0  0  0
    5.0040   69.1150   64.5984 H   0  0  0  0  0  0  0  0  0  0  0  0
    0.9536   66.0369   70.7137 H   0  0  0  0  0  0  0  0  0  0  0  0
    1.9802   67.4215   70.2537 H   0  0  0  0  0  0  0  0  0  0  0  0
    1.5297   68.9201   69.8361 H   0  0  0  0  0  0  0  0  0  0  0  0
  2  1  1  0
  3  1  1  0
  4  3  2  0
  5  4  1  0
  6  5  2  0
  7  3  1  0
  7  6  1  0
  8  6  1  0
  9  8  2  0
 10  9  1  0
 11  5  1  0
 11 10  2  0
 12  1  1  0
 13 12  1  0
 14 13  2  0
 15 13  1  0
 16 12  1  0
  1 17  1  1
  2 18  1  0
  2 19  1  0
  2 20  1  0
  4 21  1  0
  8 22  1  0
  9 23  1  0
 10 24  1  0
 11 25  1  0
 15 26  1  0
 15 27  1  0
 16 28  1  0
M  END
>  <score>  (9) 
-6.966

$$$$
