=
     RDKit          3D

 40 41  0  0  0  0  0  0  0  0999 V2000
    1.0300   68.5710   66.2280 C   0  0  0  0  0  0  0  0  0  0  0  0
   -0.0270   68.4000   66.8250 O   0  0  0  0  0  0  0  0  0  0  0  0
    4.3990   70.3670   68.2090 C   0  0  0  0  0  0  0  0  0  0  0  0
    4.5400   69.8860   66.9070 C   0  0  0  0  0  0  0  0  0  0  0  0
    3.4520   69.2940   66.2480 C   0  0  0  0  0  0  0  0  0  0  0  0
    2.2160   69.1750   66.8900 C   0  0  0  0  0  0  0  0  0  0  0  0
    2.0770   69.6520   68.1980 C   0  0  0  0  0  0  0  0  0  0  0  0
    3.1640   70.2420   68.8490 C   0  0  0  0  0  0  0  0  0  0  0  0
    5.3690   70.9600   68.9650 O   0  0  0  0  0  0  0  0  0  0  0  0
    7.7290   71.0020   69.5290 C   0  0  0  0  0  0  0  0  0  0  0  0
    6.6850   71.0910   68.4290 C   0  0  0  0  0  0  0  0  0  0  0  0
    1.0990   68.1900   64.7680 C   0  0  0  0  0  0  0  0  0  0  0  0
    0.2280   68.6120   64.0140 O   0  0  0  0  0  0  0  0  0  0  0  0
    2.1830   67.2920   64.2890 C   0  0  0  0  0  0  0  0  0  0  0  0
    3.0720   67.6660   63.2750 C   0  0  0  0  0  0  0  0  0  0  0  0
    4.0900   66.7920   62.8680 C   0  0  0  0  0  0  0  0  0  0  0  0
    4.2270   65.5410   63.4710 C   0  0  0  0  0  0  0  0  0  0  0  0
    3.3380   65.1700   64.4810 C   0  0  0  0  0  0  0  0  0  0  0  0
    2.3210   66.0360   64.8910 C   0  0  0  0  0  0  0  0  0  0  0  0
    5.1720   64.6010   63.1690 O   0  0  0  0  0  0  0  0  0  0  0  0
    5.0080   63.3050   63.7430 C   0  0  0  0  0  0  0  0  0  0  0  0
    5.7600   62.3110   62.8750 C   0  0  0  0  0  0  0  0  0  0  0  0
    5.5095   69.9714   66.3943 H   0  0  0  0  0  0  0  0  0  0  0  0
    3.5723   68.9213   65.2201 H   0  0  0  0  0  0  0  0  0  0  0  0
    1.1102   69.5625   68.7150 H   0  0  0  0  0  0  0  0  0  0  0  0
    3.0453   70.6124   69.8779 H   0  0  0  0  0  0  0  0  0  0  0  0
    7.2328   71.0443   70.5098 H   0  0  0  0  0  0  0  0  0  0  0  0
    8.2788   70.0537   69.4369 H   0  0  0  0  0  0  0  0  0  0  0  0
    8.4314   71.8435   69.4369 H   0  0  0  0  0  0  0  0  0  0  0  0
    6.8593   70.2851   67.7008 H   0  0  0  0  0  0  0  0  0  0  0  0
    6.7702   72.0736   67.9419 H   0  0  0  0  0  0  0  0  0  0  0  0
    2.9716   68.6506   62.7949 H   0  0  0  0  0  0  0  0  0  0  0  0
    4.7839   67.0938   62.0696 H   0  0  0  0  0  0  0  0  0  0  0  0
    3.4391   64.1848   64.9596 H   0  0  0  0  0  0  0  0  0  0  0  0
    1.6276   65.7301   65.6883 H   0  0  0  0  0  0  0  0  0  0  0  0
    5.4172   63.2940   64.7640 H   0  0  0  0  0  0  0  0  0  0  0  0
    3.9415   63.0402   63.7925 H   0  0  0  0  0  0  0  0  0  0  0  0
    6.2991   61.5984   63.5165 H   0  0  0  0  0  0  0  0  0  0  0  0
    5.0465   61.7655   62.2399 H   0  0  0  0  0  0  0  0  0  0  0  0
    6.4790   62.8492   62.2399 H   0  0  0  0  0  0  0  0  0  0  0  0
  2  1  2  0
  4  3  2  0
  5  4  1  0
  6  5  2  0
  6  1  1  0
  7  6  1  0
  8  7  2  0
  8  3  1  0
  9  3  1  0
 11  9  1  0
 11 10  1  0
 12  1  1  0
 13 12  2  0
 14 12  1  0
 15 14  2  0
 16 15  1  0
 17 16  2  0
 18 17  1  0
 19 18  2  0
 19 14  1  0
 20 17  1  0
 21 20  1  0
 22 21  1  0
  4 23  1  0
  5 24  1  0
  7 25  1  0
  8 26  1  0
 10 27  1  0
 10 28  1  0
 10 29  1  0
 11 30  1  0
 11 31  1  0
 15 32  1  0
 16 33  1  0
 18 34  1  0
 19 35  1  0
 21 36  1  0
 21 37  1  0
 22 38  1  0
 22 39  1  0
 22 40  1  0
M  END
>  <score>  (1) 
-9.108

$$$$
=
     RDKit          3D

 40 41  0  0  0  0  0  0  0  0999 V2000
    1.8120   68.2470   65.1740 C   0  0  0  0  0  0  0  0  0  0  0  0
    1.0310   68.8140   64.4170 O   0  0  0  0  0  0  0  0  0  0  0  0
    4.3850   65.1120   63.7410 C   0  0  0  0  0  0  0  0  0  0  0  0
    3.4410   64.8330   64.7290 C   0  0  0  0  0  0  0  0  0  0  0  0
    2.5960   65.8440   65.2100 C   0  0  0  0  0  0  0  0  0  0  0  0
    2.6940   67.1450   64.7080 C   0  0  0  0  0  0  0  0  0  0  0  0
    3.6460   67.4270   63.7220 C   0  0  0  0  0  0  0  0  0  0  0  0
    4.4840   66.4140   63.2460 C   0  0  0  0  0  0  0  0  0  0  0  0
    5.2670   64.2290   63.1880 O   0  0  0  0  0  0  0  0  0  0  0  0
    5.7150   61.9690   62.4280 C   0  0  0  0  0  0  0  0  0  0  0  0
    5.1880   62.8510   63.5470 C   0  0  0  0  0  0  0  0  0  0  0  0
    1.8330   68.6630   66.6260 C   0  0  0  0  0  0  0  0  0  0  0  0
    0.8490   68.4210   67.3160 O   0  0  0  0  0  0  0  0  0  0  0  0
    3.0150   69.3820   67.1710 C   0  0  0  0  0  0  0  0  0  0  0  0
    4.2080   69.5150   66.4520 C   0  0  0  0  0  0  0  0  0  0  0  0
    5.2910   70.2170   67.0010 C   0  0  0  0  0  0  0  0  0  0  0  0
    5.1880   70.7920   68.2680 C   0  0  0  0  0  0  0  0  0  0  0  0
    3.9970   70.6580   68.9830 C   0  0  0  0  0  0  0  0  0  0  0  0
    2.9150   69.9580   68.4420 C   0  0  0  0  0  0  0  0  0  0  0  0
    6.1640   71.4990   68.9120 O   0  0  0  0  0  0  0  0  0  0  0  0
    7.3610   70.8000   69.2500 C   0  0  0  0  0  0  0  0  0  0  0  0
    7.2950   70.4430   70.7250 C   0  0  0  0  0  0  0  0  0  0  0  0
    3.3586   63.8135   65.1337 H   0  0  0  0  0  0  0  0  0  0  0  0
    1.8522   65.6119   65.9864 H   0  0  0  0  0  0  0  0  0  0  0  0
    3.7353   68.4473   63.3207 H   0  0  0  0  0  0  0  0  0  0  0  0
    5.2305   66.6455   62.4720 H   0  0  0  0  0  0  0  0  0  0  0  0
    6.2340   61.1003   62.8593 H   0  0  0  0  0  0  0  0  0  0  0  0
    4.8753   61.6233   61.8072 H   0  0  0  0  0  0  0  0  0  0  0  0
    6.4173   62.5447   61.8072 H   0  0  0  0  0  0  0  0  0  0  0  0
    5.7874   62.6799   64.4533 H   0  0  0  0  0  0  0  0  0  0  0  0
    4.1340   62.5950   63.7299 H   0  0  0  0  0  0  0  0  0  0  0  0
    4.2969   69.0668   65.4514 H   0  0  0  0  0  0  0  0  0  0  0  0
    6.2261   70.3147   66.4299 H   0  0  0  0  0  0  0  0  0  0  0  0
    3.9089   71.1080   69.9829 H   0  0  0  0  0  0  0  0  0  0  0  0
    1.9824   69.8597   69.0170 H   0  0  0  0  0  0  0  0  0  0  0  0
    7.4410   69.8834   68.6472 H   0  0  0  0  0  0  0  0  0  0  0  0
    8.2408   71.4285   69.0478 H   0  0  0  0  0  0  0  0  0  0  0  0
    7.4621   71.3471   71.3289 H   0  0  0  0  0  0  0  0  0  0  0  0
    6.3044   70.0250   70.9571 H   0  0  0  0  0  0  0  0  0  0  0  0
    8.0707   69.6984   70.9571 H   0  0  0  0  0  0  0  0  0  0  0  0
  2  1  2  0
  4  3  2  0
  5  4  1  0
  6  5  2  0
  6  1  1  0
  7  6  1  0
  8  7  2  0
  8  3  1  0
  9  3  1  0
 11  9  1  0
 11 10  1  0
 12  1  1  0
 13 12  2  0
 14 12  1  0
 15 14  2  0
 16 15  1  0
 17 16  2  0
 18 17  1  0
 19 18  2  0
 19 14  1  0
 20 17  1  0
 21 20  1  0
 22 21  1  0
  4 23  1  0
  5 24  1  0
  7 25  1  0
  8 26  1  0
 10 27  1  0
 10 28  1  0
 10 29  1  0
 11 30  1  0
 11 31  1  0
 15 32  1  0
 16 33  1  0
 18 34  1  0
 19 35  1  0
 21 36  1  0
 21 37  1  0
 22 38  1  0
 22 39  1  0
 22 40  1  0
M  END
>  <score>  (2) 
-8.872

$$$$
=
     RDKit          3D

 40 41  0  0  0  0  0  0  0  0999 V2000
    1.3490   69.2660   67.6680 C   0  0  0  0  0  0  0  0  0  0  0  0
    0.3300   69.8310   68.0490 O   0  0  0  0  0  0  0  0  0  0  0  0
    5.2150   71.0000   68.4080 C   0  0  0  0  0  0  0  0  0  0  0  0
    5.0240   70.1950   67.2850 C   0  0  0  0  0  0  0  0  0  0  0  0
    3.7700   69.6190   67.0310 C   0  0  0  0  0  0  0  0  0  0  0  0
    2.7000   69.8410   67.9020 C   0  0  0  0  0  0  0  0  0  0  0  0
    2.8940   70.6440   69.0320 C   0  0  0  0  0  0  0  0  0  0  0  0
    4.1450   71.2160   69.2790 C   0  0  0  0  0  0  0  0  0  0  0  0
    6.3760   71.6180   68.7760 O   0  0  0  0  0  0  0  0  0  0  0  0
    7.1180   70.3440   70.7020 C   0  0  0  0  0  0  0  0  0  0  0  0
    7.4450   70.8320   69.3020 C   0  0  0  0  0  0  0  0  0  0  0  0
    1.2080   67.9720   66.9020 C   0  0  0  0  0  0  0  0  0  0  0  0
    0.6100   67.0420   67.4330 O   0  0  0  0  0  0  0  0  0  0  0  0
    1.8230   67.8400   65.5540 C   0  0  0  0  0  0  0  0  0  0  0  0
    1.5440   68.7320   64.5130 C   0  0  0  0  0  0  0  0  0  0  0  0
    2.1610   68.5770   63.2640 C   0  0  0  0  0  0  0  0  0  0  0  0
    3.0610   67.5330   63.0470 C   0  0  0  0  0  0  0  0  0  0  0  0
    3.3380   66.6450   64.0880 C   0  0  0  0  0  0  0  0  0  0  0  0
    2.7250   66.7930   65.3340 C   0  0  0  0  0  0  0  0  0  0  0  0
    3.7290   67.2740   61.8830 O   0  0  0  0  0  0  0  0  0  0  0  0
    5.1530   67.3600   61.9150 C   0  0  0  0  0  0  0  0  0  0  0  0
    5.5270   68.7620   62.3630 C   0  0  0  0  0  0  0  0  0  0  0  0
    5.8607   70.0108   66.5950 H   0  0  0  0  0  0  0  0  0  0  0  0
    3.6283   68.9887   66.1407 H   0  0  0  0  0  0  0  0  0  0  0  0
    2.0605   70.8251   69.7267 H   0  0  0  0  0  0  0  0  0  0  0  0
    4.2886   71.8441   70.1705 H   0  0  0  0  0  0  0  0  0  0  0  0
    7.5714   71.0206   71.4414 H   0  0  0  0  0  0  0  0  0  0  0  0
    6.0267   70.3289   70.8395 H   0  0  0  0  0  0  0  0  0  0  0  0
    7.5190   69.3290   70.8395 H   0  0  0  0  0  0  0  0  0  0  0  0
    7.6103   69.9638   68.6470 H   0  0  0  0  0  0  0  0  0  0  0  0
    8.3505   71.4549   69.3485 H   0  0  0  0  0  0  0  0  0  0  0  0
    0.8371   69.5589   64.6754 H   0  0  0  0  0  0  0  0  0  0  0  0
    1.9345   69.2821   62.4506 H   0  0  0  0  0  0  0  0  0  0  0  0
    4.0468   65.8198   63.9250 H   0  0  0  0  0  0  0  0  0  0  0  0
    2.9518   66.0848   66.1446 H   0  0  0  0  0  0  0  0  0  0  0  0
    5.5560   66.6214   62.6236 H   0  0  0  0  0  0  0  0  0  0  0  0
    5.5715   67.1520   60.9192 H   0  0  0  0  0  0  0  0  0  0  0  0
    5.5384   68.8049   63.4621 H   0  0  0  0  0  0  0  0  0  0  0  0
    6.5245   69.0168   61.9757 H   0  0  0  0  0  0  0  0  0  0  0  0
    4.7889   69.4798   61.9757 H   0  0  0  0  0  0  0  0  0  0  0  0
  2  1  2  0
  4  3  2  0
  5  4  1  0
  6  5  2  0
  6  1  1  0
  7  6  1  0
  8  7  2  0
  8  3  1  0
  9  3  1  0
 11  9  1  0
 11 10  1  0
 12  1  1  0
 13 12  2  0
 14 12  1  0
 15 14  2  0
 16 15  1  0
 17 16  2  0
 18 17  1  0
 19 18  2  0
 19 14  1  0
 20 17  1  0
 21 20  1  0
 22 21  1  0
  4 23  1  0
  5 24  1  0
  7 25  1  0
  8 26  1  0
 10 27  1  0
 10 28  1  0
 10 29  1  0
 11 30  1  0
 11 31  1  0
 15 32  1  0
 16 33  1  0
 18 34  1  0
 19 35  1  0
 21 36  1  0
 21 37  1  0
 22 38  1  0
 22 39  1  0
 22 40  1  0
M  END
>  <score>  (3) 
-8.658

$$$$
=
     RDKit          3D

 40 41  0  0  0  0  0  0  0  0999 V2000
    4.7440   69.0480   64.1810 C   0  0  0  0  0  0  0  0  0  0  0  0
    5.2930   69.4730   63.1710 O   0  0  0  0  0  0  0  0  0  0  0  0
    5.6760   70.6660   68.0560 C   0  0  0  0  0  0  0  0  0  0  0  0
    4.3970   70.1700   67.8050 C   0  0  0  0  0  0  0  0  0  0  0  0
    4.0750   69.6420   66.5460 C   0  0  0  0  0  0  0  0  0  0  0  0
    5.0310   69.6110   65.5270 C   0  0  0  0  0  0  0  0  0  0  0  0
    6.3130   70.1140   65.7770 C   0  0  0  0  0  0  0  0  0  0  0  0
    6.6270   70.6370   67.0350 C   0  0  0  0  0  0  0  0  0  0  0  0
    6.1220   71.2070   69.2280 O   0  0  0  0  0  0  0  0  0  0  0  0
    7.4230   70.2640   71.0460 C   0  0  0  0  0  0  0  0  0  0  0  0
    7.4450   70.9100   69.6710 C   0  0  0  0  0  0  0  0  0  0  0  0
    3.7840   67.8900   64.0430 C   0  0  0  0  0  0  0  0  0  0  0  0
    4.2110   66.8270   63.6050 O   0  0  0  0  0  0  0  0  0  0  0  0
    2.3510   68.0720   64.3980 C   0  0  0  0  0  0  0  0  0  0  0  0
    1.4540   68.7510   63.5660 C   0  0  0  0  0  0  0  0  0  0  0  0
    0.1070   68.8830   63.9350 C   0  0  0  0  0  0  0  0  0  0  0  0
   -0.3510   68.3360   65.1330 C   0  0  0  0  0  0  0  0  0  0  0  0
    0.5460   67.6580   65.9610 C   0  0  0  0  0  0  0  0  0  0  0  0
    1.8890   67.5250   65.6000 C   0  0  0  0  0  0  0  0  0  0  0  0
   -1.6320   68.3920   65.6060 O   0  0  0  0  0  0  0  0  0  0  0  0
   -1.8080   68.3410   67.0210 C   0  0  0  0  0  0  0  0  0  0  0  0
   -2.5530   67.0600   67.3540 C   0  0  0  0  0  0  0  0  0  0  0  0
    3.6361   70.1930   68.5991 H   0  0  0  0  0  0  0  0  0  0  0  0
    3.0642   69.2501   66.3596 H   0  0  0  0  0  0  0  0  0  0  0  0
    7.0741   70.0978   64.9830 H   0  0  0  0  0  0  0  0  0  0  0  0
    7.6368   71.0308   67.2225 H   0  0  0  0  0  0  0  0  0  0  0  0
    7.4496   71.0461   71.8190 H   0  0  0  0  0  0  0  0  0  0  0  0
    6.5041   69.6697   71.1572 H   0  0  0  0  0  0  0  0  0  0  0  0
    8.2993   69.6085   71.1572 H   0  0  0  0  0  0  0  0  0  0  0  0
    7.9180   70.2203   68.9564 H   0  0  0  0  0  0  0  0  0  0  0  0
    8.0146   71.8490   69.7324 H   0  0  0  0  0  0  0  0  0  0  0  0
    1.8067   69.1834   62.6180 H   0  0  0  0  0  0  0  0  0  0  0  0
   -0.5910   69.4204   63.2763 H   0  0  0  0  0  0  0  0  0  0  0  0
    0.1914   67.2240   66.9075 H   0  0  0  0  0  0  0  0  0  0  0  0
    2.5848   66.9890   66.2623 H   0  0  0  0  0  0  0  0  0  0  0  0
   -0.8275   68.3433   67.5197 H   0  0  0  0  0  0  0  0  0  0  0  0
   -2.3774   69.2160   67.3676 H   0  0  0  0  0  0  0  0  0  0  0  0
   -2.6185   66.9473   68.4462 H   0  0  0  0  0  0  0  0  0  0  0  0
   -3.5664   67.1040   66.9285 H   0  0  0  0  0  0  0  0  0  0  0  0
   -2.0136   66.2009   66.9285 H   0  0  0  0  0  0  0  0  0  0  0  0
  2  1  2  0
  4  3  2  0
  5  4  1  0
  6  5  2  0
  6  1  1  0
  7  6  1  0
  8  7  2  0
  8  3  1  0
  9  3  1  0
 11  9  1  0
 11 10  1  0
 12  1  1  0
 13 12  2  0
 14 12  1  0
 15 14  2  0
 16 15  1  0
 17 16  2  0
 18 17  1  0
 19 18  2  0
 19 14  1  0
 20 17  1  0
 21 20  1  0
 22 21  1  0
  4 23  1  0
  5 24  1  0
  7 25  1  0
  8 26  1  0
 10 27  1  0
 10 28  1  0
 10 29  1  0
 11 30  1  0
 11 31  1  0
 15 32  1  0
 16 33  1  0
 18 34  1  0
 19 35  1  0
 21 36  1  0
 21 37  1  0
 22 38  1  0
 22 39  1  0
 22 40  1  0
M  END
>  <score>  (4) 
-8.543

$$$$
=
     RDKit          3D

 40 41  0  0  0  0  0  0  0  0999 V2000
    0.4530   68.7010   67.4440 C   0  0  0  0  0  0  0  0  0  0  0  0
   -0.2580   69.6930   67.5530 O   0  0  0  0  0  0  0  0  0  0  0  0
    0.3840   65.4650   70.2780 C   0  0  0  0  0  0  0  0  0  0  0  0
   -0.7330   65.7060   69.4780 C   0  0  0  0  0  0  0  0  0  0  0  0
   -0.7280   66.7590   68.5510 C   0  0  0  0  0  0  0  0  0  0  0  0
    0.3940   67.5820   68.4220 C   0  0  0  0  0  0  0  0  0  0  0  0
    1.5120   67.3450   69.2290 C   0  0  0  0  0  0  0  0  0  0  0  0
    1.5020   66.2920   70.1490 C   0  0  0  0  0  0  0  0  0  0  0  0
    0.5140   64.4820   71.2160 O   0  0  0  0  0  0  0  0  0  0  0  0
    1.6750   62.6830   72.3570 C   0  0  0  0  0  0  0  0  0  0  0  0
    1.6240   63.5890   71.1390 C   0  0  0  0  0  0  0  0  0  0  0  0
    1.4420   68.6470   66.3030 C   0  0  0  0  0  0  0  0  0  0  0  0
    1.0710   68.1800   65.2320 O   0  0  0  0  0  0  0  0  0  0  0  0
    2.8370   69.1190   66.5110 C   0  0  0  0  0  0  0  0  0  0  0  0
    3.8280   68.9810   65.5330 C   0  0  0  0  0  0  0  0  0  0  0  0
    5.1250   69.4570   65.7690 C   0  0  0  0  0  0  0  0  0  0  0  0
    5.4410   70.0750   66.9790 C   0  0  0  0  0  0  0  0  0  0  0  0
    4.4500   70.2110   67.9530 C   0  0  0  0  0  0  0  0  0  0  0  0
    3.1560   69.7380   67.7260 C   0  0  0  0  0  0  0  0  0  0  0  0
    6.6600   70.5810   67.3320 O   0  0  0  0  0  0  0  0  0  0  0  0
    6.6970   71.4840   68.4360 C   0  0  0  0  0  0  0  0  0  0  0  0
    7.5870   70.8770   69.5070 C   0  0  0  0  0  0  0  0  0  0  0  0
   -1.6229   65.0667   69.5745 H   0  0  0  0  0  0  0  0  0  0  0  0
   -1.6125   66.9379   67.9220 H   0  0  0  0  0  0  0  0  0  0  0  0
    2.4001   67.9879   69.1397 H   0  0  0  0  0  0  0  0  0  0  0  0
    2.3857   66.1128   70.7790 H   0  0  0  0  0  0  0  0  0  0  0  0
    1.6406   63.2946   73.2706 H   0  0  0  0  0  0  0  0  0  0  0  0
    0.8140   61.9986   72.3412 H   0  0  0  0  0  0  0  0  0  0  0  0
    2.6074   62.0996   72.3412 H   0  0  0  0  0  0  0  0  0  0  0  0
    1.5273   62.9711   70.2341 H   0  0  0  0  0  0  0  0  0  0  0  0
    2.5502   64.1813   71.1020 H   0  0  0  0  0  0  0  0  0  0  0  0
    3.5882   68.4969   64.5748 H   0  0  0  0  0  0  0  0  0  0  0  0
    5.8985   69.3425   64.9953 H   0  0  0  0  0  0  0  0  0  0  0  0
    4.6914   70.6963   68.9102 H   0  0  0  0  0  0  0  0  0  0  0  0
    2.3857   69.8518   68.5030 H   0  0  0  0  0  0  0  0  0  0  0  0
    7.1079   72.4520   68.1133 H   0  0  0  0  0  0  0  0  0  0  0  0
    5.6832   71.6496   68.8293 H   0  0  0  0  0  0  0  0  0  0  0  0
    7.1978   71.1425   70.5010 H   0  0  0  0  0  0  0  0  0  0  0  0
    7.5978   69.7825   69.3978 H   0  0  0  0  0  0  0  0  0  0  0  0
    8.6099   71.2665   69.3978 H   0  0  0  0  0  0  0  0  0  0  0  0
  2  1  2  0
  4  3  2  0
  5  4  1  0
  6  5  2  0
  6  1  1  0
  7  6  1  0
  8  7  2  0
  8  3  1  0
  9  3  1  0
 11  9  1  0
 11 10  1  0
 12  1  1  0
 13 12  2  0
 14 12  1  0
 15 14  2  0
 16 15  1  0
 17 16  2  0
 18 17  1  0
 19 18  2  0
 19 14  1  0
 20 17  1  0
 21 20  1  0
 22 21  1  0
  4 23  1  0
  5 24  1  0
  7 25  1  0
  8 26  1  0
 10 27  1  0
 10 28  1  0
 10 29  1  0
 11 30  1  0
 11 31  1  0
 15 32  1  0
 16 33  1  0
 18 34  1  0
 19 35  1  0
 21 36  1  0
 21 37  1  0
 22 38  1  0
 22 39  1  0
 22 40  1  0
M  END
>  <score>  (5) 
-8.501

$$$$
=
     RDKit          3D

 40 41  0  0  0  0  0  0  0  0999 V2000
    4.0760   66.9750   62.7620 C   0  0  0  0  0  0  0  0  0  0  0  0
    4.3920   66.6850   61.6130 O   0  0  0  0  0  0  0  0  0  0  0  0
    3.7120   63.9170   65.7650 C   0  0  0  0  0  0  0  0  0  0  0  0
    2.8290   64.9970   65.7690 C   0  0  0  0  0  0  0  0  0  0  0  0
    2.9360   66.0050   64.7990 C   0  0  0  0  0  0  0  0  0  0  0  0
    3.9320   65.9400   63.8200 C   0  0  0  0  0  0  0  0  0  0  0  0
    4.8210   64.8600   63.8200 C   0  0  0  0  0  0  0  0  0  0  0  0
    4.7080   63.8580   64.7880 C   0  0  0  0  0  0  0  0  0  0  0  0
    3.7220   62.8740   66.6460 O   0  0  0  0  0  0  0  0  0  0  0  0
    3.0070   62.1200   68.8380 C   0  0  0  0  0  0  0  0  0  0  0  0
    3.7970   63.1460   68.0440 C   0  0  0  0  0  0  0  0  0  0  0  0
    3.7880   68.4220   63.0840 C   0  0  0  0  0  0  0  0  0  0  0  0
    3.3470   69.1410   62.1930 O   0  0  0  0  0  0  0  0  0  0  0  0
    4.0790   68.9490   64.4440 C   0  0  0  0  0  0  0  0  0  0  0  0
    3.0900   69.0740   65.4260 C   0  0  0  0  0  0  0  0  0  0  0  0
    3.4160   69.5600   66.7000 C   0  0  0  0  0  0  0  0  0  0  0  0
    4.7290   69.9210   67.0020 C   0  0  0  0  0  0  0  0  0  0  0  0
    5.7130   69.7950   66.0210 C   0  0  0  0  0  0  0  0  0  0  0  0
    5.3960   69.3130   64.7490 C   0  0  0  0  0  0  0  0  0  0  0  0
    5.1750   70.4050   68.2000 O   0  0  0  0  0  0  0  0  0  0  0  0
    6.2580   71.3340   68.1650 C   0  0  0  0  0  0  0  0  0  0  0  0
    7.2720   70.9110   69.2130 C   0  0  0  0  0  0  0  0  0  0  0  0
    2.0442   65.0587   66.5373 H   0  0  0  0  0  0  0  0  0  0  0  0
    2.2327   66.8507   64.8088 H   0  0  0  0  0  0  0  0  0  0  0  0
    5.6107   64.7991   63.0566 H   0  0  0  0  0  0  0  0  0  0  0  0
    5.4121   63.0129   64.7801 H   0  0  0  0  0  0  0  0  0  0  0  0
    3.1470   62.3019   69.9138 H   0  0  0  0  0  0  0  0  0  0  0  0
    1.9393   62.2055   68.5876 H   0  0  0  0  0  0  0  0  0  0  0  0
    3.3626   61.1096   68.5876 H   0  0  0  0  0  0  0  0  0  0  0  0
    4.8498   63.1143   68.3613 H   0  0  0  0  0  0  0  0  0  0  0  0
    3.3693   64.1418   68.2321 H   0  0  0  0  0  0  0  0  0  0  0  0
    2.0523   68.7897   65.1974 H   0  0  0  0  0  0  0  0  0  0  0  0
    2.6321   69.6571   67.4655 H   0  0  0  0  0  0  0  0  0  0  0  0
    6.7504   70.0785   66.2520 H   0  0  0  0  0  0  0  0  0  0  0  0
    6.1824   69.2192   63.9856 H   0  0  0  0  0  0  0  0  0  0  0  0
    6.7248   71.3260   67.1690 H   0  0  0  0  0  0  0  0  0  0  0  0
    5.8957   72.3518   68.3722 H   0  0  0  0  0  0  0  0  0  0  0  0
    6.8562   71.0844   70.2165 H   0  0  0  0  0  0  0  0  0  0  0  0
    7.5014   69.8421   69.0909 H   0  0  0  0  0  0  0  0  0  0  0  0
    8.1930   71.5000   69.0909 H   0  0  0  0  0  0  0  0  0  0  0  0
  2  1  2  0
  4  3  2  0
  5  4  1  0
  6  5  2  0
  6  1  1  0
  7  6  1  0
  8  7  2  0
  8  3  1  0
  9  3  1  0
 11  9  1  0
 11 10  1  0
 12  1  1  0
 13 12  2  0
 14 12  1  0
 15 14  2  0
 16 15  1  0
 17 16  2  0
 18 17  1  0
 19 18  2  0
 19 14  1  0
 20 17  1  0
 21 20  1  0
 22 21  1  0
  4 23  1  0
  5 24  1  0
  7 25  1  0
  8 26  1  0
 10 27  1  0
 10 28  1  0
 10 29  1  0
 11 30  1  0
 11 31  1  0
 15 32  1  0
 16 33  1  0
 18 34  1  0
 19 35  1  0
 21 36  1  0
 21 37  1  0
 22 38  1  0
 22 39  1  0
 22 40  1  0
M  END
>  <score>  (6) 
-8.005

$$$$
=
     RDKit          3D

 40 41  0  0  0  0  0  0  0  0999 V2000
    0.3570   65.8550   70.3870 C   0  0  0  0  0  0  0  0  0  0  0  0
   -0.0520   66.4120   71.4000 O   0  0  0  0  0  0  0  0  0  0  0  0
    2.8170   62.3290   70.5200 C   0  0  0  0  0  0  0  0  0  0  0  0
    1.4360   62.2130   70.6790 C   0  0  0  0  0  0  0  0  0  0  0  0
    0.6200   63.3530   70.6420 C   0  0  0  0  0  0  0  0  0  0  0  0
    1.1810   64.6190   70.4500 C   0  0  0  0  0  0  0  0  0  0  0  0
    2.5670   64.7360   70.2970 C   0  0  0  0  0  0  0  0  0  0  0  0
    3.3750   63.5950   70.3340 C   0  0  0  0  0  0  0  0  0  0  0  0
    3.7250   61.3090   70.5380 O   0  0  0  0  0  0  0  0  0  0  0  0
    3.4720   58.9070   70.7610 C   0  0  0  0  0  0  0  0  0  0  0  0
    3.4320   60.1060   69.8290 C   0  0  0  0  0  0  0  0  0  0  0  0
    0.0420   66.4790   69.0480 C   0  0  0  0  0  0  0  0  0  0  0  0
   -0.9830   66.1340   68.4700 O   0  0  0  0  0  0  0  0  0  0  0  0
    0.9890   67.4570   68.4480 C   0  0  0  0  0  0  0  0  0  0  0  0
    1.7560   68.3310   69.2260 C   0  0  0  0  0  0  0  0  0  0  0  0
    2.6490   69.2240   68.6160 C   0  0  0  0  0  0  0  0  0  0  0  0
    2.7810   69.2480   67.2270 C   0  0  0  0  0  0  0  0  0  0  0  0
    2.0150   68.3750   66.4530 C   0  0  0  0  0  0  0  0  0  0  0  0
    1.1230   67.4840   67.0550 C   0  0  0  0  0  0  0  0  0  0  0  0
    3.6120   70.0650   66.5120 O   0  0  0  0  0  0  0  0  0  0  0  0
    4.8220   69.4940   66.0190 C   0  0  0  0  0  0  0  0  0  0  0  0
    5.9780   70.1150   66.7830 C   0  0  0  0  0  0  0  0  0  0  0  0
    0.9846   61.2220   70.8342 H   0  0  0  0  0  0  0  0  0  0  0  0
   -0.4683   63.2504   70.7648 H   0  0  0  0  0  0  0  0  0  0  0  0
    3.0215   65.7265   70.1475 H   0  0  0  0  0  0  0  0  0  0  0  0
    4.4638   63.6965   70.2150 H   0  0  0  0  0  0  0  0  0  0  0  0
    3.4604   59.2535   71.8049 H   0  0  0  0  0  0  0  0  0  0  0  0
    2.5946   58.2697   70.5765 H   0  0  0  0  0  0  0  0  0  0  0  0
    4.3899   58.3296   70.5765 H   0  0  0  0  0  0  0  0  0  0  0  0
    2.4286   60.1843   69.3851 H   0  0  0  0  0  0  0  0  0  0  0  0
    4.1888   59.9669   69.0429 H   0  0  0  0  0  0  0  0  0  0  0  0
    1.6582   68.3177   70.3216 H   0  0  0  0  0  0  0  0  0  0  0  0
    3.2478   69.9083   69.2350 H   0  0  0  0  0  0  0  0  0  0  0  0
    2.1146   68.3886   65.3576 H   0  0  0  0  0  0  0  0  0  0  0  0
    0.5247   66.8022   66.4328 H   0  0  0  0  0  0  0  0  0  0  0  0
    4.8124   68.4053   66.1761 H   0  0  0  0  0  0  0  0  0  0  0  0
    4.9263   69.6899   64.9416 H   0  0  0  0  0  0  0  0  0  0  0  0
    5.7975   70.0180   67.8637 H   0  0  0  0  0  0  0  0  0  0  0  0
    6.9120   69.5972   66.5194 H   0  0  0  0  0  0  0  0  0  0  0  0
    6.0620   71.1796   66.5194 H   0  0  0  0  0  0  0  0  0  0  0  0
  2  1  2  0
  4  3  2  0
  5  4  1  0
  6  5  2  0
  6  1  1  0
  7  6  1  0
  8  7  2  0
  8  3  1  0
  9  3  1  0
 11  9  1  0
 11 10  1  0
 12  1  1  0
 13 12  2  0
 14 12  1  0
 15 14  2  0
 16 15  1  0
 17 16  2  0
 18 17  1  0
 19 18  2  0
 19 14  1  0
 20 17  1  0
 21 20  1  0
 22 21  1  0
  4 23  1  0
  5 24  1  0
  7 25  1  0
  8 26  1  0
 10 27  1  0
 10 28  1  0
 10 29  1  0
 11 30  1  0
 11 31  1  0
 15 32  1  0
 16 33  1  0
 18 34  1  0
 19 35  1  0
 21 36  1  0
 21 37  1  0
 22 38  1  0
 22 39  1  0
 22 40  1  0
M  END
>  <score>  (7) 
-7.683

$$$$
=
     RDKit          3D

 40 41  0  0  0  0  0  0  0  0999 V2000
   -0.5160   69.0580   67.0520 C   0  0  0  0  0  0  0  0  0  0  0  0
   -0.5620   70.2440   67.3580 O   0  0  0  0  0  0  0  0  0  0  0  0
    0.5660   66.0120   69.8890 C   0  0  0  0  0  0  0  0  0  0  0  0
    1.4990   66.9850   69.5330 C   0  0  0  0  0  0  0  0  0  0  0  0
    1.1640   67.9840   68.6060 C   0  0  0  0  0  0  0  0  0  0  0  0
   -0.1080   68.0120   68.0260 C   0  0  0  0  0  0  0  0  0  0  0  0
   -1.0420   67.0310   68.3790 C   0  0  0  0  0  0  0  0  0  0  0  0
   -0.7010   66.0400   69.3050 C   0  0  0  0  0  0  0  0  0  0  0  0
    0.7590   64.9870   70.7710 O   0  0  0  0  0  0  0  0  0  0  0  0
    1.8930   62.9020   70.2680 C   0  0  0  0  0  0  0  0  0  0  0  0
    0.5690   63.6440   70.3270 C   0  0  0  0  0  0  0  0  0  0  0  0
   -0.8440   68.6710   65.6290 C   0  0  0  0  0  0  0  0  0  0  0  0
   -1.9930   68.3320   65.3680 O   0  0  0  0  0  0  0  0  0  0  0  0
    0.2270   68.6710   64.5980 C   0  0  0  0  0  0  0  0  0  0  0  0
   -0.0450   68.8370   63.2350 C   0  0  0  0  0  0  0  0  0  0  0  0
    1.0000   68.8470   62.3010 C   0  0  0  0  0  0  0  0  0  0  0  0
    2.3210   68.6930   62.7200 C   0  0  0  0  0  0  0  0  0  0  0  0
    2.5900   68.5270   64.0790 C   0  0  0  0  0  0  0  0  0  0  0  0
    1.5530   68.5150   65.0160 C   0  0  0  0  0  0  0  0  0  0  0  0
    3.4260   68.6860   61.9150 O   0  0  0  0  0  0  0  0  0  0  0  0
    4.5630   67.9560   62.3750 C   0  0  0  0  0  0  0  0  0  0  0  0
    5.6910   68.9460   62.6060 C   0  0  0  0  0  0  0  0  0  0  0  0
    2.5034   66.9695   69.9813 H   0  0  0  0  0  0  0  0  0  0  0  0
    1.9061   68.7491   68.3342 H   0  0  0  0  0  0  0  0  0  0  0  0
   -2.0451   67.0396   67.9277 H   0  0  0  0  0  0  0  0  0  0  0  0
   -1.4411   65.2728   69.5765 H   0  0  0  0  0  0  0  0  0  0  0  0
    2.2478   62.7032   71.2901 H   0  0  0  0  0  0  0  0  0  0  0  0
    1.7560   61.9492   69.7356 H   0  0  0  0  0  0  0  0  0  0  0  0
    2.6341   63.5162   69.7356 H   0  0  0  0  0  0  0  0  0  0  0  0
   -0.1041   63.1253   71.0255 H   0  0  0  0  0  0  0  0  0  0  0  0
    0.1319   63.6652   69.3178 H   0  0  0  0  0  0  0  0  0  0  0  0
   -1.0839   68.9602   62.8953 H   0  0  0  0  0  0  0  0  0  0  0  0
    0.7768   68.9770   61.2318 H   0  0  0  0  0  0  0  0  0  0  0  0
    3.6297   68.4042   64.4167 H   0  0  0  0  0  0  0  0  0  0  0  0
    1.7799   68.3826   66.0842 H   0  0  0  0  0  0  0  0  0  0  0  0
    4.3203   67.4398   63.3156 H   0  0  0  0  0  0  0  0  0  0  0  0
    4.8610   67.2023   61.6313 H   0  0  0  0  0  0  0  0  0  0  0  0
    5.8448   69.0810   63.6868 H   0  0  0  0  0  0  0  0  0  0  0  0
    6.6151   68.5621   62.1493 H   0  0  0  0  0  0  0  0  0  0  0  0
    5.4302   69.9121   62.1493 H   0  0  0  0  0  0  0  0  0  0  0  0
  2  1  2  0
  4  3  2  0
  5  4  1  0
  6  5  2  0
  6  1  1  0
  7  6  1  0
  8  7  2  0
  8  3  1  0
  9  3  1  0
 11  9  1  0
 11 10  1  0
 12  1  1  0
 13 12  2  0
 14 12  1  0
 15 14  2  0
 16 15  1  0
 17 16  2  0
 18 17  1  0
 19 18  2  0
 19 14  1  0
 20 17  1  0
 21 20  1  0
 22 21  1  0
  4 23  1  0
  5 24  1  0
  7 25  1  0
  8 26  1  0
 10 27  1  0
 10 28  1  0
 10 29  1  0
 11 30  1  0
 11 31  1  0
 15 32  1  0
 16 33  1  0
 18 34  1  0
 19 35  1  0
 21 36  1  0
 21 37  1  0
 22 38  1  0
 22 39  1  0
 22 40  1  0
M  END
>  <score>  (8) 
-7.636

$$$$
=
     RDKit          3D

 40 41  0  0  0  0  0  0  0  0999 V2000
    4.2750   61.4500   71.9140 C   0  0  0  0  0  0  0  0  0  0  0  0
    5.2430   61.7270   72.6130 O   0  0  0  0  0  0  0  0  0  0  0  0
    1.2970   64.4080   70.9740 C   0  0  0  0  0  0  0  0  0  0  0  0
    1.0120   63.4160   71.9110 C   0  0  0  0  0  0  0  0  0  0  0  0
    1.9700   62.4410   72.2270 C   0  0  0  0  0  0  0  0  0  0  0  0
    3.2210   62.4510   71.6020 C   0  0  0  0  0  0  0  0  0  0  0  0
    3.5040   63.4430   70.6560 C   0  0  0  0  0  0  0  0  0  0  0  0
    2.5450   64.4120   70.3480 C   0  0  0  0  0  0  0  0  0  0  0  0
    0.4610   65.4110   70.5720 O   0  0  0  0  0  0  0  0  0  0  0  0
    0.0590   66.9010   68.7010 C   0  0  0  0  0  0  0  0  0  0  0  0
    0.9950   66.5050   69.8290 C   0  0  0  0  0  0  0  0  0  0  0  0
    4.1420   60.0360   71.3990 C   0  0  0  0  0  0  0  0  0  0  0  0
    4.6280   59.7660   70.3060 O   0  0  0  0  0  0  0  0  0  0  0  0
    3.4010   59.0250   72.1990 C   0  0  0  0  0  0  0  0  0  0  0  0
    3.3240   59.0850   73.5950 C   0  0  0  0  0  0  0  0  0  0  0  0
    2.5990   58.1180   74.3050 C   0  0  0  0  0  0  0  0  0  0  0  0
    1.9470   57.0870   73.6280 C   0  0  0  0  0  0  0  0  0  0  0  0
    2.0260   57.0300   72.2360 C   0  0  0  0  0  0  0  0  0  0  0  0
    2.7470   57.9890   71.5220 C   0  0  0  0  0  0  0  0  0  0  0  0
    1.2100   56.0880   74.1990 O   0  0  0  0  0  0  0  0  0  0  0  0
   -0.1500   55.9630   73.7860 C   0  0  0  0  0  0  0  0  0  0  0  0
   -0.9650   57.0000   74.5400 C   0  0  0  0  0  0  0  0  0  0  0  0
    0.0297   63.3976   72.4058 H   0  0  0  0  0  0  0  0  0  0  0  0
    1.7359   61.6646   72.9703 H   0  0  0  0  0  0  0  0  0  0  0  0
    4.4827   63.4600   70.1541 H   0  0  0  0  0  0  0  0  0  0  0  0
    2.7764   65.1875   69.6030 H   0  0  0  0  0  0  0  0  0  0  0  0
   -0.8766   67.2968   69.1228 H   0  0  0  0  0  0  0  0  0  0  0  0
    0.5377   67.6737   68.0815 H   0  0  0  0  0  0  0  0  0  0  0  0
   -0.1622   66.0194   68.0815 H   0  0  0  0  0  0  0  0  0  0  0  0
    1.1324   67.3645   70.5016 H   0  0  0  0  0  0  0  0  0  0  0  0
    1.9586   66.1989   69.3956 H   0  0  0  0  0  0  0  0  0  0  0  0
    3.8346   59.8944   74.1374 H   0  0  0  0  0  0  0  0  0  0  0  0
    2.5438   58.1724   75.4023 H   0  0  0  0  0  0  0  0  0  0  0  0
    1.5144   56.2203   71.6951 H   0  0  0  0  0  0  0  0  0  0  0  0
    2.8012   57.9303   70.4249 H   0  0  0  0  0  0  0  0  0  0  0  0
   -0.2295   56.1404   72.7033 H   0  0  0  0  0  0  0  0  0  0  0  0
   -0.5241   54.9513   74.0016 H   0  0  0  0  0  0  0  0  0  0  0  0
   -0.8436   56.8456   75.6223 H   0  0  0  0  0  0  0  0  0  0  0  0
   -0.6146   58.0076   74.2718 H   0  0  0  0  0  0  0  0  0  0  0  0
   -2.0269   56.8976   74.2718 H   0  0  0  0  0  0  0  0  0  0  0  0
  2  1  2  0
  4  3  2  0
  5  4  1  0
  6  5  2  0
  6  1  1  0
  7  6  1  0
  8  7  2  0
  8  3  1  0
  9  3  1  0
 11  9  1  0
 11 10  1  0
 12  1  1  0
 13 12  2  0
 14 12  1  0
 15 14  2  0
 16 15  1  0
 17 16  2  0
 18 17  1  0
 19 18  2  0
 19 14  1  0
 20 17  1  0
 21 20  1  0
 22 21  1  0
  4 23  1  0
  5 24  1  0
  7 25  1  0
  8 26  1  0
 10 27  1  0
 10 28  1  0
 10 29  1  0
 11 30  1  0
 11 31  1  0
 15 32  1  0
 16 33  1  0
 18 34  1  0
 19 35  1  0
 21 36  1  0
 21 37  1  0
 22 38  1  0
 22 39  1  0
 22 40  1  0
M  END
>  <score>  (9) 
-7.378

$$$$
