=
     RDKit          3D

 51 54  0  0  0  0  0  0  0  0999 V2000
    0.4880   67.9200   65.1100 N   0  0  0  0  0  4  0  0  0  0  0  0
    1.3800   67.2890   66.1610 C   0  0  0  0  0  0  0  0  0  0  0  0
    1.1740   67.9480   67.5170 C   0  0  0  0  0  0  0  0  0  0  0  0
   -0.2760   67.7990   68.0160 C   0  0  0  0  0  0  0  0  0  0  0  0
   -1.2760   67.9160   66.8490 C   0  0  0  0  0  0  0  0  0  0  0  0
   -0.7040   68.6740   65.6630 C   0  0  0  0  0  0  0  0  0  0  0  0
    1.2720   68.7310   64.1000 C   0  0  0  0  0  0  0  0  0  0  0  0
    5.5490   68.3670   64.4770 C   0  0  0  0  0  0  0  0  0  0  0  0
    4.8610   69.3140   65.2330 C   0  0  0  0  0  0  0  0  0  0  0  0
    3.4750   69.4260   65.1210 C   0  0  0  0  0  0  0  0  0  0  0  0
    2.7630   68.5900   64.2480 C   0  0  0  0  0  0  0  0  0  0  0  0
    3.4660   67.6360   63.4950 C   0  0  0  0  0  0  0  0  0  0  0  0
    4.8520   67.5280   63.6110 C   0  0  0  0  0  0  0  0  0  0  0  0
   -0.4460   66.4690   68.7790 C   0  0  0  0  0  0  0  0  0  0  0  0
    0.3530   66.3890   70.0870 C   0  0  0  0  0  0  0  0  0  0  0  0
    1.4250   65.4160   69.9600 N   0  0  0  0  0  0  0  0  0  0  0  0
    1.5780   64.4310   70.8870 C   0  0  0  0  0  0  0  0  0  0  0  0
    0.6750   64.0640   71.8070 N   0  0  0  0  0  0  0  0  0  0  0  0
    1.2560   63.0340   72.5260 O   0  0  0  0  0  0  0  0  0  0  0  0
    2.4980   62.7810   72.0370 C   0  0  0  0  0  0  0  0  0  0  0  0
    2.7580   63.6420   70.9840 C   0  0  0  0  0  0  0  0  0  0  0  0
    3.9990   63.5420   70.3260 C   0  0  0  0  0  0  0  0  0  0  0  0
    4.9160   62.5780   70.7690 C   0  0  0  0  0  0  0  0  0  0  0  0
    4.6130   61.7310   71.8390 C   0  0  0  0  0  0  0  0  0  0  0  0
    3.3840   61.8140   72.5030 C   0  0  0  0  0  0  0  0  0  0  0  0
    0.0755   67.1229   64.6047 H   0  0  0  0  0  0  0  0  0  0  0  0
    1.1401   66.2185   66.2410 H   0  0  0  0  0  0  0  0  0  0  0  0
    2.4289   67.4270   65.8596 H   0  0  0  0  0  0  0  0  0  0  0  0
    1.8507   67.4789   68.2464 H   0  0  0  0  0  0  0  0  0  0  0  0
    1.3880   69.0216   67.4094 H   0  0  0  0  0  0  0  0  0  0  0  0
   -0.4930   68.6204   68.7147 H   0  0  0  0  0  0  0  0  0  0  0  0
   -1.5531   66.9037   66.5197 H   0  0  0  0  0  0  0  0  0  0  0  0
   -2.1490   68.4773   67.2134 H   0  0  0  0  0  0  0  0  0  0  0  0
   -0.3861   69.6760   65.9868 H   0  0  0  0  0  0  0  0  0  0  0  0
   -1.4731   68.7682   64.8822 H   0  0  0  0  0  0  0  0  0  0  0  0
    0.9888   68.3984   63.0905 H   0  0  0  0  0  0  0  0  0  0  0  0
    1.0272   69.7894   64.2731 H   0  0  0  0  0  0  0  0  0  0  0  0
    6.6423   68.2821   64.5642 H   0  0  0  0  0  0  0  0  0  0  0  0
    5.4116   69.9743   65.9192 H   0  0  0  0  0  0  0  0  0  0  0  0
    2.9370   70.1746   65.7211 H   0  0  0  0  0  0  0  0  0  0  0  0
    2.9209   66.9701   62.8098 H   0  0  0  0  0  0  0  0  0  0  0  0
    5.3956   66.7785   63.0171 H   0  0  0  0  0  0  0  0  0  0  0  0
   -1.5123   66.3417   69.0175 H   0  0  0  0  0  0  0  0  0  0  0  0
   -0.0591   65.6756   68.1226 H   0  0  0  0  0  0  0  0  0  0  0  0
    0.7828   67.3763   70.3115 H   0  0  0  0  0  0  0  0  0  0  0  0
   -0.3193   66.0791   70.9006 H   0  0  0  0  0  0  0  0  0  0  0  0
    2.0741   65.4722   69.1623 H   0  0  0  0  0  0  0  0  0  0  0  0
    4.2436   64.2053   69.4833 H   0  0  0  0  0  0  0  0  0  0  0  0
    5.8901   62.4868   70.2661 H   0  0  0  0  0  0  0  0  0  0  0  0
    5.3538   60.9860   72.1648 H   0  0  0  0  0  0  0  0  0  0  0  0
    3.1325   61.1527   73.3453 H   0  0  0  0  0  0  0  0  0  0  0  0
  2  1  1  0
  3  2  1  0
  4  3  1  0
  5  4  1  0
  6  1  1  0
  6  5  1  0
  7  1  1  0
  9  8  2  0
 10  9  1  0
 11 10  2  0
 11  7  1  0
 12 11  1  0
 13 12  2  0
 13  8  1  0
 14  4  1  0
 15 14  1  0
 16 15  1  0
 17 16  1  0
 18 17  2  0
 19 18  1  0
 20 19  1  0
 21 20  2  0
 21 17  1  0
 22 21  1  0
 23 22  2  0
 24 23  1  0
 25 24  2  0
 25 20  1  0
  1 26  1  0
  2 27  1  0
  2 28  1  0
  3 29  1  0
  3 30  1  0
  4 31  1  0
  5 32  1  0
  5 33  1  0
  6 34  1  0
  6 35  1  0
  7 36  1  0
  7 37  1  0
  8 38  1  0
  9 39  1  0
 10 40  1  0
 12 41  1  0
 13 42  1  0
 14 43  1  0
 14 44  1  0
 15 45  1  0
 15 46  1  0
 16 47  1  0
 22 48  1  0
 23 49  1  0
 24 50  1  0
 25 51  1  0
M  CHG  1   1   1
M  END
>  <score>  (1) 
-10.181

$$$$
=
     RDKit          3D

 51 54  0  0  0  0  0  0  0  0999 V2000
    1.4300   63.3580   70.8680 N   0  0  0  0  0  4  0  0  0  0  0  0
    0.0570   63.9240   71.1660 C   0  0  0  0  0  0  0  0  0  0  0  0
    0.1300   65.4220   71.4230 C   0  0  0  0  0  0  0  0  0  0  0  0
    0.6730   66.1900   70.2030 C   0  0  0  0  0  0  0  0  0  0  0  0
    1.7840   65.3890   69.4960 C   0  0  0  0  0  0  0  0  0  0  0  0
    2.4510   64.3810   70.4160 C   0  0  0  0  0  0  0  0  0  0  0  0
    1.9450   62.4760   71.9860 C   0  0  0  0  0  0  0  0  0  0  0  0
    3.3730   58.6580   70.5920 C   0  0  0  0  0  0  0  0  0  0  0  0
    3.4760   59.7800   69.7740 C   0  0  0  0  0  0  0  0  0  0  0  0
    3.0240   61.0200   70.2280 C   0  0  0  0  0  0  0  0  0  0  0  0
    2.4640   61.1470   71.5080 C   0  0  0  0  0  0  0  0  0  0  0  0
    2.3690   60.0090   72.3240 C   0  0  0  0  0  0  0  0  0  0  0  0
    2.8220   58.7720   71.8670 C   0  0  0  0  0  0  0  0  0  0  0  0
   -0.4770   66.5410   69.2350 C   0  0  0  0  0  0  0  0  0  0  0  0
   -0.0310   67.2960   67.9750 C   0  0  0  0  0  0  0  0  0  0  0  0
    0.8710   68.3780   68.3340 N   0  0  0  0  0  0  0  0  0  0  0  0
    1.9570   68.6560   67.5630 C   0  0  0  0  0  0  0  0  0  0  0  0
    2.1780   68.2110   66.3180 N   0  0  0  0  0  0  0  0  0  0  0  0
    3.3970   68.7410   65.9320 O   0  0  0  0  0  0  0  0  0  0  0  0
    3.9020   69.5030   66.9370 C   0  0  0  0  0  0  0  0  0  0  0  0
    3.0230   69.4890   68.0060 C   0  0  0  0  0  0  0  0  0  0  0  0
    3.3550   70.2270   69.1580 C   0  0  0  0  0  0  0  0  0  0  0  0
    4.5620   70.9400   69.1710 C   0  0  0  0  0  0  0  0  0  0  0  0
    5.4230   70.9230   68.0700 C   0  0  0  0  0  0  0  0  0  0  0  0
    5.1080   70.1970   66.9160 C   0  0  0  0  0  0  0  0  0  0  0  0
    1.2906   62.7545   70.0450 H   0  0  0  0  0  0  0  0  0  0  0  0
   -0.6033   63.7381   70.3061 H   0  0  0  0  0  0  0  0  0  0  0  0
   -0.3373   63.4321   72.0674 H   0  0  0  0  0  0  0  0  0  0  0  0
   -0.8794   65.7922   71.6555 H   0  0  0  0  0  0  0  0  0  0  0  0
    0.8183   65.5897   72.2645 H   0  0  0  0  0  0  0  0  0  0  0  0
    1.1215   67.1315   70.5528 H   0  0  0  0  0  0  0  0  0  0  0  0
    1.3430   64.8509   68.6440 H   0  0  0  0  0  0  0  0  0  0  0  0
    2.5541   66.1032   69.1691 H   0  0  0  0  0  0  0  0  0  0  0  0
    2.8621   64.9014   71.2936 H   0  0  0  0  0  0  0  0  0  0  0  0
    3.2644   63.8739   69.8764 H   0  0  0  0  0  0  0  0  0  0  0  0
    2.7615   63.0049   72.4994 H   0  0  0  0  0  0  0  0  0  0  0  0
    1.0964   62.2715   72.6553 H   0  0  0  0  0  0  0  0  0  0  0  0
    3.7268   57.6808   70.2316 H   0  0  0  0  0  0  0  0  0  0  0  0
    3.9140   59.6891   68.7691 H   0  0  0  0  0  0  0  0  0  0  0  0
    3.1074   61.9034   69.5779 H   0  0  0  0  0  0  0  0  0  0  0  0
    1.9342   60.0935   73.3309 H   0  0  0  0  0  0  0  0  0  0  0  0
    2.7444   57.8853   72.5134 H   0  0  0  0  0  0  0  0  0  0  0  0
   -0.9625   65.6048   68.9224 H   0  0  0  0  0  0  0  0  0  0  0  0
   -1.1563   67.2118   69.7814 H   0  0  0  0  0  0  0  0  0  0  0  0
    0.4866   66.6003   67.2981 H   0  0  0  0  0  0  0  0  0  0  0  0
   -0.9161   67.7161   67.4748 H   0  0  0  0  0  0  0  0  0  0  0  0
    0.6866   68.9384   69.1783 H   0  0  0  0  0  0  0  0  0  0  0  0
    2.6825   70.2438   70.0283 H   0  0  0  0  0  0  0  0  0  0  0  0
    4.8361   71.5227   70.0628 H   0  0  0  0  0  0  0  0  0  0  0  0
    6.3646   71.4902   68.1115 H   0  0  0  0  0  0  0  0  0  0  0  0
    5.7756   70.1761   66.0420 H   0  0  0  0  0  0  0  0  0  0  0  0
  2  1  1  0
  3  2  1  0
  4  3  1  0
  5  4  1  0
  6  1  1  0
  6  5  1  0
  7  1  1  0
  9  8  2  0
 10  9  1  0
 11 10  2  0
 11  7  1  0
 12 11  1  0
 13 12  2  0
 13  8  1  0
 14  4  1  0
 15 14  1  0
 16 15  1  0
 17 16  1  0
 18 17  2  0
 19 18  1  0
 20 19  1  0
 21 20  2  0
 21 17  1  0
 22 21  1  0
 23 22  2  0
 24 23  1  0
 25 24  2  0
 25 20  1  0
  1 26  1  0
  2 27  1  0
  2 28  1  0
  3 29  1  0
  3 30  1  0
  4 31  1  0
  5 32  1  0
  5 33  1  0
  6 34  1  0
  6 35  1  0
  7 36  1  0
  7 37  1  0
  8 38  1  0
  9 39  1  0
 10 40  1  0
 12 41  1  0
 13 42  1  0
 14 43  1  0
 14 44  1  0
 15 45  1  0
 15 46  1  0
 16 47  1  0
 22 48  1  0
 23 49  1  0
 24 50  1  0
 25 51  1  0
M  CHG  1   1   1
M  END
>  <score>  (2) 
-10.093

$$$$
=
     RDKit          3D

 51 54  0  0  0  0  0  0  0  0999 V2000
    1.1560   68.1660   65.4860 N   0  0  0  0  0  4  0  0  0  0  0  0
    2.2720   67.1450   65.5700 C   0  0  0  0  0  0  0  0  0  0  0  0
    2.5600   66.5380   64.2040 C   0  0  0  0  0  0  0  0  0  0  0  0
    3.0070   67.6020   63.1840 C   0  0  0  0  0  0  0  0  0  0  0  0
    2.2350   68.9210   63.3880 C   0  0  0  0  0  0  0  0  0  0  0  0
    0.9070   68.7160   64.0960 C   0  0  0  0  0  0  0  0  0  0  0  0
   -0.1140   67.6890   66.1590 C   0  0  0  0  0  0  0  0  0  0  0  0
    0.4630   66.4520   70.2460 C   0  0  0  0  0  0  0  0  0  0  0  0
   -0.7150   66.1270   69.5790 C   0  0  0  0  0  0  0  0  0  0  0  0
   -0.9000   66.5170   68.2530 C   0  0  0  0  0  0  0  0  0  0  0  0
    0.0970   67.2390   67.5790 C   0  0  0  0  0  0  0  0  0  0  0  0
    1.2830   67.5570   68.2600 C   0  0  0  0  0  0  0  0  0  0  0  0
    1.4620   67.1650   69.5860 C   0  0  0  0  0  0  0  0  0  0  0  0
    4.5320   67.8180   63.2680 C   0  0  0  0  0  0  0  0  0  0  0  0
    4.9500   69.2810   63.4760 C   0  0  0  0  0  0  0  0  0  0  0  0
    5.7290   69.4100   64.6960 N   0  0  0  0  0  0  0  0  0  0  0  0
    5.1160   69.6610   65.8840 C   0  0  0  0  0  0  0  0  0  0  0  0
    3.8050   69.5450   66.1380 N   0  0  0  0  0  0  0  0  0  0  0  0
    3.6370   69.9010   67.4640 O   0  0  0  0  0  0  0  0  0  0  0  0
    4.8410   70.2240   68.0050 C   0  0  0  0  0  0  0  0  0  0  0  0
    5.8250   70.0860   67.0420 C   0  0  0  0  0  0  0  0  0  0  0  0
    7.1580   70.3670   67.3990 C   0  0  0  0  0  0  0  0  0  0  0  0
    7.4270   70.7780   68.7130 C   0  0  0  0  0  0  0  0  0  0  0  0
    6.4000   70.9080   69.6530 C   0  0  0  0  0  0  0  0  0  0  0  0
    5.0710   70.6300   69.3160 C   0  0  0  0  0  0  0  0  0  0  0  0
    1.4996   68.9739   66.0246 H   0  0  0  0  0  0  0  0  0  0  0  0
    3.1820   67.6367   65.9442 H   0  0  0  0  0  0  0  0  0  0  0  0
    1.9603   66.3405   66.2523 H   0  0  0  0  0  0  0  0  0  0  0  0
    3.3586   65.7889   64.3092 H   0  0  0  0  0  0  0  0  0  0  0  0
    1.6316   66.0794   63.8327 H   0  0  0  0  0  0  0  0  0  0  0  0
    2.7715   67.2391   62.1727 H   0  0  0  0  0  0  0  0  0  0  0  0
    2.8541   69.6022   63.9903 H   0  0  0  0  0  0  0  0  0  0  0  0
    2.0216   69.3398   62.3935 H   0  0  0  0  0  0  0  0  0  0  0  0
    0.2927   68.0045   63.5246 H   0  0  0  0  0  0  0  0  0  0  0  0
    0.3789   69.6780   64.1712 H   0  0  0  0  0  0  0  0  0  0  0  0
   -0.8404   68.5150   66.1590 H   0  0  0  0  0  0  0  0  0  0  0  0
   -0.4756   66.8185   65.5920 H   0  0  0  0  0  0  0  0  0  0  0  0
    0.6051   66.1463   71.2931 H   0  0  0  0  0  0  0  0  0  0  0  0
   -1.5018   65.5611   70.0993 H   0  0  0  0  0  0  0  0  0  0  0  0
   -1.8333   66.2571   67.7320 H   0  0  0  0  0  0  0  0  0  0  0  0
    2.0757   68.1188   67.7443 H   0  0  0  0  0  0  0  0  0  0  0  0
    2.3939   67.4191   70.1123 H   0  0  0  0  0  0  0  0  0  0  0  0
    4.9184   67.2257   64.1105 H   0  0  0  0  0  0  0  0  0  0  0  0
    4.9495   67.5046   62.2998 H   0  0  0  0  0  0  0  0  0  0  0  0
    5.5572   69.6109   62.6202 H   0  0  0  0  0  0  0  0  0  0  0  0
    4.0476   69.9047   63.5578 H   0  0  0  0  0  0  0  0  0  0  0  0
    6.7536   69.3106   64.6608 H   0  0  0  0  0  0  0  0  0  0  0  0
    7.9701   70.2664   66.6639 H   0  0  0  0  0  0  0  0  0  0  0  0
    8.4626   71.0016   69.0087 H   0  0  0  0  0  0  0  0  0  0  0  0
    6.6413   71.2346   70.6753 H   0  0  0  0  0  0  0  0  0  0  0  0
    4.2540   70.7269   70.0461 H   0  0  0  0  0  0  0  0  0  0  0  0
  2  1  1  0
  3  2  1  0
  4  3  1  0
  5  4  1  0
  6  1  1  0
  6  5  1  0
  7  1  1  0
  9  8  2  0
 10  9  1  0
 11 10  2  0
 11  7  1  0
 12 11  1  0
 13 12  2  0
 13  8  1  0
 14  4  1  0
 15 14  1  0
 16 15  1  0
 17 16  1  0
 18 17  2  0
 19 18  1  0
 20 19  1  0
 21 20  2  0
 21 17  1  0
 22 21  1  0
 23 22  2  0
 24 23  1  0
 25 24  2  0
 25 20  1  0
  1 26  1  0
  2 27  1  0
  2 28  1  0
  3 29  1  0
  3 30  1  0
  4 31  1  0
  5 32  1  0
  5 33  1  0
  6 34  1  0
  6 35  1  0
  7 36  1  0
  7 37  1  0
  8 38  1  0
  9 39  1  0
 10 40  1  0
 12 41  1  0
 13 42  1  0
 14 43  1  0
 14 44  1  0
 15 45  1  0
 15 46  1  0
 16 47  1  0
 22 48  1  0
 23 49  1  0
 24 50  1  0
 25 51  1  0
M  CHG  1   1   1
M  END
>  <score>  (3) 
-10.042

$$$$
=
     RDKit          3D

 51 54  0  0  0  0  0  0  0  0999 V2000
    1.7540   63.4500   72.6470 N   0  0  0  0  0  4  0  0  0  0  0  0
    2.3210   63.7900   71.2840 C   0  0  0  0  0  0  0  0  0  0  0  0
    1.2090   63.9560   70.2580 C   0  0  0  0  0  0  0  0  0  0  0  0
    0.2430   65.0940   70.6340 C   0  0  0  0  0  0  0  0  0  0  0  0
    0.0130   65.1430   72.1580 C   0  0  0  0  0  0  0  0  0  0  0  0
    0.2940   63.8110   72.8330 C   0  0  0  0  0  0  0  0  0  0  0  0
    2.0570   62.0240   73.0590 C   0  0  0  0  0  0  0  0  0  0  0  0
    4.9410   60.1360   70.4740 C   0  0  0  0  0  0  0  0  0  0  0  0
    5.3710   60.9380   71.5290 C   0  0  0  0  0  0  0  0  0  0  0  0
    4.4390   61.5420   72.3740 C   0  0  0  0  0  0  0  0  0  0  0  0
    3.0650   61.3480   72.1700 C   0  0  0  0  0  0  0  0  0  0  0  0
    2.6430   60.5340   71.1060 C   0  0  0  0  0  0  0  0  0  0  0  0
    3.5790   59.9330   70.2640 C   0  0  0  0  0  0  0  0  0  0  0  0
    0.7670   66.4420   70.0960 C   0  0  0  0  0  0  0  0  0  0  0  0
    0.1370   66.8750   68.7650 C   0  0  0  0  0  0  0  0  0  0  0  0
    1.0370   67.7660   68.0520 N   0  0  0  0  0  0  0  0  0  0  0  0
    1.2590   67.6010   66.7190 C   0  0  0  0  0  0  0  0  0  0  0  0
    0.5260   66.8530   65.8820 N   0  0  0  0  0  0  0  0  0  0  0  0
    1.1160   66.9800   64.6370 O   0  0  0  0  0  0  0  0  0  0  0  0
    2.1920   67.8050   64.7250 C   0  0  0  0  0  0  0  0  0  0  0  0
    2.3310   68.2360   66.0320 C   0  0  0  0  0  0  0  0  0  0  0  0
    3.3900   69.1110   66.3430 C   0  0  0  0  0  0  0  0  0  0  0  0
    4.2570   69.5040   65.3130 C   0  0  0  0  0  0  0  0  0  0  0  0
    4.0820   69.0410   64.0050 C   0  0  0  0  0  0  0  0  0  0  0  0
    3.0340   68.1720   63.6790 C   0  0  0  0  0  0  0  0  0  0  0  0
    2.2567   64.0684   73.2995 H   0  0  0  0  0  0  0  0  0  0  0  0
    2.8889   64.7294   71.3545 H   0  0  0  0  0  0  0  0  0  0  0  0
    2.9764   62.9676   70.9614 H   0  0  0  0  0  0  0  0  0  0  0  0
    1.6590   64.1807   69.2797 H   0  0  0  0  0  0  0  0  0  0  0  0
    0.6339   63.0189   70.2254 H   0  0  0  0  0  0  0  0  0  0  0  0
   -0.7312   64.8962   70.1631 H   0  0  0  0  0  0  0  0  0  0  0  0
    0.6782   65.9048   72.5906 H   0  0  0  0  0  0  0  0  0  0  0  0
   -1.0461   65.3865   72.3281 H   0  0  0  0  0  0  0  0  0  0  0  0
   -0.3371   63.0309   72.3823 H   0  0  0  0  0  0  0  0  0  0  0  0
    0.0689   63.8888   73.9069 H   0  0  0  0  0  0  0  0  0  0  0  0
    2.4490   62.0335   74.0867 H   0  0  0  0  0  0  0  0  0  0  0  0
    1.1187   61.4556   72.9779 H   0  0  0  0  0  0  0  0  0  0  0  0
    5.6769   59.6632   69.8070 H   0  0  0  0  0  0  0  0  0  0  0  0
    6.4468   61.0953   71.6961 H   0  0  0  0  0  0  0  0  0  0  0  0
    4.7842   62.1743   73.2053 H   0  0  0  0  0  0  0  0  0  0  0  0
    1.5688   60.3695   70.9357 H   0  0  0  0  0  0  0  0  0  0  0  0
    3.2407   59.2974   69.4324 H   0  0  0  0  0  0  0  0  0  0  0  0
    0.5564   67.2184   70.8463 H   0  0  0  0  0  0  0  0  0  0  0  0
    1.8431   66.3113   69.9091 H   0  0  0  0  0  0  0  0  0  0  0  0
   -0.0579   65.9852   68.1484 H   0  0  0  0  0  0  0  0  0  0  0  0
   -0.8059   67.4036   68.9685 H   0  0  0  0  0  0  0  0  0  0  0  0
    1.5102   68.5277   68.5588 H   0  0  0  0  0  0  0  0  0  0  0  0
    3.5338   69.4777   67.3701 H   0  0  0  0  0  0  0  0  0  0  0  0
    5.0887   70.1880   65.5378 H   0  0  0  0  0  0  0  0  0  0  0  0
    4.7798   69.3652   63.2189 H   0  0  0  0  0  0  0  0  0  0  0  0
    2.8844   67.8003   62.6546 H   0  0  0  0  0  0  0  0  0  0  0  0
  2  1  1  0
  3  2  1  0
  4  3  1  0
  5  4  1  0
  6  1  1  0
  6  5  1  0
  7  1  1  0
  9  8  2  0
 10  9  1  0
 11 10  2  0
 11  7  1  0
 12 11  1  0
 13 12  2  0
 13  8  1  0
 14  4  1  0
 15 14  1  0
 16 15  1  0
 17 16  1  0
 18 17  2  0
 19 18  1  0
 20 19  1  0
 21 20  2  0
 21 17  1  0
 22 21  1  0
 23 22  2  0
 24 23  1  0
 25 24  2  0
 25 20  1  0
  1 26  1  0
  2 27  1  0
  2 28  1  0
  3 29  1  0
  3 30  1  0
  4 31  1  0
  5 32  1  0
  5 33  1  0
  6 34  1  0
  6 35  1  0
  7 36  1  0
  7 37  1  0
  8 38  1  0
  9 39  1  0
 10 40  1  0
 12 41  1  0
 13 42  1  0
 14 43  1  0
 14 44  1  0
 15 45  1  0
 15 46  1  0
 16 47  1  0
 22 48  1  0
 23 49  1  0
 24 50  1  0
 25 51  1  0
M  CHG  1   1   1
M  END
>  <score>  (4) 
-9.966

$$$$
=
     RDKit          3D

 51 54  0  0  0  0  0  0  0  0999 V2000
    0.1760   67.4210   66.2100 N   0  0  0  0  0  4  0  0  0  0  0  0
    1.3330   67.1440   67.1490 C   0  0  0  0  0  0  0  0  0  0  0  0
    1.0000   67.5810   68.5680 C   0  0  0  0  0  0  0  0  0  0  0  0
   -0.2200   66.8280   69.1310 C   0  0  0  0  0  0  0  0  0  0  0  0
   -1.2810   66.5990   68.0360 C   0  0  0  0  0  0  0  0  0  0  0  0
   -1.1650   67.5930   66.8930 C   0  0  0  0  0  0  0  0  0  0  0  0
    0.4800   68.5390   65.2350 C   0  0  0  0  0  0  0  0  0  0  0  0
    4.6780   69.1020   64.4470 C   0  0  0  0  0  0  0  0  0  0  0  0
    4.1510   69.4460   65.6890 C   0  0  0  0  0  0  0  0  0  0  0  0
    2.7930   69.2550   65.9510 C   0  0  0  0  0  0  0  0  0  0  0  0
    1.9500   68.7150   64.9680 C   0  0  0  0  0  0  0  0  0  0  0  0
    2.4940   68.3680   63.7210 C   0  0  0  0  0  0  0  0  0  0  0  0
    3.8510   68.5620   63.4640 C   0  0  0  0  0  0  0  0  0  0  0  0
    0.2220   65.5000   69.7800 C   0  0  0  0  0  0  0  0  0  0  0  0
    1.6820   65.4880   70.2540 C   0  0  0  0  0  0  0  0  0  0  0  0
    2.0020   64.2050   70.8570 N   0  0  0  0  0  0  0  0  0  0  0  0
    2.6310   63.2390   70.1330 C   0  0  0  0  0  0  0  0  0  0  0  0
    3.2570   63.4120   68.9600 N   0  0  0  0  0  0  0  0  0  0  0  0
    3.7430   62.1680   68.5970 O   0  0  0  0  0  0  0  0  0  0  0  0
    3.4160   61.2560   69.5500 C   0  0  0  0  0  0  0  0  0  0  0  0
    2.7070   61.8840   70.5590 C   0  0  0  0  0  0  0  0  0  0  0  0
    2.2740   61.1140   71.6560 C   0  0  0  0  0  0  0  0  0  0  0  0
    2.5790   59.7450   71.6740 C   0  0  0  0  0  0  0  0  0  0  0  0
    3.2950   59.1510   70.6310 C   0  0  0  0  0  0  0  0  0  0  0  0
    3.7340   59.9010   69.5340 C   0  0  0  0  0  0  0  0  0  0  0  0
    0.0742   66.5567   65.6590 H   0  0  0  0  0  0  0  0  0  0  0  0
    1.5485   66.0653   67.1460 H   0  0  0  0  0  0  0  0  0  0  0  0
    2.2088   67.7128   66.8035 H   0  0  0  0  0  0  0  0  0  0  0  0
    1.8684   67.3836   69.2137 H   0  0  0  0  0  0  0  0  0  0  0  0
    0.7572   68.6536   68.5456 H   0  0  0  0  0  0  0  0  0  0  0  0
   -0.6852   67.4481   69.9115 H   0  0  0  0  0  0  0  0  0  0  0  0
   -1.1578   65.5829   67.6331 H   0  0  0  0  0  0  0  0  0  0  0  0
   -2.2704   66.7355   68.4970 H   0  0  0  0  0  0  0  0  0  0  0  0
   -1.2473   68.6166   67.2872 H   0  0  0  0  0  0  0  0  0  0  0  0
   -1.9722   67.4141   66.1675 H   0  0  0  0  0  0  0  0  0  0  0  0
   -0.0234   68.3175   64.2824 H   0  0  0  0  0  0  0  0  0  0  0  0
    0.1180   69.4733   65.6889 H   0  0  0  0  0  0  0  0  0  0  0  0
    5.7476   69.2566   64.2417 H   0  0  0  0  0  0  0  0  0  0  0  0
    4.8057   69.8690   66.4652 H   0  0  0  0  0  0  0  0  0  0  0  0
    2.3817   69.5294   66.9336 H   0  0  0  0  0  0  0  0  0  0  0  0
    1.8458   67.9404   62.9418 H   0  0  0  0  0  0  0  0  0  0  0  0
    4.2690   68.2884   62.4840 H   0  0  0  0  0  0  0  0  0  0  0  0
   -0.4246   65.3084   70.6490 H   0  0  0  0  0  0  0  0  0  0  0  0
    0.1343   64.7243   69.0051 H   0  0  0  0  0  0  0  0  0  0  0  0
    2.3451   65.6608   69.3935 H   0  0  0  0  0  0  0  0  0  0  0  0
    1.8237   66.2821   71.0019 H   0  0  0  0  0  0  0  0  0  0  0  0
    1.7509   64.0253   71.8396 H   0  0  0  0  0  0  0  0  0  0  0  0
    1.7096   61.5756   72.4797 H   0  0  0  0  0  0  0  0  0  0  0  0
    2.2491   59.1286   72.5232 H   0  0  0  0  0  0  0  0  0  0  0  0
    3.5175   58.0746   70.6731 H   0  0  0  0  0  0  0  0  0  0  0  0
    4.2980   59.4458   68.7066 H   0  0  0  0  0  0  0  0  0  0  0  0
  2  1  1  0
  3  2  1  0
  4  3  1  0
  5  4  1  0
  6  1  1  0
  6  5  1  0
  7  1  1  0
  9  8  2  0
 10  9  1  0
 11 10  2  0
 11  7  1  0
 12 11  1  0
 13 12  2  0
 13  8  1  0
 14  4  1  0
 15 14  1  0
 16 15  1  0
 17 16  1  0
 18 17  2  0
 19 18  1  0
 20 19  1  0
 21 20  2  0
 21 17  1  0
 22 21  1  0
 23 22  2  0
 24 23  1  0
 25 24  2  0
 25 20  1  0
  1 26  1  0
  2 27  1  0
  2 28  1  0
  3 29  1  0
  3 30  1  0
  4 31  1  0
  5 32  1  0
  5 33  1  0
  6 34  1  0
  6 35  1  0
  7 36  1  0
  7 37  1  0
  8 38  1  0
  9 39  1  0
 10 40  1  0
 12 41  1  0
 13 42  1  0
 14 43  1  0
 14 44  1  0
 15 45  1  0
 15 46  1  0
 16 47  1  0
 22 48  1  0
 23 49  1  0
 24 50  1  0
 25 51  1  0
M  CHG  1   1   1
M  END
>  <score>  (5) 
-9.952

$$$$
=
     RDKit          3D

 51 54  0  0  0  0  0  0  0  0999 V2000
    2.6430   68.4040   66.5000 N   0  0  0  0  0  4  0  0  0  0  0  0
    1.9570   68.7960   67.7930 C   0  0  0  0  0  0  0  0  0  0  0  0
    0.4610   68.9770   67.5820 C   0  0  0  0  0  0  0  0  0  0  0  0
   -0.2130   67.6810   67.0960 C   0  0  0  0  0  0  0  0  0  0  0  0
    0.7010   66.9160   66.1180 C   0  0  0  0  0  0  0  0  0  0  0  0
    1.7240   67.8180   65.4490 C   0  0  0  0  0  0  0  0  0  0  0  0
    3.5200   69.5110   65.9540 C   0  0  0  0  0  0  0  0  0  0  0  0
    6.5560   70.7580   68.7460 C   0  0  0  0  0  0  0  0  0  0  0  0
    6.9150   70.3490   67.4640 C   0  0  0  0  0  0  0  0  0  0  0  0
    5.9330   69.9550   66.5540 C   0  0  0  0  0  0  0  0  0  0  0  0
    4.5780   69.9670   66.9210 C   0  0  0  0  0  0  0  0  0  0  0  0
    4.2290   70.3860   68.2150 C   0  0  0  0  0  0  0  0  0  0  0  0
    5.2140   70.7780   69.1210 C   0  0  0  0  0  0  0  0  0  0  0  0
   -0.6180   66.8030   68.2990 C   0  0  0  0  0  0  0  0  0  0  0  0
    0.3750   66.8450   69.4690 C   0  0  0  0  0  0  0  0  0  0  0  0
    1.2650   65.6980   69.4110 N   0  0  0  0  0  0  0  0  0  0  0  0
    1.3600   64.8430   70.4650 C   0  0  0  0  0  0  0  0  0  0  0  0
    0.5110   64.7660   71.5010 N   0  0  0  0  0  0  0  0  0  0  0  0
    0.9980   63.7670   72.3230 O   0  0  0  0  0  0  0  0  0  0  0  0
    2.1290   63.2420   71.7830 C   0  0  0  0  0  0  0  0  0  0  0  0
    2.4080   63.8880   70.5910 C   0  0  0  0  0  0  0  0  0  0  0  0
    3.5430   63.4900   69.8600 C   0  0  0  0  0  0  0  0  0  0  0  0
    4.3420   62.4580   70.3740 C   0  0  0  0  0  0  0  0  0  0  0  0
    4.0250   61.8340   71.5850 C   0  0  0  0  0  0  0  0  0  0  0  0
    2.8990   62.2160   72.3230 C   0  0  0  0  0  0  0  0  0  0  0  0
    3.2642   67.6247   66.7604 H   0  0  0  0  0  0  0  0  0  0  0  0
    2.1221   68.0071   68.5416 H   0  0  0  0  0  0  0  0  0  0  0  0
    2.3805   69.7501   68.1398 H   0  0  0  0  0  0  0  0  0  0  0  0
    0.0020   69.2806   68.5345 H   0  0  0  0  0  0  0  0  0  0  0  0
    0.3172   69.7459   66.8086 H   0  0  0  0  0  0  0  0  0  0  0  0
   -1.1283   67.9470   66.5470 H   0  0  0  0  0  0  0  0  0  0  0  0
    1.2338   66.1308   66.6744 H   0  0  0  0  0  0  0  0  0  0  0  0
    0.0635   66.4916   65.3284 H   0  0  0  0  0  0  0  0  0  0  0  0
    1.2056   68.6315   64.9203 H   0  0  0  0  0  0  0  0  0  0  0  0
    2.3153   67.2321   64.7299 H   0  0  0  0  0  0  0  0  0  0  0  0
    4.0151   69.1459   65.0421 H   0  0  0  0  0  0  0  0  0  0  0  0
    2.8676   70.3742   65.7558 H   0  0  0  0  0  0  0  0  0  0  0  0
    7.3319   71.0653   69.4626 H   0  0  0  0  0  0  0  0  0  0  0  0
    7.9744   70.3365   67.1682 H   0  0  0  0  0  0  0  0  0  0  0  0
    6.2225   69.6330   65.5428 H   0  0  0  0  0  0  0  0  0  0  0  0
    3.1712   70.4052   68.5161 H   0  0  0  0  0  0  0  0  0  0  0  0
    4.9313   71.1034   70.1330 H   0  0  0  0  0  0  0  0  0  0  0  0
   -1.5967   67.1478   68.6642 H   0  0  0  0  0  0  0  0  0  0  0  0
   -0.6403   65.7637   67.9395 H   0  0  0  0  0  0  0  0  0  0  0  0
    0.9685   67.7692   69.4093 H   0  0  0  0  0  0  0  0  0  0  0  0
   -0.1838   66.8191   70.4161 H   0  0  0  0  0  0  0  0  0  0  0  0
    1.8285   65.5309   68.5652 H   0  0  0  0  0  0  0  0  0  0  0  0
    3.7977   63.9772   68.9072 H   0  0  0  0  0  0  0  0  0  0  0  0
    5.2326   62.1341   69.8155 H   0  0  0  0  0  0  0  0  0  0  0  0
    4.6720   61.0291   71.9638 H   0  0  0  0  0  0  0  0  0  0  0  0
    2.6373   61.7328   73.2759 H   0  0  0  0  0  0  0  0  0  0  0  0
  2  1  1  0
  3  2  1  0
  4  3  1  0
  5  4  1  0
  6  1  1  0
  6  5  1  0
  7  1  1  0
  9  8  2  0
 10  9  1  0
 11 10  2  0
 11  7  1  0
 12 11  1  0
 13 12  2  0
 13  8  1  0
 14  4  1  0
 15 14  1  0
 16 15  1  0
 17 16  1  0
 18 17  2  0
 19 18  1  0
 20 19  1  0
 21 20  2  0
 21 17  1  0
 22 21  1  0
 23 22  2  0
 24 23  1  0
 25 24  2  0
 25 20  1  0
  1 26  1  0
  2 27  1  0
  2 28  1  0
  3 29  1  0
  3 30  1  0
  4 31  1  0
  5 32  1  0
  5 33  1  0
  6 34  1  0
  6 35  1  0
  7 36  1  0
  7 37  1  0
  8 38  1  0
  9 39  1  0
 10 40  1  0
 12 41  1  0
 13 42  1  0
 14 43  1  0
 14 44  1  0
 15 45  1  0
 15 46  1  0
 16 47  1  0
 22 48  1  0
 23 49  1  0
 24 50  1  0
 25 51  1  0
M  CHG  1   1   1
M  END
>  <score>  (6) 
-9.87

$$$$
=
     RDKit          3D

 51 54  0  0  0  0  0  0  0  0999 V2000
    1.3380   63.6900   70.5150 N   0  0  0  0  0  4  0  0  0  0  0  0
   -0.0950   64.1110   70.2630 C   0  0  0  0  0  0  0  0  0  0  0  0
   -0.3150   65.5610   70.6680 C   0  0  0  0  0  0  0  0  0  0  0  0
    0.5790   66.5250   69.8660 C   0  0  0  0  0  0  0  0  0  0  0  0
    1.9700   65.9100   69.6170 C   0  0  0  0  0  0  0  0  0  0  0  0
    2.3230   64.8350   70.6310 C   0  0  0  0  0  0  0  0  0  0  0  0
    1.4580   62.7030   71.6570 C   0  0  0  0  0  0  0  0  0  0  0  0
    3.4190   59.0340   70.5360 C   0  0  0  0  0  0  0  0  0  0  0  0
    3.4050   60.1130   69.6560 C   0  0  0  0  0  0  0  0  0  0  0  0
    2.7790   61.3060   70.0210 C   0  0  0  0  0  0  0  0  0  0  0  0
    2.1610   61.4290   71.2740 C   0  0  0  0  0  0  0  0  0  0  0  0
    2.1860   60.3360   72.1550 C   0  0  0  0  0  0  0  0  0  0  0  0
    2.8120   59.1460   71.7860 C   0  0  0  0  0  0  0  0  0  0  0  0
   -0.1110   66.9220   68.5440 C   0  0  0  0  0  0  0  0  0  0  0  0
    0.1640   68.3660   68.1000 C   0  0  0  0  0  0  0  0  0  0  0  0
    1.4540   68.4480   67.4360 N   0  0  0  0  0  0  0  0  0  0  0  0
    2.4740   69.1540   67.9950 C   0  0  0  0  0  0  0  0  0  0  0  0
    2.5330   69.5920   69.2610 N   0  0  0  0  0  0  0  0  0  0  0  0
    3.7410   70.2550   69.3820 O   0  0  0  0  0  0  0  0  0  0  0  0
    4.4060   70.2120   68.1980 C   0  0  0  0  0  0  0  0  0  0  0  0
    3.6460   69.5170   67.2740 C   0  0  0  0  0  0  0  0  0  0  0  0
    4.1590   69.3480   65.9730 C   0  0  0  0  0  0  0  0  0  0  0  0
    5.4140   69.8960   65.6730 C   0  0  0  0  0  0  0  0  0  0  0  0
    6.1470   70.5940   66.6370 C   0  0  0  0  0  0  0  0  0  0  0  0
    5.6540   70.7680   67.9350 C   0  0  0  0  0  0  0  0  0  0  0  0
    1.6181   63.1960   69.6557 H   0  0  0  0  0  0  0  0  0  0  0  0
   -0.3204   63.9981   69.1923 H   0  0  0  0  0  0  0  0  0  0  0  0
   -0.7592   63.4736   70.8651 H   0  0  0  0  0  0  0  0  0  0  0  0
   -1.3685   65.8234   70.4912 H   0  0  0  0  0  0  0  0  0  0  0  0
   -0.0538   65.6604   71.7319 H   0  0  0  0  0  0  0  0  0  0  0  0
    0.7280   67.4396   70.4587 H   0  0  0  0  0  0  0  0  0  0  0  0
    1.9833   65.4640   68.6116 H   0  0  0  0  0  0  0  0  0  0  0  0
    2.7128   66.7157   69.7130 H   0  0  0  0  0  0  0  0  0  0  0  0
    2.2761   65.2579   71.6454 H   0  0  0  0  0  0  0  0  0  0  0  0
    3.3403   64.4654   70.4351 H   0  0  0  0  0  0  0  0  0  0  0  0
    2.0209   63.1803   72.4727 H   0  0  0  0  0  0  0  0  0  0  0  0
    0.4361   62.4315   71.9605 H   0  0  0  0  0  0  0  0  0  0  0  0
    3.9090   58.0932   70.2449 H   0  0  0  0  0  0  0  0  0  0  0  0
    3.8880   60.0251   68.6716 H   0  0  0  0  0  0  0  0  0  0  0  0
    2.7703   62.1550   69.3216 H   0  0  0  0  0  0  0  0  0  0  0  0
    1.7087   60.4190   73.1426 H   0  0  0  0  0  0  0  0  0  0  0  0
    2.8269   58.2944   72.4821 H   0  0  0  0  0  0  0  0  0  0  0  0
    0.2429   66.2444   67.7530 H   0  0  0  0  0  0  0  0  0  0  0  0
   -1.1946   66.8452   68.7172 H   0  0  0  0  0  0  0  0  0  0  0  0
   -0.6244   68.6889   67.4042 H   0  0  0  0  0  0  0  0  0  0  0  0
    0.1729   69.0190   68.9852 H   0  0  0  0  0  0  0  0  0  0  0  0
    1.5972   67.9683   66.5358 H   0  0  0  0  0  0  0  0  0  0  0  0
    3.5880   68.7987   65.2100 H   0  0  0  0  0  0  0  0  0  0  0  0
    5.8290   69.7746   64.6616 H   0  0  0  0  0  0  0  0  0  0  0  0
    7.1283   71.0137   66.3707 H   0  0  0  0  0  0  0  0  0  0  0  0
    6.2210   71.3134   68.7038 H   0  0  0  0  0  0  0  0  0  0  0  0
  2  1  1  0
  3  2  1  0
  4  3  1  0
  5  4  1  0
  6  1  1  0
  6  5  1  0
  7  1  1  0
  9  8  2  0
 10  9  1  0
 11 10  2  0
 11  7  1  0
 12 11  1  0
 13 12  2  0
 13  8  1  0
 14  4  1  0
 15 14  1  0
 16 15  1  0
 17 16  1  0
 18 17  2  0
 19 18  1  0
 20 19  1  0
 21 20  2  0
 21 17  1  0
 22 21  1  0
 23 22  2  0
 24 23  1  0
 25 24  2  0
 25 20  1  0
  1 26  1  0
  2 27  1  0
  2 28  1  0
  3 29  1  0
  3 30  1  0
  4 31  1  0
  5 32  1  0
  5 33  1  0
  6 34  1  0
  6 35  1  0
  7 36  1  0
  7 37  1  0
  8 38  1  0
  9 39  1  0
 10 40  1  0
 12 41  1  0
 13 42  1  0
 14 43  1  0
 14 44  1  0
 15 45  1  0
 15 46  1  0
 16 47  1  0
 22 48  1  0
 23 49  1  0
 24 50  1  0
 25 51  1  0
M  CHG  1   1   1
M  END
>  <score>  (7) 
-9.665

$$$$
=
     RDKit          3D

 51 54  0  0  0  0  0  0  0  0999 V2000
    1.5890   63.1990   70.9640 N   0  0  0  0  0  4  0  0  0  0  0  0
    0.1390   63.6240   71.0670 C   0  0  0  0  0  0  0  0  0  0  0  0
    0.0270   65.1140   71.3550 C   0  0  0  0  0  0  0  0  0  0  0  0
    0.6630   65.9660   70.2400 C   0  0  0  0  0  0  0  0  0  0  0  0
    1.9380   65.2950   69.6920 C   0  0  0  0  0  0  0  0  0  0  0  0
    2.5600   64.3270   70.6830 C   0  0  0  0  0  0  0  0  0  0  0  0
    2.0210   62.3360   72.1320 C   0  0  0  0  0  0  0  0  0  0  0  0
    3.2360   58.3800   70.9330 C   0  0  0  0  0  0  0  0  0  0  0  0
    3.5290   59.4740   70.1230 C   0  0  0  0  0  0  0  0  0  0  0  0
    3.1460   60.7580   70.5140 C   0  0  0  0  0  0  0  0  0  0  0  0
    2.4650   60.9580   71.7240 C   0  0  0  0  0  0  0  0  0  0  0  0
    2.1790   59.8480   72.5340 C   0  0  0  0  0  0  0  0  0  0  0  0
    2.5640   58.5670   72.1390 C   0  0  0  0  0  0  0  0  0  0  0  0
   -0.3630   66.2350   69.1200 C   0  0  0  0  0  0  0  0  0  0  0  0
   -0.1800   67.5840   68.4110 C   0  0  0  0  0  0  0  0  0  0  0  0
    0.7490   67.4440   67.3020 N   0  0  0  0  0  0  0  0  0  0  0  0
    1.8240   68.2720   67.1930 C   0  0  0  0  0  0  0  0  0  0  0  0
    2.3080   69.0710   68.1550 N   0  0  0  0  0  0  0  0  0  0  0  0
    3.3950   69.7230   67.6020 O   0  0  0  0  0  0  0  0  0  0  0  0
    3.5660   69.3140   66.3170 C   0  0  0  0  0  0  0  0  0  0  0  0
    2.5930   68.3830   66.0010 C   0  0  0  0  0  0  0  0  0  0  0  0
    2.5930   67.8230   64.7090 C   0  0  0  0  0  0  0  0  0  0  0  0
    3.5780   68.2360   63.8010 C   0  0  0  0  0  0  0  0  0  0  0  0
    4.5420   69.1830   64.1610 C   0  0  0  0  0  0  0  0  0  0  0  0
    4.5580   69.7480   65.4420 C   0  0  0  0  0  0  0  0  0  0  0  0
    1.6293   62.6102   70.1199 H   0  0  0  0  0  0  0  0  0  0  0  0
   -0.3694   63.4019   70.1171 H   0  0  0  0  0  0  0  0  0  0  0  0
   -0.3306   63.0708   71.8937 H   0  0  0  0  0  0  0  0  0  0  0  0
   -1.0368   65.3800   71.4424 H   0  0  0  0  0  0  0  0  0  0  0  0
    0.5667   65.3210   72.2909 H   0  0  0  0  0  0  0  0  0  0  0  0
    0.9617   66.9351   70.6661 H   0  0  0  0  0  0  0  0  0  0  0  0
    1.6801   64.7439   68.7756 H   0  0  0  0  0  0  0  0  0  0  0  0
    2.6737   66.0885   69.4945 H   0  0  0  0  0  0  0  0  0  0  0  0
    2.7875   64.8569   71.6197 H   0  0  0  0  0  0  0  0  0  0  0  0
    3.4882   63.9151   70.2601 H   0  0  0  0  0  0  0  0  0  0  0  0
    2.8574   62.8347   72.6435 H   0  0  0  0  0  0  0  0  0  0  0  0
    1.1460   62.2146   72.7874 H   0  0  0  0  0  0  0  0  0  0  0  0
    3.5350   57.3685   70.6208 H   0  0  0  0  0  0  0  0  0  0  0  0
    4.0634   59.3261   69.1730 H   0  0  0  0  0  0  0  0  0  0  0  0
    3.3796   61.6182   69.8695 H   0  0  0  0  0  0  0  0  0  0  0  0
    1.6476   59.9893   73.4867 H   0  0  0  0  0  0  0  0  0  0  0  0
    2.3367   57.7030   72.7807 H   0  0  0  0  0  0  0  0  0  0  0  0
   -0.2724   65.4357   68.3697 H   0  0  0  0  0  0  0  0  0  0  0  0
   -1.3536   66.2603   69.5976 H   0  0  0  0  0  0  0  0  0  0  0  0
   -1.1523   67.9293   68.0296 H   0  0  0  0  0  0  0  0  0  0  0  0
    0.2225   68.3153   69.1274 H   0  0  0  0  0  0  0  0  0  0  0  0
    0.5928   66.7130   66.5934 H   0  0  0  0  0  0  0  0  0  0  0  0
    1.8372   67.0783   64.4188 H   0  0  0  0  0  0  0  0  0  0  0  0
    3.5929   67.8078   62.7879 H   0  0  0  0  0  0  0  0  0  0  0  0
    5.3004   69.4892   63.4254 H   0  0  0  0  0  0  0  0  0  0  0  0
    5.3113   70.4922   65.7399 H   0  0  0  0  0  0  0  0  0  0  0  0
  2  1  1  0
  3  2  1  0
  4  3  1  0
  5  4  1  0
  6  1  1  0
  6  5  1  0
  7  1  1  0
  9  8  2  0
 10  9  1  0
 11 10  2  0
 11  7  1  0
 12 11  1  0
 13 12  2  0
 13  8  1  0
 14  4  1  0
 15 14  1  0
 16 15  1  0
 17 16  1  0
 18 17  2  0
 19 18  1  0
 20 19  1  0
 21 20  2  0
 21 17  1  0
 22 21  1  0
 23 22  2  0
 24 23  1  0
 25 24  2  0
 25 20  1  0
  1 26  1  0
  2 27  1  0
  2 28  1  0
  3 29  1  0
  3 30  1  0
  4 31  1  0
  5 32  1  0
  5 33  1  0
  6 34  1  0
  6 35  1  0
  7 36  1  0
  7 37  1  0
  8 38  1  0
  9 39  1  0
 10 40  1  0
 12 41  1  0
 13 42  1  0
 14 43  1  0
 14 44  1  0
 15 45  1  0
 15 46  1  0
 16 47  1  0
 22 48  1  0
 23 49  1  0
 24 50  1  0
 25 51  1  0
M  CHG  1   1   1
M  END
>  <score>  (8) 
-9.575

$$$$
=
     RDKit          3D

 51 54  0  0  0  0  0  0  0  0999 V2000
    1.7460   62.1320   71.6440 N   0  0  0  0  0  4  0  0  0  0  0  0
    0.3900   62.8040   71.5700 C   0  0  0  0  0  0  0  0  0  0  0  0
    0.5150   64.3060   71.7860 C   0  0  0  0  0  0  0  0  0  0  0  0
    1.4000   64.9700   70.7140 C   0  0  0  0  0  0  0  0  0  0  0  0
    2.5850   64.0600   70.3360 C   0  0  0  0  0  0  0  0  0  0  0  0
    2.9240   63.0590   71.4270 C   0  0  0  0  0  0  0  0  0  0  0  0
    1.8990   61.2780   72.8850 C   0  0  0  0  0  0  0  0  0  0  0  0
    2.2180   57.0760   71.9850 C   0  0  0  0  0  0  0  0  0  0  0  0
    3.0260   57.9940   71.3190 C   0  0  0  0  0  0  0  0  0  0  0  0
    2.9320   59.3550   71.6160 C   0  0  0  0  0  0  0  0  0  0  0  0
    2.0260   59.8080   72.5860 C   0  0  0  0  0  0  0  0  0  0  0  0
    1.2200   58.8730   73.2540 C   0  0  0  0  0  0  0  0  0  0  0  0
    1.3180   57.5150   72.9530 C   0  0  0  0  0  0  0  0  0  0  0  0
    0.5550   65.3460   69.4790 C   0  0  0  0  0  0  0  0  0  0  0  0
    0.0010   66.7770   69.5080 C   0  0  0  0  0  0  0  0  0  0  0  0
    0.8770   67.6680   68.7660 N   0  0  0  0  0  0  0  0  0  0  0  0
    0.9470   67.5950   67.4090 C   0  0  0  0  0  0  0  0  0  0  0  0
    0.0850   66.9550   66.6060 N   0  0  0  0  0  0  0  0  0  0  0  0
    0.5480   67.1450   65.3160 O   0  0  0  0  0  0  0  0  0  0  0  0
    1.6780   67.8990   65.3440 C   0  0  0  0  0  0  0  0  0  0  0  0
    1.9800   68.2190   66.6560 C   0  0  0  0  0  0  0  0  0  0  0  0
    3.1190   69.0070   66.9100 C   0  0  0  0  0  0  0  0  0  0  0  0
    3.8980   69.4280   65.8220 C   0  0  0  0  0  0  0  0  0  0  0  0
    3.5580   69.0780   64.5120 C   0  0  0  0  0  0  0  0  0  0  0  0
    2.4280   68.2980   64.2420 C   0  0  0  0  0  0  0  0  0  0  0  0
    1.7669   61.4969   70.8333 H   0  0  0  0  0  0  0  0  0  0  0  0
   -0.0504   62.6181   70.5793 H   0  0  0  0  0  0  0  0  0  0  0  0
   -0.2520   62.3877   72.3603 H   0  0  0  0  0  0  0  0  0  0  0  0
   -0.4882   64.7554   71.7469 H   0  0  0  0  0  0  0  0  0  0  0  0
    0.9861   64.4709   72.7663 H   0  0  0  0  0  0  0  0  0  0  0  0
    1.8209   65.8968   71.1309 H   0  0  0  0  0  0  0  0  0  0  0  0
    2.3275   63.5086   69.4197 H   0  0  0  0  0  0  0  0  0  0  0  0
    3.4652   64.7031   70.1887 H   0  0  0  0  0  0  0  0  0  0  0  0
    3.1455   63.5957   72.3613 H   0  0  0  0  0  0  0  0  0  0  0  0
    3.8032   62.4709   71.1253 H   0  0  0  0  0  0  0  0  0  0  0  0
    2.8011   61.6037   73.4236 H   0  0  0  0  0  0  0  0  0  0  0  0
    0.9867   61.4101   73.4852 H   0  0  0  0  0  0  0  0  0  0  0  0
    2.2905   56.0046   71.7467 H   0  0  0  0  0  0  0  0  0  0  0  0
    3.7396   57.6463   70.5575 H   0  0  0  0  0  0  0  0  0  0  0  0
    3.5721   60.0759   71.0863 H   0  0  0  0  0  0  0  0  0  0  0  0
    0.5070   59.2135   74.0193 H   0  0  0  0  0  0  0  0  0  0  0  0
    0.6829   56.7887   73.4814 H   0  0  0  0  0  0  0  0  0  0  0  0
    1.1852   65.2381   68.5839 H   0  0  0  0  0  0  0  0  0  0  0  0
   -0.3134   64.6708   69.4726 H   0  0  0  0  0  0  0  0  0  0  0  0
   -1.0001   66.7886   69.0522 H   0  0  0  0  0  0  0  0  0  0  0  0
   -0.0584   67.1184   70.5520 H   0  0  0  0  0  0  0  0  0  0  0  0
    1.4491   68.3598   69.2709 H   0  0  0  0  0  0  0  0  0  0  0  0
    3.3918   69.2862   67.9384 H   0  0  0  0  0  0  0  0  0  0  0  0
    4.7914   70.0438   66.0027 H   0  0  0  0  0  0  0  0  0  0  0  0
    4.1894   69.4215   63.6793 H   0  0  0  0  0  0  0  0  0  0  0  0
    2.1483   68.0161   63.2162 H   0  0  0  0  0  0  0  0  0  0  0  0
  2  1  1  0
  3  2  1  0
  4  3  1  0
  5  4  1  0
  6  1  1  0
  6  5  1  0
  7  1  1  0
  9  8  2  0
 10  9  1  0
 11 10  2  0
 11  7  1  0
 12 11  1  0
 13 12  2  0
 13  8  1  0
 14  4  1  0
 15 14  1  0
 16 15  1  0
 17 16  1  0
 18 17  2  0
 19 18  1  0
 20 19  1  0
 21 20  2  0
 21 17  1  0
 22 21  1  0
 23 22  2  0
 24 23  1  0
 25 24  2  0
 25 20  1  0
  1 26  1  0
  2 27  1  0
  2 28  1  0
  3 29  1  0
  3 30  1  0
  4 31  1  0
  5 32  1  0
  5 33  1  0
  6 34  1  0
  6 35  1  0
  7 36  1  0
  7 37  1  0
  8 38  1  0
  9 39  1  0
 10 40  1  0
 12 41  1  0
 13 42  1  0
 14 43  1  0
 14 44  1  0
 15 45  1  0
 15 46  1  0
 16 47  1  0
 22 48  1  0
 23 49  1  0
 24 50  1  0
 25 51  1  0
M  CHG  1   1   1
M  END
>  <score>  (9) 
-9.466

$$$$
