=
     RDKit          3D

 49 51  0  0  0  0  0  0  0  0999 V2000
    2.8160   61.6480   73.3950 C   0  0  0  0  0  0  0  0  0  0  0  0
    1.7580   62.5590   73.4590 C   0  0  0  0  0  0  0  0  0  0  0  0
    1.5710   63.4020   72.3790 C   0  0  0  0  0  0  0  0  0  0  0  0
    2.3840   63.3780   71.2480 C   0  0  0  0  0  0  0  0  0  0  0  0
    3.4370   62.4800   71.1700 C   0  0  0  0  0  0  0  0  0  0  0  0
    3.6580   61.6070   72.2470 C   0  0  0  0  0  0  0  0  0  0  0  0
    1.9600   64.4000   70.2350 C   0  0  0  0  0  0  0  0  0  0  0  0
    0.7620   65.0570   70.8750 C   0  0  0  0  0  0  0  0  0  0  0  0
   -0.0590   66.0140   70.4250 C   0  0  0  0  0  0  0  0  0  0  0  0
    0.5390   64.4290   72.2140 C   0  0  0  0  0  0  0  0  0  0  0  0
   -0.3300   64.7090   73.0130 O   0  0  0  0  0  0  0  0  0  0  0  0
    0.0680   66.6650   69.1220 C   0  0  0  0  0  0  0  0  0  0  0  0
    1.2070   67.4050   68.7860 C   0  0  0  0  0  0  0  0  0  0  0  0
    1.2920   68.0480   67.5490 C   0  0  0  0  0  0  0  0  0  0  0  0
    0.2360   67.9680   66.6290 C   0  0  0  0  0  0  0  0  0  0  0  0
   -0.9020   67.2200   66.9690 C   0  0  0  0  0  0  0  0  0  0  0  0
   -0.9850   66.5790   68.2080 C   0  0  0  0  0  0  0  0  0  0  0  0
    0.3050   68.6960   65.3140 C   0  0  0  0  0  0  0  0  0  0  0  0
    0.7310   67.8090   64.1650 N   0  0  0  0  0  4  0  0  0  0  0  0
    0.3320   68.3520   62.8200 C   0  0  0  0  0  0  0  0  0  0  0  0
    2.1970   67.4950   64.2200 C   0  0  0  0  0  0  0  0  0  0  0  0
    2.0820   60.3790   75.2860 C   0  0  0  0  0  0  0  0  0  0  0  0
    3.1220   60.7510   74.3900 O   0  0  0  0  0  0  0  0  0  0  0  0
    4.6680   60.6760   72.2880 O   0  0  0  0  0  0  0  0  0  0  0  0
    5.7910   60.8720   71.4420 C   0  0  0  0  0  0  0  0  0  0  0  0
    1.0974   62.6038   74.3374 H   0  0  0  0  0  0  0  0  0  0  0  0
    4.0862   62.4520   70.2824 H   0  0  0  0  0  0  0  0  0  0  0  0
    2.7612   65.1323   70.0567 H   0  0  0  0  0  0  0  0  0  0  0  0
    1.7327   63.9600   69.2528 H   0  0  0  0  0  0  0  0  0  0  0  0
   -0.8842   66.3317   71.0793 H   0  0  0  0  0  0  0  0  0  0  0  0
    2.0402   67.4808   69.5001 H   0  0  0  0  0  0  0  0  0  0  0  0
    2.1949   68.6222   67.2939 H   0  0  0  0  0  0  0  0  0  0  0  0
   -1.7347   67.1378   66.2549 H   0  0  0  0  0  0  0  0  0  0  0  0
   -1.8859   66.0026   68.4654 H   0  0  0  0  0  0  0  0  0  0  0  0
   -0.6904   69.1065   65.0887 H   0  0  0  0  0  0  0  0  0  0  0  0
    1.0635   69.4861   65.4165 H   0  0  0  0  0  0  0  0  0  0  0  0
    0.2155   66.9250   64.2822 H   0  0  0  0  0  0  0  0  0  0  0  0
   -0.3143   69.2315   62.9567 H   0  0  0  0  0  0  0  0  0  0  0  0
    1.2330   68.6426   62.2599 H   0  0  0  0  0  0  0  0  0  0  0  0
   -0.2145   67.5789   62.2599 H   0  0  0  0  0  0  0  0  0  0  0  0
    2.5181   67.4262   65.2698 H   0  0  0  0  0  0  0  0  0  0  0  0
    2.3858   66.5360   63.7152 H   0  0  0  0  0  0  0  0  0  0  0  0
    2.7620   68.2925   63.7152 H   0  0  0  0  0  0  0  0  0  0  0  0
    2.4291   60.5031   76.3224 H   0  0  0  0  0  0  0  0  0  0  0  0
    1.2038   61.0187   75.1143 H   0  0  0  0  0  0  0  0  0  0  0  0
    1.8088   59.3274   75.1143 H   0  0  0  0  0  0  0  0  0  0  0  0
    6.6899   61.0289   72.0563 H   0  0  0  0  0  0  0  0  0  0  0  0
    5.9311   59.9847   70.8071 H   0  0  0  0  0  0  0  0  0  0  0  0
    5.6222   61.7543   70.8071 H   0  0  0  0  0  0  0  0  0  0  0  0
  2  1  2  0
  3  2  1  0
  4  3  2  0
  5  4  1  0
  6  5  2  0
  6  1  1  0
  7  4  1  0
  8  7  1  0
  9  8  2  0
 10  8  1  0
 10  3  1  0
 11 10  2  0
 12  9  1  0
 13 12  2  0
 14 13  1  0
 15 14  2  0
 16 15  1  0
 17 16  2  0
 17 12  1  0
 18 15  1  0
 19 18  1  0
 20 19  1  0
 21 19  1  0
 23 22  1  0
 23  1  1  0
 24  6  1  0
 25 24  1  0
  2 26  1  0
  5 27  1  0
  7 28  1  0
  7 29  1  0
  9 30  1  0
 13 31  1  0
 14 32  1  0
 16 33  1  0
 17 34  1  0
 18 35  1  0
 18 36  1  0
 19 37  1  0
 20 38  1  0
 20 39  1  0
 20 40  1  0
 21 41  1  0
 21 42  1  0
 21 43  1  0
 22 44  1  0
 22 45  1  0
 22 46  1  0
 25 47  1  0
 25 48  1  0
 25 49  1  0
M  CHG  1  19   1
M  END
>  <score>  (1) 
-9.246

$$$$
=
     RDKit          3D

 49 51  0  0  0  0  0  0  0  0999 V2000
    1.0740   63.7010   70.7960 C   0  0  0  0  0  0  0  0  0  0  0  0
    0.0470   63.1880   71.5930 C   0  0  0  0  0  0  0  0  0  0  0  0
    0.2210   61.9260   72.1300 C   0  0  0  0  0  0  0  0  0  0  0  0
    1.3620   61.1580   71.9090 C   0  0  0  0  0  0  0  0  0  0  0  0
    2.3890   61.6530   71.1210 C   0  0  0  0  0  0  0  0  0  0  0  0
    2.2500   62.9320   70.5590 C   0  0  0  0  0  0  0  0  0  0  0  0
    1.2850   59.8310   72.6050 C   0  0  0  0  0  0  0  0  0  0  0  0
   -0.0510   59.8760   73.3040 C   0  0  0  0  0  0  0  0  0  0  0  0
   -0.6490   58.9910   74.1130 C   0  0  0  0  0  0  0  0  0  0  0  0
   -0.7030   61.1840   72.9910 C   0  0  0  0  0  0  0  0  0  0  0  0
   -1.7900   61.5660   73.3750 O   0  0  0  0  0  0  0  0  0  0  0  0
   -0.0750   57.7010   74.4920 C   0  0  0  0  0  0  0  0  0  0  0  0
    0.6840   57.5550   75.6570 C   0  0  0  0  0  0  0  0  0  0  0  0
    1.2510   56.3210   75.9810 C   0  0  0  0  0  0  0  0  0  0  0  0
    1.0760   55.2120   75.1400 C   0  0  0  0  0  0  0  0  0  0  0  0
    0.3100   55.3620   73.9740 C   0  0  0  0  0  0  0  0  0  0  0  0
   -0.2560   56.5990   73.6520 C   0  0  0  0  0  0  0  0  0  0  0  0
    1.7240   53.8920   75.4630 C   0  0  0  0  0  0  0  0  0  0  0  0
    0.7640   52.8920   76.0700 N   0  0  0  0  0  4  0  0  0  0  0  0
    0.3170   51.8370   75.0950 C   0  0  0  0  0  0  0  0  0  0  0  0
    1.3160   52.2850   77.3260 C   0  0  0  0  0  0  0  0  0  0  0  0
    0.1690   65.9150   70.7510 C   0  0  0  0  0  0  0  0  0  0  0  0
    1.0410   64.9380   70.1980 O   0  0  0  0  0  0  0  0  0  0  0  0
    3.1960   63.5300   69.7610 O   0  0  0  0  0  0  0  0  0  0  0  0
    3.7710   62.7580   68.7180 C   0  0  0  0  0  0  0  0  0  0  0  0
   -0.8675   63.7679   71.7862 H   0  0  0  0  0  0  0  0  0  0  0  0
    3.2948   61.0558   70.9396 H   0  0  0  0  0  0  0  0  0  0  0  0
    1.3217   59.0043   71.8802 H   0  0  0  0  0  0  0  0  0  0  0  0
    2.1240   59.6605   73.2957 H   0  0  0  0  0  0  0  0  0  0  0  0
   -1.6374   59.2524   74.5189 H   0  0  0  0  0  0  0  0  0  0  0  0
    0.8354   58.4177   76.3225 H   0  0  0  0  0  0  0  0  0  0  0  0
    1.8403   56.2175   76.9041 H   0  0  0  0  0  0  0  0  0  0  0  0
    0.1538   54.5001   73.3086 H   0  0  0  0  0  0  0  0  0  0  0  0
   -0.8480   56.7056   72.7310 H   0  0  0  0  0  0  0  0  0  0  0  0
    2.1325   53.4661   74.5347 H   0  0  0  0  0  0  0  0  0  0  0  0
    2.5098   54.0860   76.2079 H   0  0  0  0  0  0  0  0  0  0  0  0
   -0.0802   53.4247   76.3238 H   0  0  0  0  0  0  0  0  0  0  0  0
   -0.0541   50.9610   75.6472 H   0  0  0  0  0  0  0  0  0  0  0  0
   -0.4878   52.2397   74.4625 H   0  0  0  0  0  0  0  0  0  0  0  0
    1.1661   51.5389   74.4625 H   0  0  0  0  0  0  0  0  0  0  0  0
    0.8668   52.7790   78.2001 H   0  0  0  0  0  0  0  0  0  0  0  0
    1.0785   51.2112   77.3494 H   0  0  0  0  0  0  0  0  0  0  0  0
    2.4075   52.4197   77.3494 H   0  0  0  0  0  0  0  0  0  0  0  0
    0.2127   65.8660   71.8490 H   0  0  0  0  0  0  0  0  0  0  0  0
    0.4798   66.9156   70.4159 H   0  0  0  0  0  0  0  0  0  0  0  0
   -0.8603   65.7195   70.4159 H   0  0  0  0  0  0  0  0  0  0  0  0
    4.3748   61.9474   69.1519 H   0  0  0  0  0  0  0  0  0  0  0  0
    2.9716   62.3277   68.0969 H   0  0  0  0  0  0  0  0  0  0  0  0
    4.4122   63.4007   68.0969 H   0  0  0  0  0  0  0  0  0  0  0  0
  2  1  2  0
  3  2  1  0
  4  3  2  0
  5  4  1  0
  6  5  2  0
  6  1  1  0
  7  4  1  0
  8  7  1  0
  9  8  2  0
 10  8  1  0
 10  3  1  0
 11 10  2  0
 12  9  1  0
 13 12  2  0
 14 13  1  0
 15 14  2  0
 16 15  1  0
 17 16  2  0
 17 12  1  0
 18 15  1  0
 19 18  1  0
 20 19  1  0
 21 19  1  0
 23 22  1  0
 23  1  1  0
 24  6  1  0
 25 24  1  0
  2 26  1  0
  5 27  1  0
  7 28  1  0
  7 29  1  0
  9 30  1  0
 13 31  1  0
 14 32  1  0
 16 33  1  0
 17 34  1  0
 18 35  1  0
 18 36  1  0
 19 37  1  0
 20 38  1  0
 20 39  1  0
 20 40  1  0
 21 41  1  0
 21 42  1  0
 21 43  1  0
 22 44  1  0
 22 45  1  0
 22 46  1  0
 25 47  1  0
 25 48  1  0
 25 49  1  0
M  CHG  1  19   1
M  END
>  <score>  (2) 
-7.779

$$$$
=
     RDKit          3D

 49 51  0  0  0  0  0  0  0  0999 V2000
    0.5760   56.6000   74.6430 C   0  0  0  0  0  0  0  0  0  0  0  0
    1.6440   57.0710   73.8740 C   0  0  0  0  0  0  0  0  0  0  0  0
    1.5200   58.3250   73.3060 C   0  0  0  0  0  0  0  0  0  0  0  0
    0.3910   59.1240   73.4680 C   0  0  0  0  0  0  0  0  0  0  0  0
   -0.6760   58.6710   74.2270 C   0  0  0  0  0  0  0  0  0  0  0  0
   -0.5880   57.4020   74.8220 C   0  0  0  0  0  0  0  0  0  0  0  0
    0.5220   60.4290   72.7400 C   0  0  0  0  0  0  0  0  0  0  0  0
    1.8920   60.3490   72.1130 C   0  0  0  0  0  0  0  0  0  0  0  0
    2.5740   61.2360   71.3790 C   0  0  0  0  0  0  0  0  0  0  0  0
    2.4960   59.0280   72.4690 C   0  0  0  0  0  0  0  0  0  0  0  0
    3.5860   58.6130   72.1350 O   0  0  0  0  0  0  0  0  0  0  0  0
    2.0730   62.5580   71.0040 C   0  0  0  0  0  0  0  0  0  0  0  0
    2.9440   63.6030   70.6830 C   0  0  0  0  0  0  0  0  0  0  0  0
    2.4430   64.8670   70.3620 C   0  0  0  0  0  0  0  0  0  0  0  0
    1.0610   65.1090   70.3650 C   0  0  0  0  0  0  0  0  0  0  0  0
    0.1910   64.0550   70.6850 C   0  0  0  0  0  0  0  0  0  0  0  0
    0.6960   62.7920   71.0060 C   0  0  0  0  0  0  0  0  0  0  0  0
    0.5200   66.4810   70.0640 C   0  0  0  0  0  0  0  0  0  0  0  0
    0.3910   66.7560   68.5820 N   0  0  0  0  0  4  0  0  0  0  0  0
   -1.0370   66.8770   68.1260 C   0  0  0  0  0  0  0  0  0  0  0  0
    1.2050   67.9470   68.1670 C   0  0  0  0  0  0  0  0  0  0  0  0
    0.6240   54.2150   74.4490 C   0  0  0  0  0  0  0  0  0  0  0  0
    0.5580   55.3760   75.2680 O   0  0  0  0  0  0  0  0  0  0  0  0
   -1.5770   56.8430   75.5950 O   0  0  0  0  0  0  0  0  0  0  0  0
   -2.8330   57.5020   75.6480 C   0  0  0  0  0  0  0  0  0  0  0  0
    2.5504   56.4656   73.7262 H   0  0  0  0  0  0  0  0  0  0  0  0
   -1.5736   59.2926   74.3608 H   0  0  0  0  0  0  0  0  0  0  0  0
   -0.2572   60.5292   71.9700 H   0  0  0  0  0  0  0  0  0  0  0  0
    0.4043   61.3008   73.4004 H   0  0  0  0  0  0  0  0  0  0  0  0
    3.5792   60.9517   71.0344 H   0  0  0  0  0  0  0  0  0  0  0  0
    4.0302   63.4292   70.6831 H   0  0  0  0  0  0  0  0  0  0  0  0
    3.1382   65.6797   70.1046 H   0  0  0  0  0  0  0  0  0  0  0  0
   -0.8959   64.2243   70.6831 H   0  0  0  0  0  0  0  0  0  0  0  0
    0.0039   61.9762   71.2621 H   0  0  0  0  0  0  0  0  0  0  0  0
   -0.4743   66.5742   70.5252 H   0  0  0  0  0  0  0  0  0  0  0  0
    1.2336   67.2118   70.4723 H   0  0  0  0  0  0  0  0  0  0  0  0
    0.7758   65.9288   68.1040 H   0  0  0  0  0  0  0  0  0  0  0  0
   -1.6985   66.9331   69.0031 H   0  0  0  0  0  0  0  0  0  0  0  0
   -1.1527   67.7882   67.5207 H   0  0  0  0  0  0  0  0  0  0  0  0
   -1.3043   65.9983   67.5207 H   0  0  0  0  0  0  0  0  0  0  0  0
    1.5656   68.4746   69.0623 H   0  0  0  0  0  0  0  0  0  0  0  0
    2.0644   67.6128   67.5673 H   0  0  0  0  0  0  0  0  0  0  0  0
    0.5814   68.6264   67.5673 H   0  0  0  0  0  0  0  0  0  0  0  0
    0.6749   53.3195   75.0858 H   0  0  0  0  0  0  0  0  0  0  0  0
   -0.2726   54.1628   73.8139 H   0  0  0  0  0  0  0  0  0  0  0  0
    1.5208   54.2648   73.8139 H   0  0  0  0  0  0  0  0  0  0  0  0
   -3.1232   57.6542   76.6981 H   0  0  0  0  0  0  0  0  0  0  0  0
   -2.7573   58.4766   75.1435 H   0  0  0  0  0  0  0  0  0  0  0  0
   -3.5919   56.8859   75.1435 H   0  0  0  0  0  0  0  0  0  0  0  0
  2  1  2  0
  3  2  1  0
  4  3  2  0
  5  4  1  0
  6  5  2  0
  6  1  1  0
  7  4  1  0
  8  7  1  0
  9  8  2  0
 10  8  1  0
 10  3  1  0
 11 10  2  0
 12  9  1  0
 13 12  2  0
 14 13  1  0
 15 14  2  0
 16 15  1  0
 17 16  2  0
 17 12  1  0
 18 15  1  0
 19 18  1  0
 20 19  1  0
 21 19  1  0
 23 22  1  0
 23  1  1  0
 24  6  1  0
 25 24  1  0
  2 26  1  0
  5 27  1  0
  7 28  1  0
  7 29  1  0
  9 30  1  0
 13 31  1  0
 14 32  1  0
 16 33  1  0
 17 34  1  0
 18 35  1  0
 18 36  1  0
 19 37  1  0
 20 38  1  0
 20 39  1  0
 20 40  1  0
 21 41  1  0
 21 42  1  0
 21 43  1  0
 22 44  1  0
 22 45  1  0
 22 46  1  0
 25 47  1  0
 25 48  1  0
 25 49  1  0
M  CHG  1  19   1
M  END
>  <score>  (3) 
-7.773

$$$$
=
     RDKit          3D

 49 51  0  0  0  0  0  0  0  0999 V2000
    1.3010   68.9880   62.6020 C   0  0  0  0  0  0  0  0  0  0  0  0
    0.3750   69.1820   63.6310 C   0  0  0  0  0  0  0  0  0  0  0  0
    0.5200   68.4210   64.7760 C   0  0  0  0  0  0  0  0  0  0  0  0
    1.5370   67.4840   64.9410 C   0  0  0  0  0  0  0  0  0  0  0  0
    2.4630   67.2800   63.9290 C   0  0  0  0  0  0  0  0  0  0  0  0
    2.3490   68.0350   62.7510 C   0  0  0  0  0  0  0  0  0  0  0  0
    1.4550   66.7990   66.2730 C   0  0  0  0  0  0  0  0  0  0  0  0
    0.2590   67.4450   66.9290 C   0  0  0  0  0  0  0  0  0  0  0  0
   -0.2760   67.2710   68.1440 C   0  0  0  0  0  0  0  0  0  0  0  0
   -0.3160   68.4460   65.9790 C   0  0  0  0  0  0  0  0  0  0  0  0
   -1.2860   69.1510   66.1640 O   0  0  0  0  0  0  0  0  0  0  0  0
    0.2340   66.3330   69.1440 C   0  0  0  0  0  0  0  0  0  0  0  0
    1.5160   66.4710   69.6830 C   0  0  0  0  0  0  0  0  0  0  0  0
    1.9950   65.5430   70.6120 C   0  0  0  0  0  0  0  0  0  0  0  0
    1.2020   64.4570   71.0100 C   0  0  0  0  0  0  0  0  0  0  0  0
   -0.0870   64.3260   70.4680 C   0  0  0  0  0  0  0  0  0  0  0  0
   -0.5620   65.2560   69.5390 C   0  0  0  0  0  0  0  0  0  0  0  0
    1.7310   63.4310   71.9750 C   0  0  0  0  0  0  0  0  0  0  0  0
    2.9110   62.6560   71.4290 N   0  0  0  0  0  4  0  0  0  0  0  0
    3.5590   61.7670   72.4550 C   0  0  0  0  0  0  0  0  0  0  0  0
    2.5480   61.8930   70.1880 C   0  0  0  0  0  0  0  0  0  0  0  0
    0.0150   69.9500   60.8280 C   0  0  0  0  0  0  0  0  0  0  0  0
    1.2820   69.6710   61.4100 O   0  0  0  0  0  0  0  0  0  0  0  0
    3.2030   67.9230   61.6800 O   0  0  0  0  0  0  0  0  0  0  0  0
    4.4420   67.2610   61.8810 C   0  0  0  0  0  0  0  0  0  0  0  0
   -0.4401   69.9142   63.5332 H   0  0  0  0  0  0  0  0  0  0  0  0
    3.2701   66.5419   64.0469 H   0  0  0  0  0  0  0  0  0  0  0  0
    1.2991   65.7171   66.1497 H   0  0  0  0  0  0  0  0  0  0  0  0
    2.3762   66.9026   66.8652 H   0  0  0  0  0  0  0  0  0  0  0  0
   -1.1577   67.8735   68.4078 H   0  0  0  0  0  0  0  0  0  0  0  0
    2.1514   67.3143   69.3745 H   0  0  0  0  0  0  0  0  0  0  0  0
    3.0031   65.6656   71.0347 H   0  0  0  0  0  0  0  0  0  0  0  0
   -0.7268   63.4861   70.7766 H   0  0  0  0  0  0  0  0  0  0  0  0
   -1.5705   65.1386   69.1159 H   0  0  0  0  0  0  0  0  0  0  0  0
    2.0453   63.9451   72.8953 H   0  0  0  0  0  0  0  0  0  0  0  0
    0.9225   62.7091   72.1624 H   0  0  0  0  0  0  0  0  0  0  0  0
    3.6180   63.3589   71.1702 H   0  0  0  0  0  0  0  0  0  0  0  0
    3.3003   62.1219   73.4635 H   0  0  0  0  0  0  0  0  0  0  0  0
    3.1995   60.7355   72.3259 H   0  0  0  0  0  0  0  0  0  0  0  0
    4.6511   61.7935   72.3259 H   0  0  0  0  0  0  0  0  0  0  0  0
    2.0911   60.9325   70.4686 H   0  0  0  0  0  0  0  0  0  0  0  0
    1.8325   62.4796   69.5931 H   0  0  0  0  0  0  0  0  0  0  0  0
    3.4545   61.7079   69.5931 H   0  0  0  0  0  0  0  0  0  0  0  0
   -0.7263   70.1132   61.6242 H   0  0  0  0  0  0  0  0  0  0  0  0
    0.0887   70.8534   60.2048 H   0  0  0  0  0  0  0  0  0  0  0  0
   -0.2976   69.0992   60.2048 H   0  0  0  0  0  0  0  0  0  0  0  0
    4.6326   67.1592   62.9596 H   0  0  0  0  0  0  0  0  0  0  0  0
    4.4037   66.2632   61.4196 H   0  0  0  0  0  0  0  0  0  0  0  0
    5.2502   67.8475   61.4196 H   0  0  0  0  0  0  0  0  0  0  0  0
  2  1  2  0
  3  2  1  0
  4  3  2  0
  5  4  1  0
  6  5  2  0
  6  1  1  0
  7  4  1  0
  8  7  1  0
  9  8  2  0
 10  8  1  0
 10  3  1  0
 11 10  2  0
 12  9  1  0
 13 12  2  0
 14 13  1  0
 15 14  2  0
 16 15  1  0
 17 16  2  0
 17 12  1  0
 18 15  1  0
 19 18  1  0
 20 19  1  0
 21 19  1  0
 23 22  1  0
 23  1  1  0
 24  6  1  0
 25 24  1  0
  2 26  1  0
  5 27  1  0
  7 28  1  0
  7 29  1  0
  9 30  1  0
 13 31  1  0
 14 32  1  0
 16 33  1  0
 17 34  1  0
 18 35  1  0
 18 36  1  0
 19 37  1  0
 20 38  1  0
 20 39  1  0
 20 40  1  0
 21 41  1  0
 21 42  1  0
 21 43  1  0
 22 44  1  0
 22 45  1  0
 22 46  1  0
 25 47  1  0
 25 48  1  0
 25 49  1  0
M  CHG  1  19   1
M  END
>  <score>  (4) 
-7.682

$$$$
=
     RDKit          3D

 49 51  0  0  0  0  0  0  0  0999 V2000
    1.1880   62.1750   72.8410 C   0  0  0  0  0  0  0  0  0  0  0  0
    0.4750   63.3650   72.6700 C   0  0  0  0  0  0  0  0  0  0  0  0
    0.8660   64.2050   71.6430 C   0  0  0  0  0  0  0  0  0  0  0  0
    1.9250   63.9140   70.7870 C   0  0  0  0  0  0  0  0  0  0  0  0
    2.6410   62.7380   70.9430 C   0  0  0  0  0  0  0  0  0  0  0  0
    2.2740   61.8590   71.9740 C   0  0  0  0  0  0  0  0  0  0  0  0
    2.1330   64.9980   69.7700 C   0  0  0  0  0  0  0  0  0  0  0  0
    1.0520   66.0000   70.0940 C   0  0  0  0  0  0  0  0  0  0  0  0
    0.7170   67.1520   69.5010 C   0  0  0  0  0  0  0  0  0  0  0  0
    0.2780   65.4930   71.2690 C   0  0  0  0  0  0  0  0  0  0  0  0
   -0.6610   66.0390   71.8110 O   0  0  0  0  0  0  0  0  0  0  0  0
    1.4020   67.7100   68.3350 C   0  0  0  0  0  0  0  0  0  0  0  0
    2.1380   68.8960   68.4220 C   0  0  0  0  0  0  0  0  0  0  0  0
    2.7550   69.4290   67.2880 C   0  0  0  0  0  0  0  0  0  0  0  0
    2.6400   68.7880   66.0450 C   0  0  0  0  0  0  0  0  0  0  0  0
    1.9030   67.5960   65.9640 C   0  0  0  0  0  0  0  0  0  0  0  0
    1.2870   67.0660   67.1010 C   0  0  0  0  0  0  0  0  0  0  0  0
    3.2650   69.3840   64.8120 C   0  0  0  0  0  0  0  0  0  0  0  0
    4.7710   69.2440   64.7840 N   0  0  0  0  0  4  0  0  0  0  0  0
    5.4290   69.6930   66.0600 C   0  0  0  0  0  0  0  0  0  0  0  0
    5.1930   67.8550   64.4050 C   0  0  0  0  0  0  0  0  0  0  0  0
    0.0740   61.6450   74.8910 C   0  0  0  0  0  0  0  0  0  0  0  0
    0.9140   61.2460   73.8150 O   0  0  0  0  0  0  0  0  0  0  0  0
    2.9060   60.6660   72.2300 O   0  0  0  0  0  0  0  0  0  0  0  0
    3.2510   59.8440   71.1260 C   0  0  0  0  0  0  0  0  0  0  0  0
   -0.3670   63.6242   73.3287 H   0  0  0  0  0  0  0  0  0  0  0  0
    3.4796   62.4982   70.2728 H   0  0  0  0  0  0  0  0  0  0  0  0
    3.1308   65.4489   69.8750 H   0  0  0  0  0  0  0  0  0  0  0  0
    2.0783   64.6295   68.7350 H   0  0  0  0  0  0  0  0  0  0  0  0
   -0.1297   67.7169   69.9181 H   0  0  0  0  0  0  0  0  0  0  0  0
    2.2315   69.4120   69.3890 H   0  0  0  0  0  0  0  0  0  0  0  0
    3.3361   70.3594   67.3700 H   0  0  0  0  0  0  0  0  0  0  0  0
    1.8097   67.0757   64.9993 H   0  0  0  0  0  0  0  0  0  0  0  0
    0.7071   66.1345   67.0235 H   0  0  0  0  0  0  0  0  0  0  0  0
    2.8496   68.8768   63.9287 H   0  0  0  0  0  0  0  0  0  0  0  0
    3.0353   70.4597   64.8148 H   0  0  0  0  0  0  0  0  0  0  0  0
    5.1025   69.8844   64.0485 H   0  0  0  0  0  0  0  0  0  0  0  0
    4.8627   69.3066   66.9202 H   0  0  0  0  0  0  0  0  0  0  0  0
    6.4590   69.3085   66.0964 H   0  0  0  0  0  0  0  0  0  0  0  0
    5.4465   70.7923   66.0964 H   0  0  0  0  0  0  0  0  0  0  0  0
    5.3723   67.2649   65.3158 H   0  0  0  0  0  0  0  0  0  0  0  0
    4.3987   67.3798   63.8106 H   0  0  0  0  0  0  0  0  0  0  0  0
    6.1174   67.9020   63.8106 H   0  0  0  0  0  0  0  0  0  0  0  0
    0.5662   61.4112   75.8466 H   0  0  0  0  0  0  0  0  0  0  0  0
   -0.1116   62.7275   74.8293 H   0  0  0  0  0  0  0  0  0  0  0  0
   -0.8823   61.1049   74.8293 H   0  0  0  0  0  0  0  0  0  0  0  0
    3.6524   58.8876   71.4923 H   0  0  0  0  0  0  0  0  0  0  0  0
    2.3559   59.6560   70.5150 H   0  0  0  0  0  0  0  0  0  0  0  0
    4.0122   60.3512   70.5150 H   0  0  0  0  0  0  0  0  0  0  0  0
  2  1  2  0
  3  2  1  0
  4  3  2  0
  5  4  1  0
  6  5  2  0
  6  1  1  0
  7  4  1  0
  8  7  1  0
  9  8  2  0
 10  8  1  0
 10  3  1  0
 11 10  2  0
 12  9  1  0
 13 12  2  0
 14 13  1  0
 15 14  2  0
 16 15  1  0
 17 16  2  0
 17 12  1  0
 18 15  1  0
 19 18  1  0
 20 19  1  0
 21 19  1  0
 23 22  1  0
 23  1  1  0
 24  6  1  0
 25 24  1  0
  2 26  1  0
  5 27  1  0
  7 28  1  0
  7 29  1  0
  9 30  1  0
 13 31  1  0
 14 32  1  0
 16 33  1  0
 17 34  1  0
 18 35  1  0
 18 36  1  0
 19 37  1  0
 20 38  1  0
 20 39  1  0
 20 40  1  0
 21 41  1  0
 21 42  1  0
 21 43  1  0
 22 44  1  0
 22 45  1  0
 22 46  1  0
 25 47  1  0
 25 48  1  0
 25 49  1  0
M  CHG  1  19   1
M  END
>  <score>  (5) 
-7.532

$$$$
=
     RDKit          3D

 49 51  0  0  0  0  0  0  0  0999 V2000
    3.5670   62.2380   69.9500 C   0  0  0  0  0  0  0  0  0  0  0  0
    3.7690   60.8550   69.9140 C   0  0  0  0  0  0  0  0  0  0  0  0
    3.1140   60.0860   70.8590 C   0  0  0  0  0  0  0  0  0  0  0  0
    2.2740   60.6290   71.8290 C   0  0  0  0  0  0  0  0  0  0  0  0
    2.0640   61.9980   71.8770 C   0  0  0  0  0  0  0  0  0  0  0  0
    2.7110   62.8120   70.9340 C   0  0  0  0  0  0  0  0  0  0  0  0
    1.7010   59.5710   72.7250 C   0  0  0  0  0  0  0  0  0  0  0  0
    2.2820   58.2900   72.1770 C   0  0  0  0  0  0  0  0  0  0  0  0
    2.0960   57.0160   72.5420 C   0  0  0  0  0  0  0  0  0  0  0  0
    3.1660   58.6310   71.0200 C   0  0  0  0  0  0  0  0  0  0  0  0
    3.8040   57.8550   70.3390 O   0  0  0  0  0  0  0  0  0  0  0  0
    1.2330   56.5900   73.6430 C   0  0  0  0  0  0  0  0  0  0  0  0
    1.7400   56.3920   74.9310 C   0  0  0  0  0  0  0  0  0  0  0  0
    0.9030   55.9520   75.9600 C   0  0  0  0  0  0  0  0  0  0  0  0
   -0.4540   55.6930   75.7150 C   0  0  0  0  0  0  0  0  0  0  0  0
   -0.9580   55.8970   74.4210 C   0  0  0  0  0  0  0  0  0  0  0  0
   -0.1180   56.3370   73.3940 C   0  0  0  0  0  0  0  0  0  0  0  0
   -1.3470   55.1750   76.8090 C   0  0  0  0  0  0  0  0  0  0  0  0
   -2.0820   53.9090   76.4250 N   0  0  0  0  0  4  0  0  0  0  0  0
   -1.2220   52.6780   76.5140 C   0  0  0  0  0  0  0  0  0  0  0  0
   -3.3560   53.7500   77.2030 C   0  0  0  0  0  0  0  0  0  0  0  0
    3.7770   63.0440   67.7070 C   0  0  0  0  0  0  0  0  0  0  0  0
    4.1500   63.1240   69.0770 O   0  0  0  0  0  0  0  0  0  0  0  0
    2.5830   64.1790   70.8800 O   0  0  0  0  0  0  0  0  0  0  0  0
    1.3070   64.7170   70.5680 C   0  0  0  0  0  0  0  0  0  0  0  0
    4.4255   60.3948   69.1609 H   0  0  0  0  0  0  0  0  0  0  0  0
    1.4036   62.4379   72.6388 H   0  0  0  0  0  0  0  0  0  0  0  0
    2.0122   59.7289   73.7682 H   0  0  0  0  0  0  0  0  0  0  0  0
    0.6011   59.5708   72.7375 H   0  0  0  0  0  0  0  0  0  0  0  0
    2.6279   56.2371   71.9759 H   0  0  0  0  0  0  0  0  0  0  0  0
    2.8037   56.5837   75.1355 H   0  0  0  0  0  0  0  0  0  0  0  0
    1.3117   55.8074   76.9710 H   0  0  0  0  0  0  0  0  0  0  0  0
   -2.0218   55.7092   74.2135 H   0  0  0  0  0  0  0  0  0  0  0  0
   -0.5238   56.4851   72.3824 H   0  0  0  0  0  0  0  0  0  0  0  0
   -0.7300   54.9665   77.6955 H   0  0  0  0  0  0  0  0  0  0  0  0
   -2.1048   55.9472   77.0074 H   0  0  0  0  0  0  0  0  0  0  0  0
   -2.3316   54.0139   75.4312 H   0  0  0  0  0  0  0  0  0  0  0  0
   -1.0475   52.4282   77.5710 H   0  0  0  0  0  0  0  0  0  0  0  0
   -1.7311   51.8384   76.0181 H   0  0  0  0  0  0  0  0  0  0  0  0
   -0.2585   52.8672   76.0181 H   0  0  0  0  0  0  0  0  0  0  0  0
   -3.1338   53.7777   78.2800 H   0  0  0  0  0  0  0  0  0  0  0  0
   -4.0451   54.5691   76.9495 H   0  0  0  0  0  0  0  0  0  0  0  0
   -3.8226   52.7867   76.9495 H   0  0  0  0  0  0  0  0  0  0  0  0
    2.7040   62.8139   67.6320 H   0  0  0  0  0  0  0  0  0  0  0  0
    3.9809   64.0063   67.2147 H   0  0  0  0  0  0  0  0  0  0  0  0
    4.3576   62.2500   67.2147 H   0  0  0  0  0  0  0  0  0  0  0  0
    0.7674   64.9445   71.4991 H   0  0  0  0  0  0  0  0  0  0  0  0
    1.4314   65.6393   69.9815 H   0  0  0  0  0  0  0  0  0  0  0  0
    0.7335   63.9841   69.9815 H   0  0  0  0  0  0  0  0  0  0  0  0
  2  1  2  0
  3  2  1  0
  4  3  2  0
  5  4  1  0
  6  5  2  0
  6  1  1  0
  7  4  1  0
  8  7  1  0
  9  8  2  0
 10  8  1  0
 10  3  1  0
 11 10  2  0
 12  9  1  0
 13 12  2  0
 14 13  1  0
 15 14  2  0
 16 15  1  0
 17 16  2  0
 17 12  1  0
 18 15  1  0
 19 18  1  0
 20 19  1  0
 21 19  1  0
 23 22  1  0
 23  1  1  0
 24  6  1  0
 25 24  1  0
  2 26  1  0
  5 27  1  0
  7 28  1  0
  7 29  1  0
  9 30  1  0
 13 31  1  0
 14 32  1  0
 16 33  1  0
 17 34  1  0
 18 35  1  0
 18 36  1  0
 19 37  1  0
 20 38  1  0
 20 39  1  0
 20 40  1  0
 21 41  1  0
 21 42  1  0
 21 43  1  0
 22 44  1  0
 22 45  1  0
 22 46  1  0
 25 47  1  0
 25 48  1  0
 25 49  1  0
M  CHG  1  19   1
M  END
>  <score>  (6) 
-7.506

$$$$
=
     RDKit          3D

 49 51  0  0  0  0  0  0  0  0999 V2000
    0.7840   65.2610   70.9580 C   0  0  0  0  0  0  0  0  0  0  0  0
    1.5960   64.2700   70.4000 C   0  0  0  0  0  0  0  0  0  0  0  0
    1.6980   63.0680   71.0760 C   0  0  0  0  0  0  0  0  0  0  0  0
    1.0330   62.8120   72.2720 C   0  0  0  0  0  0  0  0  0  0  0  0
    0.2240   63.7850   72.8380 C   0  0  0  0  0  0  0  0  0  0  0  0
    0.0950   65.0180   72.1810 C   0  0  0  0  0  0  0  0  0  0  0  0
    1.3250   61.4340   72.7890 C   0  0  0  0  0  0  0  0  0  0  0  0
    2.2500   60.8540   71.7470 C   0  0  0  0  0  0  0  0  0  0  0  0
    2.8090   59.6420   71.6460 C   0  0  0  0  0  0  0  0  0  0  0  0
    2.4780   61.8890   70.6920 C   0  0  0  0  0  0  0  0  0  0  0  0
    3.1720   61.7790   69.7020 O   0  0  0  0  0  0  0  0  0  0  0  0
    2.6220   58.5640   72.6160 C   0  0  0  0  0  0  0  0  0  0  0  0
    1.8690   57.4270   72.3050 C   0  0  0  0  0  0  0  0  0  0  0  0
    1.6740   56.4260   73.2600 C   0  0  0  0  0  0  0  0  0  0  0  0
    2.2240   56.5480   74.5450 C   0  0  0  0  0  0  0  0  0  0  0  0
    2.9830   57.6890   74.8500 C   0  0  0  0  0  0  0  0  0  0  0  0
    3.1740   58.6890   73.8930 C   0  0  0  0  0  0  0  0  0  0  0  0
    1.9790   55.4930   75.5890 C   0  0  0  0  0  0  0  0  0  0  0  0
    0.7840   54.6180   75.2800 N   0  0  0  0  0  4  0  0  0  0  0  0
    1.1380   53.1620   75.1490 C   0  0  0  0  0  0  0  0  0  0  0  0
   -0.3280   54.8290   76.2650 C   0  0  0  0  0  0  0  0  0  0  0  0
    1.1170   66.7320   69.1000 C   0  0  0  0  0  0  0  0  0  0  0  0
    0.5880   66.5010   70.4000 O   0  0  0  0  0  0  0  0  0  0  0  0
   -0.6750   66.0600   72.6420 O   0  0  0  0  0  0  0  0  0  0  0  0
   -0.7640   66.2520   74.0450 C   0  0  0  0  0  0  0  0  0  0  0  0
    2.1350   64.4401   69.4563 H   0  0  0  0  0  0  0  0  0  0  0  0
   -0.3060   63.5943   73.7829 H   0  0  0  0  0  0  0  0  0  0  0  0
    1.8184   61.4791   73.7711 H   0  0  0  0  0  0  0  0  0  0  0  0
    0.4168   60.8315   72.9380 H   0  0  0  0  0  0  0  0  0  0  0  0
    3.4517   59.4438   70.7755 H   0  0  0  0  0  0  0  0  0  0  0  0
    1.4279   57.3204   71.3030 H   0  0  0  0  0  0  0  0  0  0  0  0
    1.0839   55.5342   73.0021 H   0  0  0  0  0  0  0  0  0  0  0  0
    3.4304   57.7965   75.8492 H   0  0  0  0  0  0  0  0  0  0  0  0
    3.7639   59.5820   74.1473 H   0  0  0  0  0  0  0  0  0  0  0  0
    2.8720   54.8544   75.6576 H   0  0  0  0  0  0  0  0  0  0  0  0
    1.7695   56.0115   76.5362 H   0  0  0  0  0  0  0  0  0  0  0  0
    0.4442   54.9160   74.3545 H   0  0  0  0  0  0  0  0  0  0  0  0
    1.2456   52.7193   76.1502 H   0  0  0  0  0  0  0  0  0  0  0  0
    0.3409   52.6388   74.6005 H   0  0  0  0  0  0  0  0  0  0  0  0
    2.0863   53.0631   74.6005 H   0  0  0  0  0  0  0  0  0  0  0  0
    0.0692   54.7536   77.2880 H   0  0  0  0  0  0  0  0  0  0  0  0
   -0.7668   55.8264   76.1145 H   0  0  0  0  0  0  0  0  0  0  0  0
   -1.1016   54.0616   76.1145 H   0  0  0  0  0  0  0  0  0  0  0  0
    2.1220   67.1709   69.1858 H   0  0  0  0  0  0  0  0  0  0  0  0
    1.1785   65.7788   68.5544 H   0  0  0  0  0  0  0  0  0  0  0  0
    0.4596   67.4250   68.5544 H   0  0  0  0  0  0  0  0  0  0  0  0
   -0.3557   65.3712   74.5622 H   0  0  0  0  0  0  0  0  0  0  0  0
   -0.1878   67.1445   74.3302 H   0  0  0  0  0  0  0  0  0  0  0  0
   -1.8175   66.3891   74.3302 H   0  0  0  0  0  0  0  0  0  0  0  0
  2  1  2  0
  3  2  1  0
  4  3  2  0
  5  4  1  0
  6  5  2  0
  6  1  1  0
  7  4  1  0
  8  7  1  0
  9  8  2  0
 10  8  1  0
 10  3  1  0
 11 10  2  0
 12  9  1  0
 13 12  2  0
 14 13  1  0
 15 14  2  0
 16 15  1  0
 17 16  2  0
 17 12  1  0
 18 15  1  0
 19 18  1  0
 20 19  1  0
 21 19  1  0
 23 22  1  0
 23  1  1  0
 24  6  1  0
 25 24  1  0
  2 26  1  0
  5 27  1  0
  7 28  1  0
  7 29  1  0
  9 30  1  0
 13 31  1  0
 14 32  1  0
 16 33  1  0
 17 34  1  0
 18 35  1  0
 18 36  1  0
 19 37  1  0
 20 38  1  0
 20 39  1  0
 20 40  1  0
 21 41  1  0
 21 42  1  0
 21 43  1  0
 22 44  1  0
 22 45  1  0
 22 46  1  0
 25 47  1  0
 25 48  1  0
 25 49  1  0
M  CHG  1  19   1
M  END
>  <score>  (7) 
-7.002

$$$$
=
     RDKit          3D

 49 51  0  0  0  0  0  0  0  0999 V2000
    2.2880   62.1670   71.2970 C   0  0  0  0  0  0  0  0  0  0  0  0
    1.0410   61.9990   71.9050 C   0  0  0  0  0  0  0  0  0  0  0  0
    0.7820   60.7840   72.5130 C   0  0  0  0  0  0  0  0  0  0  0  0
    1.7020   59.7380   72.5410 C   0  0  0  0  0  0  0  0  0  0  0  0
    2.9430   59.8900   71.9420 C   0  0  0  0  0  0  0  0  0  0  0  0
    3.2430   61.1100   71.3160 C   0  0  0  0  0  0  0  0  0  0  0  0
    1.1600   58.5370   73.2590 C   0  0  0  0  0  0  0  0  0  0  0  0
   -0.2180   58.9760   73.6910 C   0  0  0  0  0  0  0  0  0  0  0  0
   -1.1570   58.3430   74.4050 C   0  0  0  0  0  0  0  0  0  0  0  0
   -0.4390   60.3750   73.2110 C   0  0  0  0  0  0  0  0  0  0  0  0
   -1.4360   61.0490   73.3680 O   0  0  0  0  0  0  0  0  0  0  0  0
   -1.0170   56.9870   74.9340 C   0  0  0  0  0  0  0  0  0  0  0  0
   -0.9910   56.7420   76.3110 C   0  0  0  0  0  0  0  0  0  0  0  0
   -0.8210   55.4420   76.7940 C   0  0  0  0  0  0  0  0  0  0  0  0
   -0.6660   54.3660   75.9070 C   0  0  0  0  0  0  0  0  0  0  0  0
   -0.6960   54.6170   74.5270 C   0  0  0  0  0  0  0  0  0  0  0  0
   -0.8660   55.9190   74.0470 C   0  0  0  0  0  0  0  0  0  0  0  0
   -0.4370   52.9710   76.4240 C   0  0  0  0  0  0  0  0  0  0  0  0
   -1.6940   52.1280   76.4360 N   0  0  0  0  0  4  0  0  0  0  0  0
   -2.7710   52.6890   77.3240 C   0  0  0  0  0  0  0  0  0  0  0  0
   -2.2020   51.8700   75.0480 C   0  0  0  0  0  0  0  0  0  0  0  0
    1.8210   64.4440   70.7300 C   0  0  0  0  0  0  0  0  0  0  0  0
    2.6850   63.3160   70.6580 O   0  0  0  0  0  0  0  0  0  0  0  0
    4.4360   61.3800   70.6890 O   0  0  0  0  0  0  0  0  0  0  0  0
    5.6320   61.2290   71.4380 C   0  0  0  0  0  0  0  0  0  0  0  0
    0.2919   62.8045   71.9002 H   0  0  0  0  0  0  0  0  0  0  0  0
    3.6775   59.0713   71.9570 H   0  0  0  0  0  0  0  0  0  0  0  0
    1.1029   57.6691   72.5856 H   0  0  0  0  0  0  0  0  0  0  0  0
    1.7923   58.2205   74.1016 H   0  0  0  0  0  0  0  0  0  0  0  0
   -2.0963   58.8786   74.6072 H   0  0  0  0  0  0  0  0  0  0  0  0
   -1.1050   57.5774   77.0174 H   0  0  0  0  0  0  0  0  0  0  0  0
   -0.8086   55.2606   77.8789 H   0  0  0  0  0  0  0  0  0  0  0  0
   -0.5850   53.7836   73.8177 H   0  0  0  0  0  0  0  0  0  0  0  0
   -0.8809   56.1035   72.9627 H   0  0  0  0  0  0  0  0  0  0  0  0
    0.3088   52.4782   75.7830 H   0  0  0  0  0  0  0  0  0  0  0  0
   -0.0918   53.0596   77.4647 H   0  0  0  0  0  0  0  0  0  0  0  0
   -1.4262   51.2218   76.8458 H   0  0  0  0  0  0  0  0  0  0  0  0
   -2.4906   52.5429   78.3776 H   0  0  0  0  0  0  0  0  0  0  0  0
   -2.8900   53.7637   77.1219 H   0  0  0  0  0  0  0  0  0  0  0  0
   -3.7199   52.1706   77.1219 H   0  0  0  0  0  0  0  0  0  0  0  0
   -3.1816   51.3725   75.1026 H   0  0  0  0  0  0  0  0  0  0  0  0
   -2.3051   52.8250   74.5119 H   0  0  0  0  0  0  0  0  0  0  0  0
   -1.4917   51.2234   74.5119 H   0  0  0  0  0  0  0  0  0  0  0  0
    1.6302   64.6930   71.7843 H   0  0  0  0  0  0  0  0  0  0  0  0
    2.2954   65.3017   70.2307 H   0  0  0  0  0  0  0  0  0  0  0  0
    0.8693   64.2094   70.2307 H   0  0  0  0  0  0  0  0  0  0  0  0
    5.3980   61.2585   72.5124 H   0  0  0  0  0  0  0  0  0  0  0  0
    6.1000   60.2646   71.1911 H   0  0  0  0  0  0  0  0  0  0  0  0
    6.3250   62.0468   71.1911 H   0  0  0  0  0  0  0  0  0  0  0  0
  2  1  2  0
  3  2  1  0
  4  3  2  0
  5  4  1  0
  6  5  2  0
  6  1  1  0
  7  4  1  0
  8  7  1  0
  9  8  2  0
 10  8  1  0
 10  3  1  0
 11 10  2  0
 12  9  1  0
 13 12  2  0
 14 13  1  0
 15 14  2  0
 16 15  1  0
 17 16  2  0
 17 12  1  0
 18 15  1  0
 19 18  1  0
 20 19  1  0
 21 19  1  0
 23 22  1  0
 23  1  1  0
 24  6  1  0
 25 24  1  0
  2 26  1  0
  5 27  1  0
  7 28  1  0
  7 29  1  0
  9 30  1  0
 13 31  1  0
 14 32  1  0
 16 33  1  0
 17 34  1  0
 18 35  1  0
 18 36  1  0
 19 37  1  0
 20 38  1  0
 20 39  1  0
 20 40  1  0
 21 41  1  0
 21 42  1  0
 21 43  1  0
 22 44  1  0
 22 45  1  0
 22 46  1  0
 25 47  1  0
 25 48  1  0
 25 49  1  0
M  CHG  1  19   1
M  END
>  <score>  (8) 
-6.458

$$$$
=
     RDKit          3D

 49 51  0  0  0  0  0  0  0  0999 V2000
    3.1160   61.9090   71.6880 C   0  0  0  0  0  0  0  0  0  0  0  0
    2.1080   62.6740   72.2810 C   0  0  0  0  0  0  0  0  0  0  0  0
    1.0160   62.0040   72.8010 C   0  0  0  0  0  0  0  0  0  0  0  0
    0.8850   60.6180   72.7560 C   0  0  0  0  0  0  0  0  0  0  0  0
    1.8760   59.8460   72.1710 C   0  0  0  0  0  0  0  0  0  0  0  0
    3.0020   60.4900   71.6330 C   0  0  0  0  0  0  0  0  0  0  0  0
   -0.3960   60.1580   73.3870 C   0  0  0  0  0  0  0  0  0  0  0  0
   -1.0440   61.4410   73.8480 C   0  0  0  0  0  0  0  0  0  0  0  0
   -2.1840   61.6590   74.5140 C   0  0  0  0  0  0  0  0  0  0  0  0
   -0.1540   62.5810   73.4670 C   0  0  0  0  0  0  0  0  0  0  0  0
   -0.3550   63.7610   73.6710 O   0  0  0  0  0  0  0  0  0  0  0  0
   -3.1010   60.6050   74.9470 C   0  0  0  0  0  0  0  0  0  0  0  0
   -4.3960   60.5090   74.4280 C   0  0  0  0  0  0  0  0  0  0  0  0
   -5.2670   59.5150   74.8820 C   0  0  0  0  0  0  0  0  0  0  0  0
   -4.8590   58.6050   75.8680 C   0  0  0  0  0  0  0  0  0  0  0  0
   -3.5570   58.7030   76.3830 C   0  0  0  0  0  0  0  0  0  0  0  0
   -2.6890   59.6990   75.9270 C   0  0  0  0  0  0  0  0  0  0  0  0
   -5.8090   57.5620   76.3920 C   0  0  0  0  0  0  0  0  0  0  0  0
   -7.1720   58.1200   76.7370 N   0  0  0  0  0  4  0  0  0  0  0  0
   -8.2490   57.0700   76.7700 C   0  0  0  0  0  0  0  0  0  0  0  0
   -7.1400   58.9180   78.0070 C   0  0  0  0  0  0  0  0  0  0  0  0
    4.1280   63.1400   69.9020 C   0  0  0  0  0  0  0  0  0  0  0  0
    4.2570   62.4360   71.1310 O   0  0  0  0  0  0  0  0  0  0  0  0
    4.0470   59.8360   71.0270 O   0  0  0  0  0  0  0  0  0  0  0  0
    3.7570   58.6660   70.2770 C   0  0  0  0  0  0  0  0  0  0  0  0
    2.1808   63.7704   72.3323 H   0  0  0  0  0  0  0  0  0  0  0  0
    1.7825   58.7508   72.1289 H   0  0  0  0  0  0  0  0  0  0  0  0
   -1.0307   59.6385   72.6540 H   0  0  0  0  0  0  0  0  0  0  0  0
   -0.2363   59.4410   74.2058 H   0  0  0  0  0  0  0  0  0  0  0  0
   -2.4490   62.6998   74.7516 H   0  0  0  0  0  0  0  0  0  0  0  0
   -4.7309   61.2198   73.6582 H   0  0  0  0  0  0  0  0  0  0  0  0
   -6.2814   59.4457   74.4623 H   0  0  0  0  0  0  0  0  0  0  0  0
   -3.2177   57.9915   77.1502 H   0  0  0  0  0  0  0  0  0  0  0  0
   -1.6733   59.7700   76.3432 H   0  0  0  0  0  0  0  0  0  0  0  0
   -5.9333   56.7844   75.6240 H   0  0  0  0  0  0  0  0  0  0  0  0
   -5.3752   57.1597   77.3193 H   0  0  0  0  0  0  0  0  0  0  0  0
   -7.4195   58.7609   75.9696 H   0  0  0  0  0  0  0  0  0  0  0  0
   -8.4952   56.8300   77.8149 H   0  0  0  0  0  0  0  0  0  0  0  0
   -9.1466   57.4493   76.2596 H   0  0  0  0  0  0  0  0  0  0  0  0
   -7.8927   56.1631   76.2596 H   0  0  0  0  0  0  0  0  0  0  0  0
   -7.1674   58.2358   78.8695 H   0  0  0  0  0  0  0  0  0  0  0  0
   -6.2172   59.5157   78.0414 H   0  0  0  0  0  0  0  0  0  0  0  0
   -8.0120   59.5876   78.0414 H   0  0  0  0  0  0  0  0  0  0  0  0
    3.9332   64.2030   70.1071 H   0  0  0  0  0  0  0  0  0  0  0  0
    5.0589   63.0426   69.3242 H   0  0  0  0  0  0  0  0  0  0  0  0
    3.2921   62.7189   69.3242 H   0  0  0  0  0  0  0  0  0  0  0  0
    3.5503   57.8320   70.9639 H   0  0  0  0  0  0  0  0  0  0  0  0
    2.8762   58.8458   69.6430 H   0  0  0  0  0  0  0  0  0  0  0  0
    4.6198   58.4136   69.6430 H   0  0  0  0  0  0  0  0  0  0  0  0
  2  1  2  0
  3  2  1  0
  4  3  2  0
  5  4  1  0
  6  5  2  0
  6  1  1  0
  7  4  1  0
  8  7  1  0
  9  8  2  0
 10  8  1  0
 10  3  1  0
 11 10  2  0
 12  9  1  0
 13 12  2  0
 14 13  1  0
 15 14  2  0
 16 15  1  0
 17 16  2  0
 17 12  1  0
 18 15  1  0
 19 18  1  0
 20 19  1  0
 21 19  1  0
 23 22  1  0
 23  1  1  0
 24  6  1  0
 25 24  1  0
  2 26  1  0
  5 27  1  0
  7 28  1  0
  7 29  1  0
  9 30  1  0
 13 31  1  0
 14 32  1  0
 16 33  1  0
 17 34  1  0
 18 35  1  0
 18 36  1  0
 19 37  1  0
 20 38  1  0
 20 39  1  0
 20 40  1  0
 21 41  1  0
 21 42  1  0
 21 43  1  0
 22 44  1  0
 22 45  1  0
 22 46  1  0
 25 47  1  0
 25 48  1  0
 25 49  1  0
M  CHG  1  19   1
M  END
>  <score>  (9) 
-6.326

$$$$
