=
     RDKit          3D

 49 52  0  0  0  0  0  0  0  0999 V2000
   -1.0030   68.5520   67.0520 C   0  0  0  0  0  0  0  0  0  0  0  0
    0.3890   68.7870   67.6640 C   0  0  0  0  0  0  0  0  0  0  0  0
    1.1700   67.4890   67.7960 C   0  0  0  0  0  0  0  0  0  0  0  0
    0.4500   66.5270   68.7200 N   0  0  0  0  0  4  0  0  0  0  0  0
   -1.0540   66.7150   68.7850 C   0  0  0  0  0  0  0  0  0  0  0  0
   -1.5730   67.1750   67.4330 C   0  0  0  0  0  0  0  0  0  0  0  0
    3.2060   68.9050   61.2350 C   0  0  0  0  0  0  0  0  0  0  0  0
    4.1300   68.7890   62.2850 C   0  0  0  0  0  0  0  0  0  0  0  0
    3.6880   68.6910   63.6100 C   0  0  0  0  0  0  0  0  0  0  0  0
    2.3230   68.7130   63.8530 C   0  0  0  0  0  0  0  0  0  0  0  0
    1.4270   68.8310   62.7870 C   0  0  0  0  0  0  0  0  0  0  0  0
    1.8370   68.9280   61.4720 C   0  0  0  0  0  0  0  0  0  0  0  0
    0.0570   68.8290   63.3050 C   0  0  0  0  0  0  0  0  0  0  0  0
   -0.9690   68.9090   62.6590 O   0  0  0  0  0  0  0  0  0  0  0  0
    0.1540   68.7040   64.7940 C   0  0  0  0  0  0  0  0  0  0  0  0
   -0.9540   68.6790   65.5510 C   0  0  0  0  0  0  0  0  0  0  0  0
    1.6130   68.6240   65.1710 C   0  0  0  0  0  0  0  0  0  0  0  0
    3.6210   69.0010   59.9400 O   0  0  0  0  0  0  0  0  0  0  0  0
    1.0860   66.4600   70.0960 C   0  0  0  0  0  0  0  0  0  0  0  0
    1.2730   65.0520   70.5930 C   0  0  0  0  0  0  0  0  0  0  0  0
    0.2950   64.4470   71.3990 C   0  0  0  0  0  0  0  0  0  0  0  0
    0.4840   63.1530   71.8850 C   0  0  0  0  0  0  0  0  0  0  0  0
    1.6460   62.4520   71.5730 C   0  0  0  0  0  0  0  0  0  0  0  0
    2.6200   63.0400   70.7700 C   0  0  0  0  0  0  0  0  0  0  0  0
    2.4370   64.3340   70.2800 C   0  0  0  0  0  0  0  0  0  0  0  0
   -1.6685   69.3250   67.4636 H   0  0  0  0  0  0  0  0  0  0  0  0
    0.9509   69.4774   67.0178 H   0  0  0  0  0  0  0  0  0  0  0  0
    0.2549   69.2111   68.6700 H   0  0  0  0  0  0  0  0  0  0  0  0
    1.2748   67.0272   66.8032 H   0  0  0  0  0  0  0  0  0  0  0  0
    2.1613   67.7119   68.2174 H   0  0  0  0  0  0  0  0  0  0  0  0
    0.5756   65.6039   68.2806 H   0  0  0  0  0  0  0  0  0  0  0  0
   -1.5303   65.7606   69.0537 H   0  0  0  0  0  0  0  0  0  0  0  0
   -1.2931   67.4745   69.5439 H   0  0  0  0  0  0  0  0  0  0  0  0
   -1.2783   66.4415   66.6681 H   0  0  0  0  0  0  0  0  0  0  0  0
   -2.6682   67.2581   67.4926 H   0  0  0  0  0  0  0  0  0  0  0  0
    5.2078   68.7750   62.0657 H   0  0  0  0  0  0  0  0  0  0  0  0
    4.4062   68.5988   64.4381 H   0  0  0  0  0  0  0  0  0  0  0  0
    1.1126   69.0194   60.6492 H   0  0  0  0  0  0  0  0  0  0  0  0
   -1.9175   68.7587   65.0263 H   0  0  0  0  0  0  0  0  0  0  0  0
    1.8957   69.4607   65.8267 H   0  0  0  0  0  0  0  0  0  0  0  0
    1.8608   67.7091   65.7291 H   0  0  0  0  0  0  0  0  0  0  0  0
    2.9554   69.0822   59.2116 H   0  0  0  0  0  0  0  0  0  0  0  0
    2.0704   66.9487   70.0506 H   0  0  0  0  0  0  0  0  0  0  0  0
    0.4058   66.9669   70.7963 H   0  0  0  0  0  0  0  0  0  0  0  0
   -0.6249   64.9962   71.6484 H   0  0  0  0  0  0  0  0  0  0  0  0
   -0.2864   62.6856   72.5159 H   0  0  0  0  0  0  0  0  0  0  0  0
    1.7946   61.4335   71.9609 H   0  0  0  0  0  0  0  0  0  0  0  0
    3.5356   62.4834   70.5213 H   0  0  0  0  0  0  0  0  0  0  0  0
    3.2092   64.7932   69.6453 H   0  0  0  0  0  0  0  0  0  0  0  0
  2  1  1  0
  3  2  1  0
  4  3  1  0
  5  4  1  0
  6  5  1  0
  6  1  1  0
  8  7  2  0
  9  8  1  0
 10  9  2  0
 11 10  1  0
 12 11  2  0
 12  7  1  0
 13 11  1  0
 14 13  2  0
 15 13  1  0
 16 15  2  0
 16  1  1  0
 17 15  1  0
 17 10  1  0
 18  7  1  0
 19  4  1  0
 20 19  1  0
 21 20  2  0
 22 21  1  0
 23 22  2  0
 24 23  1  0
 25 24  2  0
 25 20  1  0
  1 26  1  0
  2 27  1  0
  2 28  1  0
  3 29  1  0
  3 30  1  0
  4 31  1  0
  5 32  1  0
  5 33  1  0
  6 34  1  0
  6 35  1  0
  8 36  1  0
  9 37  1  0
 12 38  1  0
 16 39  1  0
 17 40  1  0
 17 41  1  0
 18 42  1  0
 19 43  1  0
 19 44  1  0
 21 45  1  0
 22 46  1  0
 23 47  1  0
 24 48  1  0
 25 49  1  0
M  CHG  1   4   1
M  END
>  <score>  (1) 
-11.755

$$$$
=
     RDKit          3D

 49 52  0  0  0  0  0  0  0  0999 V2000
   -0.4710   68.3800   67.0390 C   0  0  0  0  0  0  0  0  0  0  0  0
    0.7110   68.3510   68.0230 C   0  0  0  0  0  0  0  0  0  0  0  0
    1.1170   66.9270   68.3710 C   0  0  0  0  0  0  0  0  0  0  0  0
   -0.0260   66.1990   69.0490 N   0  0  0  0  0  4  0  0  0  0  0  0
   -1.4080   66.7060   68.6820 C   0  0  0  0  0  0  0  0  0  0  0  0
   -1.4150   67.1810   67.2390 C   0  0  0  0  0  0  0  0  0  0  0  0
    5.1930   69.2740   62.7040 C   0  0  0  0  0  0  0  0  0  0  0  0
    5.7430   69.4600   63.9820 C   0  0  0  0  0  0  0  0  0  0  0  0
    4.9360   69.3610   65.1220 C   0  0  0  0  0  0  0  0  0  0  0  0
    3.5890   69.0790   64.9520 C   0  0  0  0  0  0  0  0  0  0  0  0
    3.0700   68.9000   63.6670 C   0  0  0  0  0  0  0  0  0  0  0  0
    3.8440   68.9910   62.5280 C   0  0  0  0  0  0  0  0  0  0  0  0
    1.6370   68.6130   63.7600 C   0  0  0  0  0  0  0  0  0  0  0  0
    0.8720   68.4000   62.8410 O   0  0  0  0  0  0  0  0  0  0  0  0
    1.2830   68.6290   65.2160 C   0  0  0  0  0  0  0  0  0  0  0  0
    0.0220   68.4000   65.6140 C   0  0  0  0  0  0  0  0  0  0  0  0
    2.5340   68.9240   66.0060 C   0  0  0  0  0  0  0  0  0  0  0  0
    5.9670   69.3670   61.5850 O   0  0  0  0  0  0  0  0  0  0  0  0
    0.1700   66.0840   70.5500 C   0  0  0  0  0  0  0  0  0  0  0  0
    0.8450   64.8040   70.9600 C   0  0  0  0  0  0  0  0  0  0  0  0
    2.1860   64.5650   70.6180 C   0  0  0  0  0  0  0  0  0  0  0  0
    2.8010   63.3640   70.9710 C   0  0  0  0  0  0  0  0  0  0  0  0
    2.0880   62.3920   71.6680 C   0  0  0  0  0  0  0  0  0  0  0  0
    0.7590   62.6190   72.0180 C   0  0  0  0  0  0  0  0  0  0  0  0
    0.1390   63.8190   71.6670 C   0  0  0  0  0  0  0  0  0  0  0  0
   -1.0366   69.3008   67.2447 H   0  0  0  0  0  0  0  0  0  0  0  0
    1.5691   68.8647   67.5650 H   0  0  0  0  0  0  0  0  0  0  0  0
    0.3990   68.8553   68.9495 H   0  0  0  0  0  0  0  0  0  0  0  0
    1.3899   66.3929   67.4489 H   0  0  0  0  0  0  0  0  0  0  0  0
    1.9750   66.9600   69.0586 H   0  0  0  0  0  0  0  0  0  0  0  0
    0.0095   65.2450   68.6624 H   0  0  0  0  0  0  0  0  0  0  0  0
   -2.1392   65.8931   68.8025 H   0  0  0  0  0  0  0  0  0  0  0  0
   -1.6745   67.5447   69.3419 H   0  0  0  0  0  0  0  0  0  0  0  0
   -1.0886   66.3559   66.5888 H   0  0  0  0  0  0  0  0  0  0  0  0
   -2.4369   67.4979   66.9833 H   0  0  0  0  0  0  0  0  0  0  0  0
    6.8145   69.6849   64.0886 H   0  0  0  0  0  0  0  0  0  0  0  0
    5.3599   69.5033   66.1270 H   0  0  0  0  0  0  0  0  0  0  0  0
    3.4127   68.8461   61.5265 H   0  0  0  0  0  0  0  0  0  0  0  0
   -0.7220   68.2089   64.8267 H   0  0  0  0  0  0  0  0  0  0  0  0
    2.4214   69.8505   66.5881 H   0  0  0  0  0  0  0  0  0  0  0  0
    2.7729   68.1376   66.7371 H   0  0  0  0  0  0  0  0  0  0  0  0
    5.5630   69.2330   60.6912 H   0  0  0  0  0  0  0  0  0  0  0  0
    0.7872   66.9293   70.8883 H   0  0  0  0  0  0  0  0  0  0  0  0
   -0.8279   66.0917   71.0129 H   0  0  0  0  0  0  0  0  0  0  0  0
    2.7547   65.3296   70.0684 H   0  0  0  0  0  0  0  0  0  0  0  0
    3.8514   63.1843   70.6983 H   0  0  0  0  0  0  0  0  0  0  0  0
    2.5745   61.4444   71.9424 H   0  0  0  0  0  0  0  0  0  0  0  0
    0.1977   61.8518   72.5715 H   0  0  0  0  0  0  0  0  0  0  0  0
   -0.9104   63.9938   71.9466 H   0  0  0  0  0  0  0  0  0  0  0  0
  2  1  1  0
  3  2  1  0
  4  3  1  0
  5  4  1  0
  6  5  1  0
  6  1  1  0
  8  7  2  0
  9  8  1  0
 10  9  2  0
 11 10  1  0
 12 11  2  0
 12  7  1  0
 13 11  1  0
 14 13  2  0
 15 13  1  0
 16 15  2  0
 16  1  1  0
 17 15  1  0
 17 10  1  0
 18  7  1  0
 19  4  1  0
 20 19  1  0
 21 20  2  0
 22 21  1  0
 23 22  2  0
 24 23  1  0
 25 24  2  0
 25 20  1  0
  1 26  1  0
  2 27  1  0
  2 28  1  0
  3 29  1  0
  3 30  1  0
  4 31  1  0
  5 32  1  0
  5 33  1  0
  6 34  1  0
  6 35  1  0
  8 36  1  0
  9 37  1  0
 12 38  1  0
 16 39  1  0
 17 40  1  0
 17 41  1  0
 18 42  1  0
 19 43  1  0
 19 44  1  0
 21 45  1  0
 22 46  1  0
 23 47  1  0
 24 48  1  0
 25 49  1  0
M  CHG  1   4   1
M  END
>  <score>  (2) 
-11.392

$$$$
=
     RDKit          3D

 49 52  0  0  0  0  0  0  0  0999 V2000
    0.1000   66.7800   69.7470 C   0  0  0  0  0  0  0  0  0  0  0  0
   -0.4220   66.8230   68.3000 C   0  0  0  0  0  0  0  0  0  0  0  0
    0.6980   66.6210   67.2920 C   0  0  0  0  0  0  0  0  0  0  0  0
    1.7270   67.7290   67.4120 N   0  0  0  0  0  4  0  0  0  0  0  0
    1.8190   68.3640   68.7860 C   0  0  0  0  0  0  0  0  0  0  0  0
    1.5370   67.3200   69.8540 C   0  0  0  0  0  0  0  0  0  0  0  0
    3.8910   60.9600   71.5960 C   0  0  0  0  0  0  0  0  0  0  0  0
    4.8800   61.8500   71.1480 C   0  0  0  0  0  0  0  0  0  0  0  0
    4.5300   63.1270   70.6930 C   0  0  0  0  0  0  0  0  0  0  0  0
    3.1900   63.4830   70.6970 C   0  0  0  0  0  0  0  0  0  0  0  0
    2.2280   62.5750   71.1480 C   0  0  0  0  0  0  0  0  0  0  0  0
    2.5470   61.3120   71.6020 C   0  0  0  0  0  0  0  0  0  0  0  0
    0.9020   63.1900   71.0520 C   0  0  0  0  0  0  0  0  0  0  0  0
   -0.1600   62.6880   71.3640 O   0  0  0  0  0  0  0  0  0  0  0  0
    1.0980   64.5670   70.4970 C   0  0  0  0  0  0  0  0  0  0  0  0
    0.0480   65.3760   70.2910 C   0  0  0  0  0  0  0  0  0  0  0  0
    2.5740   64.7790   70.2630 C   0  0  0  0  0  0  0  0  0  0  0  0
    4.2170   59.7130   72.0430 O   0  0  0  0  0  0  0  0  0  0  0  0
    1.5990   68.7590   66.3040 C   0  0  0  0  0  0  0  0  0  0  0  0
    2.8910   69.0000   65.5710 C   0  0  0  0  0  0  0  0  0  0  0  0
    4.0170   69.4860   66.2550 C   0  0  0  0  0  0  0  0  0  0  0  0
    5.2040   69.7400   65.5690 C   0  0  0  0  0  0  0  0  0  0  0  0
    5.2810   69.5120   64.1970 C   0  0  0  0  0  0  0  0  0  0  0  0
    4.1720   69.0250   63.5090 C   0  0  0  0  0  0  0  0  0  0  0  0
    2.9820   68.7690   64.1910 C   0  0  0  0  0  0  0  0  0  0  0  0
   -0.5570   67.4287   70.3449 H   0  0  0  0  0  0  0  0  0  0  0  0
   -1.1693   66.0269   68.1668 H   0  0  0  0  0  0  0  0  0  0  0  0
   -0.8662   67.8140   68.1250 H   0  0  0  0  0  0  0  0  0  0  0  0
    1.1848   65.6529   67.4810 H   0  0  0  0  0  0  0  0  0  0  0  0
    0.2718   66.6396   66.2781 H   0  0  0  0  0  0  0  0  0  0  0  0
    2.6331   67.2556   67.2866 H   0  0  0  0  0  0  0  0  0  0  0  0
    2.8295   68.7730   68.9326 H   0  0  0  0  0  0  0  0  0  0  0  0
    1.0776   69.1730   68.8633 H   0  0  0  0  0  0  0  0  0  0  0  0
    2.2428   66.4850   69.7332 H   0  0  0  0  0  0  0  0  0  0  0  0
    1.6562   67.7930   70.8399 H   0  0  0  0  0  0  0  0  0  0  0  0
    5.9361   61.5423   71.1545 H   0  0  0  0  0  0  0  0  0  0  0  0
    5.2990   63.8304   70.3411 H   0  0  0  0  0  0  0  0  0  0  0  0
    1.7720   60.6148   71.9530 H   0  0  0  0  0  0  0  0  0  0  0  0
   -0.9453   64.9764   70.5432 H   0  0  0  0  0  0  0  0  0  0  0  0
    2.7789   64.9747   69.2001 H   0  0  0  0  0  0  0  0  0  0  0  0
    2.9730   65.6460   70.8099 H   0  0  0  0  0  0  0  0  0  0  0  0
    3.5070   59.0979   72.3554 H   0  0  0  0  0  0  0  0  0  0  0  0
    0.8476   68.4057   65.5825 H   0  0  0  0  0  0  0  0  0  0  0  0
    1.3047   69.7099   66.7721 H   0  0  0  0  0  0  0  0  0  0  0  0
    3.9622   69.6674   67.3386 H   0  0  0  0  0  0  0  0  0  0  0  0
    6.0813   70.1211   66.1123 H   0  0  0  0  0  0  0  0  0  0  0  0
    6.2173   69.7165   63.6570 H   0  0  0  0  0  0  0  0  0  0  0  0
    4.2345   68.8419   62.4261 H   0  0  0  0  0  0  0  0  0  0  0  0
    2.1098   68.3836   63.6426 H   0  0  0  0  0  0  0  0  0  0  0  0
  2  1  1  0
  3  2  1  0
  4  3  1  0
  5  4  1  0
  6  5  1  0
  6  1  1  0
  8  7  2  0
  9  8  1  0
 10  9  2  0
 11 10  1  0
 12 11  2  0
 12  7  1  0
 13 11  1  0
 14 13  2  0
 15 13  1  0
 16 15  2  0
 16  1  1  0
 17 15  1  0
 17 10  1  0
 18  7  1  0
 19  4  1  0
 20 19  1  0
 21 20  2  0
 22 21  1  0
 23 22  2  0
 24 23  1  0
 25 24  2  0
 25 20  1  0
  1 26  1  0
  2 27  1  0
  2 28  1  0
  3 29  1  0
  3 30  1  0
  4 31  1  0
  5 32  1  0
  5 33  1  0
  6 34  1  0
  6 35  1  0
  8 36  1  0
  9 37  1  0
 12 38  1  0
 16 39  1  0
 17 40  1  0
 17 41  1  0
 18 42  1  0
 19 43  1  0
 19 44  1  0
 21 45  1  0
 22 46  1  0
 23 47  1  0
 24 48  1  0
 25 49  1  0
M  CHG  1   4   1
M  END
>  <score>  (3) 
-10.574

$$$$
=
     RDKit          3D

 49 52  0  0  0  0  0  0  0  0999 V2000
    0.1910   65.8420   69.1520 C   0  0  0  0  0  0  0  0  0  0  0  0
    1.5840   66.4520   68.9170 C   0  0  0  0  0  0  0  0  0  0  0  0
    1.5820   67.9570   69.1350 C   0  0  0  0  0  0  0  0  0  0  0  0
    0.6450   68.6340   68.1550 N   0  0  0  0  0  4  0  0  0  0  0  0
   -0.5000   67.7660   67.6680 C   0  0  0  0  0  0  0  0  0  0  0  0
   -0.9350   66.8200   68.7750 C   0  0  0  0  0  0  0  0  0  0  0  0
    2.5080   61.4820   74.3760 C   0  0  0  0  0  0  0  0  0  0  0  0
    3.3190   61.1260   73.2870 C   0  0  0  0  0  0  0  0  0  0  0  0
    3.1690   61.7690   72.0520 C   0  0  0  0  0  0  0  0  0  0  0  0
    2.2050   62.7580   71.9380 C   0  0  0  0  0  0  0  0  0  0  0  0
    1.4120   63.0910   73.0400 C   0  0  0  0  0  0  0  0  0  0  0  0
    1.5400   62.4720   74.2670 C   0  0  0  0  0  0  0  0  0  0  0  0
    0.4800   64.1560   72.6610 C   0  0  0  0  0  0  0  0  0  0  0  0
   -0.3490   64.6890   73.3710 O   0  0  0  0  0  0  0  0  0  0  0  0
    0.7430   64.4730   71.2210 C   0  0  0  0  0  0  0  0  0  0  0  0
    0.0300   65.4180   70.5890 C   0  0  0  0  0  0  0  0  0  0  0  0
    1.8590   63.5820   70.7330 C   0  0  0  0  0  0  0  0  0  0  0  0
    2.6420   60.8640   75.5850 O   0  0  0  0  0  0  0  0  0  0  0  0
    1.3870   69.3090   67.0150 C   0  0  0  0  0  0  0  0  0  0  0  0
    2.7990   69.6870   67.3730 C   0  0  0  0  0  0  0  0  0  0  0  0
    3.0760   70.3290   68.5910 C   0  0  0  0  0  0  0  0  0  0  0  0
    4.3810   70.7080   68.9070 C   0  0  0  0  0  0  0  0  0  0  0  0
    5.4190   70.4520   68.0140 C   0  0  0  0  0  0  0  0  0  0  0  0
    5.1570   69.8120   66.8060 C   0  0  0  0  0  0  0  0  0  0  0  0
    3.8530   69.4290   66.4850 C   0  0  0  0  0  0  0  0  0  0  0  0
    0.1129   64.9601   68.4991 H   0  0  0  0  0  0  0  0  0  0  0  0
    2.2976   65.9913   69.6159 H   0  0  0  0  0  0  0  0  0  0  0  0
    1.8728   66.2566   67.8737 H   0  0  0  0  0  0  0  0  0  0  0  0
    1.2507   68.1737   70.1613 H   0  0  0  0  0  0  0  0  0  0  0  0
    2.6006   68.3408   68.9764 H   0  0  0  0  0  0  0  0  0  0  0  0
    0.1896   69.3766   68.7046 H   0  0  0  0  0  0  0  0  0  0  0  0
   -1.3471   68.4062   67.3807 H   0  0  0  0  0  0  0  0  0  0  0  0
   -0.1674   67.1797   66.7987 H   0  0  0  0  0  0  0  0  0  0  0  0
   -1.2091   67.4094   69.6624 H   0  0  0  0  0  0  0  0  0  0  0  0
   -1.7943   66.2360   68.4137 H   0  0  0  0  0  0  0  0  0  0  0  0
    4.0768   60.3373   73.4044 H   0  0  0  0  0  0  0  0  0  0  0  0
    3.8006   61.4958   71.1938 H   0  0  0  0  0  0  0  0  0  0  0  0
    0.9039   62.7503   75.1202 H   0  0  0  0  0  0  0  0  0  0  0  0
   -0.7457   65.9319   71.1757 H   0  0  0  0  0  0  0  0  0  0  0  0
    1.5180   62.9431   69.9050 H   0  0  0  0  0  0  0  0  0  0  0  0
    2.7172   64.1476   70.3412 H   0  0  0  0  0  0  0  0  0  0  0  0
    2.0617   61.1274   76.3426 H   0  0  0  0  0  0  0  0  0  0  0  0
    1.4154   68.6193   66.1585 H   0  0  0  0  0  0  0  0  0  0  0  0
    0.8485   70.2382   66.7771 H   0  0  0  0  0  0  0  0  0  0  0  0
    2.2599   70.5341   69.2995 H   0  0  0  0  0  0  0  0  0  0  0  0
    4.5906   71.2099   69.8631 H   0  0  0  0  0  0  0  0  0  0  0  0
    6.4463   70.7558   68.2636 H   0  0  0  0  0  0  0  0  0  0  0  0
    5.9782   69.6076   66.1033 H   0  0  0  0  0  0  0  0  0  0  0  0
    3.6515   68.9219   65.5299 H   0  0  0  0  0  0  0  0  0  0  0  0
  2  1  1  0
  3  2  1  0
  4  3  1  0
  5  4  1  0
  6  5  1  0
  6  1  1  0
  8  7  2  0
  9  8  1  0
 10  9  2  0
 11 10  1  0
 12 11  2  0
 12  7  1  0
 13 11  1  0
 14 13  2  0
 15 13  1  0
 16 15  2  0
 16  1  1  0
 17 15  1  0
 17 10  1  0
 18  7  1  0
 19  4  1  0
 20 19  1  0
 21 20  2  0
 22 21  1  0
 23 22  2  0
 24 23  1  0
 25 24  2  0
 25 20  1  0
  1 26  1  0
  2 27  1  0
  2 28  1  0
  3 29  1  0
  3 30  1  0
  4 31  1  0
  5 32  1  0
  5 33  1  0
  6 34  1  0
  6 35  1  0
  8 36  1  0
  9 37  1  0
 12 38  1  0
 16 39  1  0
 17 40  1  0
 17 41  1  0
 18 42  1  0
 19 43  1  0
 19 44  1  0
 21 45  1  0
 22 46  1  0
 23 47  1  0
 24 48  1  0
 25 49  1  0
M  CHG  1   4   1
M  END
>  <score>  (4) 
-10.544

$$$$
=
     RDKit          3D

 49 52  0  0  0  0  0  0  0  0999 V2000
    0.5500   66.0250   70.6430 C   0  0  0  0  0  0  0  0  0  0  0  0
    1.3910   64.8080   70.2220 C   0  0  0  0  0  0  0  0  0  0  0  0
    0.6960   63.5000   70.5630 C   0  0  0  0  0  0  0  0  0  0  0  0
    0.4880   63.3830   72.0600 N   0  0  0  0  0  4  0  0  0  0  0  0
    0.3820   64.7080   72.7910 C   0  0  0  0  0  0  0  0  0  0  0  0
   -0.2910   65.7360   71.8980 C   0  0  0  0  0  0  0  0  0  0  0  0
    0.1690   68.9830   64.1020 C   0  0  0  0  0  0  0  0  0  0  0  0
    1.5470   68.9850   64.3680 C   0  0  0  0  0  0  0  0  0  0  0  0
    2.0360   68.4740   65.5770 C   0  0  0  0  0  0  0  0  0  0  0  0
    1.1270   67.9730   66.4950 C   0  0  0  0  0  0  0  0  0  0  0  0
   -0.2400   67.9850   66.2030 C   0  0  0  0  0  0  0  0  0  0  0  0
   -0.7470   68.4820   65.0190 C   0  0  0  0  0  0  0  0  0  0  0  0
   -0.9800   67.4030   67.3250 C   0  0  0  0  0  0  0  0  0  0  0  0
   -2.1820   67.2520   67.4080 O   0  0  0  0  0  0  0  0  0  0  0  0
    0.0320   67.0220   68.3630 C   0  0  0  0  0  0  0  0  0  0  0  0
   -0.3550   66.4620   69.5190 C   0  0  0  0  0  0  0  0  0  0  0  0
    1.4030   67.3780   67.8440 C   0  0  0  0  0  0  0  0  0  0  0  0
   -0.3230   69.4770   62.9290 O   0  0  0  0  0  0  0  0  0  0  0  0
    1.4830   62.4390   72.7100 C   0  0  0  0  0  0  0  0  0  0  0  0
    2.5200   61.9210   71.7510 C   0  0  0  0  0  0  0  0  0  0  0  0
    2.3350   60.6920   71.0980 C   0  0  0  0  0  0  0  0  0  0  0  0
    3.3120   60.1980   70.2340 C   0  0  0  0  0  0  0  0  0  0  0  0
    4.4800   60.9240   70.0110 C   0  0  0  0  0  0  0  0  0  0  0  0
    4.6720   62.1480   70.6490 C   0  0  0  0  0  0  0  0  0  0  0  0
    3.6970   62.6460   71.5140 C   0  0  0  0  0  0  0  0  0  0  0  0
    1.2551   66.8348   70.8818 H   0  0  0  0  0  0  0  0  0  0  0  0
    1.5596   64.8496   69.1358 H   0  0  0  0  0  0  0  0  0  0  0  0
    2.3440   64.8433   70.7702 H   0  0  0  0  0  0  0  0  0  0  0  0
   -0.2808   63.4670   70.0583 H   0  0  0  0  0  0  0  0  0  0  0  0
    1.3262   62.6641   70.2253 H   0  0  0  0  0  0  0  0  0  0  0  0
   -0.4452   62.9587   72.1599 H   0  0  0  0  0  0  0  0  0  0  0  0
   -0.2134   64.5736   73.7061 H   0  0  0  0  0  0  0  0  0  0  0  0
    1.3907   65.0597   73.0534 H   0  0  0  0  0  0  0  0  0  0  0  0
   -1.2747   65.3527   71.5892 H   0  0  0  0  0  0  0  0  0  0  0  0
   -0.3978   66.6717   72.4664 H   0  0  0  0  0  0  0  0  0  0  0  0
    2.2472   69.3903   63.6226 H   0  0  0  0  0  0  0  0  0  0  0  0
    3.1147   68.4705   65.7923 H   0  0  0  0  0  0  0  0  0  0  0  0
   -1.8271   68.4814   64.8109 H   0  0  0  0  0  0  0  0  0  0  0  0
   -1.4348   66.3070   69.6602 H   0  0  0  0  0  0  0  0  0  0  0  0
    1.8944   68.1093   68.5026 H   0  0  0  0  0  0  0  0  0  0  0  0
    2.0804   66.5125   67.7985 H   0  0  0  0  0  0  0  0  0  0  0  0
   -1.2981   69.4676   62.7582 H   0  0  0  0  0  0  0  0  0  0  0  0
    1.9948   62.9755   73.5226 H   0  0  0  0  0  0  0  0  0  0  0  0
    0.9173   61.5715   73.0807 H   0  0  0  0  0  0  0  0  0  0  0  0
    1.4140   60.1153   71.2688 H   0  0  0  0  0  0  0  0  0  0  0  0
    3.1601   59.2334   69.7277 H   0  0  0  0  0  0  0  0  0  0  0  0
    5.2506   60.5311   69.3314 H   0  0  0  0  0  0  0  0  0  0  0  0
    5.5931   62.7221   70.4705 H   0  0  0  0  0  0  0  0  0  0  0  0
    3.8525   63.6137   72.0134 H   0  0  0  0  0  0  0  0  0  0  0  0
  2  1  1  0
  3  2  1  0
  4  3  1  0
  5  4  1  0
  6  5  1  0
  6  1  1  0
  8  7  2  0
  9  8  1  0
 10  9  2  0
 11 10  1  0
 12 11  2  0
 12  7  1  0
 13 11  1  0
 14 13  2  0
 15 13  1  0
 16 15  2  0
 16  1  1  0
 17 15  1  0
 17 10  1  0
 18  7  1  0
 19  4  1  0
 20 19  1  0
 21 20  2  0
 22 21  1  0
 23 22  2  0
 24 23  1  0
 25 24  2  0
 25 20  1  0
  1 26  1  0
  2 27  1  0
  2 28  1  0
  3 29  1  0
  3 30  1  0
  4 31  1  0
  5 32  1  0
  5 33  1  0
  6 34  1  0
  6 35  1  0
  8 36  1  0
  9 37  1  0
 12 38  1  0
 16 39  1  0
 17 40  1  0
 17 41  1  0
 18 42  1  0
 19 43  1  0
 19 44  1  0
 21 45  1  0
 22 46  1  0
 23 47  1  0
 24 48  1  0
 25 49  1  0
M  CHG  1   4   1
M  END
>  <score>  (5) 
-10.432

$$$$
=
     RDKit          3D

 49 52  0  0  0  0  0  0  0  0999 V2000
    2.3930   62.9270   71.8220 C   0  0  0  0  0  0  0  0  0  0  0  0
    0.8890   63.2140   71.9730 C   0  0  0  0  0  0  0  0  0  0  0  0
    0.2320   63.4940   70.6310 C   0  0  0  0  0  0  0  0  0  0  0  0
    0.8420   64.7240   69.9870 N   0  0  0  0  0  4  0  0  0  0  0  0
    2.2740   65.0100   70.3970 C   0  0  0  0  0  0  0  0  0  0  0  0
    3.0090   63.7040   70.6450 C   0  0  0  0  0  0  0  0  0  0  0  0
    0.5000   56.2760   73.7830 C   0  0  0  0  0  0  0  0  0  0  0  0
   -0.3460   57.0840   74.5570 C   0  0  0  0  0  0  0  0  0  0  0  0
   -0.2810   58.4800   74.4560 C   0  0  0  0  0  0  0  0  0  0  0  0
    0.6370   59.0340   73.5770 C   0  0  0  0  0  0  0  0  0  0  0  0
    1.4680   58.2030   72.8200 C   0  0  0  0  0  0  0  0  0  0  0  0
    1.4220   56.8260   72.9010 C   0  0  0  0  0  0  0  0  0  0  0  0
    2.3370   59.0270   71.9770 C   0  0  0  0  0  0  0  0  0  0  0  0
    3.1770   58.6360   71.1910 O   0  0  0  0  0  0  0  0  0  0  0  0
    1.9940   60.4570   72.2640 C   0  0  0  0  0  0  0  0  0  0  0  0
    2.6390   61.4520   71.6350 C   0  0  0  0  0  0  0  0  0  0  0  0
    0.8930   60.4840   73.2940 C   0  0  0  0  0  0  0  0  0  0  0  0
    0.4480   54.9160   73.8710 O   0  0  0  0  0  0  0  0  0  0  0  0
   -0.0520   65.9440   70.1090 C   0  0  0  0  0  0  0  0  0  0  0  0
   -0.1010   66.7670   68.8510 C   0  0  0  0  0  0  0  0  0  0  0  0
    0.9910   67.5680   68.4810 C   0  0  0  0  0  0  0  0  0  0  0  0
    0.9320   68.3550   67.3310 C   0  0  0  0  0  0  0  0  0  0  0  0
   -0.2140   68.3520   66.5400 C   0  0  0  0  0  0  0  0  0  0  0  0
   -1.3030   67.5580   66.8940 C   0  0  0  0  0  0  0  0  0  0  0  0
   -1.2480   66.7670   68.0430 C   0  0  0  0  0  0  0  0  0  0  0  0
    2.8787   63.2641   72.7496 H   0  0  0  0  0  0  0  0  0  0  0  0
    0.4037   62.3400   72.4319 H   0  0  0  0  0  0  0  0  0  0  0  0
    0.7723   64.1070   72.6047 H   0  0  0  0  0  0  0  0  0  0  0  0
    0.3787   62.6282   69.9685 H   0  0  0  0  0  0  0  0  0  0  0  0
   -0.8417   63.6717   70.7909 H   0  0  0  0  0  0  0  0  0  0  0  0
    0.9030   64.4897   68.9859 H   0  0  0  0  0  0  0  0  0  0  0  0
    2.7794   65.5667   69.5941 H   0  0  0  0  0  0  0  0  0  0  0  0
    2.2748   65.6081   71.3202 H   0  0  0  0  0  0  0  0  0  0  0  0
    2.9525   63.0839   69.7382 H   0  0  0  0  0  0  0  0  0  0  0  0
    4.0547   63.9374   70.8941 H   0  0  0  0  0  0  0  0  0  0  0  0
   -1.0649   56.6188   75.2475 H   0  0  0  0  0  0  0  0  0  0  0  0
   -0.9417   59.1203   75.0589 H   0  0  0  0  0  0  0  0  0  0  0  0
    2.0856   56.1923   72.2944 H   0  0  0  0  0  0  0  0  0  0  0  0
    3.4200   61.1639   70.9160 H   0  0  0  0  0  0  0  0  0  0  0  0
    1.2192   61.0097   74.2035 H   0  0  0  0  0  0  0  0  0  0  0  0
   -0.0046   61.0157   72.9453 H   0  0  0  0  0  0  0  0  0  0  0  0
    1.0524   54.3607   73.3174 H   0  0  0  0  0  0  0  0  0  0  0  0
   -1.0719   65.6083   70.3478 H   0  0  0  0  0  0  0  0  0  0  0  0
    0.3679   66.5807   70.9017 H   0  0  0  0  0  0  0  0  0  0  0  0
    1.8989   67.5750   69.1020 H   0  0  0  0  0  0  0  0  0  0  0  0
    1.7925   68.9793   67.0483 H   0  0  0  0  0  0  0  0  0  0  0  0
   -0.2596   68.9765   65.6356 H   0  0  0  0  0  0  0  0  0  0  0  0
   -2.2071   67.5545   66.2674 H   0  0  0  0  0  0  0  0  0  0  0  0
   -2.1093   66.1398   68.3166 H   0  0  0  0  0  0  0  0  0  0  0  0
  2  1  1  0
  3  2  1  0
  4  3  1  0
  5  4  1  0
  6  5  1  0
  6  1  1  0
  8  7  2  0
  9  8  1  0
 10  9  2  0
 11 10  1  0
 12 11  2  0
 12  7  1  0
 13 11  1  0
 14 13  2  0
 15 13  1  0
 16 15  2  0
 16  1  1  0
 17 15  1  0
 17 10  1  0
 18  7  1  0
 19  4  1  0
 20 19  1  0
 21 20  2  0
 22 21  1  0
 23 22  2  0
 24 23  1  0
 25 24  2  0
 25 20  1  0
  1 26  1  0
  2 27  1  0
  2 28  1  0
  3 29  1  0
  3 30  1  0
  4 31  1  0
  5 32  1  0
  5 33  1  0
  6 34  1  0
  6 35  1  0
  8 36  1  0
  9 37  1  0
 12 38  1  0
 16 39  1  0
 17 40  1  0
 17 41  1  0
 18 42  1  0
 19 43  1  0
 19 44  1  0
 21 45  1  0
 22 46  1  0
 23 47  1  0
 24 48  1  0
 25 49  1  0
M  CHG  1   4   1
M  END
>  <score>  (6) 
-10.3

$$$$
=
     RDKit          3D

 49 52  0  0  0  0  0  0  0  0999 V2000
    0.7990   65.5010   70.9120 C   0  0  0  0  0  0  0  0  0  0  0  0
    1.7390   64.4930   70.2290 C   0  0  0  0  0  0  0  0  0  0  0  0
    1.1760   63.0810   70.2730 C   0  0  0  0  0  0  0  0  0  0  0  0
    1.0160   62.6170   71.7070 N   0  0  0  0  0  4  0  0  0  0  0  0
    0.8060   63.7320   72.7150 C   0  0  0  0  0  0  0  0  0  0  0  0
    0.0190   64.8620   72.0740 C   0  0  0  0  0  0  0  0  0  0  0  0
    0.0420   68.9080   64.6280 C   0  0  0  0  0  0  0  0  0  0  0  0
    1.4340   68.7760   64.7480 C   0  0  0  0  0  0  0  0  0  0  0  0
    1.9920   68.1470   65.8670 C   0  0  0  0  0  0  0  0  0  0  0  0
    1.1370   67.6640   66.8460 C   0  0  0  0  0  0  0  0  0  0  0  0
   -0.2460   67.8110   66.6990 C   0  0  0  0  0  0  0  0  0  0  0  0
   -0.8200   68.4270   65.6050 C   0  0  0  0  0  0  0  0  0  0  0  0
   -0.9200   67.2210   67.8580 C   0  0  0  0  0  0  0  0  0  0  0  0
   -2.1170   67.1670   68.0570 O   0  0  0  0  0  0  0  0  0  0  0  0
    0.1500   66.6870   68.7600 C   0  0  0  0  0  0  0  0  0  0  0  0
   -0.1700   66.0860   69.9160 C   0  0  0  0  0  0  0  0  0  0  0  0
    1.4900   66.9600   68.1220 C   0  0  0  0  0  0  0  0  0  0  0  0
   -0.5160   69.5190   63.5430 O   0  0  0  0  0  0  0  0  0  0  0  0
    2.1090   61.6520   72.1290 C   0  0  0  0  0  0  0  0  0  0  0  0
    1.5780   60.3140   72.5670 C   0  0  0  0  0  0  0  0  0  0  0  0
    0.3260   60.2170   73.1960 C   0  0  0  0  0  0  0  0  0  0  0  0
   -0.1500   58.9810   73.6310 C   0  0  0  0  0  0  0  0  0  0  0  0
    0.6140   57.8320   73.4440 C   0  0  0  0  0  0  0  0  0  0  0  0
    1.8550   57.9150   72.8180 C   0  0  0  0  0  0  0  0  0  0  0  0
    2.3370   59.1490   72.3800 C   0  0  0  0  0  0  0  0  0  0  0  0
    1.4312   66.3023   71.3221 H   0  0  0  0  0  0  0  0  0  0  0  0
    1.8771   64.7893   69.1787 H   0  0  0  0  0  0  0  0  0  0  0  0
    2.6975   64.4973   70.7687 H   0  0  0  0  0  0  0  0  0  0  0  0
    0.1945   63.0671   69.7765 H   0  0  0  0  0  0  0  0  0  0  0  0
    1.8724   62.4044   69.7561 H   0  0  0  0  0  0  0  0  0  0  0  0
    0.1287   62.0940   71.7121 H   0  0  0  0  0  0  0  0  0  0  0  0
    0.2482   63.3428   73.5795 H   0  0  0  0  0  0  0  0  0  0  0  0
    1.7838   64.1119   73.0461 H   0  0  0  0  0  0  0  0  0  0  0  0
   -0.9317   64.4633   71.6904 H   0  0  0  0  0  0  0  0  0  0  0  0
   -0.1608   65.6344   72.8363 H   0  0  0  0  0  0  0  0  0  0  0  0
    2.0905   69.1692   63.9579 H   0  0  0  0  0  0  0  0  0  0  0  0
    3.0820   68.0385   65.9673 H   0  0  0  0  0  0  0  0  0  0  0  0
   -1.9109   68.5321   65.5113 H   0  0  0  0  0  0  0  0  0  0  0  0
   -1.2401   66.0132   70.1601 H   0  0  0  0  0  0  0  0  0  0  0  0
    2.1082   67.6021   68.7666 H   0  0  0  0  0  0  0  0  0  0  0  0
    2.0785   66.0455   67.9566 H   0  0  0  0  0  0  0  0  0  0  0  0
   -1.5000   69.6037   63.4742 H   0  0  0  0  0  0  0  0  0  0  0  0
    2.7877   61.4976   71.2772 H   0  0  0  0  0  0  0  0  0  0  0  0
    2.6256   62.0983   72.9915 H   0  0  0  0  0  0  0  0  0  0  0  0
   -0.2823   61.1211   73.3462 H   0  0  0  0  0  0  0  0  0  0  0  0
   -1.1314   58.9133   74.1231 H   0  0  0  0  0  0  0  0  0  0  0  0
    0.2371   56.8585   73.7909 H   0  0  0  0  0  0  0  0  0  0  0  0
    2.4564   57.0062   72.6685 H   0  0  0  0  0  0  0  0  0  0  0  0
    3.3177   59.2087   71.8853 H   0  0  0  0  0  0  0  0  0  0  0  0
  2  1  1  0
  3  2  1  0
  4  3  1  0
  5  4  1  0
  6  5  1  0
  6  1  1  0
  8  7  2  0
  9  8  1  0
 10  9  2  0
 11 10  1  0
 12 11  2  0
 12  7  1  0
 13 11  1  0
 14 13  2  0
 15 13  1  0
 16 15  2  0
 16  1  1  0
 17 15  1  0
 17 10  1  0
 18  7  1  0
 19  4  1  0
 20 19  1  0
 21 20  2  0
 22 21  1  0
 23 22  2  0
 24 23  1  0
 25 24  2  0
 25 20  1  0
  1 26  1  0
  2 27  1  0
  2 28  1  0
  3 29  1  0
  3 30  1  0
  4 31  1  0
  5 32  1  0
  5 33  1  0
  6 34  1  0
  6 35  1  0
  8 36  1  0
  9 37  1  0
 12 38  1  0
 16 39  1  0
 17 40  1  0
 17 41  1  0
 18 42  1  0
 19 43  1  0
 19 44  1  0
 21 45  1  0
 22 46  1  0
 23 47  1  0
 24 48  1  0
 25 49  1  0
M  CHG  1   4   1
M  END
>  <score>  (7) 
-10.253

$$$$
=
     RDKit          3D

 49 52  0  0  0  0  0  0  0  0999 V2000
    1.2990   62.5120   72.4200 C   0  0  0  0  0  0  0  0  0  0  0  0
    0.9390   63.9540   72.8190 C   0  0  0  0  0  0  0  0  0  0  0  0
    0.0750   64.6300   71.7660 C   0  0  0  0  0  0  0  0  0  0  0  0
    0.8180   64.7210   70.4480 N   0  0  0  0  0  4  0  0  0  0  0  0
    1.8700   63.6480   70.2370 C   0  0  0  0  0  0  0  0  0  0  0  0
    1.4220   62.3540   70.8940 C   0  0  0  0  0  0  0  0  0  0  0  0
   -0.1220   55.6660   74.0850 C   0  0  0  0  0  0  0  0  0  0  0  0
    1.2030   55.6080   73.6230 C   0  0  0  0  0  0  0  0  0  0  0  0
    1.8540   56.7710   73.1960 C   0  0  0  0  0  0  0  0  0  0  0  0
    1.1600   57.9700   73.2400 C   0  0  0  0  0  0  0  0  0  0  0  0
   -0.1590   57.9960   73.7040 C   0  0  0  0  0  0  0  0  0  0  0  0
   -0.8230   56.8640   74.1320 C   0  0  0  0  0  0  0  0  0  0  0  0
   -0.6630   59.3700   73.6530 C   0  0  0  0  0  0  0  0  0  0  0  0
   -1.7650   59.7570   73.9850 O   0  0  0  0  0  0  0  0  0  0  0  0
    0.4460   60.2210   73.1120 C   0  0  0  0  0  0  0  0  0  0  0  0
    0.2730   61.5410   72.9460 C   0  0  0  0  0  0  0  0  0  0  0  0
    1.6370   59.3350   72.8420 C   0  0  0  0  0  0  0  0  0  0  0  0
   -0.7700   54.5410   74.5050 O   0  0  0  0  0  0  0  0  0  0  0  0
    1.3510   66.1170   70.1800 C   0  0  0  0  0  0  0  0  0  0  0  0
    0.6230   66.8230   69.0680 C   0  0  0  0  0  0  0  0  0  0  0  0
   -0.6920   66.4600   68.7360 C   0  0  0  0  0  0  0  0  0  0  0  0
   -1.3540   67.0930   67.6840 C   0  0  0  0  0  0  0  0  0  0  0  0
   -0.7130   68.0920   66.9550 C   0  0  0  0  0  0  0  0  0  0  0  0
    0.5900   68.4630   67.2780 C   0  0  0  0  0  0  0  0  0  0  0  0
    1.2570   67.8340   68.3300 C   0  0  0  0  0  0  0  0  0  0  0  0
    2.2779   62.2889   72.8695 H   0  0  0  0  0  0  0  0  0  0  0  0
    0.3894   63.9336   73.7716 H   0  0  0  0  0  0  0  0  0  0  0  0
    1.8733   64.5266   72.9151 H   0  0  0  0  0  0  0  0  0  0  0  0
   -0.8455   64.0450   71.6230 H   0  0  0  0  0  0  0  0  0  0  0  0
   -0.1708   65.6466   72.1067 H   0  0  0  0  0  0  0  0  0  0  0  0
    0.1029   64.5244   69.7332 H   0  0  0  0  0  0  0  0  0  0  0  0
    2.0104   63.4809   69.1589 H   0  0  0  0  0  0  0  0  0  0  0  0
    2.8188   63.9752   70.6873 H   0  0  0  0  0  0  0  0  0  0  0  0
    0.4430   62.0648   70.4841 H   0  0  0  0  0  0  0  0  0  0  0  0
    2.1763   61.5809   70.6858 H   0  0  0  0  0  0  0  0  0  0  0  0
    1.7317   54.6438   73.5966 H   0  0  0  0  0  0  0  0  0  0  0  0
    2.8921   56.7344   72.8340 H   0  0  0  0  0  0  0  0  0  0  0  0
   -1.8608   56.9088   74.4940 H   0  0  0  0  0  0  0  0  0  0  0  0
   -0.7095   61.9533   73.2193 H   0  0  0  0  0  0  0  0  0  0  0  0
    1.9114   59.3599   71.7771 H   0  0  0  0  0  0  0  0  0  0  0  0
    2.5366   59.6499   73.3912 H   0  0  0  0  0  0  0  0  0  0  0  0
   -1.7041   54.5992   74.8278 H   0  0  0  0  0  0  0  0  0  0  0  0
    1.2493   66.7130   71.0989 H   0  0  0  0  0  0  0  0  0  0  0  0
    2.4015   66.0134   69.8707 H   0  0  0  0  0  0  0  0  0  0  0  0
   -1.2030   65.6720   69.3087 H   0  0  0  0  0  0  0  0  0  0  0  0
   -2.3841   66.8028   67.4296 H   0  0  0  0  0  0  0  0  0  0  0  0
   -1.2360   68.5880   66.1241 H   0  0  0  0  0  0  0  0  0  0  0  0
    1.0943   69.2534   66.7027 H   0  0  0  0  0  0  0  0  0  0  0  0
    2.2853   68.1324   68.5821 H   0  0  0  0  0  0  0  0  0  0  0  0
  2  1  1  0
  3  2  1  0
  4  3  1  0
  5  4  1  0
  6  5  1  0
  6  1  1  0
  8  7  2  0
  9  8  1  0
 10  9  2  0
 11 10  1  0
 12 11  2  0
 12  7  1  0
 13 11  1  0
 14 13  2  0
 15 13  1  0
 16 15  2  0
 16  1  1  0
 17 15  1  0
 17 10  1  0
 18  7  1  0
 19  4  1  0
 20 19  1  0
 21 20  2  0
 22 21  1  0
 23 22  2  0
 24 23  1  0
 25 24  2  0
 25 20  1  0
  1 26  1  0
  2 27  1  0
  2 28  1  0
  3 29  1  0
  3 30  1  0
  4 31  1  0
  5 32  1  0
  5 33  1  0
  6 34  1  0
  6 35  1  0
  8 36  1  0
  9 37  1  0
 12 38  1  0
 16 39  1  0
 17 40  1  0
 17 41  1  0
 18 42  1  0
 19 43  1  0
 19 44  1  0
 21 45  1  0
 22 46  1  0
 23 47  1  0
 24 48  1  0
 25 49  1  0
M  CHG  1   4   1
M  END
>  <score>  (8) 
-9.975

$$$$
=
     RDKit          3D

 49 52  0  0  0  0  0  0  0  0999 V2000
    0.8310   60.0180   73.1430 C   0  0  0  0  0  0  0  0  0  0  0  0
    1.8910   59.1780   72.4090 C   0  0  0  0  0  0  0  0  0  0  0  0
    3.1700   59.0510   73.2220 C   0  0  0  0  0  0  0  0  0  0  0  0
    3.7880   60.4160   73.4560 N   0  0  0  0  0  4  0  0  0  0  0  0
    2.8020   61.5680   73.4510 C   0  0  0  0  0  0  0  0  0  0  0  0
    1.4700   61.1080   74.0210 C   0  0  0  0  0  0  0  0  0  0  0  0
   -5.7110   59.0970   75.9760 C   0  0  0  0  0  0  0  0  0  0  0  0
   -5.8390   60.3070   75.2750 C   0  0  0  0  0  0  0  0  0  0  0  0
   -4.7510   60.8360   74.5700 C   0  0  0  0  0  0  0  0  0  0  0  0
   -3.5530   60.1370   74.5860 C   0  0  0  0  0  0  0  0  0  0  0  0
   -3.4560   58.9360   75.2940 C   0  0  0  0  0  0  0  0  0  0  0  0
   -4.5130   58.3930   75.9950 C   0  0  0  0  0  0  0  0  0  0  0  0
   -2.1000   58.4000   75.1520 C   0  0  0  0  0  0  0  0  0  0  0  0
   -1.6670   57.3710   75.6290 O   0  0  0  0  0  0  0  0  0  0  0  0
   -1.3380   59.3650   74.2960 C   0  0  0  0  0  0  0  0  0  0  0  0
   -0.0500   59.1390   73.9940 C   0  0  0  0  0  0  0  0  0  0  0  0
   -2.2610   60.4960   73.9150 C   0  0  0  0  0  0  0  0  0  0  0  0
   -6.7620   58.5690   76.6660 O   0  0  0  0  0  0  0  0  0  0  0  0
    4.9830   60.6710   72.5560 C   0  0  0  0  0  0  0  0  0  0  0  0
    4.6260   61.4130   71.2960 C   0  0  0  0  0  0  0  0  0  0  0  0
    4.9760   62.7640   71.1430 C   0  0  0  0  0  0  0  0  0  0  0  0
    4.6150   63.4580   69.9880 C   0  0  0  0  0  0  0  0  0  0  0  0
    3.9060   62.8140   68.9770 C   0  0  0  0  0  0  0  0  0  0  0  0
    3.5580   61.4730   69.1160 C   0  0  0  0  0  0  0  0  0  0  0  0
    3.9160   60.7730   70.2690 C   0  0  0  0  0  0  0  0  0  0  0  0
    0.2215   60.5110   72.3713 H   0  0  0  0  0  0  0  0  0  0  0  0
    1.4843   58.1727   72.2249 H   0  0  0  0  0  0  0  0  0  0  0  0
    2.1348   59.6839   71.4632 H   0  0  0  0  0  0  0  0  0  0  0  0
    2.9378   58.5876   74.1922 H   0  0  0  0  0  0  0  0  0  0  0  0
    3.8850   58.4273   72.6655 H   0  0  0  0  0  0  0  0  0  0  0  0
    4.1368   60.3803   74.4245 H   0  0  0  0  0  0  0  0  0  0  0  0
    3.1978   62.3901   74.0654 H   0  0  0  0  0  0  0  0  0  0  0  0
    2.6544   61.9154   72.4178 H   0  0  0  0  0  0  0  0  0  0  0  0
    1.6331   60.7041   75.0311 H   0  0  0  0  0  0  0  0  0  0  0  0
    0.7894   61.9716   74.0516 H   0  0  0  0  0  0  0  0  0  0  0  0
   -6.7998   60.8425   75.2797 H   0  0  0  0  0  0  0  0  0  0  0  0
   -4.8440   61.7824   74.0172 H   0  0  0  0  0  0  0  0  0  0  0  0
   -4.4120   57.4453   76.5443 H   0  0  0  0  0  0  0  0  0  0  0  0
    0.4057   58.2266   74.4061 H   0  0  0  0  0  0  0  0  0  0  0  0
   -1.8787   61.4577   74.2878 H   0  0  0  0  0  0  0  0  0  0  0  0
   -2.3634   60.6163   72.8264 H   0  0  0  0  0  0  0  0  0  0  0  0
   -6.6542   57.7149   77.1548 H   0  0  0  0  0  0  0  0  0  0  0  0
    5.7215   61.2648   73.1146 H   0  0  0  0  0  0  0  0  0  0  0  0
    5.3833   59.6910   72.2571 H   0  0  0  0  0  0  0  0  0  0  0  0
    5.5374   63.2775   71.9374 H   0  0  0  0  0  0  0  0  0  0  0  0
    4.8911   64.5168   69.8755 H   0  0  0  0  0  0  0  0  0  0  0  0
    3.6209   63.3648   68.0685 H   0  0  0  0  0  0  0  0  0  0  0  0
    3.0001   60.9646   68.3158 H   0  0  0  0  0  0  0  0  0  0  0  0
    3.6399   59.7133   70.3732 H   0  0  0  0  0  0  0  0  0  0  0  0
  2  1  1  0
  3  2  1  0
  4  3  1  0
  5  4  1  0
  6  5  1  0
  6  1  1  0
  8  7  2  0
  9  8  1  0
 10  9  2  0
 11 10  1  0
 12 11  2  0
 12  7  1  0
 13 11  1  0
 14 13  2  0
 15 13  1  0
 16 15  2  0
 16  1  1  0
 17 15  1  0
 17 10  1  0
 18  7  1  0
 19  4  1  0
 20 19  1  0
 21 20  2  0
 22 21  1  0
 23 22  2  0
 24 23  1  0
 25 24  2  0
 25 20  1  0
  1 26  1  0
  2 27  1  0
  2 28  1  0
  3 29  1  0
  3 30  1  0
  4 31  1  0
  5 32  1  0
  5 33  1  0
  6 34  1  0
  6 35  1  0
  8 36  1  0
  9 37  1  0
 12 38  1  0
 16 39  1  0
 17 40  1  0
 17 41  1  0
 18 42  1  0
 19 43  1  0
 19 44  1  0
 21 45  1  0
 22 46  1  0
 23 47  1  0
 24 48  1  0
 25 49  1  0
M  CHG  1   4   1
M  END
>  <score>  (9) 
-9.572

$$$$
