=
     RDKit          3D

 58 61  0  0  0  0  0  0  0  0999 V2000
   -0.0080   64.3500   72.3880 C   0  0  0  0  0  0  0  0  0  0  0  0
    0.2380   63.0130   73.1230 C   0  0  2  0  0  0  0  0  0  0  0  0
    1.4890   63.0880   74.0210 C   0  0  0  0  0  0  0  0  0  0  0  0
    2.6930   62.3940   73.3980 C   0  0  0  0  0  0  0  0  0  0  0  0
    2.4240   60.8910   73.1930 N   0  0  2  0  0  4  0  0  0  0  0  0
    0.9420   60.6150   72.8400 C   0  0  0  0  0  0  0  0  0  0  0  0
    0.3190   61.8200   72.1560 C   0  0  0  0  0  0  0  0  0  0  0  0
    2.7520   60.1320   74.4800 C   0  0  0  0  0  0  0  0  0  0  0  0
    3.3070   60.3490   72.0340 C   0  0  0  0  0  0  0  0  0  0  0  0
    3.5910   61.2980   70.8940 C   0  0  0  0  0  0  0  0  0  0  0  0
    4.6420   62.2260   70.9830 C   0  0  0  0  0  0  0  0  0  0  0  0
    4.9010   63.1110   69.9350 C   0  0  0  0  0  0  0  0  0  0  0  0
    4.1190   63.0760   68.7830 C   0  0  0  0  0  0  0  0  0  0  0  0
    3.0850   62.1500   68.6730 C   0  0  0  0  0  0  0  0  0  0  0  0
    2.8240   61.2630   69.7200 C   0  0  0  0  0  0  0  0  0  0  0  0
    0.1020   64.2870   70.8620 C   0  0  0  0  0  0  0  0  0  0  0  0
    2.2590   65.2820   70.6580 O   0  0  0  0  0  0  0  0  0  0  0  0
    1.0770   65.3080   70.3080 C   0  0  0  0  0  0  0  0  0  0  0  0
    0.6210   66.3320   69.3220 C   0  0  0  0  0  0  0  0  0  0  0  0
    1.4170   67.4210   68.9430 C   0  0  0  0  0  0  0  0  0  0  0  0
    0.9380   68.3510   68.0140 C   0  0  0  0  0  0  0  0  0  0  0  0
   -0.3330   68.1980   67.4650 C   0  0  0  0  0  0  0  0  0  0  0  0
   -1.1430   67.1340   67.8650 C   0  0  0  0  0  0  0  0  0  0  0  0
   -0.6650   66.1960   68.7800 C   0  0  0  0  0  0  0  0  0  0  0  0
   -2.4150   66.9390   67.3940 O   0  0  0  0  0  0  0  0  0  0  0  0
   -2.9170   68.1120   66.7380 C   0  0  0  0  0  0  0  0  0  0  0  0
   -1.8700   68.6980   65.8060 C   0  0  0  0  0  0  0  0  0  0  0  0
   -0.7230   69.1360   66.5460 O   0  0  0  0  0  0  0  0  0  0  0  0
   -1.0208   64.6961   72.6418 H   0  0  0  0  0  0  0  0  0  0  0  0
    0.7873   65.0322   72.7227 H   0  0  0  0  0  0  0  0  0  0  0  0
   -0.6353   62.8420   73.7696 H   0  0  0  0  0  0  0  0  0  0  0  0
    1.7394   64.1456   74.1904 H   0  0  0  0  0  0  0  0  0  0  0  0
    1.2560   62.5729   74.9646 H   0  0  0  0  0  0  0  0  0  0  0  0
    2.9092   62.8562   72.4235 H   0  0  0  0  0  0  0  0  0  0  0  0
    3.5503   62.5053   74.0782 H   0  0  0  0  0  0  0  0  0  0  0  0
    0.8871   59.7483   72.1649 H   0  0  0  0  0  0  0  0  0  0  0  0
    0.3894   60.4111   73.7690 H   0  0  0  0  0  0  0  0  0  0  0  0
    0.9337   62.1001   71.2878 H   0  0  0  0  0  0  0  0  0  0  0  0
   -0.6992   61.5563   71.8339 H   0  0  0  0  0  0  0  0  0  0  0  0
    2.4845   60.7510   75.3491 H   0  0  0  0  0  0  0  0  0  0  0  0
    2.1792   59.1933   74.5082 H   0  0  0  0  0  0  0  0  0  0  0  0
    3.8281   59.9059   74.5082 H   0  0  0  0  0  0  0  0  0  0  0  0
    4.2732   60.0474   72.4647 H   0  0  0  0  0  0  0  0  0  0  0  0
    2.7253   59.5288   71.5880 H   0  0  0  0  0  0  0  0  0  0  0  0
    5.2671   62.2555   71.8876 H   0  0  0  0  0  0  0  0  0  0  0  0
    5.7234   63.8367   70.0191 H   0  0  0  0  0  0  0  0  0  0  0  0
    4.3181   63.7792   67.9609 H   0  0  0  0  0  0  0  0  0  0  0  0
    2.4725   62.1169   67.7599 H   0  0  0  0  0  0  0  0  0  0  0  0
    2.0094   60.5302   69.6230 H   0  0  0  0  0  0  0  0  0  0  0  0
    0.4424   63.2814   70.5740 H   0  0  0  0  0  0  0  0  0  0  0  0
   -0.8909   64.5122   70.4455 H   0  0  0  0  0  0  0  0  0  0  0  0
    2.4203   67.5450   69.3766 H   0  0  0  0  0  0  0  0  0  0  0  0
    1.5658   69.2040   67.7168 H   0  0  0  0  0  0  0  0  0  0  0  0
   -1.2986   65.3473   69.0772 H   0  0  0  0  0  0  0  0  0  0  0  0
   -3.8103   67.8446   66.1544 H   0  0  0  0  0  0  0  0  0  0  0  0
   -3.1694   68.8625   67.5015 H   0  0  0  0  0  0  0  0  0  0  0  0
   -1.5610   67.9302   65.0814 H   0  0  0  0  0  0  0  0  0  0  0  0
   -2.3053   69.5623   65.2829 H   0  0  0  0  0  0  0  0  0  0  0  0
  2  1  1  0
  3  2  1  0
  4  3  1  0
  5  4  1  0
  6  5  1  0
  7  6  1  0
  7  2  1  0
  5  8  1  1
  9  5  1  0
 10  9  1  0
 11 10  2  0
 12 11  1  0
 13 12  2  0
 14 13  1  0
 15 14  2  0
 15 10  1  0
 16  1  1  0
 18 17  2  0
 18 16  1  0
 19 18  1  0
 20 19  2  0
 21 20  1  0
 22 21  2  0
 23 22  1  0
 24 23  2  0
 24 19  1  0
 25 23  1  0
 26 25  1  0
 27 26  1  0
 28 27  1  0
 28 22  1  0
  1 29  1  0
  1 30  1  0
  2 31  1  1
  3 32  1  0
  3 33  1  0
  4 34  1  0
  4 35  1  0
  6 36  1  0
  6 37  1  0
  7 38  1  0
  7 39  1  0
  8 40  1  0
  8 41  1  0
  8 42  1  0
  9 43  1  0
  9 44  1  0
 11 45  1  0
 12 46  1  0
 13 47  1  0
 14 48  1  0
 15 49  1  0
 16 50  1  0
 16 51  1  0
 20 52  1  0
 21 53  1  0
 24 54  1  0
 26 55  1  0
 26 56  1  0
 27 57  1  0
 27 58  1  0
M  CHG  1   5   1
M  END
>  <score>  (1) 
-9.391

$$$$
=
     RDKit          3D

 58 61  0  0  0  0  0  0  0  0999 V2000
    2.6770   64.4070   70.5420 C   0  0  0  0  0  0  0  0  0  0  0  0
    3.4610   63.1540   70.0890 C   0  0  2  0  0  0  0  0  0  0  0  0
    2.5070   62.0230   69.6540 C   0  0  0  0  0  0  0  0  0  0  0  0
    2.3680   60.9410   70.7170 C   0  0  0  0  0  0  0  0  0  0  0  0
    3.7190   60.2560   70.9930 N   0  0  2  0  0  4  0  0  0  0  0  0
    4.9030   61.2440   70.8640 C   0  0  0  0  0  0  0  0  0  0  0  0
    4.4510   62.6650   71.1590 C   0  0  0  0  0  0  0  0  0  0  0  0
    3.9350   59.1260   69.9850 C   0  0  0  0  0  0  0  0  0  0  0  0
    3.7310   59.6710   72.4340 C   0  0  0  0  0  0  0  0  0  0  0  0
    2.4710   58.9800   72.8970 C   0  0  0  0  0  0  0  0  0  0  0  0
    2.2770   57.6100   72.6520 C   0  0  0  0  0  0  0  0  0  0  0  0
    1.1100   56.9700   73.0700 C   0  0  0  0  0  0  0  0  0  0  0  0
    0.1250   57.6860   73.7460 C   0  0  0  0  0  0  0  0  0  0  0  0
    0.3110   59.0390   74.0130 C   0  0  0  0  0  0  0  0  0  0  0  0
    1.4780   59.6830   73.5960 C   0  0  0  0  0  0  0  0  0  0  0  0
    1.1580   64.2340   70.6270 C   0  0  0  0  0  0  0  0  0  0  0  0
   -0.0980   65.8790   71.8100 O   0  0  0  0  0  0  0  0  0  0  0  0
    0.4290   65.5590   70.7420 C   0  0  0  0  0  0  0  0  0  0  0  0
    0.3660   66.4920   69.5780 C   0  0  0  0  0  0  0  0  0  0  0  0
    1.4150   67.3600   69.2500 C   0  0  0  0  0  0  0  0  0  0  0  0
    1.3010   68.2140   68.1470 C   0  0  0  0  0  0  0  0  0  0  0  0
    0.1420   68.2040   67.3740 C   0  0  0  0  0  0  0  0  0  0  0  0
   -0.9190   67.3650   67.7170 C   0  0  0  0  0  0  0  0  0  0  0  0
   -0.8050   66.5020   68.8070 C   0  0  0  0  0  0  0  0  0  0  0  0
   -2.1020   67.3270   67.0250 O   0  0  0  0  0  0  0  0  0  0  0  0
   -2.2390   68.4600   66.1570 C   0  0  0  0  0  0  0  0  0  0  0  0
   -0.9480   68.7150   65.3960 C   0  0  0  0  0  0  0  0  0  0  0  0
    0.1130   69.0510   66.2980 O   0  0  0  0  0  0  0  0  0  0  0  0
    3.0425   64.6944   71.5389 H   0  0  0  0  0  0  0  0  0  0  0  0
    2.8531   65.1710   69.7705 H   0  0  0  0  0  0  0  0  0  0  0  0
    4.0574   63.4521   69.2141 H   0  0  0  0  0  0  0  0  0  0  0  0
    1.5145   62.4542   69.4566 H   0  0  0  0  0  0  0  0  0  0  0  0
    2.9294   61.5556   68.7523 H   0  0  0  0  0  0  0  0  0  0  0  0
    2.0002   61.3974   71.6478 H   0  0  0  0  0  0  0  0  0  0  0  0
    1.6605   60.1821   70.3516 H   0  0  0  0  0  0  0  0  0  0  0  0
    5.6900   60.9598   71.5780 H   0  0  0  0  0  0  0  0  0  0  0  0
    5.2885   61.2018   69.8346 H   0  0  0  0  0  0  0  0  0  0  0  0
    3.9606   62.6909   72.1433 H   0  0  0  0  0  0  0  0  0  0  0  0
    5.3315   63.3243   71.1536 H   0  0  0  0  0  0  0  0  0  0  0  0
    4.1151   58.1838   70.5234 H   0  0  0  0  0  0  0  0  0  0  0  0
    3.0404   59.0221   69.3533 H   0  0  0  0  0  0  0  0  0  0  0  0
    4.8048   59.3594   69.3533 H   0  0  0  0  0  0  0  0  0  0  0  0
    4.5514   58.9404   72.4901 H   0  0  0  0  0  0  0  0  0  0  0  0
    3.8435   60.5410   73.0977 H   0  0  0  0  0  0  0  0  0  0  0  0
    3.0535   57.0361   72.1250 H   0  0  0  0  0  0  0  0  0  0  0  0
    0.9676   55.8986   72.8655 H   0  0  0  0  0  0  0  0  0  0  0  0
   -0.7985   57.1828   74.0683 H   0  0  0  0  0  0  0  0  0  0  0  0
   -0.4632   59.6028   74.5540 H   0  0  0  0  0  0  0  0  0  0  0  0
    1.6200   60.7511   73.8176 H   0  0  0  0  0  0  0  0  0  0  0  0
    0.8103   63.7174   69.7202 H   0  0  0  0  0  0  0  0  0  0  0  0
    0.9378   63.6511   71.5335 H   0  0  0  0  0  0  0  0  0  0  0  0
    2.3301   67.3706   69.8603 H   0  0  0  0  0  0  0  0  0  0  0  0
    2.1270   68.8935   67.8903 H   0  0  0  0  0  0  0  0  0  0  0  0
   -1.6358   65.8277   69.0622 H   0  0  0  0  0  0  0  0  0  0  0  0
   -3.0495   68.2681   65.4385 H   0  0  0  0  0  0  0  0  0  0  0  0
   -2.4702   69.3459   66.7667 H   0  0  0  0  0  0  0  0  0  0  0  0
   -0.6732   67.8084   64.8369 H   0  0  0  0  0  0  0  0  0  0  0  0
   -1.1048   69.5564   64.7050 H   0  0  0  0  0  0  0  0  0  0  0  0
  2  1  1  0
  3  2  1  0
  4  3  1  0
  5  4  1  0
  6  5  1  0
  7  6  1  0
  7  2  1  0
  5  8  1  6
  9  5  1  0
 10  9  1  0
 11 10  2  0
 12 11  1  0
 13 12  2  0
 14 13  1  0
 15 14  2  0
 15 10  1  0
 16  1  1  0
 18 17  2  0
 18 16  1  0
 19 18  1  0
 20 19  2  0
 21 20  1  0
 22 21  2  0
 23 22  1  0
 24 23  2  0
 24 19  1  0
 25 23  1  0
 26 25  1  0
 27 26  1  0
 28 27  1  0
 28 22  1  0
  1 29  1  0
  1 30  1  0
  2 31  1  6
  3 32  1  0
  3 33  1  0
  4 34  1  0
  4 35  1  0
  6 36  1  0
  6 37  1  0
  7 38  1  0
  7 39  1  0
  8 40  1  0
  8 41  1  0
  8 42  1  0
  9 43  1  0
  9 44  1  0
 11 45  1  0
 12 46  1  0
 13 47  1  0
 14 48  1  0
 15 49  1  0
 16 50  1  0
 16 51  1  0
 20 52  1  0
 21 53  1  0
 24 54  1  0
 26 55  1  0
 26 56  1  0
 27 57  1  0
 27 58  1  0
M  CHG  1   5   1
M  END
>  <score>  (2) 
-9.103

$$$$
=
     RDKit          3D

 58 61  0  0  0  0  0  0  0  0999 V2000
    2.9570   68.2010   62.6490 C   0  0  0  0  0  0  0  0  0  0  0  0
    1.6130   67.7410   63.2580 C   0  0  2  0  0  0  0  0  0  0  0  0
    0.5730   68.8790   63.2430 C   0  0  0  0  0  0  0  0  0  0  0  0
    0.4020   69.5250   64.6120 C   0  0  0  0  0  0  0  0  0  0  0  0
   -0.1150   68.5090   65.6470 N   0  0  2  0  0  4  0  0  0  0  0  0
    0.4410   67.0880   65.3850 C   0  0  0  0  0  0  0  0  0  0  0  0
    1.7810   67.1580   64.6710 C   0  0  0  0  0  0  0  0  0  0  0  0
   -1.6410   68.4390   65.5780 C   0  0  0  0  0  0  0  0  0  0  0  0
    0.3180   68.9430   67.0760 C   0  0  0  0  0  0  0  0  0  0  0  0
    0.3340   67.8690   68.1370 C   0  0  0  0  0  0  0  0  0  0  0  0
    1.4840   67.6520   68.9150 C   0  0  0  0  0  0  0  0  0  0  0  0
    1.5060   66.6530   69.8900 C   0  0  0  0  0  0  0  0  0  0  0  0
    0.3790   65.8640   70.1050 C   0  0  0  0  0  0  0  0  0  0  0  0
   -0.7730   66.0790   69.3550 C   0  0  0  0  0  0  0  0  0  0  0  0
   -0.7990   67.0770   68.3790 C   0  0  0  0  0  0  0  0  0  0  0  0
    4.2050   67.7980   63.4390 C   0  0  0  0  0  0  0  0  0  0  0  0
    5.6780   69.6430   63.1030 O   0  0  0  0  0  0  0  0  0  0  0  0
    5.0060   68.9970   63.9100 C   0  0  0  0  0  0  0  0  0  0  0  0
    4.9680   69.4170   65.3420 C   0  0  0  0  0  0  0  0  0  0  0  0
    3.7750   69.5070   66.0700 C   0  0  0  0  0  0  0  0  0  0  0  0
    3.7980   69.9070   67.4100 C   0  0  0  0  0  0  0  0  0  0  0  0
    5.0090   70.2190   68.0250 C   0  0  0  0  0  0  0  0  0  0  0  0
    6.1970   70.1650   67.2940 C   0  0  0  0  0  0  0  0  0  0  0  0
    6.1810   69.7530   65.9610 C   0  0  0  0  0  0  0  0  0  0  0  0
    7.4190   70.4910   67.8210 O   0  0  0  0  0  0  0  0  0  0  0  0
    7.2840   71.2040   69.0580 C   0  0  0  0  0  0  0  0  0  0  0  0
    6.2510   70.5390   69.9520 C   0  0  0  0  0  0  0  0  0  0  0  0
    4.9540   70.5810   69.3450 O   0  0  0  0  0  0  0  0  0  0  0  0
    3.0388   67.7690   61.6407 H   0  0  0  0  0  0  0  0  0  0  0  0
    2.9340   69.3007   62.6566 H   0  0  0  0  0  0  0  0  0  0  0  0
    1.2362   66.9279   62.6201 H   0  0  0  0  0  0  0  0  0  0  0  0
    0.9004   69.6478   62.5276 H   0  0  0  0  0  0  0  0  0  0  0  0
   -0.3954   68.4456   62.9524 H   0  0  0  0  0  0  0  0  0  0  0  0
    1.3736   69.9163   64.9479 H   0  0  0  0  0  0  0  0  0  0  0  0
   -0.3342   70.3375   64.5240 H   0  0  0  0  0  0  0  0  0  0  0  0
    0.5706   66.5683   66.3458 H   0  0  0  0  0  0  0  0  0  0  0  0
   -0.2706   66.5419   64.7483 H   0  0  0  0  0  0  0  0  0  0  0  0
    2.4644   67.7989   65.2474 H   0  0  0  0  0  0  0  0  0  0  0  0
    2.1915   66.1409   64.5879 H   0  0  0  0  0  0  0  0  0  0  0  0
   -2.0537   68.4201   66.5975 H   0  0  0  0  0  0  0  0  0  0  0  0
   -2.0247   69.3205   65.0434 H   0  0  0  0  0  0  0  0  0  0  0  0
   -1.9424   67.5261   65.0434 H   0  0  0  0  0  0  0  0  0  0  0  0
    1.3351   69.3558   67.0047 H   0  0  0  0  0  0  0  0  0  0  0  0
   -0.4483   69.6608   67.4039 H   0  0  0  0  0  0  0  0  0  0  0  0
    2.3758   68.2755   68.7542 H   0  0  0  0  0  0  0  0  0  0  0  0
    2.4141   66.4891   70.4887 H   0  0  0  0  0  0  0  0  0  0  0  0
    0.3995   65.0712   70.8673 H   0  0  0  0  0  0  0  0  0  0  0  0
   -1.6657   65.4610   69.5315 H   0  0  0  0  0  0  0  0  0  0  0  0
   -1.7158   67.2440   67.7945 H   0  0  0  0  0  0  0  0  0  0  0  0
    3.8932   67.2147   64.3179 H   0  0  0  0  0  0  0  0  0  0  0  0
    4.8484   67.2079   62.7698 H   0  0  0  0  0  0  0  0  0  0  0  0
    2.8176   69.2625   65.5867 H   0  0  0  0  0  0  0  0  0  0  0  0
    2.8591   69.9754   67.9791 H   0  0  0  0  0  0  0  0  0  0  0  0
    7.1218   69.6916   65.3943 H   0  0  0  0  0  0  0  0  0  0  0  0
    8.2547   71.2163   69.5753 H   0  0  0  0  0  0  0  0  0  0  0  0
    6.9542   72.2305   68.8400 H   0  0  0  0  0  0  0  0  0  0  0  0
    6.5384   69.4902   70.1177 H   0  0  0  0  0  0  0  0  0  0  0  0
    6.2112   71.0795   70.9092 H   0  0  0  0  0  0  0  0  0  0  0  0
  2  1  1  0
  3  2  1  0
  4  3  1  0
  5  4  1  0
  6  5  1  0
  7  6  1  0
  7  2  1  0
  5  8  1  1
  9  5  1  0
 10  9  1  0
 11 10  2  0
 12 11  1  0
 13 12  2  0
 14 13  1  0
 15 14  2  0
 15 10  1  0
 16  1  1  0
 18 17  2  0
 18 16  1  0
 19 18  1  0
 20 19  2  0
 21 20  1  0
 22 21  2  0
 23 22  1  0
 24 23  2  0
 24 19  1  0
 25 23  1  0
 26 25  1  0
 27 26  1  0
 28 27  1  0
 28 22  1  0
  1 29  1  0
  1 30  1  0
  2 31  1  6
  3 32  1  0
  3 33  1  0
  4 34  1  0
  4 35  1  0
  6 36  1  0
  6 37  1  0
  7 38  1  0
  7 39  1  0
  8 40  1  0
  8 41  1  0
  8 42  1  0
  9 43  1  0
  9 44  1  0
 11 45  1  0
 12 46  1  0
 13 47  1  0
 14 48  1  0
 15 49  1  0
 16 50  1  0
 16 51  1  0
 20 52  1  0
 21 53  1  0
 24 54  1  0
 26 55  1  0
 26 56  1  0
 27 57  1  0
 27 58  1  0
M  CHG  1   5   1
M  END
>  <score>  (3) 
-9.086

$$$$
=
     RDKit          3D

 58 61  0  0  0  0  0  0  0  0999 V2000
    1.5870   67.2490   69.6900 C   0  0  0  0  0  0  0  0  0  0  0  0
    0.9920   65.8220   69.7230 C   0  0  2  0  0  0  0  0  0  0  0  0
   -0.1030   65.6970   70.8010 C   0  0  0  0  0  0  0  0  0  0  0  0
    0.3940   64.9820   72.0510 C   0  0  0  0  0  0  0  0  0  0  0  0
    0.8250   63.5380   71.7320 N   0  0  2  0  0  4  0  0  0  0  0  0
    1.4490   63.4220   70.3210 C   0  0  0  0  0  0  0  0  0  0  0  0
    2.0730   64.7420   69.8990 C   0  0  0  0  0  0  0  0  0  0  0  0
   -0.3950   62.6170   71.7860 C   0  0  0  0  0  0  0  0  0  0  0  0
    1.8790   63.0600   72.7700 C   0  0  0  0  0  0  0  0  0  0  0  0
    2.8030   61.9460   72.3360 C   0  0  0  0  0  0  0  0  0  0  0  0
    2.3510   60.6160   72.3050 C   0  0  0  0  0  0  0  0  0  0  0  0
    3.2050   59.5830   71.9140 C   0  0  0  0  0  0  0  0  0  0  0  0
    4.5170   59.8660   71.5420 C   0  0  0  0  0  0  0  0  0  0  0  0
    4.9730   61.1810   71.5500 C   0  0  0  0  0  0  0  0  0  0  0  0
    4.1220   62.2170   71.9400 C   0  0  0  0  0  0  0  0  0  0  0  0
    1.3110   68.0430   68.4110 C   0  0  0  0  0  0  0  0  0  0  0  0
    2.4610   70.0230   69.0760 O   0  0  0  0  0  0  0  0  0  0  0  0
    2.3060   69.1690   68.2010 C   0  0  0  0  0  0  0  0  0  0  0  0
    3.1190   69.2360   66.9500 C   0  0  0  0  0  0  0  0  0  0  0  0
    4.4030   69.7960   66.9150 C   0  0  0  0  0  0  0  0  0  0  0  0
    5.1190   69.8330   65.7140 C   0  0  0  0  0  0  0  0  0  0  0  0
    4.5570   69.3160   64.5490 C   0  0  0  0  0  0  0  0  0  0  0  0
    3.2650   68.7880   64.5720 C   0  0  0  0  0  0  0  0  0  0  0  0
    2.5520   68.7360   65.7690 C   0  0  0  0  0  0  0  0  0  0  0  0
    2.6350   68.2940   63.4600 O   0  0  0  0  0  0  0  0  0  0  0  0
    3.3040   68.6940   62.2560 C   0  0  0  0  0  0  0  0  0  0  0  0
    4.8070   68.5150   62.3910 C   0  0  0  0  0  0  0  0  0  0  0  0
    5.3280   69.3680   63.4180 O   0  0  0  0  0  0  0  0  0  0  0  0
    1.1673   67.8119   70.5367 H   0  0  0  0  0  0  0  0  0  0  0  0
    2.6787   67.1247   69.7414 H   0  0  0  0  0  0  0  0  0  0  0  0
    0.5250   65.6492   68.7422 H   0  0  0  0  0  0  0  0  0  0  0  0
   -0.4401   66.7059   71.0812 H   0  0  0  0  0  0  0  0  0  0  0  0
   -0.9251   65.1014   70.3775 H   0  0  0  0  0  0  0  0  0  0  0  0
    1.2546   65.5313   72.4604 H   0  0  0  0  0  0  0  0  0  0  0  0
   -0.4270   64.9472   72.7822 H   0  0  0  0  0  0  0  0  0  0  0  0
    2.2255   62.6430   70.3326 H   0  0  0  0  0  0  0  0  0  0  0  0
    0.6565   63.1605   69.6044 H   0  0  0  0  0  0  0  0  0  0  0  0
    2.7864   65.0673   70.6705 H   0  0  0  0  0  0  0  0  0  0  0  0
    2.5894   64.5983   68.9384 H   0  0  0  0  0  0  0  0  0  0  0  0
   -0.6582   62.4183   72.8354 H   0  0  0  0  0  0  0  0  0  0  0  0
   -1.2432   63.1020   71.2807 H   0  0  0  0  0  0  0  0  0  0  0  0
   -0.1609   61.6684   71.2807 H   0  0  0  0  0  0  0  0  0  0  0  0
    2.5030   63.9265   73.0344 H   0  0  0  0  0  0  0  0  0  0  0  0
    1.2949   62.6426   73.6034 H   0  0  0  0  0  0  0  0  0  0  0  0
    1.3141   60.3864   72.5916 H   0  0  0  0  0  0  0  0  0  0  0  0
    2.8414   58.5449   71.8997 H   0  0  0  0  0  0  0  0  0  0  0  0
    5.1922   59.0510   71.2422 H   0  0  0  0  0  0  0  0  0  0  0  0
    6.0068   61.4048   71.2482 H   0  0  0  0  0  0  0  0  0  0  0  0
    4.4883   63.2542   71.9369 H   0  0  0  0  0  0  0  0  0  0  0  0
    1.3662   67.3584   67.5518 H   0  0  0  0  0  0  0  0  0  0  0  0
    0.3117   68.4929   68.5055 H   0  0  0  0  0  0  0  0  0  0  0  0
    4.8484   70.2070   67.8330 H   0  0  0  0  0  0  0  0  0  0  0  0
    6.1277   70.2711   65.6894 H   0  0  0  0  0  0  0  0  0  0  0  0
    1.5416   68.3014   65.7870 H   0  0  0  0  0  0  0  0  0  0  0  0
    2.9409   68.0785   61.4197 H   0  0  0  0  0  0  0  0  0  0  0  0
    3.0901   69.7567   62.0692 H   0  0  0  0  0  0  0  0  0  0  0  0
    5.0245   67.4675   62.6467 H   0  0  0  0  0  0  0  0  0  0  0  0
    5.2823   68.7808   61.4353 H   0  0  0  0  0  0  0  0  0  0  0  0
  2  1  1  0
  3  2  1  0
  4  3  1  0
  5  4  1  0
  6  5  1  0
  7  6  1  0
  7  2  1  0
  5  8  1  6
  9  5  1  0
 10  9  1  0
 11 10  2  0
 12 11  1  0
 13 12  2  0
 14 13  1  0
 15 14  2  0
 15 10  1  0
 16  1  1  0
 18 17  2  0
 18 16  1  0
 19 18  1  0
 20 19  2  0
 21 20  1  0
 22 21  2  0
 23 22  1  0
 24 23  2  0
 24 19  1  0
 25 23  1  0
 26 25  1  0
 27 26  1  0
 28 27  1  0
 28 22  1  0
  1 29  1  0
  1 30  1  0
  2 31  1  6
  3 32  1  0
  3 33  1  0
  4 34  1  0
  4 35  1  0
  6 36  1  0
  6 37  1  0
  7 38  1  0
  7 39  1  0
  8 40  1  0
  8 41  1  0
  8 42  1  0
  9 43  1  0
  9 44  1  0
 11 45  1  0
 12 46  1  0
 13 47  1  0
 14 48  1  0
 15 49  1  0
 16 50  1  0
 16 51  1  0
 20 52  1  0
 21 53  1  0
 24 54  1  0
 26 55  1  0
 26 56  1  0
 27 57  1  0
 27 58  1  0
M  CHG  1   5   1
M  END
>  <score>  (4) 
-9.055

$$$$
=
     RDKit          3D

 58 61  0  0  0  0  0  0  0  0999 V2000
   -0.1270   66.4620   69.4060 C   0  0  0  0  0  0  0  0  0  0  0  0
    0.1110   67.6110   68.4000 C   0  0  2  0  0  0  0  0  0  0  0  0
   -0.7150   67.4110   67.1140 C   0  0  0  0  0  0  0  0  0  0  0  0
    0.1300   66.8920   65.9580 C   0  0  0  0  0  0  0  0  0  0  0  0
    1.2380   67.8930   65.5840 N   0  0  2  0  0  4  0  0  0  0  0  0
    1.7750   68.6470   66.8250 C   0  0  0  0  0  0  0  0  0  0  0  0
    1.6020   67.8080   68.0800 C   0  0  0  0  0  0  0  0  0  0  0  0
    0.6820   68.9300   64.6070 C   0  0  0  0  0  0  0  0  0  0  0  0
    2.4270   67.1440   64.9200 C   0  0  0  0  0  0  0  0  0  0  0  0
    3.4990   67.9970   64.2850 C   0  0  0  0  0  0  0  0  0  0  0  0
    3.6030   68.0900   62.8870 C   0  0  0  0  0  0  0  0  0  0  0  0
    4.5990   68.8690   62.2970 C   0  0  0  0  0  0  0  0  0  0  0  0
    5.4980   69.5730   63.0940 C   0  0  0  0  0  0  0  0  0  0  0  0
    5.3970   69.5060   64.4810 C   0  0  0  0  0  0  0  0  0  0  0  0
    4.4020   68.7270   65.0740 C   0  0  0  0  0  0  0  0  0  0  0  0
    1.0850   66.0750   70.2570 C   0  0  0  0  0  0  0  0  0  0  0  0
   -0.0830   64.6770   71.7950 O   0  0  0  0  0  0  0  0  0  0  0  0
    0.8700   64.7810   71.0190 C   0  0  0  0  0  0  0  0  0  0  0  0
    1.7900   63.6230   70.8190 C   0  0  0  0  0  0  0  0  0  0  0  0
    2.8670   63.6620   69.9240 C   0  0  0  0  0  0  0  0  0  0  0  0
    3.6970   62.5460   69.7760 C   0  0  0  0  0  0  0  0  0  0  0  0
    3.4550   61.3920   70.5180 C   0  0  0  0  0  0  0  0  0  0  0  0
    2.3630   61.3370   71.3860 C   0  0  0  0  0  0  0  0  0  0  0  0
    1.5400   62.4510   71.5470 C   0  0  0  0  0  0  0  0  0  0  0  0
    2.0420   60.2240   72.1200 O   0  0  0  0  0  0  0  0  0  0  0  0
    2.7290   59.0610   71.6390 C   0  0  0  0  0  0  0  0  0  0  0  0
    4.1930   59.3720   71.3750 C   0  0  0  0  0  0  0  0  0  0  0  0
    4.3240   60.3490   70.3350 O   0  0  0  0  0  0  0  0  0  0  0  0
   -0.9357   66.7680   70.0860 H   0  0  0  0  0  0  0  0  0  0  0  0
   -0.3700   65.5751   68.8023 H   0  0  0  0  0  0  0  0  0  0  0  0
   -0.2361   68.5350   68.8856 H   0  0  0  0  0  0  0  0  0  0  0  0
   -1.5175   66.6870   67.3183 H   0  0  0  0  0  0  0  0  0  0  0  0
   -1.1217   68.3899   66.8201 H   0  0  0  0  0  0  0  0  0  0  0  0
    0.5926   65.9382   66.2518 H   0  0  0  0  0  0  0  0  0  0  0  0
   -0.5234   66.7536   65.0840 H   0  0  0  0  0  0  0  0  0  0  0  0
    2.8435   68.8648   66.6807 H   0  0  0  0  0  0  0  0  0  0  0  0
    1.2075   69.5818   66.9437 H   0  0  0  0  0  0  0  0  0  0  0  0
    2.0711   66.8252   67.9250 H   0  0  0  0  0  0  0  0  0  0  0  0
    2.0790   68.3295   68.9229 H   0  0  0  0  0  0  0  0  0  0  0  0
    0.2356   69.7625   65.1707 H   0  0  0  0  0  0  0  0  0  0  0  0
    1.4968   69.3111   63.9738 H   0  0  0  0  0  0  0  0  0  0  0  0
   -0.0863   68.4623   63.9738 H   0  0  0  0  0  0  0  0  0  0  0  0
    2.9070   66.5283   65.6949 H   0  0  0  0  0  0  0  0  0  0  0  0
    1.9820   66.5755   64.0901 H   0  0  0  0  0  0  0  0  0  0  0  0
    2.8917   67.5429   62.2508 H   0  0  0  0  0  0  0  0  0  0  0  0
    4.6741   68.9271   61.2011 H   0  0  0  0  0  0  0  0  0  0  0  0
    6.2872   70.1815   62.6282 H   0  0  0  0  0  0  0  0  0  0  0  0
    6.1025   70.0679   65.1106 H   0  0  0  0  0  0  0  0  0  0  0  0
    4.3247   68.6847   66.1705 H   0  0  0  0  0  0  0  0  0  0  0  0
    1.9562   65.9548   69.5962 H   0  0  0  0  0  0  0  0  0  0  0  0
    1.2446   66.8750   70.9949 H   0  0  0  0  0  0  0  0  0  0  0  0
    3.0602   64.5718   69.3367 H   0  0  0  0  0  0  0  0  0  0  0  0
    4.5421   62.5795   69.0727 H   0  0  0  0  0  0  0  0  0  0  0  0
    0.6924   62.4103   72.2470 H   0  0  0  0  0  0  0  0  0  0  0  0
    2.6597   58.2632   72.3931 H   0  0  0  0  0  0  0  0  0  0  0  0
    2.2609   58.7382   70.6974 H   0  0  0  0  0  0  0  0  0  0  0  0
    4.6511   59.7615   72.2961 H   0  0  0  0  0  0  0  0  0  0  0  0
    4.6991   58.4482   71.0580 H   0  0  0  0  0  0  0  0  0  0  0  0
  2  1  1  0
  3  2  1  0
  4  3  1  0
  5  4  1  0
  6  5  1  0
  7  6  1  0
  7  2  1  0
  5  8  1  6
  9  5  1  0
 10  9  1  0
 11 10  2  0
 12 11  1  0
 13 12  2  0
 14 13  1  0
 15 14  2  0
 15 10  1  0
 16  1  1  0
 18 17  2  0
 18 16  1  0
 19 18  1  0
 20 19  2  0
 21 20  1  0
 22 21  2  0
 23 22  1  0
 24 23  2  0
 24 19  1  0
 25 23  1  0
 26 25  1  0
 27 26  1  0
 28 27  1  0
 28 22  1  0
  1 29  1  0
  1 30  1  0
  2 31  1  1
  3 32  1  0
  3 33  1  0
  4 34  1  0
  4 35  1  0
  6 36  1  0
  6 37  1  0
  7 38  1  0
  7 39  1  0
  8 40  1  0
  8 41  1  0
  8 42  1  0
  9 43  1  0
  9 44  1  0
 11 45  1  0
 12 46  1  0
 13 47  1  0
 14 48  1  0
 15 49  1  0
 16 50  1  0
 16 51  1  0
 20 52  1  0
 21 53  1  0
 24 54  1  0
 26 55  1  0
 26 56  1  0
 27 57  1  0
 27 58  1  0
M  CHG  1   5   1
M  END
>  <score>  (5) 
-8.959

$$$$
=
     RDKit          3D

 58 61  0  0  0  0  0  0  0  0999 V2000
    1.3960   65.3570   70.2320 C   0  0  0  0  0  0  0  0  0  0  0  0
    0.4230   64.5830   71.1490 C   0  0  2  0  0  0  0  0  0  0  0  0
    0.9340   64.5440   72.6030 C   0  0  0  0  0  0  0  0  0  0  0  0
    1.5550   63.2010   72.9640 C   0  0  0  0  0  0  0  0  0  0  0  0
    0.5220   62.0640   72.8600 N   0  0  2  0  0  4  0  0  0  0  0  0
   -0.4910   62.3090   71.7160 C   0  0  0  0  0  0  0  0  0  0  0  0
    0.1280   63.1670   70.6250 C   0  0  0  0  0  0  0  0  0  0  0  0
   -0.2600   61.9630   74.1710 C   0  0  0  0  0  0  0  0  0  0  0  0
    1.2460   60.7150   72.5860 C   0  0  0  0  0  0  0  0  0  0  0  0
    2.6500   60.7960   72.0370 C   0  0  0  0  0  0  0  0  0  0  0  0
    3.7540   60.8350   72.9050 C   0  0  0  0  0  0  0  0  0  0  0  0
    5.0530   60.9200   72.4010 C   0  0  0  0  0  0  0  0  0  0  0  0
    5.2670   60.9580   71.0260 C   0  0  0  0  0  0  0  0  0  0  0  0
    4.1840   60.9010   70.1530 C   0  0  0  0  0  0  0  0  0  0  0  0
    2.8830   60.8160   70.6540 C   0  0  0  0  0  0  0  0  0  0  0  0
    1.0400   66.8270   69.9930 C   0  0  0  0  0  0  0  0  0  0  0  0
   -0.5070   66.7520   68.1810 O   0  0  0  0  0  0  0  0  0  0  0  0
    0.6130   67.0950   68.5620 C   0  0  0  0  0  0  0  0  0  0  0  0
    1.5330   67.7960   67.6170 C   0  0  0  0  0  0  0  0  0  0  0  0
    2.2540   68.9420   67.9770 C   0  0  0  0  0  0  0  0  0  0  0  0
    3.1010   69.5580   67.0500 C   0  0  0  0  0  0  0  0  0  0  0  0
    3.2280   69.0340   65.7650 C   0  0  0  0  0  0  0  0  0  0  0  0
    2.4860   67.9130   65.3910 C   0  0  0  0  0  0  0  0  0  0  0  0
    1.6500   67.2870   66.3160 C   0  0  0  0  0  0  0  0  0  0  0  0
    2.5330   67.3640   64.1360 O   0  0  0  0  0  0  0  0  0  0  0  0
    3.1430   68.2580   63.1950 C   0  0  0  0  0  0  0  0  0  0  0  0
    4.4040   68.8740   63.7770 C   0  0  0  0  0  0  0  0  0  0  0  0
    4.0930   69.6790   64.9210 O   0  0  0  0  0  0  0  0  0  0  0  0
    2.3960   65.3194   70.6887 H   0  0  0  0  0  0  0  0  0  0  0  0
    1.3420   64.8671   69.2486 H   0  0  0  0  0  0  0  0  0  0  0  0
   -0.5293   65.1334   71.1379 H   0  0  0  0  0  0  0  0  0  0  0  0
    1.6925   65.3301   72.7321 H   0  0  0  0  0  0  0  0  0  0  0  0
    0.0711   64.7038   73.2663 H   0  0  0  0  0  0  0  0  0  0  0  0
    2.3872   62.9938   72.2752 H   0  0  0  0  0  0  0  0  0  0  0  0
    1.9143   63.2513   74.0024 H   0  0  0  0  0  0  0  0  0  0  0  0
   -0.7925   61.3419   71.2874 H   0  0  0  0  0  0  0  0  0  0  0  0
   -1.3664   62.8345   72.1253 H   0  0  0  0  0  0  0  0  0  0  0  0
    1.0673   62.7029   70.2899 H   0  0  0  0  0  0  0  0  0  0  0  0
   -0.5813   63.2403   69.7874 H   0  0  0  0  0  0  0  0  0  0  0  0
    0.4340   62.0526   75.0197 H   0  0  0  0  0  0  0  0  0  0  0  0
   -1.0032   62.7726   74.2180 H   0  0  0  0  0  0  0  0  0  0  0  0
   -0.7731   60.9911   74.2180 H   0  0  0  0  0  0  0  0  0  0  0  0
    1.2914   60.1626   73.5361 H   0  0  0  0  0  0  0  0  0  0  0  0
    0.6558   60.2263   71.7968 H   0  0  0  0  0  0  0  0  0  0  0  0
    3.5932   60.7982   73.9926 H   0  0  0  0  0  0  0  0  0  0  0  0
    5.9087   60.9570   73.0913 H   0  0  0  0  0  0  0  0  0  0  0  0
    6.2904   61.0330   70.6298 H   0  0  0  0  0  0  0  0  0  0  0  0
    4.3533   60.9230   69.0663 H   0  0  0  0  0  0  0  0  0  0  0  0
    2.0332   60.7643   69.9575 H   0  0  0  0  0  0  0  0  0  0  0  0
    0.2147   67.1041   70.6654 H   0  0  0  0  0  0  0  0  0  0  0  0
    1.9410   67.4261   70.1912 H   0  0  0  0  0  0  0  0  0  0  0  0
    2.1538   69.3580   68.9904 H   0  0  0  0  0  0  0  0  0  0  0  0
    3.6673   70.4568   67.3355 H   0  0  0  0  0  0  0  0  0  0  0  0
    1.0813   66.3919   66.0238 H   0  0  0  0  0  0  0  0  0  0  0  0
    3.4017   67.7002   62.2829 H   0  0  0  0  0  0  0  0  0  0  0  0
    2.4317   69.0639   62.9615 H   0  0  0  0  0  0  0  0  0  0  0  0
    5.0929   68.0707   64.0772 H   0  0  0  0  0  0  0  0  0  0  0  0
    4.8715   69.5117   63.0123 H   0  0  0  0  0  0  0  0  0  0  0  0
  2  1  1  0
  3  2  1  0
  4  3  1  0
  5  4  1  0
  6  5  1  0
  7  6  1  0
  7  2  1  0
  5  8  1  1
  9  5  1  0
 10  9  1  0
 11 10  2  0
 12 11  1  0
 13 12  2  0
 14 13  1  0
 15 14  2  0
 15 10  1  0
 16  1  1  0
 18 17  2  0
 18 16  1  0
 19 18  1  0
 20 19  2  0
 21 20  1  0
 22 21  2  0
 23 22  1  0
 24 23  2  0
 24 19  1  0
 25 23  1  0
 26 25  1  0
 27 26  1  0
 28 27  1  0
 28 22  1  0
  1 29  1  0
  1 30  1  0
  2 31  1  1
  3 32  1  0
  3 33  1  0
  4 34  1  0
  4 35  1  0
  6 36  1  0
  6 37  1  0
  7 38  1  0
  7 39  1  0
  8 40  1  0
  8 41  1  0
  8 42  1  0
  9 43  1  0
  9 44  1  0
 11 45  1  0
 12 46  1  0
 13 47  1  0
 14 48  1  0
 15 49  1  0
 16 50  1  0
 16 51  1  0
 20 52  1  0
 21 53  1  0
 24 54  1  0
 26 55  1  0
 26 56  1  0
 27 57  1  0
 27 58  1  0
M  CHG  1   5   1
M  END
>  <score>  (6) 
-8.927

$$$$
=
     RDKit          3D

 58 61  0  0  0  0  0  0  0  0999 V2000
   -0.1070   66.3300   69.0700 C   0  0  0  0  0  0  0  0  0  0  0  0
   -0.0240   67.5500   68.1250 C   0  0  2  0  0  0  0  0  0  0  0  0
   -0.4050   67.1670   66.6810 C   0  0  0  0  0  0  0  0  0  0  0  0
    0.8140   67.0160   65.7810 C   0  0  0  0  0  0  0  0  0  0  0  0
    1.5890   68.3410   65.6650 N   0  0  2  0  0  4  0  0  0  0  0  0
    1.5360   69.1560   66.9800 C   0  0  0  0  0  0  0  0  0  0  0  0
    1.3510   68.2360   68.1750 C   0  0  0  0  0  0  0  0  0  0  0  0
    0.9750   69.1970   64.5550 C   0  0  0  0  0  0  0  0  0  0  0  0
    3.0800   68.0560   65.3310 C   0  0  0  0  0  0  0  0  0  0  0  0
    4.1010   69.0060   65.9100 C   0  0  0  0  0  0  0  0  0  0  0  0
    3.9450   69.5140   67.2110 C   0  0  0  0  0  0  0  0  0  0  0  0
    4.8810   70.4010   67.7450 C   0  0  0  0  0  0  0  0  0  0  0  0
    5.9880   70.7850   66.9920 C   0  0  0  0  0  0  0  0  0  0  0  0
    6.1650   70.2750   65.7090 C   0  0  0  0  0  0  0  0  0  0  0  0
    5.2310   69.3880   65.1710 C   0  0  0  0  0  0  0  0  0  0  0  0
    0.8020   66.3920   70.3010 C   0  0  0  0  0  0  0  0  0  0  0  0
   -0.4600   65.8320   72.2450 O   0  0  0  0  0  0  0  0  0  0  0  0
    0.3540   65.4500   71.4020 C   0  0  0  0  0  0  0  0  0  0  0  0
    0.8730   64.0510   71.4580 C   0  0  0  0  0  0  0  0  0  0  0  0
    0.1610   63.0060   72.0590 C   0  0  0  0  0  0  0  0  0  0  0  0
    0.6970   61.7140   72.0830 C   0  0  0  0  0  0  0  0  0  0  0  0
    1.9420   61.4630   71.5110 C   0  0  0  0  0  0  0  0  0  0  0  0
    2.6710   62.5080   70.9410 C   0  0  0  0  0  0  0  0  0  0  0  0
    2.1350   63.7950   70.9020 C   0  0  0  0  0  0  0  0  0  0  0  0
    3.9160   62.3440   70.3910 O   0  0  0  0  0  0  0  0  0  0  0  0
    4.4980   61.0920   70.7750 C   0  0  0  0  0  0  0  0  0  0  0  0
    3.4850   59.9660   70.6520 C   0  0  0  0  0  0  0  0  0  0  0  0
    2.3900   60.1700   71.5530 O   0  0  0  0  0  0  0  0  0  0  0  0
   -1.1463   66.2409   69.4192 H   0  0  0  0  0  0  0  0  0  0  0  0
    0.2362   65.4661   68.4819 H   0  0  0  0  0  0  0  0  0  0  0  0
   -0.7595   68.2832   68.4876 H   0  0  0  0  0  0  0  0  0  0  0  0
   -0.9503   66.2119   66.7008 H   0  0  0  0  0  0  0  0  0  0  0  0
   -1.0267   67.9769   66.2715 H   0  0  0  0  0  0  0  0  0  0  0  0
    1.4784   66.2476   66.2031 H   0  0  0  0  0  0  0  0  0  0  0  0
    0.4714   66.7243   64.7772 H   0  0  0  0  0  0  0  0  0  0  0  0
    2.4763   69.7148   67.0966 H   0  0  0  0  0  0  0  0  0  0  0  0
    0.6834   69.8494   66.9322 H   0  0  0  0  0  0  0  0  0  0  0  0
    2.1383   67.4679   68.1647 H   0  0  0  0  0  0  0  0  0  0  0  0
    1.4141   68.8349   69.0955 H   0  0  0  0  0  0  0  0  0  0  0  0
    0.3894   70.0134   65.0030 H   0  0  0  0  0  0  0  0  0  0  0  0
    1.7769   69.6200   63.9321 H   0  0  0  0  0  0  0  0  0  0  0  0
    0.3173   68.5730   63.9321 H   0  0  0  0  0  0  0  0  0  0  0  0
    3.3169   67.0473   65.7004 H   0  0  0  0  0  0  0  0  0  0  0  0
    3.1591   68.1780   64.2406 H   0  0  0  0  0  0  0  0  0  0  0  0
    3.0769   69.2097   67.8142 H   0  0  0  0  0  0  0  0  0  0  0  0
    4.7442   70.7973   68.7620 H   0  0  0  0  0  0  0  0  0  0  0  0
    6.7212   71.4902   67.4105 H   0  0  0  0  0  0  0  0  0  0  0  0
    7.0435   70.5718   65.1173 H   0  0  0  0  0  0  0  0  0  0  0  0
    5.3822   68.9849   64.1587 H   0  0  0  0  0  0  0  0  0  0  0  0
    1.8242   66.1205   69.9987 H   0  0  0  0  0  0  0  0  0  0  0  0
    0.7565   67.4166   70.6987 H   0  0  0  0  0  0  0  0  0  0  0  0
   -0.8217   63.2012   72.5132 H   0  0  0  0  0  0  0  0  0  0  0  0
    0.1342   60.8948   72.5544 H   0  0  0  0  0  0  0  0  0  0  0  0
    2.7038   64.6118   70.4337 H   0  0  0  0  0  0  0  0  0  0  0  0
    5.3565   60.8778   70.1215 H   0  0  0  0  0  0  0  0  0  0  0  0
    4.8230   61.1610   71.8236 H   0  0  0  0  0  0  0  0  0  0  0  0
    3.1033   59.9346   69.6208 H   0  0  0  0  0  0  0  0  0  0  0  0
    3.9791   59.0163   70.9048 H   0  0  0  0  0  0  0  0  0  0  0  0
  2  1  1  0
  3  2  1  0
  4  3  1  0
  5  4  1  0
  6  5  1  0
  7  6  1  0
  7  2  1  0
  5  8  1  6
  9  5  1  0
 10  9  1  0
 11 10  2  0
 12 11  1  0
 13 12  2  0
 14 13  1  0
 15 14  2  0
 15 10  1  0
 16  1  1  0
 18 17  2  0
 18 16  1  0
 19 18  1  0
 20 19  2  0
 21 20  1  0
 22 21  2  0
 23 22  1  0
 24 23  2  0
 24 19  1  0
 25 23  1  0
 26 25  1  0
 27 26  1  0
 28 27  1  0
 28 22  1  0
  1 29  1  0
  1 30  1  0
  2 31  1  1
  3 32  1  0
  3 33  1  0
  4 34  1  0
  4 35  1  0
  6 36  1  0
  6 37  1  0
  7 38  1  0
  7 39  1  0
  8 40  1  0
  8 41  1  0
  8 42  1  0
  9 43  1  0
  9 44  1  0
 11 45  1  0
 12 46  1  0
 13 47  1  0
 14 48  1  0
 15 49  1  0
 16 50  1  0
 16 51  1  0
 20 52  1  0
 21 53  1  0
 24 54  1  0
 26 55  1  0
 26 56  1  0
 27 57  1  0
 27 58  1  0
M  CHG  1   5   1
M  END
>  <score>  (7) 
-8.468

$$$$
=
     RDKit          3D

 58 61  0  0  0  0  0  0  0  0999 V2000
    1.0460   64.7870   70.6490 C   0  0  0  0  0  0  0  0  0  0  0  0
    0.3200   63.7320   71.5140 C   0  0  2  0  0  0  0  0  0  0  0  0
    0.3130   64.1370   73.0020 C   0  0  0  0  0  0  0  0  0  0  0  0
    1.3450   63.3680   73.8170 C   0  0  0  0  0  0  0  0  0  0  0  0
    1.0540   61.8560   73.8000 N   0  0  2  0  0  4  0  0  0  0  0  0
    0.4520   61.4010   72.4480 C   0  0  0  0  0  0  0  0  0  0  0  0
    0.8990   62.3200   71.3240 C   0  0  0  0  0  0  0  0  0  0  0  0
    0.0480   61.5170   74.9020 C   0  0  0  0  0  0  0  0  0  0  0  0
    2.3680   61.0610   74.0380 C   0  0  0  0  0  0  0  0  0  0  0  0
    3.2910   60.9030   72.8530 C   0  0  0  0  0  0  0  0  0  0  0  0
    4.2200   61.9070   72.5330 C   0  0  0  0  0  0  0  0  0  0  0  0
    5.0670   61.7680   71.4320 C   0  0  0  0  0  0  0  0  0  0  0  0
    5.0040   60.6230   70.6430 C   0  0  0  0  0  0  0  0  0  0  0  0
    4.1020   59.6110   70.9590 C   0  0  0  0  0  0  0  0  0  0  0  0
    3.2530   59.7470   72.0590 C   0  0  0  0  0  0  0  0  0  0  0  0
    0.2260   66.0350   70.3130 C   0  0  0  0  0  0  0  0  0  0  0  0
    2.0580   67.5050   69.8990 O   0  0  0  0  0  0  0  0  0  0  0  0
    1.0030   67.0310   69.4720 C   0  0  0  0  0  0  0  0  0  0  0  0
    0.5110   67.4230   68.1180 C   0  0  0  0  0  0  0  0  0  0  0  0
   -0.8470   67.4000   67.7740 C   0  0  0  0  0  0  0  0  0  0  0  0
   -1.2510   67.7780   66.4890 C   0  0  0  0  0  0  0  0  0  0  0  0
   -0.3050   68.1770   65.5480 C   0  0  0  0  0  0  0  0  0  0  0  0
    1.0520   68.1680   65.8760 C   0  0  0  0  0  0  0  0  0  0  0  0
    1.4590   67.8060   67.1590 C   0  0  0  0  0  0  0  0  0  0  0  0
    2.0410   68.5140   64.9910 O   0  0  0  0  0  0  0  0  0  0  0  0
    1.5540   68.5410   63.6430 C   0  0  0  0  0  0  0  0  0  0  0  0
    0.2170   69.2590   63.5680 C   0  0  0  0  0  0  0  0  0  0  0  0
   -0.7790   68.5530   64.3190 O   0  0  0  0  0  0  0  0  0  0  0  0
    1.9475   65.1087   71.1910 H   0  0  0  0  0  0  0  0  0  0  0  0
    1.2605   64.2966   69.6880 H   0  0  0  0  0  0  0  0  0  0  0  0
   -0.7227   63.6984   71.1651 H   0  0  0  0  0  0  0  0  0  0  0  0
    0.5334   65.2121   73.0767 H   0  0  0  0  0  0  0  0  0  0  0  0
   -0.6809   63.9005   73.4097 H   0  0  0  0  0  0  0  0  0  0  0  0
    2.3435   63.5460   73.3912 H   0  0  0  0  0  0  0  0  0  0  0  0
    1.2989   63.7198   74.8582 H   0  0  0  0  0  0  0  0  0  0  0  0
    0.7865   60.3759   72.2307 H   0  0  0  0  0  0  0  0  0  0  0  0
   -0.6451   61.4378   72.5194 H   0  0  0  0  0  0  0  0  0  0  0  0
    1.9975   62.3776   71.3199 H   0  0  0  0  0  0  0  0  0  0  0  0
    0.5347   61.9138   70.3689 H   0  0  0  0  0  0  0  0  0  0  0  0
    0.5147   61.6743   75.8856 H   0  0  0  0  0  0  0  0  0  0  0  0
   -0.8338   62.1676   74.8063 H   0  0  0  0  0  0  0  0  0  0  0  0
   -0.2602   60.4654   74.8063 H   0  0  0  0  0  0  0  0  0  0  0  0
    2.9297   61.5759   74.8313 H   0  0  0  0  0  0  0  0  0  0  0  0
    2.0457   60.0401   74.2906 H   0  0  0  0  0  0  0  0  0  0  0  0
    4.2806   62.8115   73.1560 H   0  0  0  0  0  0  0  0  0  0  0  0
    5.7852   62.5645   71.1876 H   0  0  0  0  0  0  0  0  0  0  0  0
    5.6661   60.5180   69.7709 H   0  0  0  0  0  0  0  0  0  0  0  0
    4.0580   58.7022   70.3408 H   0  0  0  0  0  0  0  0  0  0  0  0
    2.5474   58.9399   72.3055 H   0  0  0  0  0  0  0  0  0  0  0  0
   -0.6719   65.7280   69.7567 H   0  0  0  0  0  0  0  0  0  0  0  0
   -0.0349   66.5290   71.2606 H   0  0  0  0  0  0  0  0  0  0  0  0
   -1.5963   67.0844   68.5150 H   0  0  0  0  0  0  0  0  0  0  0  0
   -2.3178   67.7600   66.2214 H   0  0  0  0  0  0  0  0  0  0  0  0
    2.5275   67.8209   67.4198 H   0  0  0  0  0  0  0  0  0  0  0  0
    2.2818   69.0660   63.0068 H   0  0  0  0  0  0  0  0  0  0  0  0
    1.4191   67.5061   63.2955 H   0  0  0  0  0  0  0  0  0  0  0  0
    0.3280   70.2732   63.9792 H   0  0  0  0  0  0  0  0  0  0  0  0
   -0.1007   69.3069   62.5160 H   0  0  0  0  0  0  0  0  0  0  0  0
  2  1  1  0
  3  2  1  0
  4  3  1  0
  5  4  1  0
  6  5  1  0
  7  6  1  0
  7  2  1  0
  5  8  1  1
  9  5  1  0
 10  9  1  0
 11 10  2  0
 12 11  1  0
 13 12  2  0
 14 13  1  0
 15 14  2  0
 15 10  1  0
 16  1  1  0
 18 17  2  0
 18 16  1  0
 19 18  1  0
 20 19  2  0
 21 20  1  0
 22 21  2  0
 23 22  1  0
 24 23  2  0
 24 19  1  0
 25 23  1  0
 26 25  1  0
 27 26  1  0
 28 27  1  0
 28 22  1  0
  1 29  1  0
  1 30  1  0
  2 31  1  6
  3 32  1  0
  3 33  1  0
  4 34  1  0
  4 35  1  0
  6 36  1  0
  6 37  1  0
  7 38  1  0
  7 39  1  0
  8 40  1  0
  8 41  1  0
  8 42  1  0
  9 43  1  0
  9 44  1  0
 11 45  1  0
 12 46  1  0
 13 47  1  0
 14 48  1  0
 15 49  1  0
 16 50  1  0
 16 51  1  0
 20 52  1  0
 21 53  1  0
 24 54  1  0
 26 55  1  0
 26 56  1  0
 27 57  1  0
 27 58  1  0
M  CHG  1   5   1
M  END
>  <score>  (8) 
-8.38

$$$$
=
     RDKit          3D

 58 61  0  0  0  0  0  0  0  0999 V2000
    3.2640   58.7420   73.3960 C   0  0  0  0  0  0  0  0  0  0  0  0
    4.1510   59.6110   72.4750 C   0  0  2  0  0  0  0  0  0  0  0  0
    4.2740   61.0510   73.0120 C   0  0  0  0  0  0  0  0  0  0  0  0
    3.3900   62.0300   72.2510 C   0  0  0  0  0  0  0  0  0  0  0  0
    3.7940   62.1080   70.7670 N   0  0  2  0  0  4  0  0  0  0  0  0
    4.2910   60.7430   70.2340 C   0  0  0  0  0  0  0  0  0  0  0  0
    3.6660   59.6000   71.0160 C   0  0  0  0  0  0  0  0  0  0  0  0
    4.9260   63.1220   70.5970 C   0  0  0  0  0  0  0  0  0  0  0  0
    2.5740   62.5480   69.9090 C   0  0  0  0  0  0  0  0  0  0  0  0
    1.7060   63.6460   70.4740 C   0  0  0  0  0  0  0  0  0  0  0  0
    0.8670   63.3990   71.5740 C   0  0  0  0  0  0  0  0  0  0  0  0
    0.0560   64.4100   72.0920 C   0  0  0  0  0  0  0  0  0  0  0  0
    0.0790   65.6820   71.5260 C   0  0  0  0  0  0  0  0  0  0  0  0
    0.9180   65.9470   70.4480 C   0  0  0  0  0  0  0  0  0  0  0  0
    1.7310   64.9380   69.9270 C   0  0  0  0  0  0  0  0  0  0  0  0
    2.1210   58.0020   72.6950 C   0  0  0  0  0  0  0  0  0  0  0  0
    0.8990   56.6910   74.2670 O   0  0  0  0  0  0  0  0  0  0  0  0
    0.9480   57.7390   73.6190 C   0  0  0  0  0  0  0  0  0  0  0  0
   -0.1390   58.7510   73.7690 C   0  0  0  0  0  0  0  0  0  0  0  0
   -0.0560   60.0350   73.2140 C   0  0  0  0  0  0  0  0  0  0  0  0
   -1.1050   60.9440   73.3870 C   0  0  0  0  0  0  0  0  0  0  0  0
   -2.2350   60.5760   74.1130 C   0  0  0  0  0  0  0  0  0  0  0  0
   -2.3080   59.3100   74.6970 C   0  0  0  0  0  0  0  0  0  0  0  0
   -1.2710   58.3950   74.5170 C   0  0  0  0  0  0  0  0  0  0  0  0
   -3.3720   58.8910   75.4540 O   0  0  0  0  0  0  0  0  0  0  0  0
   -4.2020   59.9920   75.8470 C   0  0  0  0  0  0  0  0  0  0  0  0
   -4.4560   60.9220   74.6730 C   0  0  0  0  0  0  0  0  0  0  0  0
   -3.2300   61.5120   74.2200 O   0  0  0  0  0  0  0  0  0  0  0  0
    3.9079   57.9927   73.8797 H   0  0  0  0  0  0  0  0  0  0  0  0
    2.7880   59.4366   74.1038 H   0  0  0  0  0  0  0  0  0  0  0  0
    5.1539   59.1591   72.4811 H   0  0  0  0  0  0  0  0  0  0  0  0
    3.9800   61.0594   74.0719 H   0  0  0  0  0  0  0  0  0  0  0  0
    5.3186   61.3702   72.8819 H   0  0  0  0  0  0  0  0  0  0  0  0
    2.3437   61.6977   72.3210 H   0  0  0  0  0  0  0  0  0  0  0  0
    3.5109   63.0279   72.6977 H   0  0  0  0  0  0  0  0  0  0  0  0
    4.0154   60.6477   69.1733 H   0  0  0  0  0  0  0  0  0  0  0  0
    5.3837   60.6949   70.3508 H   0  0  0  0  0  0  0  0  0  0  0  0
    2.5713   59.7065   70.9985 H   0  0  0  0  0  0  0  0  0  0  0  0
    3.9642   58.6487   70.5512 H   0  0  0  0  0  0  0  0  0  0  0  0
    5.2833   63.4421   71.5869 H   0  0  0  0  0  0  0  0  0  0  0  0
    5.7537   62.6577   70.0409 H   0  0  0  0  0  0  0  0  0  0  0  0
    4.5552   63.9957   70.0409 H   0  0  0  0  0  0  0  0  0  0  0  0
    2.9574   62.8934   68.9376 H   0  0  0  0  0  0  0  0  0  0  0  0
    1.9228   61.6629   69.8589 H   0  0  0  0  0  0  0  0  0  0  0  0
    0.8492   62.3988   72.0314 H   0  0  0  0  0  0  0  0  0  0  0  0
   -0.6021   64.2016   72.9484 H   0  0  0  0  0  0  0  0  0  0  0  0
   -0.5653   66.4764   71.9306 H   0  0  0  0  0  0  0  0  0  0  0  0
    0.9410   66.9536   70.0051 H   0  0  0  0  0  0  0  0  0  0  0  0
    2.3972   65.1582   69.0799 H   0  0  0  0  0  0  0  0  0  0  0  0
    1.7732   58.6113   71.8478 H   0  0  0  0  0  0  0  0  0  0  0  0
    2.5082   57.0283   72.3602 H   0  0  0  0  0  0  0  0  0  0  0  0
    0.8359   60.3287   72.6411 H   0  0  0  0  0  0  0  0  0  0  0  0
   -1.0373   61.9508   72.9490 H   0  0  0  0  0  0  0  0  0  0  0  0
   -1.3409   57.3918   74.9627 H   0  0  0  0  0  0  0  0  0  0  0  0
   -5.1636   59.6052   76.2153 H   0  0  0  0  0  0  0  0  0  0  0  0
   -3.6877   60.5562   76.6389 H   0  0  0  0  0  0  0  0  0  0  0  0
   -4.9071   60.3491   73.8494 H   0  0  0  0  0  0  0  0  0  0  0  0
   -5.1359   61.7236   74.9972 H   0  0  0  0  0  0  0  0  0  0  0  0
  2  1  1  0
  3  2  1  0
  4  3  1  0
  5  4  1  0
  6  5  1  0
  7  6  1  0
  7  2  1  0
  5  8  1  1
  9  5  1  0
 10  9  1  0
 11 10  2  0
 12 11  1  0
 13 12  2  0
 14 13  1  0
 15 14  2  0
 15 10  1  0
 16  1  1  0
 18 17  2  0
 18 16  1  0
 19 18  1  0
 20 19  2  0
 21 20  1  0
 22 21  2  0
 23 22  1  0
 24 23  2  0
 24 19  1  0
 25 23  1  0
 26 25  1  0
 27 26  1  0
 28 27  1  0
 28 22  1  0
  1 29  1  0
  1 30  1  0
  2 31  1  6
  3 32  1  0
  3 33  1  0
  4 34  1  0
  4 35  1  0
  6 36  1  0
  6 37  1  0
  7 38  1  0
  7 39  1  0
  8 40  1  0
  8 41  1  0
  8 42  1  0
  9 43  1  0
  9 44  1  0
 11 45  1  0
 12 46  1  0
 13 47  1  0
 14 48  1  0
 15 49  1  0
 16 50  1  0
 16 51  1  0
 20 52  1  0
 21 53  1  0
 24 54  1  0
 26 55  1  0
 26 56  1  0
 27 57  1  0
 27 58  1  0
M  CHG  1   5   1
M  END
>  <score>  (9) 
-8.143

$$$$
