=
     RDKit          3D

 61 64  0  0  0  0  0  0  0  0999 V2000
    3.0620   61.9310   70.3910 C   0  0  1  0  0  0  0  0  0  0  0  0
    3.7530   60.8620   69.5130 C   0  0  0  0  0  0  0  0  0  0  0  0
    3.5800   59.5150   70.2490 C   0  0  0  0  0  0  0  0  0  0  0  0
    2.6230   59.8260   71.3970 C   0  0  2  0  0  0  0  0  0  0  0  0
    3.0030   61.2670   71.8010 C   0  0  1  0  0  0  0  0  0  0  0  0
    4.3950   61.3650   72.4800 C   0  0  0  0  0  0  0  0  0  0  0  0
    1.9000   61.7780   72.7520 C   0  0  0  0  0  0  0  0  0  0  0  0
    1.6880   60.8660   73.9820 C   0  0  1  0  0  0  0  0  0  0  0  0
    1.4850   59.3640   73.6040 C   0  0  1  0  0  0  0  0  0  0  0  0
    2.5530   58.8530   72.5850 C   0  0  1  0  0  0  0  0  0  0  0  0
    2.1910   57.4400   72.0990 C   0  0  0  0  0  0  0  0  0  0  0  0
    2.0570   56.4600   73.2580 C   0  0  0  0  0  0  0  0  0  0  0  0
    1.0840   56.9420   74.3060 C   0  0  0  0  0  0  0  0  0  0  0  0
    0.1200   56.1180   74.7550 C   0  0  0  0  0  0  0  0  0  0  0  0
   -0.7630   56.4930   75.8830 C   0  0  0  0  0  0  0  0  0  0  0  0
   -1.6470   55.7190   76.2430 O   0  0  0  0  0  0  0  0  0  0  0  0
   -0.4730   57.7800   76.6090 C   0  0  0  0  0  0  0  0  0  0  0  0
    0.0470   58.8310   75.6400 C   0  0  0  0  0  0  0  0  0  0  0  0
    1.2970   58.3760   74.8290 C   0  0  2  0  0  0  0  0  0  0  0  0
    2.5180   58.3270   75.7770 C   0  0  0  0  0  0  0  0  0  0  0  0
    0.2820   59.3390   72.9110 F   0  0  0  0  0  0  0  0  0  0  0  0
    3.6570   63.3510   70.3880 C   0  0  0  0  0  0  0  0  0  0  0  0
    4.8630   63.4970   70.1440 O   0  0  0  0  0  0  0  0  0  0  0  0
    2.7590   64.5360   70.7340 C   0  0  0  0  0  0  0  0  0  0  0  0
    1.8460   64.8580   69.6830 O   0  0  0  0  0  0  0  0  0  0  0  0
    0.3590   64.9370   71.4960 C   0  0  0  0  0  0  0  0  0  0  0  0
    0.6730   65.4030   70.1080 C   0  0  0  0  0  0  0  0  0  0  0  0
   -0.0330   66.1520   69.4480 O   0  0  0  0  0  0  0  0  0  0  0  0
    1.7310   62.0900   69.8610 O   0  0  0  0  0  0  0  0  0  0  0  0
    2.7560   61.0590   74.9030 O   0  0  0  0  0  0  0  0  0  0  0  0
    3.2773   60.8180   68.5222 H   0  0  0  0  0  0  0  0  0  0  0  0
    4.8161   61.0987   69.3591 H   0  0  0  0  0  0  0  0  0  0  0  0
    3.1487   58.7579   69.5777 H   0  0  0  0  0  0  0  0  0  0  0  0
    4.5379   59.1058   70.6026 H   0  0  0  0  0  0  0  0  0  0  0  0
    1.5883   59.7052   71.0438 H   0  0  0  0  0  0  0  0  0  0  0  0
    4.2712   61.3563   73.5730 H   0  0  0  0  0  0  0  0  0  0  0  0
    5.0133   60.5082   72.1742 H   0  0  0  0  0  0  0  0  0  0  0  0
    4.8871   62.3000   72.1742 H   0  0  0  0  0  0  0  0  0  0  0  0
    2.1795   62.7817   73.1047 H   0  0  0  0  0  0  0  0  0  0  0  0
    0.9574   61.7877   72.1851 H   0  0  0  0  0  0  0  0  0  0  0  0
    0.7458   61.1595   74.4679 H   0  0  0  0  0  0  0  0  0  0  0  0
    3.5361   58.8068   73.0763 H   0  0  0  0  0  0  0  0  0  0  0  0
    1.2346   57.4839   71.5574 H   0  0  0  0  0  0  0  0  0  0  0  0
    3.0005   57.0860   71.4437 H   0  0  0  0  0  0  0  0  0  0  0  0
    1.7050   55.4944   72.8659 H   0  0  0  0  0  0  0  0  0  0  0  0
    3.0442   56.3646   73.7338 H   0  0  0  0  0  0  0  0  0  0  0  0
   -0.0159   55.1395   74.2712 H   0  0  0  0  0  0  0  0  0  0  0  0
   -1.3972   58.1467   77.0795 H   0  0  0  0  0  0  0  0  0  0  0  0
    0.2931   57.5919   77.3756 H   0  0  0  0  0  0  0  0  0  0  0  0
   -0.7567   59.0757   74.9299 H   0  0  0  0  0  0  0  0  0  0  0  0
    0.3549   59.6979   76.2431 H   0  0  0  0  0  0  0  0  0  0  0  0
    2.1723   58.3409   76.8212 H   0  0  0  0  0  0  0  0  0  0  0  0
    3.0891   57.4052   75.5920 H   0  0  0  0  0  0  0  0  0  0  0  0
    3.1611   59.2001   75.5920 H   0  0  0  0  0  0  0  0  0  0  0  0
    2.1829   64.2895   71.6381 H   0  0  0  0  0  0  0  0  0  0  0  0
    3.4072   65.4106   70.8923 H   0  0  0  0  0  0  0  0  0  0  0  0
    0.8193   65.6201   72.2250 H   0  0  0  0  0  0  0  0  0  0  0  0
   -0.7313   64.9262   71.6413 H   0  0  0  0  0  0  0  0  0  0  0  0
    0.7584   63.9224   71.6413 H   0  0  0  0  0  0  0  0  0  0  0  0
    1.0855   62.1671   70.6077 H   0  0  0  0  0  0  0  0  0  0  0  0
    2.4093   60.9963   75.8282 H   0  0  0  0  0  0  0  0  0  0  0  0
  2  1  1  0
  3  2  1  0
  4  3  1  0
  5  4  1  0
  5  1  1  0
  5  6  1  1
  7  5  1  0
  8  7  1  0
  9  8  1  0
 10  9  1  0
 10  4  1  0
 11 10  1  0
 12 11  1  0
 13 12  1  0
 14 13  2  0
 15 14  1  0
 16 15  2  0
 17 15  1  0
 18 17  1  0
 19 18  1  0
 19 13  1  0
 19  9  1  0
 19 20  1  1
  9 21  1  6
 22  1  1  0
 23 22  2  0
 24 22  1  0
 25 24  1  0
 27 25  1  0
 27 26  1  0
 28 27  2  0
  1 29  1  6
 30  8  1  0
  2 31  1  0
  2 32  1  0
  3 33  1  0
  3 34  1  0
  4 35  1  6
  6 36  1  0
  6 37  1  0
  6 38  1  0
  7 39  1  0
  7 40  1  0
  8 41  1  1
 10 42  1  1
 11 43  1  0
 11 44  1  0
 12 45  1  0
 12 46  1  0
 14 47  1  0
 17 48  1  0
 17 49  1  0
 18 50  1  0
 18 51  1  0
 20 52  1  0
 20 53  1  0
 20 54  1  0
 24 55  1  0
 24 56  1  0
 26 57  1  0
 26 58  1  0
 26 59  1  0
 29 60  1  0
 30 61  1  0
M  END
>  <score>  (1) 
-8.427

$$$$
=
     RDKit          3D

 61 64  0  0  0  0  0  0  0  0999 V2000
    3.6410   60.2230   71.2220 C   0  0  1  0  0  0  0  0  0  0  0  0
    3.8020   58.6870   71.1220 C   0  0  0  0  0  0  0  0  0  0  0  0
    2.7060   58.0760   72.0230 C   0  0  0  0  0  0  0  0  0  0  0  0
    1.8350   59.2630   72.4260 C   0  0  2  0  0  0  0  0  0  0  0  0
    2.8460   60.4250   72.5480 C   0  0  1  0  0  0  0  0  0  0  0  0
    3.8060   60.2770   73.7570 C   0  0  0  0  0  0  0  0  0  0  0  0
    2.0280   61.7280   72.6620 C   0  0  0  0  0  0  0  0  0  0  0  0
    1.0190   61.7120   73.8330 C   0  0  1  0  0  0  0  0  0  0  0  0
    0.1050   60.4440   73.8360 C   0  0  1  0  0  0  0  0  0  0  0  0
    0.9130   59.1220   73.6490 C   0  0  1  0  0  0  0  0  0  0  0  0
   -0.0460   57.9350   73.4610 C   0  0  0  0  0  0  0  0  0  0  0  0
   -1.0140   57.7990   74.6300 C   0  0  0  0  0  0  0  0  0  0  0  0
   -1.7730   59.0770   74.8960 C   0  0  0  0  0  0  0  0  0  0  0  0
   -3.1110   59.0450   75.0300 C   0  0  0  0  0  0  0  0  0  0  0  0
   -3.8820   60.2430   75.4350 C   0  0  0  0  0  0  0  0  0  0  0  0
   -5.1060   60.1740   75.5200 O   0  0  0  0  0  0  0  0  0  0  0  0
   -3.1140   61.4790   75.8220 C   0  0  0  0  0  0  0  0  0  0  0  0
   -1.8550   61.6080   74.9790 C   0  0  0  0  0  0  0  0  0  0  0  0
   -0.9280   60.3570   75.0350 C   0  0  2  0  0  0  0  0  0  0  0  0
   -0.2550   60.2970   76.4270 C   0  0  0  0  0  0  0  0  0  0  0  0
   -0.6630   60.5670   72.6860 F   0  0  0  0  0  0  0  0  0  0  0  0
    4.9150   61.0820   71.1140 C   0  0  0  0  0  0  0  0  0  0  0  0
    6.0100   60.5180   70.9790 O   0  0  0  0  0  0  0  0  0  0  0  0
    4.8010   62.5990   71.2270 C   0  0  0  0  0  0  0  0  0  0  0  0
    4.7820   63.2450   69.9520 O   0  0  0  0  0  0  0  0  0  0  0  0
    2.7230   64.2870   70.3740 C   0  0  0  0  0  0  0  0  0  0  0  0
    3.5350   63.4410   69.4420 C   0  0  0  0  0  0  0  0  0  0  0  0
    3.1290   62.9830   68.3840 O   0  0  0  0  0  0  0  0  0  0  0  0
    2.8360   60.6180   70.0940 O   0  0  0  0  0  0  0  0  0  0  0  0
    1.7170   61.8860   75.0610 O   0  0  0  0  0  0  0  0  0  0  0  0
    3.6672   58.3570   70.0814 H   0  0  0  0  0  0  0  0  0  0  0  0
    4.8053   58.3688   71.4416 H   0  0  0  0  0  0  0  0  0  0  0  0
    2.1162   57.3321   71.4673 H   0  0  0  0  0  0  0  0  0  0  0  0
    3.1257   57.5511   72.8938 H   0  0  0  0  0  0  0  0  0  0  0  0
    1.0545   59.4093   71.6648 H   0  0  0  0  0  0  0  0  0  0  0  0
    3.2339   60.3652   74.6924 H   0  0  0  0  0  0  0  0  0  0  0  0
    4.2956   59.2928   73.7181 H   0  0  0  0  0  0  0  0  0  0  0  0
    4.5693   61.0681   73.7181 H   0  0  0  0  0  0  0  0  0  0  0  0
    2.7244   62.5662   72.8118 H   0  0  0  0  0  0  0  0  0  0  0  0
    1.4491   61.8334   71.7326 H   0  0  0  0  0  0  0  0  0  0  0  0
    0.3252   62.5551   73.6998 H   0  0  0  0  0  0  0  0  0  0  0  0
    1.5222   58.9346   74.5455 H   0  0  0  0  0  0  0  0  0  0  0  0
   -0.6229   58.0863   72.5367 H   0  0  0  0  0  0  0  0  0  0  0  0
    0.5549   57.0153   73.4059 H   0  0  0  0  0  0  0  0  0  0  0  0
   -1.7349   57.0002   74.4014 H   0  0  0  0  0  0  0  0  0  0  0  0
   -0.4256   57.5633   75.5290 H   0  0  0  0  0  0  0  0  0  0  0  0
   -3.6466   58.1045   74.8337 H   0  0  0  0  0  0  0  0  0  0  0  0
   -3.7481   62.3638   75.6638 H   0  0  0  0  0  0  0  0  0  0  0  0
   -2.8273   61.4032   76.8813 H   0  0  0  0  0  0  0  0  0  0  0  0
   -2.1536   61.7715   73.9330 H   0  0  0  0  0  0  0  0  0  0  0  0
   -1.2799   62.4507   75.3901 H   0  0  0  0  0  0  0  0  0  0  0  0
   -1.0248   60.3656   77.2097 H   0  0  0  0  0  0  0  0  0  0  0  0
    0.2894   59.3468   76.5304 H   0  0  0  0  0  0  0  0  0  0  0  0
    0.4489   61.1360   76.5304 H   0  0  0  0  0  0  0  0  0  0  0  0
    3.8703   62.8437   71.7599 H   0  0  0  0  0  0  0  0  0  0  0  0
    5.6865   62.9602   71.7705 H   0  0  0  0  0  0  0  0  0  0  0  0
    2.9711   64.0285   71.4140 H   0  0  0  0  0  0  0  0  0  0  0  0
    2.9488   65.3488   70.1962 H   0  0  0  0  0  0  0  0  0  0  0  0
    1.6528   64.1049   70.1962 H   0  0  0  0  0  0  0  0  0  0  0  0
    1.9957   61.0303   70.4165 H   0  0  0  0  0  0  0  0  0  0  0  0
    1.0974   61.7315   75.8175 H   0  0  0  0  0  0  0  0  0  0  0  0
  2  1  1  0
  3  2  1  0
  4  3  1  0
  5  4  1  0
  5  1  1  0
  5  6  1  1
  7  5  1  0
  8  7  1  0
  9  8  1  0
 10  9  1  0
 10  4  1  0
 11 10  1  0
 12 11  1  0
 13 12  1  0
 14 13  2  0
 15 14  1  0
 16 15  2  0
 17 15  1  0
 18 17  1  0
 19 18  1  0
 19 13  1  0
 19  9  1  0
 19 20  1  1
  9 21  1  6
 22  1  1  0
 23 22  2  0
 24 22  1  0
 25 24  1  0
 27 25  1  0
 27 26  1  0
 28 27  2  0
  1 29  1  6
 30  8  1  0
  2 31  1  0
  2 32  1  0
  3 33  1  0
  3 34  1  0
  4 35  1  6
  6 36  1  0
  6 37  1  0
  6 38  1  0
  7 39  1  0
  7 40  1  0
  8 41  1  6
 10 42  1  1
 11 43  1  0
 11 44  1  0
 12 45  1  0
 12 46  1  0
 14 47  1  0
 17 48  1  0
 17 49  1  0
 18 50  1  0
 18 51  1  0
 20 52  1  0
 20 53  1  0
 20 54  1  0
 24 55  1  0
 24 56  1  0
 26 57  1  0
 26 58  1  0
 26 59  1  0
 29 60  1  0
 30 61  1  0
M  END
>  <score>  (2) 
-8.2

$$$$
=
     RDKit          3D

 61 64  0  0  0  0  0  0  0  0999 V2000
    0.0370   56.5730   74.7900 C   0  0  1  0  0  0  0  0  0  0  0  0
   -1.2920   57.3040   75.0910 C   0  0  0  0  0  0  0  0  0  0  0  0
   -1.1460   58.7290   74.5130 C   0  0  0  0  0  0  0  0  0  0  0  0
    0.1610   58.6900   73.7230 C   0  0  2  0  0  0  0  0  0  0  0  0
    1.0500   57.7340   74.5490 C   0  0  1  0  0  0  0  0  0  0  0  0
    1.4910   58.3310   75.9110 C   0  0  0  0  0  0  0  0  0  0  0  0
    2.2810   57.3970   73.6810 C   0  0  0  0  0  0  0  0  0  0  0  0
    3.0550   58.6510   73.2120 C   0  0  1  0  0  0  0  0  0  0  0  0
    2.1370   59.7200   72.5370 C   0  0  1  0  0  0  0  0  0  0  0  0
    0.8510   60.0180   73.3700 C   0  0  1  0  0  0  0  0  0  0  0  0
   -0.1040   60.9200   72.5700 C   0  0  0  0  0  0  0  0  0  0  0  0
    0.5660   62.2230   72.1520 C   0  0  0  0  0  0  0  0  0  0  0  0
    1.8540   61.9890   71.4010 C   0  0  0  0  0  0  0  0  0  0  0  0
    2.0720   62.6210   70.2340 C   0  0  0  0  0  0  0  0  0  0  0  0
    3.3750   62.5380   69.5340 C   0  0  0  0  0  0  0  0  0  0  0  0
    3.5210   63.1110   68.4570 O   0  0  0  0  0  0  0  0  0  0  0  0
    4.5060   61.8280   70.2300 C   0  0  0  0  0  0  0  0  0  0  0  0
    3.9780   60.6530   71.0400 C   0  0  0  0  0  0  0  0  0  0  0  0
    2.8720   61.0430   72.0660 C   0  0  2  0  0  0  0  0  0  0  0  0
    3.5230   61.8340   73.2250 C   0  0  0  0  0  0  0  0  0  0  0  0
    1.6850   59.1070   71.3760 F   0  0  0  0  0  0  0  0  0  0  0  0
    0.5180   55.5180   75.8050 C   0  0  0  0  0  0  0  0  0  0  0  0
   -0.0520   55.4380   76.9020 O   0  0  0  0  0  0  0  0  0  0  0  0
    1.7120   54.6360   75.4520 C   0  0  0  0  0  0  0  0  0  0  0  0
    1.3950   53.6490   74.4690 O   0  0  0  0  0  0  0  0  0  0  0  0
   -0.4970   52.3110   74.1040 C   0  0  0  0  0  0  0  0  0  0  0  0
    0.7070   52.5790   74.9530 C   0  0  0  0  0  0  0  0  0  0  0  0
    1.0160   51.9360   75.9460 O   0  0  0  0  0  0  0  0  0  0  0  0
   -0.1750   55.8360   73.5690 O   0  0  0  0  0  0  0  0  0  0  0  0
    3.8020   59.1800   74.3020 O   0  0  0  0  0  0  0  0  0  0  0  0
   -2.1313   56.7818   74.6084 H   0  0  0  0  0  0  0  0  0  0  0  0
   -1.4968   57.3308   76.1714 H   0  0  0  0  0  0  0  0  0  0  0  0
   -1.9923   58.9692   73.8526 H   0  0  0  0  0  0  0  0  0  0  0  0
   -1.1372   59.4996   75.2979 H   0  0  0  0  0  0  0  0  0  0  0  0
   -0.0494   58.3527   72.6973 H   0  0  0  0  0  0  0  0  0  0  0  0
    1.0542   57.7396   76.7292 H   0  0  0  0  0  0  0  0  0  0  0  0
    2.5882   58.3047   75.9848 H   0  0  0  0  0  0  0  0  0  0  0  0
    1.1434   59.3720   75.9848 H   0  0  0  0  0  0  0  0  0  0  0  0
    2.9622   56.7653   74.2700 H   0  0  0  0  0  0  0  0  0  0  0  0
    1.9158   56.8814   72.7805 H   0  0  0  0  0  0  0  0  0  0  0  0
    3.7551   58.3465   72.4201 H   0  0  0  0  0  0  0  0  0  0  0  0
    1.1271   60.5439   74.2959 H   0  0  0  0  0  0  0  0  0  0  0  0
   -0.4300   60.3818   71.6678 H   0  0  0  0  0  0  0  0  0  0  0  0
   -0.9608   61.1672   73.2140 H   0  0  0  0  0  0  0  0  0  0  0  0
   -0.1241   62.7839   71.5047 H   0  0  0  0  0  0  0  0  0  0  0  0
    0.8066   62.7862   73.0658 H   0  0  0  0  0  0  0  0  0  0  0  0
    1.2612   63.2153   69.7874 H   0  0  0  0  0  0  0  0  0  0  0  0
    5.2189   61.4585   69.4782 H   0  0  0  0  0  0  0  0  0  0  0  0
    5.0050   62.5340   70.9101 H   0  0  0  0  0  0  0  0  0  0  0  0
    3.5591   59.9119   70.3434 H   0  0  0  0  0  0  0  0  0  0  0  0
    4.8254   60.2556   71.6179 H   0  0  0  0  0  0  0  0  0  0  0  0
    3.1835   61.4215   74.1866 H   0  0  0  0  0  0  0  0  0  0  0  0
    4.6177   61.7507   73.1563 H   0  0  0  0  0  0  0  0  0  0  0  0
    3.2307   62.8922   73.1563 H   0  0  0  0  0  0  0  0  0  0  0  0
    2.5186   55.2745   75.0626 H   0  0  0  0  0  0  0  0  0  0  0  0
    2.0181   54.1081   76.3672 H   0  0  0  0  0  0  0  0  0  0  0  0
   -1.3658   52.1176   74.7504 H   0  0  0  0  0  0  0  0  0  0  0  0
   -0.7000   53.1859   73.4690 H   0  0  0  0  0  0  0  0  0  0  0  0
   -0.3097   51.4326   73.4690 H   0  0  0  0  0  0  0  0  0  0  0  0
   -0.4420   54.9077   73.7860 H   0  0  0  0  0  0  0  0  0  0  0  0
    3.3919   58.8896   75.1550 H   0  0  0  0  0  0  0  0  0  0  0  0
  2  1  1  0
  3  2  1  0
  4  3  1  0
  5  4  1  0
  5  1  1  0
  5  6  1  1
  7  5  1  0
  8  7  1  0
  9  8  1  0
 10  9  1  0
 10  4  1  0
 11 10  1  0
 12 11  1  0
 13 12  1  0
 14 13  2  0
 15 14  1  0
 16 15  2  0
 17 15  1  0
 18 17  1  0
 19 18  1  0
 19 13  1  0
 19  9  1  0
 19 20  1  1
  9 21  1  6
 22  1  1  0
 23 22  2  0
 24 22  1  0
 25 24  1  0
 27 25  1  0
 27 26  1  0
 28 27  2  0
  1 29  1  6
 30  8  1  0
  2 31  1  0
  2 32  1  0
  3 33  1  0
  3 34  1  0
  4 35  1  6
  6 36  1  0
  6 37  1  0
  6 38  1  0
  7 39  1  0
  7 40  1  0
  8 41  1  6
 10 42  1  1
 11 43  1  0
 11 44  1  0
 12 45  1  0
 12 46  1  0
 14 47  1  0
 17 48  1  0
 17 49  1  0
 18 50  1  0
 18 51  1  0
 20 52  1  0
 20 53  1  0
 20 54  1  0
 24 55  1  0
 24 56  1  0
 26 57  1  0
 26 58  1  0
 26 59  1  0
 29 60  1  0
 30 61  1  0
M  END
>  <score>  (3) 
-8.09

$$$$
=
     RDKit          3D

 61 64  0  0  0  0  0  0  0  0999 V2000
    1.0840   63.9900   71.0460 C   0  0  1  0  0  0  0  0  0  0  0  0
    2.6080   64.0070   70.7780 C   0  0  0  0  0  0  0  0  0  0  0  0
    3.1880   62.7630   71.4870 C   0  0  0  0  0  0  0  0  0  0  0  0
    1.9620   61.9760   71.9450 C   0  0  2  0  0  0  0  0  0  0  0  0
    0.9410   63.0780   72.3030 C   0  0  1  0  0  0  0  0  0  0  0  0
    1.3280   63.8800   73.5740 C   0  0  0  0  0  0  0  0  0  0  0  0
   -0.4250   62.3870   72.4940 C   0  0  0  0  0  0  0  0  0  0  0  0
   -0.3930   61.2580   73.5500 C   0  0  1  0  0  0  0  0  0  0  0  0
    0.7570   60.2280   73.3110 C   0  0  1  0  0  0  0  0  0  0  0  0
    2.1330   60.9160   73.0450 C   0  0  1  0  0  0  0  0  0  0  0  0
    3.1780   59.8700   72.6230 C   0  0  0  0  0  0  0  0  0  0  0  0
    3.3320   58.7710   73.6670 C   0  0  0  0  0  0  0  0  0  0  0  0
    2.0140   58.1190   74.0100 C   0  0  0  0  0  0  0  0  0  0  0  0
    1.9110   56.7770   74.0080 C   0  0  0  0  0  0  0  0  0  0  0  0
    0.6860   56.0900   74.4780 C   0  0  0  0  0  0  0  0  0  0  0  0
    0.6270   54.8630   74.4350 O   0  0  0  0  0  0  0  0  0  0  0  0
   -0.4070   56.9300   75.0850 C   0  0  0  0  0  0  0  0  0  0  0  0
   -0.4860   58.2810   74.3900 C   0  0  0  0  0  0  0  0  0  0  0  0
    0.8590   59.0670   74.3850 C   0  0  2  0  0  0  0  0  0  0  0  0
    1.1470   59.5730   75.8180 C   0  0  0  0  0  0  0  0  0  0  0  0
    0.4240   59.6070   72.1150 F   0  0  0  0  0  0  0  0  0  0  0  0
    0.3660   65.3470   71.1680 C   0  0  0  0  0  0  0  0  0  0  0  0
   -0.3600   65.5570   72.1490 O   0  0  0  0  0  0  0  0  0  0  0  0
    0.5280   66.3770   70.0530 C   0  0  0  0  0  0  0  0  0  0  0  0
   -0.3570   66.1420   68.9550 O   0  0  0  0  0  0  0  0  0  0  0  0
    0.9000   67.9740   68.2020 C   0  0  0  0  0  0  0  0  0  0  0  0
   -0.1340   66.9410   67.8760 C   0  0  0  0  0  0  0  0  0  0  0  0
   -0.7040   66.8410   66.7990 O   0  0  0  0  0  0  0  0  0  0  0  0
    0.4800   63.3570   69.9010 O   0  0  0  0  0  0  0  0  0  0  0  0
   -0.3520   61.8320   74.8530 O   0  0  0  0  0  0  0  0  0  0  0  0
    2.8050   63.9555   69.6970 H   0  0  0  0  0  0  0  0  0  0  0  0
    3.0693   64.9322   71.1538 H   0  0  0  0  0  0  0  0  0  0  0  0
    3.7948   62.1662   70.7902 H   0  0  0  0  0  0  0  0  0  0  0  0
    3.8498   63.0299   72.3241 H   0  0  0  0  0  0  0  0  0  0  0  0
    1.6458   61.3017   71.1355 H   0  0  0  0  0  0  0  0  0  0  0  0
    1.0503   63.3045   74.4694 H   0  0  0  0  0  0  0  0  0  0  0  0
    2.4129   64.0616   73.5768 H   0  0  0  0  0  0  0  0  0  0  0  0
    0.7951   64.8423   73.5768 H   0  0  0  0  0  0  0  0  0  0  0  0
   -1.1580   63.1430   72.8123 H   0  0  0  0  0  0  0  0  0  0  0  0
   -0.6969   61.9279   71.5321 H   0  0  0  0  0  0  0  0  0  0  0  0
   -1.3172   60.6696   73.4521 H   0  0  0  0  0  0  0  0  0  0  0  0
    2.4851   61.4013   73.9672 H   0  0  0  0  0  0  0  0  0  0  0  0
    2.8633   59.4159   71.6718 H   0  0  0  0  0  0  0  0  0  0  0  0
    4.1474   60.3788   72.5166 H   0  0  0  0  0  0  0  0  0  0  0  0
    4.0151   58.0033   73.2746 H   0  0  0  0  0  0  0  0  0  0  0  0
    3.7292   59.2307   74.5840 H   0  0  0  0  0  0  0  0  0  0  0  0
    2.7584   56.1750   73.6481 H   0  0  0  0  0  0  0  0  0  0  0  0
   -1.3691   56.4084   74.9737 H   0  0  0  0  0  0  0  0  0  0  0  0
   -0.1843   57.0894   76.1504 H   0  0  0  0  0  0  0  0  0  0  0  0
   -0.7952   58.1167   73.3472 H   0  0  0  0  0  0  0  0  0  0  0  0
   -1.2092   58.8886   74.9537 H   0  0  0  0  0  0  0  0  0  0  0  0
    0.7400   58.8579   76.5481 H   0  0  0  0  0  0  0  0  0  0  0  0
    2.2335   59.6662   75.9625 H   0  0  0  0  0  0  0  0  0  0  0  0
    0.6723   60.5547   75.9625 H   0  0  0  0  0  0  0  0  0  0  0  0
    0.3221   67.3764   70.4639 H   0  0  0  0  0  0  0  0  0  0  0  0
    1.5576   66.2986   69.6739 H   0  0  0  0  0  0  0  0  0  0  0  0
    0.9935   68.0674   69.2940 H   0  0  0  0  0  0  0  0  0  0  0  0
    1.8678   67.6713   67.7757 H   0  0  0  0  0  0  0  0  0  0  0  0
    0.5983   68.9421   67.7757 H   0  0  0  0  0  0  0  0  0  0  0  0
   -0.1703   62.6755   70.2055 H   0  0  0  0  0  0  0  0  0  0  0  0
   -0.4033   61.1133   75.5320 H   0  0  0  0  0  0  0  0  0  0  0  0
  2  1  1  0
  3  2  1  0
  4  3  1  0
  5  4  1  0
  5  1  1  0
  5  6  1  1
  7  5  1  0
  8  7  1  0
  9  8  1  0
 10  9  1  0
 10  4  1  0
 11 10  1  0
 12 11  1  0
 13 12  1  0
 14 13  2  0
 15 14  1  0
 16 15  2  0
 17 15  1  0
 18 17  1  0
 19 18  1  0
 19 13  1  0
 19  9  1  0
 19 20  1  1
  9 21  1  6
 22  1  1  0
 23 22  2  0
 24 22  1  0
 25 24  1  0
 27 25  1  0
 27 26  1  0
 28 27  2  0
  1 29  1  6
 30  8  1  0
  2 31  1  0
  2 32  1  0
  3 33  1  0
  3 34  1  0
  4 35  1  6
  6 36  1  0
  6 37  1  0
  6 38  1  0
  7 39  1  0
  7 40  1  0
  8 41  1  1
 10 42  1  1
 11 43  1  0
 11 44  1  0
 12 45  1  0
 12 46  1  0
 14 47  1  0
 17 48  1  0
 17 49  1  0
 18 50  1  0
 18 51  1  0
 20 52  1  0
 20 53  1  0
 20 54  1  0
 24 55  1  0
 24 56  1  0
 26 57  1  0
 26 58  1  0
 26 59  1  0
 29 60  1  0
 30 61  1  0
M  END
>  <score>  (4) 
-7.845

$$$$
=
     RDKit          3D

 61 64  0  0  0  0  0  0  0  0999 V2000
    2.5580   61.1780   73.3620 C   0  0  1  0  0  0  0  0  0  0  0  0
    1.2990   61.7760   72.6900 C   0  0  0  0  0  0  0  0  0  0  0  0
    0.1480   60.7830   72.9610 C   0  0  0  0  0  0  0  0  0  0  0  0
    0.7340   59.7760   73.9470 C   0  0  2  0  0  0  0  0  0  0  0  0
    2.2110   59.6640   73.5110 C   0  0  1  0  0  0  0  0  0  0  0  0
    2.3940   58.9520   72.1450 C   0  0  0  0  0  0  0  0  0  0  0  0
    2.9560   58.8990   74.6250 C   0  0  0  0  0  0  0  0  0  0  0  0
    2.3360   57.5170   74.9330 C   0  0  1  0  0  0  0  0  0  0  0  0
    0.7970   57.5820   75.1950 C   0  0  1  0  0  0  0  0  0  0  0  0
    0.0390   58.4150   74.1140 C   0  0  1  0  0  0  0  0  0  0  0  0
   -1.4300   58.6110   74.5260 C   0  0  0  0  0  0  0  0  0  0  0  0
   -2.1350   57.2800   74.7570 C   0  0  0  0  0  0  0  0  0  0  0  0
   -1.4020   56.4070   75.7460 C   0  0  0  0  0  0  0  0  0  0  0  0
   -2.0730   55.8440   76.7670 C   0  0  0  0  0  0  0  0  0  0  0  0
   -1.4310   54.8670   77.6760 C   0  0  0  0  0  0  0  0  0  0  0  0
   -2.0750   54.3970   78.6120 O   0  0  0  0  0  0  0  0  0  0  0  0
   -0.0320   54.4130   77.3510 C   0  0  0  0  0  0  0  0  0  0  0  0
    0.7670   55.5540   76.7400 C   0  0  0  0  0  0  0  0  0  0  0  0
    0.1000   56.1880   75.4830 C   0  0  2  0  0  0  0  0  0  0  0  0
    0.2040   55.1900   74.3050 C   0  0  0  0  0  0  0  0  0  0  0  0
    0.6750   58.3140   76.3690 F   0  0  0  0  0  0  0  0  0  0  0  0
    3.9200   61.4490   72.6960 C   0  0  0  0  0  0  0  0  0  0  0  0
    4.9450   60.9880   73.2160 O   0  0  0  0  0  0  0  0  0  0  0  0
    3.9750   62.3200   71.4440 C   0  0  0  0  0  0  0  0  0  0  0  0
    4.7170   61.7120   70.3850 O   0  0  0  0  0  0  0  0  0  0  0  0
    2.7710   61.7750   69.0750 C   0  0  0  0  0  0  0  0  0  0  0  0
    3.9600   60.9810   69.5200 C   0  0  0  0  0  0  0  0  0  0  0  0
    4.2050   59.8370   69.1670 O   0  0  0  0  0  0  0  0  0  0  0  0
    2.6550   61.7960   74.6600 O   0  0  0  0  0  0  0  0  0  0  0  0
    2.6760   56.6040   73.8950 O   0  0  0  0  0  0  0  0  0  0  0  0
    1.0649   62.7582   73.1263 H   0  0  0  0  0  0  0  0  0  0  0  0
    1.4540   61.9225   71.6109 H   0  0  0  0  0  0  0  0  0  0  0  0
   -0.7163   61.3010   73.4023 H   0  0  0  0  0  0  0  0  0  0  0  0
   -0.2150   60.3031   72.0402 H   0  0  0  0  0  0  0  0  0  0  0  0
    0.5834   60.1484   74.9710 H   0  0  0  0  0  0  0  0  0  0  0  0
    2.6646   57.8992   72.3136 H   0  0  0  0  0  0  0  0  0  0  0  0
    1.4537   59.0024   71.5764 H   0  0  0  0  0  0  0  0  0  0  0  0
    3.1935   59.4495   71.5764 H   0  0  0  0  0  0  0  0  0  0  0  0
    3.9997   58.7518   74.3104 H   0  0  0  0  0  0  0  0  0  0  0  0
    2.8824   59.5023   75.5418 H   0  0  0  0  0  0  0  0  0  0  0  0
    2.7645   57.1514   75.8778 H   0  0  0  0  0  0  0  0  0  0  0  0
    0.0585   57.8757   73.1555 H   0  0  0  0  0  0  0  0  0  0  0  0
   -1.4638   59.1980   75.4557 H   0  0  0  0  0  0  0  0  0  0  0  0
   -1.9475   59.1349   73.7088 H   0  0  0  0  0  0  0  0  0  0  0  0
   -3.1465   57.4776   75.1415 H   0  0  0  0  0  0  0  0  0  0  0  0
   -2.1675   56.7455   73.7961 H   0  0  0  0  0  0  0  0  0  0  0  0
   -3.1260   56.1165   76.9309 H   0  0  0  0  0  0  0  0  0  0  0  0
    0.4636   54.0769   78.2737 H   0  0  0  0  0  0  0  0  0  0  0  0
   -0.0841   53.5862   76.6273 H   0  0  0  0  0  0  0  0  0  0  0  0
    0.8880   56.3389   77.5012 H   0  0  0  0  0  0  0  0  0  0  0  0
    1.7287   55.1318   76.4130 H   0  0  0  0  0  0  0  0  0  0  0  0
    0.3105   54.1683   74.6984 H   0  0  0  0  0  0  0  0  0  0  0  0
   -0.7056   55.2531   73.6896 H   0  0  0  0  0  0  0  0  0  0  0  0
    1.0810   55.4392   73.6896 H   0  0  0  0  0  0  0  0  0  0  0  0
    2.9476   62.5016   71.0955 H   0  0  0  0  0  0  0  0  0  0  0  0
    4.4836   63.2578   71.7121 H   0  0  0  0  0  0  0  0  0  0  0  0
    2.2235   62.1406   69.9563 H   0  0  0  0  0  0  0  0  0  0  0  0
    3.1068   62.6308   68.4709 H   0  0  0  0  0  0  0  0  0  0  0  0
    2.1092   61.1369   68.4709 H   0  0  0  0  0  0  0  0  0  0  0  0
    2.5468   61.1069   75.3625 H   0  0  0  0  0  0  0  0  0  0  0  0
    2.9923   55.7546   74.2932 H   0  0  0  0  0  0  0  0  0  0  0  0
  2  1  1  0
  3  2  1  0
  4  3  1  0
  5  4  1  0
  5  1  1  0
  5  6  1  6
  7  5  1  0
  8  7  1  0
  9  8  1  0
 10  9  1  0
 10  4  1  0
 11 10  1  0
 12 11  1  0
 13 12  1  0
 14 13  2  0
 15 14  1  0
 16 15  2  0
 17 15  1  0
 18 17  1  0
 19 18  1  0
 19 13  1  0
 19  9  1  0
 19 20  1  6
  9 21  1  1
 22  1  1  0
 23 22  2  0
 24 22  1  0
 25 24  1  0
 27 25  1  0
 27 26  1  0
 28 27  2  0
  1 29  1  1
 30  8  1  0
  2 31  1  0
  2 32  1  0
  3 33  1  0
  3 34  1  0
  4 35  1  1
  6 36  1  0
  6 37  1  0
  6 38  1  0
  7 39  1  0
  7 40  1  0
  8 41  1  1
 10 42  1  6
 11 43  1  0
 11 44  1  0
 12 45  1  0
 12 46  1  0
 14 47  1  0
 17 48  1  0
 17 49  1  0
 18 50  1  0
 18 51  1  0
 20 52  1  0
 20 53  1  0
 20 54  1  0
 24 55  1  0
 24 56  1  0
 26 57  1  0
 26 58  1  0
 26 59  1  0
 29 60  1  0
 30 61  1  0
M  END
>  <score>  (5) 
-7.441

$$$$
=
     RDKit          3D

 61 64  0  0  0  0  0  0  0  0999 V2000
    3.2600   59.7840   71.6590 C   0  0  1  0  0  0  0  0  0  0  0  0
    3.5070   58.4320   70.9480 C   0  0  0  0  0  0  0  0  0  0  0  0
    2.6060   57.3960   71.6570 C   0  0  0  0  0  0  0  0  0  0  0  0
    1.7300   58.2270   72.5910 C   0  0  2  0  0  0  0  0  0  0  0  0
    2.6660   59.3710   73.0400 C   0  0  1  0  0  0  0  0  0  0  0  0
    3.8080   58.8940   73.9760 C   0  0  0  0  0  0  0  0  0  0  0  0
    1.7880   60.4230   73.7490 C   0  0  0  0  0  0  0  0  0  0  0  0
    0.9740   59.8420   74.9280 C   0  0  1  0  0  0  0  0  0  0  0  0
    0.1600   58.5660   74.5400 C   0  0  1  0  0  0  0  0  0  0  0  0
    1.0180   57.5220   73.7580 C   0  0  1  0  0  0  0  0  0  0  0  0
    0.1250   56.3860   73.2320 C   0  0  0  0  0  0  0  0  0  0  0  0
   -0.6410   55.7010   74.3570 C   0  0  0  0  0  0  0  0  0  0  0  0
   -1.4350   56.6800   75.1880 C   0  0  0  0  0  0  0  0  0  0  0  0
   -2.7310   56.4360   75.4520 C   0  0  0  0  0  0  0  0  0  0  0  0
   -3.5100   57.2880   76.3800 C   0  0  0  0  0  0  0  0  0  0  0  0
   -4.6990   57.0430   76.5720 O   0  0  0  0  0  0  0  0  0  0  0  0
   -2.7780   58.3700   77.1290 C   0  0  0  0  0  0  0  0  0  0  0  0
   -1.6750   58.9620   76.2650 C   0  0  0  0  0  0  0  0  0  0  0  0
   -0.6670   57.9060   75.7200 C   0  0  2  0  0  0  0  0  0  0  0  0
    0.2140   57.4060   76.8890 C   0  0  0  0  0  0  0  0  0  0  0  0
   -0.7820   59.0190   73.6260 F   0  0  0  0  0  0  0  0  0  0  0  0
    4.4400   60.7690   71.7500 C   0  0  0  0  0  0  0  0  0  0  0  0
    5.5750   60.3760   71.4470 O   0  0  0  0  0  0  0  0  0  0  0  0
    4.1890   62.1860   72.2580 C   0  0  0  0  0  0  0  0  0  0  0  0
    3.5650   63.0180   71.2780 O   0  0  0  0  0  0  0  0  0  0  0  0
    3.6810   63.0060   68.9350 C   0  0  0  0  0  0  0  0  0  0  0  0
    4.3660   63.3380   70.2240 C   0  0  0  0  0  0  0  0  0  0  0  0
    5.4890   63.8130   70.3140 O   0  0  0  0  0  0  0  0  0  0  0  0
    2.2660   60.4750   70.8760 O   0  0  0  0  0  0  0  0  0  0  0  0
    1.8400   59.6230   76.0370 O   0  0  0  0  0  0  0  0  0  0  0  0
    3.2369   58.5065   69.8843 H   0  0  0  0  0  0  0  0  0  0  0  0
    4.5666   58.1414   71.0002 H   0  0  0  0  0  0  0  0  0  0  0  0
    1.9890   56.8526   70.9263 H   0  0  0  0  0  0  0  0  0  0  0  0
    3.1885   56.6349   72.1968 H   0  0  0  0  0  0  0  0  0  0  0  0
    0.8337   58.5548   72.0440 H   0  0  0  0  0  0  0  0  0  0  0  0
    3.5006   59.0224   75.0243 H   0  0  0  0  0  0  0  0  0  0  0  0
    4.0203   57.8320   73.7836 H   0  0  0  0  0  0  0  0  0  0  0  0
    4.7126   59.4895   73.7836 H   0  0  0  0  0  0  0  0  0  0  0  0
    2.4403   61.2207   74.1340 H   0  0  0  0  0  0  0  0  0  0  0  0
    1.0673   60.8000   73.0085 H   0  0  0  0  0  0  0  0  0  0  0  0
    0.2117   60.5807   75.2164 H   0  0  0  0  0  0  0  0  0  0  0  0
    1.7688   57.0852   74.4329 H   0  0  0  0  0  0  0  0  0  0  0  0
   -0.5956   56.8033   72.5133 H   0  0  0  0  0  0  0  0  0  0  0  0
    0.7721   55.6363   72.7532 H   0  0  0  0  0  0  0  0  0  0  0  0
   -1.3327   54.9668   73.9182 H   0  0  0  0  0  0  0  0  0  0  0  0
    0.0929   55.2163   75.0176 H   0  0  0  0  0  0  0  0  0  0  0  0
   -3.2252   55.5817   74.9662 H   0  0  0  0  0  0  0  0  0  0  0  0
   -3.4880   59.1639   77.4041 H   0  0  0  0  0  0  0  0  0  0  0  0
   -2.3273   57.9349   78.0332 H   0  0  0  0  0  0  0  0  0  0  0  0
   -2.1411   59.4708   75.4083 H   0  0  0  0  0  0  0  0  0  0  0  0
   -1.1028   59.6508   76.9039 H   0  0  0  0  0  0  0  0  0  0  0  0
   -0.2588   57.6743   77.8453 H   0  0  0  0  0  0  0  0  0  0  0  0
    0.3203   56.3129   76.8265 H   0  0  0  0  0  0  0  0  0  0  0  0
    1.2070   57.8752   76.8265 H   0  0  0  0  0  0  0  0  0  0  0  0
    3.5368   62.1330   73.1422 H   0  0  0  0  0  0  0  0  0  0  0  0
    5.1653   62.6311   72.5005 H   0  0  0  0  0  0  0  0  0  0  0  0
    2.7096   62.5352   69.1466 H   0  0  0  0  0  0  0  0  0  0  0  0
    3.5233   63.9276   68.3556 H   0  0  0  0  0  0  0  0  0  0  0  0
    4.3067   62.3112   68.3556 H   0  0  0  0  0  0  0  0  0  0  0  0
    1.6223   60.9225   71.4805 H   0  0  0  0  0  0  0  0  0  0  0  0
    1.3360   59.7505   76.8795 H   0  0  0  0  0  0  0  0  0  0  0  0
  2  1  1  0
  3  2  1  0
  4  3  1  0
  5  4  1  0
  5  1  1  0
  5  6  1  1
  7  5  1  0
  8  7  1  0
  9  8  1  0
 10  9  1  0
 10  4  1  0
 11 10  1  0
 12 11  1  0
 13 12  1  0
 14 13  2  0
 15 14  1  0
 16 15  2  0
 17 15  1  0
 18 17  1  0
 19 18  1  0
 19 13  1  0
 19  9  1  0
 19 20  1  1
  9 21  1  6
 22  1  1  0
 23 22  2  0
 24 22  1  0
 25 24  1  0
 27 25  1  0
 27 26  1  0
 28 27  2  0
  1 29  1  6
 30  8  1  0
  2 31  1  0
  2 32  1  0
  3 33  1  0
  3 34  1  0
  4 35  1  6
  6 36  1  0
  6 37  1  0
  6 38  1  0
  7 39  1  0
  7 40  1  0
  8 41  1  1
 10 42  1  1
 11 43  1  0
 11 44  1  0
 12 45  1  0
 12 46  1  0
 14 47  1  0
 17 48  1  0
 17 49  1  0
 18 50  1  0
 18 51  1  0
 20 52  1  0
 20 53  1  0
 20 54  1  0
 24 55  1  0
 24 56  1  0
 26 57  1  0
 26 58  1  0
 26 59  1  0
 29 60  1  0
 30 61  1  0
M  END
>  <score>  (6) 
-7.409

$$$$
=
     RDKit          3D

 61 64  0  0  0  0  0  0  0  0999 V2000
    2.0540   59.6300   73.6280 C   0  0  1  0  0  0  0  0  0  0  0  0
    0.6730   60.1800   73.1960 C   0  0  0  0  0  0  0  0  0  0  0  0
   -0.3560   59.0730   73.5170 C   0  0  0  0  0  0  0  0  0  0  0  0
    0.4340   58.0330   74.3070 C   0  0  2  0  0  0  0  0  0  0  0  0
    1.8390   58.0860   73.6670 C   0  0  1  0  0  0  0  0  0  0  0  0
    1.8750   57.5190   72.2230 C   0  0  0  0  0  0  0  0  0  0  0  0
    2.7870   57.2870   74.5860 C   0  0  0  0  0  0  0  0  0  0  0  0
    2.3160   55.8350   74.8320 C   0  0  1  0  0  0  0  0  0  0  0  0
    0.8290   55.7460   75.3040 C   0  0  1  0  0  0  0  0  0  0  0  0
   -0.1320   56.6080   74.4260 C   0  0  1  0  0  0  0  0  0  0  0  0
   -1.5370   56.6420   75.0510 C   0  0  0  0  0  0  0  0  0  0  0  0
   -2.1070   55.2410   75.2370 C   0  0  0  0  0  0  0  0  0  0  0  0
   -1.1810   54.3460   76.0240 C   0  0  0  0  0  0  0  0  0  0  0  0
   -1.6580   53.6380   77.0630 C   0  0  0  0  0  0  0  0  0  0  0  0
   -0.8270   52.6390   77.7720 C   0  0  0  0  0  0  0  0  0  0  0  0
   -1.2960   52.0330   78.7330 O   0  0  0  0  0  0  0  0  0  0  0  0
    0.5400   52.3350   77.2170 C   0  0  0  0  0  0  0  0  0  0  0  0
    1.1620   53.5900   76.6230 C   0  0  0  0  0  0  0  0  0  0  0  0
    0.2800   54.2780   75.5390 C   0  0  2  0  0  0  0  0  0  0  0  0
    0.2850   53.4050   74.2630 C   0  0  0  0  0  0  0  0  0  0  0  0
    0.8240   56.3550   76.5520 F   0  0  0  0  0  0  0  0  0  0  0  0
    3.2840   60.0750   72.8160 C   0  0  0  0  0  0  0  0  0  0  0  0
    4.4130   59.9240   73.3040 O   0  0  0  0  0  0  0  0  0  0  0  0
    3.0790   60.7340   71.4550 C   0  0  0  0  0  0  0  0  0  0  0  0
    3.0590   62.1610   71.5340 O   0  0  0  0  0  0  0  0  0  0  0  0
    4.8370   63.3200   70.5330 C   0  0  0  0  0  0  0  0  0  0  0  0
    3.4440   62.7900   70.3890 C   0  0  0  0  0  0  0  0  0  0  0  0
    2.7490   62.9180   69.3910 O   0  0  0  0  0  0  0  0  0  0  0  0
    2.2910   60.1330   74.9570 O   0  0  0  0  0  0  0  0  0  0  0  0
    2.5680   55.0530   73.6690 O   0  0  0  0  0  0  0  0  0  0  0  0
    0.4351   61.0953   73.7578 H   0  0  0  0  0  0  0  0  0  0  0  0
    0.6624   60.4370   72.1265 H   0  0  0  0  0  0  0  0  0  0  0  0
   -1.1829   59.4744   74.1213 H   0  0  0  0  0  0  0  0  0  0  0  0
   -0.8121   58.6505   72.6095 H   0  0  0  0  0  0  0  0  0  0  0  0
    0.4041   58.2965   75.3746 H   0  0  0  0  0  0  0  0  0  0  0  0
    1.9447   56.4219   72.2615 H   0  0  0  0  0  0  0  0  0  0  0  0
    0.9566   57.8097   71.6919 H   0  0  0  0  0  0  0  0  0  0  0  0
    2.7493   57.9235   71.6919 H   0  0  0  0  0  0  0  0  0  0  0  0
    3.7829   57.2573   74.1199 H   0  0  0  0  0  0  0  0  0  0  0  0
    2.8023   57.7954   75.5613 H   0  0  0  0  0  0  0  0  0  0  0  0
    2.8992   55.4218   75.6681 H   0  0  0  0  0  0  0  0  0  0  0  0
   -0.2109   56.1620   73.4236 H   0  0  0  0  0  0  0  0  0  0  0  0
   -1.4785   57.1359   76.0321 H   0  0  0  0  0  0  0  0  0  0  0  0
   -2.2013   57.1940   74.3698 H   0  0  0  0  0  0  0  0  0  0  0  0
   -3.0650   55.3170   75.7722 H   0  0  0  0  0  0  0  0  0  0  0  0
   -2.2383   54.7959   74.2397 H   0  0  0  0  0  0  0  0  0  0  0  0
   -2.6932   53.8057   77.3949 H   0  0  0  0  0  0  0  0  0  0  0  0
    1.1841   51.9590   78.0255 H   0  0  0  0  0  0  0  0  0  0  0  0
    0.4437   51.5759   76.4267 H   0  0  0  0  0  0  0  0  0  0  0  0
    1.3350   54.3095   77.4368 H   0  0  0  0  0  0  0  0  0  0  0  0
    2.0944   53.2811   76.1278 H   0  0  0  0  0  0  0  0  0  0  0  0
    0.2911   52.3420   74.5460 H   0  0  0  0  0  0  0  0  0  0  0  0
   -0.6144   53.6208   73.6676 H   0  0  0  0  0  0  0  0  0  0  0  0
    1.1819   53.6311   73.6676 H   0  0  0  0  0  0  0  0  0  0  0  0
    3.8994   60.4293   70.7886 H   0  0  0  0  0  0  0  0  0  0  0  0
    2.1018   60.4074   71.0699 H   0  0  0  0  0  0  0  0  0  0  0  0
    5.0849   63.4143   71.6005 H   0  0  0  0  0  0  0  0  0  0  0  0
    5.5441   62.6281   70.0521 H   0  0  0  0  0  0  0  0  0  0  0  0
    4.9053   64.3070   70.0521 H   0  0  0  0  0  0  0  0  0  0  0  0
    1.9783   59.4693   75.6217 H   0  0  0  0  0  0  0  0  0  0  0  0
    2.8602   54.1462   73.9380 H   0  0  0  0  0  0  0  0  0  0  0  0
  2  1  1  0
  3  2  1  0
  4  3  1  0
  5  4  1  0
  5  1  1  0
  5  6  1  6
  7  5  1  0
  8  7  1  0
  9  8  1  0
 10  9  1  0
 10  4  1  0
 11 10  1  0
 12 11  1  0
 13 12  1  0
 14 13  2  0
 15 14  1  0
 16 15  2  0
 17 15  1  0
 18 17  1  0
 19 18  1  0
 19 13  1  0
 19  9  1  0
 19 20  1  6
  9 21  1  1
 22  1  1  0
 23 22  2  0
 24 22  1  0
 25 24  1  0
 27 25  1  0
 27 26  1  0
 28 27  2  0
  1 29  1  1
 30  8  1  0
  2 31  1  0
  2 32  1  0
  3 33  1  0
  3 34  1  0
  4 35  1  1
  6 36  1  0
  6 37  1  0
  6 38  1  0
  7 39  1  0
  7 40  1  0
  8 41  1  1
 10 42  1  6
 11 43  1  0
 11 44  1  0
 12 45  1  0
 12 46  1  0
 14 47  1  0
 17 48  1  0
 17 49  1  0
 18 50  1  0
 18 51  1  0
 20 52  1  0
 20 53  1  0
 20 54  1  0
 24 55  1  0
 24 56  1  0
 26 57  1  0
 26 58  1  0
 26 59  1  0
 29 60  1  0
 30 61  1  0
M  END
>  <score>  (7) 
-7.136

$$$$
=
     RDKit          3D

 61 64  0  0  0  0  0  0  0  0999 V2000
    2.6160   60.5000   72.7600 C   0  0  1  0  0  0  0  0  0  0  0  0
    4.0080   60.1190   73.3190 C   0  0  0  0  0  0  0  0  0  0  0  0
    3.7870   58.9040   74.2460 C   0  0  0  0  0  0  0  0  0  0  0  0
    2.3310   58.5070   74.0170 C   0  0  2  0  0  0  0  0  0  0  0  0
    1.6230   59.8590   73.7780 C   0  0  1  0  0  0  0  0  0  0  0  0
    1.5420   60.7410   75.0510 C   0  0  0  0  0  0  0  0  0  0  0  0
    0.2090   59.5440   73.2460 C   0  0  0  0  0  0  0  0  0  0  0  0
   -0.6020   58.6220   74.1860 C   0  0  1  0  0  0  0  0  0  0  0  0
    0.1730   57.3280   74.5930 C   0  0  1  0  0  0  0  0  0  0  0  0
    1.6310   57.6260   75.0650 C   0  0  1  0  0  0  0  0  0  0  0  0
    2.4050   56.3120   75.2620 C   0  0  0  0  0  0  0  0  0  0  0  0
    1.7090   55.3880   76.2530 C   0  0  0  0  0  0  0  0  0  0  0  0
    0.2720   55.1230   75.8770 C   0  0  0  0  0  0  0  0  0  0  0  0
   -0.1900   53.8600   75.8450 C   0  0  0  0  0  0  0  0  0  0  0  0
   -1.6240   53.5600   75.6250 C   0  0  0  0  0  0  0  0  0  0  0  0
   -1.9970   52.3900   75.5780 O   0  0  0  0  0  0  0  0  0  0  0  0
   -2.5860   54.7170   75.5650 C   0  0  0  0  0  0  0  0  0  0  0  0
   -1.9300   55.9210   74.9060 C   0  0  0  0  0  0  0  0  0  0  0  0
   -0.5980   56.3610   75.5850 C   0  0  2  0  0  0  0  0  0  0  0  0
   -0.9230   57.0090   76.9510 C   0  0  0  0  0  0  0  0  0  0  0  0
    0.3130   56.6190   73.4080 F   0  0  0  0  0  0  0  0  0  0  0  0
    2.3470   61.9890   72.4700 C   0  0  0  0  0  0  0  0  0  0  0  0
    2.5850   62.8250   73.3520 O   0  0  0  0  0  0  0  0  0  0  0  0
    1.7470   62.3880   71.1240 C   0  0  0  0  0  0  0  0  0  0  0  0
    2.6160   63.2300   70.3640 O   0  0  0  0  0  0  0  0  0  0  0  0
    4.9570   63.3860   70.3710 C   0  0  0  0  0  0  0  0  0  0  0  0
    3.7510   62.6160   69.9290 C   0  0  0  0  0  0  0  0  0  0  0  0
    3.7830   61.5930   69.2610 O   0  0  0  0  0  0  0  0  0  0  0  0
    2.5040   59.8510   71.4790 O   0  0  0  0  0  0  0  0  0  0  0  0
   -1.0480   59.3710   75.3120 O   0  0  0  0  0  0  0  0  0  0  0  0
    4.6881   59.8517   72.4968 H   0  0  0  0  0  0  0  0  0  0  0  0
    4.4629   60.9593   73.8640 H   0  0  0  0  0  0  0  0  0  0  0  0
    4.4621   58.0794   73.9735 H   0  0  0  0  0  0  0  0  0  0  0  0
    3.9951   59.1394   75.3002 H   0  0  0  0  0  0  0  0  0  0  0  0
    2.2807   57.8048   73.1718 H   0  0  0  0  0  0  0  0  0  0  0  0
    1.6007   60.1018   75.9443 H   0  0  0  0  0  0  0  0  0  0  0  0
    2.3783   61.4555   75.0558 H   0  0  0  0  0  0  0  0  0  0  0  0
    0.5895   61.2913   75.0558 H   0  0  0  0  0  0  0  0  0  0  0  0
   -0.3387   60.4904   73.1260 H   0  0  0  0  0  0  0  0  0  0  0  0
    0.3292   59.0133   72.2900 H   0  0  0  0  0  0  0  0  0  0  0  0
   -1.4811   58.2567   73.6349 H   0  0  0  0  0  0  0  0  0  0  0  0
    1.6032   58.1575   76.0277 H   0  0  0  0  0  0  0  0  0  0  0  0
    2.4864   55.7981   74.2928 H   0  0  0  0  0  0  0  0  0  0  0  0
    3.3989   56.5579   75.6641 H   0  0  0  0  0  0  0  0  0  0  0  0
    2.2492   54.4302   76.2831 H   0  0  0  0  0  0  0  0  0  0  0  0
    1.7140   55.8831   77.2353 H   0  0  0  0  0  0  0  0  0  0  0  0
    0.5156   53.0280   75.9859 H   0  0  0  0  0  0  0  0  0  0  0  0
   -3.4708   54.4223   74.9817 H   0  0  0  0  0  0  0  0  0  0  0  0
   -2.8807   54.9885   76.5894 H   0  0  0  0  0  0  0  0  0  0  0  0
   -1.7177   55.6692   73.8565 H   0  0  0  0  0  0  0  0  0  0  0  0
   -2.6324   56.7619   75.0031 H   0  0  0  0  0  0  0  0  0  0  0  0
   -0.5894   56.3438   77.7610 H   0  0  0  0  0  0  0  0  0  0  0  0
   -0.4026   57.9747   77.0318 H   0  0  0  0  0  0  0  0  0  0  0  0
   -2.0082   57.1694   77.0318 H   0  0  0  0  0  0  0  0  0  0  0  0
    1.5443   61.4755   70.5441 H   0  0  0  0  0  0  0  0  0  0  0  0
    0.8253   62.9539   71.3243 H   0  0  0  0  0  0  0  0  0  0  0  0
    4.9943   63.4098   71.4701 H   0  0  0  0  0  0  0  0  0  0  0  0
    5.8646   62.8999   69.9838 H   0  0  0  0  0  0  0  0  0  0  0  0
    4.8979   64.4139   69.9838 H   0  0  0  0  0  0  0  0  0  0  0  0
    2.3372   58.8843   71.6123 H   0  0  0  0  0  0  0  0  0  0  0  0
   -0.7738   58.9104   76.1443 H   0  0  0  0  0  0  0  0  0  0  0  0
  2  1  1  0
  3  2  1  0
  4  3  1  0
  5  4  1  0
  5  1  1  0
  5  6  1  1
  7  5  1  0
  8  7  1  0
  9  8  1  0
 10  9  1  0
 10  4  1  0
 11 10  1  0
 12 11  1  0
 13 12  1  0
 14 13  2  0
 15 14  1  0
 16 15  2  0
 17 15  1  0
 18 17  1  0
 19 18  1  0
 19 13  1  0
 19  9  1  0
 19 20  1  1
  9 21  1  6
 22  1  1  0
 23 22  2  0
 24 22  1  0
 25 24  1  0
 27 25  1  0
 27 26  1  0
 28 27  2  0
  1 29  1  6
 30  8  1  0
  2 31  1  0
  2 32  1  0
  3 33  1  0
  3 34  1  0
  4 35  1  6
  6 36  1  0
  6 37  1  0
  6 38  1  0
  7 39  1  0
  7 40  1  0
  8 41  1  6
 10 42  1  1
 11 43  1  0
 11 44  1  0
 12 45  1  0
 12 46  1  0
 14 47  1  0
 17 48  1  0
 17 49  1  0
 18 50  1  0
 18 51  1  0
 20 52  1  0
 20 53  1  0
 20 54  1  0
 24 55  1  0
 24 56  1  0
 26 57  1  0
 26 58  1  0
 26 59  1  0
 29 60  1  0
 30 61  1  0
M  END
>  <score>  (8) 
-6.85

$$$$
=
     RDKit          3D

 61 64  0  0  0  0  0  0  0  0999 V2000
    3.4260   59.3590   73.1350 C   0  0  1  0  0  0  0  0  0  0  0  0
    4.0380   58.9050   74.4820 C   0  0  0  0  0  0  0  0  0  0  0  0
    2.9180   59.0410   75.5370 C   0  0  0  0  0  0  0  0  0  0  0  0
    1.6640   59.3570   74.7260 C   0  0  2  0  0  0  0  0  0  0  0  0
    2.1970   60.2200   73.5610 C   0  0  1  0  0  0  0  0  0  0  0  0
    2.6770   61.6240   74.0100 C   0  0  0  0  0  0  0  0  0  0  0  0
    1.0580   60.3420   72.5270 C   0  0  0  0  0  0  0  0  0  0  0  0
   -0.2470   60.9170   73.1260 C   0  0  1  0  0  0  0  0  0  0  0  0
   -0.7070   60.1720   74.4200 C   0  0  1  0  0  0  0  0  0  0  0  0
    0.4550   59.9780   75.4450 C   0  0  1  0  0  0  0  0  0  0  0  0
   -0.0020   59.0720   76.6010 C   0  0  0  0  0  0  0  0  0  0  0  0
   -1.2350   59.6290   77.3020 C   0  0  0  0  0  0  0  0  0  0  0  0
   -2.3670   59.8990   76.3410 C   0  0  0  0  0  0  0  0  0  0  0  0
   -3.6010   59.4390   76.6130 C   0  0  0  0  0  0  0  0  0  0  0  0
   -4.7700   59.8010   75.7780 C   0  0  0  0  0  0  0  0  0  0  0  0
   -5.8750   59.3360   76.0500 O   0  0  0  0  0  0  0  0  0  0  0  0
   -4.5670   60.8110   74.6800 C   0  0  0  0  0  0  0  0  0  0  0  0
   -3.1850   60.6550   74.0640 C   0  0  0  0  0  0  0  0  0  0  0  0
   -2.0220   60.7410   75.0980 C   0  0  2  0  0  0  0  0  0  0  0  0
   -1.8860   62.2060   75.5760 C   0  0  0  0  0  0  0  0  0  0  0  0
   -1.0290   58.8920   73.9890 F   0  0  0  0  0  0  0  0  0  0  0  0
    4.3600   60.0500   72.1240 C   0  0  0  0  0  0  0  0  0  0  0  0
    5.3380   60.6830   72.5450 O   0  0  0  0  0  0  0  0  0  0  0  0
    4.0280   59.9790   70.6360 C   0  0  0  0  0  0  0  0  0  0  0  0
    4.6960   60.9880   69.8760 O   0  0  0  0  0  0  0  0  0  0  0  0
    2.6630   61.9230   69.1720 C   0  0  0  0  0  0  0  0  0  0  0  0
    4.0110   62.1600   69.7790 C   0  0  0  0  0  0  0  0  0  0  0  0
    4.4380   63.2530   70.1230 O   0  0  0  0  0  0  0  0  0  0  0  0
    2.9860   58.1600   72.4680 O   0  0  0  0  0  0  0  0  0  0  0  0
   -0.0970   62.3180   73.3250 O   0  0  0  0  0  0  0  0  0  0  0  0
    4.3725   57.8593   74.4148 H   0  0  0  0  0  0  0  0  0  0  0  0
    4.9134   59.5154   74.7485 H   0  0  0  0  0  0  0  0  0  0  0  0
    2.7934   58.1012   76.0949 H   0  0  0  0  0  0  0  0  0  0  0  0
    3.1394   59.8177   76.2838 H   0  0  0  0  0  0  0  0  0  0  0  0
    1.1889   58.4131   74.4203 H   0  0  0  0  0  0  0  0  0  0  0  0
    2.6934   61.6719   75.1088 H   0  0  0  0  0  0  0  0  0  0  0  0
    3.6890   61.8076   73.6199 H   0  0  0  0  0  0  0  0  0  0  0  0
    1.9893   62.3887   73.6199 H   0  0  0  0  0  0  0  0  0  0  0  0
    1.3920   61.0046   71.7149 H   0  0  0  0  0  0  0  0  0  0  0  0
    0.8336   59.3277   72.1654 H   0  0  0  0  0  0  0  0  0  0  0  0
   -1.0601   60.7481   72.4047 H   0  0  0  0  0  0  0  0  0  0  0  0
    0.7415   60.9541   75.8635 H   0  0  0  0  0  0  0  0  0  0  0  0
   -0.2398   58.0757   76.2001 H   0  0  0  0  0  0  0  0  0  0  0  0
    0.8143   59.0173   77.3363 H   0  0  0  0  0  0  0  0  0  0  0  0
   -1.5745   58.9003   78.0528 H   0  0  0  0  0  0  0  0  0  0  0  0
   -0.9541   60.5849   77.7683 H   0  0  0  0  0  0  0  0  0  0  0  0
   -3.7463   58.7761   77.4787 H   0  0  0  0  0  0  0  0  0  0  0  0
   -5.3297   60.6588   73.9021 H   0  0  0  0  0  0  0  0  0  0  0  0
   -4.6561   61.8219   75.1045 H   0  0  0  0  0  0  0  0  0  0  0  0
   -3.1354   59.6749   73.5670 H   0  0  0  0  0  0  0  0  0  0  0  0
   -3.0513   61.4906   73.3613 H   0  0  0  0  0  0  0  0  0  0  0  0
   -1.8834   62.2342   76.6756 H   0  0  0  0  0  0  0  0  0  0  0  0
   -0.9447   62.6298   75.1961 H   0  0  0  0  0  0  0  0  0  0  0  0
   -2.7333   62.7958   75.1961 H   0  0  0  0  0  0  0  0  0  0  0  0
    4.3298   58.9925   70.2542 H   0  0  0  0  0  0  0  0  0  0  0  0
    2.9455   60.1417   70.5277 H   0  0  0  0  0  0  0  0  0  0  0  0
    1.9188   61.7922   69.9714 H   0  0  0  0  0  0  0  0  0  0  0  0
    2.3844   62.7859   68.5493 H   0  0  0  0  0  0  0  0  0  0  0  0
    2.6955   61.0168   68.5493 H   0  0  0  0  0  0  0  0  0  0  0  0
    2.7364   57.4798   73.1426 H   0  0  0  0  0  0  0  0  0  0  0  0
   -0.0761   62.5131   74.2954 H   0  0  0  0  0  0  0  0  0  0  0  0
  2  1  1  0
  3  2  1  0
  4  3  1  0
  5  4  1  0
  5  1  1  0
  5  6  1  1
  7  5  1  0
  8  7  1  0
  9  8  1  0
 10  9  1  0
 10  4  1  0
 11 10  1  0
 12 11  1  0
 13 12  1  0
 14 13  2  0
 15 14  1  0
 16 15  2  0
 17 15  1  0
 18 17  1  0
 19 18  1  0
 19 13  1  0
 19  9  1  0
 19 20  1  1
  9 21  1  6
 22  1  1  0
 23 22  2  0
 24 22  1  0
 25 24  1  0
 27 25  1  0
 27 26  1  0
 28 27  2  0
  1 29  1  6
 30  8  1  0
  2 31  1  0
  2 32  1  0
  3 33  1  0
  3 34  1  0
  4 35  1  6
  6 36  1  0
  6 37  1  0
  6 38  1  0
  7 39  1  0
  7 40  1  0
  8 41  1  6
 10 42  1  1
 11 43  1  0
 11 44  1  0
 12 45  1  0
 12 46  1  0
 14 47  1  0
 17 48  1  0
 17 49  1  0
 18 50  1  0
 18 51  1  0
 20 52  1  0
 20 53  1  0
 20 54  1  0
 24 55  1  0
 24 56  1  0
 26 57  1  0
 26 58  1  0
 26 59  1  0
 29 60  1  0
 30 61  1  0
M  END
>  <score>  (9) 
-6.848

$$$$
