=
     RDKit          3D

 12 12  0  0  0  0  0  0  0  0999 V2000
    3.4340   69.0670   65.5660 Br  0  0  0  0  0  0  0  0  0  0  0  0
    4.5720   69.8050   66.8830 C   0  0  0  0  0  0  0  0  0  0  0  0
    4.0530   70.1560   68.1280 C   0  0  0  0  0  0  0  0  0  0  0  0
    4.8940   70.7010   69.0990 C   0  0  0  0  0  0  0  0  0  0  0  0
    6.2480   70.8920   68.8220 C   0  0  0  0  0  0  0  0  0  0  0  0
    6.7640   70.5390   67.5740 C   0  0  0  0  0  0  0  0  0  0  0  0
    5.9240   69.9940   66.6010 C   0  0  0  0  0  0  0  0  0  0  0  0
    2.9852   70.0041   68.3442 H   0  0  0  0  0  0  0  0  0  0  0  0
    4.4893   70.9801   70.0831 H   0  0  0  0  0  0  0  0  0  0  0  0
    6.9100   71.3215   69.5884 H   0  0  0  0  0  0  0  0  0  0  0  0
    7.8318   70.6901   67.3572 H   0  0  0  0  0  0  0  0  0  0  0  0
    6.3273   69.7150   65.6163 H   0  0  0  0  0  0  0  0  0  0  0  0
  2  1  1  0
  3  2  2  0
  4  3  1  0
  5  4  2  0
  6  5  1  0
  7  2  1  0
  7  6  2  0
  3  8  1  0
  4  9  1  0
  5 10  1  0
  6 11  1  0
  7 12  1  0
M  END
>  <score>  (1) 
-5.82

$$$$
=
     RDKit          3D

 12 12  0  0  0  0  0  0  0  0999 V2000
    7.0210   71.0020   68.9510 Br  0  0  0  0  0  0  0  0  0  0  0  0
    5.6720   70.3480   67.8000 C   0  0  0  0  0  0  0  0  0  0  0  0
    4.3640   70.2270   68.2660 C   0  0  0  0  0  0  0  0  0  0  0  0
    3.3690   69.7440   67.4150 C   0  0  0  0  0  0  0  0  0  0  0  0
    3.6850   69.3850   66.1040 C   0  0  0  0  0  0  0  0  0  0  0  0
    4.9960   69.5080   65.6420 C   0  0  0  0  0  0  0  0  0  0  0  0
    5.9930   69.9900   66.4910 C   0  0  0  0  0  0  0  0  0  0  0  0
    4.1172   70.5109   69.2997 H   0  0  0  0  0  0  0  0  0  0  0  0
    2.3352   69.6462   67.7778 H   0  0  0  0  0  0  0  0  0  0  0  0
    2.8998   69.0047   65.4341 H   0  0  0  0  0  0  0  0  0  0  0  0
    5.2436   69.2249   64.6083 H   0  0  0  0  0  0  0  0  0  0  0  0
    7.0273   70.0871   66.1294 H   0  0  0  0  0  0  0  0  0  0  0  0
  2  1  1  0
  3  2  2  0
  4  3  1  0
  5  4  2  0
  6  5  1  0
  7  2  1  0
  7  6  2  0
  3  8  1  0
  4  9  1  0
  5 10  1  0
  6 11  1  0
  7 12  1  0
M  END
>  <score>  (2) 
-5.818

$$$$
=
     RDKit          3D

 12 12  0  0  0  0  0  0  0  0999 V2000
    3.3320   69.0690   65.6760 Br  0  0  0  0  0  0  0  0  0  0  0  0
    4.5410   69.8040   66.9300 C   0  0  0  0  0  0  0  0  0  0  0  0
    5.8820   69.9690   66.5850 C   0  0  0  0  0  0  0  0  0  0  0  0
    6.7730   70.5120   67.5120 C   0  0  0  0  0  0  0  0  0  0  0  0
    6.3210   70.8880   68.7780 C   0  0  0  0  0  0  0  0  0  0  0  0
    4.9780   70.7210   69.1190 C   0  0  0  0  0  0  0  0  0  0  0  0
    4.0840   70.1780   68.1940 C   0  0  0  0  0  0  0  0  0  0  0  0
    6.2361   69.6725   65.5866 H   0  0  0  0  0  0  0  0  0  0  0  0
    7.8319   70.6437   67.2448 H   0  0  0  0  0  0  0  0  0  0  0  0
    7.0240   71.3163   69.5076 H   0  0  0  0  0  0  0  0  0  0  0  0
    4.6235   71.0174   70.1172 H   0  0  0  0  0  0  0  0  0  0  0  0
    3.0250   70.0458   68.4605 H   0  0  0  0  0  0  0  0  0  0  0  0
  2  1  1  0
  3  2  2  0
  4  3  1  0
  5  4  2  0
  6  5  1  0
  7  2  1  0
  7  6  2  0
  3  8  1  0
  4  9  1  0
  5 10  1  0
  6 11  1  0
  7 12  1  0
M  END
>  <score>  (3) 
-5.796

$$$$
=
     RDKit          3D

 12 12  0  0  0  0  0  0  0  0999 V2000
    6.1970   70.9310   68.5140 Br  0  0  0  0  0  0  0  0  0  0  0  0
    5.1150   70.1660   67.1650 C   0  0  0  0  0  0  0  0  0  0  0  0
    5.6250   70.0050   65.8780 C   0  0  0  0  0  0  0  0  0  0  0  0
    4.8250   69.4400   64.8840 C   0  0  0  0  0  0  0  0  0  0  0  0
    3.5220   69.0390   65.1800 C   0  0  0  0  0  0  0  0  0  0  0  0
    3.0150   69.2030   66.4700 C   0  0  0  0  0  0  0  0  0  0  0  0
    3.8130   69.7680   67.4660 C   0  0  0  0  0  0  0  0  0  0  0  0
    6.6528   70.3217   65.6470 H   0  0  0  0  0  0  0  0  0  0  0  0
    5.2221   69.3107   63.8663 H   0  0  0  0  0  0  0  0  0  0  0  0
    2.8932   68.5928   64.3955 H   0  0  0  0  0  0  0  0  0  0  0  0
    1.9871   68.8871   66.7016 H   0  0  0  0  0  0  0  0  0  0  0  0
    3.4166   69.8987   68.4837 H   0  0  0  0  0  0  0  0  0  0  0  0
  2  1  1  0
  3  2  2  0
  4  3  1  0
  5  4  2  0
  6  5  1  0
  7  2  1  0
  7  6  2  0
  3  8  1  0
  4  9  1  0
  5 10  1  0
  6 11  1  0
  7 12  1  0
M  END
>  <score>  (4) 
-5.626

$$$$
=
     RDKit          3D

 12 12  0  0  0  0  0  0  0  0999 V2000
    4.4740   69.0560   63.9850 Br  0  0  0  0  0  0  0  0  0  0  0  0
    4.5430   69.5910   65.7970 C   0  0  0  0  0  0  0  0  0  0  0  0
    5.7250   70.1140   66.3190 C   0  0  0  0  0  0  0  0  0  0  0  0
    5.7750   70.5090   67.6570 C   0  0  0  0  0  0  0  0  0  0  0  0
    4.6450   70.3800   68.4660 C   0  0  0  0  0  0  0  0  0  0  0  0
    3.4640   69.8560   67.9390 C   0  0  0  0  0  0  0  0  0  0  0  0
    3.4110   69.4600   66.6010 C   0  0  0  0  0  0  0  0  0  0  0  0
    6.6143   70.2150   65.6795 H   0  0  0  0  0  0  0  0  0  0  0  0
    6.7054   70.9221   68.0739 H   0  0  0  0  0  0  0  0  0  0  0  0
    4.6855   70.6917   69.5201 H   0  0  0  0  0  0  0  0  0  0  0  0
    2.5743   69.7548   68.5779 H   0  0  0  0  0  0  0  0  0  0  0  0
    2.4811   69.0468   66.1832 H   0  0  0  0  0  0  0  0  0  0  0  0
  2  1  1  0
  3  2  2  0
  4  3  1  0
  5  4  2  0
  6  5  1  0
  7  2  1  0
  7  6  2  0
  3  8  1  0
  4  9  1  0
  5 10  1  0
  6 11  1  0
  7 12  1  0
M  END
>  <score>  (5) 
-5.483

$$$$
=
     RDKit          3D

 12 12  0  0  0  0  0  0  0  0999 V2000
    1.7600   69.1550   67.7730 Br  0  0  0  0  0  0  0  0  0  0  0  0
    3.2200   69.3370   66.5850 C   0  0  0  0  0  0  0  0  0  0  0  0
    3.0660   68.9950   65.2430 C   0  0  0  0  0  0  0  0  0  0  0  0
    4.1450   69.1300   64.3670 C   0  0  0  0  0  0  0  0  0  0  0  0
    5.3700   69.6060   64.8370 C   0  0  0  0  0  0  0  0  0  0  0  0
    5.5190   69.9470   66.1810 C   0  0  0  0  0  0  0  0  0  0  0  0
    4.4420   69.8130   67.0600 C   0  0  0  0  0  0  0  0  0  0  0  0
    2.0992   68.6205   64.8755 H   0  0  0  0  0  0  0  0  0  0  0  0
    4.0296   68.8612   63.3066 H   0  0  0  0  0  0  0  0  0  0  0  0
    6.2193   69.7123   64.1461 H   0  0  0  0  0  0  0  0  0  0  0  0
    6.4855   70.3218   66.5491 H   0  0  0  0  0  0  0  0  0  0  0  0
    4.5568   70.0813   68.1206 H   0  0  0  0  0  0  0  0  0  0  0  0
  2  1  1  0
  3  2  2  0
  4  3  1  0
  5  4  2  0
  6  5  1  0
  7  2  1  0
  7  6  2  0
  3  8  1  0
  4  9  1  0
  5 10  1  0
  6 11  1  0
  7 12  1  0
M  END
>  <score>  (6) 
-5.357

$$$$
=
     RDKit          3D

 12 12  0  0  0  0  0  0  0  0999 V2000
    1.2480   68.7310   66.9080 Br  0  0  0  0  0  0  0  0  0  0  0  0
    2.9310   69.4860   67.3240 C   0  0  0  0  0  0  0  0  0  0  0  0
    3.1320   70.0890   68.5640 C   0  0  0  0  0  0  0  0  0  0  0  0
    4.3740   70.6450   68.8690 C   0  0  0  0  0  0  0  0  0  0  0  0
    5.4100   70.5970   67.9350 C   0  0  0  0  0  0  0  0  0  0  0  0
    5.2050   69.9920   66.6940 C   0  0  0  0  0  0  0  0  0  0  0  0
    3.9620   69.4340   66.3860 C   0  0  0  0  0  0  0  0  0  0  0  0
    2.3145   70.1263   69.2991 H   0  0  0  0  0  0  0  0  0  0  0  0
    4.5373   71.1219   69.8467 H   0  0  0  0  0  0  0  0  0  0  0  0
    6.3889   71.0364   68.1771 H   0  0  0  0  0  0  0  0  0  0  0  0
    6.0222   69.9546   65.9586 H   0  0  0  0  0  0  0  0  0  0  0  0
    3.7972   68.9562   65.4090 H   0  0  0  0  0  0  0  0  0  0  0  0
  2  1  1  0
  3  2  2  0
  4  3  1  0
  5  4  2  0
  6  5  1  0
  7  2  1  0
  7  6  2  0
  3  8  1  0
  4  9  1  0
  5 10  1  0
  6 11  1  0
  7 12  1  0
M  END
>  <score>  (7) 
-5.314

$$$$
=
     RDKit          3D

 12 12  0  0  0  0  0  0  0  0999 V2000
    1.4620   68.4550   64.6430 Br  0  0  0  0  0  0  0  0  0  0  0  0
    3.1040   69.0710   65.3510 C   0  0  0  0  0  0  0  0  0  0  0  0
    3.1870   69.4290   66.6950 C   0  0  0  0  0  0  0  0  0  0  0  0
    4.3990   69.8840   67.2160 C   0  0  0  0  0  0  0  0  0  0  0  0
    5.5210   69.9790   66.3920 C   0  0  0  0  0  0  0  0  0  0  0  0
    5.4330   69.6200   65.0460 C   0  0  0  0  0  0  0  0  0  0  0  0
    4.2220   69.1640   64.5230 C   0  0  0  0  0  0  0  0  0  0  0  0
    2.3010   69.3533   67.3426 H   0  0  0  0  0  0  0  0  0  0  0  0
    4.4698   70.1678   68.2764 H   0  0  0  0  0  0  0  0  0  0  0  0
    6.4761   70.3373   66.8036 H   0  0  0  0  0  0  0  0  0  0  0  0
    6.3181   69.6965   64.3974 H   0  0  0  0  0  0  0  0  0  0  0  0
    4.1499   68.8794   63.4629 H   0  0  0  0  0  0  0  0  0  0  0  0
  2  1  1  0
  3  2  2  0
  4  3  1  0
  5  4  2  0
  6  5  1  0
  7  2  1  0
  7  6  2  0
  3  8  1  0
  4  9  1  0
  5 10  1  0
  6 11  1  0
  7 12  1  0
M  END
>  <score>  (8) 
-5.267

$$$$
=
     RDKit          3D

 12 12  0  0  0  0  0  0  0  0999 V2000
    4.9910   69.8880   66.8970 Br  0  0  0  0  0  0  0  0  0  0  0  0
    4.3890   69.4250   65.1660 C   0  0  0  0  0  0  0  0  0  0  0  0
    3.0550   69.0710   64.9690 C   0  0  0  0  0  0  0  0  0  0  0  0
    2.6120   68.7290   63.6900 C   0  0  0  0  0  0  0  0  0  0  0  0
    3.5020   68.7440   62.6160 C   0  0  0  0  0  0  0  0  0  0  0  0
    4.8360   69.0990   62.8170 C   0  0  0  0  0  0  0  0  0  0  0  0
    5.2820   69.4410   64.0960 C   0  0  0  0  0  0  0  0  0  0  0  0
    2.3548   69.0612   65.8173 H   0  0  0  0  0  0  0  0  0  0  0  0
    1.5608   68.4476   63.5291 H   0  0  0  0  0  0  0  0  0  0  0  0
    3.1512   68.4754   61.6086 H   0  0  0  0  0  0  0  0  0  0  0  0
    5.5364   69.1096   61.9689 H   0  0  0  0  0  0  0  0  0  0  0  0
    6.3332   69.7216   64.2579 H   0  0  0  0  0  0  0  0  0  0  0  0
  2  1  1  0
  3  2  2  0
  4  3  1  0
  5  4  2  0
  6  5  1  0
  7  2  1  0
  7  6  2  0
  3  8  1  0
  4  9  1  0
  5 10  1  0
  6 11  1  0
  7 12  1  0
M  END
>  <score>  (9) 
-4.958

$$$$
