=
     RDKit          3D

 51 54  0  0  0  0  0  0  0  0999 V2000
    0.3240   64.6030   70.5010 C   0  0  0  0  0  0  0  0  0  0  0  0
    0.1090   66.0730   70.0700 C   0  0  0  0  0  0  0  0  0  0  0  0
    1.4560   66.8080   69.9060 C   0  0  0  0  0  0  0  0  0  0  0  0
    1.8560   66.9700   68.4480 C   0  0  0  0  0  0  0  0  0  0  0  0
    0.8180   67.7720   67.6960 N   0  0  0  0  0  4  0  0  0  0  0  0
   -0.6090   67.5620   68.1710 C   0  0  0  0  0  0  0  0  0  0  0  0
   -0.7500   66.1860   68.8000 C   0  0  0  0  0  0  0  0  0  0  0  0
    1.1760   69.2420   67.5900 C   0  0  0  0  0  0  0  0  0  0  0  0
    2.5940   69.4680   67.1410 C   0  0  0  0  0  0  0  0  0  0  0  0
    2.9980   69.1100   65.8450 C   0  0  0  0  0  0  0  0  0  0  0  0
    4.3220   69.2900   65.4430 C   0  0  0  0  0  0  0  0  0  0  0  0
    5.2540   69.8270   66.3280 C   0  0  0  0  0  0  0  0  0  0  0  0
    4.8650   70.1900   67.6150 C   0  0  0  0  0  0  0  0  0  0  0  0
    3.5420   70.0120   68.0220 C   0  0  0  0  0  0  0  0  0  0  0  0
    1.7220   64.2710   71.0450 C   0  0  0  0  0  0  0  0  0  0  0  0
    3.2650   59.0850   70.8030 C   0  0  0  0  0  0  0  0  0  0  0  0
    2.5500   59.6590   71.8630 C   0  0  0  0  0  0  0  0  0  0  0  0
    2.1940   61.0180   71.8710 C   0  0  0  0  0  0  0  0  0  0  0  0
    2.5370   61.7980   70.7560 C   0  0  0  0  0  0  0  0  0  0  0  0
    3.1960   61.1930   69.7010 C   0  0  0  0  0  0  0  0  0  0  0  0
    3.5590   59.8480   69.6660 C   0  0  0  0  0  0  0  0  0  0  0  0
    3.4120   62.1090   68.7200 O   0  0  0  0  0  0  0  0  0  0  0  0
    2.9050   63.3390   69.1130 N   0  0  0  0  0  0  0  0  0  0  0  0
    2.3820   63.1410   70.3320 C   0  0  0  0  0  0  0  0  0  0  0  0
    3.4890   57.7020   70.7840 N   0  0  0  0  0  0  0  0  0  0  0  0
   -0.4096   64.3694   71.2866 H   0  0  0  0  0  0  0  0  0  0  0  0
    0.2039   64.0002   69.5888 H   0  0  0  0  0  0  0  0  0  0  0  0
   -0.4507   66.5677   70.8775 H   0  0  0  0  0  0  0  0  0  0  0  0
    1.3715   67.8056   70.3618 H   0  0  0  0  0  0  0  0  0  0  0  0
    2.2300   66.2024   70.4001 H   0  0  0  0  0  0  0  0  0  0  0  0
    2.8234   67.4908   68.3945 H   0  0  0  0  0  0  0  0  0  0  0  0
    1.9339   65.9732   67.9894 H   0  0  0  0  0  0  0  0  0  0  0  0
    0.8401   67.3847   66.7419 H   0  0  0  0  0  0  0  0  0  0  0  0
   -0.8618   68.3308   68.9160 H   0  0  0  0  0  0  0  0  0  0  0  0
   -1.2907   67.6375   67.3110 H   0  0  0  0  0  0  0  0  0  0  0  0
   -1.8047   66.0162   69.0622 H   0  0  0  0  0  0  0  0  0  0  0  0
   -0.4080   65.4318   68.0760 H   0  0  0  0  0  0  0  0  0  0  0  0
    0.4984   69.7170   66.8653 H   0  0  0  0  0  0  0  0  0  0  0  0
    1.0737   69.6800   68.5938 H   0  0  0  0  0  0  0  0  0  0  0  0
    2.2663   68.6850   65.1422 H   0  0  0  0  0  0  0  0  0  0  0  0
    4.6302   69.0074   64.4256 H   0  0  0  0  0  0  0  0  0  0  0  0
    6.2981   69.9645   66.0101 H   0  0  0  0  0  0  0  0  0  0  0  0
    5.6013   70.6175   68.3115 H   0  0  0  0  0  0  0  0  0  0  0  0
    3.2400   70.2999   69.0398 H   0  0  0  0  0  0  0  0  0  0  0  0
    2.3562   65.1642   70.9450 H   0  0  0  0  0  0  0  0  0  0  0  0
    1.5976   63.9644   72.0941 H   0  0  0  0  0  0  0  0  0  0  0  0
    2.2588   59.0263   72.7144 H   0  0  0  0  0  0  0  0  0  0  0  0
    1.6615   61.4582   72.7270 H   0  0  0  0  0  0  0  0  0  0  0  0
    4.0527   59.4068   68.7876 H   0  0  0  0  0  0  0  0  0  0  0  0
    4.0140   57.2759   70.0070 H   0  0  0  0  0  0  0  0  0  0  0  0
    3.1287   57.1114   71.5471 H   0  0  0  0  0  0  0  0  0  0  0  0
  2  1  1  0
  3  2  1  0
  4  3  1  0
  5  4  1  0
  6  5  1  0
  7  6  1  0
  7  2  1  0
  8  5  1  0
  9  8  1  0
 10  9  2  0
 11 10  1  0
 12 11  2  0
 13 12  1  0
 14 13  2  0
 14  9  1  0
 15  1  1  0
 17 16  2  0
 18 17  1  0
 19 18  2  0
 20 19  1  0
 21 16  1  0
 21 20  2  0
 22 20  1  0
 23 22  1  0
 24 23  2  0
 24 19  1  0
 24 15  1  0
 25 16  1  0
  1 26  1  0
  1 27  1  0
  2 28  1  0
  3 29  1  0
  3 30  1  0
  4 31  1  0
  4 32  1  0
  5 33  1  0
  6 34  1  0
  6 35  1  0
  7 36  1  0
  7 37  1  0
  8 38  1  0
  8 39  1  0
 10 40  1  0
 11 41  1  0
 12 42  1  0
 13 43  1  0
 14 44  1  0
 15 45  1  0
 15 46  1  0
 17 47  1  0
 18 48  1  0
 21 49  1  0
 25 50  1  0
 25 51  1  0
M  CHG  1   5   1
M  END
>  <score>  (1) 
-10.247

$$$$
=
     RDKit          3D

 51 54  0  0  0  0  0  0  0  0999 V2000
    0.3200   66.6950   69.2090 C   0  0  0  0  0  0  0  0  0  0  0  0
    1.0750   65.8580   70.2670 C   0  0  0  0  0  0  0  0  0  0  0  0
    0.1240   64.8830   70.9910 C   0  0  0  0  0  0  0  0  0  0  0  0
    0.2680   63.4540   70.4940 C   0  0  0  0  0  0  0  0  0  0  0  0
    1.6760   62.9500   70.7200 N   0  0  0  0  0  4  0  0  0  0  0  0
    2.7550   64.0110   70.5930 C   0  0  0  0  0  0  0  0  0  0  0  0
    2.2860   65.1210   69.6690 C   0  0  0  0  0  0  0  0  0  0  0  0
    1.8120   62.1440   71.9990 C   0  0  0  0  0  0  0  0  0  0  0  0
    2.2840   60.7360   71.7550 C   0  0  0  0  0  0  0  0  0  0  0  0
    3.0790   60.4330   70.6380 C   0  0  0  0  0  0  0  0  0  0  0  0
    3.4860   59.1200   70.3980 C   0  0  0  0  0  0  0  0  0  0  0  0
    3.1070   58.1000   71.2670 C   0  0  0  0  0  0  0  0  0  0  0  0
    2.3220   58.3890   72.3810 C   0  0  0  0  0  0  0  0  0  0  0  0
    1.9110   59.7000   72.6260 C   0  0  0  0  0  0  0  0  0  0  0  0
    1.1290   67.8310   68.5640 C   0  0  0  0  0  0  0  0  0  0  0  0
    3.7430   68.9340   63.9500 C   0  0  0  0  0  0  0  0  0  0  0  0
    4.1230   69.4000   65.2170 C   0  0  0  0  0  0  0  0  0  0  0  0
    3.3890   69.0900   66.3740 C   0  0  0  0  0  0  0  0  0  0  0  0
    2.2710   68.2520   66.2440 C   0  0  0  0  0  0  0  0  0  0  0  0
    1.9510   67.7630   64.9900 C   0  0  0  0  0  0  0  0  0  0  0  0
    2.6610   68.0540   63.8270 C   0  0  0  0  0  0  0  0  0  0  0  0
    0.8590   66.9590   65.0850 O   0  0  0  0  0  0  0  0  0  0  0  0
    0.4340   66.9070   66.4040 N   0  0  0  0  0  0  0  0  0  0  0  0
    1.2860   67.6820   67.0900 C   0  0  0  0  0  0  0  0  0  0  0  0
    4.5740   69.1680   62.8470 N   0  0  0  0  0  0  0  0  0  0  0  0
   -0.0066   66.0147   68.4086 H   0  0  0  0  0  0  0  0  0  0  0  0
   -0.5094   67.1808   69.7439 H   0  0  0  0  0  0  0  0  0  0  0  0
    1.4684   66.5631   71.0141 H   0  0  0  0  0  0  0  0  0  0  0  0
    0.3475   64.9063   72.0678 H   0  0  0  0  0  0  0  0  0  0  0  0
   -0.9070   65.2065   70.7852 H   0  0  0  0  0  0  0  0  0  0  0  0
   -0.4382   62.8094   71.0379 H   0  0  0  0  0  0  0  0  0  0  0  0
    0.0523   63.4306   69.4156 H   0  0  0  0  0  0  0  0  0  0  0  0
    1.8445   62.3049   69.9349 H   0  0  0  0  0  0  0  0  0  0  0  0
    2.9715   64.4311   71.5863 H   0  0  0  0  0  0  0  0  0  0  0  0
    3.6639   63.5534   70.1752 H   0  0  0  0  0  0  0  0  0  0  0  0
    3.1071   65.8379   69.5216 H   0  0  0  0  0  0  0  0  0  0  0  0
    1.9874   64.6760   68.7083 H   0  0  0  0  0  0  0  0  0  0  0  0
    2.5356   62.6480   72.6565 H   0  0  0  0  0  0  0  0  0  0  0  0
    0.8148   62.0834   72.4593 H   0  0  0  0  0  0  0  0  0  0  0  0
    3.3825   61.2347   69.9487 H   0  0  0  0  0  0  0  0  0  0  0  0
    4.1078   58.8901   69.5202 H   0  0  0  0  0  0  0  0  0  0  0  0
    3.4276   57.0657   71.0737 H   0  0  0  0  0  0  0  0  0  0  0  0
    2.0258   57.5829   73.0683 H   0  0  0  0  0  0  0  0  0  0  0  0
    1.2910   59.9230   73.5069 H   0  0  0  0  0  0  0  0  0  0  0  0
    0.6157   68.7828   68.7656 H   0  0  0  0  0  0  0  0  0  0  0  0
    2.1373   67.8016   69.0028 H   0  0  0  0  0  0  0  0  0  0  0  0
    5.0224   70.0268   65.3075 H   0  0  0  0  0  0  0  0  0  0  0  0
    3.6825   69.4930   67.3546 H   0  0  0  0  0  0  0  0  0  0  0  0
    2.3845   67.6131   62.8579 H   0  0  0  0  0  0  0  0  0  0  0  0
    4.2997   68.8280   61.9142 H   0  0  0  0  0  0  0  0  0  0  0  0
    5.4593   69.6801   62.9687 H   0  0  0  0  0  0  0  0  0  0  0  0
  2  1  1  0
  3  2  1  0
  4  3  1  0
  5  4  1  0
  6  5  1  0
  7  6  1  0
  7  2  1  0
  8  5  1  0
  9  8  1  0
 10  9  2  0
 11 10  1  0
 12 11  2  0
 13 12  1  0
 14 13  2  0
 14  9  1  0
 15  1  1  0
 17 16  2  0
 18 17  1  0
 19 18  2  0
 20 19  1  0
 21 16  1  0
 21 20  2  0
 22 20  1  0
 23 22  1  0
 24 23  2  0
 24 19  1  0
 24 15  1  0
 25 16  1  0
  1 26  1  0
  1 27  1  0
  2 28  1  0
  3 29  1  0
  3 30  1  0
  4 31  1  0
  4 32  1  0
  5 33  1  0
  6 34  1  0
  6 35  1  0
  7 36  1  0
  7 37  1  0
  8 38  1  0
  8 39  1  0
 10 40  1  0
 11 41  1  0
 12 42  1  0
 13 43  1  0
 14 44  1  0
 15 45  1  0
 15 46  1  0
 17 47  1  0
 18 48  1  0
 21 49  1  0
 25 50  1  0
 25 51  1  0
M  CHG  1   5   1
M  END
>  <score>  (2) 
-9.479

$$$$
=
     RDKit          3D

 51 54  0  0  0  0  0  0  0  0999 V2000
    1.1220   66.4500   69.8730 C   0  0  0  0  0  0  0  0  0  0  0  0
    0.5650   67.4340   68.8180 C   0  0  0  0  0  0  0  0  0  0  0  0
    1.6840   67.9530   67.8920 C   0  0  0  0  0  0  0  0  0  0  0  0
    1.6720   67.2790   66.5300 C   0  0  0  0  0  0  0  0  0  0  0  0
    0.3600   67.5290   65.8220 N   0  0  0  0  0  4  0  0  0  0  0  0
   -0.8460   67.6200   66.7400 C   0  0  0  0  0  0  0  0  0  0  0  0
   -0.5940   66.8240   68.0100 C   0  0  0  0  0  0  0  0  0  0  0  0
    0.4290   68.6930   64.8520 C   0  0  0  0  0  0  0  0  0  0  0  0
    1.7260   68.7420   64.0890 C   0  0  0  0  0  0  0  0  0  0  0  0
    1.7680   68.3860   62.7320 C   0  0  0  0  0  0  0  0  0  0  0  0
    2.9780   68.4000   62.0370 C   0  0  0  0  0  0  0  0  0  0  0  0
    4.1530   68.7680   62.6860 C   0  0  0  0  0  0  0  0  0  0  0  0
    4.1230   69.1280   64.0310 C   0  0  0  0  0  0  0  0  0  0  0  0
    2.9170   69.1150   64.7320 C   0  0  0  0  0  0  0  0  0  0  0  0
    0.3010   65.1680   70.0800 C   0  0  0  0  0  0  0  0  0  0  0  0
    4.5030   62.0720   71.5300 C   0  0  0  0  0  0  0  0  0  0  0  0
    4.4760   62.9130   70.4080 C   0  0  0  0  0  0  0  0  0  0  0  0
    3.3460   63.6790   70.0790 C   0  0  0  0  0  0  0  0  0  0  0  0
    2.2350   63.6200   70.9340 C   0  0  0  0  0  0  0  0  0  0  0  0
    2.3080   62.8230   72.0620 C   0  0  0  0  0  0  0  0  0  0  0  0
    3.4160   62.0550   72.4130 C   0  0  0  0  0  0  0  0  0  0  0  0
    1.1460   62.9250   72.7620 O   0  0  0  0  0  0  0  0  0  0  0  0
    0.2810   63.7860   72.1040 N   0  0  0  0  0  0  0  0  0  0  0  0
    0.9430   64.1980   71.0120 C   0  0  0  0  0  0  0  0  0  0  0  0
    5.6930   61.4250   71.8850 N   0  0  0  0  0  0  0  0  0  0  0  0
    2.1354   66.1569   69.5614 H   0  0  0  0  0  0  0  0  0  0  0  0
    1.0911   66.9867   70.8327 H   0  0  0  0  0  0  0  0  0  0  0  0
    0.1539   68.2947   69.3659 H   0  0  0  0  0  0  0  0  0  0  0  0
    1.5512   69.0358   67.7509 H   0  0  0  0  0  0  0  0  0  0  0  0
    2.6473   67.7225   68.3704 H   0  0  0  0  0  0  0  0  0  0  0  0
    2.4940   67.6822   65.9203 H   0  0  0  0  0  0  0  0  0  0  0  0
    1.7973   66.1952   66.6705 H   0  0  0  0  0  0  0  0  0  0  0  0
    0.2066   66.6769   65.2641 H   0  0  0  0  0  0  0  0  0  0  0  0
   -1.0270   68.6733   67.0002 H   0  0  0  0  0  0  0  0  0  0  0  0
   -1.7249   67.2069   66.2234 H   0  0  0  0  0  0  0  0  0  0  0  0
   -1.5053   66.8303   68.6260 H   0  0  0  0  0  0  0  0  0  0  0  0
   -0.3257   65.7940   67.7324 H   0  0  0  0  0  0  0  0  0  0  0  0
   -0.3983   68.6005   64.1329 H   0  0  0  0  0  0  0  0  0  0  0  0
    0.3567   69.6191   65.4411 H   0  0  0  0  0  0  0  0  0  0  0  0
    0.8425   68.0945   62.2138 H   0  0  0  0  0  0  0  0  0  0  0  0
    3.0032   68.1195   60.9737 H   0  0  0  0  0  0  0  0  0  0  0  0
    5.1058   68.7745   62.1363 H   0  0  0  0  0  0  0  0  0  0  0  0
    5.0517   69.4230   64.5414 H   0  0  0  0  0  0  0  0  0  0  0  0
    2.8991   69.3986   65.7947 H   0  0  0  0  0  0  0  0  0  0  0  0
   -0.6820   65.4456   70.4883 H   0  0  0  0  0  0  0  0  0  0  0  0
    0.2198   64.6728   69.1011 H   0  0  0  0  0  0  0  0  0  0  0  0
    5.3672   62.9745   69.7661 H   0  0  0  0  0  0  0  0  0  0  0  0
    3.3322   64.3076   69.1764 H   0  0  0  0  0  0  0  0  0  0  0  0
    3.4362   61.4631   73.3400 H   0  0  0  0  0  0  0  0  0  0  0  0
    5.7171   60.8065   72.7083 H   0  0  0  0  0  0  0  0  0  0  0  0
    6.5442   61.5676   71.3228 H   0  0  0  0  0  0  0  0  0  0  0  0
  2  1  1  0
  3  2  1  0
  4  3  1  0
  5  4  1  0
  6  5  1  0
  7  6  1  0
  7  2  1  0
  8  5  1  0
  9  8  1  0
 10  9  2  0
 11 10  1  0
 12 11  2  0
 13 12  1  0
 14 13  2  0
 14  9  1  0
 15  1  1  0
 17 16  2  0
 18 17  1  0
 19 18  2  0
 20 19  1  0
 21 16  1  0
 21 20  2  0
 22 20  1  0
 23 22  1  0
 24 23  2  0
 24 19  1  0
 24 15  1  0
 25 16  1  0
  1 26  1  0
  1 27  1  0
  2 28  1  0
  3 29  1  0
  3 30  1  0
  4 31  1  0
  4 32  1  0
  5 33  1  0
  6 34  1  0
  6 35  1  0
  7 36  1  0
  7 37  1  0
  8 38  1  0
  8 39  1  0
 10 40  1  0
 11 41  1  0
 12 42  1  0
 13 43  1  0
 14 44  1  0
 15 45  1  0
 15 46  1  0
 17 47  1  0
 18 48  1  0
 21 49  1  0
 25 50  1  0
 25 51  1  0
M  CHG  1   5   1
M  END
>  <score>  (3) 
-9.428

$$$$
=
     RDKit          3D

 51 54  0  0  0  0  0  0  0  0999 V2000
    1.4300   65.7570   70.4200 C   0  0  0  0  0  0  0  0  0  0  0  0
    0.5930   66.7850   69.6240 C   0  0  0  0  0  0  0  0  0  0  0  0
    1.4910   67.6590   68.7230 C   0  0  0  0  0  0  0  0  0  0  0  0
    1.4320   67.2390   67.2630 C   0  0  0  0  0  0  0  0  0  0  0  0
    0.0210   67.3570   66.7310 N   0  0  0  0  0  4  0  0  0  0  0  0
   -1.0660   67.0580   67.7490 C   0  0  0  0  0  0  0  0  0  0  0  0
   -0.5330   66.1170   68.8160 C   0  0  0  0  0  0  0  0  0  0  0  0
   -0.2230   68.6630   65.9990 C   0  0  0  0  0  0  0  0  0  0  0  0
    0.4730   68.7250   64.6660 C   0  0  0  0  0  0  0  0  0  0  0  0
   -0.2680   68.8160   63.4780 C   0  0  0  0  0  0  0  0  0  0  0  0
    0.3810   68.8400   62.2420 C   0  0  0  0  0  0  0  0  0  0  0  0
    1.7700   68.7740   62.1810 C   0  0  0  0  0  0  0  0  0  0  0  0
    2.5170   68.6880   63.3530 C   0  0  0  0  0  0  0  0  0  0  0  0
    1.8740   68.6630   64.5920 C   0  0  0  0  0  0  0  0  0  0  0  0
    0.8220   64.3490   70.5250 C   0  0  0  0  0  0  0  0  0  0  0  0
    2.9670   59.4970   71.6180 C   0  0  0  0  0  0  0  0  0  0  0  0
    1.9000   60.0780   72.3190 C   0  0  0  0  0  0  0  0  0  0  0  0
    1.4010   61.3500   71.9940 C   0  0  0  0  0  0  0  0  0  0  0  0
    1.9720   62.0260   70.9050 C   0  0  0  0  0  0  0  0  0  0  0  0
    2.9870   61.4070   70.1990 C   0  0  0  0  0  0  0  0  0  0  0  0
    3.5000   60.1470   70.4980 C   0  0  0  0  0  0  0  0  0  0  0  0
    3.3820   62.2130   69.1770 O   0  0  0  0  0  0  0  0  0  0  0  0
    2.6390   63.3830   69.1940 N   0  0  0  0  0  0  0  0  0  0  0  0
    1.7960   63.2610   70.2310 C   0  0  0  0  0  0  0  0  0  0  0  0
    3.3460   58.1780   71.9000 N   0  0  0  0  0  0  0  0  0  0  0  0
    2.4111   65.6670   69.9308 H   0  0  0  0  0  0  0  0  0  0  0  0
    1.4819   66.1415   71.4493 H   0  0  0  0  0  0  0  0  0  0  0  0
    0.1088   67.4443   70.3594 H   0  0  0  0  0  0  0  0  0  0  0  0
    1.1603   68.7051   68.8032 H   0  0  0  0  0  0  0  0  0  0  0  0
    2.5293   67.5368   69.0652 H   0  0  0  0  0  0  0  0  0  0  0  0
    2.0961   67.8879   66.6732 H   0  0  0  0  0  0  0  0  0  0  0  0
    1.7545   66.1904   67.1826 H   0  0  0  0  0  0  0  0  0  0  0  0
   -0.0517   66.6010   66.0353 H   0  0  0  0  0  0  0  0  0  0  0  0
   -1.3916   67.9968   68.2208 H   0  0  0  0  0  0  0  0  0  0  0  0
   -1.9170   66.5820   67.2398 H   0  0  0  0  0  0  0  0  0  0  0  0
   -1.3523   65.8441   69.4974 H   0  0  0  0  0  0  0  0  0  0  0  0
   -0.1282   65.2205   68.3237 H   0  0  0  0  0  0  0  0  0  0  0  0
   -1.3048   68.7774   65.8360 H   0  0  0  0  0  0  0  0  0  0  0  0
    0.1843   69.4725   66.6225 H   0  0  0  0  0  0  0  0  0  0  0  0
   -1.3659   68.8687   63.5206 H   0  0  0  0  0  0  0  0  0  0  0  0
   -0.2065   68.9112   61.3147 H   0  0  0  0  0  0  0  0  0  0  0  0
    2.2783   68.7898   61.2056 H   0  0  0  0  0  0  0  0  0  0  0  0
    3.6148   68.6397   63.3026 H   0  0  0  0  0  0  0  0  0  0  0  0
    2.4680   68.5944   65.5153 H   0  0  0  0  0  0  0  0  0  0  0  0
    0.4409   64.2090   71.5473 H   0  0  0  0  0  0  0  0  0  0  0  0
    0.0236   64.2828   69.7712 H   0  0  0  0  0  0  0  0  0  0  0  0
    1.4402   59.5206   73.1483 H   0  0  0  0  0  0  0  0  0  0  0  0
    0.5856   61.8035   72.5767 H   0  0  0  0  0  0  0  0  0  0  0  0
    4.2865   59.6845   69.8835 H   0  0  0  0  0  0  0  0  0  0  0  0
    4.1288   57.7465   71.3882 H   0  0  0  0  0  0  0  0  0  0  0  0
    2.8418   57.6398   72.6191 H   0  0  0  0  0  0  0  0  0  0  0  0
  2  1  1  0
  3  2  1  0
  4  3  1  0
  5  4  1  0
  6  5  1  0
  7  6  1  0
  7  2  1  0
  8  5  1  0
  9  8  1  0
 10  9  2  0
 11 10  1  0
 12 11  2  0
 13 12  1  0
 14 13  2  0
 14  9  1  0
 15  1  1  0
 17 16  2  0
 18 17  1  0
 19 18  2  0
 20 19  1  0
 21 16  1  0
 21 20  2  0
 22 20  1  0
 23 22  1  0
 24 23  2  0
 24 19  1  0
 24 15  1  0
 25 16  1  0
  1 26  1  0
  1 27  1  0
  2 28  1  0
  3 29  1  0
  3 30  1  0
  4 31  1  0
  4 32  1  0
  5 33  1  0
  6 34  1  0
  6 35  1  0
  7 36  1  0
  7 37  1  0
  8 38  1  0
  8 39  1  0
 10 40  1  0
 11 41  1  0
 12 42  1  0
 13 43  1  0
 14 44  1  0
 15 45  1  0
 15 46  1  0
 17 47  1  0
 18 48  1  0
 21 49  1  0
 25 50  1  0
 25 51  1  0
M  CHG  1   5   1
M  END
>  <score>  (4) 
-9.095

$$$$
=
     RDKit          3D

 51 54  0  0  0  0  0  0  0  0999 V2000
    0.4980   66.0150   70.5890 C   0  0  0  0  0  0  0  0  0  0  0  0
    0.4390   64.4710   70.6560 C   0  0  0  0  0  0  0  0  0  0  0  0
    1.6930   63.8370   70.0190 C   0  0  0  0  0  0  0  0  0  0  0  0
    2.6840   63.3390   71.0580 C   0  0  0  0  0  0  0  0  0  0  0  0
    2.0510   62.2840   71.9370 N   0  0  0  0  0  4  0  0  0  0  0  0
    0.5690   62.4860   72.1990 C   0  0  0  0  0  0  0  0  0  0  0  0
    0.2180   63.9600   72.0900 C   0  0  0  0  0  0  0  0  0  0  0  0
    2.3650   60.8720   71.4770 C   0  0  0  0  0  0  0  0  0  0  0  0
    2.5300   59.9080   72.6210 C   0  0  0  0  0  0  0  0  0  0  0  0
    3.7110   59.8970   73.3800 C   0  0  0  0  0  0  0  0  0  0  0  0
    3.8730   58.9780   74.4180 C   0  0  0  0  0  0  0  0  0  0  0  0
    2.8630   58.0650   74.7080 C   0  0  0  0  0  0  0  0  0  0  0  0
    1.6850   58.0690   73.9640 C   0  0  0  0  0  0  0  0  0  0  0  0
    1.5170   58.9850   72.9250 C   0  0  0  0  0  0  0  0  0  0  0  0
    1.5240   66.5960   69.6040 C   0  0  0  0  0  0  0  0  0  0  0  0
   -2.5510   68.2610   66.4470 C   0  0  0  0  0  0  0  0  0  0  0  0
   -2.5800   67.1160   67.2570 C   0  0  0  0  0  0  0  0  0  0  0  0
   -1.4800   66.7310   68.0410 C   0  0  0  0  0  0  0  0  0  0  0  0
   -0.3430   67.5520   68.0330 C   0  0  0  0  0  0  0  0  0  0  0  0
   -0.3610   68.7030   67.2680 C   0  0  0  0  0  0  0  0  0  0  0  0
   -1.4370   69.1100   66.4820 C   0  0  0  0  0  0  0  0  0  0  0  0
    0.8190   69.3640   67.4180 O   0  0  0  0  0  0  0  0  0  0  0  0
    1.6400   68.6550   68.2810 N   0  0  0  0  0  0  0  0  0  0  0  0
    0.9360   67.5740   68.6460 C   0  0  0  0  0  0  0  0  0  0  0  0
   -3.7130   68.6710   65.7810 N   0  0  0  0  0  0  0  0  0  0  0  0
   -0.4975   66.3797   70.2957 H   0  0  0  0  0  0  0  0  0  0  0  0
    0.8161   66.3485   71.5878 H   0  0  0  0  0  0  0  0  0  0  0  0
   -0.4353   64.1556   70.0676 H   0  0  0  0  0  0  0  0  0  0  0  0
    1.3802   62.9876   69.3940 H   0  0  0  0  0  0  0  0  0  0  0  0
    2.1948   64.6138   69.4233 H   0  0  0  0  0  0  0  0  0  0  0  0
    3.5569   62.9070   70.5467 H   0  0  0  0  0  0  0  0  0  0  0  0
    2.9920   64.1864   71.6881 H   0  0  0  0  0  0  0  0  0  0  0  0
    2.5024   62.4122   72.8539 H   0  0  0  0  0  0  0  0  0  0  0  0
   -0.0126   61.9174   71.4585 H   0  0  0  0  0  0  0  0  0  0  0  0
    0.3301   62.1321   73.2127 H   0  0  0  0  0  0  0  0  0  0  0  0
   -0.8381   64.1002   72.3638 H   0  0  0  0  0  0  0  0  0  0  0  0
    0.8693   64.5282   72.7704 H   0  0  0  0  0  0  0  0  0  0  0  0
    1.5426   60.5200   70.8369 H   0  0  0  0  0  0  0  0  0  0  0  0
    3.3204   60.9062   70.9328 H   0  0  0  0  0  0  0  0  0  0  0  0
    4.5126   60.6161   73.1556 H   0  0  0  0  0  0  0  0  0  0  0  0
    4.8011   58.9752   75.0084 H   0  0  0  0  0  0  0  0  0  0  0  0
    2.9950   57.3402   75.5248 H   0  0  0  0  0  0  0  0  0  0  0  0
    0.8864   57.3491   74.1960 H   0  0  0  0  0  0  0  0  0  0  0  0
    0.5851   58.9839   72.3406 H   0  0  0  0  0  0  0  0  0  0  0  0
    2.3122   67.1028   70.1800 H   0  0  0  0  0  0  0  0  0  0  0  0
    1.9168   65.7567   69.0114 H   0  0  0  0  0  0  0  0  0  0  0  0
   -3.4918   66.5011   67.2788 H   0  0  0  0  0  0  0  0  0  0  0  0
   -1.5095   65.8116   68.6442 H   0  0  0  0  0  0  0  0  0  0  0  0
   -1.4130   70.0529   65.9159 H   0  0  0  0  0  0  0  0  0  0  0  0
   -3.6959   69.5111   65.1853 H   0  0  0  0  0  0  0  0  0  0  0  0
   -4.5845   68.1324   65.8869 H   0  0  0  0  0  0  0  0  0  0  0  0
  2  1  1  0
  3  2  1  0
  4  3  1  0
  5  4  1  0
  6  5  1  0
  7  6  1  0
  7  2  1  0
  8  5  1  0
  9  8  1  0
 10  9  2  0
 11 10  1  0
 12 11  2  0
 13 12  1  0
 14 13  2  0
 14  9  1  0
 15  1  1  0
 17 16  2  0
 18 17  1  0
 19 18  2  0
 20 19  1  0
 21 16  1  0
 21 20  2  0
 22 20  1  0
 23 22  1  0
 24 23  2  0
 24 19  1  0
 24 15  1  0
 25 16  1  0
  1 26  1  0
  1 27  1  0
  2 28  1  0
  3 29  1  0
  3 30  1  0
  4 31  1  0
  4 32  1  0
  5 33  1  0
  6 34  1  0
  6 35  1  0
  7 36  1  0
  7 37  1  0
  8 38  1  0
  8 39  1  0
 10 40  1  0
 11 41  1  0
 12 42  1  0
 13 43  1  0
 14 44  1  0
 15 45  1  0
 15 46  1  0
 17 47  1  0
 18 48  1  0
 21 49  1  0
 25 50  1  0
 25 51  1  0
M  CHG  1   5   1
M  END
>  <score>  (5) 
-8.982

$$$$
=
     RDKit          3D

 51 54  0  0  0  0  0  0  0  0999 V2000
   -0.2080   69.4790   66.1220 C   0  0  0  0  0  0  0  0  0  0  0  0
    0.0180   69.0350   67.5860 C   0  0  0  0  0  0  0  0  0  0  0  0
   -1.0700   68.0410   68.0440 C   0  0  0  0  0  0  0  0  0  0  0  0
   -0.5740   66.6050   68.0640 C   0  0  0  0  0  0  0  0  0  0  0  0
    0.5910   66.4560   69.0170 N   0  0  0  0  0  4  0  0  0  0  0  0
    1.4950   67.6720   69.1040 C   0  0  0  0  0  0  0  0  0  0  0  0
    1.4290   68.4630   67.8080 C   0  0  0  0  0  0  0  0  0  0  0  0
    0.1690   65.9560   70.3850 C   0  0  0  0  0  0  0  0  0  0  0  0
    0.8490   64.6720   70.7750 C   0  0  0  0  0  0  0  0  0  0  0  0
    0.1190   63.6270   71.3630 C   0  0  0  0  0  0  0  0  0  0  0  0
    0.7600   62.4510   71.7530 C   0  0  0  0  0  0  0  0  0  0  0  0
    2.1310   62.3050   71.5610 C   0  0  0  0  0  0  0  0  0  0  0  0
    2.8660   63.3320   70.9750 C   0  0  0  0  0  0  0  0  0  0  0  0
    2.2310   64.5110   70.5830 C   0  0  0  0  0  0  0  0  0  0  0  0
   -0.3990   68.3400   65.1090 C   0  0  0  0  0  0  0  0  0  0  0  0
    4.3940   68.7920   62.6270 C   0  0  0  0  0  0  0  0  0  0  0  0
    4.2200   68.6000   64.0050 C   0  0  0  0  0  0  0  0  0  0  0  0
    2.9460   68.5070   64.5880 C   0  0  0  0  0  0  0  0  0  0  0  0
    1.8260   68.5670   63.7440 C   0  0  0  0  0  0  0  0  0  0  0  0
    2.0280   68.7030   62.3830 C   0  0  0  0  0  0  0  0  0  0  0  0
    3.2790   68.7970   61.7780 C   0  0  0  0  0  0  0  0  0  0  0  0
    0.8260   68.7170   61.7480 O   0  0  0  0  0  0  0  0  0  0  0  0
   -0.1930   68.5970   62.6810 N   0  0  0  0  0  0  0  0  0  0  0  0
    0.4150   68.5060   63.8720 C   0  0  0  0  0  0  0  0  0  0  0  0
    5.6820   68.7550   62.0770 N   0  0  0  0  0  0  0  0  0  0  0  0
   -1.1074   70.1118   66.0945 H   0  0  0  0  0  0  0  0  0  0  0  0
    0.7109   70.0024   65.8192 H   0  0  0  0  0  0  0  0  0  0  0  0
   -0.0635   69.9363   68.2113 H   0  0  0  0  0  0  0  0  0  0  0  0
   -1.3950   68.3162   69.0582 H   0  0  0  0  0  0  0  0  0  0  0  0
   -1.8998   68.0983   67.3242 H   0  0  0  0  0  0  0  0  0  0  0  0
   -1.3921   65.9447   68.3875 H   0  0  0  0  0  0  0  0  0  0  0  0
   -0.2408   66.3314   67.0520 H   0  0  0  0  0  0  0  0  0  0  0  0
    1.1748   65.7213   68.5924 H   0  0  0  0  0  0  0  0  0  0  0  0
    1.1672   68.3106   69.9375 H   0  0  0  0  0  0  0  0  0  0  0  0
    2.5303   67.3407   69.2723 H   0  0  0  0  0  0  0  0  0  0  0  0
    2.1506   69.2920   67.8547 H   0  0  0  0  0  0  0  0  0  0  0  0
    1.6712   67.7899   66.9724 H   0  0  0  0  0  0  0  0  0  0  0  0
    0.4168   66.7250   71.1315 H   0  0  0  0  0  0  0  0  0  0  0  0
   -0.9122   65.7576   70.3446 H   0  0  0  0  0  0  0  0  0  0  0  0
   -0.9647   63.7361   71.5171 H   0  0  0  0  0  0  0  0  0  0  0  0
    0.1807   61.6371   72.2134 H   0  0  0  0  0  0  0  0  0  0  0  0
    2.6340   61.3776   71.8725 H   0  0  0  0  0  0  0  0  0  0  0  0
    3.9487   63.2138   70.8208 H   0  0  0  0  0  0  0  0  0  0  0  0
    2.8164   65.3194   70.1207 H   0  0  0  0  0  0  0  0  0  0  0  0
   -0.1126   67.3934   65.5905 H   0  0  0  0  0  0  0  0  0  0  0  0
   -1.4563   68.3488   64.8058 H   0  0  0  0  0  0  0  0  0  0  0  0
    5.1083   68.5198   64.6488 H   0  0  0  0  0  0  0  0  0  0  0  0
    2.8289   68.3904   65.6755 H   0  0  0  0  0  0  0  0  0  0  0  0
    3.3867   68.8716   60.6858 H   0  0  0  0  0  0  0  0  0  0  0  0
    5.8142   68.8956   61.0652 H   0  0  0  0  0  0  0  0  0  0  0  0
    6.4967   68.5872   62.6844 H   0  0  0  0  0  0  0  0  0  0  0  0
  2  1  1  0
  3  2  1  0
  4  3  1  0
  5  4  1  0
  6  5  1  0
  7  6  1  0
  7  2  1  0
  8  5  1  0
  9  8  1  0
 10  9  2  0
 11 10  1  0
 12 11  2  0
 13 12  1  0
 14 13  2  0
 14  9  1  0
 15  1  1  0
 17 16  2  0
 18 17  1  0
 19 18  2  0
 20 19  1  0
 21 16  1  0
 21 20  2  0
 22 20  1  0
 23 22  1  0
 24 23  2  0
 24 19  1  0
 24 15  1  0
 25 16  1  0
  1 26  1  0
  1 27  1  0
  2 28  1  0
  3 29  1  0
  3 30  1  0
  4 31  1  0
  4 32  1  0
  5 33  1  0
  6 34  1  0
  6 35  1  0
  7 36  1  0
  7 37  1  0
  8 38  1  0
  8 39  1  0
 10 40  1  0
 11 41  1  0
 12 42  1  0
 13 43  1  0
 14 44  1  0
 15 45  1  0
 15 46  1  0
 17 47  1  0
 18 48  1  0
 21 49  1  0
 25 50  1  0
 25 51  1  0
M  CHG  1   5   1
M  END
>  <score>  (6) 
-8.881

$$$$
=
     RDKit          3D

 51 54  0  0  0  0  0  0  0  0999 V2000
   -0.5310   66.0740   69.2560 C   0  0  0  0  0  0  0  0  0  0  0  0
   -0.2650   67.3290   68.3930 C   0  0  0  0  0  0  0  0  0  0  0  0
    1.2290   67.7160   68.4160 C   0  0  0  0  0  0  0  0  0  0  0  0
    1.9540   67.3080   67.1440 C   0  0  0  0  0  0  0  0  0  0  0  0
    1.3390   67.9840   65.9390 N   0  0  0  0  0  4  0  0  0  0  0  0
   -0.1600   68.2020   66.0330 C   0  0  0  0  0  0  0  0  0  0  0  0
   -0.7790   67.1630   66.9520 C   0  0  0  0  0  0  0  0  0  0  0  0
    2.0780   69.2460   65.5330 C   0  0  0  0  0  0  0  0  0  0  0  0
    3.0280   69.0250   64.3880 C   0  0  0  0  0  0  0  0  0  0  0  0
    4.3980   69.2960   64.5350 C   0  0  0  0  0  0  0  0  0  0  0  0
    5.2710   69.1220   63.4600 C   0  0  0  0  0  0  0  0  0  0  0  0
    4.7870   68.6780   62.2320 C   0  0  0  0  0  0  0  0  0  0  0  0
    3.4310   68.4020   62.0750 C   0  0  0  0  0  0  0  0  0  0  0  0
    2.5540   68.5750   63.1460 C   0  0  0  0  0  0  0  0  0  0  0  0
    0.2060   66.0310   70.6040 C   0  0  0  0  0  0  0  0  0  0  0  0
    2.3890   61.9170   73.3700 C   0  0  0  0  0  0  0  0  0  0  0  0
    1.3370   62.7230   73.8290 C   0  0  0  0  0  0  0  0  0  0  0  0
    0.8270   63.7870   73.0670 C   0  0  0  0  0  0  0  0  0  0  0  0
    1.3710   64.0070   71.7920 C   0  0  0  0  0  0  0  0  0  0  0  0
    2.3700   63.1640   71.3430 C   0  0  0  0  0  0  0  0  0  0  0  0
    2.8940   62.1010   72.0760 C   0  0  0  0  0  0  0  0  0  0  0  0
    2.7380   63.5310   70.0860 O   0  0  0  0  0  0  0  0  0  0  0  0
    1.9920   64.6280   69.6850 N   0  0  0  0  0  0  0  0  0  0  0  0
    1.1760   64.9050   70.7120 C   0  0  0  0  0  0  0  0  0  0  0  0
    2.7790   60.7950   74.1120 N   0  0  0  0  0  0  0  0  0  0  0  0
   -1.6111   66.0243   69.4583 H   0  0  0  0  0  0  0  0  0  0  0  0
   -0.1495   65.2212   68.6753 H   0  0  0  0  0  0  0  0  0  0  0  0
   -0.8357   68.1553   68.8419 H   0  0  0  0  0  0  0  0  0  0  0  0
    1.3094   68.8067   68.5338 H   0  0  0  0  0  0  0  0  0  0  0  0
    1.7000   67.1835   69.2554 H   0  0  0  0  0  0  0  0  0  0  0  0
    3.0117   67.6001   67.2215 H   0  0  0  0  0  0  0  0  0  0  0  0
    1.8675   66.2183   67.0212 H   0  0  0  0  0  0  0  0  0  0  0  0
    1.4605   67.3026   65.1762 H   0  0  0  0  0  0  0  0  0  0  0  0
   -0.3576   69.2071   66.4340 H   0  0  0  0  0  0  0  0  0  0  0  0
   -0.6025   68.1070   65.0304 H   0  0  0  0  0  0  0  0  0  0  0  0
   -1.8726   67.2808   66.9439 H   0  0  0  0  0  0  0  0  0  0  0  0
   -0.4978   66.1625   66.5915 H   0  0  0  0  0  0  0  0  0  0  0  0
    1.3395   70.0047   65.2349 H   0  0  0  0  0  0  0  0  0  0  0  0
    2.6738   69.5725   66.3981 H   0  0  0  0  0  0  0  0  0  0  0  0
    4.7853   69.6474   65.5028 H   0  0  0  0  0  0  0  0  0  0  0  0
    6.3430   69.3359   63.5829 H   0  0  0  0  0  0  0  0  0  0  0  0
    5.4764   68.5452   61.3852 H   0  0  0  0  0  0  0  0  0  0  0  0
    3.0511   68.0472   61.1055 H   0  0  0  0  0  0  0  0  0  0  0  0
    1.4836   68.3572   63.0162 H   0  0  0  0  0  0  0  0  0  0  0  0
    0.7534   66.9764   70.7325 H   0  0  0  0  0  0  0  0  0  0  0  0
   -0.5539   65.8813   71.3851 H   0  0  0  0  0  0  0  0  0  0  0  0
    0.8979   62.5155   74.8160 H   0  0  0  0  0  0  0  0  0  0  0  0
    0.0243   64.4294   73.4582 H   0  0  0  0  0  0  0  0  0  0  0  0
    3.6667   61.4384   71.6589 H   0  0  0  0  0  0  0  0  0  0  0  0
    3.5511   60.2002   73.7788 H   0  0  0  0  0  0  0  0  0  0  0  0
    2.2938   60.5647   74.9909 H   0  0  0  0  0  0  0  0  0  0  0  0
  2  1  1  0
  3  2  1  0
  4  3  1  0
  5  4  1  0
  6  5  1  0
  7  6  1  0
  7  2  1  0
  8  5  1  0
  9  8  1  0
 10  9  2  0
 11 10  1  0
 12 11  2  0
 13 12  1  0
 14 13  2  0
 14  9  1  0
 15  1  1  0
 17 16  2  0
 18 17  1  0
 19 18  2  0
 20 19  1  0
 21 16  1  0
 21 20  2  0
 22 20  1  0
 23 22  1  0
 24 23  2  0
 24 19  1  0
 24 15  1  0
 25 16  1  0
  1 26  1  0
  1 27  1  0
  2 28  1  0
  3 29  1  0
  3 30  1  0
  4 31  1  0
  4 32  1  0
  5 33  1  0
  6 34  1  0
  6 35  1  0
  7 36  1  0
  7 37  1  0
  8 38  1  0
  8 39  1  0
 10 40  1  0
 11 41  1  0
 12 42  1  0
 13 43  1  0
 14 44  1  0
 15 45  1  0
 15 46  1  0
 17 47  1  0
 18 48  1  0
 21 49  1  0
 25 50  1  0
 25 51  1  0
M  CHG  1   5   1
M  END
>  <score>  (7) 
-8.598

$$$$
=
     RDKit          3D

 51 54  0  0  0  0  0  0  0  0999 V2000
    1.2810   67.5240   69.1740 C   0  0  0  0  0  0  0  0  0  0  0  0
    0.7620   66.1140   69.5400 C   0  0  0  0  0  0  0  0  0  0  0  0
    1.8580   65.0460   69.3370 C   0  0  0  0  0  0  0  0  0  0  0  0
    2.4870   64.6030   70.6480 C   0  0  0  0  0  0  0  0  0  0  0  0
    1.4450   64.0010   71.5630 N   0  0  0  0  0  4  0  0  0  0  0  0
    0.0650   64.6250   71.4470 C   0  0  0  0  0  0  0  0  0  0  0  0
    0.1830   66.0610   70.9650 C   0  0  0  0  0  0  0  0  0  0  0  0
    1.3970   62.4870   71.4830 C   0  0  0  0  0  0  0  0  0  0  0  0
    2.7650   61.8610   71.4230 C   0  0  0  0  0  0  0  0  0  0  0  0
    3.5810   61.8190   72.5640 C   0  0  0  0  0  0  0  0  0  0  0  0
    4.8610   61.2680   72.4950 C   0  0  0  0  0  0  0  0  0  0  0  0
    5.3380   60.7550   71.2920 C   0  0  0  0  0  0  0  0  0  0  0  0
    4.5370   60.7880   70.1540 C   0  0  0  0  0  0  0  0  0  0  0  0
    3.2560   61.3380   70.2150 C   0  0  0  0  0  0  0  0  0  0  0  0
    1.0170   67.9700   67.7270 C   0  0  0  0  0  0  0  0  0  0  0  0
    4.1950   68.7200   63.4060 C   0  0  0  0  0  0  0  0  0  0  0  0
    3.0380   67.9270   63.4220 C   0  0  0  0  0  0  0  0  0  0  0  0
    2.2660   67.7610   64.5840 C   0  0  0  0  0  0  0  0  0  0  0  0
    2.6560   68.4520   65.7410 C   0  0  0  0  0  0  0  0  0  0  0  0
    3.7700   69.2690   65.6820 C   0  0  0  0  0  0  0  0  0  0  0  0
    4.5530   69.4530   64.5440 C   0  0  0  0  0  0  0  0  0  0  0  0
    3.9600   69.8610   66.8920 O   0  0  0  0  0  0  0  0  0  0  0  0
    2.9780   69.4390   67.7740 N   0  0  0  0  0  0  0  0  0  0  0  0
    2.2010   68.5980   67.0760 C   0  0  0  0  0  0  0  0  0  0  0  0
    4.8610   68.9520   62.1950 N   0  0  0  0  0  0  0  0  0  0  0  0
    0.7972   68.2484   69.8457 H   0  0  0  0  0  0  0  0  0  0  0  0
    2.3748   67.4814   69.2826 H   0  0  0  0  0  0  0  0  0  0  0  0
   -0.0646   65.8849   68.8513 H   0  0  0  0  0  0  0  0  0  0  0  0
    1.4101   64.1693   68.8463 H   0  0  0  0  0  0  0  0  0  0  0  0
    2.6509   65.4931   68.7194 H   0  0  0  0  0  0  0  0  0  0  0  0
    3.2631   63.8516   70.4406 H   0  0  0  0  0  0  0  0  0  0  0  0
    2.9286   65.4804   71.1432 H   0  0  0  0  0  0  0  0  0  0  0  0
    1.7685   64.2448   72.5100 H   0  0  0  0  0  0  0  0  0  0  0  0
   -0.5365   64.0480   70.7292 H   0  0  0  0  0  0  0  0  0  0  0  0
   -0.4204   64.6141   72.4341 H   0  0  0  0  0  0  0  0  0  0  0  0
   -0.8144   66.5249   70.9664 H   0  0  0  0  0  0  0  0  0  0  0  0
    0.8595   66.6050   71.6406 H   0  0  0  0  0  0  0  0  0  0  0  0
    0.8745   62.1047   72.3723 H   0  0  0  0  0  0  0  0  0  0  0  0
    0.8709   62.2215   70.5542 H   0  0  0  0  0  0  0  0  0  0  0  0
    3.2096   62.2225   73.5175 H   0  0  0  0  0  0  0  0  0  0  0  0
    5.4949   61.2389   73.3935 H   0  0  0  0  0  0  0  0  0  0  0  0
    6.3485   60.3233   71.2406 H   0  0  0  0  0  0  0  0  0  0  0  0
    4.9145   60.3798   69.2049 H   0  0  0  0  0  0  0  0  0  0  0  0
    2.6274   61.3622   69.3126 H   0  0  0  0  0  0  0  0  0  0  0  0
    0.7223   67.0885   67.1387 H   0  0  0  0  0  0  0  0  0  0  0  0
    0.2236   68.7311   67.7614 H   0  0  0  0  0  0  0  0  0  0  0  0
    2.7258   67.4200   62.4971 H   0  0  0  0  0  0  0  0  0  0  0  0
    1.3809   67.1078   64.5866 H   0  0  0  0  0  0  0  0  0  0  0  0
    5.4112   70.1411   64.5399 H   0  0  0  0  0  0  0  0  0  0  0  0
    5.7109   69.5335   62.1779 H   0  0  0  0  0  0  0  0  0  0  0  0
    4.5006   68.5410   61.3221 H   0  0  0  0  0  0  0  0  0  0  0  0
  2  1  1  0
  3  2  1  0
  4  3  1  0
  5  4  1  0
  6  5  1  0
  7  6  1  0
  7  2  1  0
  8  5  1  0
  9  8  1  0
 10  9  2  0
 11 10  1  0
 12 11  2  0
 13 12  1  0
 14 13  2  0
 14  9  1  0
 15  1  1  0
 17 16  2  0
 18 17  1  0
 19 18  2  0
 20 19  1  0
 21 16  1  0
 21 20  2  0
 22 20  1  0
 23 22  1  0
 24 23  2  0
 24 19  1  0
 24 15  1  0
 25 16  1  0
  1 26  1  0
  1 27  1  0
  2 28  1  0
  3 29  1  0
  3 30  1  0
  4 31  1  0
  4 32  1  0
  5 33  1  0
  6 34  1  0
  6 35  1  0
  7 36  1  0
  7 37  1  0
  8 38  1  0
  8 39  1  0
 10 40  1  0
 11 41  1  0
 12 42  1  0
 13 43  1  0
 14 44  1  0
 15 45  1  0
 15 46  1  0
 17 47  1  0
 18 48  1  0
 21 49  1  0
 25 50  1  0
 25 51  1  0
M  CHG  1   5   1
M  END
>  <score>  (8) 
-8.519

$$$$
=
     RDKit          3D

 51 54  0  0  0  0  0  0  0  0999 V2000
    4.4930   60.4070   70.5860 C   0  0  0  0  0  0  0  0  0  0  0  0
    4.2260   59.1670   71.4700 C   0  0  0  0  0  0  0  0  0  0  0  0
    4.1450   59.5520   72.9620 C   0  0  0  0  0  0  0  0  0  0  0  0
    2.7150   59.5980   73.4750 C   0  0  0  0  0  0  0  0  0  0  0  0
    2.0530   58.2460   73.3300 N   0  0  0  0  0  4  0  0  0  0  0  0
    2.4990   57.4500   72.1150 C   0  0  0  0  0  0  0  0  0  0  0  0
    2.9730   58.3930   71.0230 C   0  0  0  0  0  0  0  0  0  0  0  0
    2.1090   57.4250   74.6040 C   0  0  0  0  0  0  0  0  0  0  0  0
    1.4440   56.0820   74.4660 C   0  0  0  0  0  0  0  0  0  0  0  0
    0.0970   55.9900   74.0800 C   0  0  0  0  0  0  0  0  0  0  0  0
   -0.5250   54.7440   73.9850 C   0  0  0  0  0  0  0  0  0  0  0  0
    0.1880   53.5830   74.2730 C   0  0  0  0  0  0  0  0  0  0  0  0
    1.5250   53.6620   74.6530 C   0  0  0  0  0  0  0  0  0  0  0  0
    2.1530   54.9040   74.7500 C   0  0  0  0  0  0  0  0  0  0  0  0
    3.4000   60.7320   69.5560 C   0  0  0  0  0  0  0  0  0  0  0  0
    0.3330   64.4450   72.0360 C   0  0  0  0  0  0  0  0  0  0  0  0
    0.4740   63.1140   72.4530 C   0  0  0  0  0  0  0  0  0  0  0  0
    1.2750   62.1960   71.7540 C   0  0  0  0  0  0  0  0  0  0  0  0
    1.9800   62.6540   70.6300 C   0  0  0  0  0  0  0  0  0  0  0  0
    1.8630   63.9850   70.2720 C   0  0  0  0  0  0  0  0  0  0  0  0
    1.0780   64.9170   70.9480 C   0  0  0  0  0  0  0  0  0  0  0  0
    2.6380   64.2280   69.1810 O   0  0  0  0  0  0  0  0  0  0  0  0
    3.2750   63.0580   68.7950 N   0  0  0  0  0  0  0  0  0  0  0  0
    2.8760   62.1230   69.6690 C   0  0  0  0  0  0  0  0  0  0  0  0
   -0.3770   65.3520   72.8340 N   0  0  0  0  0  0  0  0  0  0  0  0
    4.6043   61.2780   71.2485 H   0  0  0  0  0  0  0  0  0  0  0  0
    5.3971   60.1745   70.0042 H   0  0  0  0  0  0  0  0  0  0  0  0
    5.0829   58.4895   71.3406 H   0  0  0  0  0  0  0  0  0  0  0  0
    4.7064   58.8100   73.5487 H   0  0  0  0  0  0  0  0  0  0  0  0
    4.5713   60.5602   73.0704 H   0  0  0  0  0  0  0  0  0  0  0  0
    2.7210   59.8854   74.5368 H   0  0  0  0  0  0  0  0  0  0  0  0
    2.1502   60.3343   72.8843 H   0  0  0  0  0  0  0  0  0  0  0  0
    1.0624   58.4668   73.1543 H   0  0  0  0  0  0  0  0  0  0  0  0
    3.3231   56.7798   72.4008 H   0  0  0  0  0  0  0  0  0  0  0  0
    1.6511   56.8586   71.7391 H   0  0  0  0  0  0  0  0  0  0  0  0
    3.2129   57.8090   70.1222 H   0  0  0  0  0  0  0  0  0  0  0  0
    2.1712   59.1156   70.8108 H   0  0  0  0  0  0  0  0  0  0  0  0
    3.1637   57.2681   74.8742 H   0  0  0  0  0  0  0  0  0  0  0  0
    1.5658   57.9837   75.3804 H   0  0  0  0  0  0  0  0  0  0  0  0
   -0.4706   56.9041   73.8514 H   0  0  0  0  0  0  0  0  0  0  0  0
   -1.5805   54.6791   73.6820 H   0  0  0  0  0  0  0  0  0  0  0  0
   -0.3056   52.6027   74.2002 H   0  0  0  0  0  0  0  0  0  0  0  0
    2.0872   52.7435   74.8772 H   0  0  0  0  0  0  0  0  0  0  0  0
    3.2096   54.9606   75.0507 H   0  0  0  0  0  0  0  0  0  0  0  0
    3.8196   60.5981   68.5480 H   0  0  0  0  0  0  0  0  0  0  0  0
    2.5582   60.0508   69.7493 H   0  0  0  0  0  0  0  0  0  0  0  0
   -0.0588   62.7784   73.3549 H   0  0  0  0  0  0  0  0  0  0  0  0
    1.3478   61.1474   72.0784 H   0  0  0  0  0  0  0  0  0  0  0  0
    1.0450   65.9730   70.6417 H   0  0  0  0  0  0  0  0  0  0  0  0
   -0.4830   66.3308   72.5315 H   0  0  0  0  0  0  0  0  0  0  0  0
   -0.7929   65.0399   73.7231 H   0  0  0  0  0  0  0  0  0  0  0  0
  2  1  1  0
  3  2  1  0
  4  3  1  0
  5  4  1  0
  6  5  1  0
  7  6  1  0
  7  2  1  0
  8  5  1  0
  9  8  1  0
 10  9  2  0
 11 10  1  0
 12 11  2  0
 13 12  1  0
 14 13  2  0
 14  9  1  0
 15  1  1  0
 17 16  2  0
 18 17  1  0
 19 18  2  0
 20 19  1  0
 21 16  1  0
 21 20  2  0
 22 20  1  0
 23 22  1  0
 24 23  2  0
 24 19  1  0
 24 15  1  0
 25 16  1  0
  1 26  1  0
  1 27  1  0
  2 28  1  0
  3 29  1  0
  3 30  1  0
  4 31  1  0
  4 32  1  0
  5 33  1  0
  6 34  1  0
  6 35  1  0
  7 36  1  0
  7 37  1  0
  8 38  1  0
  8 39  1  0
 10 40  1  0
 11 41  1  0
 12 42  1  0
 13 43  1  0
 14 44  1  0
 15 45  1  0
 15 46  1  0
 17 47  1  0
 18 48  1  0
 21 49  1  0
 25 50  1  0
 25 51  1  0
M  CHG  1   5   1
M  END
>  <score>  (9) 
-8.161

$$$$
