=
     RDKit          3D

 45 47  0  0  0  0  0  0  0  0999 V2000
    0.7040   66.2110   69.9060 C   0  0  0  0  0  0  0  0  0  0  0  0
    1.9310   65.6260   69.5850 C   0  0  0  0  0  0  0  0  0  0  0  0
    2.3880   64.5000   70.2740 C   0  0  0  0  0  0  0  0  0  0  0  0
    1.6200   63.9410   71.3000 C   0  0  0  0  0  0  0  0  0  0  0  0
    0.3880   64.5270   71.6180 C   0  0  0  0  0  0  0  0  0  0  0  0
   -0.0670   65.6560   70.9270 C   0  0  0  0  0  0  0  0  0  0  0  0
    0.3780   67.3070   69.1540 O   0  0  0  0  0  0  0  0  0  0  0  0
    1.2500   67.6280   68.0640 C   0  0  0  0  0  0  0  0  0  0  0  0
    1.3860   69.1470   68.0050 C   0  0  0  0  0  0  0  0  0  0  0  0
    5.4160   70.5520   68.1490 C   0  0  0  0  0  0  0  0  0  0  0  0
    4.9330   69.9610   66.9820 C   0  0  0  0  0  0  0  0  0  0  0  0
    3.6190   69.5000   66.9320 C   0  0  0  0  0  0  0  0  0  0  0  0
    2.8090   69.6430   68.0560 C   0  0  0  0  0  0  0  0  0  0  0  0
    3.2530   70.2200   69.1970 N   0  0  0  0  0  0  0  0  0  0  0  0
    4.5340   70.6590   69.2180 C   0  0  0  0  0  0  0  0  0  0  0  0
    7.4300   70.8280   69.6100 C   0  0  0  0  0  0  0  0  0  0  0  0
    6.8190   71.0780   68.2400 C   0  0  0  0  0  0  0  0  0  0  0  0
    2.0930   62.7100   72.0420 C   0  0  0  0  0  0  0  0  0  0  0  0
    3.3690   62.1280   71.4320 C   0  0  2  0  0  0  0  0  0  0  0  0
    3.0060   61.1970   69.8960 S   0  0  0  0  0  0  0  0  0  0  0  0
    3.8920   59.7910   70.4210 C   0  0  0  0  0  0  0  0  0  0  0  0
    3.9550   58.7520   69.7860 O   0  0  0  0  0  0  0  0  0  0  0  0
    4.4380   60.0020   71.6390 N   0  0  0  0  0  0  0  0  0  0  0  0
    4.0320   61.1020   72.3350 C   0  0  0  0  0  0  0  0  0  0  0  0
    4.1990   61.2090   73.5420 O   0  0  0  0  0  0  0  0  0  0  0  0
    2.5447   66.0570   68.7802 H   0  0  0  0  0  0  0  0  0  0  0  0
    3.3564   64.0511   70.0082 H   0  0  0  0  0  0  0  0  0  0  0  0
   -0.2288   64.0950   72.4198 H   0  0  0  0  0  0  0  0  0  0  0  0
   -1.0353   66.1067   71.1900 H   0  0  0  0  0  0  0  0  0  0  0  0
    2.2368   67.1703   68.2273 H   0  0  0  0  0  0  0  0  0  0  0  0
    0.8403   67.2426   67.1187 H   0  0  0  0  0  0  0  0  0  0  0  0
    0.9319   69.4977   67.0665 H   0  0  0  0  0  0  0  0  0  0  0  0
    0.8808   69.5443   68.8977 H   0  0  0  0  0  0  0  0  0  0  0  0
    5.5873   69.8590   66.1036 H   0  0  0  0  0  0  0  0  0  0  0  0
    3.2271   69.0299   66.0180 H   0  0  0  0  0  0  0  0  0  0  0  0
    4.9005   71.1311   70.1415 H   0  0  0  0  0  0  0  0  0  0  0  0
    6.7126   71.1215   70.3905 H   0  0  0  0  0  0  0  0  0  0  0  0
    7.6695   69.7596   69.7152 H   0  0  0  0  0  0  0  0  0  0  0  0
    8.3498   71.4221   69.7152 H   0  0  0  0  0  0  0  0  0  0  0  0
    7.4362   70.5785   67.4787 H   0  0  0  0  0  0  0  0  0  0  0  0
    6.7873   72.1649   68.0738 H   0  0  0  0  0  0  0  0  0  0  0  0
    2.2918   62.9812   73.0893 H   0  0  0  0  0  0  0  0  0  0  0  0
    1.3040   61.9468   71.9713 H   0  0  0  0  0  0  0  0  0  0  0  0
    4.0169   63.0008   71.2634 H   0  0  0  0  0  0  0  0  0  0  0  0
    5.1373   59.3538   72.0285 H   0  0  0  0  0  0  0  0  0  0  0  0
  2  1  2  0
  3  2  1  0
  4  3  2  0
  5  4  1  0
  6  5  2  0
  6  1  1  0
  7  1  1  0
  8  7  1  0
  9  8  1  0
 11 10  2  0
 12 11  1  0
 13 12  2  0
 13  9  1  0
 14 13  1  0
 15 14  2  0
 15 10  1  0
 17 10  1  0
 17 16  1  0
 18  4  1  0
 19 18  1  0
 20 19  1  0
 21 20  1  0
 22 21  2  0
 23 21  1  0
 24 23  1  0
 24 19  1  0
 25 24  2  0
  2 26  1  0
  3 27  1  0
  5 28  1  0
  6 29  1  0
  8 30  1  0
  8 31  1  0
  9 32  1  0
  9 33  1  0
 11 34  1  0
 12 35  1  0
 15 36  1  0
 16 37  1  0
 16 38  1  0
 16 39  1  0
 17 40  1  0
 17 41  1  0
 18 42  1  0
 18 43  1  0
 19 44  1  6
 23 45  1  0
M  END
>  <score>  (1) 
-9.808

$$$$
=
     RDKit          3D

 45 47  0  0  0  0  0  0  0  0999 V2000
   -0.1900   66.7290   68.8210 C   0  0  0  0  0  0  0  0  0  0  0  0
    1.1060   67.2220   68.6620 C   0  0  0  0  0  0  0  0  0  0  0  0
    1.4520   67.9740   67.5360 C   0  0  0  0  0  0  0  0  0  0  0  0
    0.5010   68.2430   66.5480 C   0  0  0  0  0  0  0  0  0  0  0  0
   -0.8010   67.7510   66.7110 C   0  0  0  0  0  0  0  0  0  0  0  0
   -1.1450   66.9960   67.8390 C   0  0  0  0  0  0  0  0  0  0  0  0
   -0.3930   66.0100   69.9670 O   0  0  0  0  0  0  0  0  0  0  0  0
    0.7720   65.5070   70.6310 C   0  0  0  0  0  0  0  0  0  0  0  0
    0.4000   64.1800   71.2880 C   0  0  0  0  0  0  0  0  0  0  0  0
    2.9200   60.9120   70.1880 C   0  0  0  0  0  0  0  0  0  0  0  0
    2.2860   60.9060   71.4300 C   0  0  0  0  0  0  0  0  0  0  0  0
    1.4640   61.9720   71.7920 C   0  0  0  0  0  0  0  0  0  0  0  0
    1.2900   63.0270   70.9000 C   0  0  0  0  0  0  0  0  0  0  0  0
    1.8900   63.0510   69.6860 N   0  0  0  0  0  0  0  0  0  0  0  0
    2.6820   62.0030   69.3590 C   0  0  0  0  0  0  0  0  0  0  0  0
    3.5370   58.5140   70.5570 C   0  0  0  0  0  0  0  0  0  0  0  0
    3.7990   59.7760   69.7490 C   0  0  0  0  0  0  0  0  0  0  0  0
    0.8540   69.0720   65.3330 C   0  0  0  0  0  0  0  0  0  0  0  0
    1.1220   68.2020   64.1040 C   0  0  2  0  0  0  0  0  0  0  0  0
    2.7850   68.5300   63.4080 S   0  0  0  0  0  0  0  0  0  0  0  0
    2.1730   68.7520   61.7910 C   0  0  0  0  0  0  0  0  0  0  0  0
    2.8650   69.0750   60.8420 O   0  0  0  0  0  0  0  0  0  0  0  0
    0.8330   68.5750   61.7630 N   0  0  0  0  0  0  0  0  0  0  0  0
    0.1770   68.5070   62.9560 C   0  0  0  0  0  0  0  0  0  0  0  0
   -1.0310   68.6800   63.0460 O   0  0  0  0  0  0  0  0  0  0  0  0
    1.8641   67.0162   69.4321 H   0  0  0  0  0  0  0  0  0  0  0  0
    2.4778   68.3560   67.4269 H   0  0  0  0  0  0  0  0  0  0  0  0
   -1.5614   67.9603   65.9442 H   0  0  0  0  0  0  0  0  0  0  0  0
   -2.1699   66.6126   67.9513 H   0  0  0  0  0  0  0  0  0  0  0  0
    1.5797   65.3494   69.9011 H   0  0  0  0  0  0  0  0  0  0  0  0
    1.1224   66.2247   71.3874 H   0  0  0  0  0  0  0  0  0  0  0  0
    0.4568   64.3075   72.3791 H   0  0  0  0  0  0  0  0  0  0  0  0
   -0.6127   63.9283   70.9402 H   0  0  0  0  0  0  0  0  0  0  0  0
    2.4340   60.0633   72.1214 H   0  0  0  0  0  0  0  0  0  0  0  0
    0.9594   61.9797   72.7694 H   0  0  0  0  0  0  0  0  0  0  0  0
    3.1693   62.0151   68.3729 H   0  0  0  0  0  0  0  0  0  0  0  0
    3.5858   58.7492   71.6305 H   0  0  0  0  0  0  0  0  0  0  0  0
    2.5385   58.1227   70.3124 H   0  0  0  0  0  0  0  0  0  0  0  0
    4.2973   57.7576   70.3124 H   0  0  0  0  0  0  0  0  0  0  0  0
    3.6049   59.5655   68.6869 H   0  0  0  0  0  0  0  0  0  0  0  0
    4.8462   60.0727   69.9083 H   0  0  0  0  0  0  0  0  0  0  0  0
    0.0178   69.7515   65.1116 H   0  0  0  0  0  0  0  0  0  0  0  0
    1.7730   69.6325   65.5594 H   0  0  0  0  0  0  0  0  0  0  0  0
    1.0026   67.1701   64.4657 H   0  0  0  0  0  0  0  0  0  0  0  0
    0.3250   68.4943   60.8706 H   0  0  0  0  0  0  0  0  0  0  0  0
  2  1  2  0
  3  2  1  0
  4  3  2  0
  5  4  1  0
  6  5  2  0
  6  1  1  0
  7  1  1  0
  8  7  1  0
  9  8  1  0
 11 10  2  0
 12 11  1  0
 13 12  2  0
 13  9  1  0
 14 13  1  0
 15 14  2  0
 15 10  1  0
 17 10  1  0
 17 16  1  0
 18  4  1  0
 19 18  1  0
 20 19  1  0
 21 20  1  0
 22 21  2  0
 23 21  1  0
 24 23  1  0
 24 19  1  0
 25 24  2  0
  2 26  1  0
  3 27  1  0
  5 28  1  0
  6 29  1  0
  8 30  1  0
  8 31  1  0
  9 32  1  0
  9 33  1  0
 11 34  1  0
 12 35  1  0
 15 36  1  0
 16 37  1  0
 16 38  1  0
 16 39  1  0
 17 40  1  0
 17 41  1  0
 18 42  1  0
 18 43  1  0
 19 44  1  1
 23 45  1  0
M  END
>  <score>  (2) 
-9.652

$$$$
=
     RDKit          3D

 45 47  0  0  0  0  0  0  0  0999 V2000
    1.8120   64.4980   70.5860 C   0  0  0  0  0  0  0  0  0  0  0  0
    3.0430   63.8510   70.4650 C   0  0  0  0  0  0  0  0  0  0  0  0
    3.3170   62.6920   71.1950 C   0  0  0  0  0  0  0  0  0  0  0  0
    2.3570   62.1600   72.0610 C   0  0  0  0  0  0  0  0  0  0  0  0
    1.1200   62.8090   72.1790 C   0  0  0  0  0  0  0  0  0  0  0  0
    0.8500   63.9710   71.4480 C   0  0  0  0  0  0  0  0  0  0  0  0
    1.6770   65.6210   69.8170 O   0  0  0  0  0  0  0  0  0  0  0  0
    0.5150   66.4270   70.0440 C   0  0  0  0  0  0  0  0  0  0  0  0
   -0.0150   66.8780   68.6850 C   0  0  0  0  0  0  0  0  0  0  0  0
    2.9040   68.7810   66.2160 C   0  0  0  0  0  0  0  0  0  0  0  0
    2.5800   69.3370   67.4530 C   0  0  0  0  0  0  0  0  0  0  0  0
    1.6260   68.7190   68.2600 C   0  0  0  0  0  0  0  0  0  0  0  0
    1.0150   67.5500   67.8130 C   0  0  0  0  0  0  0  0  0  0  0  0
    1.3200   66.9890   66.6190 N   0  0  0  0  0  0  0  0  0  0  0  0
    2.2490   67.6090   65.8550 C   0  0  0  0  0  0  0  0  0  0  0  0
    5.1960   69.7800   66.0900 C   0  0  0  0  0  0  0  0  0  0  0  0
    3.9390   69.4030   65.3220 C   0  0  0  0  0  0  0  0  0  0  0  0
    2.6310   60.8950   72.8430 C   0  0  0  0  0  0  0  0  0  0  0  0
    2.0540   59.6570   72.1510 C   0  0  2  0  0  0  0  0  0  0  0  0
    1.1460   58.5970   73.3380 S   0  0  0  0  0  0  0  0  0  0  0  0
    1.9960   57.1550   72.8510 C   0  0  0  0  0  0  0  0  0  0  0  0
    1.8420   56.0670   73.3770 O   0  0  0  0  0  0  0  0  0  0  0  0
    2.8760   57.4340   71.8640 N   0  0  0  0  0  0  0  0  0  0  0  0
    3.1320   58.7450   71.5940 C   0  0  0  0  0  0  0  0  0  0  0  0
    4.1260   59.1020   70.9750 O   0  0  0  0  0  0  0  0  0  0  0  0
    3.8067   64.2589   69.7864 H   0  0  0  0  0  0  0  0  0  0  0  0
    4.2927   62.1955   71.0880 H   0  0  0  0  0  0  0  0  0  0  0  0
    0.3533   62.4002   72.8536 H   0  0  0  0  0  0  0  0  0  0  0  0
   -0.1242   64.4708   71.5533 H   0  0  0  0  0  0  0  0  0  0  0  0
   -0.2522   65.8379   70.5678 H   0  0  0  0  0  0  0  0  0  0  0  0
    0.7682   67.2986   70.6654 H   0  0  0  0  0  0  0  0  0  0  0  0
   -0.3947   65.9939   68.1519 H   0  0  0  0  0  0  0  0  0  0  0  0
   -0.7981   67.6248   68.8827 H   0  0  0  0  0  0  0  0  0  0  0  0
    3.0751   70.2594   67.7906 H   0  0  0  0  0  0  0  0  0  0  0  0
    1.3594   69.1489   69.2368 H   0  0  0  0  0  0  0  0  0  0  0  0
    2.5025   67.1562   64.8851 H   0  0  0  0  0  0  0  0  0  0  0  0
    4.9974   69.7204   67.1703 H   0  0  0  0  0  0  0  0  0  0  0  0
    6.0080   69.0859   65.8277 H   0  0  0  0  0  0  0  0  0  0  0  0
    5.4920   70.8064   65.8277 H   0  0  0  0  0  0  0  0  0  0  0  0
    4.2059   68.6846   64.5329 H   0  0  0  0  0  0  0  0  0  0  0  0
    3.5123   70.3215   64.8928 H   0  0  0  0  0  0  0  0  0  0  0  0
    3.7190   60.7697   72.9460 H   0  0  0  0  0  0  0  0  0  0  0  0
    2.1470   60.9915   73.8261 H   0  0  0  0  0  0  0  0  0  0  0  0
    1.4112   60.0600   71.3545 H   0  0  0  0  0  0  0  0  0  0  0  0
    3.3376   56.6812   71.3338 H   0  0  0  0  0  0  0  0  0  0  0  0
  2  1  2  0
  3  2  1  0
  4  3  2  0
  5  4  1  0
  6  5  2  0
  6  1  1  0
  7  1  1  0
  8  7  1  0
  9  8  1  0
 11 10  2  0
 12 11  1  0
 13 12  2  0
 13  9  1  0
 14 13  1  0
 15 14  2  0
 15 10  1  0
 17 10  1  0
 17 16  1  0
 18  4  1  0
 19 18  1  0
 20 19  1  0
 21 20  1  0
 22 21  2  0
 23 21  1  0
 24 23  1  0
 24 19  1  0
 25 24  2  0
  2 26  1  0
  3 27  1  0
  5 28  1  0
  6 29  1  0
  8 30  1  0
  8 31  1  0
  9 32  1  0
  9 33  1  0
 11 34  1  0
 12 35  1  0
 15 36  1  0
 16 37  1  0
 16 38  1  0
 16 39  1  0
 17 40  1  0
 17 41  1  0
 18 42  1  0
 18 43  1  0
 19 44  1  6
 23 45  1  0
M  END
>  <score>  (3) 
-9.443

$$$$
=
     RDKit          3D

 45 47  0  0  0  0  0  0  0  0999 V2000
    2.5160   67.8560   63.4840 C   0  0  0  0  0  0  0  0  0  0  0  0
    2.0790   67.1300   64.5930 C   0  0  0  0  0  0  0  0  0  0  0  0
    0.8710   67.4420   65.2220 C   0  0  0  0  0  0  0  0  0  0  0  0
    0.0800   68.4920   64.7470 C   0  0  0  0  0  0  0  0  0  0  0  0
    0.5190   69.2180   63.6310 C   0  0  0  0  0  0  0  0  0  0  0  0
    1.7300   68.9030   63.0040 C   0  0  0  0  0  0  0  0  0  0  0  0
    3.7140   67.4450   62.9670 O   0  0  0  0  0  0  0  0  0  0  0  0
    4.8900   67.7670   63.7190 C   0  0  0  0  0  0  0  0  0  0  0  0
    4.9080   69.2790   63.9370 C   0  0  0  0  0  0  0  0  0  0  0  0
    5.4220   70.4540   68.0100 C   0  0  0  0  0  0  0  0  0  0  0  0
    4.2080   69.9050   67.5990 C   0  0  0  0  0  0  0  0  0  0  0  0
    4.0370   69.5220   66.2700 C   0  0  0  0  0  0  0  0  0  0  0  0
    5.0900   69.6940   65.3740 C   0  0  0  0  0  0  0  0  0  0  0  0
    6.2790   70.2180   65.7520 N   0  0  0  0  0  0  0  0  0  0  0  0
    6.4190   70.5820   67.0490 C   0  0  0  0  0  0  0  0  0  0  0  0
    7.1040   70.6540   69.8540 C   0  0  0  0  0  0  0  0  0  0  0  0
    5.6570   70.8640   69.4360 C   0  0  0  0  0  0  0  0  0  0  0  0
   -1.2400   68.8310   65.4040 C   0  0  0  0  0  0  0  0  0  0  0  0
   -1.1830   68.6630   66.9240 C   0  0  2  0  0  0  0  0  0  0  0  0
    0.4930   69.0270   67.5690 S   0  0  0  0  0  0  0  0  0  0  0  0
    0.5740   67.5410   68.4750 C   0  0  0  0  0  0  0  0  0  0  0  0
    1.5540   67.1820   69.1050 O   0  0  0  0  0  0  0  0  0  0  0  0
   -0.5680   66.8330   68.3290 N   0  0  0  0  0  0  0  0  0  0  0  0
   -1.4430   67.2330   67.3640 C   0  0  0  0  0  0  0  0  0  0  0  0
   -2.3180   66.4960   66.9300 O   0  0  0  0  0  0  0  0  0  0  0  0
    2.6932   66.3020   64.9766 H   0  0  0  0  0  0  0  0  0  0  0  0
    0.5411   66.8590   66.0945 H   0  0  0  0  0  0  0  0  0  0  0  0
   -0.0951   70.0444   63.2438 H   0  0  0  0  0  0  0  0  0  0  0  0
    2.0626   69.4828   62.1304 H   0  0  0  0  0  0  0  0  0  0  0  0
    4.8665   67.2496   64.6895 H   0  0  0  0  0  0  0  0  0  0  0  0
    5.7917   67.4472   63.1762 H   0  0  0  0  0  0  0  0  0  0  0  0
    5.7351   69.7025   63.3483 H   0  0  0  0  0  0  0  0  0  0  0  0
    3.9237   69.6554   63.6216 H   0  0  0  0  0  0  0  0  0  0  0  0
    3.3884   69.7747   68.3210 H   0  0  0  0  0  0  0  0  0  0  0  0
    3.0834   69.0896   65.9329 H   0  0  0  0  0  0  0  0  0  0  0  0
    7.3841   71.0065   67.3627 H   0  0  0  0  0  0  0  0  0  0  0  0
    7.1708   70.6443   70.9519 H   0  0  0  0  0  0  0  0  0  0  0  0
    7.4649   69.6941   69.4562 H   0  0  0  0  0  0  0  0  0  0  0  0
    7.7229   71.4717   69.4562 H   0  0  0  0  0  0  0  0  0  0  0  0
    5.4058   71.9293   69.5460 H   0  0  0  0  0  0  0  0  0  0  0  0
    5.0213   70.2388   70.0802 H   0  0  0  0  0  0  0  0  0  0  0  0
   -1.4947   69.8755   65.1713 H   0  0  0  0  0  0  0  0  0  0  0  0
   -2.0015   68.1397   65.0138 H   0  0  0  0  0  0  0  0  0  0  0  0
   -1.9509   69.3516   67.3062 H   0  0  0  0  0  0  0  0  0  0  0  0
   -0.7700   66.0189   68.9268 H   0  0  0  0  0  0  0  0  0  0  0  0
  2  1  2  0
  3  2  1  0
  4  3  2  0
  5  4  1  0
  6  5  2  0
  6  1  1  0
  7  1  1  0
  8  7  1  0
  9  8  1  0
 11 10  2  0
 12 11  1  0
 13 12  2  0
 13  9  1  0
 14 13  1  0
 15 14  2  0
 15 10  1  0
 17 10  1  0
 17 16  1  0
 18  4  1  0
 19 18  1  0
 20 19  1  0
 21 20  1  0
 22 21  2  0
 23 21  1  0
 24 23  1  0
 24 19  1  0
 25 24  2  0
  2 26  1  0
  3 27  1  0
  5 28  1  0
  6 29  1  0
  8 30  1  0
  8 31  1  0
  9 32  1  0
  9 33  1  0
 11 34  1  0
 12 35  1  0
 15 36  1  0
 16 37  1  0
 16 38  1  0
 16 39  1  0
 17 40  1  0
 17 41  1  0
 18 42  1  0
 18 43  1  0
 19 44  1  1
 23 45  1  0
M  END
>  <score>  (4) 
-9.064

$$$$
=
     RDKit          3D

 45 47  0  0  0  0  0  0  0  0999 V2000
    1.1660   67.6600   68.2980 C   0  0  0  0  0  0  0  0  0  0  0  0
    0.3750   67.1320   67.2760 C   0  0  0  0  0  0  0  0  0  0  0  0
    0.5190   67.5740   65.9590 C   0  0  0  0  0  0  0  0  0  0  0  0
    1.4620   68.5570   65.6450 C   0  0  0  0  0  0  0  0  0  0  0  0
    2.2580   69.0840   66.6710 C   0  0  0  0  0  0  0  0  0  0  0  0
    2.1100   68.6400   67.9900 C   0  0  0  0  0  0  0  0  0  0  0  0
    0.9210   67.1390   69.5390 O   0  0  0  0  0  0  0  0  0  0  0  0
    0.8100   65.7140   69.6330 C   0  0  0  0  0  0  0  0  0  0  0  0
    1.8880   65.2220   70.5970 C   0  0  0  0  0  0  0  0  0  0  0  0
    3.1160   61.1860   69.9380 C   0  0  0  0  0  0  0  0  0  0  0  0
    2.6540   61.5690   71.1960 C   0  0  0  0  0  0  0  0  0  0  0  0
    2.2540   62.8860   71.4150 C   0  0  0  0  0  0  0  0  0  0  0  0
    2.3220   63.7980   70.3640 C   0  0  0  0  0  0  0  0  0  0  0  0
    2.7600   63.4460   69.1320 N   0  0  0  0  0  0  0  0  0  0  0  0
    3.1420   62.1610   68.9470 C   0  0  0  0  0  0  0  0  0  0  0  0
    3.3460   58.8700   70.8610 C   0  0  0  0  0  0  0  0  0  0  0  0
    3.5390   59.7730   69.6530 C   0  0  0  0  0  0  0  0  0  0  0  0
    1.6440   69.0330   64.2200 C   0  0  0  0  0  0  0  0  0  0  0  0
    2.5640   68.1080   63.4200 C   0  0  2  0  0  0  0  0  0  0  0  0
    4.2340   68.0240   64.1680 S   0  0  0  0  0  0  0  0  0  0  0  0
    5.0360   68.3650   62.6590 C   0  0  0  0  0  0  0  0  0  0  0  0
    6.2410   68.5020   62.5460 O   0  0  0  0  0  0  0  0  0  0  0  0
    4.1320   68.5100   61.6640 N   0  0  0  0  0  0  0  0  0  0  0  0
    2.8180   68.6150   62.0110 C   0  0  0  0  0  0  0  0  0  0  0  0
    1.9760   69.0700   61.2490 O   0  0  0  0  0  0  0  0  0  0  0  0
   -0.3708   66.3583   67.5109 H   0  0  0  0  0  0  0  0  0  0  0  0
   -0.1121   67.1469   65.1657 H   0  0  0  0  0  0  0  0  0  0  0  0
    3.0071   69.8548   66.4372 H   0  0  0  0  0  0  0  0  0  0  0  0
    2.7395   69.0648   68.7858 H   0  0  0  0  0  0  0  0  0  0  0  0
   -0.1851   65.4409   70.0141 H   0  0  0  0  0  0  0  0  0  0  0  0
    0.9419   65.2531   68.6429 H   0  0  0  0  0  0  0  0  0  0  0  0
    2.7685   65.8727   70.4910 H   0  0  0  0  0  0  0  0  0  0  0  0
    1.4503   65.2579   71.6055 H   0  0  0  0  0  0  0  0  0  0  0  0
    2.6053   60.8343   72.0132 H   0  0  0  0  0  0  0  0  0  0  0  0
    1.8897   63.2010   72.4040 H   0  0  0  0  0  0  0  0  0  0  0  0
    3.4962   61.8688   67.9474 H   0  0  0  0  0  0  0  0  0  0  0  0
    3.4717   59.4580   71.7821 H   0  0  0  0  0  0  0  0  0  0  0  0
    2.3350   58.4371   70.8374 H   0  0  0  0  0  0  0  0  0  0  0  0
    4.0917   58.0616   70.8374 H   0  0  0  0  0  0  0  0  0  0  0  0
    2.9384   59.3833   68.8179 H   0  0  0  0  0  0  0  0  0  0  0  0
    4.6096   59.7814   69.4006 H   0  0  0  0  0  0  0  0  0  0  0  0
    0.6604   69.0674   63.7286 H   0  0  0  0  0  0  0  0  0  0  0  0
    2.1080   70.0298   64.2513 H   0  0  0  0  0  0  0  0  0  0  0  0
    2.0448   67.1382   63.4163 H   0  0  0  0  0  0  0  0  0  0  0  0
    4.4263   68.5401   60.6774 H   0  0  0  0  0  0  0  0  0  0  0  0
  2  1  2  0
  3  2  1  0
  4  3  2  0
  5  4  1  0
  6  5  2  0
  6  1  1  0
  7  1  1  0
  8  7  1  0
  9  8  1  0
 11 10  2  0
 12 11  1  0
 13 12  2  0
 13  9  1  0
 14 13  1  0
 15 14  2  0
 15 10  1  0
 17 10  1  0
 17 16  1  0
 18  4  1  0
 19 18  1  0
 20 19  1  0
 21 20  1  0
 22 21  2  0
 23 21  1  0
 24 23  1  0
 24 19  1  0
 25 24  2  0
  2 26  1  0
  3 27  1  0
  5 28  1  0
  6 29  1  0
  8 30  1  0
  8 31  1  0
  9 32  1  0
  9 33  1  0
 11 34  1  0
 12 35  1  0
 15 36  1  0
 16 37  1  0
 16 38  1  0
 16 39  1  0
 17 40  1  0
 17 41  1  0
 18 42  1  0
 18 43  1  0
 19 44  1  6
 23 45  1  0
M  END
>  <score>  (5) 
-8.788

$$$$
=
     RDKit          3D

 45 47  0  0  0  0  0  0  0  0999 V2000
    0.3930   66.8600   69.1010 C   0  0  0  0  0  0  0  0  0  0  0  0
    1.5150   67.6120   68.7440 C   0  0  0  0  0  0  0  0  0  0  0  0
    1.5440   68.3260   67.5440 C   0  0  0  0  0  0  0  0  0  0  0  0
    0.4460   68.2980   66.6800 C   0  0  0  0  0  0  0  0  0  0  0  0
   -0.6800   67.5470   67.0410 C   0  0  0  0  0  0  0  0  0  0  0  0
   -0.7060   66.8300   68.2440 C   0  0  0  0  0  0  0  0  0  0  0  0
    0.4980   66.2110   70.3010 O   0  0  0  0  0  0  0  0  0  0  0  0
    0.2010   64.8100   70.3080 C   0  0  0  0  0  0  0  0  0  0  0  0
    1.3170   64.0980   71.0680 C   0  0  0  0  0  0  0  0  0  0  0  0
    0.1070   60.4720   72.9710 C   0  0  0  0  0  0  0  0  0  0  0  0
    1.3900   60.5740   72.4340 C   0  0  0  0  0  0  0  0  0  0  0  0
    1.7870   61.7550   71.8110 C   0  0  0  0  0  0  0  0  0  0  0  0
    0.8890   62.8180   71.7400 C   0  0  0  0  0  0  0  0  0  0  0  0
   -0.3580   62.7440   72.2600 N   0  0  0  0  0  0  0  0  0  0  0  0
   -0.7180   61.5850   72.8600 C   0  0  0  0  0  0  0  0  0  0  0  0
   -1.5310   59.4970   74.5950 C   0  0  0  0  0  0  0  0  0  0  0  0
   -0.3570   59.2250   73.6670 C   0  0  0  0  0  0  0  0  0  0  0  0
    0.4550   69.0820   65.3860 C   0  0  0  0  0  0  0  0  0  0  0  0
    0.8420   68.2100   64.1900 C   0  0  2  0  0  0  0  0  0  0  0  0
    2.5730   68.5210   63.6750 S   0  0  0  0  0  0  0  0  0  0  0  0
    2.1380   68.7520   62.0030 C   0  0  0  0  0  0  0  0  0  0  0  0
    2.9310   69.0680   61.1330 O   0  0  0  0  0  0  0  0  0  0  0  0
    0.8080   68.5880   61.8330 N   0  0  0  0  0  0  0  0  0  0  0  0
    0.0270   68.5260   62.9480 C   0  0  0  0  0  0  0  0  0  0  0  0
   -1.1810   68.7120   62.9110 O   0  0  0  0  0  0  0  0  0  0  0  0
    2.3856   67.6421   69.4157 H   0  0  0  0  0  0  0  0  0  0  0  0
    2.4353   68.9131   67.2777 H   0  0  0  0  0  0  0  0  0  0  0  0
   -1.5532   67.5200   66.3726 H   0  0  0  0  0  0  0  0  0  0  0  0
   -1.5958   66.2419   68.5131 H   0  0  0  0  0  0  0  0  0  0  0  0
   -0.7628   64.6347   70.8083 H   0  0  0  0  0  0  0  0  0  0  0  0
    0.1334   64.4273   69.2789 H   0  0  0  0  0  0  0  0  0  0  0  0
    2.1221   63.8616   70.3568 H   0  0  0  0  0  0  0  0  0  0  0  0
    1.6407   64.7812   71.8670 H   0  0  0  0  0  0  0  0  0  0  0  0
    2.0860   59.7249   72.5021 H   0  0  0  0  0  0  0  0  0  0  0  0
    2.7953   61.8471   71.3811 H   0  0  0  0  0  0  0  0  0  0  0  0
   -1.7294   61.5199   73.2875 H   0  0  0  0  0  0  0  0  0  0  0  0
   -1.1976   59.4198   75.6404 H   0  0  0  0  0  0  0  0  0  0  0  0
   -1.9195   60.5089   74.4079 H   0  0  0  0  0  0  0  0  0  0  0  0
   -2.3249   58.7590   74.4079 H   0  0  0  0  0  0  0  0  0  0  0  0
   -0.6652   58.4889   72.9099 H   0  0  0  0  0  0  0  0  0  0  0  0
    0.4767   58.8434   74.2747 H   0  0  0  0  0  0  0  0  0  0  0  0
   -0.5499   69.4949   65.2140 H   0  0  0  0  0  0  0  0  0  0  0  0
    1.2037   69.8825   65.4791 H   0  0  0  0  0  0  0  0  0  0  0  0
    0.6734   67.1791   64.5348 H   0  0  0  0  0  0  0  0  0  0  0  0
    0.3976   68.5123   60.8913 H   0  0  0  0  0  0  0  0  0  0  0  0
  2  1  2  0
  3  2  1  0
  4  3  2  0
  5  4  1  0
  6  5  2  0
  6  1  1  0
  7  1  1  0
  8  7  1  0
  9  8  1  0
 11 10  2  0
 12 11  1  0
 13 12  2  0
 13  9  1  0
 14 13  1  0
 15 14  2  0
 15 10  1  0
 17 10  1  0
 17 16  1  0
 18  4  1  0
 19 18  1  0
 20 19  1  0
 21 20  1  0
 22 21  2  0
 23 21  1  0
 24 23  1  0
 24 19  1  0
 25 24  2  0
  2 26  1  0
  3 27  1  0
  5 28  1  0
  6 29  1  0
  8 30  1  0
  8 31  1  0
  9 32  1  0
  9 33  1  0
 11 34  1  0
 12 35  1  0
 15 36  1  0
 16 37  1  0
 16 38  1  0
 16 39  1  0
 17 40  1  0
 17 41  1  0
 18 42  1  0
 18 43  1  0
 19 44  1  1
 23 45  1  0
M  END
>  <score>  (6) 
-8.675

$$$$
=
     RDKit          3D

 45 47  0  0  0  0  0  0  0  0999 V2000
    1.2740   64.5750   70.5960 C   0  0  0  0  0  0  0  0  0  0  0  0
    2.5690   64.0520   70.6150 C   0  0  0  0  0  0  0  0  0  0  0  0
    2.9980   63.2440   71.6710 C   0  0  0  0  0  0  0  0  0  0  0  0
    2.1330   62.9460   72.7280 C   0  0  0  0  0  0  0  0  0  0  0  0
    0.8330   63.4690   72.7050 C   0  0  0  0  0  0  0  0  0  0  0  0
    0.4060   64.2800   71.6470 C   0  0  0  0  0  0  0  0  0  0  0  0
    0.9860   65.3490   69.5050 O   0  0  0  0  0  0  0  0  0  0  0  0
    0.4500   66.6530   69.7590 C   0  0  0  0  0  0  0  0  0  0  0  0
    0.0640   67.2700   68.4170 C   0  0  0  0  0  0  0  0  0  0  0  0
    3.3280   69.0210   66.2910 C   0  0  0  0  0  0  0  0  0  0  0  0
    2.6270   67.9570   65.7230 C   0  0  0  0  0  0  0  0  0  0  0  0
    1.5630   67.3830   66.4160 C   0  0  0  0  0  0  0  0  0  0  0  0
    1.2170   67.8880   67.6670 C   0  0  0  0  0  0  0  0  0  0  0  0
    1.8780   68.9240   68.2340 N   0  0  0  0  0  0  0  0  0  0  0  0
    2.9070   69.4640   67.5400 C   0  0  0  0  0  0  0  0  0  0  0  0
    5.5480   70.1510   66.5360 C   0  0  0  0  0  0  0  0  0  0  0  0
    4.4690   69.6820   65.5730 C   0  0  0  0  0  0  0  0  0  0  0  0
    2.5770   62.0570   73.8680 C   0  0  0  0  0  0  0  0  0  0  0  0
    3.0600   60.6910   73.3760 C   0  0  2  0  0  0  0  0  0  0  0  0
    4.5720   60.8510   72.3540 S   0  0  0  0  0  0  0  0  0  0  0  0
    3.9140   59.8930   71.0550 C   0  0  0  0  0  0  0  0  0  0  0  0
    4.4910   59.6910   70.0010 O   0  0  0  0  0  0  0  0  0  0  0  0
    2.6700   59.4650   71.3650 N   0  0  0  0  0  0  0  0  0  0  0  0
    2.0610   60.0170   72.4520 C   0  0  0  0  0  0  0  0  0  0  0  0
    0.8510   59.9570   72.6230 O   0  0  0  0  0  0  0  0  0  0  0  0
    3.2591   64.2789   69.7890 H   0  0  0  0  0  0  0  0  0  0  0  0
    4.0213   62.8404   71.6707 H   0  0  0  0  0  0  0  0  0  0  0  0
    0.1401   63.2395   73.5279 H   0  0  0  0  0  0  0  0  0  0  0  0
   -0.6165   64.6856   71.6445 H   0  0  0  0  0  0  0  0  0  0  0  0
   -0.4381   66.5733   70.4032 H   0  0  0  0  0  0  0  0  0  0  0  0
    1.1947   67.2810   70.2700 H   0  0  0  0  0  0  0  0  0  0  0  0
   -0.3738   66.4812   67.7877 H   0  0  0  0  0  0  0  0  0  0  0  0
   -0.6440   68.0832   68.6347 H   0  0  0  0  0  0  0  0  0  0  0  0
    2.9128   67.5729   64.7327 H   0  0  0  0  0  0  0  0  0  0  0  0
    1.0036   66.5419   65.9806 H   0  0  0  0  0  0  0  0  0  0  0  0
    3.4456   70.3089   67.9939 H   0  0  0  0  0  0  0  0  0  0  0  0
    5.2058   70.0022   67.5708 H   0  0  0  0  0  0  0  0  0  0  0  0
    6.4675   69.5713   66.3670 H   0  0  0  0  0  0  0  0  0  0  0  0
    5.7514   71.2187   66.3670 H   0  0  0  0  0  0  0  0  0  0  0  0
    4.9101   68.9625   64.8675 H   0  0  0  0  0  0  0  0  0  0  0  0
    4.0756   70.5635   65.0456 H   0  0  0  0  0  0  0  0  0  0  0  0
    3.3996   62.5522   74.4047 H   0  0  0  0  0  0  0  0  0  0  0  0
    1.7122   61.8938   74.5279 H   0  0  0  0  0  0  0  0  0  0  0  0
    3.2212   60.1079   74.2947 H   0  0  0  0  0  0  0  0  0  0  0  0
    2.1981   58.7457   70.7986 H   0  0  0  0  0  0  0  0  0  0  0  0
  2  1  2  0
  3  2  1  0
  4  3  2  0
  5  4  1  0
  6  5  2  0
  6  1  1  0
  7  1  1  0
  8  7  1  0
  9  8  1  0
 11 10  2  0
 12 11  1  0
 13 12  2  0
 13  9  1  0
 14 13  1  0
 15 14  2  0
 15 10  1  0
 17 10  1  0
 17 16  1  0
 18  4  1  0
 19 18  1  0
 20 19  1  0
 21 20  1  0
 22 21  2  0
 23 21  1  0
 24 23  1  0
 24 19  1  0
 25 24  2  0
  2 26  1  0
  3 27  1  0
  5 28  1  0
  6 29  1  0
  8 30  1  0
  8 31  1  0
  9 32  1  0
  9 33  1  0
 11 34  1  0
 12 35  1  0
 15 36  1  0
 16 37  1  0
 16 38  1  0
 16 39  1  0
 17 40  1  0
 17 41  1  0
 18 42  1  0
 18 43  1  0
 19 44  1  1
 23 45  1  0
M  END
>  <score>  (7) 
-8.503

$$$$
=
     RDKit          3D

 45 47  0  0  0  0  0  0  0  0999 V2000
    2.5590   63.2520   70.0090 C   0  0  0  0  0  0  0  0  0  0  0  0
    2.6640   63.2350   71.4010 C   0  0  0  0  0  0  0  0  0  0  0  0
    3.0200   62.0660   72.0770 C   0  0  0  0  0  0  0  0  0  0  0  0
    3.2770   60.8900   71.3650 C   0  0  0  0  0  0  0  0  0  0  0  0
    3.1750   60.9100   69.9680 C   0  0  0  0  0  0  0  0  0  0  0  0
    2.8160   62.0830   69.2930 C   0  0  0  0  0  0  0  0  0  0  0  0
    2.2030   64.4610   69.4760 O   0  0  0  0  0  0  0  0  0  0  0  0
    1.8220   65.4890   70.3980 C   0  0  0  0  0  0  0  0  0  0  0  0
    0.3370   65.7780   70.1890 C   0  0  0  0  0  0  0  0  0  0  0  0
   -0.5180   68.1010   66.7090 C   0  0  0  0  0  0  0  0  0  0  0  0
    0.7060   68.2570   67.3580 C   0  0  0  0  0  0  0  0  0  0  0  0
    0.9880   67.5020   68.4950 C   0  0  0  0  0  0  0  0  0  0  0  0
    0.0350   66.5980   68.9610 C   0  0  0  0  0  0  0  0  0  0  0  0
   -1.1570   66.4250   68.3420 N   0  0  0  0  0  0  0  0  0  0  0  0
   -1.4040   67.1710   67.2400 C   0  0  0  0  0  0  0  0  0  0  0  0
    0.2260   68.7530   64.4090 C   0  0  0  0  0  0  0  0  0  0  0  0
   -0.8550   68.8810   65.4710 C   0  0  0  0  0  0  0  0  0  0  0  0
    3.6830   59.6210   72.0810 C   0  0  0  0  0  0  0  0  0  0  0  0
    2.4800   58.8970   72.6900 C   0  0  2  0  0  0  0  0  0  0  0  0
    2.5920   58.8450   74.5180 S   0  0  0  0  0  0  0  0  0  0  0  0
    2.3050   57.1270   74.5860 C   0  0  0  0  0  0  0  0  0  0  0  0
    2.3270   56.4750   75.6150 O   0  0  0  0  0  0  0  0  0  0  0  0
    2.1170   56.6290   73.3440 N   0  0  0  0  0  0  0  0  0  0  0  0
    2.4120   57.4350   72.2850 C   0  0  0  0  0  0  0  0  0  0  0  0
    2.5960   56.9920   71.1590 O   0  0  0  0  0  0  0  0  0  0  0  0
    2.4639   64.1535   71.9722 H   0  0  0  0  0  0  0  0  0  0  0  0
    3.0986   62.0702   73.1742 H   0  0  0  0  0  0  0  0  0  0  0  0
    3.3793   59.9937   69.3948 H   0  0  0  0  0  0  0  0  0  0  0  0
    2.7365   62.0826   68.1959 H   0  0  0  0  0  0  0  0  0  0  0  0
    1.9953   65.1491   71.4297 H   0  0  0  0  0  0  0  0  0  0  0  0
    2.4177   66.3978   70.2271 H   0  0  0  0  0  0  0  0  0  0  0  0
   -0.1925   64.8178   70.1017 H   0  0  0  0  0  0  0  0  0  0  0  0
    0.0049   66.3701   71.0545 H   0  0  0  0  0  0  0  0  0  0  0  0
    1.4468   68.9737   66.9739 H   0  0  0  0  0  0  0  0  0  0  0  0
    1.9491   67.6179   69.0173 H   0  0  0  0  0  0  0  0  0  0  0  0
   -2.3693   67.0321   66.7312 H   0  0  0  0  0  0  0  0  0  0  0  0
    1.2058   68.6370   64.8953 H   0  0  0  0  0  0  0  0  0  0  0  0
    0.0214   67.8728   63.7818 H   0  0  0  0  0  0  0  0  0  0  0  0
    0.2326   69.6566   63.7818 H   0  0  0  0  0  0  0  0  0  0  0  0
   -1.8034   68.5043   65.0604 H   0  0  0  0  0  0  0  0  0  0  0  0
   -0.9369   69.9423   65.7482 H   0  0  0  0  0  0  0  0  0  0  0  0
    4.1752   58.9494   71.3621 H   0  0  0  0  0  0  0  0  0  0  0  0
    4.3646   59.8956   72.8995 H   0  0  0  0  0  0  0  0  0  0  0  0
    1.6074   59.4604   72.3278 H   0  0  0  0  0  0  0  0  0  0  0  0
    1.7626   55.6723   73.2022 H   0  0  0  0  0  0  0  0  0  0  0  0
  2  1  2  0
  3  2  1  0
  4  3  2  0
  5  4  1  0
  6  5  2  0
  6  1  1  0
  7  1  1  0
  8  7  1  0
  9  8  1  0
 11 10  2  0
 12 11  1  0
 13 12  2  0
 13  9  1  0
 14 13  1  0
 15 14  2  0
 15 10  1  0
 17 10  1  0
 17 16  1  0
 18  4  1  0
 19 18  1  0
 20 19  1  0
 21 20  1  0
 22 21  2  0
 23 21  1  0
 24 23  1  0
 24 19  1  0
 25 24  2  0
  2 26  1  0
  3 27  1  0
  5 28  1  0
  6 29  1  0
  8 30  1  0
  8 31  1  0
  9 32  1  0
  9 33  1  0
 11 34  1  0
 12 35  1  0
 15 36  1  0
 16 37  1  0
 16 38  1  0
 16 39  1  0
 17 40  1  0
 17 41  1  0
 18 42  1  0
 18 43  1  0
 19 44  1  1
 23 45  1  0
M  END
>  <score>  (8) 
-8.4

$$$$
=
     RDKit          3D

 45 47  0  0  0  0  0  0  0  0999 V2000
    1.6010   64.3500   70.2850 C   0  0  0  0  0  0  0  0  0  0  0  0
    0.4000   64.0940   70.9490 C   0  0  0  0  0  0  0  0  0  0  0  0
    0.2230   62.9160   71.6780 C   0  0  0  0  0  0  0  0  0  0  0  0
    1.2510   61.9720   71.7540 C   0  0  0  0  0  0  0  0  0  0  0  0
    2.4570   62.2320   71.0900 C   0  0  0  0  0  0  0  0  0  0  0  0
    2.6310   63.4130   70.3580 C   0  0  0  0  0  0  0  0  0  0  0  0
    1.6390   65.5390   69.6090 O   0  0  0  0  0  0  0  0  0  0  0  0
    0.5930   66.4770   69.8860 C   0  0  0  0  0  0  0  0  0  0  0  0
    0.0870   67.0210   68.5520 C   0  0  0  0  0  0  0  0  0  0  0  0
    3.1090   68.8490   66.1510 C   0  0  0  0  0  0  0  0  0  0  0  0
    2.7450   69.4340   67.3640 C   0  0  0  0  0  0  0  0  0  0  0  0
    1.7580   68.8400   68.1480 C   0  0  0  0  0  0  0  0  0  0  0  0
    1.1540   67.6660   67.7040 C   0  0  0  0  0  0  0  0  0  0  0  0
    1.4960   67.0780   66.5340 N   0  0  0  0  0  0  0  0  0  0  0  0
    2.4580   67.6750   65.7910 C   0  0  0  0  0  0  0  0  0  0  0  0
    4.8530   68.3930   64.4130 C   0  0  0  0  0  0  0  0  0  0  0  0
    4.1800   69.4440   65.2830 C   0  0  0  0  0  0  0  0  0  0  0  0
    1.0820   60.7010   72.5560 C   0  0  0  0  0  0  0  0  0  0  0  0
    1.8350   60.7580   73.8870 C   0  0  2  0  0  0  0  0  0  0  0  0
    3.5250   60.0690   73.7240 S   0  0  0  0  0  0  0  0  0  0  0  0
    3.3360   59.0180   75.1010 C   0  0  0  0  0  0  0  0  0  0  0  0
    4.1790   58.2170   75.4640 O   0  0  0  0  0  0  0  0  0  0  0  0
    2.1150   59.1810   75.6570 N   0  0  0  0  0  0  0  0  0  0  0  0
    1.1900   59.8990   74.9600 C   0  0  0  0  0  0  0  0  0  0  0  0
   -0.0080   59.8280   75.2000 O   0  0  0  0  0  0  0  0  0  0  0  0
   -0.4168   64.8290   70.8974 H   0  0  0  0  0  0  0  0  0  0  0  0
   -0.7300   62.7302   72.1949 H   0  0  0  0  0  0  0  0  0  0  0  0
    3.2764   61.5002   71.1443 H   0  0  0  0  0  0  0  0  0  0  0  0
    3.5825   63.6020   69.8394 H   0  0  0  0  0  0  0  0  0  0  0  0
   -0.2271   65.9755   70.4207 H   0  0  0  0  0  0  0  0  0  0  0  0
    0.9691   67.2961   70.5166 H   0  0  0  0  0  0  0  0  0  0  0  0
   -0.3494   66.1872   67.9825 H   0  0  0  0  0  0  0  0  0  0  0  0
   -0.6470   67.8055   68.7880 H   0  0  0  0  0  0  0  0  0  0  0  0
    3.2348   70.3598   67.7000 H   0  0  0  0  0  0  0  0  0  0  0  0
    1.4597   69.2924   69.1052 H   0  0  0  0  0  0  0  0  0  0  0  0
    2.7427   67.1998   64.8407 H   0  0  0  0  0  0  0  0  0  0  0  0
    5.3350   67.6402   65.0541 H   0  0  0  0  0  0  0  0  0  0  0  0
    4.0989   67.9051   63.7779 H   0  0  0  0  0  0  0  0  0  0  0  0
    5.6117   68.8737   63.7779 H   0  0  0  0  0  0  0  0  0  0  0  0
    3.7278   70.2075   64.6330 H   0  0  0  0  0  0  0  0  0  0  0  0
    4.9451   69.8849   65.9389 H   0  0  0  0  0  0  0  0  0  0  0  0
    0.0117   60.5494   72.7598 H   0  0  0  0  0  0  0  0  0  0  0  0
    1.4967   59.8699   71.9666 H   0  0  0  0  0  0  0  0  0  0  0  0
    1.8291   61.8233   74.1612 H   0  0  0  0  0  0  0  0  0  0  0  0
    1.8910   58.7759   76.5771 H   0  0  0  0  0  0  0  0  0  0  0  0
  2  1  2  0
  3  2  1  0
  4  3  2  0
  5  4  1  0
  6  5  2  0
  6  1  1  0
  7  1  1  0
  8  7  1  0
  9  8  1  0
 11 10  2  0
 12 11  1  0
 13 12  2  0
 13  9  1  0
 14 13  1  0
 15 14  2  0
 15 10  1  0
 17 10  1  0
 17 16  1  0
 18  4  1  0
 19 18  1  0
 20 19  1  0
 21 20  1  0
 22 21  2  0
 23 21  1  0
 24 23  1  0
 24 19  1  0
 25 24  2  0
  2 26  1  0
  3 27  1  0
  5 28  1  0
  6 29  1  0
  8 30  1  0
  8 31  1  0
  9 32  1  0
  9 33  1  0
 11 34  1  0
 12 35  1  0
 15 36  1  0
 16 37  1  0
 16 38  1  0
 16 39  1  0
 17 40  1  0
 17 41  1  0
 18 42  1  0
 18 43  1  0
 19 44  1  1
 23 45  1  0
M  END
>  <score>  (9) 
-8.34

$$$$
