=
     RDKit          3D

 27 28  0  0  0  0  0  0  0  0999 V2000
    3.1630   69.8590   66.7450 N   0  0  0  0  0  0  0  0  0  0  0  0
    2.9010   68.8730   65.8160 C   0  0  0  0  0  0  0  0  0  0  0  0
    3.7000   68.0250   65.4310 O   0  0  0  0  0  0  0  0  0  0  0  0
    1.5120   68.8520   65.2400 C   0  0  0  0  0  0  0  0  0  0  0  0
    1.3920   69.1160   63.8630 C   0  0  0  0  0  0  0  0  0  0  0  0
    0.1440   69.1180   63.2430 C   0  0  0  0  0  0  0  0  0  0  0  0
    0.0150   69.4760   61.3910 Br  0  0  0  0  0  0  0  0  0  0  0  0
   -1.0120   68.8580   63.9730 C   0  0  0  0  0  0  0  0  0  0  0  0
   -0.9070   68.5960   65.3380 C   0  0  0  0  0  0  0  0  0  0  0  0
    0.3440   68.5910   65.9750 C   0  0  0  0  0  0  0  0  0  0  0  0
   -2.4940   68.2440   66.3170 Br  0  0  0  0  0  0  0  0  0  0  0  0
    0.4140   68.3280   67.3240 O   0  0  0  0  0  0  0  0  0  0  0  0
    8.2050   70.9820   69.9880 Br  0  0  0  0  0  0  0  0  0  0  0  0
    6.6580   70.6300   68.9620 C   0  0  0  0  0  0  0  0  0  0  0  0
    6.7740   70.3520   67.6040 C   0  0  0  0  0  0  0  0  0  0  0  0
    5.6280   70.0920   66.8430 C   0  0  0  0  0  0  0  0  0  0  0  0
    4.3640   70.1100   67.4370 C   0  0  0  0  0  0  0  0  0  0  0  0
    4.2620   70.3910   68.8060 C   0  0  0  0  0  0  0  0  0  0  0  0
    5.4050   70.6520   69.5690 C   0  0  0  0  0  0  0  0  0  0  0  0
    2.3800   70.4927   66.9601 H   0  0  0  0  0  0  0  0  0  0  0  0
    2.2942   69.3233   63.2688 H   0  0  0  0  0  0  0  0  0  0  0  0
   -1.9951   68.8592   63.4795 H   0  0  0  0  0  0  0  0  0  0  0  0
    1.2915   68.3222   67.7823 H   0  0  0  0  0  0  0  0  0  0  0  0
    7.7657   70.3365   67.1283 H   0  0  0  0  0  0  0  0  0  0  0  0
    5.7237   69.8719   65.7695 H   0  0  0  0  0  0  0  0  0  0  0  0
    3.2723   70.4065   69.2859 H   0  0  0  0  0  0  0  0  0  0  0  0
    5.3145   70.8734   70.6427 H   0  0  0  0  0  0  0  0  0  0  0  0
  2  1  1  0
  3  2  2  0
  4  2  1  0
  5  4  2  0
  6  5  1  0
  7  6  1  0
  8  6  2  0
  9  8  1  0
 10  9  2  0
 10  4  1  0
 11  9  1  0
 12 10  1  0
 14 13  1  0
 15 14  2  0
 16 15  1  0
 17  1  1  0
 17 16  2  0
 18 17  1  0
 19 18  2  0
 19 14  1  0
  1 20  1  0
  5 21  1  0
  8 22  1  0
 12 23  1  0
 15 24  1  0
 16 25  1  0
 18 26  1  0
 19 27  1  0
M  END
>  <score>  (1) 
-8.052

$$$$
=
     RDKit          3D

 27 28  0  0  0  0  0  0  0  0999 V2000
    1.4970   65.5790   69.7910 N   0  0  0  0  0  0  0  0  0  0  0  0
    0.6450   66.3860   69.0640 C   0  0  0  0  0  0  0  0  0  0  0  0
   -0.5790   66.2960   69.0430 O   0  0  0  0  0  0  0  0  0  0  0  0
    1.2910   67.4610   68.2330 C   0  0  0  0  0  0  0  0  0  0  0  0
    2.0500   68.4240   68.9220 C   0  0  0  0  0  0  0  0  0  0  0  0
    2.6850   69.4580   68.2340 C   0  0  0  0  0  0  0  0  0  0  0  0
    3.6980   70.7380   69.1870 Br  0  0  0  0  0  0  0  0  0  0  0  0
    2.5800   69.5570   66.8500 C   0  0  0  0  0  0  0  0  0  0  0  0
    1.8310   68.6090   66.1560 C   0  0  0  0  0  0  0  0  0  0  0  0
    1.1870   67.5640   66.8360 C   0  0  0  0  0  0  0  0  0  0  0  0
    1.7010   68.7620   64.2690 Br  0  0  0  0  0  0  0  0  0  0  0  0
    0.4550   66.6430   66.1230 O   0  0  0  0  0  0  0  0  0  0  0  0
    0.2470   60.7620   73.3170 Br  0  0  0  0  0  0  0  0  0  0  0  0
    0.6190   62.2700   72.2400 C   0  0  0  0  0  0  0  0  0  0  0  0
    0.0480   63.5010   72.5480 C   0  0  0  0  0  0  0  0  0  0  0  0
    0.3230   64.6180   71.7490 C   0  0  0  0  0  0  0  0  0  0  0  0
    1.1690   64.5080   70.6430 C   0  0  0  0  0  0  0  0  0  0  0  0
    1.7370   63.2610   70.3460 C   0  0  0  0  0  0  0  0  0  0  0  0
    1.4640   62.1430   71.1400 C   0  0  0  0  0  0  0  0  0  0  0  0
    2.5014   65.7874   69.6979 H   0  0  0  0  0  0  0  0  0  0  0  0
    2.1440   68.3610   70.0162 H   0  0  0  0  0  0  0  0  0  0  0  0
    3.0821   70.3736   66.3105 H   0  0  0  0  0  0  0  0  0  0  0  0
   -0.0027   65.9025   66.5944 H   0  0  0  0  0  0  0  0  0  0  0  0
   -0.6185   63.5967   73.4178 H   0  0  0  0  0  0  0  0  0  0  0  0
   -0.1308   65.5895   71.9944 H   0  0  0  0  0  0  0  0  0  0  0  0
    2.4053   63.1611   69.4780 H   0  0  0  0  0  0  0  0  0  0  0  0
    1.9139   61.1689   70.8974 H   0  0  0  0  0  0  0  0  0  0  0  0
  2  1  1  0
  3  2  2  0
  4  2  1  0
  5  4  2  0
  6  5  1  0
  7  6  1  0
  8  6  2  0
  9  8  1  0
 10  9  2  0
 10  4  1  0
 11  9  1  0
 12 10  1  0
 14 13  1  0
 15 14  2  0
 16 15  1  0
 17  1  1  0
 17 16  2  0
 18 17  1  0
 19 18  2  0
 19 14  1  0
  1 20  1  0
  5 21  1  0
  8 22  1  0
 12 23  1  0
 15 24  1  0
 16 25  1  0
 18 26  1  0
 19 27  1  0
M  END
>  <score>  (2) 
-8.013

$$$$
=
     RDKit          3D

 27 28  0  0  0  0  0  0  0  0999 V2000
    1.8680   64.9300   69.8590 N   0  0  0  0  0  0  0  0  0  0  0  0
    0.8880   65.8730   70.0950 C   0  0  0  0  0  0  0  0  0  0  0  0
    0.0650   65.8360   71.0040 O   0  0  0  0  0  0  0  0  0  0  0  0
    0.8430   67.0390   69.1460 C   0  0  0  0  0  0  0  0  0  0  0  0
    1.9170   67.9460   69.2030 C   0  0  0  0  0  0  0  0  0  0  0  0
    1.9590   69.0560   68.3610 C   0  0  0  0  0  0  0  0  0  0  0  0
    3.4160   70.2570   68.4620 Br  0  0  0  0  0  0  0  0  0  0  0  0
    0.9390   69.2910   67.4450 C   0  0  0  0  0  0  0  0  0  0  0  0
   -0.1310   68.4000   67.3780 C   0  0  0  0  0  0  0  0  0  0  0  0
   -0.1860   67.2780   68.2200 C   0  0  0  0  0  0  0  0  0  0  0  0
   -1.5130   68.7370   66.1210 Br  0  0  0  0  0  0  0  0  0  0  0  0
   -1.2550   66.4170   68.1300 O   0  0  0  0  0  0  0  0  0  0  0  0
    3.3200   59.8810   72.9590 Br  0  0  0  0  0  0  0  0  0  0  0  0
    2.8440   61.4400   72.0020 C   0  0  0  0  0  0  0  0  0  0  0  0
    1.5030   61.7460   71.7960 C   0  0  0  0  0  0  0  0  0  0  0  0
    1.1500   62.9010   71.0860 C   0  0  0  0  0  0  0  0  0  0  0  0
    2.1360   63.7520   70.5820 C   0  0  0  0  0  0  0  0  0  0  0  0
    3.4830   63.4300   70.7970 C   0  0  0  0  0  0  0  0  0  0  0  0
    3.8390   62.2780   71.5050 C   0  0  0  0  0  0  0  0  0  0  0  0
    2.4811   65.1111   69.0514 H   0  0  0  0  0  0  0  0  0  0  0  0
    2.7334   67.7771   69.9207 H   0  0  0  0  0  0  0  0  0  0  0  0
    0.9762   70.1682   66.7823 H   0  0  0  0  0  0  0  0  0  0  0  0
   -1.3023   65.6232   68.7197 H   0  0  0  0  0  0  0  0  0  0  0  0
    0.7200   61.0816   72.1903 H   0  0  0  0  0  0  0  0  0  0  0  0
    0.0884   63.1393   70.9243 H   0  0  0  0  0  0  0  0  0  0  0  0
    4.2693   64.0913   70.4042 H   0  0  0  0  0  0  0  0  0  0  0  0
    4.8993   62.0350   71.6685 H   0  0  0  0  0  0  0  0  0  0  0  0
  2  1  1  0
  3  2  2  0
  4  2  1  0
  5  4  2  0
  6  5  1  0
  7  6  1  0
  8  6  2  0
  9  8  1  0
 10  9  2  0
 10  4  1  0
 11  9  1  0
 12 10  1  0
 14 13  1  0
 15 14  2  0
 16 15  1  0
 17  1  1  0
 17 16  2  0
 18 17  1  0
 19 18  2  0
 19 14  1  0
  1 20  1  0
  5 21  1  0
  8 22  1  0
 12 23  1  0
 15 24  1  0
 16 25  1  0
 18 26  1  0
 19 27  1  0
M  END
>  <score>  (3) 
-7.853

$$$$
=
     RDKit          3D

 27 28  0  0  0  0  0  0  0  0999 V2000
    3.1410   69.8960   66.6920 N   0  0  0  0  0  0  0  0  0  0  0  0
    2.1780   68.9130   66.8040 C   0  0  0  0  0  0  0  0  0  0  0  0
    2.1240   68.0650   67.6880 O   0  0  0  0  0  0  0  0  0  0  0  0
    1.1140   68.8990   65.7410 C   0  0  0  0  0  0  0  0  0  0  0  0
   -0.2190   68.7950   66.1800 C   0  0  0  0  0  0  0  0  0  0  0  0
   -1.2710   68.7740   65.2660 C   0  0  0  0  0  0  0  0  0  0  0  0
   -3.0520   68.6340   65.8860 Br  0  0  0  0  0  0  0  0  0  0  0  0
   -1.0250   68.8550   63.8990 C   0  0  0  0  0  0  0  0  0  0  0  0
    0.2900   68.9570   63.4510 C   0  0  0  0  0  0  0  0  0  0  0  0
    1.3600   68.9800   64.3600 C   0  0  0  0  0  0  0  0  0  0  0  0
    0.6060   69.0670   61.5830 Br  0  0  0  0  0  0  0  0  0  0  0  0
    2.6480   69.0820   63.8880 O   0  0  0  0  0  0  0  0  0  0  0  0
    8.0840   70.9140   70.1170 Br  0  0  0  0  0  0  0  0  0  0  0  0
    6.5370   70.6030   69.0770 C   0  0  0  0  0  0  0  0  0  0  0  0
    5.2800   70.6560   69.6700 C   0  0  0  0  0  0  0  0  0  0  0  0
    4.1330   70.4250   68.8990 C   0  0  0  0  0  0  0  0  0  0  0  0
    4.2410   70.1400   67.5370 C   0  0  0  0  0  0  0  0  0  0  0  0
    5.5140   70.0900   66.9530 C   0  0  0  0  0  0  0  0  0  0  0  0
    6.6610   70.3200   67.7190 C   0  0  0  0  0  0  0  0  0  0  0  0
    3.0424   70.5320   65.8879 H   0  0  0  0  0  0  0  0  0  0  0  0
   -0.4331   68.7295   67.2570 H   0  0  0  0  0  0  0  0  0  0  0  0
   -1.8583   68.8387   63.1812 H   0  0  0  0  0  0  0  0  0  0  0  0
    3.4078   69.0989   64.5224 H   0  0  0  0  0  0  0  0  0  0  0  0
    5.1864   70.8790   70.7431 H   0  0  0  0  0  0  0  0  0  0  0  0
    3.1402   70.4686   69.3706 H   0  0  0  0  0  0  0  0  0  0  0  0
    5.6119   69.8674   65.8802 H   0  0  0  0  0  0  0  0  0  0  0  0
    7.6558   70.2776   67.2515 H   0  0  0  0  0  0  0  0  0  0  0  0
  2  1  1  0
  3  2  2  0
  4  2  1  0
  5  4  2  0
  6  5  1  0
  7  6  1  0
  8  6  2  0
  9  8  1  0
 10  9  2  0
 10  4  1  0
 11  9  1  0
 12 10  1  0
 14 13  1  0
 15 14  2  0
 16 15  1  0
 17  1  1  0
 17 16  2  0
 18 17  1  0
 19 18  2  0
 19 14  1  0
  1 20  1  0
  5 21  1  0
  8 22  1  0
 12 23  1  0
 15 24  1  0
 16 25  1  0
 18 26  1  0
 19 27  1  0
M  END
>  <score>  (4) 
-7.777

$$$$
=
     RDKit          3D

 27 28  0  0  0  0  0  0  0  0999 V2000
   -0.4940   61.3400   72.8910 N   0  0  0  0  0  0  0  0  0  0  0  0
   -0.0890   62.6260   73.1890 C   0  0  0  0  0  0  0  0  0  0  0  0
   -0.4220   63.2670   74.1810 O   0  0  0  0  0  0  0  0  0  0  0  0
    0.8400   63.2780   72.2020 C   0  0  0  0  0  0  0  0  0  0  0  0
    0.3420   64.3940   71.5050 C   0  0  0  0  0  0  0  0  0  0  0  0
    1.1320   65.0620   70.5710 C   0  0  0  0  0  0  0  0  0  0  0  0
    0.4360   66.5590   69.6490 Br  0  0  0  0  0  0  0  0  0  0  0  0
    2.4310   64.6380   70.3080 C   0  0  0  0  0  0  0  0  0  0  0  0
    2.9360   63.5340   70.9920 C   0  0  0  0  0  0  0  0  0  0  0  0
    2.1510   62.8520   71.9350 C   0  0  0  0  0  0  0  0  0  0  0  0
    4.7100   62.9710   70.6200 Br  0  0  0  0  0  0  0  0  0  0  0  0
    2.6780   61.7650   72.5940 O   0  0  0  0  0  0  0  0  0  0  0  0
   -4.4200   57.9130   76.0610 Br  0  0  0  0  0  0  0  0  0  0  0  0
   -3.1860   58.9560   75.0810 C   0  0  0  0  0  0  0  0  0  0  0  0
   -1.8960   58.4820   74.8630 C   0  0  0  0  0  0  0  0  0  0  0  0
   -0.9810   59.2550   74.1370 C   0  0  0  0  0  0  0  0  0  0  0  0
   -1.3510   60.5020   73.6290 C   0  0  0  0  0  0  0  0  0  0  0  0
   -2.6540   60.9660   73.8580 C   0  0  0  0  0  0  0  0  0  0  0  0
   -3.5710   60.1980   74.5820 C   0  0  0  0  0  0  0  0  0  0  0  0
   -0.1213   60.9431   72.0167 H   0  0  0  0  0  0  0  0  0  0  0  0
   -0.6827   64.7434   71.6994 H   0  0  0  0  0  0  0  0  0  0  0  0
    3.0512   65.1675   69.5697 H   0  0  0  0  0  0  0  0  0  0  0  0
    2.1319   61.2778   73.2607 H   0  0  0  0  0  0  0  0  0  0  0  0
   -1.5952   57.5014   75.2604 H   0  0  0  0  0  0  0  0  0  0  0  0
    0.0375   58.8766   73.9656 H   0  0  0  0  0  0  0  0  0  0  0  0
   -2.9587   61.9464   73.4632 H   0  0  0  0  0  0  0  0  0  0  0  0
   -4.5905   60.5725   74.7565 H   0  0  0  0  0  0  0  0  0  0  0  0
  2  1  1  0
  3  2  2  0
  4  2  1  0
  5  4  2  0
  6  5  1  0
  7  6  1  0
  8  6  2  0
  9  8  1  0
 10  9  2  0
 10  4  1  0
 11  9  1  0
 12 10  1  0
 14 13  1  0
 15 14  2  0
 16 15  1  0
 17  1  1  0
 17 16  2  0
 18 17  1  0
 19 18  2  0
 19 14  1  0
  1 20  1  0
  5 21  1  0
  8 22  1  0
 12 23  1  0
 15 24  1  0
 16 25  1  0
 18 26  1  0
 19 27  1  0
M  END
>  <score>  (5) 
-7.127

$$$$
=
     RDKit          3D

 27 28  0  0  0  0  0  0  0  0999 V2000
    2.0690   58.8030   73.2500 N   0  0  0  0  0  0  0  0  0  0  0  0
    1.8520   57.5250   72.7750 C   0  0  0  0  0  0  0  0  0  0  0  0
    2.2720   57.0780   71.7130 O   0  0  0  0  0  0  0  0  0  0  0  0
    1.0280   56.6190   73.6490 C   0  0  0  0  0  0  0  0  0  0  0  0
   -0.1870   57.1380   74.1330 C   0  0  0  0  0  0  0  0  0  0  0  0
   -1.0150   56.3700   74.9510 C   0  0  0  0  0  0  0  0  0  0  0  0
   -2.6410   57.0950   75.5860 Br  0  0  0  0  0  0  0  0  0  0  0  0
   -0.6570   55.0730   75.3050 C   0  0  0  0  0  0  0  0  0  0  0  0
    0.5440   54.5480   74.8330 C   0  0  0  0  0  0  0  0  0  0  0  0
    1.3880   55.3100   74.0090 C   0  0  0  0  0  0  0  0  0  0  0  0
    1.0150   52.7770   75.3270 Br  0  0  0  0  0  0  0  0  0  0  0  0
    2.5670   54.7630   73.5580 O   0  0  0  0  0  0  0  0  0  0  0  0
    4.9680   63.4040   70.4880 Br  0  0  0  0  0  0  0  0  0  0  0  0
    4.0910   61.9720   71.3570 C   0  0  0  0  0  0  0  0  0  0  0  0
    4.7960   61.1610   72.2410 C   0  0  0  0  0  0  0  0  0  0  0  0
    4.1470   60.1000   72.8840 C   0  0  0  0  0  0  0  0  0  0  0  0
    2.7950   59.8470   72.6460 C   0  0  0  0  0  0  0  0  0  0  0  0
    2.0980   60.6720   71.7530 C   0  0  0  0  0  0  0  0  0  0  0  0
    2.7420   61.7330   71.1080 C   0  0  0  0  0  0  0  0  0  0  0  0
    1.6454   59.0205   74.1633 H   0  0  0  0  0  0  0  0  0  0  0  0
   -0.4871   58.1613   73.8630 H   0  0  0  0  0  0  0  0  0  0  0  0
   -1.3137   54.4699   75.9492 H   0  0  0  0  0  0  0  0  0  0  0  0
    3.1681   55.2930   72.9767 H   0  0  0  0  0  0  0  0  0  0  0  0
    5.8617   61.3532   72.4344 H   0  0  0  0  0  0  0  0  0  0  0  0
    4.7070   59.4607   73.5823 H   0  0  0  0  0  0  0  0  0  0  0  0
    1.0322   60.4830   71.5570 H   0  0  0  0  0  0  0  0  0  0  0  0
    2.1862   62.3746   70.4084 H   0  0  0  0  0  0  0  0  0  0  0  0
  2  1  1  0
  3  2  2  0
  4  2  1  0
  5  4  2  0
  6  5  1  0
  7  6  1  0
  8  6  2  0
  9  8  1  0
 10  9  2  0
 10  4  1  0
 11  9  1  0
 12 10  1  0
 14 13  1  0
 15 14  2  0
 16 15  1  0
 17  1  1  0
 17 16  2  0
 18 17  1  0
 19 18  2  0
 19 14  1  0
  1 20  1  0
  5 21  1  0
  8 22  1  0
 12 23  1  0
 15 24  1  0
 16 25  1  0
 18 26  1  0
 19 27  1  0
M  END
>  <score>  (6) 
-7.123

$$$$
=
     RDKit          3D

 27 28  0  0  0  0  0  0  0  0999 V2000
    1.4530   57.9960   73.1510 N   0  0  0  0  0  0  0  0  0  0  0  0
    2.2690   58.4540   72.1360 C   0  0  0  0  0  0  0  0  0  0  0  0
    2.8780   57.7500   71.3370 O   0  0  0  0  0  0  0  0  0  0  0  0
    2.4110   59.9470   72.0170 C   0  0  0  0  0  0  0  0  0  0  0  0
    1.4190   60.7290   72.6380 C   0  0  0  0  0  0  0  0  0  0  0  0
    1.4690   62.1210   72.5790 C   0  0  0  0  0  0  0  0  0  0  0  0
    0.1220   63.1460   73.4220 Br  0  0  0  0  0  0  0  0  0  0  0  0
    2.5010   62.7670   71.9050 C   0  0  0  0  0  0  0  0  0  0  0  0
    3.4890   62.0030   71.2860 C   0  0  0  0  0  0  0  0  0  0  0  0
    3.4510   60.6010   71.3370 C   0  0  0  0  0  0  0  0  0  0  0  0
    4.8890   62.9020   70.3720 Br  0  0  0  0  0  0  0  0  0  0  0  0
    4.4410   59.8740   70.7170 O   0  0  0  0  0  0  0  0  0  0  0  0
   -0.1700   52.2960   74.5920 Br  0  0  0  0  0  0  0  0  0  0  0  0
    0.3580   54.0550   74.1470 C   0  0  0  0  0  0  0  0  0  0  0  0
    1.7100   54.3760   74.0750 C   0  0  0  0  0  0  0  0  0  0  0  0
    2.1020   55.6800   73.7460 C   0  0  0  0  0  0  0  0  0  0  0  0
    1.1450   56.6640   73.4880 C   0  0  0  0  0  0  0  0  0  0  0  0
   -0.2130   56.3250   73.5650 C   0  0  0  0  0  0  0  0  0  0  0  0
   -0.6080   55.0250   73.8930 C   0  0  0  0  0  0  0  0  0  0  0  0
    1.0136   58.7208   73.7362 H   0  0  0  0  0  0  0  0  0  0  0  0
    0.5954   60.2365   73.1757 H   0  0  0  0  0  0  0  0  0  0  0  0
    2.5366   63.8656   71.8613 H   0  0  0  0  0  0  0  0  0  0  0  0
    4.4219   58.8847   70.7481 H   0  0  0  0  0  0  0  0  0  0  0  0
    2.4701   53.6067   74.2762 H   0  0  0  0  0  0  0  0  0  0  0  0
    3.1716   55.9309   73.6904 H   0  0  0  0  0  0  0  0  0  0  0  0
   -0.9767   57.0910   73.3650 H   0  0  0  0  0  0  0  0  0  0  0  0
   -1.6764   54.7696   73.9502 H   0  0  0  0  0  0  0  0  0  0  0  0
  2  1  1  0
  3  2  2  0
  4  2  1  0
  5  4  2  0
  6  5  1  0
  7  6  1  0
  8  6  2  0
  9  8  1  0
 10  9  2  0
 10  4  1  0
 11  9  1  0
 12 10  1  0
 14 13  1  0
 15 14  2  0
 16 15  1  0
 17  1  1  0
 17 16  2  0
 18 17  1  0
 19 18  2  0
 19 14  1  0
  1 20  1  0
  5 21  1  0
  8 22  1  0
 12 23  1  0
 15 24  1  0
 16 25  1  0
 18 26  1  0
 19 27  1  0
M  END
>  <score>  (7) 
-6.991

$$$$
=
     RDKit          3D

 27 28  0  0  0  0  0  0  0  0999 V2000
    1.3850   68.9180   66.5860 N   0  0  0  0  0  0  0  0  0  0  0  0
    2.0920   69.7140   67.4650 C   0  0  0  0  0  0  0  0  0  0  0  0
    1.6110   70.3400   68.4050 O   0  0  0  0  0  0  0  0  0  0  0  0
    3.5750   69.8070   67.2360 C   0  0  0  0  0  0  0  0  0  0  0  0
    4.0470   69.4130   65.9700 C   0  0  0  0  0  0  0  0  0  0  0  0
    5.4070   69.4670   65.6680 C   0  0  0  0  0  0  0  0  0  0  0  0
    6.0110   68.9300   63.9580 Br  0  0  0  0  0  0  0  0  0  0  0  0
    6.3270   69.9110   66.6120 C   0  0  0  0  0  0  0  0  0  0  0  0
    5.8730   70.3040   67.8690 C   0  0  0  0  0  0  0  0  0  0  0  0
    4.5060   70.2550   68.1880 C   0  0  0  0  0  0  0  0  0  0  0  0
    7.1430   70.9070   69.1440 Br  0  0  0  0  0  0  0  0  0  0  0  0
    4.0880   70.6500   69.4370 O   0  0  0  0  0  0  0  0  0  0  0  0
   -4.6270   67.9460   66.2640 Br  0  0  0  0  0  0  0  0  0  0  0  0
   -2.7630   68.2310   66.3850 C   0  0  0  0  0  0  0  0  0  0  0  0
   -2.0320   67.6200   67.3980 C   0  0  0  0  0  0  0  0  0  0  0  0
   -0.6500   67.8320   67.4880 C   0  0  0  0  0  0  0  0  0  0  0  0
    0.0030   68.6530   66.5670 C   0  0  0  0  0  0  0  0  0  0  0  0
   -0.7480   69.2620   65.5520 C   0  0  0  0  0  0  0  0  0  0  0  0
   -2.1270   69.0540   65.4590 C   0  0  0  0  0  0  0  0  0  0  0  0
    1.9402   68.4593   65.8497 H   0  0  0  0  0  0  0  0  0  0  0  0
    3.3349   69.0585   65.2103 H   0  0  0  0  0  0  0  0  0  0  0  0
    7.3991   69.9513   66.3692 H   0  0  0  0  0  0  0  0  0  0  0  0
    3.1263   70.6186   69.6700 H   0  0  0  0  0  0  0  0  0  0  0  0
   -2.5382   66.9710   68.1278 H   0  0  0  0  0  0  0  0  0  0  0  0
   -0.0749   67.3476   68.2909 H   0  0  0  0  0  0  0  0  0  0  0  0
   -0.2459   69.9115   64.8198 H   0  0  0  0  0  0  0  0  0  0  0  0
   -2.7066   69.5376   64.6589 H   0  0  0  0  0  0  0  0  0  0  0  0
  2  1  1  0
  3  2  2  0
  4  2  1  0
  5  4  2  0
  6  5  1  0
  7  6  1  0
  8  6  2  0
  9  8  1  0
 10  9  2  0
 10  4  1  0
 11  9  1  0
 12 10  1  0
 14 13  1  0
 15 14  2  0
 16 15  1  0
 17  1  1  0
 17 16  2  0
 18 17  1  0
 19 18  2  0
 19 14  1  0
  1 20  1  0
  5 21  1  0
  8 22  1  0
 12 23  1  0
 15 24  1  0
 16 25  1  0
 18 26  1  0
 19 27  1  0
M  END
>  <score>  (8) 
-6.752

$$$$
=
     RDKit          3D

 27 28  0  0  0  0  0  0  0  0999 V2000
    1.3940   57.9400   72.8960 N   0  0  0  0  0  0  0  0  0  0  0  0
    0.9780   59.1850   73.3220 C   0  0  0  0  0  0  0  0  0  0  0  0
    0.1760   59.3990   74.2260 O   0  0  0  0  0  0  0  0  0  0  0  0
    1.5690   60.3670   72.6040 C   0  0  0  0  0  0  0  0  0  0  0  0
    2.9490   60.3190   72.3310 C   0  0  0  0  0  0  0  0  0  0  0  0
    3.5820   61.3700   71.6700 C   0  0  0  0  0  0  0  0  0  0  0  0
    5.4380   61.2760   71.3180 Br  0  0  0  0  0  0  0  0  0  0  0  0
    2.8630   62.4900   71.2650 C   0  0  0  0  0  0  0  0  0  0  0  0
    1.4960   62.5510   71.5300 C   0  0  0  0  0  0  0  0  0  0  0  0
    0.8450   61.5000   72.1950 C   0  0  0  0  0  0  0  0  0  0  0  0
    0.5330   64.0870   70.9700 Br  0  0  0  0  0  0  0  0  0  0  0  0
   -0.5050   61.5890   72.4410 O   0  0  0  0  0  0  0  0  0  0  0  0
    0.0070   52.3960   75.0270 Br  0  0  0  0  0  0  0  0  0  0  0  0
    0.4110   54.1190   74.3660 C   0  0  0  0  0  0  0  0  0  0  0  0
   -0.6170   55.0080   74.0700 C   0  0  0  0  0  0  0  0  0  0  0  0
   -0.3180   56.2860   73.5800 C   0  0  0  0  0  0  0  0  0  0  0  0
    1.0080   56.6770   73.3840 C   0  0  0  0  0  0  0  0  0  0  0  0
    2.0340   55.7710   73.6870 C   0  0  0  0  0  0  0  0  0  0  0  0
    1.7390   54.4950   74.1760 C   0  0  0  0  0  0  0  0  0  0  0  0
    2.0737   57.9340   72.1222 H   0  0  0  0  0  0  0  0  0  0  0  0
    3.5347   59.4417   72.6430 H   0  0  0  0  0  0  0  0  0  0  0  0
    3.3667   63.3166   70.7425 H   0  0  0  0  0  0  0  0  0  0  0  0
   -0.9724   60.8526   72.9094 H   0  0  0  0  0  0  0  0  0  0  0  0
   -1.6644   54.7077   74.2206 H   0  0  0  0  0  0  0  0  0  0  0  0
   -1.1338   56.9865   73.3480 H   0  0  0  0  0  0  0  0  0  0  0  0
    3.0828   56.0674   73.5383 H   0  0  0  0  0  0  0  0  0  0  0  0
    2.5515   53.7912   74.4096 H   0  0  0  0  0  0  0  0  0  0  0  0
  2  1  1  0
  3  2  2  0
  4  2  1  0
  5  4  2  0
  6  5  1  0
  7  6  1  0
  8  6  2  0
  9  8  1  0
 10  9  2  0
 10  4  1  0
 11  9  1  0
 12 10  1  0
 14 13  1  0
 15 14  2  0
 16 15  1  0
 17  1  1  0
 17 16  2  0
 18 17  1  0
 19 18  2  0
 19 14  1  0
  1 20  1  0
  5 21  1  0
  8 22  1  0
 12 23  1  0
 15 24  1  0
 16 25  1  0
 18 26  1  0
 19 27  1  0
M  END
>  <score>  (9) 
-6.629

$$$$
