=
     RDKit          3D

 51 50  0  0  0  0  0  0  0  0999 V2000
    4.3200   67.8110   62.1900 C   0  0  0  0  0  0  0  0  0  0  0  0
    5.4000   68.7960   62.6540 C   0  0  0  0  0  0  0  0  0  0  0  0
    5.0300   69.5900   63.9050 C   0  0  0  0  0  0  0  0  0  0  0  0
    4.8060   68.6900   64.9970 O   0  0  0  0  0  0  0  0  0  0  0  0
    4.6480   69.7030   66.9550 N   0  0  0  0  0  0  0  0  0  0  0  0
    3.9400   69.1560   65.9300 C   0  0  0  0  0  0  0  0  0  0  0  0
    2.7230   69.0870   65.8630 O   0  0  0  0  0  0  0  0  0  0  0  0
    4.0250   70.2150   68.1540 C   0  0  0  0  0  0  0  0  0  0  0  0
    4.9800   71.1100   68.9420 C   0  0  0  0  0  0  0  0  0  0  0  0
    7.4320   70.8440   69.5930 C   0  0  0  0  0  0  0  0  0  0  0  0
    6.4290   71.0160   68.4630 C   0  0  0  0  0  0  0  0  0  0  0  0
    3.3190   68.3330   61.1530 C   0  0  0  0  0  0  0  0  0  0  0  0
    2.1190   69.0730   61.7450 C   0  0  0  0  0  0  0  0  0  0  0  0
    1.4980   68.3070   62.7870 O   0  0  0  0  0  0  0  0  0  0  0  0
    0.3140   68.7860   63.2420 C   0  0  0  0  0  0  0  0  0  0  0  0
   -0.4420   69.5180   62.6240 O   0  0  0  0  0  0  0  0  0  0  0  0
    0.1170   68.3300   64.5080 N   0  0  0  0  0  0  0  0  0  0  0  0
   -0.9920   68.7550   65.3300 C   0  0  0  0  0  0  0  0  0  0  0  0
   -0.6290   68.8410   66.8130 C   0  0  0  0  0  0  0  0  0  0  0  0
   -0.8990   67.5650   67.6170 C   0  0  0  0  0  0  0  0  0  0  0  0
   -2.2630   66.9510   67.3410 C   0  0  0  0  0  0  0  0  0  0  0  0
    4.8284   66.9384   61.7541 H   0  0  0  0  0  0  0  0  0  0  0  0
    3.7222   67.5904   63.0867 H   0  0  0  0  0  0  0  0  0  0  0  0
    6.3173   68.2270   62.8657 H   0  0  0  0  0  0  0  0  0  0  0  0
    5.5288   69.5277   61.8428 H   0  0  0  0  0  0  0  0  0  0  0  0
    5.8511   70.2765   64.1590 H   0  0  0  0  0  0  0  0  0  0  0  0
    4.1133   70.1671   63.7134 H   0  0  0  0  0  0  0  0  0  0  0  0
    5.6734   69.7544   66.8727 H   0  0  0  0  0  0  0  0  0  0  0  0
    3.1365   70.7997   67.8735 H   0  0  0  0  0  0  0  0  0  0  0  0
    3.7471   69.3618   68.7902 H   0  0  0  0  0  0  0  0  0  0  0  0
    4.6454   72.1529   68.8403 H   0  0  0  0  0  0  0  0  0  0  0  0
    4.9592   70.7687   69.9875 H   0  0  0  0  0  0  0  0  0  0  0  0
    6.9143   70.9328   70.5595 H   0  0  0  0  0  0  0  0  0  0  0  0
    7.9018   69.8522   69.5185 H   0  0  0  0  0  0  0  0  0  0  0  0
    8.2054   71.6226   69.5185 H   0  0  0  0  0  0  0  0  0  0  0  0
    6.5165   70.1537   67.7857 H   0  0  0  0  0  0  0  0  0  0  0  0
    6.6662   71.9661   67.9620 H   0  0  0  0  0  0  0  0  0  0  0  0
    3.8498   69.0226   60.4801 H   0  0  0  0  0  0  0  0  0  0  0  0
    2.9169   67.4499   60.6349 H   0  0  0  0  0  0  0  0  0  0  0  0
    2.4590   70.0333   62.1599 H   0  0  0  0  0  0  0  0  0  0  0  0
    1.3811   69.2347   60.9454 H   0  0  0  0  0  0  0  0  0  0  0  0
    0.7877   67.6522   64.8975 H   0  0  0  0  0  0  0  0  0  0  0  0
   -1.3215   69.7480   64.9903 H   0  0  0  0  0  0  0  0  0  0  0  0
   -1.7891   68.0041   65.2263 H   0  0  0  0  0  0  0  0  0  0  0  0
    0.4435   69.0729   66.8896 H   0  0  0  0  0  0  0  0  0  0  0  0
   -1.2742   69.6205   67.2444 H   0  0  0  0  0  0  0  0  0  0  0  0
   -0.1261   66.8242   67.3643 H   0  0  0  0  0  0  0  0  0  0  0  0
   -0.8786   67.8428   68.6812 H   0  0  0  0  0  0  0  0  0  0  0  0
   -2.7634   66.7257   68.2943 H   0  0  0  0  0  0  0  0  0  0  0  0
   -2.8747   67.6606   66.7645 H   0  0  0  0  0  0  0  0  0  0  0  0
   -2.1373   66.0226   66.7645 H   0  0  0  0  0  0  0  0  0  0  0  0
  2  1  1  0
  3  2  1  0
  4  3  1  0
  6  4  1  0
  6  5  1  0
  7  6  2  0
  8  5  1  0
  9  8  1  0
 11  9  1  0
 11 10  1  0
 12  1  1  0
 13 12  1  0
 14 13  1  0
 15 14  1  0
 16 15  2  0
 17 15  1  0
 18 17  1  0
 19 18  1  0
 20 19  1  0
 21 20  1  0
  1 22  1  0
  1 23  1  0
  2 24  1  0
  2 25  1  0
  3 26  1  0
  3 27  1  0
  5 28  1  0
  8 29  1  0
  8 30  1  0
  9 31  1  0
  9 32  1  0
 10 33  1  0
 10 34  1  0
 10 35  1  0
 11 36  1  0
 11 37  1  0
 12 38  1  0
 12 39  1  0
 13 40  1  0
 13 41  1  0
 17 42  1  0
 18 43  1  0
 18 44  1  0
 19 45  1  0
 19 46  1  0
 20 47  1  0
 20 48  1  0
 21 49  1  0
 21 50  1  0
 21 51  1  0
M  END
>  <score>  (1) 
-6.766

$$$$
=
     RDKit          3D

 51 50  0  0  0  0  0  0  0  0999 V2000
    4.5470   65.4560   63.7140 C   0  0  0  0  0  0  0  0  0  0  0  0
    3.4080   64.9980   64.6340 C   0  0  0  0  0  0  0  0  0  0  0  0
    2.2360   65.9740   64.7150 C   0  0  0  0  0  0  0  0  0  0  0  0
    2.0620   66.4050   66.0700 O   0  0  0  0  0  0  0  0  0  0  0  0
    0.5690   67.6600   65.0300 N   0  0  0  0  0  0  0  0  0  0  0  0
    1.1990   67.4410   66.2160 C   0  0  0  0  0  0  0  0  0  0  0  0
    1.0230   68.0750   67.2430 O   0  0  0  0  0  0  0  0  0  0  0  0
   -0.3550   68.7520   64.8230 C   0  0  0  0  0  0  0  0  0  0  0  0
   -0.2230   69.3350   63.4170 C   0  0  0  0  0  0  0  0  0  0  0  0
    1.6630   69.1310   61.7120 C   0  0  0  0  0  0  0  0  0  0  0  0
    0.5380   68.4240   62.4530 C   0  0  0  0  0  0  0  0  0  0  0  0
    4.2520   66.6540   62.8050 C   0  0  0  0  0  0  0  0  0  0  0  0
    5.3240   67.7420   62.8190 C   0  0  0  0  0  0  0  0  0  0  0  0
    4.7610   69.0260   63.1240 O   0  0  0  0  0  0  0  0  0  0  0  0
    4.4360   69.2300   64.4240 C   0  0  0  0  0  0  0  0  0  0  0  0
    3.3040   69.3600   64.8630 O   0  0  0  0  0  0  0  0  0  0  0  0
    5.5810   69.2840   65.1570 N   0  0  0  0  0  0  0  0  0  0  0  0
    5.5970   69.6140   66.5620 C   0  0  0  0  0  0  0  0  0  0  0  0
    6.4370   70.8540   66.8680 C   0  0  0  0  0  0  0  0  0  0  0  0
    6.2690   71.4130   68.2850 C   0  0  0  0  0  0  0  0  0  0  0  0
    7.3880   71.0120   69.2330 C   0  0  0  0  0  0  0  0  0  0  0  0
    5.4039   65.7222   64.3502 H   0  0  0  0  0  0  0  0  0  0  0  0
    4.7285   64.6115   63.0329 H   0  0  0  0  0  0  0  0  0  0  0  0
    3.0295   64.0350   64.2608 H   0  0  0  0  0  0  0  0  0  0  0  0
    3.8301   64.9270   65.6473 H   0  0  0  0  0  0  0  0  0  0  0  0
    2.4412   66.8462   64.0770 H   0  0  0  0  0  0  0  0  0  0  0  0
    1.3192   65.4732   64.3705 H   0  0  0  0  0  0  0  0  0  0  0  0
    0.7588   67.0198   64.2457 H   0  0  0  0  0  0  0  0  0  0  0  0
   -1.3819   68.3832   64.9626 H   0  0  0  0  0  0  0  0  0  0  0  0
   -0.1227   69.5445   65.5496 H   0  0  0  0  0  0  0  0  0  0  0  0
   -1.2321   69.5050   63.0135 H   0  0  0  0  0  0  0  0  0  0  0  0
    0.3515   70.2690   63.5044 H   0  0  0  0  0  0  0  0  0  0  0  0
    2.3618   69.5702   62.4392 H   0  0  0  0  0  0  0  0  0  0  0  0
    2.1982   68.4066   61.0805 H   0  0  0  0  0  0  0  0  0  0  0  0
    1.2424   69.9275   61.0805 H   0  0  0  0  0  0  0  0  0  0  0  0
    0.9690   67.5910   63.0278 H   0  0  0  0  0  0  0  0  0  0  0  0
   -0.1821   68.0794   61.6962 H   0  0  0  0  0  0  0  0  0  0  0  0
    4.1508   66.2853   61.7736 H   0  0  0  0  0  0  0  0  0  0  0  0
    3.3318   67.1180   63.1896 H   0  0  0  0  0  0  0  0  0  0  0  0
    6.0783   67.4918   63.5796 H   0  0  0  0  0  0  0  0  0  0  0  0
    5.7803   67.7921   61.8194 H   0  0  0  0  0  0  0  0  0  0  0  0
    6.4755   69.0805   64.6887 H   0  0  0  0  0  0  0  0  0  0  0  0
    4.5640   69.7988   66.8917 H   0  0  0  0  0  0  0  0  0  0  0  0
    6.0497   68.7661   67.0970 H   0  0  0  0  0  0  0  0  0  0  0  0
    7.4962   70.5927   66.7270 H   0  0  0  0  0  0  0  0  0  0  0  0
    6.0878   71.6403   66.1825 H   0  0  0  0  0  0  0  0  0  0  0  0
    6.2407   72.5110   68.2248 H   0  0  0  0  0  0  0  0  0  0  0  0
    5.3366   70.9926   68.6897 H   0  0  0  0  0  0  0  0  0  0  0  0
    7.0491   71.1334   70.2724 H   0  0  0  0  0  0  0  0  0  0  0  0
    7.6592   69.9607   69.0562 H   0  0  0  0  0  0  0  0  0  0  0  0
    8.2652   71.6517   69.0562 H   0  0  0  0  0  0  0  0  0  0  0  0
  2  1  1  0
  3  2  1  0
  4  3  1  0
  6  4  1  0
  6  5  1  0
  7  6  2  0
  8  5  1  0
  9  8  1  0
 11  9  1  0
 11 10  1  0
 12  1  1  0
 13 12  1  0
 14 13  1  0
 15 14  1  0
 16 15  2  0
 17 15  1  0
 18 17  1  0
 19 18  1  0
 20 19  1  0
 21 20  1  0
  1 22  1  0
  1 23  1  0
  2 24  1  0
  2 25  1  0
  3 26  1  0
  3 27  1  0
  5 28  1  0
  8 29  1  0
  8 30  1  0
  9 31  1  0
  9 32  1  0
 10 33  1  0
 10 34  1  0
 10 35  1  0
 11 36  1  0
 11 37  1  0
 12 38  1  0
 12 39  1  0
 13 40  1  0
 13 41  1  0
 17 42  1  0
 18 43  1  0
 18 44  1  0
 19 45  1  0
 19 46  1  0
 20 47  1  0
 20 48  1  0
 21 49  1  0
 21 50  1  0
 21 51  1  0
M  END
>  <score>  (2) 
-6.717

$$$$
=
     RDKit          3D

 51 50  0  0  0  0  0  0  0  0999 V2000
   -0.8930   66.9190   67.7940 C   0  0  0  0  0  0  0  0  0  0  0  0
   -1.8480   67.8030   66.9830 C   0  0  0  0  0  0  0  0  0  0  0  0
   -1.1550   68.8970   66.1730 C   0  0  0  0  0  0  0  0  0  0  0  0
   -1.4260   68.7080   64.7800 O   0  0  0  0  0  0  0  0  0  0  0  0
    0.7840   68.6670   64.8080 N   0  0  0  0  0  0  0  0  0  0  0  0
   -0.3170   68.5500   64.0160 C   0  0  0  0  0  0  0  0  0  0  0  0
   -0.3090   68.3430   62.8140 O   0  0  0  0  0  0  0  0  0  0  0  0
    2.1320   68.6350   64.2870 C   0  0  0  0  0  0  0  0  0  0  0  0
    3.1330   68.2010   65.3560 C   0  0  0  0  0  0  0  0  0  0  0  0
    5.1060   69.6880   65.9930 C   0  0  0  0  0  0  0  0  0  0  0  0
    3.6370   69.3600   66.2170 C   0  0  0  0  0  0  0  0  0  0  0  0
    0.4200   67.5660   68.2460 C   0  0  0  0  0  0  0  0  0  0  0  0
    1.0640   66.9120   69.4680 C   0  0  0  0  0  0  0  0  0  0  0  0
    0.1330   66.0630   70.1550 O   0  0  0  0  0  0  0  0  0  0  0  0
    0.6810   65.0730   70.9010 C   0  0  0  0  0  0  0  0  0  0  0  0
    0.3360   64.7580   72.0290 O   0  0  0  0  0  0  0  0  0  0  0  0
    1.6910   64.5000   70.1920 N   0  0  0  0  0  0  0  0  0  0  0  0
    2.5640   63.4930   70.7460 C   0  0  0  0  0  0  0  0  0  0  0  0
    3.8110   63.2590   69.8930 C   0  0  0  0  0  0  0  0  0  0  0  0
    3.7310   62.0520   68.9530 C   0  0  0  0  0  0  0  0  0  0  0  0
    3.5430   60.7290   69.6780 C   0  0  0  0  0  0  0  0  0  0  0  0
   -1.4293   66.5867   68.6951 H   0  0  0  0  0  0  0  0  0  0  0  0
   -0.5980   66.1076   67.1124 H   0  0  0  0  0  0  0  0  0  0  0  0
   -2.4058   67.1595   66.2867 H   0  0  0  0  0  0  0  0  0  0  0  0
   -2.4993   68.3123   67.7086 H   0  0  0  0  0  0  0  0  0  0  0  0
   -1.5319   69.8809   66.4891 H   0  0  0  0  0  0  0  0  0  0  0  0
   -0.0696   68.8461   66.3441 H   0  0  0  0  0  0  0  0  0  0  0  0
    0.6507   68.7834   65.8227 H   0  0  0  0  0  0  0  0  0  0  0  0
    2.1745   67.9251   63.4478 H   0  0  0  0  0  0  0  0  0  0  0  0
    2.3987   69.6491   63.9547 H   0  0  0  0  0  0  0  0  0  0  0  0
    2.6462   67.4643   66.0120 H   0  0  0  0  0  0  0  0  0  0  0  0
    4.0047   67.7786   64.8347 H   0  0  0  0  0  0  0  0  0  0  0  0
    5.6089   69.8003   66.9648 H   0  0  0  0  0  0  0  0  0  0  0  0
    5.5812   68.8738   65.4261 H   0  0  0  0  0  0  0  0  0  0  0  0
    5.1897   70.6270   65.4261 H   0  0  0  0  0  0  0  0  0  0  0  0
    3.0407   70.2538   65.9814 H   0  0  0  0  0  0  0  0  0  0  0  0
    3.5305   69.0528   67.2679 H   0  0  0  0  0  0  0  0  0  0  0  0
    1.1344   67.5117   67.4113 H   0  0  0  0  0  0  0  0  0  0  0  0
    0.1748   68.5979   68.5376 H   0  0  0  0  0  0  0  0  0  0  0  0
    1.9243   66.3098   69.1407 H   0  0  0  0  0  0  0  0  0  0  0  0
    1.3855   67.7058   70.1583 H   0  0  0  0  0  0  0  0  0  0  0  0
    1.8391   64.7979   69.2172 H   0  0  0  0  0  0  0  0  0  0  0  0
    2.8794   63.8142   71.7497 H   0  0  0  0  0  0  0  0  0  0  0  0
    2.0021   62.5479   70.7792 H   0  0  0  0  0  0  0  0  0  0  0  0
    3.9807   64.1577   69.2818 H   0  0  0  0  0  0  0  0  0  0  0  0
    4.6311   63.0496   70.5956 H   0  0  0  0  0  0  0  0  0  0  0  0
    2.8812   62.1985   68.2701 H   0  0  0  0  0  0  0  0  0  0  0  0
    4.6909   61.9942   68.4188 H   0  0  0  0  0  0  0  0  0  0  0  0
    3.5672   60.8996   70.7644 H   0  0  0  0  0  0  0  0  0  0  0  0
    2.5737   60.2914   69.3971 H   0  0  0  0  0  0  0  0  0  0  0  0
    4.3521   60.0387   69.3971 H   0  0  0  0  0  0  0  0  0  0  0  0
  2  1  1  0
  3  2  1  0
  4  3  1  0
  6  4  1  0
  6  5  1  0
  7  6  2  0
  8  5  1  0
  9  8  1  0
 11  9  1  0
 11 10  1  0
 12  1  1  0
 13 12  1  0
 14 13  1  0
 15 14  1  0
 16 15  2  0
 17 15  1  0
 18 17  1  0
 19 18  1  0
 20 19  1  0
 21 20  1  0
  1 22  1  0
  1 23  1  0
  2 24  1  0
  2 25  1  0
  3 26  1  0
  3 27  1  0
  5 28  1  0
  8 29  1  0
  8 30  1  0
  9 31  1  0
  9 32  1  0
 10 33  1  0
 10 34  1  0
 10 35  1  0
 11 36  1  0
 11 37  1  0
 12 38  1  0
 12 39  1  0
 13 40  1  0
 13 41  1  0
 17 42  1  0
 18 43  1  0
 18 44  1  0
 19 45  1  0
 19 46  1  0
 20 47  1  0
 20 48  1  0
 21 49  1  0
 21 50  1  0
 21 51  1  0
M  END
>  <score>  (3) 
-6.56

$$$$
=
     RDKit          3D

 51 50  0  0  0  0  0  0  0  0999 V2000
   -0.5440   69.1480   66.7680 C   0  0  0  0  0  0  0  0  0  0  0  0
    0.7170   68.7230   67.5300 C   0  0  0  0  0  0  0  0  0  0  0  0
    1.6030   69.8850   67.9750 C   0  0  0  0  0  0  0  0  0  0  0  0
    2.8250   69.3750   68.5230 O   0  0  0  0  0  0  0  0  0  0  0  0
    4.6040   70.5740   67.9900 N   0  0  0  0  0  0  0  0  0  0  0  0
    3.6790   70.3340   68.9590 C   0  0  0  0  0  0  0  0  0  0  0  0
    3.6280   70.8840   70.0470 O   0  0  0  0  0  0  0  0  0  0  0  0
    5.7120   71.4830   68.1720 C   0  0  0  0  0  0  0  0  0  0  0  0
    7.0470   70.7400   68.1870 C   0  0  0  0  0  0  0  0  0  0  0  0
    7.0710   70.2730   70.6950 C   0  0  0  0  0  0  0  0  0  0  0  0
    7.8030   70.8820   69.5090 C   0  0  0  0  0  0  0  0  0  0  0  0
   -0.7000   68.6000   65.3460 C   0  0  0  0  0  0  0  0  0  0  0  0
    0.5990   68.5310   64.5450 C   0  0  0  0  0  0  0  0  0  0  0  0
    0.3380   68.4000   63.1400 O   0  0  0  0  0  0  0  0  0  0  0  0
    1.3800   68.6850   62.3200 C   0  0  0  0  0  0  0  0  0  0  0  0
    1.3390   69.4210   61.3470 O   0  0  0  0  0  0  0  0  0  0  0  0
    2.4740   68.0010   62.7510 N   0  0  0  0  0  0  0  0  0  0  0  0
    3.7230   67.9850   62.0260 C   0  0  0  0  0  0  0  0  0  0  0  0
    4.6840   69.0840   62.4810 C   0  0  0  0  0  0  0  0  0  0  0  0
    4.6480   69.3910   63.9810 C   0  0  0  0  0  0  0  0  0  0  0  0
    5.5430   68.4820   64.8090 C   0  0  0  0  0  0  0  0  0  0  0  0
   -1.4152   68.8158   67.3517 H   0  0  0  0  0  0  0  0  0  0  0  0
   -0.4608   70.2387   66.6524 H   0  0  0  0  0  0  0  0  0  0  0  0
    0.4068   68.1637   68.4250 H   0  0  0  0  0  0  0  0  0  0  0  0
    1.3167   68.1174   66.8345 H   0  0  0  0  0  0  0  0  0  0  0  0
    1.8290   70.5254   67.1097 H   0  0  0  0  0  0  0  0  0  0  0  0
    1.0766   70.4734   68.7409 H   0  0  0  0  0  0  0  0  0  0  0  0
    4.5100   70.0863   67.0876 H   0  0  0  0  0  0  0  0  0  0  0  0
    5.7169   72.2108   67.3472 H   0  0  0  0  0  0  0  0  0  0  0  0
    5.5877   71.9904   69.1400 H   0  0  0  0  0  0  0  0  0  0  0  0
    6.8543   69.6719   68.0079 H   0  0  0  0  0  0  0  0  0  0  0  0
    7.6764   71.1847   67.4021 H   0  0  0  0  0  0  0  0  0  0  0  0
    7.5162   70.6434   71.6302 H   0  0  0  0  0  0  0  0  0  0  0  0
    6.0093   70.5580   70.6563 H   0  0  0  0  0  0  0  0  0  0  0  0
    7.1581   69.1771   70.6563 H   0  0  0  0  0  0  0  0  0  0  0  0
    8.7780   70.3828   69.4079 H   0  0  0  0  0  0  0  0  0  0  0  0
    7.9044   71.9588   69.7096 H   0  0  0  0  0  0  0  0  0  0  0  0
   -1.1158   67.5839   65.4136 H   0  0  0  0  0  0  0  0  0  0  0  0
   -1.3585   69.3010   64.8122 H   0  0  0  0  0  0  0  0  0  0  0  0
    1.1762   69.4513   64.7181 H   0  0  0  0  0  0  0  0  0  0  0  0
    1.1655   67.6485   64.8770 H   0  0  0  0  0  0  0  0  0  0  0  0
    2.4088   67.4718   63.6322 H   0  0  0  0  0  0  0  0  0  0  0  0
    4.2065   67.0090   62.1797 H   0  0  0  0  0  0  0  0  0  0  0  0
    3.4934   68.1629   60.9650 H   0  0  0  0  0  0  0  0  0  0  0  0
    5.7065   68.7735   62.2201 H   0  0  0  0  0  0  0  0  0  0  0  0
    4.3649   70.0042   61.9698 H   0  0  0  0  0  0  0  0  0  0  0  0
    4.9738   70.4308   64.1313 H   0  0  0  0  0  0  0  0  0  0  0  0
    3.6151   69.2236   64.3203 H   0  0  0  0  0  0  0  0  0  0  0  0
    5.3626   68.6652   65.8785 H   0  0  0  0  0  0  0  0  0  0  0  0
    5.3169   67.4315   64.5737 H   0  0  0  0  0  0  0  0  0  0  0  0
    6.5969   68.6918   64.5737 H   0  0  0  0  0  0  0  0  0  0  0  0
  2  1  1  0
  3  2  1  0
  4  3  1  0
  6  4  1  0
  6  5  1  0
  7  6  2  0
  8  5  1  0
  9  8  1  0
 11  9  1  0
 11 10  1  0
 12  1  1  0
 13 12  1  0
 14 13  1  0
 15 14  1  0
 16 15  2  0
 17 15  1  0
 18 17  1  0
 19 18  1  0
 20 19  1  0
 21 20  1  0
  1 22  1  0
  1 23  1  0
  2 24  1  0
  2 25  1  0
  3 26  1  0
  3 27  1  0
  5 28  1  0
  8 29  1  0
  8 30  1  0
  9 31  1  0
  9 32  1  0
 10 33  1  0
 10 34  1  0
 10 35  1  0
 11 36  1  0
 11 37  1  0
 12 38  1  0
 12 39  1  0
 13 40  1  0
 13 41  1  0
 17 42  1  0
 18 43  1  0
 18 44  1  0
 19 45  1  0
 19 46  1  0
 20 47  1  0
 20 48  1  0
 21 49  1  0
 21 50  1  0
 21 51  1  0
M  END
>  <score>  (4) 
-6.539

$$$$
=
     RDKit          3D

 51 50  0  0  0  0  0  0  0  0999 V2000
    0.4550   66.4950   69.4720 C   0  0  0  0  0  0  0  0  0  0  0  0
   -0.8500   66.5920   68.6720 C   0  0  0  0  0  0  0  0  0  0  0  0
   -0.7910   67.5590   67.4910 C   0  0  0  0  0  0  0  0  0  0  0  0
   -0.1970   66.9050   66.3640 O   0  0  0  0  0  0  0  0  0  0  0  0
    1.7710   67.9070   66.2530 N   0  0  0  0  0  0  0  0  0  0  0  0
    0.5890   67.7100   65.6070 C   0  0  0  0  0  0  0  0  0  0  0  0
    0.2820   68.1850   64.5260 O   0  0  0  0  0  0  0  0  0  0  0  0
    2.8000   68.7890   65.7540 C   0  0  0  0  0  0  0  0  0  0  0  0
    3.5730   69.4470   66.8950 C   0  0  0  0  0  0  0  0  0  0  0  0
    5.7600   70.5320   67.6340 C   0  0  0  0  0  0  0  0  0  0  0  0
    4.9860   69.8780   66.5000 C   0  0  0  0  0  0  0  0  0  0  0  0
    0.4930   65.4510   70.5930 C   0  0  0  0  0  0  0  0  0  0  0  0
    1.8100   64.6840   70.7030 C   0  0  0  0  0  0  0  0  0  0  0  0
    1.8470   63.5800   69.7860 O   0  0  0  0  0  0  0  0  0  0  0  0
    3.0790   63.0840   69.5140 C   0  0  0  0  0  0  0  0  0  0  0  0
    3.5140   62.8310   68.4030 O   0  0  0  0  0  0  0  0  0  0  0  0
    3.7430   62.8960   70.6870 N   0  0  0  0  0  0  0  0  0  0  0  0
    5.0380   62.2630   70.7620 C   0  0  0  0  0  0  0  0  0  0  0  0
    4.9770   60.8680   71.3870 C   0  0  0  0  0  0  0  0  0  0  0  0
    3.6290   60.1560   71.2430 C   0  0  0  0  0  0  0  0  0  0  0  0
    3.6060   59.1150   70.1360 C   0  0  0  0  0  0  0  0  0  0  0  0
    1.2634   66.2563   68.7653 H   0  0  0  0  0  0  0  0  0  0  0  0
    0.5611   67.4672   69.9755 H   0  0  0  0  0  0  0  0  0  0  0  0
   -1.0932   65.5910   68.2862 H   0  0  0  0  0  0  0  0  0  0  0  0
   -1.6144   66.9811   69.3607 H   0  0  0  0  0  0  0  0  0  0  0  0
   -1.8098   67.8825   67.2315 H   0  0  0  0  0  0  0  0  0  0  0  0
   -0.1854   68.4351   67.7660 H   0  0  0  0  0  0  0  0  0  0  0  0
    1.9388   67.4049   67.1365 H   0  0  0  0  0  0  0  0  0  0  0  0
    3.5003   68.2080   65.1359 H   0  0  0  0  0  0  0  0  0  0  0  0
    2.3190   69.5806   65.1607 H   0  0  0  0  0  0  0  0  0  0  0  0
    3.0167   70.3363   67.2262 H   0  0  0  0  0  0  0  0  0  0  0  0
    3.6728   68.6983   67.6947 H   0  0  0  0  0  0  0  0  0  0  0  0
    5.3559   70.1906   68.5984 H   0  0  0  0  0  0  0  0  0  0  0  0
    6.8216   70.2532   67.5619 H   0  0  0  0  0  0  0  0  0  0  0  0
    5.6623   71.6253   67.5619 H   0  0  0  0  0  0  0  0  0  0  0  0
    5.5411   68.9885   66.1672 H   0  0  0  0  0  0  0  0  0  0  0  0
    4.8842   70.6288   65.7026 H   0  0  0  0  0  0  0  0  0  0  0  0
    0.3153   65.9666   71.5483 H   0  0  0  0  0  0  0  0  0  0  0  0
   -0.2817   64.7078   70.3535 H   0  0  0  0  0  0  0  0  0  0  0  0
    2.6425   65.3664   70.4765 H   0  0  0  0  0  0  0  0  0  0  0  0
    1.8986   64.2896   71.7261 H   0  0  0  0  0  0  0  0  0  0  0  0
    3.3020   63.2197   71.5597 H   0  0  0  0  0  0  0  0  0  0  0  0
    5.4465   62.1753   69.7444 H   0  0  0  0  0  0  0  0  0  0  0  0
    5.6768   62.8874   71.4039 H   0  0  0  0  0  0  0  0  0  0  0  0
    5.7458   60.2446   70.9072 H   0  0  0  0  0  0  0  0  0  0  0  0
    5.1397   61.0058   72.4661 H   0  0  0  0  0  0  0  0  0  0  0  0
    3.3961   59.6565   72.1950 H   0  0  0  0  0  0  0  0  0  0  0  0
    2.8856   60.9229   70.9801 H   0  0  0  0  0  0  0  0  0  0  0  0
    3.5838   58.1086   70.5795 H   0  0  0  0  0  0  0  0  0  0  0  0
    2.7109   59.2613   69.5136 H   0  0  0  0  0  0  0  0  0  0  0  0
    4.5067   59.2216   69.5136 H   0  0  0  0  0  0  0  0  0  0  0  0
  2  1  1  0
  3  2  1  0
  4  3  1  0
  6  4  1  0
  6  5  1  0
  7  6  2  0
  8  5  1  0
  9  8  1  0
 11  9  1  0
 11 10  1  0
 12  1  1  0
 13 12  1  0
 14 13  1  0
 15 14  1  0
 16 15  2  0
 17 15  1  0
 18 17  1  0
 19 18  1  0
 20 19  1  0
 21 20  1  0
  1 22  1  0
  1 23  1  0
  2 24  1  0
  2 25  1  0
  3 26  1  0
  3 27  1  0
  5 28  1  0
  8 29  1  0
  8 30  1  0
  9 31  1  0
  9 32  1  0
 10 33  1  0
 10 34  1  0
 10 35  1  0
 11 36  1  0
 11 37  1  0
 12 38  1  0
 12 39  1  0
 13 40  1  0
 13 41  1  0
 17 42  1  0
 18 43  1  0
 18 44  1  0
 19 45  1  0
 19 46  1  0
 20 47  1  0
 20 48  1  0
 21 49  1  0
 21 50  1  0
 21 51  1  0
M  END
>  <score>  (5) 
-6.516

$$$$
=
     RDKit          3D

 51 50  0  0  0  0  0  0  0  0999 V2000
    0.6510   66.4180   69.5230 C   0  0  0  0  0  0  0  0  0  0  0  0
    0.6220   65.5080   70.7570 C   0  0  0  0  0  0  0  0  0  0  0  0
    1.1770   64.1060   70.5160 C   0  0  0  0  0  0  0  0  0  0  0  0
    2.5620   64.1930   70.1610 O   0  0  0  0  0  0  0  0  0  0  0  0
    2.7050   61.9880   70.1020 N   0  0  0  0  0  0  0  0  0  0  0  0
    3.0180   63.1370   69.4430 C   0  0  0  0  0  0  0  0  0  0  0  0
    3.6160   63.2080   68.3820 O   0  0  0  0  0  0  0  0  0  0  0  0
    3.1260   60.6830   69.6450 C   0  0  0  0  0  0  0  0  0  0  0  0
    3.5370   59.7880   70.8130 C   0  0  0  0  0  0  0  0  0  0  0  0
    5.7170   60.9920   71.3670 C   0  0  0  0  0  0  0  0  0  0  0  0
    4.3620   60.5190   71.8730 C   0  0  0  0  0  0  0  0  0  0  0  0
   -0.6630   66.5610   68.7480 C   0  0  0  0  0  0  0  0  0  0  0  0
   -0.5910   67.4970   67.5420 C   0  0  0  0  0  0  0  0  0  0  0  0
   -0.0070   66.8410   66.4070 O   0  0  0  0  0  0  0  0  0  0  0  0
    0.7730   67.6180   65.6170 C   0  0  0  0  0  0  0  0  0  0  0  0
    0.4460   68.0930   64.5420 O   0  0  0  0  0  0  0  0  0  0  0  0
    1.9880   67.7650   66.2120 N   0  0  0  0  0  0  0  0  0  0  0  0
    3.0970   68.4340   65.5750 C   0  0  0  0  0  0  0  0  0  0  0  0
    3.7730   69.4580   66.4880 C   0  0  0  0  0  0  0  0  0  0  0  0
    5.2080   69.8220   66.0940 C   0  0  0  0  0  0  0  0  0  0  0  0
    6.0860   70.1970   67.2780 C   0  0  0  0  0  0  0  0  0  0  0  0
    0.9541   67.4219   69.8551 H   0  0  0  0  0  0  0  0  0  0  0  0
    1.3508   65.9376   68.8234 H   0  0  0  0  0  0  0  0  0  0  0  0
    1.2184   65.9832   71.5498 H   0  0  0  0  0  0  0  0  0  0  0  0
   -0.4356   65.3853   71.0336 H   0  0  0  0  0  0  0  0  0  0  0  0
    1.0708   63.5074   71.4328 H   0  0  0  0  0  0  0  0  0  0  0  0
    0.6190   63.6275   69.6977 H   0  0  0  0  0  0  0  0  0  0  0  0
    2.1440   62.0512   70.9635 H   0  0  0  0  0  0  0  0  0  0  0  0
    2.2938   60.2073   69.1054 H   0  0  0  0  0  0  0  0  0  0  0  0
    3.9967   60.8120   68.9852 H   0  0  0  0  0  0  0  0  0  0  0  0
    2.6266   59.3947   71.2889 H   0  0  0  0  0  0  0  0  0  0  0  0
    4.1692   58.9866   70.4031 H   0  0  0  0  0  0  0  0  0  0  0  0
    6.3691   61.2196   72.2232 H   0  0  0  0  0  0  0  0  0  0  0  0
    6.1767   60.2012   70.7560 H   0  0  0  0  0  0  0  0  0  0  0  0
    5.5847   61.8971   70.7560 H   0  0  0  0  0  0  0  0  0  0  0  0
    3.7922   61.3958   72.2143 H   0  0  0  0  0  0  0  0  0  0  0  0
    4.5519   59.8030   72.6862 H   0  0  0  0  0  0  0  0  0  0  0  0
   -0.9614   65.5641   68.3914 H   0  0  0  0  0  0  0  0  0  0  0  0
   -1.3894   67.0050   69.4446 H   0  0  0  0  0  0  0  0  0  0  0  0
   -1.6082   67.8253   67.2820 H   0  0  0  0  0  0  0  0  0  0  0  0
    0.0398   68.3581   67.8079 H   0  0  0  0  0  0  0  0  0  0  0  0
    2.1221   67.3820   67.1587 H   0  0  0  0  0  0  0  0  0  0  0  0
    3.8413   67.6792   65.2812 H   0  0  0  0  0  0  0  0  0  0  0  0
    2.7012   68.9764   64.7037 H   0  0  0  0  0  0  0  0  0  0  0  0
    3.1707   70.3783   66.4748 H   0  0  0  0  0  0  0  0  0  0  0  0
    3.8337   68.9930   67.4830 H   0  0  0  0  0  0  0  0  0  0  0  0
    5.6595   68.9571   65.5859 H   0  0  0  0  0  0  0  0  0  0  0  0
    5.1500   70.7058   65.4417 H   0  0  0  0  0  0  0  0  0  0  0  0
    5.5552   69.9703   68.2144 H   0  0  0  0  0  0  0  0  0  0  0  0
    7.0217   69.6200   67.2379 H   0  0  0  0  0  0  0  0  0  0  0  0
    6.3161   71.2719   67.2379 H   0  0  0  0  0  0  0  0  0  0  0  0
  2  1  1  0
  3  2  1  0
  4  3  1  0
  6  4  1  0
  6  5  1  0
  7  6  2  0
  8  5  1  0
  9  8  1  0
 11  9  1  0
 11 10  1  0
 12  1  1  0
 13 12  1  0
 14 13  1  0
 15 14  1  0
 16 15  2  0
 17 15  1  0
 18 17  1  0
 19 18  1  0
 20 19  1  0
 21 20  1  0
  1 22  1  0
  1 23  1  0
  2 24  1  0
  2 25  1  0
  3 26  1  0
  3 27  1  0
  5 28  1  0
  8 29  1  0
  8 30  1  0
  9 31  1  0
  9 32  1  0
 10 33  1  0
 10 34  1  0
 10 35  1  0
 11 36  1  0
 11 37  1  0
 12 38  1  0
 12 39  1  0
 13 40  1  0
 13 41  1  0
 17 42  1  0
 18 43  1  0
 18 44  1  0
 19 45  1  0
 19 46  1  0
 20 47  1  0
 20 48  1  0
 21 49  1  0
 21 50  1  0
 21 51  1  0
M  END
>  <score>  (6) 
-6.467

$$$$
=
     RDKit          3D

 51 50  0  0  0  0  0  0  0  0999 V2000
   -0.5840   67.1900   68.0720 C   0  0  0  0  0  0  0  0  0  0  0  0
    0.6460   66.9010   68.9430 C   0  0  0  0  0  0  0  0  0  0  0  0
    0.3420   66.1170   70.2170 C   0  0  0  0  0  0  0  0  0  0  0  0
   -0.0010   64.7680   69.8810 O   0  0  0  0  0  0  0  0  0  0  0  0
    1.6290   63.2830   70.0340 N   0  0  0  0  0  0  0  0  0  0  0  0
    0.5680   63.8340   70.6830 C   0  0  0  0  0  0  0  0  0  0  0  0
    0.1840   63.5350   71.8020 O   0  0  0  0  0  0  0  0  0  0  0  0
    2.4030   62.1920   70.5820 C   0  0  0  0  0  0  0  0  0  0  0  0
    3.0540   61.3600   69.4780 C   0  0  0  0  0  0  0  0  0  0  0  0
    5.0670   61.6050   71.0270 C   0  0  0  0  0  0  0  0  0  0  0  0
    4.4620   60.8800   69.8340 C   0  0  0  0  0  0  0  0  0  0  0  0
   -0.3150   67.7720   66.6800 C   0  0  0  0  0  0  0  0  0  0  0  0
    1.1160   67.5820   66.1780 C   0  0  0  0  0  0  0  0  0  0  0  0
    1.7550   68.8440   65.9370 O   0  0  0  0  0  0  0  0  0  0  0  0
    3.0930   68.7950   65.7280 C   0  0  0  0  0  0  0  0  0  0  0  0
    3.6650   68.0510   64.9480 O   0  0  0  0  0  0  0  0  0  0  0  0
    3.6960   69.7010   66.5450 N   0  0  0  0  0  0  0  0  0  0  0  0
    5.1300   69.8170   66.6630 C   0  0  0  0  0  0  0  0  0  0  0  0
    5.5620   70.5130   67.9540 C   0  0  0  0  0  0  0  0  0  0  0  0
    7.0770   70.6130   68.1560 C   0  0  0  0  0  0  0  0  0  0  0  0
    7.4790   70.9600   69.5810 C   0  0  0  0  0  0  0  0  0  0  0  0
   -1.1290   66.2438   67.9390 H   0  0  0  0  0  0  0  0  0  0  0  0
   -1.1448   67.9688   68.6096 H   0  0  0  0  0  0  0  0  0  0  0  0
    1.3637   66.3210   68.3443 H   0  0  0  0  0  0  0  0  0  0  0  0
    1.0442   67.8761   69.2601 H   0  0  0  0  0  0  0  0  0  0  0  0
    1.2289   66.1179   70.8677 H   0  0  0  0  0  0  0  0  0  0  0  0
   -0.5015   66.5880   70.7431 H   0  0  0  0  0  0  0  0  0  0  0  0
    1.8923   63.6595   69.1121 H   0  0  0  0  0  0  0  0  0  0  0  0
    3.1899   62.6026   71.2318 H   0  0  0  0  0  0  0  0  0  0  0  0
    1.7257   61.5399   71.1530 H   0  0  0  0  0  0  0  0  0  0  0  0
    2.4230   60.4797   69.2858 H   0  0  0  0  0  0  0  0  0  0  0  0
    3.1438   62.0062   68.5924 H   0  0  0  0  0  0  0  0  0  0  0  0
    4.6918   61.1554   71.9581 H   0  0  0  0  0  0  0  0  0  0  0  0
    6.1629   61.5165   70.9927 H   0  0  0  0  0  0  0  0  0  0  0  0
    4.7837   62.6673   70.9927 H   0  0  0  0  0  0  0  0  0  0  0  0
    4.4152   59.8059   70.0665 H   0  0  0  0  0  0  0  0  0  0  0  0
    5.1048   61.0917   68.9668 H   0  0  0  0  0  0  0  0  0  0  0  0
   -0.9965   67.2853   65.9668 H   0  0  0  0  0  0  0  0  0  0  0  0
   -0.4769   68.8572   66.7586 H   0  0  0  0  0  0  0  0  0  0  0  0
    1.6908   67.0279   66.9347 H   0  0  0  0  0  0  0  0  0  0  0  0
    1.0808   67.0237   65.2308 H   0  0  0  0  0  0  0  0  0  0  0  0
    3.1033   70.3315   67.1036 H   0  0  0  0  0  0  0  0  0  0  0  0
    5.5673   68.8079   66.6441 H   0  0  0  0  0  0  0  0  0  0  0  0
    5.4839   70.4299   65.8209 H   0  0  0  0  0  0  0  0  0  0  0  0
    5.1500   71.5329   67.9469 H   0  0  0  0  0  0  0  0  0  0  0  0
    5.1803   69.8954   68.7804 H   0  0  0  0  0  0  0  0  0  0  0  0
    7.5276   69.6445   67.8935 H   0  0  0  0  0  0  0  0  0  0  0  0
    7.4354   71.4292   67.5116 H   0  0  0  0  0  0  0  0  0  0  0  0
    6.8403   70.4087   70.2867 H   0  0  0  0  0  0  0  0  0  0  0  0
    8.5306   70.6813   69.7435 H   0  0  0  0  0  0  0  0  0  0  0  0
    7.3569   72.0411   69.7435 H   0  0  0  0  0  0  0  0  0  0  0  0
  2  1  1  0
  3  2  1  0
  4  3  1  0
  6  4  1  0
  6  5  1  0
  7  6  2  0
  8  5  1  0
  9  8  1  0
 11  9  1  0
 11 10  1  0
 12  1  1  0
 13 12  1  0
 14 13  1  0
 15 14  1  0
 16 15  2  0
 17 15  1  0
 18 17  1  0
 19 18  1  0
 20 19  1  0
 21 20  1  0
  1 22  1  0
  1 23  1  0
  2 24  1  0
  2 25  1  0
  3 26  1  0
  3 27  1  0
  5 28  1  0
  8 29  1  0
  8 30  1  0
  9 31  1  0
  9 32  1  0
 10 33  1  0
 10 34  1  0
 10 35  1  0
 11 36  1  0
 11 37  1  0
 12 38  1  0
 12 39  1  0
 13 40  1  0
 13 41  1  0
 17 42  1  0
 18 43  1  0
 18 44  1  0
 19 45  1  0
 19 46  1  0
 20 47  1  0
 20 48  1  0
 21 49  1  0
 21 50  1  0
 21 51  1  0
M  END
>  <score>  (7) 
-6.32

$$$$
=
     RDKit          3D

 51 50  0  0  0  0  0  0  0  0999 V2000
    0.9250   66.4810   69.8990 C   0  0  0  0  0  0  0  0  0  0  0  0
    1.4470   65.1000   70.3120 C   0  0  0  0  0  0  0  0  0  0  0  0
    0.3510   64.0830   70.6260 C   0  0  0  0  0  0  0  0  0  0  0  0
    0.4170   63.7170   72.0090 O   0  0  0  0  0  0  0  0  0  0  0  0
    1.5450   61.9170   71.3970 N   0  0  0  0  0  0  0  0  0  0  0  0
    1.4640   62.9130   72.3210 C   0  0  0  0  0  0  0  0  0  0  0  0
    2.2060   63.0580   73.2780 O   0  0  0  0  0  0  0  0  0  0  0  0
    2.5030   60.8390   71.4890 C   0  0  0  0  0  0  0  0  0  0  0  0
    3.3040   60.6930   70.1970 C   0  0  0  0  0  0  0  0  0  0  0  0
    3.8340   62.7800   68.8290 C   0  0  0  0  0  0  0  0  0  0  0  0
    2.8510   61.6500   69.0930 C   0  0  0  0  0  0  0  0  0  0  0  0
   -0.3720   66.5070   69.0830 C   0  0  0  0  0  0  0  0  0  0  0  0
   -0.3360   67.4260   67.8620 C   0  0  0  0  0  0  0  0  0  0  0  0
    0.0260   66.7030   66.6770 O   0  0  0  0  0  0  0  0  0  0  0  0
    0.7430   67.3990   65.7600 C   0  0  0  0  0  0  0  0  0  0  0  0
    0.2790   68.1280   64.8990 O   0  0  0  0  0  0  0  0  0  0  0  0
    2.0640   67.1350   65.9480 N   0  0  0  0  0  0  0  0  0  0  0  0
    3.0940   67.6200   65.0600 C   0  0  0  0  0  0  0  0  0  0  0  0
    3.3520   69.1190   65.2180 C   0  0  0  0  0  0  0  0  0  0  0  0
    4.0700   69.5160   66.5120 C   0  0  0  0  0  0  0  0  0  0  0  0
    5.5280   69.8960   66.3070 C   0  0  0  0  0  0  0  0  0  0  0  0
    0.7535   67.0616   70.8174 H   0  0  0  0  0  0  0  0  0  0  0  0
    1.6958   66.8958   69.2328 H   0  0  0  0  0  0  0  0  0  0  0  0
    2.0602   64.7031   69.4895 H   0  0  0  0  0  0  0  0  0  0  0  0
    2.0194   65.2437   71.2403 H   0  0  0  0  0  0  0  0  0  0  0  0
   -0.6324   64.5266   70.4113 H   0  0  0  0  0  0  0  0  0  0  0  0
    0.4948   63.1873   70.0039 H   0  0  0  0  0  0  0  0  0  0  0  0
    0.8955   61.9322   70.5977 H   0  0  0  0  0  0  0  0  0  0  0  0
    3.1958   61.0457   72.3181 H   0  0  0  0  0  0  0  0  0  0  0  0
    1.9538   59.9020   71.6634 H   0  0  0  0  0  0  0  0  0  0  0  0
    4.3630   60.8916   70.4184 H   0  0  0  0  0  0  0  0  0  0  0  0
    3.1427   59.6695   69.8275 H   0  0  0  0  0  0  0  0  0  0  0  0
    4.1892   63.1883   69.7867 H   0  0  0  0  0  0  0  0  0  0  0  0
    4.6896   62.3951   68.2547 H   0  0  0  0  0  0  0  0  0  0  0  0
    3.3343   63.5740   68.2547 H   0  0  0  0  0  0  0  0  0  0  0  0
    2.7240   61.0748   68.1640 H   0  0  0  0  0  0  0  0  0  0  0  0
    1.9108   62.1110   69.4299 H   0  0  0  0  0  0  0  0  0  0  0  0
   -0.5803   65.4839   68.7366 H   0  0  0  0  0  0  0  0  0  0  0  0
   -1.1522   66.9035   69.7493 H   0  0  0  0  0  0  0  0  0  0  0  0
   -1.3313   67.8722   67.7197 H   0  0  0  0  0  0  0  0  0  0  0  0
    0.4187   68.2069   68.0369 H   0  0  0  0  0  0  0  0  0  0  0  0
    2.3417   66.5642   66.7592 H   0  0  0  0  0  0  0  0  0  0  0  0
    4.0269   67.0779   65.2739 H   0  0  0  0  0  0  0  0  0  0  0  0
    2.7512   67.4488   64.0289 H   0  0  0  0  0  0  0  0  0  0  0  0
    3.9680   69.4512   64.3694 H   0  0  0  0  0  0  0  0  0  0  0  0
    2.3637   69.6007   65.2527 H   0  0  0  0  0  0  0  0  0  0  0  0
    3.5447   70.3769   66.9512 H   0  0  0  0  0  0  0  0  0  0  0  0
    4.0556   68.6361   67.1720 H   0  0  0  0  0  0  0  0  0  0  0  0
    6.0149   70.0229   67.2852 H   0  0  0  0  0  0  0  0  0  0  0  0
    6.0384   69.1009   65.7438 H   0  0  0  0  0  0  0  0  0  0  0  0
    5.5854   70.8391   65.7438 H   0  0  0  0  0  0  0  0  0  0  0  0
  2  1  1  0
  3  2  1  0
  4  3  1  0
  6  4  1  0
  6  5  1  0
  7  6  2  0
  8  5  1  0
  9  8  1  0
 11  9  1  0
 11 10  1  0
 12  1  1  0
 13 12  1  0
 14 13  1  0
 15 14  1  0
 16 15  2  0
 17 15  1  0
 18 17  1  0
 19 18  1  0
 20 19  1  0
 21 20  1  0
  1 22  1  0
  1 23  1  0
  2 24  1  0
  2 25  1  0
  3 26  1  0
  3 27  1  0
  5 28  1  0
  8 29  1  0
  8 30  1  0
  9 31  1  0
  9 32  1  0
 10 33  1  0
 10 34  1  0
 10 35  1  0
 11 36  1  0
 11 37  1  0
 12 38  1  0
 12 39  1  0
 13 40  1  0
 13 41  1  0
 17 42  1  0
 18 43  1  0
 18 44  1  0
 19 45  1  0
 19 46  1  0
 20 47  1  0
 20 48  1  0
 21 49  1  0
 21 50  1  0
 21 51  1  0
M  END
>  <score>  (8) 
-6.317

$$$$
=
     RDKit          3D

 51 50  0  0  0  0  0  0  0  0999 V2000
   -0.9880   67.1340   68.2510 C   0  0  0  0  0  0  0  0  0  0  0  0
    0.3320   66.7560   68.9350 C   0  0  0  0  0  0  0  0  0  0  0  0
    0.1630   66.0120   70.2580 C   0  0  0  0  0  0  0  0  0  0  0  0
    0.2620   64.6010   70.0310 O   0  0  0  0  0  0  0  0  0  0  0  0
    2.1330   63.4370   69.8630 N   0  0  0  0  0  0  0  0  0  0  0  0
    1.2490   63.9940   70.7350 C   0  0  0  0  0  0  0  0  0  0  0  0
    1.3250   63.9500   71.9520 O   0  0  0  0  0  0  0  0  0  0  0  0
    3.2600   62.6400   70.2920 C   0  0  0  0  0  0  0  0  0  0  0  0
    3.7010   61.6650   69.2010 C   0  0  0  0  0  0  0  0  0  0  0  0
    3.7130   59.8520   70.9950 C   0  0  0  0  0  0  0  0  0  0  0  0
    3.4150   60.2030   69.5460 C   0  0  0  0  0  0  0  0  0  0  0  0
   -0.8940   67.6070   66.7970 C   0  0  0  0  0  0  0  0  0  0  0  0
    0.5320   67.7960   66.2810 C   0  0  0  0  0  0  0  0  0  0  0  0
    0.8070   66.9210   65.1780 O   0  0  0  0  0  0  0  0  0  0  0  0
    2.1130   66.6150   64.9830 C   0  0  0  0  0  0  0  0  0  0  0  0
    2.6610   65.5810   65.3270 O   0  0  0  0  0  0  0  0  0  0  0  0
    2.7170   67.6600   64.3540 N   0  0  0  0  0  0  0  0  0  0  0  0
    4.1380   67.7110   64.1070 C   0  0  0  0  0  0  0  0  0  0  0  0
    4.7900   68.9750   64.6680 C   0  0  0  0  0  0  0  0  0  0  0  0
    4.3010   69.3890   66.0590 C   0  0  0  0  0  0  0  0  0  0  0  0
    5.3980   69.9590   66.9450 C   0  0  0  0  0  0  0  0  0  0  0  0
   -1.6410   66.2491   68.2729 H   0  0  0  0  0  0  0  0  0  0  0  0
   -1.3702   67.9983   68.8139 H   0  0  0  0  0  0  0  0  0  0  0  0
    0.9040   66.1138   68.2491 H   0  0  0  0  0  0  0  0  0  0  0  0
    0.8481   67.6992   69.1674 H   0  0  0  0  0  0  0  0  0  0  0  0
    0.9509   66.3265   70.9583 H   0  0  0  0  0  0  0  0  0  0  0  0
   -0.8234   66.2453   70.6853 H   0  0  0  0  0  0  0  0  0  0  0  0
    1.9930   63.5899   68.8541 H   0  0  0  0  0  0  0  0  0  0  0  0
    4.0991   63.3084   70.5352 H   0  0  0  0  0  0  0  0  0  0  0  0
    2.9563   62.0578   71.1745 H   0  0  0  0  0  0  0  0  0  0  0  0
    3.1676   61.9155   68.2722 H   0  0  0  0  0  0  0  0  0  0  0  0
    4.7909   61.7675   69.0930 H   0  0  0  0  0  0  0  0  0  0  0  0
    3.1452   60.5208   71.6585 H   0  0  0  0  0  0  0  0  0  0  0  0
    3.4200   58.8093   71.1874 H   0  0  0  0  0  0  0  0  0  0  0  0
    4.7894   59.9719   71.1874 H   0  0  0  0  0  0  0  0  0  0  0  0
    2.3516   60.0008   69.3504 H   0  0  0  0  0  0  0  0  0  0  0  0
    4.0787   59.5874   68.9210 H   0  0  0  0  0  0  0  0  0  0  0  0
   -1.3933   66.8615   66.1606 H   0  0  0  0  0  0  0  0  0  0  0  0
   -1.3732   68.5964   66.7592 H   0  0  0  0  0  0  0  0  0  0  0  0
    0.6590   68.8380   65.9522 H   0  0  0  0  0  0  0  0  0  0  0  0
    1.2309   67.5575   67.0963 H   0  0  0  0  0  0  0  0  0  0  0  0
    2.1342   68.4493   64.0404 H   0  0  0  0  0  0  0  0  0  0  0  0
    4.6084   66.8345   64.5765 H   0  0  0  0  0  0  0  0  0  0  0  0
    4.2855   67.7172   63.0169 H   0  0  0  0  0  0  0  0  0  0  0  0
    5.8752   68.8038   64.7241 H   0  0  0  0  0  0  0  0  0  0  0  0
    4.5133   69.7934   63.9871 H   0  0  0  0  0  0  0  0  0  0  0  0
    3.5184   70.1527   65.9395 H   0  0  0  0  0  0  0  0  0  0  0  0
    3.9266   68.4803   66.5531 H   0  0  0  0  0  0  0  0  0  0  0  0
    5.1264   69.8179   68.0015 H   0  0  0  0  0  0  0  0  0  0  0  0
    6.3446   69.4387   66.7371 H   0  0  0  0  0  0  0  0  0  0  0  0
    5.5164   71.0327   66.7371 H   0  0  0  0  0  0  0  0  0  0  0  0
  2  1  1  0
  3  2  1  0
  4  3  1  0
  6  4  1  0
  6  5  1  0
  7  6  2  0
  8  5  1  0
  9  8  1  0
 11  9  1  0
 11 10  1  0
 12  1  1  0
 13 12  1  0
 14 13  1  0
 15 14  1  0
 16 15  2  0
 17 15  1  0
 18 17  1  0
 19 18  1  0
 20 19  1  0
 21 20  1  0
  1 22  1  0
  1 23  1  0
  2 24  1  0
  2 25  1  0
  3 26  1  0
  3 27  1  0
  5 28  1  0
  8 29  1  0
  8 30  1  0
  9 31  1  0
  9 32  1  0
 10 33  1  0
 10 34  1  0
 10 35  1  0
 11 36  1  0
 11 37  1  0
 12 38  1  0
 12 39  1  0
 13 40  1  0
 13 41  1  0
 17 42  1  0
 18 43  1  0
 18 44  1  0
 19 45  1  0
 19 46  1  0
 20 47  1  0
 20 48  1  0
 21 49  1  0
 21 50  1  0
 21 51  1  0
M  END
>  <score>  (9) 
-6.196

$$$$
