=
     RDKit          3D

 58 61  0  0  0  0  0  0  0  0999 V2000
   -0.0240   66.6720   68.7750 C   0  0  0  0  0  0  0  0  0  0  0  0
    4.1450   69.1110   65.3040 C   0  0  0  0  0  0  0  0  0  0  0  0
    2.9840   68.3340   65.2740 C   0  0  0  0  0  0  0  0  0  0  0  0
    2.2100   68.2970   66.4190 C   0  0  0  0  0  0  0  0  0  0  0  0
    2.5320   68.9860   67.5800 C   0  0  0  0  0  0  0  0  0  0  0  0
    3.6820   69.7590   67.6260 C   0  0  0  0  0  0  0  0  0  0  0  0
    4.4940   69.8300   66.4820 C   0  0  0  0  0  0  0  0  0  0  0  0
    1.5520   68.7360   68.6830 C   0  0  0  0  0  0  0  0  0  0  0  0
    0.4120   67.9340   68.0150 C   0  0  1  0  0  0  0  0  0  0  0  0
    0.9670   67.5770   66.6440 C   0  0  0  0  0  0  0  0  0  0  0  0
    0.4580   66.8240   65.8340 O   0  0  0  0  0  0  0  0  0  0  0  0
    4.5010   69.0120   62.9400 C   0  0  0  0  0  0  0  0  0  0  0  0
    5.0110   69.2440   64.2460 O   0  0  0  0  0  0  0  0  0  0  0  0
    5.6570   70.5590   66.4090 O   0  0  0  0  0  0  0  0  0  0  0  0
    6.5050   70.5780   67.5470 C   0  0  0  0  0  0  0  0  0  0  0  0
    0.9270   66.2600   69.9210 C   0  0  0  0  0  0  0  0  0  0  0  0
    1.9930   65.2490   69.4660 C   0  0  0  0  0  0  0  0  0  0  0  0
    2.5190   64.4340   70.6390 C   0  0  0  0  0  0  0  0  0  0  0  0
    1.4070   63.5820   71.2090 N   0  0  0  0  0  4  0  0  0  0  0  0
    0.0270   64.2090   71.1310 C   0  0  0  0  0  0  0  0  0  0  0  0
    0.1320   65.7250   71.1320 C   0  0  0  0  0  0  0  0  0  0  0  0
    1.7630   63.0670   72.5910 C   0  0  0  0  0  0  0  0  0  0  0  0
    2.4730   61.7410   72.5550 C   0  0  0  0  0  0  0  0  0  0  0  0
    1.7840   60.5760   72.1790 C   0  0  0  0  0  0  0  0  0  0  0  0
    2.4350   59.3420   72.1670 C   0  0  0  0  0  0  0  0  0  0  0  0
    3.7780   59.2590   72.5270 C   0  0  0  0  0  0  0  0  0  0  0  0
    4.4740   60.4070   72.8940 C   0  0  0  0  0  0  0  0  0  0  0  0
    3.8270   61.6440   72.9070 C   0  0  0  0  0  0  0  0  0  0  0  0
   -1.0206   66.8547   69.2032 H   0  0  0  0  0  0  0  0  0  0  0  0
   -0.0163   65.8473   68.0471 H   0  0  0  0  0  0  0  0  0  0  0  0
    2.6965   67.7726   64.3728 H   0  0  0  0  0  0  0  0  0  0  0  0
    3.9534   70.3062   68.5408 H   0  0  0  0  0  0  0  0  0  0  0  0
    2.0168   68.1516   69.4907 H   0  0  0  0  0  0  0  0  0  0  0  0
    1.1931   69.6688   69.1424 H   0  0  0  0  0  0  0  0  0  0  0  0
   -0.5073   68.5373   67.9860 H   0  0  0  0  0  0  0  0  0  0  0  0
    3.5019   68.5575   63.0119 H   0  0  0  0  0  0  0  0  0  0  0  0
    4.4313   69.9670   62.3986 H   0  0  0  0  0  0  0  0  0  0  0  0
    5.1751   68.3319   62.3986 H   0  0  0  0  0  0  0  0  0  0  0  0
    5.8928   70.5643   68.4608 H   0  0  0  0  0  0  0  0  0  0  0  0
    7.1598   69.6943   67.5311 H   0  0  0  0  0  0  0  0  0  0  0  0
    7.1196   71.4901   67.5311 H   0  0  0  0  0  0  0  0  0  0  0  0
    1.4651   67.1673   70.2328 H   0  0  0  0  0  0  0  0  0  0  0  0
    1.5475   64.5669   68.7269 H   0  0  0  0  0  0  0  0  0  0  0  0
    2.8334   65.8054   69.0253 H   0  0  0  0  0  0  0  0  0  0  0  0
    3.3373   63.7844   70.2948 H   0  0  0  0  0  0  0  0  0  0  0  0
    2.8905   65.1159   71.4181 H   0  0  0  0  0  0  0  0  0  0  0  0
    1.3290   62.7634   70.5888 H   0  0  0  0  0  0  0  0  0  0  0  0
   -0.4682   63.8808   70.2052 H   0  0  0  0  0  0  0  0  0  0  0  0
   -0.5586   63.8917   72.0065 H   0  0  0  0  0  0  0  0  0  0  0  0
   -0.8824   66.1495   71.1043 H   0  0  0  0  0  0  0  0  0  0  0  0
    0.6687   66.0238   72.0445 H   0  0  0  0  0  0  0  0  0  0  0  0
    2.4171   63.8025   73.0822 H   0  0  0  0  0  0  0  0  0  0  0  0
    0.8224   62.9237   73.1431 H   0  0  0  0  0  0  0  0  0  0  0  0
    0.7238   60.6370   71.8920 H   0  0  0  0  0  0  0  0  0  0  0  0
    1.8874   58.4343   71.8731 H   0  0  0  0  0  0  0  0  0  0  0  0
    4.2891   58.2850   72.5212 H   0  0  0  0  0  0  0  0  0  0  0  0
    5.5356   60.3396   73.1743 H   0  0  0  0  0  0  0  0  0  0  0  0
    4.3828   62.5484   73.1952 H   0  0  0  0  0  0  0  0  0  0  0  0
  3  2  2  0
  4  3  1  0
  5  4  2  0
  6  5  1  0
  7  2  1  0
  7  6  2  0
  8  5  1  0
  9  8  1  0
  9  1  1  0
 10  9  1  0
 10  4  1  0
 11 10  2  0
 13 12  1  0
 13  2  1  0
 14  7  1  0
 15 14  1  0
 16  1  1  0
 17 16  1  0
 18 17  1  0
 19 18  1  0
 20 19  1  0
 21 20  1  0
 21 16  1  0
 22 19  1  0
 23 22  1  0
 24 23  2  0
 25 24  1  0
 26 25  2  0
 27 26  1  0
 28 27  2  0
 28 23  1  0
  1 29  1  0
  1 30  1  0
  3 31  1  0
  6 32  1  0
  8 33  1  0
  8 34  1  0
  9 35  1  6
 12 36  1  0
 12 37  1  0
 12 38  1  0
 15 39  1  0
 15 40  1  0
 15 41  1  0
 16 42  1  0
 17 43  1  0
 17 44  1  0
 18 45  1  0
 18 46  1  0
 19 47  1  0
 20 48  1  0
 20 49  1  0
 21 50  1  0
 21 51  1  0
 22 52  1  0
 22 53  1  0
 24 54  1  0
 25 55  1  0
 26 56  1  0
 27 57  1  0
 28 58  1  0
M  CHG  1  19   1
M  END
>  <score>  (1) 
-9.829

$$$$
=
     RDKit          3D

 58 61  0  0  0  0  0  0  0  0999 V2000
   -0.1590   64.5920   69.8080 C   0  0  0  0  0  0  0  0  0  0  0  0
    2.7320   59.8420   71.9190 C   0  0  0  0  0  0  0  0  0  0  0  0
    2.8470   60.9130   71.0280 C   0  0  0  0  0  0  0  0  0  0  0  0
    1.9320   61.9430   71.1450 C   0  0  0  0  0  0  0  0  0  0  0  0
    0.9180   61.9580   72.0910 C   0  0  0  0  0  0  0  0  0  0  0  0
    0.7890   60.9020   72.9800 C   0  0  0  0  0  0  0  0  0  0  0  0
    1.7020   59.8380   72.9010 C   0  0  0  0  0  0  0  0  0  0  0  0
    0.0400   63.1640   71.9690 C   0  0  0  0  0  0  0  0  0  0  0  0
    0.7490   64.0560   70.9250 C   0  0  1  0  0  0  0  0  0  0  0  0
    1.8380   63.1600   70.3540 C   0  0  0  0  0  0  0  0  0  0  0  0
    2.5480   63.4080   69.3960 O   0  0  0  0  0  0  0  0  0  0  0  0
    3.4550   57.8290   70.8470 C   0  0  0  0  0  0  0  0  0  0  0  0
    3.5650   58.7510   71.9230 O   0  0  0  0  0  0  0  0  0  0  0  0
    1.6730   58.7370   73.7240 O   0  0  0  0  0  0  0  0  0  0  0  0
    0.6670   57.7620   73.4970 C   0  0  0  0  0  0  0  0  0  0  0  0
   -0.2140   66.1340   69.7190 C   0  0  0  0  0  0  0  0  0  0  0  0
   -0.8920   66.6250   68.4290 C   0  0  0  0  0  0  0  0  0  0  0  0
   -0.4430   68.0340   68.0700 C   0  0  0  0  0  0  0  0  0  0  0  0
    1.0340   68.0340   67.7460 N   0  0  0  0  0  4  0  0  0  0  0  0
    1.8540   67.0330   68.5370 C   0  0  0  0  0  0  0  0  0  0  0  0
    1.1950   66.7460   69.8770 C   0  0  0  0  0  0  0  0  0  0  0  0
    1.6020   69.4410   67.7730 C   0  0  0  0  0  0  0  0  0  0  0  0
    2.9610   69.5340   67.1330 C   0  0  0  0  0  0  0  0  0  0  0  0
    4.0540   70.0420   67.8540 C   0  0  0  0  0  0  0  0  0  0  0  0
    5.3090   70.1490   67.2540 C   0  0  0  0  0  0  0  0  0  0  0  0
    5.4860   69.7500   65.9320 C   0  0  0  0  0  0  0  0  0  0  0  0
    4.4130   69.2380   65.2080 C   0  0  0  0  0  0  0  0  0  0  0  0
    3.1560   69.1280   65.8040 C   0  0  0  0  0  0  0  0  0  0  0  0
    0.2109   64.2043   68.8473 H   0  0  0  0  0  0  0  0  0  0  0  0
   -1.1792   64.2530   70.0410 H   0  0  0  0  0  0  0  0  0  0  0  0
    3.6362   60.9355   70.2621 H   0  0  0  0  0  0  0  0  0  0  0  0
   -0.0131   60.8977   73.7327 H   0  0  0  0  0  0  0  0  0  0  0  0
   -0.9639   62.8802   71.6201 H   0  0  0  0  0  0  0  0  0  0  0  0
   -0.1003   63.6779   72.9314 H   0  0  0  0  0  0  0  0  0  0  0  0
    1.1238   64.9726   71.4039 H   0  0  0  0  0  0  0  0  0  0  0  0
    3.3336   56.8115   71.2470 H   0  0  0  0  0  0  0  0  0  0  0  0
    2.5813   58.0873   70.2306 H   0  0  0  0  0  0  0  0  0  0  0  0
    4.3649   57.8745   70.2306 H   0  0  0  0  0  0  0  0  0  0  0  0
    0.2880   57.3947   74.4621 H   0  0  0  0  0  0  0  0  0  0  0  0
   -0.1584   58.2128   72.9265 H   0  0  0  0  0  0  0  0  0  0  0  0
    1.0917   56.9229   72.9265 H   0  0  0  0  0  0  0  0  0  0  0  0
   -0.8385   66.4815   70.5552 H   0  0  0  0  0  0  0  0  0  0  0  0
   -0.6301   65.9447   67.6053 H   0  0  0  0  0  0  0  0  0  0  0  0
   -1.9798   66.6382   68.5919 H   0  0  0  0  0  0  0  0  0  0  0  0
   -1.0089   68.3857   67.1947 H   0  0  0  0  0  0  0  0  0  0  0  0
   -0.6275   68.7026   68.9238 H   0  0  0  0  0  0  0  0  0  0  0  0
    1.1134   67.6909   66.7781 H   0  0  0  0  0  0  0  0  0  0  0  0
    1.9332   66.0970   67.9646 H   0  0  0  0  0  0  0  0  0  0  0  0
    2.8545   67.4541   68.7152 H   0  0  0  0  0  0  0  0  0  0  0  0
    1.8261   66.0406   70.4375 H   0  0  0  0  0  0  0  0  0  0  0  0
    1.0884   67.7019   70.4108 H   0  0  0  0  0  0  0  0  0  0  0  0
    0.9134   70.1084   67.2341 H   0  0  0  0  0  0  0  0  0  0  0  0
    1.7120   69.7334   68.8277 H   0  0  0  0  0  0  0  0  0  0  0  0
    3.9196   70.3577   68.8991 H   0  0  0  0  0  0  0  0  0  0  0  0
    6.1593   70.5489   67.8259 H   0  0  0  0  0  0  0  0  0  0  0  0
    6.4751   69.8395   65.4590 H   0  0  0  0  0  0  0  0  0  0  0  0
    4.5561   68.9197   64.1648 H   0  0  0  0  0  0  0  0  0  0  0  0
    2.3122   68.7202   65.2280 H   0  0  0  0  0  0  0  0  0  0  0  0
  3  2  2  0
  4  3  1  0
  5  4  2  0
  6  5  1  0
  7  2  1  0
  7  6  2  0
  8  5  1  0
  9  8  1  0
  9  1  1  0
 10  9  1  0
 10  4  1  0
 11 10  2  0
 13 12  1  0
 13  2  1  0
 14  7  1  0
 15 14  1  0
 16  1  1  0
 17 16  1  0
 18 17  1  0
 19 18  1  0
 20 19  1  0
 21 20  1  0
 21 16  1  0
 22 19  1  0
 23 22  1  0
 24 23  2  0
 25 24  1  0
 26 25  2  0
 27 26  1  0
 28 27  2  0
 28 23  1  0
  1 29  1  0
  1 30  1  0
  3 31  1  0
  6 32  1  0
  8 33  1  0
  8 34  1  0
  9 35  1  1
 12 36  1  0
 12 37  1  0
 12 38  1  0
 15 39  1  0
 15 40  1  0
 15 41  1  0
 16 42  1  0
 17 43  1  0
 17 44  1  0
 18 45  1  0
 18 46  1  0
 19 47  1  0
 20 48  1  0
 20 49  1  0
 21 50  1  0
 21 51  1  0
 22 52  1  0
 22 53  1  0
 24 54  1  0
 25 55  1  0
 26 56  1  0
 27 57  1  0
 28 58  1  0
M  CHG  1  19   1
M  END
>  <score>  (2) 
-9.792

$$$$
=
     RDKit          3D

 58 61  0  0  0  0  0  0  0  0999 V2000
   -0.2950   66.4230   69.1490 C   0  0  0  0  0  0  0  0  0  0  0  0
    2.1330   68.6750   64.2090 C   0  0  0  0  0  0  0  0  0  0  0  0
    0.9410   68.1720   64.7360 C   0  0  0  0  0  0  0  0  0  0  0  0
    0.8540   68.0420   66.1090 C   0  0  0  0  0  0  0  0  0  0  0  0
    1.8850   68.3810   66.9740 C   0  0  0  0  0  0  0  0  0  0  0  0
    3.0750   68.8790   66.4660 C   0  0  0  0  0  0  0  0  0  0  0  0
    3.2030   69.0340   65.0760 C   0  0  0  0  0  0  0  0  0  0  0  0
    1.5470   68.0980   68.4040 C   0  0  0  0  0  0  0  0  0  0  0  0
    0.0520   67.7070   68.3800 C   0  0  1  0  0  0  0  0  0  0  0  0
   -0.2650   67.5550   66.9000 C   0  0  0  0  0  0  0  0  0  0  0  0
   -1.2960   67.1150   66.4240 O   0  0  0  0  0  0  0  0  0  0  0  0
    1.2400   69.0320   62.0170 C   0  0  0  0  0  0  0  0  0  0  0  0
    2.3660   68.8590   62.8670 O   0  0  0  0  0  0  0  0  0  0  0  0
    4.3330   69.5130   64.4570 O   0  0  0  0  0  0  0  0  0  0  0  0
    5.4890   68.6890   64.4490 C   0  0  0  0  0  0  0  0  0  0  0  0
    0.7830   65.9790   70.1630 C   0  0  0  0  0  0  0  0  0  0  0  0
    1.9030   65.1540   69.5080 C   0  0  0  0  0  0  0  0  0  0  0  0
    2.6010   64.2630   70.5250 C   0  0  0  0  0  0  0  0  0  0  0  0
    1.6300   63.2310   71.0530 N   0  0  0  0  0  4  0  0  0  0  0  0
    0.1930   63.7080   71.1520 C   0  0  0  0  0  0  0  0  0  0  0  0
    0.1460   65.2150   71.3450 C   0  0  0  0  0  0  0  0  0  0  0  0
    2.1470   62.5920   72.3280 C   0  0  0  0  0  0  0  0  0  0  0  0
    2.3620   61.1080   72.1920 C   0  0  0  0  0  0  0  0  0  0  0  0
    1.4540   60.2030   72.7660 C   0  0  0  0  0  0  0  0  0  0  0  0
    1.6650   58.8280   72.6600 C   0  0  0  0  0  0  0  0  0  0  0  0
    2.7780   58.3430   71.9790 C   0  0  0  0  0  0  0  0  0  0  0  0
    3.6810   59.2300   71.3980 C   0  0  0  0  0  0  0  0  0  0  0  0
    3.4750   60.6070   71.5020 C   0  0  0  0  0  0  0  0  0  0  0  0
   -1.2341   66.5922   69.6963 H   0  0  0  0  0  0  0  0  0  0  0  0
   -0.3749   65.6198   68.4017 H   0  0  0  0  0  0  0  0  0  0  0  0
    0.1026   67.8898   64.0822 H   0  0  0  0  0  0  0  0  0  0  0  0
    3.9029   69.1475   67.1386 H   0  0  0  0  0  0  0  0  0  0  0  0
    2.1590   67.2701   68.7914 H   0  0  0  0  0  0  0  0  0  0  0  0
    1.7426   68.9606   69.0579 H   0  0  0  0  0  0  0  0  0  0  0  0
   -0.5468   68.4738   68.8932 H   0  0  0  0  0  0  0  0  0  0  0  0
    0.3365   69.1708   62.6289 H   0  0  0  0  0  0  0  0  0  0  0  0
    1.3924   69.9173   61.3821 H   0  0  0  0  0  0  0  0  0  0  0  0
    1.1196   68.1418   61.3821 H   0  0  0  0  0  0  0  0  0  0  0  0
    5.7923   68.4728   65.4840 H   0  0  0  0  0  0  0  0  0  0  0  0
    5.2639   67.7465   63.9284 H   0  0  0  0  0  0  0  0  0  0  0  0
    6.3065   69.2092   63.9284 H   0  0  0  0  0  0  0  0  0  0  0  0
    1.2525   66.8941   70.5532 H   0  0  0  0  0  0  0  0  0  0  0  0
    1.4686   64.5238   68.7180 H   0  0  0  0  0  0  0  0  0  0  0  0
    2.6453   65.8486   69.0879 H   0  0  0  0  0  0  0  0  0  0  0  0
    3.4490   63.7540   70.0435 H   0  0  0  0  0  0  0  0  0  0  0  0
    2.9648   64.8802   71.3597 H   0  0  0  0  0  0  0  0  0  0  0  0
    1.5839   62.4913   70.3377 H   0  0  0  0  0  0  0  0  0  0  0  0
   -0.3407   63.4444   70.2270 H   0  0  0  0  0  0  0  0  0  0  0  0
   -0.2848   63.2230   72.0160 H   0  0  0  0  0  0  0  0  0  0  0  0
   -0.9045   65.5263   71.4421 H   0  0  0  0  0  0  0  0  0  0  0  0
    0.7224   65.4559   72.2504 H   0  0  0  0  0  0  0  0  0  0  0  0
    3.1050   63.0629   72.5936 H   0  0  0  0  0  0  0  0  0  0  0  0
    1.3862   62.7461   73.1074 H   0  0  0  0  0  0  0  0  0  0  0  0
    0.5711   60.5807   73.3024 H   0  0  0  0  0  0  0  0  0  0  0  0
    0.9508   58.1261   73.1152 H   0  0  0  0  0  0  0  0  0  0  0  0
    2.9444   57.2586   71.8997 H   0  0  0  0  0  0  0  0  0  0  0  0
    4.5577   58.8452   70.8564 H   0  0  0  0  0  0  0  0  0  0  0  0
    4.1903   61.3031   71.0397 H   0  0  0  0  0  0  0  0  0  0  0  0
  3  2  2  0
  4  3  1  0
  5  4  2  0
  6  5  1  0
  7  2  1  0
  7  6  2  0
  8  5  1  0
  9  8  1  0
  9  1  1  0
 10  9  1  0
 10  4  1  0
 11 10  2  0
 13 12  1  0
 13  2  1  0
 14  7  1  0
 15 14  1  0
 16  1  1  0
 17 16  1  0
 18 17  1  0
 19 18  1  0
 20 19  1  0
 21 20  1  0
 21 16  1  0
 22 19  1  0
 23 22  1  0
 24 23  2  0
 25 24  1  0
 26 25  2  0
 27 26  1  0
 28 27  2  0
 28 23  1  0
  1 29  1  0
  1 30  1  0
  3 31  1  0
  6 32  1  0
  8 33  1  0
  8 34  1  0
  9 35  1  1
 12 36  1  0
 12 37  1  0
 12 38  1  0
 15 39  1  0
 15 40  1  0
 15 41  1  0
 16 42  1  0
 17 43  1  0
 17 44  1  0
 18 45  1  0
 18 46  1  0
 19 47  1  0
 20 48  1  0
 20 49  1  0
 21 50  1  0
 21 51  1  0
 22 52  1  0
 22 53  1  0
 24 54  1  0
 25 55  1  0
 26 56  1  0
 27 57  1  0
 28 58  1  0
M  CHG  1  19   1
M  END
>  <score>  (3) 
-9.145

$$$$
=
     RDKit          3D

 58 61  0  0  0  0  0  0  0  0999 V2000
    1.5480   65.7610   70.3080 C   0  0  0  0  0  0  0  0  0  0  0  0
    1.5740   60.5130   73.1060 C   0  0  0  0  0  0  0  0  0  0  0  0
    0.9320   61.7530   73.0680 C   0  0  0  0  0  0  0  0  0  0  0  0
    1.1540   62.5540   71.9630 C   0  0  0  0  0  0  0  0  0  0  0  0
    1.9770   62.1880   70.9090 C   0  0  0  0  0  0  0  0  0  0  0  0
    2.6240   60.9620   70.9330 C   0  0  0  0  0  0  0  0  0  0  0  0
    2.4200   60.1130   72.0340 C   0  0  0  0  0  0  0  0  0  0  0  0
    2.0790   63.2570   69.8660 C   0  0  0  0  0  0  0  0  0  0  0  0
    1.0350   64.3140   70.2890 C   0  0  1  0  0  0  0  0  0  0  0  0
    0.6070   63.8720   71.6810 C   0  0  0  0  0  0  0  0  0  0  0  0
   -0.0990   64.4970   72.4510 O   0  0  0  0  0  0  0  0  0  0  0  0
    0.2100   58.9320   74.2760 C   0  0  0  0  0  0  0  0  0  0  0  0
    1.4500   59.6120   74.1350 O   0  0  0  0  0  0  0  0  0  0  0  0
    3.0080   58.8790   72.1710 O   0  0  0  0  0  0  0  0  0  0  0  0
    3.3600   58.1730   70.9910 C   0  0  0  0  0  0  0  0  0  0  0  0
    0.5860   66.7860   69.6670 C   0  0  0  0  0  0  0  0  0  0  0  0
   -0.5320   66.1140   68.8530 C   0  0  0  0  0  0  0  0  0  0  0  0
   -1.0900   67.0560   67.7960 C   0  0  0  0  0  0  0  0  0  0  0  0
   -0.0180   67.3740   66.7770 N   0  0  0  0  0  4  0  0  0  0  0  0
    1.3900   67.4280   67.3390 C   0  0  0  0  0  0  0  0  0  0  0  0
    1.3620   67.8100   68.8100 C   0  0  0  0  0  0  0  0  0  0  0  0
   -0.3900   68.5910   65.9500 C   0  0  0  0  0  0  0  0  0  0  0  0
    0.3740   68.6720   64.6560 C   0  0  0  0  0  0  0  0  0  0  0  0
   -0.3090   68.7830   63.4330 C   0  0  0  0  0  0  0  0  0  0  0  0
    0.3970   68.8360   62.2310 C   0  0  0  0  0  0  0  0  0  0  0  0
    1.7880   68.7800   62.2370 C   0  0  0  0  0  0  0  0  0  0  0  0
    2.4770   68.6790   63.4420 C   0  0  0  0  0  0  0  0  0  0  0  0
    1.7750   68.6260   64.6480 C   0  0  0  0  0  0  0  0  0  0  0  0
    1.7148   66.0535   71.3552 H   0  0  0  0  0  0  0  0  0  0  0  0
    2.4695   65.7760   69.7074 H   0  0  0  0  0  0  0  0  0  0  0  0
    0.2742   62.0801   73.8868 H   0  0  0  0  0  0  0  0  0  0  0  0
    3.2840   60.6599   70.1065 H   0  0  0  0  0  0  0  0  0  0  0  0
    3.0892   63.6922   69.8533 H   0  0  0  0  0  0  0  0  0  0  0  0
    1.8948   62.8705   68.8527 H   0  0  0  0  0  0  0  0  0  0  0  0
    0.2163   64.3502   69.5552 H   0  0  0  0  0  0  0  0  0  0  0  0
   -0.0197   58.8060   75.3444 H   0  0  0  0  0  0  0  0  0  0  0  0
   -0.5869   59.5193   73.7964 H   0  0  0  0  0  0  0  0  0  0  0  0
    0.2768   57.9443   73.7964 H   0  0  0  0  0  0  0  0  0  0  0  0
    3.8356   57.2190   71.2626 H   0  0  0  0  0  0  0  0  0  0  0  0
    2.4548   57.9757   70.3980 H   0  0  0  0  0  0  0  0  0  0  0  0
    4.0624   58.7772   70.3980 H   0  0  0  0  0  0  0  0  0  0  0  0
    0.0959   67.3247   70.4914 H   0  0  0  0  0  0  0  0  0  0  0  0
   -0.1263   65.2197   68.3575 H   0  0  0  0  0  0  0  0  0  0  0  0
   -1.3466   65.8426   69.5406 H   0  0  0  0  0  0  0  0  0  0  0  0
   -1.9421   66.5762   67.2923 H   0  0  0  0  0  0  0  0  0  0  0  0
   -1.4215   67.9877   68.2778 H   0  0  0  0  0  0  0  0  0  0  0  0
    0.0148   66.5684   66.1360 H   0  0  0  0  0  0  0  0  0  0  0  0
    1.8612   66.4399   67.2305 H   0  0  0  0  0  0  0  0  0  0  0  0
    1.9650   68.1852   66.7858 H   0  0  0  0  0  0  0  0  0  0  0  0
    2.3963   67.8692   69.1798 H   0  0  0  0  0  0  0  0  0  0  0  0
    0.8484   68.7789   68.8963 H   0  0  0  0  0  0  0  0  0  0  0  0
   -1.4650   68.5454   65.7213 H   0  0  0  0  0  0  0  0  0  0  0  0
   -0.1363   69.4834   66.5410 H   0  0  0  0  0  0  0  0  0  0  0  0
   -1.4080   68.8284   63.4234 H   0  0  0  0  0  0  0  0  0  0  0  0
   -0.1456   68.9221   61.2780 H   0  0  0  0  0  0  0  0  0  0  0  0
    2.3433   68.8156   61.2881 H   0  0  0  0  0  0  0  0  0  0  0  0
    3.5763   68.6409   63.4444 H   0  0  0  0  0  0  0  0  0  0  0  0
    2.3248   68.5477   65.5975 H   0  0  0  0  0  0  0  0  0  0  0  0
  3  2  2  0
  4  3  1  0
  5  4  2  0
  6  5  1  0
  7  2  1  0
  7  6  2  0
  8  5  1  0
  9  8  1  0
  9  1  1  0
 10  9  1  0
 10  4  1  0
 11 10  2  0
 13 12  1  0
 13  2  1  0
 14  7  1  0
 15 14  1  0
 16  1  1  0
 17 16  1  0
 18 17  1  0
 19 18  1  0
 20 19  1  0
 21 20  1  0
 21 16  1  0
 22 19  1  0
 23 22  1  0
 24 23  2  0
 25 24  1  0
 26 25  2  0
 27 26  1  0
 28 27  2  0
 28 23  1  0
  1 29  1  0
  1 30  1  0
  3 31  1  0
  6 32  1  0
  8 33  1  0
  8 34  1  0
  9 35  1  6
 12 36  1  0
 12 37  1  0
 12 38  1  0
 15 39  1  0
 15 40  1  0
 15 41  1  0
 16 42  1  0
 17 43  1  0
 17 44  1  0
 18 45  1  0
 18 46  1  0
 19 47  1  0
 20 48  1  0
 20 49  1  0
 21 50  1  0
 21 51  1  0
 22 52  1  0
 22 53  1  0
 24 54  1  0
 25 55  1  0
 26 56  1  0
 27 57  1  0
 28 58  1  0
M  CHG  1  19   1
M  END
>  <score>  (4) 
-8.921

$$$$
=
     RDKit          3D

 58 61  0  0  0  0  0  0  0  0999 V2000
    1.8160   61.2450   71.7440 C   0  0  0  0  0  0  0  0  0  0  0  0
    0.7610   55.7780   73.8350 C   0  0  0  0  0  0  0  0  0  0  0  0
    1.7770   56.6170   73.3690 C   0  0  0  0  0  0  0  0  0  0  0  0
    1.4950   57.9670   73.2710 C   0  0  0  0  0  0  0  0  0  0  0  0
    0.2670   58.5160   73.6060 C   0  0  0  0  0  0  0  0  0  0  0  0
   -0.7520   57.6960   74.0660 C   0  0  0  0  0  0  0  0  0  0  0  0
   -0.5070   56.3190   74.1880 C   0  0  0  0  0  0  0  0  0  0  0  0
    0.2150   59.9920   73.3610 C   0  0  0  0  0  0  0  0  0  0  0  0
    1.6670   60.3780   73.0030 C   0  0  1  0  0  0  0  0  0  0  0  0
    2.3710   59.0400   72.8250 C   0  0  0  0  0  0  0  0  0  0  0  0
    3.4980   58.8690   72.3970 O   0  0  0  0  0  0  0  0  0  0  0  0
    1.8640   53.9450   74.9070 C   0  0  0  0  0  0  0  0  0  0  0  0
    0.8920   54.4190   73.9840 O   0  0  0  0  0  0  0  0  0  0  0  0
   -1.4370   55.4090   74.6290 O   0  0  0  0  0  0  0  0  0  0  0  0
   -2.4900   55.8790   75.4570 C   0  0  0  0  0  0  0  0  0  0  0  0
    1.6540   62.7610   71.9930 C   0  0  0  0  0  0  0  0  0  0  0  0
    0.2220   63.2530   71.7250 C   0  0  0  0  0  0  0  0  0  0  0  0
    0.1970   64.7400   71.4060 C   0  0  0  0  0  0  0  0  0  0  0  0
    0.9360   64.9980   70.1110 N   0  0  0  0  0  4  0  0  0  0  0  0
    2.1090   64.0700   69.8580 C   0  0  0  0  0  0  0  0  0  0  0  0
    2.6830   63.5690   71.1730 C   0  0  0  0  0  0  0  0  0  0  0  0
    1.2790   66.4680   69.9580 C   0  0  0  0  0  0  0  0  0  0  0  0
    0.5460   67.1230   68.8180 C   0  0  0  0  0  0  0  0  0  0  0  0
   -0.7410   66.6910   68.4590 C   0  0  0  0  0  0  0  0  0  0  0  0
   -1.4130   67.2810   67.3890 C   0  0  0  0  0  0  0  0  0  0  0  0
   -0.8090   68.3090   66.6680 C   0  0  0  0  0  0  0  0  0  0  0  0
    0.4640   68.7520   67.0190 C   0  0  0  0  0  0  0  0  0  0  0  0
    1.1390   68.1640   68.0900 C   0  0  0  0  0  0  0  0  0  0  0  0
    2.8166   61.0703   71.3219 H   0  0  0  0  0  0  0  0  0  0  0  0
    1.0061   60.9498   71.0607 H   0  0  0  0  0  0  0  0  0  0  0  0
    2.7637   56.2183   73.0907 H   0  0  0  0  0  0  0  0  0  0  0  0
   -1.7336   58.1163   74.3303 H   0  0  0  0  0  0  0  0  0  0  0  0
   -0.4652   60.2238   72.5282 H   0  0  0  0  0  0  0  0  0  0  0  0
   -0.1616   60.5469   74.2329 H   0  0  0  0  0  0  0  0  0  0  0  0
    2.0943   61.0115   73.7942 H   0  0  0  0  0  0  0  0  0  0  0  0
    1.5095   54.1179   75.9339 H   0  0  0  0  0  0  0  0  0  0  0  0
    2.0236   52.8679   74.7506 H   0  0  0  0  0  0  0  0  0  0  0  0
    2.8109   54.4825   74.7506 H   0  0  0  0  0  0  0  0  0  0  0  0
   -2.2096   55.7538   76.5133 H   0  0  0  0  0  0  0  0  0  0  0  0
   -2.6721   56.9438   75.2497 H   0  0  0  0  0  0  0  0  0  0  0  0
   -3.4042   55.3035   75.2497 H   0  0  0  0  0  0  0  0  0  0  0  0
    1.8513   62.9313   73.0617 H   0  0  0  0  0  0  0  0  0  0  0  0
   -0.1938   62.6968   70.8719 H   0  0  0  0  0  0  0  0  0  0  0  0
   -0.3779   63.0831   72.6312 H   0  0  0  0  0  0  0  0  0  0  0  0
   -0.8460   65.0744   71.3043 H   0  0  0  0  0  0  0  0  0  0  0  0
    0.6859   65.2948   72.2204 H   0  0  0  0  0  0  0  0  0  0  0  0
    0.2791   64.7581   69.3548 H   0  0  0  0  0  0  0  0  0  0  0  0
    1.7691   63.2112   69.2605 H   0  0  0  0  0  0  0  0  0  0  0  0
    2.8903   64.6229   69.3159 H   0  0  0  0  0  0  0  0  0  0  0  0
    3.5483   62.9247   70.9584 H   0  0  0  0  0  0  0  0  0  0  0  0
    2.9730   64.4468   71.7692 H   0  0  0  0  0  0  0  0  0  0  0  0
    1.0160   66.9890   70.8904 H   0  0  0  0  0  0  0  0  0  0  0  0
    2.3554   66.5359   69.7419 H   0  0  0  0  0  0  0  0  0  0  0  0
   -1.2228   65.8810   69.0262 H   0  0  0  0  0  0  0  0  0  0  0  0
   -2.4202   66.9347   67.1141 H   0  0  0  0  0  0  0  0  0  0  0  0
   -1.3378   68.7709   65.8212 H   0  0  0  0  0  0  0  0  0  0  0  0
    0.9381   69.5663   66.4514 H   0  0  0  0  0  0  0  0  0  0  0  0
    2.1430   68.5198   68.3646 H   0  0  0  0  0  0  0  0  0  0  0  0
  3  2  2  0
  4  3  1  0
  5  4  2  0
  6  5  1  0
  7  2  1  0
  7  6  2  0
  8  5  1  0
  9  8  1  0
  9  1  1  0
 10  9  1  0
 10  4  1  0
 11 10  2  0
 13 12  1  0
 13  2  1  0
 14  7  1  0
 15 14  1  0
 16  1  1  0
 17 16  1  0
 18 17  1  0
 19 18  1  0
 20 19  1  0
 21 20  1  0
 21 16  1  0
 22 19  1  0
 23 22  1  0
 24 23  2  0
 25 24  1  0
 26 25  2  0
 27 26  1  0
 28 27  2  0
 28 23  1  0
  1 29  1  0
  1 30  1  0
  3 31  1  0
  6 32  1  0
  8 33  1  0
  8 34  1  0
  9 35  1  1
 12 36  1  0
 12 37  1  0
 12 38  1  0
 15 39  1  0
 15 40  1  0
 15 41  1  0
 16 42  1  0
 17 43  1  0
 17 44  1  0
 18 45  1  0
 18 46  1  0
 19 47  1  0
 20 48  1  0
 20 49  1  0
 21 50  1  0
 21 51  1  0
 22 52  1  0
 22 53  1  0
 24 54  1  0
 25 55  1  0
 26 56  1  0
 27 57  1  0
 28 58  1  0
M  CHG  1  19   1
M  END
>  <score>  (5) 
-8.774

$$$$
=
     RDKit          3D

 58 61  0  0  0  0  0  0  0  0999 V2000
    4.1430   61.6030   70.4340 C   0  0  0  0  0  0  0  0  0  0  0  0
    1.9110   56.9790   73.4360 C   0  0  0  0  0  0  0  0  0  0  0  0
    2.2220   57.4280   72.1500 C   0  0  0  0  0  0  0  0  0  0  0  0
    3.0330   58.5420   72.0420 C   0  0  0  0  0  0  0  0  0  0  0  0
    3.5400   59.2260   73.1360 C   0  0  0  0  0  0  0  0  0  0  0  0
    3.2380   58.7950   74.4190 C   0  0  0  0  0  0  0  0  0  0  0  0
    2.4230   57.6610   74.5750 C   0  0  0  0  0  0  0  0  0  0  0  0
    4.3480   60.4220   72.7390 C   0  0  0  0  0  0  0  0  0  0  0  0
    4.4720   60.3140   71.2030 C   0  0  1  0  0  0  0  0  0  0  0  0
    3.5040   59.2000   70.8320 C   0  0  0  0  0  0  0  0  0  0  0  0
    3.1740   58.8760   69.7060 O   0  0  0  0  0  0  0  0  0  0  0  0
   -0.2910   56.0640   73.6430 C   0  0  0  0  0  0  0  0  0  0  0  0
    1.1190   55.8880   73.7010 O   0  0  0  0  0  0  0  0  0  0  0  0
    2.0530   57.1430   75.7930 O   0  0  0  0  0  0  0  0  0  0  0  0
    1.2680   57.9550   76.6530 C   0  0  0  0  0  0  0  0  0  0  0  0
    3.1740   62.5540   71.1720 C   0  0  0  0  0  0  0  0  0  0  0  0
    1.7010   62.1550   70.9850 C   0  0  0  0  0  0  0  0  0  0  0  0
    0.7750   63.3450   71.1890 C   0  0  0  0  0  0  0  0  0  0  0  0
    1.0280   64.3800   70.1160 N   0  0  0  0  0  4  0  0  0  0  0  0
    2.4680   64.4660   69.6470 C   0  0  0  0  0  0  0  0  0  0  0  0
    3.4130   64.0200   70.7510 C   0  0  0  0  0  0  0  0  0  0  0  0
    0.4320   65.7230   70.4970 C   0  0  0  0  0  0  0  0  0  0  0  0
    0.2160   66.6230   69.3100 C   0  0  0  0  0  0  0  0  0  0  0  0
   -0.9660   66.5360   68.5570 C   0  0  0  0  0  0  0  0  0  0  0  0
   -1.1570   67.3550   67.4440 C   0  0  0  0  0  0  0  0  0  0  0  0
   -0.1730   68.2680   67.0720 C   0  0  0  0  0  0  0  0  0  0  0  0
    1.0000   68.3690   67.8150 C   0  0  0  0  0  0  0  0  0  0  0  0
    1.1950   67.5530   68.9300 C   0  0  0  0  0  0  0  0  0  0  0  0
    5.0830   62.1438   70.2500 H   0  0  0  0  0  0  0  0  0  0  0  0
    3.6377   61.2961   69.5064 H   0  0  0  0  0  0  0  0  0  0  0  0
    1.8360   56.9143   71.2572 H   0  0  0  0  0  0  0  0  0  0  0  0
    3.6286   59.3302   75.2971 H   0  0  0  0  0  0  0  0  0  0  0  0
    3.8321   61.3511   73.0229 H   0  0  0  0  0  0  0  0  0  0  0  0
    5.3287   60.4476   73.2366 H   0  0  0  0  0  0  0  0  0  0  0  0
    5.5169   60.1156   70.9222 H   0  0  0  0  0  0  0  0  0  0  0  0
   -0.6965   56.1146   74.6643 H   0  0  0  0  0  0  0  0  0  0  0  0
   -0.5223   56.9980   73.1099 H   0  0  0  0  0  0  0  0  0  0  0  0
   -0.7448   55.2155   73.1099 H   0  0  0  0  0  0  0  0  0  0  0  0
    1.5019   57.7130   77.7002 H   0  0  0  0  0  0  0  0  0  0  0  0
    1.4926   59.0149   76.4626 H   0  0  0  0  0  0  0  0  0  0  0  0
    0.2012   57.7663   76.4626 H   0  0  0  0  0  0  0  0  0  0  0  0
    3.3911   62.4620   72.2464 H   0  0  0  0  0  0  0  0  0  0  0  0
    1.5624   61.7638   69.9663 H   0  0  0  0  0  0  0  0  0  0  0  0
    1.4514   61.3888   71.7338 H   0  0  0  0  0  0  0  0  0  0  0  0
   -0.2706   63.0081   71.1323 H   0  0  0  0  0  0  0  0  0  0  0  0
    0.9676   63.7904   72.1762 H   0  0  0  0  0  0  0  0  0  0  0  0
    0.5275   64.0496   69.2786 H   0  0  0  0  0  0  0  0  0  0  0  0
    2.6029   63.8159   68.7700 H   0  0  0  0  0  0  0  0  0  0  0  0
    2.6953   65.5094   69.3830 H   0  0  0  0  0  0  0  0  0  0  0  0
    4.4480   64.1205   70.3924 H   0  0  0  0  0  0  0  0  0  0  0  0
    3.2278   64.6561   71.6291 H   0  0  0  0  0  0  0  0  0  0  0  0
   -0.5369   65.5508   70.9885 H   0  0  0  0  0  0  0  0  0  0  0  0
    1.1460   66.2242   71.1671 H   0  0  0  0  0  0  0  0  0  0  0  0
   -1.7466   65.8172   68.8467 H   0  0  0  0  0  0  0  0  0  0  0  0
   -2.0858   67.2797   66.8594 H   0  0  0  0  0  0  0  0  0  0  0  0
   -0.3228   68.9094   66.1910 H   0  0  0  0  0  0  0  0  0  0  0  0
    1.7745   69.0934   67.5226 H   0  0  0  0  0  0  0  0  0  0  0  0
    2.1226   67.6396   69.5149 H   0  0  0  0  0  0  0  0  0  0  0  0
  3  2  2  0
  4  3  1  0
  5  4  2  0
  6  5  1  0
  7  2  1  0
  7  6  2  0
  8  5  1  0
  9  8  1  0
  9  1  1  0
 10  9  1  0
 10  4  1  0
 11 10  2  0
 13 12  1  0
 13  2  1  0
 14  7  1  0
 15 14  1  0
 16  1  1  0
 17 16  1  0
 18 17  1  0
 19 18  1  0
 20 19  1  0
 21 20  1  0
 21 16  1  0
 22 19  1  0
 23 22  1  0
 24 23  2  0
 25 24  1  0
 26 25  2  0
 27 26  1  0
 28 27  2  0
 28 23  1  0
  1 29  1  0
  1 30  1  0
  3 31  1  0
  6 32  1  0
  8 33  1  0
  8 34  1  0
  9 35  1  1
 12 36  1  0
 12 37  1  0
 12 38  1  0
 15 39  1  0
 15 40  1  0
 15 41  1  0
 16 42  1  0
 17 43  1  0
 17 44  1  0
 18 45  1  0
 18 46  1  0
 19 47  1  0
 20 48  1  0
 20 49  1  0
 21 50  1  0
 21 51  1  0
 22 52  1  0
 22 53  1  0
 24 54  1  0
 25 55  1  0
 26 56  1  0
 27 57  1  0
 28 58  1  0
M  CHG  1  19   1
M  END
>  <score>  (6) 
-8.727

$$$$
=
     RDKit          3D

 58 61  0  0  0  0  0  0  0  0999 V2000
   -0.4270   66.0530   69.2170 C   0  0  0  0  0  0  0  0  0  0  0  0
    2.0930   62.4720   73.2420 C   0  0  0  0  0  0  0  0  0  0  0  0
    2.2720   63.0190   71.9690 C   0  0  0  0  0  0  0  0  0  0  0  0
    1.4600   64.0790   71.6090 C   0  0  0  0  0  0  0  0  0  0  0  0
    0.4880   64.6130   72.4420 C   0  0  0  0  0  0  0  0  0  0  0  0
    0.2960   64.0790   73.7070 C   0  0  0  0  0  0  0  0  0  0  0  0
    1.1040   63.0050   74.1170 C   0  0  0  0  0  0  0  0  0  0  0  0
   -0.2780   65.7200   71.7890 C   0  0  0  0  0  0  0  0  0  0  0  0
    0.4690   65.9810   70.4620 C   0  0  1  0  0  0  0  0  0  0  0  0
    1.4490   64.8210   70.3580 C   0  0  0  0  0  0  0  0  0  0  0  0
    2.1430   64.5470   69.3950 O   0  0  0  0  0  0  0  0  0  0  0  0
    4.0260   61.0720   73.0660 C   0  0  0  0  0  0  0  0  0  0  0  0
    2.8220   61.4190   73.7380 O   0  0  0  0  0  0  0  0  0  0  0  0
    1.0050   62.3930   75.3430 O   0  0  0  0  0  0  0  0  0  0  0  0
    0.0470   61.3570   75.4950 C   0  0  0  0  0  0  0  0  0  0  0  0
   -0.2780   67.3570   68.4010 C   0  0  0  0  0  0  0  0  0  0  0  0
   -0.8710   67.2380   66.9880 C   0  0  0  0  0  0  0  0  0  0  0  0
   -0.2380   68.2420   66.0360 C   0  0  0  0  0  0  0  0  0  0  0  0
    1.2300   67.9240   65.8590 N   0  0  0  0  0  4  0  0  0  0  0  0
    1.9030   67.3430   67.0890 C   0  0  0  0  0  0  0  0  0  0  0  0
    1.1970   67.8110   68.3510 C   0  0  0  0  0  0  0  0  0  0  0  0
    1.9780   69.0980   65.2550 C   0  0  0  0  0  0  0  0  0  0  0  0
    2.8500   68.7000   64.0950 C   0  0  0  0  0  0  0  0  0  0  0  0
    2.3430   68.7190   62.7850 C   0  0  0  0  0  0  0  0  0  0  0  0
    3.1430   68.3280   61.7110 C   0  0  0  0  0  0  0  0  0  0  0  0
    4.4550   67.9170   61.9320 C   0  0  0  0  0  0  0  0  0  0  0  0
    4.9720   67.9020   63.2250 C   0  0  0  0  0  0  0  0  0  0  0  0
    4.1760   68.2920   64.3020 C   0  0  0  0  0  0  0  0  0  0  0  0
   -0.1753   65.2060   68.5619 H   0  0  0  0  0  0  0  0  0  0  0  0
   -1.4667   66.0223   69.5749 H   0  0  0  0  0  0  0  0  0  0  0  0
    3.0306   62.6214   71.2787 H   0  0  0  0  0  0  0  0  0  0  0  0
   -0.4743   64.4884   74.3771 H   0  0  0  0  0  0  0  0  0  0  0  0
   -1.3164   65.4125   71.5961 H   0  0  0  0  0  0  0  0  0  0  0  0
   -0.3324   66.6188   72.4208 H   0  0  0  0  0  0  0  0  0  0  0  0
    0.9438   66.9730   70.4847 H   0  0  0  0  0  0  0  0  0  0  0  0
    4.8075   60.8468   73.8067 H   0  0  0  0  0  0  0  0  0  0  0  0
    3.8523   60.1874   72.4357 H   0  0  0  0  0  0  0  0  0  0  0  0
    4.3497   61.9134   72.4357 H   0  0  0  0  0  0  0  0  0  0  0  0
   -0.1251   61.1709   76.5654 H   0  0  0  0  0  0  0  0  0  0  0  0
   -0.8976   61.6583   75.0187 H   0  0  0  0  0  0  0  0  0  0  0  0
    0.4212   60.4388   75.0187 H   0  0  0  0  0  0  0  0  0  0  0  0
   -0.8610   68.1299   68.9232 H   0  0  0  0  0  0  0  0  0  0  0  0
   -0.6908   66.2215   66.6083 H   0  0  0  0  0  0  0  0  0  0  0  0
   -1.9495   67.4467   67.0456 H   0  0  0  0  0  0  0  0  0  0  0  0
   -0.7434   68.1892   65.0604 H   0  0  0  0  0  0  0  0  0  0  0  0
   -0.3429   69.2544   66.4531 H   0  0  0  0  0  0  0  0  0  0  0  0
    1.2740   67.1518   65.1788 H   0  0  0  0  0  0  0  0  0  0  0  0
    1.8645   66.2448   67.0384 H   0  0  0  0  0  0  0  0  0  0  0  0
    2.9484   67.6840   67.1180 H   0  0  0  0  0  0  0  0  0  0  0  0
    1.7236   67.3988   69.2243 H   0  0  0  0  0  0  0  0  0  0  0  0
    1.2105   68.9109   68.3555 H   0  0  0  0  0  0  0  0  0  0  0  0
    1.2446   69.8394   64.9051 H   0  0  0  0  0  0  0  0  0  0  0  0
    2.6340   69.5097   66.0362 H   0  0  0  0  0  0  0  0  0  0  0  0
    1.3078   69.0445   62.6048 H   0  0  0  0  0  0  0  0  0  0  0  0
    2.7370   68.3444   60.6888 H   0  0  0  0  0  0  0  0  0  0  0  0
    5.0832   67.6041   61.0850 H   0  0  0  0  0  0  0  0  0  0  0  0
    6.0102   67.5819   63.3973 H   0  0  0  0  0  0  0  0  0  0  0  0
    4.5910   68.2795   65.3207 H   0  0  0  0  0  0  0  0  0  0  0  0
  3  2  2  0
  4  3  1  0
  5  4  2  0
  6  5  1  0
  7  2  1  0
  7  6  2  0
  8  5  1  0
  9  8  1  0
  9  1  1  0
 10  9  1  0
 10  4  1  0
 11 10  2  0
 13 12  1  0
 13  2  1  0
 14  7  1  0
 15 14  1  0
 16  1  1  0
 17 16  1  0
 18 17  1  0
 19 18  1  0
 20 19  1  0
 21 20  1  0
 21 16  1  0
 22 19  1  0
 23 22  1  0
 24 23  2  0
 25 24  1  0
 26 25  2  0
 27 26  1  0
 28 27  2  0
 28 23  1  0
  1 29  1  0
  1 30  1  0
  3 31  1  0
  6 32  1  0
  8 33  1  0
  8 34  1  0
  9 35  1  1
 12 36  1  0
 12 37  1  0
 12 38  1  0
 15 39  1  0
 15 40  1  0
 15 41  1  0
 16 42  1  0
 17 43  1  0
 17 44  1  0
 18 45  1  0
 18 46  1  0
 19 47  1  0
 20 48  1  0
 20 49  1  0
 21 50  1  0
 21 51  1  0
 22 52  1  0
 22 53  1  0
 24 54  1  0
 25 55  1  0
 26 56  1  0
 27 57  1  0
 28 58  1  0
M  CHG  1  19   1
M  END
>  <score>  (7) 
-8.418

$$$$
=
     RDKit          3D

 58 61  0  0  0  0  0  0  0  0999 V2000
   -0.4820   66.2010   68.9040 C   0  0  0  0  0  0  0  0  0  0  0  0
    2.0830   62.7420   73.0060 C   0  0  0  0  0  0  0  0  0  0  0  0
    2.2650   63.2810   71.7300 C   0  0  0  0  0  0  0  0  0  0  0  0
    1.4270   64.3110   71.3460 C   0  0  0  0  0  0  0  0  0  0  0  0
    0.4260   64.8230   72.1580 C   0  0  0  0  0  0  0  0  0  0  0  0
    0.2310   64.2970   73.4260 C   0  0  0  0  0  0  0  0  0  0  0  0
    1.0650   63.2530   73.8590 C   0  0  0  0  0  0  0  0  0  0  0  0
   -0.3640   65.8990   71.4820 C   0  0  0  0  0  0  0  0  0  0  0  0
    0.3960   66.1690   70.1640 C   0  0  1  0  0  0  0  0  0  0  0  0
    1.4130   65.0400   70.0870 C   0  0  0  0  0  0  0  0  0  0  0  0
    2.1300   64.7780   69.1380 O   0  0  0  0  0  0  0  0  0  0  0  0
    4.0720   61.4160   72.8890 C   0  0  0  0  0  0  0  0  0  0  0  0
    2.8360   61.7170   73.5250 O   0  0  0  0  0  0  0  0  0  0  0  0
    0.9650   62.6510   75.0900 O   0  0  0  0  0  0  0  0  0  0  0  0
    0.3440   63.3770   76.1400 C   0  0  0  0  0  0  0  0  0  0  0  0
   -0.2170   67.4060   67.9740 C   0  0  0  0  0  0  0  0  0  0  0  0
    0.0950   66.9780   66.5300 C   0  0  0  0  0  0  0  0  0  0  0  0
    0.8950   68.0450   65.7970 C   0  0  0  0  0  0  0  0  0  0  0  0
    2.2510   68.2040   66.4470 N   0  0  0  0  0  4  0  0  0  0  0  0
    2.2630   67.9830   67.9480 C   0  0  0  0  0  0  0  0  0  0  0  0
    0.9020   68.3060   68.5430 C   0  0  0  0  0  0  0  0  0  0  0  0
    2.9170   69.4990   66.0190 C   0  0  0  0  0  0  0  0  0  0  0  0
    4.0910   69.8660   66.8850 C   0  0  0  0  0  0  0  0  0  0  0  0
    5.4020   69.7490   66.3940 C   0  0  0  0  0  0  0  0  0  0  0  0
    6.4920   70.0680   67.2040 C   0  0  0  0  0  0  0  0  0  0  0  0
    6.2860   70.5070   68.5090 C   0  0  0  0  0  0  0  0  0  0  0  0
    4.9920   70.6350   69.0060 C   0  0  0  0  0  0  0  0  0  0  0  0
    3.8980   70.3180   68.1990 C   0  0  0  0  0  0  0  0  0  0  0  0
   -0.2990   65.2787   68.3332 H   0  0  0  0  0  0  0  0  0  0  0  0
   -1.5229   66.2919   69.2480 H   0  0  0  0  0  0  0  0  0  0  0  0
    3.0462   62.8998   71.0559 H   0  0  0  0  0  0  0  0  0  0  0  0
   -0.5614   64.6897   74.0801 H   0  0  0  0  0  0  0  0  0  0  0  0
   -1.3892   65.5575   71.2764 H   0  0  0  0  0  0  0  0  0  0  0  0
   -0.4568   66.8020   72.1032 H   0  0  0  0  0  0  0  0  0  0  0  0
    0.8397   67.1754   70.1841 H   0  0  0  0  0  0  0  0  0  0  0  0
    4.8412   61.2287   73.6527 H   0  0  0  0  0  0  0  0  0  0  0  0
    3.9528   60.5206   72.2612 H   0  0  0  0  0  0  0  0  0  0  0  0
    4.3779   62.2659   72.2612 H   0  0  0  0  0  0  0  0  0  0  0  0
    0.6822   62.9816   77.1092 H   0  0  0  0  0  0  0  0  0  0  0  0
    0.6168   64.4398   76.0622 H   0  0  0  0  0  0  0  0  0  0  0  0
   -0.7482   63.2722   76.0622 H   0  0  0  0  0  0  0  0  0  0  0  0
   -1.1475   67.9914   67.9353 H   0  0  0  0  0  0  0  0  0  0  0  0
    0.6772   66.0449   66.5508 H   0  0  0  0  0  0  0  0  0  0  0  0
   -0.8567   66.8315   65.9983 H   0  0  0  0  0  0  0  0  0  0  0  0
    1.0262   67.7461   64.7465 H   0  0  0  0  0  0  0  0  0  0  0  0
    0.3544   69.0018   65.8449 H   0  0  0  0  0  0  0  0  0  0  0  0
    2.8294   67.4299   66.0904 H   0  0  0  0  0  0  0  0  0  0  0  0
    2.5097   66.9317   68.1574 H   0  0  0  0  0  0  0  0  0  0  0  0
    3.0159   68.6456   68.3998 H   0  0  0  0  0  0  0  0  0  0  0  0
    0.9500   68.1640   69.6327 H   0  0  0  0  0  0  0  0  0  0  0  0
    0.6604   69.3471   68.2829 H   0  0  0  0  0  0  0  0  0  0  0  0
    3.2666   69.3881   64.9819 H   0  0  0  0  0  0  0  0  0  0  0  0
    2.1713   70.3019   66.1153 H   0  0  0  0  0  0  0  0  0  0  0  0
    5.5702   69.4033   65.3634 H   0  0  0  0  0  0  0  0  0  0  0  0
    7.5151   69.9726   66.8113 H   0  0  0  0  0  0  0  0  0  0  0  0
    7.1468   70.7530   69.1482 H   0  0  0  0  0  0  0  0  0  0  0  0
    4.8314   70.9864   70.0359 H   0  0  0  0  0  0  0  0  0  0  0  0
    2.8776   70.4233   68.5961 H   0  0  0  0  0  0  0  0  0  0  0  0
  3  2  2  0
  4  3  1  0
  5  4  2  0
  6  5  1  0
  7  2  1  0
  7  6  2  0
  8  5  1  0
  9  8  1  0
  9  1  1  0
 10  9  1  0
 10  4  1  0
 11 10  2  0
 13 12  1  0
 13  2  1  0
 14  7  1  0
 15 14  1  0
 16  1  1  0
 17 16  1  0
 18 17  1  0
 19 18  1  0
 20 19  1  0
 21 20  1  0
 21 16  1  0
 22 19  1  0
 23 22  1  0
 24 23  2  0
 25 24  1  0
 26 25  2  0
 27 26  1  0
 28 27  2  0
 28 23  1  0
  1 29  1  0
  1 30  1  0
  3 31  1  0
  6 32  1  0
  8 33  1  0
  8 34  1  0
  9 35  1  1
 12 36  1  0
 12 37  1  0
 12 38  1  0
 15 39  1  0
 15 40  1  0
 15 41  1  0
 16 42  1  0
 17 43  1  0
 17 44  1  0
 18 45  1  0
 18 46  1  0
 19 47  1  0
 20 48  1  0
 20 49  1  0
 21 50  1  0
 21 51  1  0
 22 52  1  0
 22 53  1  0
 24 54  1  0
 25 55  1  0
 26 56  1  0
 27 57  1  0
 28 58  1  0
M  CHG  1  19   1
M  END
>  <score>  (8) 
-8.015

$$$$
=
     RDKit          3D

 58 61  0  0  0  0  0  0  0  0999 V2000
    0.3600   59.8420   74.2930 C   0  0  0  0  0  0  0  0  0  0  0  0
   -5.4720   60.5680   75.2110 C   0  0  0  0  0  0  0  0  0  0  0  0
   -4.3840   61.0750   74.4950 C   0  0  0  0  0  0  0  0  0  0  0  0
   -3.2380   60.3030   74.4420 C   0  0  0  0  0  0  0  0  0  0  0  0
   -3.1220   59.0680   75.0620 C   0  0  0  0  0  0  0  0  0  0  0  0
   -4.1910   58.5530   75.7790 C   0  0  0  0  0  0  0  0  0  0  0  0
   -5.3770   59.3020   75.8530 C   0  0  0  0  0  0  0  0  0  0  0  0
   -1.7620   58.4660   74.8870 C   0  0  0  0  0  0  0  0  0  0  0  0
   -1.0520   59.3990   73.8800 C   0  0  1  0  0  0  0  0  0  0  0  0
   -1.9840   60.5960   73.7660 C   0  0  0  0  0  0  0  0  0  0  0  0
   -1.7490   61.6410   73.1870 O   0  0  0  0  0  0  0  0  0  0  0  0
   -7.5160   61.3080   74.2120 C   0  0  0  0  0  0  0  0  0  0  0  0
   -6.6720   61.2200   75.3520 O   0  0  0  0  0  0  0  0  0  0  0  0
   -6.4990   58.8970   76.5350 O   0  0  0  0  0  0  0  0  0  0  0  0
   -7.0440   57.6230   76.2280 C   0  0  0  0  0  0  0  0  0  0  0  0
    1.4060   59.7690   73.1580 C   0  0  0  0  0  0  0  0  0  0  0  0
    2.4790   58.6980   73.4160 C   0  0  0  0  0  0  0  0  0  0  0  0
    3.7620   59.0060   72.6580 C   0  0  0  0  0  0  0  0  0  0  0  0
    4.3710   60.2880   73.1820 N   0  0  0  0  0  4  0  0  0  0  0  0
    3.3630   61.3210   73.6480 C   0  0  0  0  0  0  0  0  0  0  0  0
    2.0470   61.1510   72.9080 C   0  0  0  0  0  0  0  0  0  0  0  0
    5.4060   60.8390   72.2190 C   0  0  0  0  0  0  0  0  0  0  0  0
    4.7900   61.4700   70.9990 C   0  0  0  0  0  0  0  0  0  0  0  0
    4.1690   60.6740   70.0230 C   0  0  0  0  0  0  0  0  0  0  0  0
    3.6180   61.2560   68.8810 C   0  0  0  0  0  0  0  0  0  0  0  0
    3.6780   62.6360   68.7030 C   0  0  0  0  0  0  0  0  0  0  0  0
    4.2830   63.4370   69.6680 C   0  0  0  0  0  0  0  0  0  0  0  0
    4.8350   62.8600   70.8120 C   0  0  0  0  0  0  0  0  0  0  0  0
    0.3055   60.8827   74.6450 H   0  0  0  0  0  0  0  0  0  0  0  0
    0.6936   59.1436   75.0746 H   0  0  0  0  0  0  0  0  0  0  0  0
   -4.4374   62.0519   73.9923 H   0  0  0  0  0  0  0  0  0  0  0  0
   -4.1120   57.5770   76.2801 H   0  0  0  0  0  0  0  0  0  0  0  0
   -1.2207   58.4435   75.8444 H   0  0  0  0  0  0  0  0  0  0  0  0
   -1.8077   57.4257   74.5326 H   0  0  0  0  0  0  0  0  0  0  0  0
   -0.8803   58.8698   72.9311 H   0  0  0  0  0  0  0  0  0  0  0  0
   -8.5612   61.4170   74.5371 H   0  0  0  0  0  0  0  0  0  0  0  0
   -7.2269   62.1809   73.6082 H   0  0  0  0  0  0  0  0  0  0  0  0
   -7.4132   60.3943   73.6082 H   0  0  0  0  0  0  0  0  0  0  0  0
   -7.2730   57.0876   77.1612 H   0  0  0  0  0  0  0  0  0  0  0  0
   -7.9664   57.7502   75.6424 H   0  0  0  0  0  0  0  0  0  0  0  0
   -6.3149   57.0437   75.6424 H   0  0  0  0  0  0  0  0  0  0  0  0
    0.8694   59.4662   72.2468 H   0  0  0  0  0  0  0  0  0  0  0  0
    2.6989   58.6635   74.4932 H   0  0  0  0  0  0  0  0  0  0  0  0
    2.0933   57.7291   73.0659 H   0  0  0  0  0  0  0  0  0  0  0  0
    4.4750   58.1798   72.7959 H   0  0  0  0  0  0  0  0  0  0  0  0
    3.5331   59.1230   71.5885 H   0  0  0  0  0  0  0  0  0  0  0  0
    4.8663   60.0347   74.0488 H   0  0  0  0  0  0  0  0  0  0  0  0
    3.1902   61.1971   74.7273 H   0  0  0  0  0  0  0  0  0  0  0  0
    3.7608   62.3254   73.4408 H   0  0  0  0  0  0  0  0  0  0  0  0
    1.3485   61.9308   73.2457 H   0  0  0  0  0  0  0  0  0  0  0  0
    2.2544   61.2348   71.8310 H   0  0  0  0  0  0  0  0  0  0  0  0
    6.0047   61.5985   72.7432 H   0  0  0  0  0  0  0  0  0  0  0  0
    6.0244   59.9952   71.8790 H   0  0  0  0  0  0  0  0  0  0  0  0
    4.1166   59.5838   70.1598 H   0  0  0  0  0  0  0  0  0  0  0  0
    3.1357   60.6243   68.1205 H   0  0  0  0  0  0  0  0  0  0  0  0
    3.2474   63.0932   67.7999 H   0  0  0  0  0  0  0  0  0  0  0  0
    4.3258   64.5272   69.5280 H   0  0  0  0  0  0  0  0  0  0  0  0
    5.3085   63.4987   71.5722 H   0  0  0  0  0  0  0  0  0  0  0  0
  3  2  2  0
  4  3  1  0
  5  4  2  0
  6  5  1  0
  7  2  1  0
  7  6  2  0
  8  5  1  0
  9  8  1  0
  9  1  1  0
 10  9  1  0
 10  4  1  0
 11 10  2  0
 13 12  1  0
 13  2  1  0
 14  7  1  0
 15 14  1  0
 16  1  1  0
 17 16  1  0
 18 17  1  0
 19 18  1  0
 20 19  1  0
 21 20  1  0
 21 16  1  0
 22 19  1  0
 23 22  1  0
 24 23  2  0
 25 24  1  0
 26 25  2  0
 27 26  1  0
 28 27  2  0
 28 23  1  0
  1 29  1  0
  1 30  1  0
  3 31  1  0
  6 32  1  0
  8 33  1  0
  8 34  1  0
  9 35  1  6
 12 36  1  0
 12 37  1  0
 12 38  1  0
 15 39  1  0
 15 40  1  0
 15 41  1  0
 16 42  1  0
 17 43  1  0
 17 44  1  0
 18 45  1  0
 18 46  1  0
 19 47  1  0
 20 48  1  0
 20 49  1  0
 21 50  1  0
 21 51  1  0
 22 52  1  0
 22 53  1  0
 24 54  1  0
 25 55  1  0
 26 56  1  0
 27 57  1  0
 28 58  1  0
M  CHG  1  19   1
M  END
>  <score>  (9) 
-7.875

$$$$
