=
     RDKit          3D

 54 54  0  0  0  0  0  0  0  0999 V2000
    4.2020   69.3200   65.0800 C   0  0  1  0  0  0  0  0  0  0  0  0
    4.7800   69.8290   66.3940 C   0  0  0  0  0  0  0  0  0  0  0  0
    3.9550   70.0770   67.5020 C   0  0  0  0  0  0  0  0  0  0  0  0
    4.4980   70.5530   68.6970 C   0  0  0  0  0  0  0  0  0  0  0  0
    5.8670   70.7860   68.7980 C   0  0  0  0  0  0  0  0  0  0  0  0
    6.6970   70.5440   67.7050 C   0  0  0  0  0  0  0  0  0  0  0  0
    6.1580   70.0690   66.5080 C   0  0  0  0  0  0  0  0  0  0  0  0
    5.2000   68.4770   64.2250 C   0  0  2  0  0  0  0  0  0  0  0  0
    5.5830   69.2090   62.9270 C   0  0  0  0  0  0  0  0  0  0  0  0
    4.4190   66.8340   62.4010 C   0  0  0  0  0  0  0  0  0  0  0  0
    4.5890   67.0920   63.8920 C   0  0  0  0  0  0  0  0  0  0  0  0
    2.9200   68.5410   65.3830 C   0  0  0  0  0  0  0  0  0  0  0  0
    2.8000   67.6430   66.2070 O   0  0  0  0  0  0  0  0  0  0  0  0
    1.8780   69.0170   64.6310 O   0  0  0  0  0  0  0  0  0  0  0  0
    0.7690   68.1100   64.5540 C   0  0  0  0  0  0  0  0  0  0  0  0
   -0.5220   68.9180   64.7350 C   0  0  0  0  0  0  0  0  0  0  0  0
   -1.2530   68.7070   66.0960 N   0  0  0  0  0  4  0  0  0  0  0  0
   -2.7670   68.6830   65.8750 C   0  0  0  0  0  0  0  0  0  0  0  0
   -0.7820   67.3600   66.7120 C   0  0  0  0  0  0  0  0  0  0  0  0
   -1.7740   66.7440   67.6880 C   0  0  0  0  0  0  0  0  0  0  0  0
   -0.8700   69.8640   67.0580 C   0  0  0  0  0  0  0  0  0  0  0  0
    0.4190   69.6290   67.8310 C   0  0  0  0  0  0  0  0  0  0  0  0
    3.9803   70.1953   64.4517 H   0  0  0  0  0  0  0  0  0  0  0  0
    2.8727   69.8950   67.4284 H   0  0  0  0  0  0  0  0  0  0  0  0
    3.8433   70.7442   69.5600 H   0  0  0  0  0  0  0  0  0  0  0  0
    6.2933   71.1610   69.7402 H   0  0  0  0  0  0  0  0  0  0  0  0
    7.7786   70.7275   67.7856 H   0  0  0  0  0  0  0  0  0  0  0  0
    6.8180   69.8815   65.6482 H   0  0  0  0  0  0  0  0  0  0  0  0
    6.1140   68.3347   64.8202 H   0  0  0  0  0  0  0  0  0  0  0  0
    6.0799   70.1587   63.1745 H   0  0  0  0  0  0  0  0  0  0  0  0
    6.2673   68.5795   62.3392 H   0  0  0  0  0  0  0  0  0  0  0  0
    4.6757   69.4122   62.3392 H   0  0  0  0  0  0  0  0  0  0  0  0
    3.8193   65.9239   62.2524 H   0  0  0  0  0  0  0  0  0  0  0  0
    3.9075   67.6900   61.9367 H   0  0  0  0  0  0  0  0  0  0  0  0
    5.4074   66.7017   61.9367 H   0  0  0  0  0  0  0  0  0  0  0  0
    3.6003   67.0259   64.3697 H   0  0  0  0  0  0  0  0  0  0  0  0
    5.2920   66.3344   64.2686 H   0  0  0  0  0  0  0  0  0  0  0  0
    0.7624   67.6118   63.5733 H   0  0  0  0  0  0  0  0  0  0  0  0
    0.8503   67.3418   65.3372 H   0  0  0  0  0  0  0  0  0  0  0  0
   -0.2707   69.9852   64.6458 H   0  0  0  0  0  0  0  0  0  0  0  0
   -1.2153   68.5629   63.9583 H   0  0  0  0  0  0  0  0  0  0  0  0
   -3.2795   68.6749   66.8483 H   0  0  0  0  0  0  0  0  0  0  0  0
   -3.0691   69.5765   65.3089 H   0  0  0  0  0  0  0  0  0  0  0  0
   -3.0407   67.7804   65.3089 H   0  0  0  0  0  0  0  0  0  0  0  0
   -0.6138   66.6453   65.8929 H   0  0  0  0  0  0  0  0  0  0  0  0
    0.1337   67.5744   67.2825 H   0  0  0  0  0  0  0  0  0  0  0  0
   -1.4480   66.9465   68.7189 H   0  0  0  0  0  0  0  0  0  0  0  0
   -2.7693   67.1832   67.5253 H   0  0  0  0  0  0  0  0  0  0  0  0
   -1.8217   65.6571   67.5253 H   0  0  0  0  0  0  0  0  0  0  0  0
   -0.7540   70.7827   66.4642 H   0  0  0  0  0  0  0  0  0  0  0  0
   -1.6768   69.9377   67.8021 H   0  0  0  0  0  0  0  0  0  0  0  0
    0.2113   69.6669   68.9105 H   0  0  0  0  0  0  0  0  0  0  0  0
    0.8278   68.6415   67.5707 H   0  0  0  0  0  0  0  0  0  0  0  0
    1.1500   70.4087   67.5707 H   0  0  0  0  0  0  0  0  0  0  0  0
  2  1  1  0
  3  2  2  0
  4  3  1  0
  5  4  2  0
  6  5  1  0
  7  2  1  0
  7  6  2  0
  8  1  1  0
  9  8  1  0
 11 10  1  0
 11  8  1  0
 12  1  1  0
 13 12  2  0
 14 12  1  0
 15 14  1  0
 16 15  1  0
 17 16  1  0
 18 17  1  0
 19 17  1  0
 20 19  1  0
 21 17  1  0
 22 21  1  0
  1 23  1  6
  3 24  1  0
  4 25  1  0
  5 26  1  0
  6 27  1  0
  7 28  1  0
  8 29  1  1
  9 30  1  0
  9 31  1  0
  9 32  1  0
 10 33  1  0
 10 34  1  0
 10 35  1  0
 11 36  1  0
 11 37  1  0
 15 38  1  0
 15 39  1  0
 16 40  1  0
 16 41  1  0
 18 42  1  0
 18 43  1  0
 18 44  1  0
 19 45  1  0
 19 46  1  0
 20 47  1  0
 20 48  1  0
 20 49  1  0
 21 50  1  0
 21 51  1  0
 22 52  1  0
 22 53  1  0
 22 54  1  0
M  CHG  1  17   1
M  END
>  <score>  (1) 
-8.164

$$$$
=
     RDKit          3D

 54 54  0  0  0  0  0  0  0  0999 V2000
    3.8830   69.1790   64.7570 C   0  0  1  0  0  0  0  0  0  0  0  0
    4.5310   69.6690   66.0450 C   0  0  0  0  0  0  0  0  0  0  0  0
    5.9130   69.9040   66.1190 C   0  0  0  0  0  0  0  0  0  0  0  0
    6.4940   70.3440   67.3110 C   0  0  0  0  0  0  0  0  0  0  0  0
    5.7030   70.5520   68.4380 C   0  0  0  0  0  0  0  0  0  0  0  0
    4.3300   70.3220   68.3770 C   0  0  0  0  0  0  0  0  0  0  0  0
    3.7460   69.8820   67.1890 C   0  0  0  0  0  0  0  0  0  0  0  0
    4.8620   68.4450   63.7870 C   0  0  2  0  0  0  0  0  0  0  0  0
    5.7100   69.4450   62.9820 C   0  0  0  0  0  0  0  0  0  0  0  0
    3.4620   68.2480   61.6340 C   0  0  0  0  0  0  0  0  0  0  0  0
    4.0740   67.5200   62.8230 C   0  0  0  0  0  0  0  0  0  0  0  0
    2.6830   68.3020   65.1210 C   0  0  0  0  0  0  0  0  0  0  0  0
    2.7300   67.2050   65.6650 O   0  0  0  0  0  0  0  0  0  0  0  0
    1.5100   68.9320   64.7960 O   0  0  0  0  0  0  0  0  0  0  0  0
    0.4020   68.0330   64.6460 C   0  0  0  0  0  0  0  0  0  0  0  0
   -0.8550   68.7320   65.1760 C   0  0  0  0  0  0  0  0  0  0  0  0
   -1.1530   68.5080   66.6900 N   0  0  0  0  0  4  0  0  0  0  0  0
   -0.7060   69.7310   67.4940 C   0  0  0  0  0  0  0  0  0  0  0  0
   -2.6790   68.2780   66.8700 C   0  0  0  0  0  0  0  0  0  0  0  0
   -3.5240   68.7840   65.7110 C   0  0  0  0  0  0  0  0  0  0  0  0
   -0.3910   67.2440   67.1720 C   0  0  0  0  0  0  0  0  0  0  0  0
    0.5620   67.4960   68.3300 C   0  0  0  0  0  0  0  0  0  0  0  0
    3.5543   70.0628   64.1905 H   0  0  0  0  0  0  0  0  0  0  0  0
    6.5430   69.7406   65.2322 H   0  0  0  0  0  0  0  0  0  0  0  0
    7.5777   70.5264   67.3593 H   0  0  0  0  0  0  0  0  0  0  0  0
    6.1618   70.8977   69.3761 H   0  0  0  0  0  0  0  0  0  0  0  0
    3.7055   70.4877   69.2673 H   0  0  0  0  0  0  0  0  0  0  0  0
    2.6618   69.7005   67.1484 H   0  0  0  0  0  0  0  0  0  0  0  0
    5.5431   67.8341   64.3977 H   0  0  0  0  0  0  0  0  0  0  0  0
    6.2630   70.0972   63.6740 H   0  0  0  0  0  0  0  0  0  0  0  0
    6.4216   68.8955   62.3482 H   0  0  0  0  0  0  0  0  0  0  0  0
    5.0516   70.0573   62.3482 H   0  0  0  0  0  0  0  0  0  0  0  0
    2.7935   69.0432   61.9955 H   0  0  0  0  0  0  0  0  0  0  0  0
    4.2627   68.6913   61.0238 H   0  0  0  0  0  0  0  0  0  0  0  0
    2.8877   67.5354   61.0238 H   0  0  0  0  0  0  0  0  0  0  0  0
    3.2631   67.0390   63.3897 H   0  0  0  0  0  0  0  0  0  0  0  0
    4.7935   66.7935   62.4174 H   0  0  0  0  0  0  0  0  0  0  0  0
    0.2681   67.7805   63.5838 H   0  0  0  0  0  0  0  0  0  0  0  0
    0.5864   67.1048   65.2067 H   0  0  0  0  0  0  0  0  0  0  0  0
   -0.7390   69.8130   65.0087 H   0  0  0  0  0  0  0  0  0  0  0  0
   -1.7019   68.2903   64.6304 H   0  0  0  0  0  0  0  0  0  0  0  0
   -0.7859   69.5123   68.5691 H   0  0  0  0  0  0  0  0  0  0  0  0
    0.3382   69.9716   67.2454 H   0  0  0  0  0  0  0  0  0  0  0  0
   -1.3489   70.5882   67.2454 H   0  0  0  0  0  0  0  0  0  0  0  0
   -2.8550   67.1978   66.9801 H   0  0  0  0  0  0  0  0  0  0  0  0
   -2.9836   68.8506   67.7584 H   0  0  0  0  0  0  0  0  0  0  0  0
   -4.4057   69.3120   66.1032 H   0  0  0  0  0  0  0  0  0  0  0  0
   -2.9273   69.4735   65.0958 H   0  0  0  0  0  0  0  0  0  0  0  0
   -3.8501   67.9324   65.0958 H   0  0  0  0  0  0  0  0  0  0  0  0
   -1.1312   66.4953   67.4907 H   0  0  0  0  0  0  0  0  0  0  0  0
    0.2226   66.9021   66.3255 H   0  0  0  0  0  0  0  0  0  0  0  0
    0.0283   67.3549   69.2814 H   0  0  0  0  0  0  0  0  0  0  0  0
    1.4031   66.7894   68.2731 H   0  0  0  0  0  0  0  0  0  0  0  0
    0.9439   68.5260   68.2731 H   0  0  0  0  0  0  0  0  0  0  0  0
  2  1  1  0
  3  2  2  0
  4  3  1  0
  5  4  2  0
  6  5  1  0
  7  2  1  0
  7  6  2  0
  8  1  1  0
  9  8  1  0
 11 10  1  0
 11  8  1  0
 12  1  1  0
 13 12  2  0
 14 12  1  0
 15 14  1  0
 16 15  1  0
 17 16  1  0
 18 17  1  0
 19 17  1  0
 20 19  1  0
 21 17  1  0
 22 21  1  0
  1 23  1  6
  3 24  1  0
  4 25  1  0
  5 26  1  0
  6 27  1  0
  7 28  1  0
  8 29  1  1
  9 30  1  0
  9 31  1  0
  9 32  1  0
 10 33  1  0
 10 34  1  0
 10 35  1  0
 11 36  1  0
 11 37  1  0
 15 38  1  0
 15 39  1  0
 16 40  1  0
 16 41  1  0
 18 42  1  0
 18 43  1  0
 18 44  1  0
 19 45  1  0
 19 46  1  0
 20 47  1  0
 20 48  1  0
 20 49  1  0
 21 50  1  0
 21 51  1  0
 22 52  1  0
 22 53  1  0
 22 54  1  0
M  CHG  1  17   1
M  END
>  <score>  (2) 
-7.827

$$$$
=
     RDKit          3D

 54 54  0  0  0  0  0  0  0  0999 V2000
    3.9670   68.6380   63.9880 C   0  0  1  0  0  0  0  0  0  0  0  0
    4.3910   69.2580   65.3140 C   0  0  0  0  0  0  0  0  0  0  0  0
    3.5220   69.2800   66.4160 C   0  0  0  0  0  0  0  0  0  0  0  0
    3.9220   69.8610   67.6210 C   0  0  0  0  0  0  0  0  0  0  0  0
    5.1890   70.4260   67.7380 C   0  0  0  0  0  0  0  0  0  0  0  0
    6.0610   70.4100   66.6510 C   0  0  0  0  0  0  0  0  0  0  0  0
    5.6660   69.8310   65.4440 C   0  0  0  0  0  0  0  0  0  0  0  0
    4.4120   67.1530   63.8050 C   0  0  2  0  0  0  0  0  0  0  0  0
    4.6000   66.8030   62.3190 C   0  0  0  0  0  0  0  0  0  0  0  0
    3.7240   64.7200   64.3050 C   0  0  0  0  0  0  0  0  0  0  0  0
    3.3740   66.1960   64.4480 C   0  0  0  0  0  0  0  0  0  0  0  0
    2.4520   68.7970   63.8420 C   0  0  0  0  0  0  0  0  0  0  0  0
    1.8250   68.7930   62.7890 O   0  0  0  0  0  0  0  0  0  0  0  0
    1.8580   68.9010   65.0720 O   0  0  0  0  0  0  0  0  0  0  0  0
    0.5280   68.3620   65.1100 C   0  0  0  0  0  0  0  0  0  0  0  0
    0.4740   67.3050   66.2200 C   0  0  0  0  0  0  0  0  0  0  0  0
   -0.1130   67.7980   67.5780 N   0  0  0  0  0  4  0  0  0  0  0  0
   -0.6110   69.2380   67.4380 C   0  0  0  0  0  0  0  0  0  0  0  0
   -1.2880   66.8640   67.9820 C   0  0  0  0  0  0  0  0  0  0  0  0
   -2.6380   67.2880   67.4240 C   0  0  0  0  0  0  0  0  0  0  0  0
    0.9920   67.7170   68.6650 C   0  0  0  0  0  0  0  0  0  0  0  0
    0.8190   66.5660   69.6440 C   0  0  0  0  0  0  0  0  0  0  0  0
    4.4890   69.1770   63.1837 H   0  0  0  0  0  0  0  0  0  0  0  0
    2.5191   68.8365   66.3298 H   0  0  0  0  0  0  0  0  0  0  0  0
    3.2346   69.8723   68.4797 H   0  0  0  0  0  0  0  0  0  0  0  0
    5.5016   70.8847   68.6877 H   0  0  0  0  0  0  0  0  0  0  0  0
    7.0628   70.8547   66.7445 H   0  0  0  0  0  0  0  0  0  0  0  0
    6.3582   69.8236   64.5891 H   0  0  0  0  0  0  0  0  0  0  0  0
    5.3808   67.0285   64.3108 H   0  0  0  0  0  0  0  0  0  0  0  0
    5.1189   65.8369   62.2326 H   0  0  0  0  0  0  0  0  0  0  0  0
    3.6165   66.7359   61.8308 H   0  0  0  0  0  0  0  0  0  0  0  0
    5.1990   67.5859   61.8308 H   0  0  0  0  0  0  0  0  0  0  0  0
    3.8307   64.2701   65.3031 H   0  0  0  0  0  0  0  0  0  0  0  0
    2.9231   64.2049   63.7543 H   0  0  0  0  0  0  0  0  0  0  0  0
    4.6709   64.6194   63.7543 H   0  0  0  0  0  0  0  0  0  0  0  0
    2.3995   66.3690   63.9680 H   0  0  0  0  0  0  0  0  0  0  0  0
    3.3593   66.4179   65.5253 H   0  0  0  0  0  0  0  0  0  0  0  0
   -0.1935   69.1643   65.3237 H   0  0  0  0  0  0  0  0  0  0  0  0
    0.2721   67.9099   64.1404 H   0  0  0  0  0  0  0  0  0  0  0  0
   -0.1466   66.4693   65.8643 H   0  0  0  0  0  0  0  0  0  0  0  0
    1.5174   67.0219   66.4231 H   0  0  0  0  0  0  0  0  0  0  0  0
   -0.7614   69.6728   68.4372 H   0  0  0  0  0  0  0  0  0  0  0  0
    0.1340   69.8318   66.8881 H   0  0  0  0  0  0  0  0  0  0  0  0
   -1.5637   69.2447   66.8881 H   0  0  0  0  0  0  0  0  0  0  0  0
   -1.0656   65.8508   67.6159 H   0  0  0  0  0  0  0  0  0  0  0  0
   -1.3686   66.9113   69.0780 H   0  0  0  0  0  0  0  0  0  0  0  0
   -3.3264   67.5042   68.2543 H   0  0  0  0  0  0  0  0  0  0  0  0
   -2.5128   68.1901   66.8071 H   0  0  0  0  0  0  0  0  0  0  0  0
   -3.0511   66.4763   66.8071 H   0  0  0  0  0  0  0  0  0  0  0  0
    1.9631   67.5992   68.1619 H   0  0  0  0  0  0  0  0  0  0  0  0
    0.9267   68.6447   69.2525 H   0  0  0  0  0  0  0  0  0  0  0  0
    0.8765   66.9487   70.6737 H   0  0  0  0  0  0  0  0  0  0  0  0
   -0.1605   66.0919   69.4832 H   0  0  0  0  0  0  0  0  0  0  0  0
    1.6158   65.8249   69.4832 H   0  0  0  0  0  0  0  0  0  0  0  0
  2  1  1  0
  3  2  2  0
  4  3  1  0
  5  4  2  0
  6  5  1  0
  7  2  1  0
  7  6  2  0
  8  1  1  0
  9  8  1  0
 11 10  1  0
 11  8  1  0
 12  1  1  0
 13 12  2  0
 14 12  1  0
 15 14  1  0
 16 15  1  0
 17 16  1  0
 18 17  1  0
 19 17  1  0
 20 19  1  0
 21 17  1  0
 22 21  1  0
  1 23  1  6
  3 24  1  0
  4 25  1  0
  5 26  1  0
  6 27  1  0
  7 28  1  0
  8 29  1  1
  9 30  1  0
  9 31  1  0
  9 32  1  0
 10 33  1  0
 10 34  1  0
 10 35  1  0
 11 36  1  0
 11 37  1  0
 15 38  1  0
 15 39  1  0
 16 40  1  0
 16 41  1  0
 18 42  1  0
 18 43  1  0
 18 44  1  0
 19 45  1  0
 19 46  1  0
 20 47  1  0
 20 48  1  0
 20 49  1  0
 21 50  1  0
 21 51  1  0
 22 52  1  0
 22 53  1  0
 22 54  1  0
M  CHG  1  17   1
M  END
>  <score>  (3) 
-7.317

$$$$
=
     RDKit          3D

 54 54  0  0  0  0  0  0  0  0999 V2000
    0.5110   63.7020   70.9640 C   0  0  1  0  0  0  0  0  0  0  0  0
    1.8880   63.2460   70.4970 C   0  0  0  0  0  0  0  0  0  0  0  0
    2.0490   62.0610   69.7620 C   0  0  0  0  0  0  0  0  0  0  0  0
    3.3190   61.6520   69.3490 C   0  0  0  0  0  0  0  0  0  0  0  0
    4.4380   62.4180   69.6660 C   0  0  0  0  0  0  0  0  0  0  0  0
    4.2900   63.5960   70.3960 C   0  0  0  0  0  0  0  0  0  0  0  0
    3.0230   64.0090   70.8110 C   0  0  0  0  0  0  0  0  0  0  0  0
    0.1780   63.3210   72.4410 C   0  0  2  0  0  0  0  0  0  0  0  0
    1.4570   63.1400   73.2760 C   0  0  0  0  0  0  0  0  0  0  0  0
    0.1300   60.7710   72.8070 C   0  0  0  0  0  0  0  0  0  0  0  0
   -0.6720   62.0250   72.4860 C   0  0  0  0  0  0  0  0  0  0  0  0
    0.3930   65.2090   70.7280 C   0  0  0  0  0  0  0  0  0  0  0  0
    0.0070   66.0390   71.5430 O   0  0  0  0  0  0  0  0  0  0  0  0
    0.8290   65.5350   69.4710 O   0  0  0  0  0  0  0  0  0  0  0  0
    0.7350   66.9370   69.1800 C   0  0  0  0  0  0  0  0  0  0  0  0
   -0.2880   67.1230   68.0530 C   0  0  0  0  0  0  0  0  0  0  0  0
    0.0180   68.2900   67.0640 N   0  0  0  0  0  4  0  0  0  0  0  0
    0.8780   69.3480   67.7580 C   0  0  0  0  0  0  0  0  0  0  0  0
    0.7710   67.7150   65.8310 C   0  0  0  0  0  0  0  0  0  0  0  0
    2.1180   68.3700   65.5670 C   0  0  0  0  0  0  0  0  0  0  0  0
   -1.3220   68.9150   66.5910 C   0  0  0  0  0  0  0  0  0  0  0  0
   -2.5260   67.9980   66.7500 C   0  0  0  0  0  0  0  0  0  0  0  0
   -0.2400   63.1610   70.3696 H   0  0  0  0  0  0  0  0  0  0  0  0
    1.1694   61.4506   69.5097 H   0  0  0  0  0  0  0  0  0  0  0  0
    3.4356   60.7227   68.7720 H   0  0  0  0  0  0  0  0  0  0  0  0
    5.4375   62.0937   69.3406 H   0  0  0  0  0  0  0  0  0  0  0  0
    5.1737   64.2016   70.6456 H   0  0  0  0  0  0  0  0  0  0  0  0
    2.9135   64.9390   71.3882 H   0  0  0  0  0  0  0  0  0  0  0  0
   -0.4011   64.1483   72.8772 H   0  0  0  0  0  0  0  0  0  0  0  0
    1.2044   63.1757   74.3460 H   0  0  0  0  0  0  0  0  0  0  0  0
    1.9148   62.1681   73.0396 H   0  0  0  0  0  0  0  0  0  0  0  0
    2.1665   63.9467   73.0396 H   0  0  0  0  0  0  0  0  0  0  0  0
    0.2053   60.6532   73.8981 H   0  0  0  0  0  0  0  0  0  0  0  0
   -0.3746   59.8930   72.3774 H   0  0  0  0  0  0  0  0  0  0  0  0
    1.1386   60.8609   72.3774 H   0  0  0  0  0  0  0  0  0  0  0  0
   -1.1485   61.8892   71.5039 H   0  0  0  0  0  0  0  0  0  0  0  0
   -1.4041   62.1517   73.2972 H   0  0  0  0  0  0  0  0  0  0  0  0
    0.4051   67.4824   70.0765 H   0  0  0  0  0  0  0  0  0  0  0  0
    1.7158   67.3286   68.8723 H   0  0  0  0  0  0  0  0  0  0  0  0
   -0.3302   66.1886   67.4741 H   0  0  0  0  0  0  0  0  0  0  0  0
   -1.2388   67.3797   68.5431 H   0  0  0  0  0  0  0  0  0  0  0  0
    0.7874   69.2365   68.8486 H   0  0  0  0  0  0  0  0  0  0  0  0
    1.9294   69.2176   67.4622 H   0  0  0  0  0  0  0  0  0  0  0  0
    0.5355   70.3506   67.4622 H   0  0  0  0  0  0  0  0  0  0  0  0
    0.9358   66.6401   65.9969 H   0  0  0  0  0  0  0  0  0  0  0  0
    0.1416   67.9167   64.9517 H   0  0  0  0  0  0  0  0  0  0  0  0
    2.6046   68.6066   66.5247 H   0  0  0  0  0  0  0  0  0  0  0  0
    2.7546   67.6808   64.9927 H   0  0  0  0  0  0  0  0  0  0  0  0
    1.9690   69.2963   64.9927 H   0  0  0  0  0  0  0  0  0  0  0  0
   -1.5033   69.8279   67.1773 H   0  0  0  0  0  0  0  0  0  0  0  0
   -1.2159   69.1153   65.5146 H   0  0  0  0  0  0  0  0  0  0  0  0
   -2.7299   67.8427   67.8197 H   0  0  0  0  0  0  0  0  0  0  0  0
   -3.4034   68.4587   66.2726 H   0  0  0  0  0  0  0  0  0  0  0  0
   -2.3150   67.0297   66.2726 H   0  0  0  0  0  0  0  0  0  0  0  0
  2  1  1  0
  3  2  2  0
  4  3  1  0
  5  4  2  0
  6  5  1  0
  7  2  1  0
  7  6  2  0
  8  1  1  0
  9  8  1  0
 11 10  1  0
 11  8  1  0
 12  1  1  0
 13 12  2  0
 14 12  1  0
 15 14  1  0
 16 15  1  0
 17 16  1  0
 18 17  1  0
 19 17  1  0
 20 19  1  0
 21 17  1  0
 22 21  1  0
  1 23  1  6
  3 24  1  0
  4 25  1  0
  5 26  1  0
  6 27  1  0
  7 28  1  0
  8 29  1  1
  9 30  1  0
  9 31  1  0
  9 32  1  0
 10 33  1  0
 10 34  1  0
 10 35  1  0
 11 36  1  0
 11 37  1  0
 15 38  1  0
 15 39  1  0
 16 40  1  0
 16 41  1  0
 18 42  1  0
 18 43  1  0
 18 44  1  0
 19 45  1  0
 19 46  1  0
 20 47  1  0
 20 48  1  0
 20 49  1  0
 21 50  1  0
 21 51  1  0
 22 52  1  0
 22 53  1  0
 22 54  1  0
M  CHG  1  17   1
M  END
>  <score>  (4) 
-7.244

$$$$
=
     RDKit          3D

 54 54  0  0  0  0  0  0  0  0999 V2000
    0.4730   63.3810   71.0450 C   0  0  1  0  0  0  0  0  0  0  0  0
    1.8810   63.0980   70.5360 C   0  0  0  0  0  0  0  0  0  0  0  0
    2.9630   63.9140   70.9020 C   0  0  0  0  0  0  0  0  0  0  0  0
    4.2460   63.6480   70.4190 C   0  0  0  0  0  0  0  0  0  0  0  0
    4.4610   62.5680   69.5660 C   0  0  0  0  0  0  0  0  0  0  0  0
    3.3950   61.7510   69.1960 C   0  0  0  0  0  0  0  0  0  0  0  0
    2.1110   62.0130   69.6760 C   0  0  0  0  0  0  0  0  0  0  0  0
    0.2220   62.9260   72.5170 C   0  0  2  0  0  0  0  0  0  0  0  0
    1.5210   62.9500   73.3410 C   0  0  0  0  0  0  0  0  0  0  0  0
    0.6110   60.3980   72.8300 C   0  0  0  0  0  0  0  0  0  0  0  0
   -0.3960   61.5040   72.5450 C   0  0  0  0  0  0  0  0  0  0  0  0
    0.1800   64.8710   70.8560 C   0  0  0  0  0  0  0  0  0  0  0  0
   -0.0140   65.6870   71.7490 O   0  0  0  0  0  0  0  0  0  0  0  0
    0.2060   65.2010   69.5260 O   0  0  0  0  0  0  0  0  0  0  0  0
   -0.1520   66.5670   69.2710 C   0  0  0  0  0  0  0  0  0  0  0  0
    1.1120   67.3190   68.8380 C   0  0  0  0  0  0  0  0  0  0  0  0
    0.9730   68.1510   67.5260 N   0  0  0  0  0  4  0  0  0  0  0  0
    1.5310   67.3540   66.3440 C   0  0  0  0  0  0  0  0  0  0  0  0
   -0.5300   68.4690   67.2930 C   0  0  0  0  0  0  0  0  0  0  0  0
   -0.8790   68.7900   65.8470 C   0  0  0  0  0  0  0  0  0  0  0  0
    1.7520   69.4840   67.6880 C   0  0  0  0  0  0  0  0  0  0  0  0
    3.0970   69.5090   66.9770 C   0  0  0  0  0  0  0  0  0  0  0  0
   -0.2263   62.7738   70.4514 H   0  0  0  0  0  0  0  0  0  0  0  0
    2.7991   64.7692   71.5742 H   0  0  0  0  0  0  0  0  0  0  0  0
    5.0879   64.2922   70.7125 H   0  0  0  0  0  0  0  0  0  0  0  0
    5.4717   62.3604   69.1848 H   0  0  0  0  0  0  0  0  0  0  0  0
    3.5658   60.8972   68.5238 H   0  0  0  0  0  0  0  0  0  0  0  0
    1.2736   61.3648   69.3783 H   0  0  0  0  0  0  0  0  0  0  0  0
   -0.4847   63.6365   72.9706 H   0  0  0  0  0  0  0  0  0  0  0  0
    1.2752   62.9455   74.4132 H   0  0  0  0  0  0  0  0  0  0  0  0
    2.1249   62.0629   73.0995 H   0  0  0  0  0  0  0  0  0  0  0  0
    2.0917   63.8588   73.0995 H   0  0  0  0  0  0  0  0  0  0  0  0
    0.7228   60.2752   73.9174 H   0  0  0  0  0  0  0  0  0  0  0  0
    0.2547   59.4552   72.3892 H   0  0  0  0  0  0  0  0  0  0  0  0
    1.5829   60.6646   72.3892 H   0  0  0  0  0  0  0  0  0  0  0  0
   -0.8577   61.3079   71.5660 H   0  0  0  0  0  0  0  0  0  0  0  0
   -1.1263   61.4899   73.3674 H   0  0  0  0  0  0  0  0  0  0  0  0
   -0.9049   66.6117   68.4703 H   0  0  0  0  0  0  0  0  0  0  0  0
   -0.5758   67.0249   70.1770 H   0  0  0  0  0  0  0  0  0  0  0  0
    1.3934   68.0069   69.6490 H   0  0  0  0  0  0  0  0  0  0  0  0
    1.8700   66.5489   68.6323 H   0  0  0  0  0  0  0  0  0  0  0  0
    2.1239   66.5072   66.7200 H   0  0  0  0  0  0  0  0  0  0  0  0
    0.6993   66.9760   65.7314 H   0  0  0  0  0  0  0  0  0  0  0  0
    2.1708   68.0062   65.7314 H   0  0  0  0  0  0  0  0  0  0  0  0
   -1.1207   67.5952   67.6054 H   0  0  0  0  0  0  0  0  0  0  0  0
   -0.7595   69.3689   67.8825 H   0  0  0  0  0  0  0  0  0  0  0  0
   -1.6884   69.5345   65.8217 H   0  0  0  0  0  0  0  0  0  0  0  0
    0.0076   69.1948   65.3370 H   0  0  0  0  0  0  0  0  0  0  0  0
   -1.2084   67.8727   65.3370 H   0  0  0  0  0  0  0  0  0  0  0  0
    1.1322   70.2975   67.2830 H   0  0  0  0  0  0  0  0  0  0  0  0
    1.9592   69.6013   68.7619 H   0  0  0  0  0  0  0  0  0  0  0  0
    3.9056   69.5240   67.7226 H   0  0  0  0  0  0  0  0  0  0  0  0
    3.1955   68.6125   66.3472 H   0  0  0  0  0  0  0  0  0  0  0  0
    3.1622   70.4085   66.3472 H   0  0  0  0  0  0  0  0  0  0  0  0
  2  1  1  0
  3  2  2  0
  4  3  1  0
  5  4  2  0
  6  5  1  0
  7  2  1  0
  7  6  2  0
  8  1  1  0
  9  8  1  0
 11 10  1  0
 11  8  1  0
 12  1  1  0
 13 12  2  0
 14 12  1  0
 15 14  1  0
 16 15  1  0
 17 16  1  0
 18 17  1  0
 19 17  1  0
 20 19  1  0
 21 17  1  0
 22 21  1  0
  1 23  1  6
  3 24  1  0
  4 25  1  0
  5 26  1  0
  6 27  1  0
  7 28  1  0
  8 29  1  1
  9 30  1  0
  9 31  1  0
  9 32  1  0
 10 33  1  0
 10 34  1  0
 10 35  1  0
 11 36  1  0
 11 37  1  0
 15 38  1  0
 15 39  1  0
 16 40  1  0
 16 41  1  0
 18 42  1  0
 18 43  1  0
 18 44  1  0
 19 45  1  0
 19 46  1  0
 20 47  1  0
 20 48  1  0
 20 49  1  0
 21 50  1  0
 21 51  1  0
 22 52  1  0
 22 53  1  0
 22 54  1  0
M  CHG  1  17   1
M  END
>  <score>  (5) 
-7.155

$$$$
=
     RDKit          3D

 54 54  0  0  0  0  0  0  0  0999 V2000
    3.1340   68.1980   63.9610 C   0  0  1  0  0  0  0  0  0  0  0  0
    3.4960   66.7220   64.0730 C   0  0  0  0  0  0  0  0  0  0  0  0
    3.0340   65.9410   65.1450 C   0  0  0  0  0  0  0  0  0  0  0  0
    3.3820   64.5930   65.2390 C   0  0  0  0  0  0  0  0  0  0  0  0
    4.1930   64.0110   64.2680 C   0  0  0  0  0  0  0  0  0  0  0  0
    4.6570   64.7760   63.2000 C   0  0  0  0  0  0  0  0  0  0  0  0
    4.3130   66.1240   63.1020 C   0  0  0  0  0  0  0  0  0  0  0  0
    4.3580   69.1420   63.7380 C   0  0  2  0  0  0  0  0  0  0  0  0
    5.1820   68.7100   62.5130 C   0  0  0  0  0  0  0  0  0  0  0  0
    4.5610   69.6990   66.2450 C   0  0  0  0  0  0  0  0  0  0  0  0
    5.2580   69.1660   65.0000 C   0  0  0  0  0  0  0  0  0  0  0  0
    2.0870   68.3580   62.8570 C   0  0  0  0  0  0  0  0  0  0  0  0
    2.2840   68.8170   61.7380 O   0  0  0  0  0  0  0  0  0  0  0  0
    0.8750   67.8690   63.2680 O   0  0  0  0  0  0  0  0  0  0  0  0
    0.2230   68.7010   64.2370 C   0  0  0  0  0  0  0  0  0  0  0  0
    0.1980   67.9490   65.5730 C   0  0  0  0  0  0  0  0  0  0  0  0
   -0.9670   68.3390   66.5340 N   0  0  0  0  0  4  0  0  0  0  0  0
   -2.0830   69.0280   65.7450 C   0  0  0  0  0  0  0  0  0  0  0  0
   -1.5090   67.0500   67.2110 C   0  0  0  0  0  0  0  0  0  0  0  0
   -0.7710   66.6600   68.4840 C   0  0  0  0  0  0  0  0  0  0  0  0
   -0.4190   69.2930   67.6300 C   0  0  0  0  0  0  0  0  0  0  0  0
    1.0970   69.4270   67.6370 C   0  0  0  0  0  0  0  0  0  0  0  0
    2.7213   68.5159   64.9298 H   0  0  0  0  0  0  0  0  0  0  0  0
    2.3936   66.3950   65.9156 H   0  0  0  0  0  0  0  0  0  0  0  0
    3.0150   63.9888   66.0818 H   0  0  0  0  0  0  0  0  0  0  0  0
    4.4670   62.9484   64.3441 H   0  0  0  0  0  0  0  0  0  0  0  0
    5.2962   64.3157   62.4322 H   0  0  0  0  0  0  0  0  0  0  0  0
    4.6849   66.7225   62.2574 H   0  0  0  0  0  0  0  0  0  0  0  0
    3.9709   70.1546   63.5512 H   0  0  0  0  0  0  0  0  0  0  0  0
    6.1099   68.2235   62.8483 H   0  0  0  0  0  0  0  0  0  0  0  0
    4.5956   68.0033   61.9074 H   0  0  0  0  0  0  0  0  0  0  0  0
    5.4297   69.5942   61.9074 H   0  0  0  0  0  0  0  0  0  0  0  0
    5.0666   69.3124   67.1422 H   0  0  0  0  0  0  0  0  0  0  0  0
    4.6021   70.7982   66.2460 H   0  0  0  0  0  0  0  0  0  0  0  0
    3.5109   69.3713   66.2460 H   0  0  0  0  0  0  0  0  0  0  0  0
    6.1299   69.8034   64.7915 H   0  0  0  0  0  0  0  0  0  0  0  0
    5.5380   68.1237   65.2124 H   0  0  0  0  0  0  0  0  0  0  0  0
    0.7768   69.6446   64.3509 H   0  0  0  0  0  0  0  0  0  0  0  0
   -0.8019   68.9326   63.9115 H   0  0  0  0  0  0  0  0  0  0  0  0
    0.1148   66.8737   65.3565 H   0  0  0  0  0  0  0  0  0  0  0  0
    1.1274   68.2223   66.0941 H   0  0  0  0  0  0  0  0  0  0  0  0
   -2.8052   69.4739   66.4447 H   0  0  0  0  0  0  0  0  0  0  0  0
   -1.6511   69.8169   65.1116 H   0  0  0  0  0  0  0  0  0  0  0  0
   -2.5947   68.2884   65.1116 H   0  0  0  0  0  0  0  0  0  0  0  0
   -2.5682   67.2101   67.4609 H   0  0  0  0  0  0  0  0  0  0  0  0
   -1.3614   66.2288   66.4942 H   0  0  0  0  0  0  0  0  0  0  0  0
   -1.3600   66.9713   69.3593 H   0  0  0  0  0  0  0  0  0  0  0  0
   -0.6295   65.5694   68.5063 H   0  0  0  0  0  0  0  0  0  0  0  0
    0.2098   67.1575   68.5063 H   0  0  0  0  0  0  0  0  0  0  0  0
   -0.8531   70.2906   67.4679 H   0  0  0  0  0  0  0  0  0  0  0  0
   -0.7031   68.8580   68.5996 H   0  0  0  0  0  0  0  0  0  0  0  0
    1.4575   69.4589   68.6758 H   0  0  0  0  0  0  0  0  0  0  0  0
    1.5437   68.5648   67.1201 H   0  0  0  0  0  0  0  0  0  0  0  0
    1.3855   70.3542   67.1201 H   0  0  0  0  0  0  0  0  0  0  0  0
  2  1  1  0
  3  2  2  0
  4  3  1  0
  5  4  2  0
  6  5  1  0
  7  2  1  0
  7  6  2  0
  8  1  1  0
  9  8  1  0
 11 10  1  0
 11  8  1  0
 12  1  1  0
 13 12  2  0
 14 12  1  0
 15 14  1  0
 16 15  1  0
 17 16  1  0
 18 17  1  0
 19 17  1  0
 20 19  1  0
 21 17  1  0
 22 21  1  0
  1 23  1  1
  3 24  1  0
  4 25  1  0
  5 26  1  0
  6 27  1  0
  7 28  1  0
  8 29  1  6
  9 30  1  0
  9 31  1  0
  9 32  1  0
 10 33  1  0
 10 34  1  0
 10 35  1  0
 11 36  1  0
 11 37  1  0
 15 38  1  0
 15 39  1  0
 16 40  1  0
 16 41  1  0
 18 42  1  0
 18 43  1  0
 18 44  1  0
 19 45  1  0
 19 46  1  0
 20 47  1  0
 20 48  1  0
 20 49  1  0
 21 50  1  0
 21 51  1  0
 22 52  1  0
 22 53  1  0
 22 54  1  0
M  CHG  1  17   1
M  END
>  <score>  (6) 
-7.084

$$$$
=
     RDKit          3D

 54 54  0  0  0  0  0  0  0  0999 V2000
    1.8200   63.7550   71.5170 C   0  0  1  0  0  0  0  0  0  0  0  0
    1.1960   62.5070   72.1290 C   0  0  0  0  0  0  0  0  0  0  0  0
   -0.1980   62.3500   72.1950 C   0  0  0  0  0  0  0  0  0  0  0  0
   -0.7550   61.2050   72.7670 C   0  0  0  0  0  0  0  0  0  0  0  0
    0.0710   60.2080   73.2800 C   0  0  0  0  0  0  0  0  0  0  0  0
    1.4550   60.3520   73.2210 C   0  0  0  0  0  0  0  0  0  0  0  0
    2.0170   61.4950   72.6500 C   0  0  0  0  0  0  0  0  0  0  0  0
    2.6950   63.4800   70.2540 C   0  0  2  0  0  0  0  0  0  0  0  0
    2.3890   62.0980   69.6510 C   0  0  0  0  0  0  0  0  0  0  0  0
    4.9150   62.2380   70.6630 C   0  0  0  0  0  0  0  0  0  0  0  0
    4.2010   63.5820   70.6080 C   0  0  0  0  0  0  0  0  0  0  0  0
    0.7040   64.7610   71.2240 C   0  0  0  0  0  0  0  0  0  0  0  0
   -0.0570   65.2550   72.0480 O   0  0  0  0  0  0  0  0  0  0  0  0
    0.6890   65.0890   69.8940 O   0  0  0  0  0  0  0  0  0  0  0  0
    0.0350   66.3370   69.6210 C   0  0  0  0  0  0  0  0  0  0  0  0
    1.0350   67.2540   68.9070 C   0  0  0  0  0  0  0  0  0  0  0  0
    0.5410   67.8470   67.5520 N   0  0  0  0  0  4  0  0  0  0  0  0
    0.3790   69.3640   67.6760 C   0  0  0  0  0  0  0  0  0  0  0  0
    1.5850   67.5110   66.4500 C   0  0  0  0  0  0  0  0  0  0  0  0
    2.4190   68.7020   66.0020 C   0  0  0  0  0  0  0  0  0  0  0  0
   -0.8160   67.1930   67.1780 C   0  0  0  0  0  0  0  0  0  0  0  0
   -1.8160   68.1500   66.5470 C   0  0  0  0  0  0  0  0  0  0  0  0
    2.5277   64.1690   72.2503 H   0  0  0  0  0  0  0  0  0  0  0  0
   -0.8556   63.1349   71.7931 H   0  0  0  0  0  0  0  0  0  0  0  0
   -1.8480   61.0900   72.8126 H   0  0  0  0  0  0  0  0  0  0  0  0
   -0.3696   59.3070   73.7317 H   0  0  0  0  0  0  0  0  0  0  0  0
    2.1066   59.5633   73.6252 H   0  0  0  0  0  0  0  0  0  0  0  0
    3.1109   61.6033   72.6081 H   0  0  0  0  0  0  0  0  0  0  0  0
    2.4482   64.2442   69.5023 H   0  0  0  0  0  0  0  0  0  0  0  0
    2.2282   61.3718   70.4614 H   0  0  0  0  0  0  0  0  0  0  0  0
    1.4831   62.1612   69.0302 H   0  0  0  0  0  0  0  0  0  0  0  0
    3.2369   61.7729   69.0302 H   0  0  0  0  0  0  0  0  0  0  0  0
    5.0693   61.9475   71.7127 H   0  0  0  0  0  0  0  0  0  0  0  0
    4.3025   61.4765   70.1580 H   0  0  0  0  0  0  0  0  0  0  0  0
    5.8889   62.3192   70.1580 H   0  0  0  0  0  0  0  0  0  0  0  0
    4.2934   64.0637   71.5926 H   0  0  0  0  0  0  0  0  0  0  0  0
    4.6785   64.1643   69.8062 H   0  0  0  0  0  0  0  0  0  0  0  0
   -0.8398   66.1661   68.9764 H   0  0  0  0  0  0  0  0  0  0  0  0
   -0.3052   66.8014   70.5583 H   0  0  0  0  0  0  0  0  0  0  0  0
    1.2691   68.0919   69.5801 H   0  0  0  0  0  0  0  0  0  0  0  0
    1.9064   66.6272   68.6665 H   0  0  0  0  0  0  0  0  0  0  0  0
    0.3491   69.6439   68.7394 H   0  0  0  0  0  0  0  0  0  0  0  0
    1.2288   69.8645   67.1889 H   0  0  0  0  0  0  0  0  0  0  0  0
   -0.5573   69.6738   67.1889 H   0  0  0  0  0  0  0  0  0  0  0  0
    2.2653   66.7405   66.8418 H   0  0  0  0  0  0  0  0  0  0  0  0
    1.0196   67.1702   65.5701 H   0  0  0  0  0  0  0  0  0  0  0  0
    2.7952   69.2392   66.8851 H   0  0  0  0  0  0  0  0  0  0  0  0
    3.2681   68.3488   65.3985 H   0  0  0  0  0  0  0  0  0  0  0  0
    1.7967   69.3791   65.3985 H   0  0  0  0  0  0  0  0  0  0  0  0
   -0.6214   66.3779   66.4654 H   0  0  0  0  0  0  0  0  0  0  0  0
   -1.2661   66.8392   68.1173 H   0  0  0  0  0  0  0  0  0  0  0  0
   -2.3678   68.6781   67.3386 H   0  0  0  0  0  0  0  0  0  0  0  0
   -1.2807   68.8808   65.9231 H   0  0  0  0  0  0  0  0  0  0  0  0
   -2.5226   67.5831   65.9231 H   0  0  0  0  0  0  0  0  0  0  0  0
  2  1  1  0
  3  2  2  0
  4  3  1  0
  5  4  2  0
  6  5  1  0
  7  2  1  0
  7  6  2  0
  8  1  1  0
  9  8  1  0
 11 10  1  0
 11  8  1  0
 12  1  1  0
 13 12  2  0
 14 12  1  0
 15 14  1  0
 16 15  1  0
 17 16  1  0
 18 17  1  0
 19 17  1  0
 20 19  1  0
 21 17  1  0
 22 21  1  0
  1 23  1  1
  3 24  1  0
  4 25  1  0
  5 26  1  0
  6 27  1  0
  7 28  1  0
  8 29  1  6
  9 30  1  0
  9 31  1  0
  9 32  1  0
 10 33  1  0
 10 34  1  0
 10 35  1  0
 11 36  1  0
 11 37  1  0
 15 38  1  0
 15 39  1  0
 16 40  1  0
 16 41  1  0
 18 42  1  0
 18 43  1  0
 18 44  1  0
 19 45  1  0
 19 46  1  0
 20 47  1  0
 20 48  1  0
 20 49  1  0
 21 50  1  0
 21 51  1  0
 22 52  1  0
 22 53  1  0
 22 54  1  0
M  CHG  1  17   1
M  END
>  <score>  (7) 
-6.913

$$$$
=
     RDKit          3D

 54 54  0  0  0  0  0  0  0  0999 V2000
    2.7650   62.1330   71.4490 C   0  0  1  0  0  0  0  0  0  0  0  0
    1.6050   62.2730   72.4270 C   0  0  0  0  0  0  0  0  0  0  0  0
    0.3680   61.6590   72.1790 C   0  0  0  0  0  0  0  0  0  0  0  0
   -0.6890   61.8050   73.0800 C   0  0  0  0  0  0  0  0  0  0  0  0
   -0.5220   62.5660   74.2350 C   0  0  0  0  0  0  0  0  0  0  0  0
    0.7020   63.1810   74.4920 C   0  0  0  0  0  0  0  0  0  0  0  0
    1.7600   63.0380   73.5940 C   0  0  0  0  0  0  0  0  0  0  0  0
    3.3510   63.4910   70.9520 C   0  0  2  0  0  0  0  0  0  0  0  0
    2.2380   64.4410   70.4760 C   0  0  0  0  0  0  0  0  0  0  0  0
    3.7440   62.7220   68.5240 C   0  0  0  0  0  0  0  0  0  0  0  0
    4.3700   63.2530   69.8070 C   0  0  0  0  0  0  0  0  0  0  0  0
    3.8400   61.2560   72.0950 C   0  0  0  0  0  0  0  0  0  0  0  0
    4.6640   61.6190   72.9260 O   0  0  0  0  0  0  0  0  0  0  0  0
    3.7360   59.9630   71.6520 O   0  0  0  0  0  0  0  0  0  0  0  0
    3.6710   59.0000   72.7140 C   0  0  0  0  0  0  0  0  0  0  0  0
    2.2880   58.3380   72.6750 C   0  0  0  0  0  0  0  0  0  0  0  0
    1.7910   57.7560   74.0330 N   0  0  0  0  0  4  0  0  0  0  0  0
    2.9510   57.7020   75.0310 C   0  0  0  0  0  0  0  0  0  0  0  0
    0.6570   58.6670   74.5820 C   0  0  0  0  0  0  0  0  0  0  0  0
    1.1070   59.6310   75.6690 C   0  0  0  0  0  0  0  0  0  0  0  0
    1.2240   56.3310   73.7940 C   0  0  0  0  0  0  0  0  0  0  0  0
   -0.2800   56.2910   73.5690 C   0  0  0  0  0  0  0  0  0  0  0  0
    2.3773   61.6566   70.5365 H   0  0  0  0  0  0  0  0  0  0  0  0
    0.2297   61.0581   71.2681 H   0  0  0  0  0  0  0  0  0  0  0  0
   -1.6546   61.3186   72.8775 H   0  0  0  0  0  0  0  0  0  0  0  0
   -1.3555   62.6814   74.9435 H   0  0  0  0  0  0  0  0  0  0  0  0
    0.8341   63.7804   75.4048 H   0  0  0  0  0  0  0  0  0  0  0  0
    2.7226   63.5281   73.8018 H   0  0  0  0  0  0  0  0  0  0  0  0
    3.8657   63.9644   71.8011 H   0  0  0  0  0  0  0  0  0  0  0  0
    1.7288   64.8756   71.3488 H   0  0  0  0  0  0  0  0  0  0  0  0
    2.6779   65.2464   69.8695 H   0  0  0  0  0  0  0  0  0  0  0  0
    1.5117   63.8801   69.8695 H   0  0  0  0  0  0  0  0  0  0  0  0
    2.9271   62.0291   68.7741 H   0  0  0  0  0  0  0  0  0  0  0  0
    3.3454   63.5616   67.9357 H   0  0  0  0  0  0  0  0  0  0  0  0
    4.5074   62.1918   67.9357 H   0  0  0  0  0  0  0  0  0  0  0  0
    5.1177   62.5249   70.1546 H   0  0  0  0  0  0  0  0  0  0  0  0
    4.8128   64.2305   69.5654 H   0  0  0  0  0  0  0  0  0  0  0  0
    4.4526   58.2386   72.5749 H   0  0  0  0  0  0  0  0  0  0  0  0
    3.8297   59.4927   73.6846 H   0  0  0  0  0  0  0  0  0  0  0  0
    1.5596   59.0915   72.3410 H   0  0  0  0  0  0  0  0  0  0  0  0
    2.3795   57.4811   71.9914 H   0  0  0  0  0  0  0  0  0  0  0  0
    2.5535   57.7205   76.0565 H   0  0  0  0  0  0  0  0  0  0  0  0
    3.5246   56.7762   74.8767 H   0  0  0  0  0  0  0  0  0  0  0  0
    3.6082   58.5705   74.8767 H   0  0  0  0  0  0  0  0  0  0  0  0
    0.2504   59.2546   73.7457 H   0  0  0  0  0  0  0  0  0  0  0  0
   -0.0918   58.0022   75.0374 H   0  0  0  0  0  0  0  0  0  0  0  0
    0.9020   59.1918   76.6564 H   0  0  0  0  0  0  0  0  0  0  0  0
    2.1861   59.8193   75.5683 H   0  0  0  0  0  0  0  0  0  0  0  0
    0.5584   60.5791   75.5683 H   0  0  0  0  0  0  0  0  0  0  0  0
    1.7174   55.9071   72.9070 H   0  0  0  0  0  0  0  0  0  0  0  0
    1.4236   55.7526   74.7081 H   0  0  0  0  0  0  0  0  0  0  0  0
   -0.7958   56.2773   74.5405 H   0  0  0  0  0  0  0  0  0  0  0  0
   -0.5897   57.1812   73.0019 H   0  0  0  0  0  0  0  0  0  0  0  0
   -0.5420   55.3856   73.0019 H   0  0  0  0  0  0  0  0  0  0  0  0
  2  1  1  0
  3  2  2  0
  4  3  1  0
  5  4  2  0
  6  5  1  0
  7  2  1  0
  7  6  2  0
  8  1  1  0
  9  8  1  0
 11 10  1  0
 11  8  1  0
 12  1  1  0
 13 12  2  0
 14 12  1  0
 15 14  1  0
 16 15  1  0
 17 16  1  0
 18 17  1  0
 19 17  1  0
 20 19  1  0
 21 17  1  0
 22 21  1  0
  1 23  1  6
  3 24  1  0
  4 25  1  0
  5 26  1  0
  6 27  1  0
  7 28  1  0
  8 29  1  1
  9 30  1  0
  9 31  1  0
  9 32  1  0
 10 33  1  0
 10 34  1  0
 10 35  1  0
 11 36  1  0
 11 37  1  0
 15 38  1  0
 15 39  1  0
 16 40  1  0
 16 41  1  0
 18 42  1  0
 18 43  1  0
 18 44  1  0
 19 45  1  0
 19 46  1  0
 20 47  1  0
 20 48  1  0
 20 49  1  0
 21 50  1  0
 21 51  1  0
 22 52  1  0
 22 53  1  0
 22 54  1  0
M  CHG  1  17   1
M  END
>  <score>  (8) 
-6.526

$$$$
=
     RDKit          3D

 54 54  0  0  0  0  0  0  0  0999 V2000
    3.1590   61.3680   71.2670 C   0  0  1  0  0  0  0  0  0  0  0  0
    2.2640   62.5910   71.1150 C   0  0  0  0  0  0  0  0  0  0  0  0
    2.7940   63.8380   70.7460 C   0  0  0  0  0  0  0  0  0  0  0  0
    1.9620   64.9520   70.6210 C   0  0  0  0  0  0  0  0  0  0  0  0
    0.5950   64.8340   70.8620 C   0  0  0  0  0  0  0  0  0  0  0  0
    0.0570   63.6020   71.2290 C   0  0  0  0  0  0  0  0  0  0  0  0
    0.8850   62.4860   71.3570 C   0  0  0  0  0  0  0  0  0  0  0  0
    3.9120   60.9600   69.9620 C   0  0  2  0  0  0  0  0  0  0  0  0
    3.6310   61.9510   68.8190 C   0  0  0  0  0  0  0  0  0  0  0  0
    3.4880   58.5210   70.6750 C   0  0  0  0  0  0  0  0  0  0  0  0
    3.5070   59.5260   69.5310 C   0  0  0  0  0  0  0  0  0  0  0  0
    4.1290   61.6190   72.4240 C   0  0  0  0  0  0  0  0  0  0  0  0
    5.3160   61.9030   72.3220 O   0  0  0  0  0  0  0  0  0  0  0  0
    3.4770   61.5290   73.6260 O   0  0  0  0  0  0  0  0  0  0  0  0
    3.0190   60.2030   73.9300 C   0  0  0  0  0  0  0  0  0  0  0  0
    1.5590   60.2950   74.3870 C   0  0  0  0  0  0  0  0  0  0  0  0
    0.8940   58.9360   74.7650 N   0  0  0  0  0  4  0  0  0  0  0  0
    0.7170   58.8490   76.2830 C   0  0  0  0  0  0  0  0  0  0  0  0
   -0.4880   58.8430   74.0610 C   0  0  0  0  0  0  0  0  0  0  0  0
   -1.0130   60.1760   73.5470 C   0  0  0  0  0  0  0  0  0  0  0  0
    1.7950   57.7770   74.2630 C   0  0  0  0  0  0  0  0  0  0  0  0
    1.2020   56.9820   73.1100 C   0  0  0  0  0  0  0  0  0  0  0  0
    2.5128   60.5054   71.4869 H   0  0  0  0  0  0  0  0  0  0  0  0
    3.8725   63.9377   70.5541 H   0  0  0  0  0  0  0  0  0  0  0  0
    2.3866   65.9247   70.3317 H   0  0  0  0  0  0  0  0  0  0  0  0
   -0.0593   65.7127   70.7627 H   0  0  0  0  0  0  0  0  0  0  0  0
   -1.0226   63.5090   71.4182 H   0  0  0  0  0  0  0  0  0  0  0  0
    0.4542   61.5171   71.6496 H   0  0  0  0  0  0  0  0  0  0  0  0
    4.9905   60.9821   70.1771 H   0  0  0  0  0  0  0  0  0  0  0  0
    3.3539   62.9283   69.2409 H   0  0  0  0  0  0  0  0  0  0  0  0
    4.5332   62.0616   68.1995 H   0  0  0  0  0  0  0  0  0  0  0  0
    2.8050   61.5716   68.1995 H   0  0  0  0  0  0  0  0  0  0  0  0
    3.4982   59.0580   71.6350 H   0  0  0  0  0  0  0  0  0  0  0  0
    2.5781   57.9065   70.6082 H   0  0  0  0  0  0  0  0  0  0  0  0
    4.3740   57.8726   70.6082 H   0  0  0  0  0  0  0  0  0  0  0  0
    4.2245   59.1760   68.7742 H   0  0  0  0  0  0  0  0  0  0  0  0
    2.4799   59.5872   69.1421 H   0  0  0  0  0  0  0  0  0  0  0  0
    3.0895   59.5697   73.0333 H   0  0  0  0  0  0  0  0  0  0  0  0
    3.6386   59.7589   74.7230 H   0  0  0  0  0  0  0  0  0  0  0  0
    1.5195   60.9502   75.2697 H   0  0  0  0  0  0  0  0  0  0  0  0
    0.9939   60.6821   73.5263 H   0  0  0  0  0  0  0  0  0  0  0  0
    1.5976   59.2818   76.7802 H   0  0  0  0  0  0  0  0  0  0  0  0
   -0.1831   59.4074   76.5798 H   0  0  0  0  0  0  0  0  0  0  0  0
    0.6093   57.7953   76.5798 H   0  0  0  0  0  0  0  0  0  0  0  0
   -0.3955   58.1555   73.2073 H   0  0  0  0  0  0  0  0  0  0  0  0
   -1.2057   58.4883   74.8154 H   0  0  0  0  0  0  0  0  0  0  0  0
   -1.2678   60.8230   74.3993 H   0  0  0  0  0  0  0  0  0  0  0  0
   -0.2396   60.6633   72.9351 H   0  0  0  0  0  0  0  0  0  0  0  0
   -1.9110   60.0051   72.9351 H   0  0  0  0  0  0  0  0  0  0  0  0
    2.7532   58.2035   73.9314 H   0  0  0  0  0  0  0  0  0  0  0  0
    1.9088   57.0775   75.1042 H   0  0  0  0  0  0  0  0  0  0  0  0
    0.5889   56.1601   73.5083 H   0  0  0  0  0  0  0  0  0  0  0  0
    0.5742   57.6424   72.4939 H   0  0  0  0  0  0  0  0  0  0  0  0
    2.0140   56.5684   72.4939 H   0  0  0  0  0  0  0  0  0  0  0  0
  2  1  1  0
  3  2  2  0
  4  3  1  0
  5  4  2  0
  6  5  1  0
  7  2  1  0
  7  6  2  0
  8  1  1  0
  9  8  1  0
 11 10  1  0
 11  8  1  0
 12  1  1  0
 13 12  2  0
 14 12  1  0
 15 14  1  0
 16 15  1  0
 17 16  1  0
 18 17  1  0
 19 17  1  0
 20 19  1  0
 21 17  1  0
 22 21  1  0
  1 23  1  1
  3 24  1  0
  4 25  1  0
  5 26  1  0
  6 27  1  0
  7 28  1  0
  8 29  1  1
  9 30  1  0
  9 31  1  0
  9 32  1  0
 10 33  1  0
 10 34  1  0
 10 35  1  0
 11 36  1  0
 11 37  1  0
 15 38  1  0
 15 39  1  0
 16 40  1  0
 16 41  1  0
 18 42  1  0
 18 43  1  0
 18 44  1  0
 19 45  1  0
 19 46  1  0
 20 47  1  0
 20 48  1  0
 20 49  1  0
 21 50  1  0
 21 51  1  0
 22 52  1  0
 22 53  1  0
 22 54  1  0
M  CHG  1  17   1
M  END
>  <score>  (9) 
-6.429

$$$$
