=
     RDKit          3D

 25 26  0  0  0  0  0  0  0  0999 V2000
    1.6000   68.1480   65.5490 S   0  0  0  0  0  6  0  0  0  0  0  0
    1.7600   66.7160   65.6940 O   0  0  0  0  0  0  0  0  0  0  0  0
    1.0750   68.7380   64.3380 O   0  0  0  0  0  0  0  0  0  0  0  0
    0.7550   68.6760   66.9160 N   0  0  0  0  0  0  0  0  0  0  0  0
   -0.6210   68.2190   66.9040 C   0  0  0  0  0  0  0  0  0  0  0  0
   -0.9570   67.2370   67.7020 N   0  0  0  0  0  0  0  0  0  0  0  0
   -2.3150   67.0060   67.5800 C   0  0  0  0  0  0  0  0  0  0  0  0
   -2.9900   67.8590   66.7300 C   0  0  0  0  0  0  0  0  0  0  0  0
   -1.8900   68.9950   66.0640 S   0  0  0  0  0  0  0  0  0  0  0  0
    5.6660   70.0930   66.3540 C   0  0  0  0  0  0  0  0  0  0  0  0
    5.3550   69.6060   65.0790 C   0  0  0  0  0  0  0  0  0  0  0  0
    4.1240   68.9940   64.8250 C   0  0  0  0  0  0  0  0  0  0  0  0
    3.1820   68.9020   65.8510 C   0  0  0  0  0  0  0  0  0  0  0  0
    3.4490   69.4440   67.1100 C   0  0  0  0  0  0  0  0  0  0  0  0
    4.6830   70.0520   67.3480 C   0  0  0  0  0  0  0  0  0  0  0  0
    6.8490   70.8080   66.5620 N   0  0  0  0  0  0  0  0  0  0  0  0
    1.1671   69.2512   67.6645 H   0  0  0  0  0  0  0  0  0  0  0  0
   -2.8235   66.1964   68.1241 H   0  0  0  0  0  0  0  0  0  0  0  0
   -4.0676   67.8169   66.5130 H   0  0  0  0  0  0  0  0  0  0  0  0
    6.0891   69.7062   64.2660 H   0  0  0  0  0  0  0  0  0  0  0  0
    3.9001   68.5892   63.8270 H   0  0  0  0  0  0  0  0  0  0  0  0
    2.6933   69.3923   67.9076 H   0  0  0  0  0  0  0  0  0  0  0  0
    4.8848   70.5047   68.3300 H   0  0  0  0  0  0  0  0  0  0  0  0
    7.0763   71.1656   67.5008 H   0  0  0  0  0  0  0  0  0  0  0  0
    7.4934   70.9772   65.7765 H   0  0  0  0  0  0  0  0  0  0  0  0
  2  1  2  0
  3  1  2  0
  4  1  1  0
  5  4  1  0
  6  5  2  0
  7  6  1  0
  8  7  2  0
  9  8  1  0
  9  5  1  0
 11 10  2  0
 12 11  1  0
 13 12  2  0
 13  1  1  0
 14 13  1  0
 15 14  2  0
 15 10  1  0
 16 10  1  0
  4 17  1  0
  7 18  1  0
  8 19  1  0
 11 20  1  0
 12 21  1  0
 14 22  1  0
 15 23  1  0
 16 24  1  0
 16 25  1  0
M  END
>  <score>  (1) 
-8.017

$$$$
=
     RDKit          3D

 25 26  0  0  0  0  0  0  0  0999 V2000
    1.1990   68.7160   67.9250 S   0  0  0  0  0  6  0  0  0  0  0  0
    0.3630   69.8950   68.0100 O   0  0  0  0  0  0  0  0  0  0  0  0
    1.4820   67.8960   69.0830 O   0  0  0  0  0  0  0  0  0  0  0  0
    0.5980   67.7930   66.6420 N   0  0  0  0  0  0  0  0  0  0  0  0
   -0.8130   68.0400   66.4210 C   0  0  0  0  0  0  0  0  0  0  0  0
   -1.1640   68.7710   65.3930 N   0  0  0  0  0  0  0  0  0  0  0  0
   -2.5450   68.8240   65.3330 C   0  0  0  0  0  0  0  0  0  0  0  0
   -3.2120   68.0840   66.2870 C   0  0  0  0  0  0  0  0  0  0  0  0
   -2.0740   67.2870   67.2930 S   0  0  0  0  0  0  0  0  0  0  0  0
    5.2410   69.9980   66.1970 C   0  0  0  0  0  0  0  0  0  0  0  0
    4.2730   69.4120   65.3730 C   0  0  0  0  0  0  0  0  0  0  0  0
    3.0430   69.0000   65.8920 C   0  0  0  0  0  0  0  0  0  0  0  0
    2.7660   69.2110   67.2450 C   0  0  0  0  0  0  0  0  0  0  0  0
    3.6920   69.8560   68.0660 C   0  0  0  0  0  0  0  0  0  0  0  0
    4.9180   70.2630   67.5320 C   0  0  0  0  0  0  0  0  0  0  0  0
    6.4160   70.5140   65.6430 N   0  0  0  0  0  0  0  0  0  0  0  0
    1.1646   67.1364   66.0863 H   0  0  0  0  0  0  0  0  0  0  0  0
   -3.0764   69.4173   64.5743 H   0  0  0  0  0  0  0  0  0  0  0  0
   -4.3053   68.0155   66.3872 H   0  0  0  0  0  0  0  0  0  0  0  0
    4.4836   69.2740   64.3022 H   0  0  0  0  0  0  0  0  0  0  0  0
    2.3003   68.5144   65.2420 H   0  0  0  0  0  0  0  0  0  0  0  0
    3.4590   70.0426   69.1247 H   0  0  0  0  0  0  0  0  0  0  0  0
    5.6374   70.7981   68.1692 H   0  0  0  0  0  0  0  0  0  0  0  0
    7.1265   70.9446   66.2517 H   0  0  0  0  0  0  0  0  0  0  0  0
    6.5713   70.4636   64.6260 H   0  0  0  0  0  0  0  0  0  0  0  0
  2  1  2  0
  3  1  2  0
  4  1  1  0
  5  4  1  0
  6  5  2  0
  7  6  1  0
  8  7  2  0
  9  8  1  0
  9  5  1  0
 11 10  2  0
 12 11  1  0
 13 12  2  0
 13  1  1  0
 14 13  1  0
 15 14  2  0
 15 10  1  0
 16 10  1  0
  4 17  1  0
  7 18  1  0
  8 19  1  0
 11 20  1  0
 12 21  1  0
 14 22  1  0
 15 23  1  0
 16 24  1  0
 16 25  1  0
M  END
>  <score>  (2) 
-7.639

$$$$
=
     RDKit          3D

 25 26  0  0  0  0  0  0  0  0999 V2000
    0.5700   67.9590   65.4130 S   0  0  0  0  0  6  0  0  0  0  0  0
    0.6480   66.5320   65.6500 O   0  0  0  0  0  0  0  0  0  0  0  0
   -0.3440   68.5230   64.4460 O   0  0  0  0  0  0  0  0  0  0  0  0
    0.3990   68.6870   66.9300 N   0  0  0  0  0  0  0  0  0  0  0  0
    0.3580   67.7040   67.9940 C   0  0  0  0  0  0  0  0  0  0  0  0
    1.4180   67.5580   68.7490 N   0  0  0  0  0  0  0  0  0  0  0  0
    1.1420   66.6250   69.7310 C   0  0  0  0  0  0  0  0  0  0  0  0
   -0.1440   66.1240   69.7340 C   0  0  0  0  0  0  0  0  0  0  0  0
   -1.0440   66.8490   68.4660 S   0  0  0  0  0  0  0  0  0  0  0  0
    4.7710   69.4180   64.3230 C   0  0  0  0  0  0  0  0  0  0  0  0
    3.9010   68.9600   63.3270 C   0  0  0  0  0  0  0  0  0  0  0  0
    2.6230   68.4960   63.6490 C   0  0  0  0  0  0  0  0  0  0  0  0
    2.2000   68.5240   64.9790 C   0  0  0  0  0  0  0  0  0  0  0  0
    3.0290   69.0410   65.9760 C   0  0  0  0  0  0  0  0  0  0  0  0
    4.3040   69.5020   65.6380 C   0  0  0  0  0  0  0  0  0  0  0  0
    5.9980   69.9900   63.9740 N   0  0  0  0  0  0  0  0  0  0  0  0
    0.3322   69.7039   67.0792 H   0  0  0  0  0  0  0  0  0  0  0  0
    1.8980   66.3029   70.4623 H   0  0  0  0  0  0  0  0  0  0  0  0
   -0.5320   65.3754   70.4404 H   0  0  0  0  0  0  0  0  0  0  0  0
    4.2277   68.9654   62.2766 H   0  0  0  0  0  0  0  0  0  0  0  0
    1.9568   68.1124   62.8622 H   0  0  0  0  0  0  0  0  0  0  0  0
    2.6815   69.0851   67.0187 H   0  0  0  0  0  0  0  0  0  0  0  0
    4.9484   69.9365   66.4164 H   0  0  0  0  0  0  0  0  0  0  0  0
    6.6369   70.3265   64.7085 H   0  0  0  0  0  0  0  0  0  0  0  0
    6.2631   70.0750   62.9823 H   0  0  0  0  0  0  0  0  0  0  0  0
  2  1  2  0
  3  1  2  0
  4  1  1  0
  5  4  1  0
  6  5  2  0
  7  6  1  0
  8  7  2  0
  9  8  1  0
  9  5  1  0
 11 10  2  0
 12 11  1  0
 13 12  2  0
 13  1  1  0
 14 13  1  0
 15 14  2  0
 15 10  1  0
 16 10  1  0
  4 17  1  0
  7 18  1  0
  8 19  1  0
 11 20  1  0
 12 21  1  0
 14 22  1  0
 15 23  1  0
 16 24  1  0
 16 25  1  0
M  END
>  <score>  (3) 
-7.549

$$$$
=
     RDKit          3D

 25 26  0  0  0  0  0  0  0  0999 V2000
    1.4310   67.7160   66.8010 S   0  0  0  0  0  6  0  0  0  0  0  0
    1.8430   66.6060   65.9670 O   0  0  0  0  0  0  0  0  0  0  0  0
    1.6890   67.7380   68.2240 O   0  0  0  0  0  0  0  0  0  0  0  0
    1.9960   69.1190   66.0450 N   0  0  0  0  0  0  0  0  0  0  0  0
    3.4210   69.2950   66.2400 C   0  0  0  0  0  0  0  0  0  0  0  0
    4.2240   69.0420   65.2370 N   0  0  0  0  0  0  0  0  0  0  0  0
    5.5210   69.3360   65.6170 C   0  0  0  0  0  0  0  0  0  0  0  0
    5.6660   69.8610   66.8850 C   0  0  0  0  0  0  0  0  0  0  0  0
    4.1260   69.9980   67.6290 S   0  0  0  0  0  0  0  0  0  0  0  0
   -3.0750   68.2870   66.2290 C   0  0  0  0  0  0  0  0  0  0  0  0
   -2.5910   67.4770   67.2630 C   0  0  0  0  0  0  0  0  0  0  0  0
   -1.2190   67.2800   67.4370 C   0  0  0  0  0  0  0  0  0  0  0  0
   -0.3210   67.9320   66.5880 C   0  0  0  0  0  0  0  0  0  0  0  0
   -0.7850   68.7970   65.5960 C   0  0  0  0  0  0  0  0  0  0  0  0
   -2.1600   68.9830   65.4340 C   0  0  0  0  0  0  0  0  0  0  0  0
   -4.4410   68.5700   66.1410 N   0  0  0  0  0  0  0  0  0  0  0  0
    1.4006   69.7685   65.5116 H   0  0  0  0  0  0  0  0  0  0  0  0
    6.3802   69.1628   64.9524 H   0  0  0  0  0  0  0  0  0  0  0  0
    6.6220   70.1476   67.3476 H   0  0  0  0  0  0  0  0  0  0  0  0
   -3.3004   66.9891   67.9476 H   0  0  0  0  0  0  0  0  0  0  0  0
   -0.8494   66.6183   68.2342 H   0  0  0  0  0  0  0  0  0  0  0  0
   -0.0735   69.3282   64.9467 H   0  0  0  0  0  0  0  0  0  0  0  0
   -2.5271   69.6857   64.6715 H   0  0  0  0  0  0  0  0  0  0  0  0
   -4.7954   69.1662   65.3795 H   0  0  0  0  0  0  0  0  0  0  0  0
   -5.0932   68.1823   66.8376 H   0  0  0  0  0  0  0  0  0  0  0  0
  2  1  2  0
  3  1  2  0
  4  1  1  0
  5  4  1  0
  6  5  2  0
  7  6  1  0
  8  7  2  0
  9  8  1  0
  9  5  1  0
 11 10  2  0
 12 11  1  0
 13 12  2  0
 13  1  1  0
 14 13  1  0
 15 14  2  0
 15 10  1  0
 16 10  1  0
  4 17  1  0
  7 18  1  0
  8 19  1  0
 11 20  1  0
 12 21  1  0
 14 22  1  0
 15 23  1  0
 16 24  1  0
 16 25  1  0
M  END
>  <score>  (4) 
-7.473

$$$$
=
     RDKit          3D

 25 26  0  0  0  0  0  0  0  0999 V2000
    1.6630   68.1370   64.4720 S   0  0  0  0  0  6  0  0  0  0  0  0
    0.3890   67.8230   63.8590 O   0  0  0  0  0  0  0  0  0  0  0  0
    2.4150   69.3170   64.1070 O   0  0  0  0  0  0  0  0  0  0  0  0
    1.4260   68.0420   66.1440 N   0  0  0  0  0  0  0  0  0  0  0  0
    0.0230   67.9120   66.4790 C   0  0  0  0  0  0  0  0  0  0  0  0
   -0.4200   66.7410   66.8630 N   0  0  0  0  0  0  0  0  0  0  0  0
   -1.7580   66.8540   67.1930 C   0  0  0  0  0  0  0  0  0  0  0  0
   -2.2870   68.1260   67.1060 C   0  0  0  0  0  0  0  0  0  0  0  0
   -1.0680   69.2210   66.5990 S   0  0  0  0  0  0  0  0  0  0  0  0
    4.4460   64.5580   63.8350 C   0  0  0  0  0  0  0  0  0  0  0  0
    3.3490   64.4550   64.6970 C   0  0  0  0  0  0  0  0  0  0  0  0
    2.5020   65.5460   64.9140 C   0  0  0  0  0  0  0  0  0  0  0  0
    2.7380   66.7410   64.2310 C   0  0  0  0  0  0  0  0  0  0  0  0
    3.7870   66.8390   63.3150 C   0  0  0  0  0  0  0  0  0  0  0  0
    4.6240   65.7400   63.1090 C   0  0  0  0  0  0  0  0  0  0  0  0
    5.2120   63.4270   63.5360 N   0  0  0  0  0  0  0  0  0  0  0  0
    2.1860   68.0728   66.8385 H   0  0  0  0  0  0  0  0  0  0  0  0
   -2.3607   65.9880   67.5041 H   0  0  0  0  0  0  0  0  0  0  0  0
   -3.3301   68.3959   67.3277 H   0  0  0  0  0  0  0  0  0  0  0  0
    3.1502   63.5030   65.2109 H   0  0  0  0  0  0  0  0  0  0  0  0
    1.6586   65.4639   65.6154 H   0  0  0  0  0  0  0  0  0  0  0  0
    3.9530   67.7741   62.7600 H   0  0  0  0  0  0  0  0  0  0  0  0
    5.4331   65.8050   62.3666 H   0  0  0  0  0  0  0  0  0  0  0  0
    6.0193   63.5049   62.9011 H   0  0  0  0  0  0  0  0  0  0  0  0
    4.9689   62.5160   63.9506 H   0  0  0  0  0  0  0  0  0  0  0  0
  2  1  2  0
  3  1  2  0
  4  1  1  0
  5  4  1  0
  6  5  2  0
  7  6  1  0
  8  7  2  0
  9  8  1  0
  9  5  1  0
 11 10  2  0
 12 11  1  0
 13 12  2  0
 13  1  1  0
 14 13  1  0
 15 14  2  0
 15 10  1  0
 16 10  1  0
  4 17  1  0
  7 18  1  0
  8 19  1  0
 11 20  1  0
 12 21  1  0
 14 22  1  0
 15 23  1  0
 16 24  1  0
 16 25  1  0
M  END
>  <score>  (5) 
-7.115

$$$$
=
     RDKit          3D

 25 26  0  0  0  0  0  0  0  0999 V2000
    1.3970   67.3190   66.0540 S   0  0  0  0  0  6  0  0  0  0  0  0
    1.5240   66.2590   65.0760 O   0  0  0  0  0  0  0  0  0  0  0  0
    1.8710   67.1670   67.4110 O   0  0  0  0  0  0  0  0  0  0  0  0
    2.0200   68.7150   65.3310 N   0  0  0  0  0  0  0  0  0  0  0  0
    2.7410   68.4100   64.1110 C   0  0  0  0  0  0  0  0  0  0  0  0
    2.1710   68.6850   62.9650 N   0  0  0  0  0  0  0  0  0  0  0  0
    3.0490   68.3770   61.9420 C   0  0  0  0  0  0  0  0  0  0  0  0
    4.2920   67.9270   62.3400 C   0  0  0  0  0  0  0  0  0  0  0  0
    4.3680   67.8920   64.0540 S   0  0  0  0  0  0  0  0  0  0  0  0
   -3.0330   68.4430   66.3270 C   0  0  0  0  0  0  0  0  0  0  0  0
   -2.2220   69.0010   65.3320 C   0  0  0  0  0  0  0  0  0  0  0  0
   -0.8650   68.6800   65.2490 C   0  0  0  0  0  0  0  0  0  0  0  0
   -0.3230   67.7620   66.1510 C   0  0  0  0  0  0  0  0  0  0  0  0
   -1.1320   67.1440   67.1060 C   0  0  0  0  0  0  0  0  0  0  0  0
   -2.4880   67.4750   67.1760 C   0  0  0  0  0  0  0  0  0  0  0  0
   -4.4110   68.6800   66.3230 N   0  0  0  0  0  0  0  0  0  0  0  0
    1.9017   69.6651   65.7108 H   0  0  0  0  0  0  0  0  0  0  0  0
    2.7753   68.4834   60.8819 H   0  0  0  0  0  0  0  0  0  0  0  0
    5.1082   67.6357   61.6626 H   0  0  0  0  0  0  0  0  0  0  0  0
   -2.6591   69.7018   64.6055 H   0  0  0  0  0  0  0  0  0  0  0  0
   -0.2299   69.1456   64.4810 H   0  0  0  0  0  0  0  0  0  0  0  0
   -0.7058   66.4026   67.7978 H   0  0  0  0  0  0  0  0  0  0  0  0
   -3.1342   66.9680   67.9077 H   0  0  0  0  0  0  0  0  0  0  0  0
   -5.0064   68.2687   67.0559 H   0  0  0  0  0  0  0  0  0  0  0  0
   -4.8307   69.2659   65.5871 H   0  0  0  0  0  0  0  0  0  0  0  0
  2  1  2  0
  3  1  2  0
  4  1  1  0
  5  4  1  0
  6  5  2  0
  7  6  1  0
  8  7  2  0
  9  8  1  0
  9  5  1  0
 11 10  2  0
 12 11  1  0
 13 12  2  0
 13  1  1  0
 14 13  1  0
 15 14  2  0
 15 10  1  0
 16 10  1  0
  4 17  1  0
  7 18  1  0
  8 19  1  0
 11 20  1  0
 12 21  1  0
 14 22  1  0
 15 23  1  0
 16 24  1  0
 16 25  1  0
M  END
>  <score>  (6) 
-7.086

$$$$
=
     RDKit          3D

 25 26  0  0  0  0  0  0  0  0999 V2000
    0.3080   65.3260   70.2980 S   0  0  0  0  0  6  0  0  0  0  0  0
   -0.2190   64.0440   69.8770 O   0  0  0  0  0  0  0  0  0  0  0  0
   -0.0750   65.9330   71.5530 O   0  0  0  0  0  0  0  0  0  0  0  0
    1.9890   65.2270   70.1420 N   0  0  0  0  0  0  0  0  0  0  0  0
    2.4450   63.8510   70.1210 C   0  0  0  0  0  0  0  0  0  0  0  0
    2.8180   63.3350   68.9770 N   0  0  0  0  0  0  0  0  0  0  0  0
    3.2730   62.0480   69.1940 C   0  0  0  0  0  0  0  0  0  0  0  0
    3.2870   61.6350   70.5100 C   0  0  0  0  0  0  0  0  0  0  0  0
    2.7170   62.9030   71.5160 S   0  0  0  0  0  0  0  0  0  0  0  0
   -0.6500   68.3570   67.0030 C   0  0  0  0  0  0  0  0  0  0  0  0
    0.6220   68.3260   67.5870 C   0  0  0  0  0  0  0  0  0  0  0  0
    0.9210   67.4180   68.6060 C   0  0  0  0  0  0  0  0  0  0  0  0
   -0.0540   66.5070   69.0180 C   0  0  0  0  0  0  0  0  0  0  0  0
   -1.3050   66.4780   68.3990 C   0  0  0  0  0  0  0  0  0  0  0  0
   -1.5890   67.3920   67.3820 C   0  0  0  0  0  0  0  0  0  0  0  0
   -0.8980   69.1870   65.9060 N   0  0  0  0  0  0  0  0  0  0  0  0
    2.6123   66.0439   70.0707 H   0  0  0  0  0  0  0  0  0  0  0  0
    3.6022   61.3961   68.3714 H   0  0  0  0  0  0  0  0  0  0  0  0
    3.6134   60.6448   70.8608 H   0  0  0  0  0  0  0  0  0  0  0  0
    1.3962   69.0257   67.2391 H   0  0  0  0  0  0  0  0  0  0  0  0
    1.9142   67.4207   69.0789 H   0  0  0  0  0  0  0  0  0  0  0  0
   -2.0606   65.7415   68.7097 H   0  0  0  0  0  0  0  0  0  0  0  0
   -2.5632   67.3526   66.8727 H   0  0  0  0  0  0  0  0  0  0  0  0
   -1.8345   69.2084   65.4777 H   0  0  0  0  0  0  0  0  0  0  0  0
   -0.1443   69.7772   65.5259 H   0  0  0  0  0  0  0  0  0  0  0  0
  2  1  2  0
  3  1  2  0
  4  1  1  0
  5  4  1  0
  6  5  2  0
  7  6  1  0
  8  7  2  0
  9  8  1  0
  9  5  1  0
 11 10  2  0
 12 11  1  0
 13 12  2  0
 13  1  1  0
 14 13  1  0
 15 14  2  0
 15 10  1  0
 16 10  1  0
  4 17  1  0
  7 18  1  0
  8 19  1  0
 11 20  1  0
 12 21  1  0
 14 22  1  0
 15 23  1  0
 16 24  1  0
 16 25  1  0
M  END
>  <score>  (7) 
-6.633

$$$$
=
     RDKit          3D

 25 26  0  0  0  0  0  0  0  0999 V2000
    2.9030   62.5840   70.0010 S   0  0  0  0  0  6  0  0  0  0  0  0
    3.4910   62.4630   68.6840 O   0  0  0  0  0  0  0  0  0  0  0  0
    3.4530   63.4690   71.0040 O   0  0  0  0  0  0  0  0  0  0  0  0
    1.2510   62.8630   69.7640 N   0  0  0  0  0  0  0  0  0  0  0  0
    0.7930   64.0240   70.5010 C   0  0  0  0  0  0  0  0  0  0  0  0
    0.5560   65.1280   69.8380 N   0  0  0  0  0  0  0  0  0  0  0  0
    0.0710   66.0810   70.7150 C   0  0  0  0  0  0  0  0  0  0  0  0
   -0.1020   65.6580   72.0180 C   0  0  0  0  0  0  0  0  0  0  0  0
    0.3520   64.0090   72.1510 S   0  0  0  0  0  0  0  0  0  0  0  0
    2.7680   58.3890   71.8310 C   0  0  0  0  0  0  0  0  0  0  0  0
    2.0750   59.4460   72.4330 C   0  0  0  0  0  0  0  0  0  0  0  0
    2.1230   60.7350   71.8950 C   0  0  0  0  0  0  0  0  0  0  0  0
    2.8440   60.9580   70.7200 C   0  0  0  0  0  0  0  0  0  0  0  0
    3.4830   59.9020   70.0680 C   0  0  0  0  0  0  0  0  0  0  0  0
    3.4260   58.6200   70.6190 C   0  0  0  0  0  0  0  0  0  0  0  0
    2.6140   57.0860   72.3110 N   0  0  0  0  0  0  0  0  0  0  0  0
    0.6454   62.2796   69.1692 H   0  0  0  0  0  0  0  0  0  0  0  0
   -0.1615   67.1077   70.3958 H   0  0  0  0  0  0  0  0  0  0  0  0
   -0.4738   66.2824   72.8438 H   0  0  0  0  0  0  0  0  0  0  0  0
    1.4845   59.2594   73.3421 H   0  0  0  0  0  0  0  0  0  0  0  0
    1.5986   61.5647   72.3916 H   0  0  0  0  0  0  0  0  0  0  0  0
    4.0268   60.0781   69.1282 H   0  0  0  0  0  0  0  0  0  0  0  0
    3.9049   57.7811   70.0928 H   0  0  0  0  0  0  0  0  0  0  0  0
    3.1248   56.3097   71.8667 H   0  0  0  0  0  0  0  0  0  0  0  0
    1.9897   56.9016   73.1092 H   0  0  0  0  0  0  0  0  0  0  0  0
  2  1  2  0
  3  1  2  0
  4  1  1  0
  5  4  1  0
  6  5  2  0
  7  6  1  0
  8  7  2  0
  9  8  1  0
  9  5  1  0
 11 10  2  0
 12 11  1  0
 13 12  2  0
 13  1  1  0
 14 13  1  0
 15 14  2  0
 15 10  1  0
 16 10  1  0
  4 17  1  0
  7 18  1  0
  8 19  1  0
 11 20  1  0
 12 21  1  0
 14 22  1  0
 15 23  1  0
 16 24  1  0
 16 25  1  0
M  END
>  <score>  (8) 
-6.4

$$$$
=
     RDKit          3D

 25 26  0  0  0  0  0  0  0  0999 V2000
    1.8550   62.7760   71.1240 S   0  0  0  0  0  6  0  0  0  0  0  0
    1.4180   63.1960   69.8090 O   0  0  0  0  0  0  0  0  0  0  0  0
    2.8900   63.4820   71.8460 O   0  0  0  0  0  0  0  0  0  0  0  0
    0.4570   62.5960   72.0580 N   0  0  0  0  0  0  0  0  0  0  0  0
    0.5410   63.3430   73.2970 C   0  0  0  0  0  0  0  0  0  0  0  0
   -0.1440   64.4530   73.4030 N   0  0  0  0  0  0  0  0  0  0  0  0
    0.0260   64.9650   74.6760 C   0  0  0  0  0  0  0  0  0  0  0  0
    0.7950   64.1990   75.5280 C   0  0  0  0  0  0  0  0  0  0  0  0
    1.3190   62.7840   74.7120 S   0  0  0  0  0  0  0  0  0  0  0  0
    3.1690   58.3990   70.8420 C   0  0  0  0  0  0  0  0  0  0  0  0
    3.5130   59.3070   69.8340 C   0  0  0  0  0  0  0  0  0  0  0  0
    3.1030   60.6410   69.8990 C   0  0  0  0  0  0  0  0  0  0  0  0
    2.3710   61.0780   71.0050 C   0  0  0  0  0  0  0  0  0  0  0  0
    2.0780   60.2030   72.0530 C   0  0  0  0  0  0  0  0  0  0  0  0
    2.4950   58.8720   71.9730 C   0  0  0  0  0  0  0  0  0  0  0  0
    3.6860   57.1010   70.8240 N   0  0  0  0  0  0  0  0  0  0  0  0
   -0.3545   62.0256   71.7805 H   0  0  0  0  0  0  0  0  0  0  0  0
   -0.4221   65.9197   74.9889 H   0  0  0  0  0  0  0  0  0  0  0  0
    1.0351   64.4562   76.5702 H   0  0  0  0  0  0  0  0  0  0  0  0
    4.1145   58.9656   68.9787 H   0  0  0  0  0  0  0  0  0  0  0  0
    3.3542   61.3398   69.0874 H   0  0  0  0  0  0  0  0  0  0  0  0
    1.5236   60.5586   72.9340 H   0  0  0  0  0  0  0  0  0  0  0  0
    2.2909   58.1875   72.8096 H   0  0  0  0  0  0  0  0  0  0  0  0
    3.4312   56.4348   71.5671 H   0  0  0  0  0  0  0  0  0  0  0  0
    4.3219   56.8104   70.0677 H   0  0  0  0  0  0  0  0  0  0  0  0
  2  1  2  0
  3  1  2  0
  4  1  1  0
  5  4  1  0
  6  5  2  0
  7  6  1  0
  8  7  2  0
  9  8  1  0
  9  5  1  0
 11 10  2  0
 12 11  1  0
 13 12  2  0
 13  1  1  0
 14 13  1  0
 15 14  2  0
 15 10  1  0
 16 10  1  0
  4 17  1  0
  7 18  1  0
  8 19  1  0
 11 20  1  0
 12 21  1  0
 14 22  1  0
 15 23  1  0
 16 24  1  0
 16 25  1  0
M  END
>  <score>  (9) 
-6.285

$$$$
