=
     RDKit          3D

 26 27  0  0  0  0  0  0  0  0999 V2000
    1.7350   66.8560   66.4900 O   0  0  0  0  0  0  0  0  0  0  0  0
    1.6340   68.0270   66.1430 C   0  0  0  0  0  0  0  0  0  0  0  0
    1.3790   68.4020   64.7260 C   0  0  0  0  0  0  0  0  0  0  0  0
    0.0700   68.7560   64.3580 C   0  0  0  0  0  0  0  0  0  0  0  0
   -0.2150   69.1300   63.0430 C   0  0  0  0  0  0  0  0  0  0  0  0
    0.8050   69.1480   62.1000 C   0  0  0  0  0  0  0  0  0  0  0  0
    2.1050   68.7990   62.4480 C   0  0  0  0  0  0  0  0  0  0  0  0
    2.3960   68.4260   63.7630 C   0  0  0  0  0  0  0  0  0  0  0  0
    0.5320   69.5070   60.8390 F   0  0  0  0  0  0  0  0  0  0  0  0
    1.7400   69.1010   67.2000 C   0  0  0  0  0  0  0  0  0  0  0  0
    0.7140   69.4750   67.7560 O   0  0  0  0  0  0  0  0  0  0  0  0
    3.0730   69.6510   67.5680 C   0  0  0  0  0  0  0  0  0  0  0  0
    3.2310   70.2060   68.8500 C   0  0  0  0  0  0  0  0  0  0  0  0
    4.4660   70.7210   69.2470 C   0  0  0  0  0  0  0  0  0  0  0  0
    5.5400   70.6800   68.3650 C   0  0  0  0  0  0  0  0  0  0  0  0
    5.4010   70.1350   67.0940 C   0  0  0  0  0  0  0  0  0  0  0  0
    4.1660   69.6170   66.6920 C   0  0  0  0  0  0  0  0  0  0  0  0
    6.7250   71.1730   68.7460 F   0  0  0  0  0  0  0  0  0  0  0  0
   -0.7337   68.7385   65.1088 H   0  0  0  0  0  0  0  0  0  0  0  0
   -1.2398   69.4083   62.7560 H   0  0  0  0  0  0  0  0  0  0  0  0
    2.9023   68.8164   61.6904 H   0  0  0  0  0  0  0  0  0  0  0  0
    3.4239   68.1512   64.0419 H   0  0  0  0  0  0  0  0  0  0  0  0
    2.3775   70.2345   69.5433 H   0  0  0  0  0  0  0  0  0  0  0  0
    4.5887   71.1559   70.2499 H   0  0  0  0  0  0  0  0  0  0  0  0
    6.2596   70.1113   66.4067 H   0  0  0  0  0  0  0  0  0  0  0  0
    4.0525   69.1827   65.6878 H   0  0  0  0  0  0  0  0  0  0  0  0
  2  1  2  0
  3  2  1  0
  4  3  2  0
  5  4  1  0
  6  5  2  0
  7  6  1  0
  8  7  2  0
  8  3  1  0
  9  6  1  0
 10  2  1  0
 11 10  2  0
 12 10  1  0
 13 12  2  0
 14 13  1  0
 15 14  2  0
 16 15  1  0
 17 16  2  0
 17 12  1  0
 18 15  1  0
  4 19  1  0
  5 20  1  0
  7 21  1  0
  8 22  1  0
 13 23  1  0
 14 24  1  0
 16 25  1  0
 17 26  1  0
M  END
>  <score>  (1) 
-9.491

$$$$
=
     RDKit          3D

 26 27  0  0  0  0  0  0  0  0999 V2000
    0.7270   69.1160   67.6350 O   0  0  0  0  0  0  0  0  0  0  0  0
    1.7630   68.8760   67.0250 C   0  0  0  0  0  0  0  0  0  0  0  0
    3.0550   69.5110   67.3990 C   0  0  0  0  0  0  0  0  0  0  0  0
    3.1630   70.0980   68.6700 C   0  0  0  0  0  0  0  0  0  0  0  0
    4.3600   70.6920   69.0720 C   0  0  0  0  0  0  0  0  0  0  0  0
    5.4460   70.7010   68.2050 C   0  0  0  0  0  0  0  0  0  0  0  0
    5.3550   70.1250   66.9420 C   0  0  0  0  0  0  0  0  0  0  0  0
    4.1590   69.5270   66.5350 C   0  0  0  0  0  0  0  0  0  0  0  0
    6.5950   71.2700   68.5900 F   0  0  0  0  0  0  0  0  0  0  0  0
    1.7120   67.8810   65.8890 C   0  0  0  0  0  0  0  0  0  0  0  0
    1.9240   66.7010   66.1380 O   0  0  0  0  0  0  0  0  0  0  0  0
    1.3730   68.3410   64.5140 C   0  0  0  0  0  0  0  0  0  0  0  0
    0.0590   68.7690   64.2620 C   0  0  0  0  0  0  0  0  0  0  0  0
   -0.3030   69.2230   62.9930 C   0  0  0  0  0  0  0  0  0  0  0  0
    0.6480   69.2490   61.9790 C   0  0  0  0  0  0  0  0  0  0  0  0
    1.9520   68.8290   62.2110 C   0  0  0  0  0  0  0  0  0  0  0  0
    2.3200   68.3740   63.4810 C   0  0  0  0  0  0  0  0  0  0  0  0
    0.3020   69.6860   60.7610 F   0  0  0  0  0  0  0  0  0  0  0  0
    2.3000   70.0896   69.3520 H   0  0  0  0  0  0  0  0  0  0  0  0
    4.4434   71.1501   70.0686 H   0  0  0  0  0  0  0  0  0  0  0  0
    6.2221   70.1401   66.2653 H   0  0  0  0  0  0  0  0  0  0  0  0
    4.0840   69.0693   65.5376 H   0  0  0  0  0  0  0  0  0  0  0  0
   -0.6883   68.7462   65.0689 H   0  0  0  0  0  0  0  0  0  0  0  0
   -1.3323   69.5576   62.7965 H   0  0  0  0  0  0  0  0  0  0  0  0
    2.6926   68.8543   61.3981 H   0  0  0  0  0  0  0  0  0  0  0  0
    3.3517   68.0423   63.6693 H   0  0  0  0  0  0  0  0  0  0  0  0
  2  1  2  0
  3  2  1  0
  4  3  2  0
  5  4  1  0
  6  5  2  0
  7  6  1  0
  8  7  2  0
  8  3  1  0
  9  6  1  0
 10  2  1  0
 11 10  2  0
 12 10  1  0
 13 12  2  0
 14 13  1  0
 15 14  2  0
 16 15  1  0
 17 16  2  0
 17 12  1  0
 18 15  1  0
  4 19  1  0
  5 20  1  0
  7 21  1  0
  8 22  1  0
 13 23  1  0
 14 24  1  0
 16 25  1  0
 17 26  1  0
M  END
>  <score>  (2) 
-9.483

$$$$
=
     RDKit          3D

 26 27  0  0  0  0  0  0  0  0999 V2000
    5.6240   69.4140   63.5320 O   0  0  0  0  0  0  0  0  0  0  0  0
    4.8060   69.0090   64.3490 C   0  0  0  0  0  0  0  0  0  0  0  0
    4.7980   69.4970   65.7540 C   0  0  0  0  0  0  0  0  0  0  0  0
    5.9910   70.0160   66.2840 C   0  0  0  0  0  0  0  0  0  0  0  0
    6.0290   70.5000   67.5920 C   0  0  0  0  0  0  0  0  0  0  0  0
    4.8780   70.4640   68.3700 C   0  0  0  0  0  0  0  0  0  0  0  0
    3.6890   69.9530   67.8610 C   0  0  0  0  0  0  0  0  0  0  0  0
    3.6450   69.4680   66.5510 C   0  0  0  0  0  0  0  0  0  0  0  0
    4.9130   70.9290   69.6250 F   0  0  0  0  0  0  0  0  0  0  0  0
    3.7660   68.0130   63.8910 C   0  0  0  0  0  0  0  0  0  0  0  0
    4.0010   66.8190   64.0310 O   0  0  0  0  0  0  0  0  0  0  0  0
    2.4790   68.4950   63.3190 C   0  0  0  0  0  0  0  0  0  0  0  0
    1.3810   68.6400   64.1840 C   0  0  0  0  0  0  0  0  0  0  0  0
    0.1570   69.1020   63.6970 C   0  0  0  0  0  0  0  0  0  0  0  0
    0.0330   69.4190   62.3500 C   0  0  0  0  0  0  0  0  0  0  0  0
    1.1080   69.2810   61.4800 C   0  0  0  0  0  0  0  0  0  0  0  0
    2.3370   68.8190   61.9630 C   0  0  0  0  0  0  0  0  0  0  0  0
   -1.1410   69.8630   61.8820 F   0  0  0  0  0  0  0  0  0  0  0  0
    6.8997   70.0409   65.6646 H   0  0  0  0  0  0  0  0  0  0  0  0
    6.9637   70.9074   68.0047 H   0  0  0  0  0  0  0  0  0  0  0  0
    2.7854   69.9306   68.4879 H   0  0  0  0  0  0  0  0  0  0  0  0
    2.7059   69.0636   66.1454 H   0  0  0  0  0  0  0  0  0  0  0  0
    1.4865   68.3883   65.2496 H   0  0  0  0  0  0  0  0  0  0  0  0
   -0.7024   69.2142   64.3743 H   0  0  0  0  0  0  0  0  0  0  0  0
    0.9929   69.5341   60.4157 H   0  0  0  0  0  0  0  0  0  0  0  0
    3.1914   68.7101   61.2788 H   0  0  0  0  0  0  0  0  0  0  0  0
  2  1  2  0
  3  2  1  0
  4  3  2  0
  5  4  1  0
  6  5  2  0
  7  6  1  0
  8  7  2  0
  8  3  1  0
  9  6  1  0
 10  2  1  0
 11 10  2  0
 12 10  1  0
 13 12  2  0
 14 13  1  0
 15 14  2  0
 16 15  1  0
 17 16  2  0
 17 12  1  0
 18 15  1  0
  4 19  1  0
  5 20  1  0
  7 21  1  0
  8 22  1  0
 13 23  1  0
 14 24  1  0
 16 25  1  0
 17 26  1  0
M  END
>  <score>  (3) 
-9.209

$$$$
=
     RDKit          3D

 26 27  0  0  0  0  0  0  0  0999 V2000
    5.6410   69.8050   63.6250 O   0  0  0  0  0  0  0  0  0  0  0  0
    4.7470   69.3630   64.3380 C   0  0  0  0  0  0  0  0  0  0  0  0
    4.6760   69.6810   65.7890 C   0  0  0  0  0  0  0  0  0  0  0  0
    5.8360   70.1580   66.4220 C   0  0  0  0  0  0  0  0  0  0  0  0
    5.8140   70.4840   67.7800 C   0  0  0  0  0  0  0  0  0  0  0  0
    4.6370   70.3330   68.5020 C   0  0  0  0  0  0  0  0  0  0  0  0
    3.4800   69.8620   67.8900 C   0  0  0  0  0  0  0  0  0  0  0  0
    3.4960   69.5350   66.5310 C   0  0  0  0  0  0  0  0  0  0  0  0
    4.6150   70.6460   69.8030 F   0  0  0  0  0  0  0  0  0  0  0  0
    3.6810   68.5030   63.7010 C   0  0  0  0  0  0  0  0  0  0  0  0
    2.8670   69.0380   62.9590 O   0  0  0  0  0  0  0  0  0  0  0  0
    3.6620   67.0360   63.9540 C   0  0  0  0  0  0  0  0  0  0  0  0
    4.5470   66.2250   63.2250 C   0  0  0  0  0  0  0  0  0  0  0  0
    4.5770   64.8460   63.4380 C   0  0  0  0  0  0  0  0  0  0  0  0
    3.7230   64.2800   64.3770 C   0  0  0  0  0  0  0  0  0  0  0  0
    2.8400   65.0670   65.1060 C   0  0  0  0  0  0  0  0  0  0  0  0
    2.8070   66.4500   64.8980 C   0  0  0  0  0  0  0  0  0  0  0  0
    3.7510   62.9570   64.5820 F   0  0  0  0  0  0  0  0  0  0  0  0
    6.7656   70.2752   65.8457 H   0  0  0  0  0  0  0  0  0  0  0  0
    6.7227   70.8578   68.2744 H   0  0  0  0  0  0  0  0  0  0  0  0
    2.5549   69.7472   68.4739 H   0  0  0  0  0  0  0  0  0  0  0  0
    2.5825   69.1631   66.0440 H   0  0  0  0  0  0  0  0  0  0  0  0
    5.2198   66.6789   62.4825 H   0  0  0  0  0  0  0  0  0  0  0  0
    5.2713   64.2120   62.8670 H   0  0  0  0  0  0  0  0  0  0  0  0
    2.1689   64.6040   65.8444 H   0  0  0  0  0  0  0  0  0  0  0  0
    2.1110   67.0770   65.4745 H   0  0  0  0  0  0  0  0  0  0  0  0
  2  1  2  0
  3  2  1  0
  4  3  2  0
  5  4  1  0
  6  5  2  0
  7  6  1  0
  8  7  2  0
  8  3  1  0
  9  6  1  0
 10  2  1  0
 11 10  2  0
 12 10  1  0
 13 12  2  0
 14 13  1  0
 15 14  2  0
 16 15  1  0
 17 16  2  0
 17 12  1  0
 18 15  1  0
  4 19  1  0
  5 20  1  0
  7 21  1  0
  8 22  1  0
 13 23  1  0
 14 24  1  0
 16 25  1  0
 17 26  1  0
M  END
>  <score>  (4) 
-9.195

$$$$
=
     RDKit          3D

 26 27  0  0  0  0  0  0  0  0999 V2000
    1.7310   69.0640   66.8140 O   0  0  0  0  0  0  0  0  0  0  0  0
    2.8060   69.1400   66.2290 C   0  0  0  0  0  0  0  0  0  0  0  0
    4.0130   69.7080   66.8860 C   0  0  0  0  0  0  0  0  0  0  0  0
    3.9030   70.1420   68.2180 C   0  0  0  0  0  0  0  0  0  0  0  0
    5.0120   70.6680   68.8820 C   0  0  0  0  0  0  0  0  0  0  0  0
    6.2280   70.7600   68.2160 C   0  0  0  0  0  0  0  0  0  0  0  0
    6.3540   70.3360   66.8970 C   0  0  0  0  0  0  0  0  0  0  0  0
    5.2460   69.8080   66.2280 C   0  0  0  0  0  0  0  0  0  0  0  0
    7.2930   71.2640   68.8520 F   0  0  0  0  0  0  0  0  0  0  0  0
    2.8940   68.6080   64.8180 C   0  0  0  0  0  0  0  0  0  0  0  0
    2.6840   69.3800   63.8900 O   0  0  0  0  0  0  0  0  0  0  0  0
    3.2650   67.1860   64.5830 C   0  0  0  0  0  0  0  0  0  0  0  0
    4.3020   66.9120   63.6750 C   0  0  0  0  0  0  0  0  0  0  0  0
    4.6960   65.5950   63.4320 C   0  0  0  0  0  0  0  0  0  0  0  0
    4.0550   64.5560   64.0970 C   0  0  0  0  0  0  0  0  0  0  0  0
    3.0280   64.8080   64.9970 C   0  0  0  0  0  0  0  0  0  0  0  0
    2.6290   66.1270   65.2450 C   0  0  0  0  0  0  0  0  0  0  0  0
    4.4330   63.2920   63.8650 F   0  0  0  0  0  0  0  0  0  0  0  0
    2.9377   70.0667   68.7400 H   0  0  0  0  0  0  0  0  0  0  0  0
    4.9242   71.0072   69.9247 H   0  0  0  0  0  0  0  0  0  0  0  0
    7.3227   70.4160   66.3820 H   0  0  0  0  0  0  0  0  0  0  0  0
    5.3421   69.4711   65.1853 H   0  0  0  0  0  0  0  0  0  0  0  0
    4.8056   67.7392   63.1533 H   0  0  0  0  0  0  0  0  0  0  0  0
    5.5069   65.3811   62.7202 H   0  0  0  0  0  0  0  0  0  0  0  0
    2.5296   63.9743   65.5133 H   0  0  0  0  0  0  0  0  0  0  0  0
    1.8173   66.3318   65.9586 H   0  0  0  0  0  0  0  0  0  0  0  0
  2  1  2  0
  3  2  1  0
  4  3  2  0
  5  4  1  0
  6  5  2  0
  7  6  1  0
  8  7  2  0
  8  3  1  0
  9  6  1  0
 10  2  1  0
 11 10  2  0
 12 10  1  0
 13 12  2  0
 14 13  1  0
 15 14  2  0
 16 15  1  0
 17 16  2  0
 17 12  1  0
 18 15  1  0
  4 19  1  0
  5 20  1  0
  7 21  1  0
  8 22  1  0
 13 23  1  0
 14 24  1  0
 16 25  1  0
 17 26  1  0
M  END
>  <score>  (5) 
-9.136

$$$$
=
     RDKit          3D

 26 27  0  0  0  0  0  0  0  0999 V2000
    3.4970   66.7550   64.6280 O   0  0  0  0  0  0  0  0  0  0  0  0
    3.4750   67.9340   64.2950 C   0  0  0  0  0  0  0  0  0  0  0  0
    2.3790   68.4870   63.4540 C   0  0  0  0  0  0  0  0  0  0  0  0
    2.6500   68.7540   62.1020 C   0  0  0  0  0  0  0  0  0  0  0  0
    1.6500   69.2590   61.2690 C   0  0  0  0  0  0  0  0  0  0  0  0
    0.3830   69.4980   61.7880 C   0  0  0  0  0  0  0  0  0  0  0  0
    0.0990   69.2400   63.1240 C   0  0  0  0  0  0  0  0  0  0  0  0
    1.0960   68.7330   63.9620 C   0  0  0  0  0  0  0  0  0  0  0  0
   -0.5770   69.9820   60.9900 F   0  0  0  0  0  0  0  0  0  0  0  0
    4.5770   68.8410   64.7890 C   0  0  0  0  0  0  0  0  0  0  0  0
    5.5140   69.0820   64.0370 O   0  0  0  0  0  0  0  0  0  0  0  0
    4.4900   69.4450   66.1460 C   0  0  0  0  0  0  0  0  0  0  0  0
    3.2570   69.3900   66.8190 C   0  0  0  0  0  0  0  0  0  0  0  0
    3.1290   69.9290   68.1000 C   0  0  0  0  0  0  0  0  0  0  0  0
    4.2310   70.5210   68.7070 C   0  0  0  0  0  0  0  0  0  0  0  0
    5.4570   70.5850   68.0560 C   0  0  0  0  0  0  0  0  0  0  0  0
    5.5910   70.0450   66.7720 C   0  0  0  0  0  0  0  0  0  0  0  0
    4.1090   71.0380   69.9360 F   0  0  0  0  0  0  0  0  0  0  0  0
    3.6552   68.5643   61.6975 H   0  0  0  0  0  0  0  0  0  0  0  0
    1.8632   69.4662   60.2099 H   0  0  0  0  0  0  0  0  0  0  0  0
   -0.9083   69.4345   63.5209 H   0  0  0  0  0  0  0  0  0  0  0  0
    0.8740   68.5272   65.0195 H   0  0  0  0  0  0  0  0  0  0  0  0
    2.3890   68.9199   66.3337 H   0  0  0  0  0  0  0  0  0  0  0  0
    2.1636   69.8858   68.6255 H   0  0  0  0  0  0  0  0  0  0  0  0
    6.3192   71.0585   68.5483 H   0  0  0  0  0  0  0  0  0  0  0  0
    6.5603   70.0915   66.2541 H   0  0  0  0  0  0  0  0  0  0  0  0
  2  1  2  0
  3  2  1  0
  4  3  2  0
  5  4  1  0
  6  5  2  0
  7  6  1  0
  8  7  2  0
  8  3  1  0
  9  6  1  0
 10  2  1  0
 11 10  2  0
 12 10  1  0
 13 12  2  0
 14 13  1  0
 15 14  2  0
 16 15  1  0
 17 16  2  0
 17 12  1  0
 18 15  1  0
  4 19  1  0
  5 20  1  0
  7 21  1  0
  8 22  1  0
 13 23  1  0
 14 24  1  0
 16 25  1  0
 17 26  1  0
M  END
>  <score>  (6) 
-9.08

$$$$
=
     RDKit          3D

 26 27  0  0  0  0  0  0  0  0999 V2000
    1.4400   69.2710   63.6880 O   0  0  0  0  0  0  0  0  0  0  0  0
    1.5380   68.6670   64.7500 C   0  0  0  0  0  0  0  0  0  0  0  0
    0.3440   68.3360   65.5720 C   0  0  0  0  0  0  0  0  0  0  0  0
   -0.8720   68.9660   65.2620 C   0  0  0  0  0  0  0  0  0  0  0  0
   -2.0240   68.6760   65.9960 C   0  0  0  0  0  0  0  0  0  0  0  0
   -1.9590   67.7590   67.0380 C   0  0  0  0  0  0  0  0  0  0  0  0
   -0.7620   67.1270   67.3590 C   0  0  0  0  0  0  0  0  0  0  0  0
    0.3930   67.4130   66.6260 C   0  0  0  0  0  0  0  0  0  0  0  0
   -3.0620   67.4800   67.7420 F   0  0  0  0  0  0  0  0  0  0  0  0
    2.9110   68.2280   65.2020 C   0  0  0  0  0  0  0  0  0  0  0  0
    3.3720   67.1910   64.7400 O   0  0  0  0  0  0  0  0  0  0  0  0
    3.6830   69.0690   66.1570 C   0  0  0  0  0  0  0  0  0  0  0  0
    4.9810   69.4650   65.7930 C   0  0  0  0  0  0  0  0  0  0  0  0
    5.7390   70.2660   66.6490 C   0  0  0  0  0  0  0  0  0  0  0  0
    5.1990   70.6700   67.8640 C   0  0  0  0  0  0  0  0  0  0  0  0
    3.9170   70.2870   68.2400 C   0  0  0  0  0  0  0  0  0  0  0  0
    3.1530   69.4850   67.3860 C   0  0  0  0  0  0  0  0  0  0  0  0
    5.9250   71.4400   68.6850 F   0  0  0  0  0  0  0  0  0  0  0  0
   -0.9174   69.6918   64.4366 H   0  0  0  0  0  0  0  0  0  0  0  0
   -2.9759   69.1698   65.7511 H   0  0  0  0  0  0  0  0  0  0  0  0
   -0.7247   66.4042   68.1874 H   0  0  0  0  0  0  0  0  0  0  0  0
    1.3407   66.9138   66.8761 H   0  0  0  0  0  0  0  0  0  0  0  0
    5.4018   69.1424   64.8292 H   0  0  0  0  0  0  0  0  0  0  0  0
    6.7556   70.5749   66.3640 H   0  0  0  0  0  0  0  0  0  0  0  0
    3.5046   70.6135   69.2061 H   0  0  0  0  0  0  0  0  0  0  0  0
    2.1371   69.1810   67.6786 H   0  0  0  0  0  0  0  0  0  0  0  0
  2  1  2  0
  3  2  1  0
  4  3  2  0
  5  4  1  0
  6  5  2  0
  7  6  1  0
  8  7  2  0
  8  3  1  0
  9  6  1  0
 10  2  1  0
 11 10  2  0
 12 10  1  0
 13 12  2  0
 14 13  1  0
 15 14  2  0
 16 15  1  0
 17 16  2  0
 17 12  1  0
 18 15  1  0
  4 19  1  0
  5 20  1  0
  7 21  1  0
  8 22  1  0
 13 23  1  0
 14 24  1  0
 16 25  1  0
 17 26  1  0
M  END
>  <score>  (7) 
-8.966

$$$$
=
     RDKit          3D

 26 27  0  0  0  0  0  0  0  0999 V2000
    2.1230   68.7820   67.5030 O   0  0  0  0  0  0  0  0  0  0  0  0
    1.5430   68.1310   66.6410 C   0  0  0  0  0  0  0  0  0  0  0  0
    0.0650   68.1860   66.4850 C   0  0  0  0  0  0  0  0  0  0  0  0
   -0.7280   67.4900   67.4120 C   0  0  0  0  0  0  0  0  0  0  0  0
   -2.1200   67.5230   67.3150 C   0  0  0  0  0  0  0  0  0  0  0  0
   -2.7180   68.2500   66.2930 C   0  0  0  0  0  0  0  0  0  0  0  0
   -1.9480   68.9440   65.3650 C   0  0  0  0  0  0  0  0  0  0  0  0
   -0.5530   68.9140   65.4590 C   0  0  0  0  0  0  0  0  0  0  0  0
   -4.0520   68.2830   66.1990 F   0  0  0  0  0  0  0  0  0  0  0  0
    2.3710   67.2850   65.7030 C   0  0  0  0  0  0  0  0  0  0  0  0
    2.2870   66.0650   65.7910 O   0  0  0  0  0  0  0  0  0  0  0  0
    3.2320   67.9360   64.6790 C   0  0  0  0  0  0  0  0  0  0  0  0
    2.9000   67.7640   63.3250 C   0  0  0  0  0  0  0  0  0  0  0  0
    3.6690   68.3680   62.3290 C   0  0  0  0  0  0  0  0  0  0  0  0
    4.7660   69.1430   62.6870 C   0  0  0  0  0  0  0  0  0  0  0  0
    5.1090   69.3240   64.0210 C   0  0  0  0  0  0  0  0  0  0  0  0
    4.3410   68.7220   65.0230 C   0  0  0  0  0  0  0  0  0  0  0  0
    5.5030   69.7230   61.7310 F   0  0  0  0  0  0  0  0  0  0  0  0
   -0.2494   66.9157   68.2189 H   0  0  0  0  0  0  0  0  0  0  0  0
   -2.7391   66.9774   68.0424 H   0  0  0  0  0  0  0  0  0  0  0  0
   -2.4348   69.5143   64.5602 H   0  0  0  0  0  0  0  0  0  0  0  0
    0.0594   69.4618   64.7276 H   0  0  0  0  0  0  0  0  0  0  0  0
    2.0299   67.1505   63.0483 H   0  0  0  0  0  0  0  0  0  0  0  0
    3.4089   68.2318   61.2689 H   0  0  0  0  0  0  0  0  0  0  0  0
    5.9814   69.9385   64.2882 H   0  0  0  0  0  0  0  0  0  0  0  0
    4.6070   68.8651   66.0807 H   0  0  0  0  0  0  0  0  0  0  0  0
  2  1  2  0
  3  2  1  0
  4  3  2  0
  5  4  1  0
  6  5  2  0
  7  6  1  0
  8  7  2  0
  8  3  1  0
  9  6  1  0
 10  2  1  0
 11 10  2  0
 12 10  1  0
 13 12  2  0
 14 13  1  0
 15 14  2  0
 16 15  1  0
 17 16  2  0
 17 12  1  0
 18 15  1  0
  4 19  1  0
  5 20  1  0
  7 21  1  0
  8 22  1  0
 13 23  1  0
 14 24  1  0
 16 25  1  0
 17 26  1  0
M  END
>  <score>  (8) 
-8.008

$$$$
=
     RDKit          3D

 26 27  0  0  0  0  0  0  0  0999 V2000
    2.7540   69.2660   66.8320 O   0  0  0  0  0  0  0  0  0  0  0  0
    1.9790   68.6290   66.1280 C   0  0  0  0  0  0  0  0  0  0  0  0
    0.6370   68.2180   66.6200 C   0  0  0  0  0  0  0  0  0  0  0  0
   -0.4960   68.7120   65.9520 C   0  0  0  0  0  0  0  0  0  0  0  0
   -1.7760   68.3420   66.3670 C   0  0  0  0  0  0  0  0  0  0  0  0
   -1.9240   67.4810   67.4480 C   0  0  0  0  0  0  0  0  0  0  0  0
   -0.8130   66.9840   68.1200 C   0  0  0  0  0  0  0  0  0  0  0  0
    0.4710   67.3500   67.7080 C   0  0  0  0  0  0  0  0  0  0  0  0
   -3.1510   67.1250   67.8460 F   0  0  0  0  0  0  0  0  0  0  0  0
    2.4010   68.2940   64.7170 C   0  0  0  0  0  0  0  0  0  0  0  0
    2.2280   69.1340   63.8420 O   0  0  0  0  0  0  0  0  0  0  0  0
    3.0430   66.9830   64.4260 C   0  0  0  0  0  0  0  0  0  0  0  0
    4.2120   66.9750   63.6460 C   0  0  0  0  0  0  0  0  0  0  0  0
    4.8590   65.7720   63.3590 C   0  0  0  0  0  0  0  0  0  0  0  0
    4.3390   64.5810   63.8510 C   0  0  0  0  0  0  0  0  0  0  0  0
    3.1840   64.5700   64.6230 C   0  0  0  0  0  0  0  0  0  0  0  0
    2.5320   65.7740   64.9150 C   0  0  0  0  0  0  0  0  0  0  0  0
    4.9600   63.4270   63.5760 F   0  0  0  0  0  0  0  0  0  0  0  0
   -0.3735   69.3939   65.0976 H   0  0  0  0  0  0  0  0  0  0  0  0
   -2.6618   68.7292   65.8421 H   0  0  0  0  0  0  0  0  0  0  0  0
   -0.9446   66.3039   68.9745 H   0  0  0  0  0  0  0  0  0  0  0  0
    1.3515   66.9570   68.2374 H   0  0  0  0  0  0  0  0  0  0  0  0
    4.6190   67.9212   63.2599 H   0  0  0  0  0  0  0  0  0  0  0  0
    5.7736   65.7668   62.7479 H   0  0  0  0  0  0  0  0  0  0  0  0
    2.7833   63.6188   65.0034 H   0  0  0  0  0  0  0  0  0  0  0  0
    1.6188   65.7705   65.5282 H   0  0  0  0  0  0  0  0  0  0  0  0
  2  1  2  0
  3  2  1  0
  4  3  2  0
  5  4  1  0
  6  5  2  0
  7  6  1  0
  8  7  2  0
  8  3  1  0
  9  6  1  0
 10  2  1  0
 11 10  2  0
 12 10  1  0
 13 12  2  0
 14 13  1  0
 15 14  2  0
 16 15  1  0
 17 16  2  0
 17 12  1  0
 18 15  1  0
  4 19  1  0
  5 20  1  0
  7 21  1  0
  8 22  1  0
 13 23  1  0
 14 24  1  0
 16 25  1  0
 17 26  1  0
M  END
>  <score>  (9) 
-7.857

$$$$
