=
     RDKit          3D

 46 48  0  0  0  0  0  0  0  0999 V2000
    4.2100   69.0800   66.0000 C   0  0  0  0  0  0  0  0  0  0  0  0
    4.8360   69.9420   66.9110 C   0  0  0  0  0  0  0  0  0  0  0  0
    6.1970   70.5540   66.7060 C   0  0  0  0  0  0  0  0  0  0  0  0
    7.0120   70.5540   68.0020 C   0  0  0  0  0  0  0  0  0  0  0  0
    6.2170   70.9180   69.2640 C   0  0  0  0  0  0  0  0  0  0  0  0
    4.7640   71.3060   68.9950 C   0  0  0  0  0  0  0  0  0  0  0  0
    4.1230   70.3290   68.0450 C   0  0  0  0  0  0  0  0  0  0  0  0
    2.8750   69.9030   68.3280 N   0  0  0  0  0  0  0  0  0  0  0  0
    2.2830   69.0590   67.4710 C   0  0  0  0  0  0  0  0  0  0  0  0
    2.8990   68.6000   66.2850 C   0  0  0  0  0  0  0  0  0  0  0  0
    2.1790   67.6970   65.4600 C   0  0  0  0  0  0  0  0  0  0  0  0
    0.8950   67.2680   65.7960 C   0  0  0  0  0  0  0  0  0  0  0  0
    0.3040   67.7320   66.9610 C   0  0  0  0  0  0  0  0  0  0  0  0
    1.0030   68.6190   67.7810 C   0  0  0  0  0  0  0  0  0  0  0  0
    4.9420   68.6370   64.8610 N   0  0  0  0  0  0  0  0  0  0  0  0
    4.6570   69.4680   63.6840 C   0  0  0  0  0  0  0  0  0  0  0  0
    4.9690   68.6680   62.4220 C   0  0  0  0  0  0  0  0  0  0  0  0
    3.7010   68.4000   61.6190 C   0  0  0  0  0  0  0  0  0  0  0  0
    1.3730   69.1980   61.8230 C   0  0  0  0  0  0  0  0  0  0  0  0
    1.2350   69.5400   60.6590 O   0  0  0  0  0  0  0  0  0  0  0  0
    2.5120   68.6760   62.3890 N   0  0  0  0  0  0  0  0  0  0  0  0
   -0.7440   68.4530   62.7740 N   0  0  0  0  0  0  0  0  0  0  0  0
    0.2070   69.3330   62.7760 C   0  0  0  0  0  0  0  0  0  0  0  0
   -1.6880   68.8160   63.7440 O   0  0  0  0  0  0  0  0  0  0  0  0
    6.7382   69.9751   65.9432 H   0  0  0  0  0  0  0  0  0  0  0  0
    6.0619   71.5967   66.3827 H   0  0  0  0  0  0  0  0  0  0  0  0
    7.4327   69.5472   68.1414 H   0  0  0  0  0  0  0  0  0  0  0  0
    7.7793   71.3334   67.8846 H   0  0  0  0  0  0  0  0  0  0  0  0
    6.2234   70.0494   69.9389 H   0  0  0  0  0  0  0  0  0  0  0  0
    6.7051   71.8006   69.7031 H   0  0  0  0  0  0  0  0  0  0  0  0
    4.2078   71.3057   69.9440 H   0  0  0  0  0  0  0  0  0  0  0  0
    4.7420   72.3082   68.5422 H   0  0  0  0  0  0  0  0  0  0  0  0
    2.6442   67.3270   64.5344 H   0  0  0  0  0  0  0  0  0  0  0  0
    0.3557   66.5671   65.1418 H   0  0  0  0  0  0  0  0  0  0  0  0
   -0.7088   67.4034   67.2372 H   0  0  0  0  0  0  0  0  0  0  0  0
    0.5244   68.9813   68.7028 H   0  0  0  0  0  0  0  0  0  0  0  0
    5.5890   67.8356   64.8627 H   0  0  0  0  0  0  0  0  0  0  0  0
    3.5954   69.7563   63.6846 H   0  0  0  0  0  0  0  0  0  0  0  0
    5.2781   70.3755   63.7112 H   0  0  0  0  0  0  0  0  0  0  0  0
    5.6752   69.2377   61.8001 H   0  0  0  0  0  0  0  0  0  0  0  0
    5.4078   67.7035   62.7174 H   0  0  0  0  0  0  0  0  0  0  0  0
    3.7033   69.0409   60.7250 H   0  0  0  0  0  0  0  0  0  0  0  0
    3.6899   67.3356   61.3416 H   0  0  0  0  0  0  0  0  0  0  0  0
    2.5169   68.4746   63.3991 H   0  0  0  0  0  0  0  0  0  0  0  0
    0.1659   70.1821   63.4741 H   0  0  0  0  0  0  0  0  0  0  0  0
   -2.4917   68.2558   63.8866 H   0  0  0  0  0  0  0  0  0  0  0  0
  2  1  2  0
  3  2  1  0
  4  3  1  0
  5  4  1  0
  6  5  1  0
  7  2  1  0
  7  6  1  0
  8  7  2  0
  9  8  1  0
 10  9  2  0
 10  1  1  0
 11 10  1  0
 12 11  2  0
 13 12  1  0
 14 13  2  0
 14  9  1  0
 15  1  1  0
 16 15  1  0
 17 16  1  0
 18 17  1  0
 20 19  2  0
 21 19  1  0
 21 18  1  0
 23 22  2  0
 23 19  1  0
 24 22  1  0
  3 25  1  0
  3 26  1  0
  4 27  1  0
  4 28  1  0
  5 29  1  0
  5 30  1  0
  6 31  1  0
  6 32  1  0
 11 33  1  0
 12 34  1  0
 13 35  1  0
 14 36  1  0
 15 37  1  0
 16 38  1  0
 16 39  1  0
 17 40  1  0
 17 41  1  0
 18 42  1  0
 18 43  1  0
 21 44  1  0
 23 45  1  0
 24 46  1  0
M  END
>  <score>  (1) 
-10.324

$$$$
=
     RDKit          3D

 46 48  0  0  0  0  0  0  0  0999 V2000
    3.3760   69.4130   66.1000 C   0  0  0  0  0  0  0  0  0  0  0  0
    3.7530   69.1120   64.7830 C   0  0  0  0  0  0  0  0  0  0  0  0
    2.8020   68.6470   63.7120 C   0  0  0  0  0  0  0  0  0  0  0  0
    3.4220   67.5370   62.8580 C   0  0  0  0  0  0  0  0  0  0  0  0
    4.8990   67.7490   62.4980 C   0  0  0  0  0  0  0  0  0  0  0  0
    5.4740   69.0790   62.9820 C   0  0  0  0  0  0  0  0  0  0  0  0
    5.0770   69.3380   64.4120 C   0  0  0  0  0  0  0  0  0  0  0  0
    6.0230   69.8060   65.2520 N   0  0  0  0  0  0  0  0  0  0  0  0
    5.6720   70.0700   66.5190 C   0  0  0  0  0  0  0  0  0  0  0  0
    4.3610   69.8900   67.0130 C   0  0  0  0  0  0  0  0  0  0  0  0
    4.1090   70.1920   68.3770 C   0  0  0  0  0  0  0  0  0  0  0  0
    5.1190   70.6600   69.2180 C   0  0  0  0  0  0  0  0  0  0  0  0
    6.3990   70.8350   68.7150 C   0  0  0  0  0  0  0  0  0  0  0  0
    6.6580   70.5390   67.3760 C   0  0  0  0  0  0  0  0  0  0  0  0
    2.0380   69.1440   66.5090 N   0  0  0  0  0  0  0  0  0  0  0  0
    1.8820   67.7500   66.9480 C   0  0  0  0  0  0  0  0  0  0  0  0
    0.8690   67.6990   68.0890 C   0  0  0  0  0  0  0  0  0  0  0  0
   -0.3530   66.8770   67.6960 C   0  0  0  0  0  0  0  0  0  0  0  0
   -2.3510   67.9620   66.7310 C   0  0  0  0  0  0  0  0  0  0  0  0
   -3.0460   67.9010   67.7320 O   0  0  0  0  0  0  0  0  0  0  0  0
   -1.0710   67.4780   66.5970 N   0  0  0  0  0  0  0  0  0  0  0  0
   -2.2600   68.5470   64.3660 N   0  0  0  0  0  0  0  0  0  0  0  0
   -2.8980   68.6330   65.4910 C   0  0  0  0  0  0  0  0  0  0  0  0
   -2.9790   69.2530   63.3930 O   0  0  0  0  0  0  0  0  0  0  0  0
    1.8870   68.2640   64.1875 H   0  0  0  0  0  0  0  0  0  0  0  0
    2.5735   69.5009   63.0573 H   0  0  0  0  0  0  0  0  0  0  0  0
    3.3377   66.5911   63.4130 H   0  0  0  0  0  0  0  0  0  0  0  0
    2.8694   67.5337   61.9069 H   0  0  0  0  0  0  0  0  0  0  0  0
    5.4849   66.9347   62.9492 H   0  0  0  0  0  0  0  0  0  0  0  0
    4.9598   67.7579   61.3997 H   0  0  0  0  0  0  0  0  0  0  0  0
    6.5712   69.0457   62.9116 H   0  0  0  0  0  0  0  0  0  0  0  0
    5.0771   69.8880   62.3512 H   0  0  0  0  0  0  0  0  0  0  0  0
    3.0948   70.0539   68.7798 H   0  0  0  0  0  0  0  0  0  0  0  0
    4.9015   70.8883   70.2718 H   0  0  0  0  0  0  0  0  0  0  0  0
    7.2046   71.2045   69.3666 H   0  0  0  0  0  0  0  0  0  0  0  0
    7.6769   70.6821   66.9870 H   0  0  0  0  0  0  0  0  0  0  0  0
    1.2770   69.8380   66.4984 H   0  0  0  0  0  0  0  0  0  0  0  0
    1.5230   67.1368   66.1083 H   0  0  0  0  0  0  0  0  0  0  0  0
    2.8503   67.3582   67.2927 H   0  0  0  0  0  0  0  0  0  0  0  0
    1.3422   67.2417   68.9704 H   0  0  0  0  0  0  0  0  0  0  0  0
    0.5438   68.7250   68.3160 H   0  0  0  0  0  0  0  0  0  0  0  0
   -0.0246   65.8701   67.3989 H   0  0  0  0  0  0  0  0  0  0  0  0
   -1.0287   66.8320   68.5628 H   0  0  0  0  0  0  0  0  0  0  0  0
   -0.6077   67.5467   65.6796 H   0  0  0  0  0  0  0  0  0  0  0  0
   -3.8413   69.1964   65.5440 H   0  0  0  0  0  0  0  0  0  0  0  0
   -2.6412   69.2982   62.4635 H   0  0  0  0  0  0  0  0  0  0  0  0
  2  1  2  0
  3  2  1  0
  4  3  1  0
  5  4  1  0
  6  5  1  0
  7  2  1  0
  7  6  1  0
  8  7  2  0
  9  8  1  0
 10  9  2  0
 10  1  1  0
 11 10  1  0
 12 11  2  0
 13 12  1  0
 14 13  2  0
 14  9  1  0
 15  1  1  0
 16 15  1  0
 17 16  1  0
 18 17  1  0
 20 19  2  0
 21 19  1  0
 21 18  1  0
 23 22  2  0
 23 19  1  0
 24 22  1  0
  3 25  1  0
  3 26  1  0
  4 27  1  0
  4 28  1  0
  5 29  1  0
  5 30  1  0
  6 31  1  0
  6 32  1  0
 11 33  1  0
 12 34  1  0
 13 35  1  0
 14 36  1  0
 15 37  1  0
 16 38  1  0
 16 39  1  0
 17 40  1  0
 17 41  1  0
 18 42  1  0
 18 43  1  0
 21 44  1  0
 23 45  1  0
 24 46  1  0
M  END
>  <score>  (2) 
-10.243

$$$$
=
     RDKit          3D

 46 48  0  0  0  0  0  0  0  0999 V2000
    3.1220   69.2160   65.9750 C   0  0  0  0  0  0  0  0  0  0  0  0
    4.1230   69.6840   66.8390 C   0  0  0  0  0  0  0  0  0  0  0  0
    3.9520   69.8520   68.3260 C   0  0  0  0  0  0  0  0  0  0  0  0
    4.6120   71.1420   68.8220 C   0  0  0  0  0  0  0  0  0  0  0  0
    5.9780   71.4510   68.1910 C   0  0  0  0  0  0  0  0  0  0  0  0
    6.4840   70.3700   67.2390 C   0  0  0  0  0  0  0  0  0  0  0  0
    5.3870   69.9300   66.3060 C   0  0  0  0  0  0  0  0  0  0  0  0
    5.6970   69.7680   65.0030 N   0  0  0  0  0  0  0  0  0  0  0  0
    4.7350   69.3450   64.1700 C   0  0  0  0  0  0  0  0  0  0  0  0
    3.4180   69.0550   64.5910 C   0  0  0  0  0  0  0  0  0  0  0  0
    2.4800   68.6260   63.6160 C   0  0  0  0  0  0  0  0  0  0  0  0
    2.8360   68.4850   62.2740 C   0  0  0  0  0  0  0  0  0  0  0  0
    4.1340   68.7700   61.8800 C   0  0  0  0  0  0  0  0  0  0  0  0
    5.0640   69.1950   62.8300 C   0  0  0  0  0  0  0  0  0  0  0  0
    1.8120   69.0050   66.4950 N   0  0  0  0  0  0  0  0  0  0  0  0
    1.5780   67.5870   66.7990 C   0  0  0  0  0  0  0  0  0  0  0  0
    1.1640   67.4540   68.2620 C   0  0  0  0  0  0  0  0  0  0  0  0
   -0.2810   66.9820   68.3790 C   0  0  0  0  0  0  0  0  0  0  0  0
   -1.3690   68.6720   66.9440 C   0  0  0  0  0  0  0  0  0  0  0  0
   -1.0860   69.6440   67.6250 O   0  0  0  0  0  0  0  0  0  0  0  0
   -1.0630   67.3620   67.2270 N   0  0  0  0  0  0  0  0  0  0  0  0
   -1.5370   68.6460   64.5120 N   0  0  0  0  0  0  0  0  0  0  0  0
   -2.1200   68.8720   65.6470 C   0  0  0  0  0  0  0  0  0  0  0  0
   -2.4500   68.9090   63.4820 O   0  0  0  0  0  0  0  0  0  0  0  0
    2.8780   69.8861   68.5612 H   0  0  0  0  0  0  0  0  0  0  0  0
    4.4347   69.0008   68.8284 H   0  0  0  0  0  0  0  0  0  0  0  0
    3.9350   71.9800   68.5997 H   0  0  0  0  0  0  0  0  0  0  0  0
    4.7925   71.0033   69.8982 H   0  0  0  0  0  0  0  0  0  0  0  0
    5.8941   72.3935   67.6301 H   0  0  0  0  0  0  0  0  0  0  0  0
    6.7024   71.5108   69.0166 H   0  0  0  0  0  0  0  0  0  0  0  0
    7.3213   70.7709   66.6490 H   0  0  0  0  0  0  0  0  0  0  0  0
    6.8157   69.5037   67.8301 H   0  0  0  0  0  0  0  0  0  0  0  0
    1.4489   68.3995   63.9252 H   0  0  0  0  0  0  0  0  0  0  0  0
    2.0928   68.1505   61.5352 H   0  0  0  0  0  0  0  0  0  0  0  0
    4.4291   68.6620   60.8258 H   0  0  0  0  0  0  0  0  0  0  0  0
    6.0912   69.4184   62.5061 H   0  0  0  0  0  0  0  0  0  0  0  0
    1.1175   69.7519   66.6393 H   0  0  0  0  0  0  0  0  0  0  0  0
    0.7774   67.1985   66.1524 H   0  0  0  0  0  0  0  0  0  0  0  0
    2.4983   67.0117   66.6195 H   0  0  0  0  0  0  0  0  0  0  0  0
    1.8220   66.7249   68.7574 H   0  0  0  0  0  0  0  0  0  0  0  0
    1.2512   68.4397   68.7424 H   0  0  0  0  0  0  0  0  0  0  0  0
   -0.2914   65.8859   68.4708 H   0  0  0  0  0  0  0  0  0  0  0  0
   -0.7254   67.4568   69.2662 H   0  0  0  0  0  0  0  0  0  0  0  0
   -1.4043   66.6248   66.5938 H   0  0  0  0  0  0  0  0  0  0  0  0
   -3.1663   69.2110   65.6670 H   0  0  0  0  0  0  0  0  0  0  0  0
   -2.1783   68.7902   62.5374 H   0  0  0  0  0  0  0  0  0  0  0  0
  2  1  2  0
  3  2  1  0
  4  3  1  0
  5  4  1  0
  6  5  1  0
  7  2  1  0
  7  6  1  0
  8  7  2  0
  9  8  1  0
 10  9  2  0
 10  1  1  0
 11 10  1  0
 12 11  2  0
 13 12  1  0
 14 13  2  0
 14  9  1  0
 15  1  1  0
 16 15  1  0
 17 16  1  0
 18 17  1  0
 20 19  2  0
 21 19  1  0
 21 18  1  0
 23 22  2  0
 23 19  1  0
 24 22  1  0
  3 25  1  0
  3 26  1  0
  4 27  1  0
  4 28  1  0
  5 29  1  0
  5 30  1  0
  6 31  1  0
  6 32  1  0
 11 33  1  0
 12 34  1  0
 13 35  1  0
 14 36  1  0
 15 37  1  0
 16 38  1  0
 16 39  1  0
 17 40  1  0
 17 41  1  0
 18 42  1  0
 18 43  1  0
 21 44  1  0
 23 45  1  0
 24 46  1  0
M  END
>  <score>  (3) 
-10.115

$$$$
=
     RDKit          3D

 46 48  0  0  0  0  0  0  0  0999 V2000
    2.8790   69.2030   66.1590 C   0  0  0  0  0  0  0  0  0  0  0  0
    3.8080   69.6730   67.0980 C   0  0  0  0  0  0  0  0  0  0  0  0
    3.5200   69.8460   68.5660 C   0  0  0  0  0  0  0  0  0  0  0  0
    4.1390   71.1370   69.1100 C   0  0  0  0  0  0  0  0  0  0  0  0
    5.5500   71.4450   68.5880 C   0  0  0  0  0  0  0  0  0  0  0  0
    6.1310   70.3610   67.6830 C   0  0  0  0  0  0  0  0  0  0  0  0
    5.1110   69.9180   66.6670 C   0  0  0  0  0  0  0  0  0  0  0  0
    5.5230   69.7530   65.3930 N   0  0  0  0  0  0  0  0  0  0  0  0
    4.6300   69.3280   64.4870 C   0  0  0  0  0  0  0  0  0  0  0  0
    3.2840   69.0390   64.8030 C   0  0  0  0  0  0  0  0  0  0  0  0
    2.4270   68.6070   63.7570 C   0  0  0  0  0  0  0  0  0  0  0  0
    2.8880   68.4620   62.4490 C   0  0  0  0  0  0  0  0  0  0  0  0
    4.2140   68.7460   62.1580 C   0  0  0  0  0  0  0  0  0  0  0  0
    5.0650   69.1740   63.1770 C   0  0  0  0  0  0  0  0  0  0  0  0
    1.5320   68.9930   66.5730 N   0  0  0  0  0  0  0  0  0  0  0  0
    1.2780   67.5780   66.8750 C   0  0  0  0  0  0  0  0  0  0  0  0
    0.3760   67.4850   68.1020 C   0  0  0  0  0  0  0  0  0  0  0  0
    1.1450   66.9520   69.3060 C   0  0  0  0  0  0  0  0  0  0  0  0
    1.1940   64.8040   70.5250 C   0  0  0  0  0  0  0  0  0  0  0  0
    2.4080   64.7260   70.6300 O   0  0  0  0  0  0  0  0  0  0  0  0
    0.4950   65.8020   69.8890 N   0  0  0  0  0  0  0  0  0  0  0  0
    0.0040   63.7960   72.3980 N   0  0  0  0  0  0  0  0  0  0  0  0
    0.3280   63.7320   71.1450 C   0  0  0  0  0  0  0  0  0  0  0  0
   -0.7940   62.6870   72.7090 O   0  0  0  0  0  0  0  0  0  0  0  0
    2.4307   69.8812   68.7150 H   0  0  0  0  0  0  0  0  0  0  0  0
    3.9615   68.9962   69.1073 H   0  0  0  0  0  0  0  0  0  0  0  0
    3.4816   71.9745   68.8336 H   0  0  0  0  0  0  0  0  0  0  0  0
    4.2343   71.0002   70.1973 H   0  0  0  0  0  0  0  0  0  0  0  0
    5.5099   72.3853   68.0186 H   0  0  0  0  0  0  0  0  0  0  0  0
    6.2067   71.5086   69.4682 H   0  0  0  0  0  0  0  0  0  0  0  0
    7.0126   70.7603   67.1602 H   0  0  0  0  0  0  0  0  0  0  0  0
    6.4153   69.4967   68.3012 H   0  0  0  0  0  0  0  0  0  0  0  0
    1.3745   68.3813   63.9836 H   0  0  0  0  0  0  0  0  0  0  0  0
    2.2057   68.1252   61.6546 H   0  0  0  0  0  0  0  0  0  0  0  0
    4.5919   68.6345   61.1310 H   0  0  0  0  0  0  0  0  0  0  0  0
    6.1147   69.3968   62.9352 H   0  0  0  0  0  0  0  0  0  0  0  0
    0.8258   69.7388   66.6507 H   0  0  0  0  0  0  0  0  0  0  0  0
    0.7827   67.1010   66.0164 H   0  0  0  0  0  0  0  0  0  0  0  0
    2.2300   67.0643   67.0744 H   0  0  0  0  0  0  0  0  0  0  0  0
   -0.0140   68.4860   68.3386 H   0  0  0  0  0  0  0  0  0  0  0  0
   -0.4493   66.7929   67.8788 H   0  0  0  0  0  0  0  0  0  0  0  0
    2.1567   66.6643   68.9839 H   0  0  0  0  0  0  0  0  0  0  0  0
    1.1840   67.7458   70.0665 H   0  0  0  0  0  0  0  0  0  0  0  0
   -0.5303   65.7268   69.8259 H   0  0  0  0  0  0  0  0  0  0  0  0
   -0.0291   62.8931   70.5296 H   0  0  0  0  0  0  0  0  0  0  0  0
   -1.1383   62.5674   73.6295 H   0  0  0  0  0  0  0  0  0  0  0  0
  2  1  2  0
  3  2  1  0
  4  3  1  0
  5  4  1  0
  6  5  1  0
  7  2  1  0
  7  6  1  0
  8  7  2  0
  9  8  1  0
 10  9  2  0
 10  1  1  0
 11 10  1  0
 12 11  2  0
 13 12  1  0
 14 13  2  0
 14  9  1  0
 15  1  1  0
 16 15  1  0
 17 16  1  0
 18 17  1  0
 20 19  2  0
 21 19  1  0
 21 18  1  0
 23 22  2  0
 23 19  1  0
 24 22  1  0
  3 25  1  0
  3 26  1  0
  4 27  1  0
  4 28  1  0
  5 29  1  0
  5 30  1  0
  6 31  1  0
  6 32  1  0
 11 33  1  0
 12 34  1  0
 13 35  1  0
 14 36  1  0
 15 37  1  0
 16 38  1  0
 16 39  1  0
 17 40  1  0
 17 41  1  0
 18 42  1  0
 18 43  1  0
 21 44  1  0
 23 45  1  0
 24 46  1  0
M  END
>  <score>  (4) 
-9.862

$$$$
=
     RDKit          3D

 46 48  0  0  0  0  0  0  0  0999 V2000
    3.2950   69.3610   66.0780 C   0  0  0  0  0  0  0  0  0  0  0  0
    3.7080   69.1220   64.7600 C   0  0  0  0  0  0  0  0  0  0  0  0
    2.8020   68.6400   63.6580 C   0  0  0  0  0  0  0  0  0  0  0  0
    3.4940   67.5920   62.7820 C   0  0  0  0  0  0  0  0  0  0  0  0
    4.9630   67.8930   62.4560 C   0  0  0  0  0  0  0  0  0  0  0  0
    5.4580   69.2360   62.9900 C   0  0  0  0  0  0  0  0  0  0  0  0
    5.0240   69.4290   64.4200 C   0  0  0  0  0  0  0  0  0  0  0  0
    5.9300   69.9200   65.2910 N   0  0  0  0  0  0  0  0  0  0  0  0
    5.5440   70.1260   66.5580 C   0  0  0  0  0  0  0  0  0  0  0  0
    4.2370   69.8610   67.0230 C   0  0  0  0  0  0  0  0  0  0  0  0
    3.9470   70.1060   68.3910 C   0  0  0  0  0  0  0  0  0  0  0  0
    4.9160   70.6010   69.2640 C   0  0  0  0  0  0  0  0  0  0  0  0
    6.1930   70.8590   68.7890 C   0  0  0  0  0  0  0  0  0  0  0  0
    6.4900   70.6190   67.4470 C   0  0  0  0  0  0  0  0  0  0  0  0
    1.9660   69.0080   66.4550 N   0  0  0  0  0  0  0  0  0  0  0  0
    1.7900   67.5500   66.4970 C   0  0  0  0  0  0  0  0  0  0  0  0
    0.3010   67.2260   66.4220 C   0  0  0  0  0  0  0  0  0  0  0  0
   -0.4010   67.5840   67.7280 C   0  0  0  0  0  0  0  0  0  0  0  0
    0.5390   66.3830   69.6710 C   0  0  0  0  0  0  0  0  0  0  0  0
    1.4710   67.1440   69.8740 O   0  0  0  0  0  0  0  0  0  0  0  0
   -0.3890   66.4820   68.6610 N   0  0  0  0  0  0  0  0  0  0  0  0
    0.4990   63.9950   70.1620 N   0  0  0  0  0  0  0  0  0  0  0  0
    0.3320   65.2050   70.5950 C   0  0  0  0  0  0  0  0  0  0  0  0
    0.2430   63.1060   71.2140 O   0  0  0  0  0  0  0  0  0  0  0  0
    1.9012   68.1941   64.1049 H   0  0  0  0  0  0  0  0  0  0  0  0
    2.5396   69.5006   63.0251 H   0  0  0  0  0  0  0  0  0  0  0  0
    3.4510   66.6258   63.3061 H   0  0  0  0  0  0  0  0  0  0  0  0
    2.9583   67.5894   61.8213 H   0  0  0  0  0  0  0  0  0  0  0  0
    5.5839   67.0973   62.8934 H   0  0  0  0  0  0  0  0  0  0  0  0
    5.0416   67.9392   61.3598 H   0  0  0  0  0  0  0  0  0  0  0  0
    6.5565   69.2631   62.9385 H   0  0  0  0  0  0  0  0  0  0  0  0
    5.0290   70.0421   62.3767 H   0  0  0  0  0  0  0  0  0  0  0  0
    2.9354   69.9009   68.7712 H   0  0  0  0  0  0  0  0  0  0  0  0
    4.6692   70.7851   70.3200 H   0  0  0  0  0  0  0  0  0  0  0  0
    6.9668   71.2503   69.4658 H   0  0  0  0  0  0  0  0  0  0  0  0
    7.5064   70.8270   67.0814 H   0  0  0  0  0  0  0  0  0  0  0  0
    1.2236   69.6887   66.6705 H   0  0  0  0  0  0  0  0  0  0  0  0
    2.3105   67.0911   65.6435 H   0  0  0  0  0  0  0  0  0  0  0  0
    2.2098   67.1522   67.4327 H   0  0  0  0  0  0  0  0  0  0  0  0
   -0.1516   67.8009   65.6006 H   0  0  0  0  0  0  0  0  0  0  0  0
    0.1849   66.1465   66.2454 H   0  0  0  0  0  0  0  0  0  0  0  0
    0.1123   68.4431   68.1846 H   0  0  0  0  0  0  0  0  0  0  0  0
   -1.4489   67.8270   67.4983 H   0  0  0  0  0  0  0  0  0  0  0  0
   -1.1010   65.7437   68.5667 H   0  0  0  0  0  0  0  0  0  0  0  0
    0.0379   65.3757   71.6411 H   0  0  0  0  0  0  0  0  0  0  0  0
    0.3216   62.1301   71.0676 H   0  0  0  0  0  0  0  0  0  0  0  0
  2  1  2  0
  3  2  1  0
  4  3  1  0
  5  4  1  0
  6  5  1  0
  7  2  1  0
  7  6  1  0
  8  7  2  0
  9  8  1  0
 10  9  2  0
 10  1  1  0
 11 10  1  0
 12 11  2  0
 13 12  1  0
 14 13  2  0
 14  9  1  0
 15  1  1  0
 16 15  1  0
 17 16  1  0
 18 17  1  0
 20 19  2  0
 21 19  1  0
 21 18  1  0
 23 22  2  0
 23 19  1  0
 24 22  1  0
  3 25  1  0
  3 26  1  0
  4 27  1  0
  4 28  1  0
  5 29  1  0
  5 30  1  0
  6 31  1  0
  6 32  1  0
 11 33  1  0
 12 34  1  0
 13 35  1  0
 14 36  1  0
 15 37  1  0
 16 38  1  0
 16 39  1  0
 17 40  1  0
 17 41  1  0
 18 42  1  0
 18 43  1  0
 21 44  1  0
 23 45  1  0
 24 46  1  0
M  END
>  <score>  (5) 
-9.757

$$$$
=
     RDKit          3D

 46 48  0  0  0  0  0  0  0  0999 V2000
    3.9740   68.7860   65.9860 C   0  0  0  0  0  0  0  0  0  0  0  0
    2.6710   68.4640   66.3930 C   0  0  0  0  0  0  0  0  0  0  0  0
    1.7780   67.4800   65.6840 C   0  0  0  0  0  0  0  0  0  0  0  0
    0.3330   67.9830   65.6160 C   0  0  0  0  0  0  0  0  0  0  0  0
   -0.1750   68.6570   66.8990 C   0  0  0  0  0  0  0  0  0  0  0  0
    0.8230   68.6300   68.0550 C   0  0  0  0  0  0  0  0  0  0  0  0
    2.1970   69.0230   67.5780 C   0  0  0  0  0  0  0  0  0  0  0  0
    2.9090   69.8750   68.3440 N   0  0  0  0  0  0  0  0  0  0  0  0
    4.1450   70.2060   67.9440 C   0  0  0  0  0  0  0  0  0  0  0  0
    4.7400   69.7000   66.7660 C   0  0  0  0  0  0  0  0  0  0  0  0
    6.0510   70.1310   66.4370 C   0  0  0  0  0  0  0  0  0  0  0  0
    6.7490   71.0260   67.2480 C   0  0  0  0  0  0  0  0  0  0  0  0
    6.1520   71.5090   68.4030 C   0  0  0  0  0  0  0  0  0  0  0  0
    4.8620   71.0940   68.7350 C   0  0  0  0  0  0  0  0  0  0  0  0
    4.4570   68.2610   64.7520 N   0  0  0  0  0  0  0  0  0  0  0  0
    3.9840   69.0550   63.6100 C   0  0  0  0  0  0  0  0  0  0  0  0
    3.6570   68.1150   62.4520 C   0  0  0  0  0  0  0  0  0  0  0  0
    2.6530   68.7530   61.4990 C   0  0  0  0  0  0  0  0  0  0  0  0
    0.3090   69.5320   61.4790 C   0  0  0  0  0  0  0  0  0  0  0  0
    0.3440   70.0660   60.3810 O   0  0  0  0  0  0  0  0  0  0  0  0
    1.3560   68.9090   62.1150 N   0  0  0  0  0  0  0  0  0  0  0  0
   -1.1870   68.6370   63.1830 N   0  0  0  0  0  0  0  0  0  0  0  0
   -0.9900   69.5170   62.2520 C   0  0  0  0  0  0  0  0  0  0  0  0
   -2.4600   68.8460   63.7300 O   0  0  0  0  0  0  0  0  0  0  0  0
    2.1529   67.3296   64.6608 H   0  0  0  0  0  0  0  0  0  0  0  0
    1.7889   66.5352   66.2473 H   0  0  0  0  0  0  0  0  0  0  0  0
    0.2627   68.7122   64.7954 H   0  0  0  0  0  0  0  0  0  0  0  0
   -0.2973   67.0947   65.4622 H   0  0  0  0  0  0  0  0  0  0  0  0
   -0.4083   69.7070   66.6685 H   0  0  0  0  0  0  0  0  0  0  0  0
   -1.0571   68.0881   67.2282 H   0  0  0  0  0  0  0  0  0  0  0  0
    0.4947   69.3353   68.8327 H   0  0  0  0  0  0  0  0  0  0  0  0
    0.8672   67.6090   68.4618 H   0  0  0  0  0  0  0  0  0  0  0  0
    6.5279   69.7508   65.5216 H   0  0  0  0  0  0  0  0  0  0  0  0
    7.7650   71.3462   66.9736 H   0  0  0  0  0  0  0  0  0  0  0  0
    6.6916   72.2140   69.0524 H   0  0  0  0  0  0  0  0  0  0  0  0
    4.3978   71.4829   69.6533 H   0  0  0  0  0  0  0  0  0  0  0  0
    5.0609   67.4305   64.6712 H   0  0  0  0  0  0  0  0  0  0  0  0
    3.0811   69.6134   63.8979 H   0  0  0  0  0  0  0  0  0  0  0  0
    4.7654   69.7655   63.3025 H   0  0  0  0  0  0  0  0  0  0  0  0
    4.5815   67.8872   61.9012 H   0  0  0  0  0  0  0  0  0  0  0  0
    3.2161   67.1940   62.8613 H   0  0  0  0  0  0  0  0  0  0  0  0
    3.0263   69.7431   61.1985 H   0  0  0  0  0  0  0  0  0  0  0  0
    2.5409   68.0924   60.6266 H   0  0  0  0  0  0  0  0  0  0  0  0
    1.2104   68.5399   63.0655 H   0  0  0  0  0  0  0  0  0  0  0  0
   -1.7717   70.2564   62.0233 H   0  0  0  0  0  0  0  0  0  0  0  0
   -2.7866   68.2633   64.4607 H   0  0  0  0  0  0  0  0  0  0  0  0
  2  1  2  0
  3  2  1  0
  4  3  1  0
  5  4  1  0
  6  5  1  0
  7  2  1  0
  7  6  1  0
  8  7  2  0
  9  8  1  0
 10  9  2  0
 10  1  1  0
 11 10  1  0
 12 11  2  0
 13 12  1  0
 14 13  2  0
 14  9  1  0
 15  1  1  0
 16 15  1  0
 17 16  1  0
 18 17  1  0
 20 19  2  0
 21 19  1  0
 21 18  1  0
 23 22  2  0
 23 19  1  0
 24 22  1  0
  3 25  1  0
  3 26  1  0
  4 27  1  0
  4 28  1  0
  5 29  1  0
  5 30  1  0
  6 31  1  0
  6 32  1  0
 11 33  1  0
 12 34  1  0
 13 35  1  0
 14 36  1  0
 15 37  1  0
 16 38  1  0
 16 39  1  0
 17 40  1  0
 17 41  1  0
 18 42  1  0
 18 43  1  0
 21 44  1  0
 23 45  1  0
 24 46  1  0
M  END
>  <score>  (6) 
-9.633

$$$$
=
     RDKit          3D

 46 48  0  0  0  0  0  0  0  0999 V2000
    2.9180   69.4640   66.9680 C   0  0  0  0  0  0  0  0  0  0  0  0
    2.9800   69.1220   65.6100 C   0  0  0  0  0  0  0  0  0  0  0  0
    1.8020   68.6560   64.7950 C   0  0  0  0  0  0  0  0  0  0  0  0
    2.1890   67.5100   63.8560 C   0  0  0  0  0  0  0  0  0  0  0  0
    3.5510   67.6750   63.1660 C   0  0  0  0  0  0  0  0  0  0  0  0
    4.2470   69.0000   63.4680 C   0  0  0  0  0  0  0  0  0  0  0  0
    4.1900   69.3040   64.9420 C   0  0  0  0  0  0  0  0  0  0  0  0
    5.3110   69.7670   65.5330 N   0  0  0  0  0  0  0  0  0  0  0  0
    5.2610   70.0700   66.8380 C   0  0  0  0  0  0  0  0  0  0  0  0
    4.0930   69.9370   67.6200 C   0  0  0  0  0  0  0  0  0  0  0  0
    4.1630   70.2780   68.9960 C   0  0  0  0  0  0  0  0  0  0  0  0
    5.3470   70.7390   69.5740 C   0  0  0  0  0  0  0  0  0  0  0  0
    6.4830   70.8690   68.7890 C   0  0  0  0  0  0  0  0  0  0  0  0
    6.4260   70.5340   67.4360 C   0  0  0  0  0  0  0  0  0  0  0  0
    1.7020   69.2400   67.6770 N   0  0  0  0  0  0  0  0  0  0  0  0
    1.5320   67.8200   68.0130 C   0  0  0  0  0  0  0  0  0  0  0  0
    0.0430   67.5170   68.1560 C   0  0  0  0  0  0  0  0  0  0  0  0
   -0.2020   66.4880   69.2540 C   0  0  0  0  0  0  0  0  0  0  0  0
    1.0890   64.8800   70.6140 C   0  0  0  0  0  0  0  0  0  0  0  0
    0.2810   64.7790   71.5230 O   0  0  0  0  0  0  0  0  0  0  0  0
    0.9720   65.6870   69.5060 N   0  0  0  0  0  0  0  0  0  0  0  0
    2.4760   63.0850   71.5060 N   0  0  0  0  0  0  0  0  0  0  0  0
    2.3550   64.0540   70.6540 C   0  0  0  0  0  0  0  0  0  0  0  0
    3.7340   62.4930   71.3290 O   0  0  0  0  0  0  0  0  0  0  0  0
    1.0109   68.3088   65.4759 H   0  0  0  0  0  0  0  0  0  0  0  0
    1.4492   69.4997   64.1836 H   0  0  0  0  0  0  0  0  0  0  0  0
    2.2131   66.5800   64.4429 H   0  0  0  0  0  0  0  0  0  0  0  0
    1.4353   67.4981   63.0548 H   0  0  0  0  0  0  0  0  0  0  0  0
    4.2073   66.8568   63.4973 H   0  0  0  0  0  0  0  0  0  0  0  0
    3.3618   67.6561   62.0826 H   0  0  0  0  0  0  0  0  0  0  0  0
    5.2988   68.9362   63.1523 H   0  0  0  0  0  0  0  0  0  0  0  0
    3.7336   69.8036   62.9197 H   0  0  0  0  0  0  0  0  0  0  0  0
    3.2636   70.1767   69.6212 H   0  0  0  0  0  0  0  0  0  0  0  0
    5.3788   70.9970   70.6429 H   0  0  0  0  0  0  0  0  0  0  0  0
    7.4223   71.2337   69.2302 H   0  0  0  0  0  0  0  0  0  0  0  0
    7.3329   70.6407   66.8227 H   0  0  0  0  0  0  0  0  0  0  0  0
    1.0283   69.9795   67.9225 H   0  0  0  0  0  0  0  0  0  0  0  0
    1.9595   67.1981   67.2127 H   0  0  0  0  0  0  0  0  0  0  0  0
    2.0485   67.5978   68.9584 H   0  0  0  0  0  0  0  0  0  0  0  0
   -0.4905   68.4455   68.4076 H   0  0  0  0  0  0  0  0  0  0  0  0
   -0.3244   67.1075   67.2035 H   0  0  0  0  0  0  0  0  0  0  0  0
   -0.4805   67.0134   70.1794 H   0  0  0  0  0  0  0  0  0  0  0  0
   -1.0095   65.8185   68.9228 H   0  0  0  0  0  0  0  0  0  0  0  0
    1.7502   65.7208   68.8320 H   0  0  0  0  0  0  0  0  0  0  0  0
    3.1765   64.2765   69.9571 H   0  0  0  0  0  0  0  0  0  0  0  0
    4.0058   61.7290   71.8969 H   0  0  0  0  0  0  0  0  0  0  0  0
  2  1  2  0
  3  2  1  0
  4  3  1  0
  5  4  1  0
  6  5  1  0
  7  2  1  0
  7  6  1  0
  8  7  2  0
  9  8  1  0
 10  9  2  0
 10  1  1  0
 11 10  1  0
 12 11  2  0
 13 12  1  0
 14 13  2  0
 14  9  1  0
 15  1  1  0
 16 15  1  0
 17 16  1  0
 18 17  1  0
 20 19  2  0
 21 19  1  0
 21 18  1  0
 23 22  2  0
 23 19  1  0
 24 22  1  0
  3 25  1  0
  3 26  1  0
  4 27  1  0
  4 28  1  0
  5 29  1  0
  5 30  1  0
  6 31  1  0
  6 32  1  0
 11 33  1  0
 12 34  1  0
 13 35  1  0
 14 36  1  0
 15 37  1  0
 16 38  1  0
 16 39  1  0
 17 40  1  0
 17 41  1  0
 18 42  1  0
 18 43  1  0
 21 44  1  0
 23 45  1  0
 24 46  1  0
M  END
>  <score>  (7) 
-9.371

$$$$
=
     RDKit          3D

 46 48  0  0  0  0  0  0  0  0999 V2000
    3.8780   68.9570   65.7290 C   0  0  0  0  0  0  0  0  0  0  0  0
    4.6640   69.7780   66.5500 C   0  0  0  0  0  0  0  0  0  0  0  0
    6.0450   70.2620   66.1950 C   0  0  0  0  0  0  0  0  0  0  0  0
    6.9830   70.2160   67.4050 C   0  0  0  0  0  0  0  0  0  0  0  0
    6.3520   70.6750   68.7280 C   0  0  0  0  0  0  0  0  0  0  0  0
    4.9190   71.1840   68.5910 C   0  0  0  0  0  0  0  0  0  0  0  0
    4.1040   70.2490   67.7360 C   0  0  0  0  0  0  0  0  0  0  0  0
    2.8580   69.9420   68.1520 N   0  0  0  0  0  0  0  0  0  0  0  0
    2.1130   69.1360   67.3810 C   0  0  0  0  0  0  0  0  0  0  0  0
    2.5650   68.6010   66.1550 C   0  0  0  0  0  0  0  0  0  0  0  0
    1.6920   67.7490   65.4300 C   0  0  0  0  0  0  0  0  0  0  0  0
    0.4150   67.4430   65.9020 C   0  0  0  0  0  0  0  0  0  0  0  0
   -0.0150   67.9810   67.1050 C   0  0  0  0  0  0  0  0  0  0  0  0
    0.8370   68.8180   67.8270 C   0  0  0  0  0  0  0  0  0  0  0  0
    4.4520   68.4280   64.5370 N   0  0  0  0  0  0  0  0  0  0  0  0
    3.9740   69.1450   63.3480 C   0  0  0  0  0  0  0  0  0  0  0  0
    3.6480   68.1320   62.2530 C   0  0  0  0  0  0  0  0  0  0  0  0
    4.3940   66.8230   62.4830 C   0  0  0  0  0  0  0  0  0  0  0  0
    4.3330   64.8530   63.9720 C   0  0  0  0  0  0  0  0  0  0  0  0
    5.2540   64.2470   63.4480 O   0  0  0  0  0  0  0  0  0  0  0  0
    3.8250   66.0670   63.5730 N   0  0  0  0  0  0  0  0  0  0  0  0
    4.3080   63.4700   65.9790 N   0  0  0  0  0  0  0  0  0  0  0  0
    3.6560   64.2620   65.1870 C   0  0  0  0  0  0  0  0  0  0  0  0
    3.4500   63.0700   67.0130 O   0  0  0  0  0  0  0  0  0  0  0  0
    6.4550   69.6217   65.4001 H   0  0  0  0  0  0  0  0  0  0  0  0
    5.9689   71.3057   65.8561 H   0  0  0  0  0  0  0  0  0  0  0  0
    7.3271   69.1789   67.5318 H   0  0  0  0  0  0  0  0  0  0  0  0
    7.7993   70.9214   67.1905 H   0  0  0  0  0  0  0  0  0  0  0  0
    6.3511   69.8234   69.4242 H   0  0  0  0  0  0  0  0  0  0  0  0
    6.9556   71.5198   69.0913 H   0  0  0  0  0  0  0  0  0  0  0  0
    4.4623   71.2516   69.5894 H   0  0  0  0  0  0  0  0  0  0  0  0
    4.9386   72.1749   68.1138 H   0  0  0  0  0  0  0  0  0  0  0  0
    2.0294   67.3203   64.4748 H   0  0  0  0  0  0  0  0  0  0  0  0
   -0.2454   66.7799   65.3239 H   0  0  0  0  0  0  0  0  0  0  0  0
   -1.0201   67.7500   67.4876 H   0  0  0  0  0  0  0  0  0  0  0  0
    0.4863   69.2396   68.7805 H   0  0  0  0  0  0  0  0  0  0  0  0
    5.1177   67.6424   64.5124 H   0  0  0  0  0  0  0  0  0  0  0  0
    3.0696   69.7175   63.6016 H   0  0  0  0  0  0  0  0  0  0  0  0
    4.7524   69.8369   62.9938 H   0  0  0  0  0  0  0  0  0  0  0  0
    2.5658   67.9349   62.2554 H   0  0  0  0  0  0  0  0  0  0  0  0
    3.9606   68.5490   61.2843 H   0  0  0  0  0  0  0  0  0  0  0  0
    4.3435   66.2183   61.5655 H   0  0  0  0  0  0  0  0  0  0  0  0
    5.4360   67.0636   62.7406 H   0  0  0  0  0  0  0  0  0  0  0  0
    3.0086   66.4508   64.0701 H   0  0  0  0  0  0  0  0  0  0  0  0
    2.6046   64.5052   65.4002 H   0  0  0  0  0  0  0  0  0  0  0  0
    3.7774   62.4581   67.7191 H   0  0  0  0  0  0  0  0  0  0  0  0
  2  1  2  0
  3  2  1  0
  4  3  1  0
  5  4  1  0
  6  5  1  0
  7  2  1  0
  7  6  1  0
  8  7  2  0
  9  8  1  0
 10  9  2  0
 10  1  1  0
 11 10  1  0
 12 11  2  0
 13 12  1  0
 14 13  2  0
 14  9  1  0
 15  1  1  0
 16 15  1  0
 17 16  1  0
 18 17  1  0
 20 19  2  0
 21 19  1  0
 21 18  1  0
 23 22  2  0
 23 19  1  0
 24 22  1  0
  3 25  1  0
  3 26  1  0
  4 27  1  0
  4 28  1  0
  5 29  1  0
  5 30  1  0
  6 31  1  0
  6 32  1  0
 11 33  1  0
 12 34  1  0
 13 35  1  0
 14 36  1  0
 15 37  1  0
 16 38  1  0
 16 39  1  0
 17 40  1  0
 17 41  1  0
 18 42  1  0
 18 43  1  0
 21 44  1  0
 23 45  1  0
 24 46  1  0
M  END
>  <score>  (8) 
-8.907

$$$$
=
     RDKit          3D

 46 48  0  0  0  0  0  0  0  0999 V2000
    0.7810   62.1320   71.6520 C   0  0  0  0  0  0  0  0  0  0  0  0
    2.0580   61.8540   71.1430 C   0  0  0  0  0  0  0  0  0  0  0  0
    2.8510   62.7950   70.2750 C   0  0  0  0  0  0  0  0  0  0  0  0
    3.5620   62.0480   69.1430 C   0  0  0  0  0  0  0  0  0  0  0  0
    4.1900   60.7070   69.5510 C   0  0  0  0  0  0  0  0  0  0  0  0
    4.0720   60.3910   71.0410 C   0  0  0  0  0  0  0  0  0  0  0  0
    2.6750   60.6660   71.5310 C   0  0  0  0  0  0  0  0  0  0  0  0
    2.1050   59.7570   72.3490 N   0  0  0  0  0  0  0  0  0  0  0  0
    0.8740   60.0080   72.8170 C   0  0  0  0  0  0  0  0  0  0  0  0
    0.1490   61.1790   72.5020 C   0  0  0  0  0  0  0  0  0  0  0  0
   -1.1530   61.3310   73.0470 C   0  0  0  0  0  0  0  0  0  0  0  0
   -1.7130   60.3600   73.8770 C   0  0  0  0  0  0  0  0  0  0  0  0
   -0.9860   59.2190   74.1790 C   0  0  0  0  0  0  0  0  0  0  0  0
    0.2940   59.0580   73.6470 C   0  0  0  0  0  0  0  0  0  0  0  0
    0.1180   63.3190   71.2270 N   0  0  0  0  0  0  0  0  0  0  0  0
    0.3090   64.4140   72.1890 C   0  0  0  0  0  0  0  0  0  0  0  0
    0.0310   65.7430   71.4920 C   0  0  0  0  0  0  0  0  0  0  0  0
    0.5900   65.7420   70.0730 C   0  0  0  0  0  0  0  0  0  0  0  0
   -0.2450   67.2080   68.2700 C   0  0  0  0  0  0  0  0  0  0  0  0
    0.6960   67.9870   68.2700 O   0  0  0  0  0  0  0  0  0  0  0  0
   -0.4080   66.1290   69.1050 N   0  0  0  0  0  0  0  0  0  0  0  0
   -2.5680   67.6410   67.6710 N   0  0  0  0  0  0  0  0  0  0  0  0
   -1.3600   67.3980   67.2680 C   0  0  0  0  0  0  0  0  0  0  0  0
   -3.3950   67.7700   66.5470 O   0  0  0  0  0  0  0  0  0  0  0  0
    2.1690   63.5398   69.8389 H   0  0  0  0  0  0  0  0  0  0  0  0
    3.6138   63.2820   70.9003 H   0  0  0  0  0  0  0  0  0  0  0  0
    2.8279   61.8540   68.3471 H   0  0  0  0  0  0  0  0  0  0  0  0
    4.3923   62.6932   68.8199 H   0  0  0  0  0  0  0  0  0  0  0  0
    3.6901   59.9056   68.9872 H   0  0  0  0  0  0  0  0  0  0  0  0
    5.2644   60.7782   69.3258 H   0  0  0  0  0  0  0  0  0  0  0  0
    4.3108   59.3299   71.2057 H   0  0  0  0  0  0  0  0  0  0  0  0
    4.7751   61.0293   71.5961 H   0  0  0  0  0  0  0  0  0  0  0  0
   -1.7332   62.2348   72.8094 H   0  0  0  0  0  0  0  0  0  0  0  0
   -2.7236   60.4985   74.2887 H   0  0  0  0  0  0  0  0  0  0  0  0
   -1.4151   58.4459   74.8334 H   0  0  0  0  0  0  0  0  0  0  0  0
    0.8620   58.1488   73.8933 H   0  0  0  0  0  0  0  0  0  0  0  0
   -0.4261   63.3998   70.3562 H   0  0  0  0  0  0  0  0  0  0  0  0
   -0.3849   64.2883   73.0332 H   0  0  0  0  0  0  0  0  0  0  0  0
    1.3424   64.4013   72.5656 H   0  0  0  0  0  0  0  0  0  0  0  0
   -1.0559   65.9073   71.4506 H   0  0  0  0  0  0  0  0  0  0  0  0
    0.5202   66.5470   72.0614 H   0  0  0  0  0  0  0  0  0  0  0  0
    1.4305   66.4497   70.0206 H   0  0  0  0  0  0  0  0  0  0  0  0
    0.9194   64.7198   69.8353 H   0  0  0  0  0  0  0  0  0  0  0  0
   -1.2744   65.5760   69.0376 H   0  0  0  0  0  0  0  0  0  0  0  0
   -1.1456   67.3298   66.1912 H   0  0  0  0  0  0  0  0  0  0  0  0
   -4.3601   67.9586   66.6616 H   0  0  0  0  0  0  0  0  0  0  0  0
  2  1  2  0
  3  2  1  0
  4  3  1  0
  5  4  1  0
  6  5  1  0
  7  2  1  0
  7  6  1  0
  8  7  2  0
  9  8  1  0
 10  9  2  0
 10  1  1  0
 11 10  1  0
 12 11  2  0
 13 12  1  0
 14 13  2  0
 14  9  1  0
 15  1  1  0
 16 15  1  0
 17 16  1  0
 18 17  1  0
 20 19  2  0
 21 19  1  0
 21 18  1  0
 23 22  2  0
 23 19  1  0
 24 22  1  0
  3 25  1  0
  3 26  1  0
  4 27  1  0
  4 28  1  0
  5 29  1  0
  5 30  1  0
  6 31  1  0
  6 32  1  0
 11 33  1  0
 12 34  1  0
 13 35  1  0
 14 36  1  0
 15 37  1  0
 16 38  1  0
 16 39  1  0
 17 40  1  0
 17 41  1  0
 18 42  1  0
 18 43  1  0
 21 44  1  0
 23 45  1  0
 24 46  1  0
M  END
>  <score>  (9) 
-8.583

$$$$
