=
     RDKit          3D

 29 30  0  0  0  0  0  0  0  0999 V2000
    2.2330   68.8830   66.2050 C   0  0  0  0  0  0  0  0  0  0  0  0
    1.1730   68.8100   66.8160 O   0  0  0  0  0  0  0  0  0  0  0  0
    6.9130   71.2100   68.7160 C   0  0  0  0  0  0  0  0  0  0  0  0
    5.7170   70.5790   68.0670 C   0  0  0  0  0  0  0  0  0  0  0  0
    5.7980   70.0860   66.7590 C   0  0  0  0  0  0  0  0  0  0  0  0
    4.6780   69.5210   66.1400 C   0  0  0  0  0  0  0  0  0  0  0  0
    3.4590   69.4530   66.8230 C   0  0  0  0  0  0  0  0  0  0  0  0
    3.3720   69.9570   68.1270 C   0  0  0  0  0  0  0  0  0  0  0  0
    4.4930   70.5210   68.7430 C   0  0  0  0  0  0  0  0  0  0  0  0
    2.2630   68.4130   64.7700 C   0  0  0  0  0  0  0  0  0  0  0  0
    1.6880   69.0850   63.9210 O   0  0  0  0  0  0  0  0  0  0  0  0
    2.9520   67.1420   64.4220 C   0  0  0  0  0  0  0  0  0  0  0  0
    3.9070   67.0620   63.4000 C   0  0  0  0  0  0  0  0  0  0  0  0
    4.5370   65.8440   63.1220 C   0  0  0  0  0  0  0  0  0  0  0  0
    4.2160   64.7080   63.8630 C   0  0  0  0  0  0  0  0  0  0  0  0
    3.2680   64.7760   64.8810 C   0  0  0  0  0  0  0  0  0  0  0  0
    2.6360   65.9910   65.1600 C   0  0  0  0  0  0  0  0  0  0  0  0
    4.9950   63.2140   63.5180 Cl  0  0  0  0  0  0  0  0  0  0  0  0
    6.8085   71.1549   69.8096 H   0  0  0  0  0  0  0  0  0  0  0  0
    7.8229   70.6746   68.4072 H   0  0  0  0  0  0  0  0  0  0  0  0
    6.9847   72.2633   68.4072 H   0  0  0  0  0  0  0  0  0  0  0  0
    6.7512   70.1435   66.2131 H   0  0  0  0  0  0  0  0  0  0  0  0
    4.7559   69.1297   65.1149 H   0  0  0  0  0  0  0  0  0  0  0  0
    2.4162   69.9087   68.6694 H   0  0  0  0  0  0  0  0  0  0  0  0
    4.4126   70.9213   69.7644 H   0  0  0  0  0  0  0  0  0  0  0  0
    4.1619   67.9581   62.8152 H   0  0  0  0  0  0  0  0  0  0  0  0
    5.2858   65.7830   62.3185 H   0  0  0  0  0  0  0  0  0  0  0  0
    3.0176   63.8769   65.4632 H   0  0  0  0  0  0  0  0  0  0  0  0
    1.8862   66.0454   65.9631 H   0  0  0  0  0  0  0  0  0  0  0  0
  2  1  2  0
  4  3  1  0
  5  4  2  0
  6  5  1  0
  7  6  2  0
  7  1  1  0
  8  7  1  0
  9  8  2  0
  9  4  1  0
 10  1  1  0
 11 10  2  0
 12 10  1  0
 13 12  2  0
 14 13  1  0
 15 14  2  0
 16 15  1  0
 17 16  2  0
 17 12  1  0
 18 15  1  0
  3 19  1  0
  3 20  1  0
  3 21  1  0
  5 22  1  0
  6 23  1  0
  8 24  1  0
  9 25  1  0
 13 26  1  0
 14 27  1  0
 16 28  1  0
 17 29  1  0
M  END
>  <score>  (1) 
-9.841

$$$$
=
     RDKit          3D

 29 30  0  0  0  0  0  0  0  0999 V2000
    2.1850   68.8870   66.1920 C   0  0  0  0  0  0  0  0  0  0  0  0
    1.0880   68.7910   66.7290 O   0  0  0  0  0  0  0  0  0  0  0  0
    6.8380   71.1590   68.8020 C   0  0  0  0  0  0  0  0  0  0  0  0
    5.6200   70.6010   68.1270 C   0  0  0  0  0  0  0  0  0  0  0  0
    4.4080   70.5030   68.8210 C   0  0  0  0  0  0  0  0  0  0  0  0
    3.2760   69.9570   68.2050 C   0  0  0  0  0  0  0  0  0  0  0  0
    3.3500   69.4940   66.8870 C   0  0  0  0  0  0  0  0  0  0  0  0
    4.5650   69.5790   66.1950 C   0  0  0  0  0  0  0  0  0  0  0  0
    5.6940   70.1240   66.8130 C   0  0  0  0  0  0  0  0  0  0  0  0
    2.3260   68.4080   64.7660 C   0  0  0  0  0  0  0  0  0  0  0  0
    1.8740   69.1070   63.8660 O   0  0  0  0  0  0  0  0  0  0  0  0
    2.9720   67.0990   64.4860 C   0  0  0  0  0  0  0  0  0  0  0  0
    2.6170   65.9280   65.1680 C   0  0  0  0  0  0  0  0  0  0  0  0
    3.2460   64.7160   64.8580 C   0  0  0  0  0  0  0  0  0  0  0  0
    4.2270   64.6750   63.8700 C   0  0  0  0  0  0  0  0  0  0  0  0
    4.5890   65.8330   63.1860 C   0  0  0  0  0  0  0  0  0  0  0  0
    3.9620   67.0440   63.4940 C   0  0  0  0  0  0  0  0  0  0  0  0
    4.9950   63.1830   63.4910 Cl  0  0  0  0  0  0  0  0  0  0  0  0
    6.7115   71.1010   69.8932 H   0  0  0  0  0  0  0  0  0  0  0  0
    7.7219   70.5760   68.5039 H   0  0  0  0  0  0  0  0  0  0  0  0
    6.9737   72.2091   68.5039 H   0  0  0  0  0  0  0  0  0  0  0  0
    4.3448   70.8584   69.8601 H   0  0  0  0  0  0  0  0  0  0  0  0
    2.3272   69.8919   68.7578 H   0  0  0  0  0  0  0  0  0  0  0  0
    4.6309   69.2147   65.1592 H   0  0  0  0  0  0  0  0  0  0  0  0
    6.6456   70.1784   66.2640 H   0  0  0  0  0  0  0  0  0  0  0  0
    1.8426   65.9607   65.9486 H   0  0  0  0  0  0  0  0  0  0  0  0
    2.9657   63.7973   65.3941 H   0  0  0  0  0  0  0  0  0  0  0  0
    5.3647   65.7949   62.4070 H   0  0  0  0  0  0  0  0  0  0  0  0
    4.2469   67.9595   62.9549 H   0  0  0  0  0  0  0  0  0  0  0  0
  2  1  2  0
  4  3  1  0
  5  4  2  0
  6  5  1  0
  7  6  2  0
  7  1  1  0
  8  7  1  0
  9  8  2  0
  9  4  1  0
 10  1  1  0
 11 10  2  0
 12 10  1  0
 13 12  2  0
 14 13  1  0
 15 14  2  0
 16 15  1  0
 17 16  2  0
 17 12  1  0
 18 15  1  0
  3 19  1  0
  3 20  1  0
  3 21  1  0
  5 22  1  0
  6 23  1  0
  8 24  1  0
  9 25  1  0
 13 26  1  0
 14 27  1  0
 16 28  1  0
 17 29  1  0
M  END
>  <score>  (2) 
-9.783

$$$$
=
     RDKit          3D

 29 30  0  0  0  0  0  0  0  0999 V2000
    1.7000   68.8750   67.0640 C   0  0  0  0  0  0  0  0  0  0  0  0
    0.6710   69.1970   67.6480 O   0  0  0  0  0  0  0  0  0  0  0  0
    6.7750   71.2350   68.5800 C   0  0  0  0  0  0  0  0  0  0  0  0
    5.4760   70.5950   68.1870 C   0  0  0  0  0  0  0  0  0  0  0  0
    5.3160   70.0390   66.9120 C   0  0  0  0  0  0  0  0  0  0  0  0
    4.0980   69.4660   66.5320 C   0  0  0  0  0  0  0  0  0  0  0  0
    3.0210   69.4530   67.4230 C   0  0  0  0  0  0  0  0  0  0  0  0
    3.1740   70.0190   68.6960 C   0  0  0  0  0  0  0  0  0  0  0  0
    4.3920   70.5910   69.0730 C   0  0  0  0  0  0  0  0  0  0  0  0
    1.5940   67.8940   65.9200 C   0  0  0  0  0  0  0  0  0  0  0  0
    1.8920   66.7220   66.1240 O   0  0  0  0  0  0  0  0  0  0  0  0
    1.1680   68.3680   64.5770 C   0  0  0  0  0  0  0  0  0  0  0  0
   -0.1500   68.7540   64.3020 C   0  0  0  0  0  0  0  0  0  0  0  0
   -0.4980   69.2060   63.0240 C   0  0  0  0  0  0  0  0  0  0  0  0
    0.4690   69.2740   62.0230 C   0  0  0  0  0  0  0  0  0  0  0  0
    1.7830   68.8930   62.2850 C   0  0  0  0  0  0  0  0  0  0  0  0
    2.1320   68.4400   63.5600 C   0  0  0  0  0  0  0  0  0  0  0  0
    0.0380   69.8330   60.4550 Cl  0  0  0  0  0  0  0  0  0  0  0  0
    6.8488   71.2713   69.6769 H   0  0  0  0  0  0  0  0  0  0  0  0
    7.6112   70.6458   68.1756 H   0  0  0  0  0  0  0  0  0  0  0  0
    6.8173   72.2571   68.1756 H   0  0  0  0  0  0  0  0  0  0  0  0
    6.1563   70.0530   66.2023 H   0  0  0  0  0  0  0  0  0  0  0  0
    3.9874   69.0249   65.5304 H   0  0  0  0  0  0  0  0  0  0  0  0
    2.3307   70.0129   69.4022 H   0  0  0  0  0  0  0  0  0  0  0  0
    4.4996   71.0405   70.0712 H   0  0  0  0  0  0  0  0  0  0  0  0
   -0.9133   68.7018   65.0923 H   0  0  0  0  0  0  0  0  0  0  0  0
   -1.5340   69.5073   62.8099 H   0  0  0  0  0  0  0  0  0  0  0  0
    2.5428   68.9485   61.4915 H   0  0  0  0  0  0  0  0  0  0  0  0
    3.1691   68.1379   63.7677 H   0  0  0  0  0  0  0  0  0  0  0  0
  2  1  2  0
  4  3  1  0
  5  4  2  0
  6  5  1  0
  7  6  2  0
  7  1  1  0
  8  7  1  0
  9  8  2  0
  9  4  1  0
 10  1  1  0
 11 10  2  0
 12 10  1  0
 13 12  2  0
 14 13  1  0
 15 14  2  0
 16 15  1  0
 17 16  2  0
 17 12  1  0
 18 15  1  0
  3 19  1  0
  3 20  1  0
  3 21  1  0
  5 22  1  0
  6 23  1  0
  8 24  1  0
  9 25  1  0
 13 26  1  0
 14 27  1  0
 16 28  1  0
 17 29  1  0
M  END
>  <score>  (3) 
-9.717

$$$$
=
     RDKit          3D

 29 30  0  0  0  0  0  0  0  0999 V2000
    1.6510   68.8610   67.0790 C   0  0  0  0  0  0  0  0  0  0  0  0
    0.5920   69.1080   67.6450 O   0  0  0  0  0  0  0  0  0  0  0  0
    6.7220   71.2500   68.5590 C   0  0  0  0  0  0  0  0  0  0  0  0
    5.3960   70.6620   68.1780 C   0  0  0  0  0  0  0  0  0  0  0  0
    4.3460   70.6220   69.1020 C   0  0  0  0  0  0  0  0  0  0  0  0
    3.1160   70.0490   68.7600 C   0  0  0  0  0  0  0  0  0  0  0  0
    2.9290   69.5000   67.4880 C   0  0  0  0  0  0  0  0  0  0  0  0
    3.9820   69.5270   66.5640 C   0  0  0  0  0  0  0  0  0  0  0  0
    5.2090   70.1000   66.9100 C   0  0  0  0  0  0  0  0  0  0  0  0
    1.6270   67.9110   65.9040 C   0  0  0  0  0  0  0  0  0  0  0  0
    1.9560   66.7450   66.0890 O   0  0  0  0  0  0  0  0  0  0  0  0
    1.2410   68.4090   64.5580 C   0  0  0  0  0  0  0  0  0  0  0  0
    2.1560   68.4960   63.5010 C   0  0  0  0  0  0  0  0  0  0  0  0
    1.7400   68.9590   62.2480 C   0  0  0  0  0  0  0  0  0  0  0  0
    0.4120   69.3340   62.0500 C   0  0  0  0  0  0  0  0  0  0  0  0
   -0.5060   69.2530   63.0940 C   0  0  0  0  0  0  0  0  0  0  0  0
   -0.0920   68.7910   64.3470 C   0  0  0  0  0  0  0  0  0  0  0  0
   -0.0950   69.9010   60.5070 Cl  0  0  0  0  0  0  0  0  0  0  0  0
    6.8053   71.2870   69.6552 H   0  0  0  0  0  0  0  0  0  0  0  0
    7.5307   70.6261   68.1506 H   0  0  0  0  0  0  0  0  0  0  0  0
    6.8025   72.2682   68.1506 H   0  0  0  0  0  0  0  0  0  0  0  0
    4.4888   71.0452   70.1072 H   0  0  0  0  0  0  0  0  0  0  0  0
    2.2956   70.0305   69.4926 H   0  0  0  0  0  0  0  0  0  0  0  0
    3.8424   69.0953   65.5619 H   0  0  0  0  0  0  0  0  0  0  0  0
    6.0328   70.1093   66.1811 H   0  0  0  0  0  0  0  0  0  0  0  0
    3.2039   68.1997   63.6564 H   0  0  0  0  0  0  0  0  0  0  0  0
    2.4604   69.0271   61.4195 H   0  0  0  0  0  0  0  0  0  0  0  0
   -1.5526   69.5513   62.9335 H   0  0  0  0  0  0  0  0  0  0  0  0
   -0.8162   68.7267   65.1725 H   0  0  0  0  0  0  0  0  0  0  0  0
  2  1  2  0
  4  3  1  0
  5  4  2  0
  6  5  1  0
  7  6  2  0
  7  1  1  0
  8  7  1  0
  9  8  2  0
  9  4  1  0
 10  1  1  0
 11 10  2  0
 12 10  1  0
 13 12  2  0
 14 13  1  0
 15 14  2  0
 16 15  1  0
 17 16  2  0
 17 12  1  0
 18 15  1  0
  3 19  1  0
  3 20  1  0
  3 21  1  0
  5 22  1  0
  6 23  1  0
  8 24  1  0
  9 25  1  0
 13 26  1  0
 14 27  1  0
 16 28  1  0
 17 29  1  0
M  END
>  <score>  (4) 
-9.707

$$$$
=
     RDKit          3D

 29 30  0  0  0  0  0  0  0  0999 V2000
    2.2290   68.3960   64.8050 C   0  0  0  0  0  0  0  0  0  0  0  0
    1.6940   69.0880   63.9470 O   0  0  0  0  0  0  0  0  0  0  0  0
    4.9310   63.3940   63.6600 C   0  0  0  0  0  0  0  0  0  0  0  0
    4.2180   64.6870   63.9270 C   0  0  0  0  0  0  0  0  0  0  0  0
    4.5400   65.8380   63.1990 C   0  0  0  0  0  0  0  0  0  0  0  0
    3.8970   67.0520   63.4630 C   0  0  0  0  0  0  0  0  0  0  0  0
    2.9280   67.1280   64.4690 C   0  0  0  0  0  0  0  0  0  0  0  0
    2.6130   65.9800   65.2080 C   0  0  0  0  0  0  0  0  0  0  0  0
    3.2570   64.7690   64.9420 C   0  0  0  0  0  0  0  0  0  0  0  0
    2.1270   68.8390   66.2460 C   0  0  0  0  0  0  0  0  0  0  0  0
    1.0560   68.7020   66.8260 O   0  0  0  0  0  0  0  0  0  0  0  0
    3.3030   69.4570   66.9140 C   0  0  0  0  0  0  0  0  0  0  0  0
    3.2440   69.9570   68.2210 C   0  0  0  0  0  0  0  0  0  0  0  0
    4.3840   70.5160   68.8110 C   0  0  0  0  0  0  0  0  0  0  0  0
    5.5780   70.5770   68.0960 C   0  0  0  0  0  0  0  0  0  0  0  0
    5.6480   70.0840   66.7950 C   0  0  0  0  0  0  0  0  0  0  0  0
    4.5110   69.5250   66.2040 C   0  0  0  0  0  0  0  0  0  0  0  0
    6.9760   71.2640   68.8250 Cl  0  0  0  0  0  0  0  0  0  0  0  0
    5.1943   62.9164   64.6153 H   0  0  0  0  0  0  0  0  0  0  0  0
    4.2742   62.7251   63.0845 H   0  0  0  0  0  0  0  0  0  0  0  0
    5.8472   63.5925   63.0845 H   0  0  0  0  0  0  0  0  0  0  0  0
    5.3063   65.7876   62.4114 H   0  0  0  0  0  0  0  0  0  0  0  0
    4.1537   67.9480   62.8788 H   0  0  0  0  0  0  0  0  0  0  0  0
    1.8540   66.0325   66.0025 H   0  0  0  0  0  0  0  0  0  0  0  0
    3.0078   63.8754   65.5330 H   0  0  0  0  0  0  0  0  0  0  0  0
    2.3006   69.9104   68.7848 H   0  0  0  0  0  0  0  0  0  0  0  0
    4.3369   70.9067   69.8382 H   0  0  0  0  0  0  0  0  0  0  0  0
    6.5936   70.1343   66.2352 H   0  0  0  0  0  0  0  0  0  0  0  0
    4.5639   69.1363   65.1763 H   0  0  0  0  0  0  0  0  0  0  0  0
  2  1  2  0
  4  3  1  0
  5  4  2  0
  6  5  1  0
  7  6  2  0
  7  1  1  0
  8  7  1  0
  9  8  2  0
  9  4  1  0
 10  1  1  0
 11 10  2  0
 12 10  1  0
 13 12  2  0
 14 13  1  0
 15 14  2  0
 16 15  1  0
 17 16  2  0
 17 12  1  0
 18 15  1  0
  3 19  1  0
  3 20  1  0
  3 21  1  0
  5 22  1  0
  6 23  1  0
  8 24  1  0
  9 25  1  0
 13 26  1  0
 14 27  1  0
 16 28  1  0
 17 29  1  0
M  END
>  <score>  (5) 
-9.624

$$$$
=
     RDKit          3D

 29 30  0  0  0  0  0  0  0  0999 V2000
    3.7910   68.9520   64.8280 C   0  0  0  0  0  0  0  0  0  0  0  0
    3.8750   69.4330   63.7040 O   0  0  0  0  0  0  0  0  0  0  0  0
    6.8800   71.0410   69.2680 C   0  0  0  0  0  0  0  0  0  0  0  0
    6.0670   70.5300   68.1160 C   0  0  0  0  0  0  0  0  0  0  0  0
    4.6820   70.3680   68.2430 C   0  0  0  0  0  0  0  0  0  0  0  0
    3.9230   69.8650   67.1810 C   0  0  0  0  0  0  0  0  0  0  0  0
    4.5460   69.5100   65.9800 C   0  0  0  0  0  0  0  0  0  0  0  0
    5.9330   69.6600   65.8550 C   0  0  0  0  0  0  0  0  0  0  0  0
    6.6890   70.1620   66.9180 C   0  0  0  0  0  0  0  0  0  0  0  0
    2.9220   67.7310   65.0180 C   0  0  0  0  0  0  0  0  0  0  0  0
    3.3830   66.6330   64.7240 O   0  0  0  0  0  0  0  0  0  0  0  0
    1.5310   67.8840   65.5190 C   0  0  0  0  0  0  0  0  0  0  0  0
    0.5390   68.5460   64.7840 C   0  0  0  0  0  0  0  0  0  0  0  0
   -0.7600   68.6520   65.2940 C   0  0  0  0  0  0  0  0  0  0  0  0
   -1.0680   68.0980   66.5350 C   0  0  0  0  0  0  0  0  0  0  0  0
   -0.0900   67.4380   67.2750 C   0  0  0  0  0  0  0  0  0  0  0  0
    1.2090   67.3320   66.7680 C   0  0  0  0  0  0  0  0  0  0  0  0
   -2.6660   68.2280   67.1570 Cl  0  0  0  0  0  0  0  0  0  0  0  0
    6.4043   70.7420   70.2137 H   0  0  0  0  0  0  0  0  0  0  0  0
    7.8940   70.6175   69.2176 H   0  0  0  0  0  0  0  0  0  0  0  0
    6.9381   72.1383   69.2176 H   0  0  0  0  0  0  0  0  0  0  0  0
    4.1861   70.6388   69.1868 H   0  0  0  0  0  0  0  0  0  0  0  0
    2.8347   69.7485   67.2905 H   0  0  0  0  0  0  0  0  0  0  0  0
    6.4304   69.3810   64.9144 H   0  0  0  0  0  0  0  0  0  0  0  0
    7.7787   70.2683   66.8122 H   0  0  0  0  0  0  0  0  0  0  0  0
    0.7815   68.9833   63.8042 H   0  0  0  0  0  0  0  0  0  0  0  0
   -1.5375   69.1724   64.7155 H   0  0  0  0  0  0  0  0  0  0  0  0
   -0.3382   67.0020   68.2539 H   0  0  0  0  0  0  0  0  0  0  0  0
    1.9831   66.8126   67.3520 H   0  0  0  0  0  0  0  0  0  0  0  0
  2  1  2  0
  4  3  1  0
  5  4  2  0
  6  5  1  0
  7  6  2  0
  7  1  1  0
  8  7  1  0
  9  8  2  0
  9  4  1  0
 10  1  1  0
 11 10  2  0
 12 10  1  0
 13 12  2  0
 14 13  1  0
 15 14  2  0
 16 15  1  0
 17 16  2  0
 17 12  1  0
 18 15  1  0
  3 19  1  0
  3 20  1  0
  3 21  1  0
  5 22  1  0
  6 23  1  0
  8 24  1  0
  9 25  1  0
 13 26  1  0
 14 27  1  0
 16 28  1  0
 17 29  1  0
M  END
>  <score>  (6) 
-9.166

$$$$
=
     RDKit          3D

 29 30  0  0  0  0  0  0  0  0999 V2000
    2.5430   67.5460   65.1150 C   0  0  0  0  0  0  0  0  0  0  0  0
    2.9990   66.4180   64.9670 O   0  0  0  0  0  0  0  0  0  0  0  0
   -2.9190   68.2880   66.9170 C   0  0  0  0  0  0  0  0  0  0  0  0
   -1.5000   68.1270   66.4580 C   0  0  0  0  0  0  0  0  0  0  0  0
   -1.0550   68.7640   65.2930 C   0  0  0  0  0  0  0  0  0  0  0  0
    0.2600   68.5960   64.8460 C   0  0  0  0  0  0  0  0  0  0  0  0
    1.1420   67.7760   65.5570 C   0  0  0  0  0  0  0  0  0  0  0  0
    0.6970   67.1270   66.7160 C   0  0  0  0  0  0  0  0  0  0  0  0
   -0.6170   67.2980   67.1600 C   0  0  0  0  0  0  0  0  0  0  0  0
    3.4330   68.7230   64.7920 C   0  0  0  0  0  0  0  0  0  0  0  0
    3.4560   69.1400   63.6400 O   0  0  0  0  0  0  0  0  0  0  0  0
    4.2780   69.3250   65.8580 C   0  0  0  0  0  0  0  0  0  0  0  0
    5.6320   69.6210   65.6600 C   0  0  0  0  0  0  0  0  0  0  0  0
    6.3820   70.2000   66.6910 C   0  0  0  0  0  0  0  0  0  0  0  0
    5.7800   70.4820   67.9160 C   0  0  0  0  0  0  0  0  0  0  0  0
    4.4340   70.1910   68.1230 C   0  0  0  0  0  0  0  0  0  0  0  0
    3.6830   69.6120   67.0950 C   0  0  0  0  0  0  0  0  0  0  0  0
    6.7040   71.1960   69.1780 Cl  0  0  0  0  0  0  0  0  0  0  0  0
   -2.9505   68.2916   68.0165 H   0  0  0  0  0  0  0  0  0  0  0  0
   -3.3223   69.2377   66.5355 H   0  0  0  0  0  0  0  0  0  0  0  0
   -3.5248   67.4528   66.5355 H   0  0  0  0  0  0  0  0  0  0  0  0
   -1.7462   69.4028   64.7237 H   0  0  0  0  0  0  0  0  0  0  0  0
    0.6005   69.1093   63.9346 H   0  0  0  0  0  0  0  0  0  0  0  0
    1.3852   66.4797   67.2793 H   0  0  0  0  0  0  0  0  0  0  0  0
   -0.9596   66.7780   68.0667 H   0  0  0  0  0  0  0  0  0  0  0  0
    6.1073   69.3984   64.6933 H   0  0  0  0  0  0  0  0  0  0  0  0
    7.4457   70.4322   66.5342 H   0  0  0  0  0  0  0  0  0  0  0  0
    3.9632   70.4157   69.0914 H   0  0  0  0  0  0  0  0  0  0  0  0
    2.6200   69.3805   67.2576 H   0  0  0  0  0  0  0  0  0  0  0  0
  2  1  2  0
  4  3  1  0
  5  4  2  0
  6  5  1  0
  7  6  2  0
  7  1  1  0
  8  7  1  0
  9  8  2  0
  9  4  1  0
 10  1  1  0
 11 10  2  0
 12 10  1  0
 13 12  2  0
 14 13  1  0
 15 14  2  0
 16 15  1  0
 17 16  2  0
 17 12  1  0
 18 15  1  0
  3 19  1  0
  3 20  1  0
  3 21  1  0
  5 22  1  0
  6 23  1  0
  8 24  1  0
  9 25  1  0
 13 26  1  0
 14 27  1  0
 16 28  1  0
 17 29  1  0
M  END
>  <score>  (7) 
-8.831

$$$$
=
     RDKit          3D

 29 30  0  0  0  0  0  0  0  0999 V2000
    2.1780   69.0550   67.3570 C   0  0  0  0  0  0  0  0  0  0  0  0
    2.0980   69.9560   68.1840 O   0  0  0  0  0  0  0  0  0  0  0  0
    5.6430   69.2650   62.7130 C   0  0  0  0  0  0  0  0  0  0  0  0
    4.7480   69.2430   63.9160 C   0  0  0  0  0  0  0  0  0  0  0  0
    5.2460   69.5940   65.1770 C   0  0  0  0  0  0  0  0  0  0  0  0
    4.4230   69.5490   66.3070 C   0  0  0  0  0  0  0  0  0  0  0  0
    3.0900   69.1410   66.1870 C   0  0  0  0  0  0  0  0  0  0  0  0
    2.5930   68.7770   64.9290 C   0  0  0  0  0  0  0  0  0  0  0  0
    3.4180   68.8230   63.8020 C   0  0  0  0  0  0  0  0  0  0  0  0
    1.2820   67.8500   67.5250 C   0  0  0  0  0  0  0  0  0  0  0  0
    1.7800   66.8000   67.9150 O   0  0  0  0  0  0  0  0  0  0  0  0
   -0.1630   67.9510   67.1870 C   0  0  0  0  0  0  0  0  0  0  0  0
   -1.1170   67.0670   67.7070 C   0  0  0  0  0  0  0  0  0  0  0  0
   -2.4670   67.2130   67.3690 C   0  0  0  0  0  0  0  0  0  0  0  0
   -2.8640   68.2380   66.5130 C   0  0  0  0  0  0  0  0  0  0  0  0
   -1.9240   69.1230   65.9890 C   0  0  0  0  0  0  0  0  0  0  0  0
   -0.5740   68.9790   66.3260 C   0  0  0  0  0  0  0  0  0  0  0  0
   -4.5250   68.4150   66.1020 Cl  0  0  0  0  0  0  0  0  0  0  0  0
    6.6936   69.2908   63.0380 H   0  0  0  0  0  0  0  0  0  0  0  0
    5.4680   68.3623   62.1093 H   0  0  0  0  0  0  0  0  0  0  0  0
    5.4239   70.1580   62.1093 H   0  0  0  0  0  0  0  0  0  0  0  0
    6.2951   69.9083   65.2798 H   0  0  0  0  0  0  0  0  0  0  0  0
    4.8240   69.8346   67.2907 H   0  0  0  0  0  0  0  0  0  0  0  0
    1.5467   68.4529   64.8276 H   0  0  0  0  0  0  0  0  0  0  0  0
    3.0198   68.5275   62.8201 H   0  0  0  0  0  0  0  0  0  0  0  0
   -0.8045   66.2567   68.3821 H   0  0  0  0  0  0  0  0  0  0  0  0
   -3.2149   66.5184   67.7792 H   0  0  0  0  0  0  0  0  0  0  0  0
   -2.2419   69.9310   65.3136 H   0  0  0  0  0  0  0  0  0  0  0  0
    0.1698   69.6763   65.9132 H   0  0  0  0  0  0  0  0  0  0  0  0
  2  1  2  0
  4  3  1  0
  5  4  2  0
  6  5  1  0
  7  6  2  0
  7  1  1  0
  8  7  1  0
  9  8  2  0
  9  4  1  0
 10  1  1  0
 11 10  2  0
 12 10  1  0
 13 12  2  0
 14 13  1  0
 15 14  2  0
 16 15  1  0
 17 16  2  0
 17 12  1  0
 18 15  1  0
  3 19  1  0
  3 20  1  0
  3 21  1  0
  5 22  1  0
  6 23  1  0
  8 24  1  0
  9 25  1  0
 13 26  1  0
 14 27  1  0
 16 28  1  0
 17 29  1  0
M  END
>  <score>  (8) 
-8.723

$$$$
=
     RDKit          3D

 29 30  0  0  0  0  0  0  0  0999 V2000
    0.6000   68.7640   67.4410 C   0  0  0  0  0  0  0  0  0  0  0  0
   -0.2980   69.5970   67.3830 O   0  0  0  0  0  0  0  0  0  0  0  0
    0.2620   64.3500   71.1860 C   0  0  0  0  0  0  0  0  0  0  0  0
    0.3720   65.4760   70.2010 C   0  0  0  0  0  0  0  0  0  0  0  0
    1.5360   66.2520   70.1370 C   0  0  0  0  0  0  0  0  0  0  0  0
    1.6330   67.3200   69.2390 C   0  0  0  0  0  0  0  0  0  0  0  0
    0.5580   67.6290   68.3990 C   0  0  0  0  0  0  0  0  0  0  0  0
   -0.6120   66.8620   68.4680 C   0  0  0  0  0  0  0  0  0  0  0  0
   -0.7060   65.7950   69.3670 C   0  0  0  0  0  0  0  0  0  0  0  0
    1.7950   68.9390   66.5330 C   0  0  0  0  0  0  0  0  0  0  0  0
    1.7010   68.5780   65.3660 O   0  0  0  0  0  0  0  0  0  0  0  0
    3.0580   69.5070   67.0760 C   0  0  0  0  0  0  0  0  0  0  0  0
    3.1210   70.1300   68.3290 C   0  0  0  0  0  0  0  0  0  0  0  0
    4.3380   70.6360   68.8010 C   0  0  0  0  0  0  0  0  0  0  0  0
    5.4880   70.5200   68.0230 C   0  0  0  0  0  0  0  0  0  0  0  0
    5.4370   69.9030   66.7760 C   0  0  0  0  0  0  0  0  0  0  0  0
    4.2220   69.3970   66.3020 C   0  0  0  0  0  0  0  0  0  0  0  0
    6.9810   71.1420   68.6080 Cl  0  0  0  0  0  0  0  0  0  0  0  0
    0.3013   64.7525   72.2089 H   0  0  0  0  0  0  0  0  0  0  0  0
   -0.6919   63.8232   71.0357 H   0  0  0  0  0  0  0  0  0  0  0  0
    1.0959   63.6486   71.0357 H   0  0  0  0  0  0  0  0  0  0  0  0
    2.3826   66.0193   70.7997 H   0  0  0  0  0  0  0  0  0  0  0  0
    2.5555   67.9175   69.1933 H   0  0  0  0  0  0  0  0  0  0  0  0
   -1.4617   67.1003   67.8113 H   0  0  0  0  0  0  0  0  0  0  0  0
   -1.6318   65.2033   69.4190 H   0  0  0  0  0  0  0  0  0  0  0  0
    2.2129   70.2218   68.9430 H   0  0  0  0  0  0  0  0  0  0  0  0
    4.3863   71.1248   69.7853 H   0  0  0  0  0  0  0  0  0  0  0  0
    6.3481   69.8138   66.1661 H   0  0  0  0  0  0  0  0  0  0  0  0
    4.1795   68.9101   65.3165 H   0  0  0  0  0  0  0  0  0  0  0  0
  2  1  2  0
  4  3  1  0
  5  4  2  0
  6  5  1  0
  7  6  2  0
  7  1  1  0
  8  7  1  0
  9  8  2  0
  9  4  1  0
 10  1  1  0
 11 10  2  0
 12 10  1  0
 13 12  2  0
 14 13  1  0
 15 14  2  0
 16 15  1  0
 17 16  2  0
 17 12  1  0
 18 15  1  0
  3 19  1  0
  3 20  1  0
  3 21  1  0
  5 22  1  0
  6 23  1  0
  8 24  1  0
  9 25  1  0
 13 26  1  0
 14 27  1  0
 16 28  1  0
 17 29  1  0
M  END
>  <score>  (9) 
-8.5

$$$$
