=
     RDKit          3D

 53 56  0  0  0  0  0  0  0  0999 V2000
    2.0630   58.1360   75.4000 C   0  0  2  0  0  0  0  0  0  0  0  0
    3.6000   57.9510   75.2310 C   0  0  0  0  0  0  0  0  0  0  0  0
    4.0820   59.0250   74.2340 C   0  0  0  0  0  0  0  0  0  0  0  0
    2.8520   59.8830   73.9550 C   0  0  2  0  0  0  0  0  0  0  0  0
    1.6810   58.8820   74.0710 C   0  0  1  0  0  0  0  0  0  0  0  0
    1.6280   57.8530   72.9000 C   0  0  0  0  0  0  0  0  0  0  0  0
    0.3640   59.6800   74.0630 C   0  0  0  0  0  0  0  0  0  0  0  0
    0.2440   60.5850   72.8240 C   0  0  0  0  0  0  0  0  0  0  0  0
    1.4740   61.5020   72.6080 C   0  0  1  0  0  0  0  0  0  0  0  0
    2.8110   60.7040   72.6620 C   0  0  1  0  0  0  0  0  0  0  0  0
    3.9980   61.6700   72.5620 C   0  0  0  0  0  0  0  0  0  0  0  0
    3.9450   62.4570   71.2580 C   0  0  0  0  0  0  0  0  0  0  0  0
    2.6280   63.1680   71.0700 C   0  0  0  0  0  0  0  0  0  0  0  0
    2.6100   64.4560   70.6850 C   0  0  0  0  0  0  0  0  0  0  0  0
    1.3390   65.1300   70.3310 C   0  0  0  0  0  0  0  0  0  0  0  0
    1.3420   66.3270   70.0560 O   0  0  0  0  0  0  0  0  0  0  0  0
    0.1020   64.2780   70.2250 C   0  0  0  0  0  0  0  0  0  0  0  0
    0.1010   63.2160   71.3130 C   0  0  0  0  0  0  0  0  0  0  0  0
    1.3710   62.3360   71.2940 C   0  0  2  0  0  0  0  0  0  0  0  0
    1.5060   59.5810   77.5960 C   0  0  0  0  0  0  0  0  0  0  0  0
    1.7550   58.9430   76.6070 C   0  0  0  0  0  0  0  0  0  0  0  0
    1.3360   56.8910   75.4610 O   0  0  0  0  0  0  0  0  0  0  0  0
    1.9140   55.8240   76.0710 C   0  0  0  0  0  0  0  0  0  0  0  0
    2.1170   55.6940   77.2690 O   0  0  0  0  0  0  0  0  0  0  0  0
    2.2970   54.8050   75.0420 C   0  0  0  0  0  0  0  0  0  0  0  0
    4.1042   58.0827   76.1997 H   0  0  0  0  0  0  0  0  0  0  0  0
    3.8334   56.9418   74.8608 H   0  0  0  0  0  0  0  0  0  0  0  0
    4.8848   59.6323   74.6776 H   0  0  0  0  0  0  0  0  0  0  0  0
    4.4942   58.5817   73.3156 H   0  0  0  0  0  0  0  0  0  0  0  0
    2.8254   60.7132   74.6761 H   0  0  0  0  0  0  0  0  0  0  0  0
    1.5755   56.8335   73.3098 H   0  0  0  0  0  0  0  0  0  0  0  0
    0.7386   58.0461   72.2822 H   0  0  0  0  0  0  0  0  0  0  0  0
    2.5325   57.9537   72.2822 H   0  0  0  0  0  0  0  0  0  0  0  0
   -0.4791   58.9735   74.0694 H   0  0  0  0  0  0  0  0  0  0  0  0
    0.3518   60.3232   74.9552 H   0  0  0  0  0  0  0  0  0  0  0  0
    0.1255   59.9463   71.9363 H   0  0  0  0  0  0  0  0  0  0  0  0
   -0.6245   61.2406   72.9847 H   0  0  0  0  0  0  0  0  0  0  0  0
    1.4762   62.2153   73.4454 H   0  0  0  0  0  0  0  0  0  0  0  0
    2.8767   60.0104   71.8108 H   0  0  0  0  0  0  0  0  0  0  0  0
    3.9647   62.3716   73.4086 H   0  0  0  0  0  0  0  0  0  0  0  0
    4.9306   61.0872   72.5852 H   0  0  0  0  0  0  0  0  0  0  0  0
    4.7524   63.2040   71.2629 H   0  0  0  0  0  0  0  0  0  0  0  0
    4.0625   61.7429   70.4296 H   0  0  0  0  0  0  0  0  0  0  0  0
    3.5539   65.0183   70.6320 H   0  0  0  0  0  0  0  0  0  0  0  0
   -0.7882   64.9143   70.3376 H   0  0  0  0  0  0  0  0  0  0  0  0
    0.0892   63.7847   69.2419 H   0  0  0  0  0  0  0  0  0  0  0  0
    0.0342   63.7152   72.2909 H   0  0  0  0  0  0  0  0  0  0  0  0
   -0.7606   62.5569   71.1308 H   0  0  0  0  0  0  0  0  0  0  0  0
    1.2884   61.6402   70.4460 H   0  0  0  0  0  0  0  0  0  0  0  0
    1.2783   60.1644   78.5003 H   0  0  0  0  0  0  0  0  0  0  0  0
    2.6414   53.8887   75.5438 H   0  0  0  0  0  0  0  0  0  0  0  0
    1.4247   54.5730   74.4133 H   0  0  0  0  0  0  0  0  0  0  0  0
    3.1061   55.2050   74.4133 H   0  0  0  0  0  0  0  0  0  0  0  0
  2  1  1  0
  3  2  1  0
  4  3  1  0
  5  4  1  0
  5  1  1  0
  5  6  1  6
  7  5  1  0
  8  7  1  0
  9  8  1  0
 10  4  1  0
 10  9  1  0
 11 10  1  0
 12 11  1  0
 13 12  1  0
 14 13  2  0
 15 14  1  0
 16 15  2  0
 17 15  1  0
 18 17  1  0
 19 18  1  0
 19 13  1  0
 19  9  1  0
  1 21  1  1
 21 20  3  0
 22  1  1  0
 23 22  1  0
 24 23  2  0
 25 23  1  0
  2 26  1  0
  2 27  1  0
  3 28  1  0
  3 29  1  0
  4 30  1  1
  6 31  1  0
  6 32  1  0
  6 33  1  0
  7 34  1  0
  7 35  1  0
  8 36  1  0
  8 37  1  0
  9 38  1  1
 10 39  1  6
 11 40  1  0
 11 41  1  0
 12 42  1  0
 12 43  1  0
 14 44  1  0
 17 45  1  0
 17 46  1  0
 18 47  1  0
 18 48  1  0
 19 49  1  6
 20 50  1  0
 25 51  1  0
 25 52  1  0
 25 53  1  0
M  END
>  <score>  (1) 
-7.752

$$$$
=
     RDKit          3D

 53 56  0  0  0  0  0  0  0  0999 V2000
    0.1510   57.2420   75.1840 C   0  0  2  0  0  0  0  0  0  0  0  0
   -1.0460   58.1460   75.6020 C   0  0  0  0  0  0  0  0  0  0  0  0
   -0.9450   59.4470   74.7800 C   0  0  0  0  0  0  0  0  0  0  0  0
    0.2170   59.2160   73.8190 C   0  0  2  0  0  0  0  0  0  0  0  0
    1.1670   58.2970   74.6180 C   0  0  1  0  0  0  0  0  0  0  0  0
    1.8740   59.0210   75.8070 C   0  0  0  0  0  0  0  0  0  0  0  0
    2.2580   57.7830   73.6600 C   0  0  0  0  0  0  0  0  0  0  0  0
    3.0020   58.9350   72.9590 C   0  0  0  0  0  0  0  0  0  0  0  0
    2.0570   59.9500   72.2670 C   0  0  1  0  0  0  0  0  0  0  0  0
    0.9260   60.4350   73.2210 C   0  0  1  0  0  0  0  0  0  0  0  0
   -0.0470   61.3420   72.4560 C   0  0  0  0  0  0  0  0  0  0  0  0
    0.6790   62.5570   71.8910 C   0  0  0  0  0  0  0  0  0  0  0  0
    1.8680   62.1730   71.0460 C   0  0  0  0  0  0  0  0  0  0  0  0
    2.0550   62.7530   69.8480 C   0  0  0  0  0  0  0  0  0  0  0  0
    3.2970   62.5240   69.0730 C   0  0  0  0  0  0  0  0  0  0  0  0
    3.4080   63.0050   67.9480 O   0  0  0  0  0  0  0  0  0  0  0  0
    4.4180   61.7860   69.7540 C   0  0  0  0  0  0  0  0  0  0  0  0
    3.8630   60.6630   70.6150 C   0  0  0  0  0  0  0  0  0  0  0  0
    2.8290   61.1570   71.6510 C   0  0  2  0  0  0  0  0  0  0  0  0
   -0.5960   55.4670   73.3100 C   0  0  0  0  0  0  0  0  0  0  0  0
   -0.2640   56.2530   74.1560 C   0  0  0  0  0  0  0  0  0  0  0  0
    0.7650   56.5500   76.2900 O   0  0  0  0  0  0  0  0  0  0  0  0
    0.1990   55.3990   76.7390 C   0  0  0  0  0  0  0  0  0  0  0  0
   -0.9100   55.2820   77.2400 O   0  0  0  0  0  0  0  0  0  0  0  0
    1.1550   54.2620   76.5460 C   0  0  0  0  0  0  0  0  0  0  0  0
   -1.9965   57.6364   75.3855 H   0  0  0  0  0  0  0  0  0  0  0  0
   -1.0137   58.3622   76.6801 H   0  0  0  0  0  0  0  0  0  0  0  0
   -1.8770   59.6266   74.2240 H   0  0  0  0  0  0  0  0  0  0  0  0
   -0.7850   60.3284   75.4184 H   0  0  0  0  0  0  0  0  0  0  0  0
   -0.1727   58.7820   72.8864 H   0  0  0  0  0  0  0  0  0  0  0  0
    1.4882   58.6260   76.7584 H   0  0  0  0  0  0  0  0  0  0  0  0
    2.9585   58.8461   75.7501 H   0  0  0  0  0  0  0  0  0  0  0  0
    1.6733   60.1010   75.7501 H   0  0  0  0  0  0  0  0  0  0  0  0
    2.9841   57.1895   74.2349 H   0  0  0  0  0  0  0  0  0  0  0  0
    1.7694   57.1738   72.8853 H   0  0  0  0  0  0  0  0  0  0  0  0
    3.5996   59.4719   73.7104 H   0  0  0  0  0  0  0  0  0  0  0  0
    3.6266   58.4860   72.1727 H   0  0  0  0  0  0  0  0  0  0  0  0
    1.5826   59.4102   71.4342 H   0  0  0  0  0  0  0  0  0  0  0  0
    1.3502   61.0259   74.0461 H   0  0  0  0  0  0  0  0  0  0  0  0
   -0.4962   60.7730   71.6287 H   0  0  0  0  0  0  0  0  0  0  0  0
   -0.8274   61.6878   73.1499 H   0  0  0  0  0  0  0  0  0  0  0  0
   -0.0243   63.1324   71.2710 H   0  0  0  0  0  0  0  0  0  0  0  0
    1.0478   63.1525   72.7391 H   0  0  0  0  0  0  0  0  0  0  0  0
    1.2733   63.4083   69.4362 H   0  0  0  0  0  0  0  0  0  0  0  0
    5.0888   61.3618   68.9923 H   0  0  0  0  0  0  0  0  0  0  0  0
    4.9718   62.4881   70.3946 H   0  0  0  0  0  0  0  0  0  0  0  0
    3.3783   59.9245   69.9595 H   0  0  0  0  0  0  0  0  0  0  0  0
    4.7052   60.2252   71.1709 H   0  0  0  0  0  0  0  0  0  0  0  0
    3.3757   61.6685   72.4569 H   0  0  0  0  0  0  0  0  0  0  0  0
   -0.8999   54.7474   72.5355 H   0  0  0  0  0  0  0  0  0  0  0  0
    1.4750   53.8814   77.5272 H   0  0  0  0  0  0  0  0  0  0  0  0
    0.6586   53.4568   75.9845 H   0  0  0  0  0  0  0  0  0  0  0  0
    2.0334   54.6128   75.9845 H   0  0  0  0  0  0  0  0  0  0  0  0
  2  1  1  0
  3  2  1  0
  4  3  1  0
  5  4  1  0
  5  1  1  0
  5  6  1  1
  7  5  1  0
  8  7  1  0
  9  8  1  0
 10  4  1  0
 10  9  1  0
 11 10  1  0
 12 11  1  0
 13 12  1  0
 14 13  2  0
 15 14  1  0
 16 15  2  0
 17 15  1  0
 18 17  1  0
 19 18  1  0
 19 13  1  0
 19  9  1  0
  1 21  1  6
 21 20  3  0
 22  1  1  0
 23 22  1  0
 24 23  2  0
 25 23  1  0
  2 26  1  0
  2 27  1  0
  3 28  1  0
  3 29  1  0
  4 30  1  6
  6 31  1  0
  6 32  1  0
  6 33  1  0
  7 34  1  0
  7 35  1  0
  8 36  1  0
  8 37  1  0
  9 38  1  6
 10 39  1  1
 11 40  1  0
 11 41  1  0
 12 42  1  0
 12 43  1  0
 14 44  1  0
 17 45  1  0
 17 46  1  0
 18 47  1  0
 18 48  1  0
 19 49  1  1
 20 50  1  0
 25 51  1  0
 25 52  1  0
 25 53  1  0
M  END
>  <score>  (2) 
-7.538

$$$$
=
     RDKit          3D

 53 56  0  0  0  0  0  0  0  0999 V2000
    3.4200   60.4070   72.3580 C   0  0  2  0  0  0  0  0  0  0  0  0
    4.0070   59.2030   73.1510 C   0  0  0  0  0  0  0  0  0  0  0  0
    2.8450   58.5680   73.9440 C   0  0  0  0  0  0  0  0  0  0  0  0
    1.6010   59.3260   73.4920 C   0  0  2  0  0  0  0  0  0  0  0  0
    2.1330   60.7450   73.1930 C   0  0  1  0  0  0  0  0  0  0  0  0
    2.5430   61.5360   74.4740 C   0  0  0  0  0  0  0  0  0  0  0  0
    1.0180   61.5360   72.4830 C   0  0  0  0  0  0  0  0  0  0  0  0
   -0.2870   61.5560   73.3000 C   0  0  0  0  0  0  0  0  0  0  0  0
   -0.7660   60.1470   73.7330 C   0  0  1  0  0  0  0  0  0  0  0  0
    0.3740   59.3280   74.4080 C   0  0  1  0  0  0  0  0  0  0  0  0
   -0.1160   57.9050   74.7100 C   0  0  0  0  0  0  0  0  0  0  0  0
   -1.3230   57.9350   75.6400 C   0  0  0  0  0  0  0  0  0  0  0  0
   -2.4330   58.8090   75.1110 C   0  0  0  0  0  0  0  0  0  0  0  0
   -3.7000   58.3590   75.1130 C   0  0  0  0  0  0  0  0  0  0  0  0
   -4.8290   59.2520   74.7600 C   0  0  0  0  0  0  0  0  0  0  0  0
   -5.9670   58.7940   74.6960 O   0  0  0  0  0  0  0  0  0  0  0  0
   -4.5340   60.7180   74.5930 C   0  0  0  0  0  0  0  0  0  0  0  0
   -3.1920   60.9100   73.9040 C   0  0  0  0  0  0  0  0  0  0  0  0
   -2.0330   60.2020   74.6400 C   0  0  2  0  0  0  0  0  0  0  0  0
    2.8550   59.7070   69.8260 C   0  0  0  0  0  0  0  0  0  0  0  0
    3.0980   60.0170   70.9610 C   0  0  0  0  0  0  0  0  0  0  0  0
    4.2820   61.5630   72.3420 O   0  0  0  0  0  0  0  0  0  0  0  0
    5.1960   61.6860   71.3440 C   0  0  0  0  0  0  0  0  0  0  0  0
    6.0720   60.8830   71.0590 O   0  0  0  0  0  0  0  0  0  0  0  0
    4.9870   62.9870   70.6310 C   0  0  0  0  0  0  0  0  0  0  0  0
    4.4352   58.4664   72.4553 H   0  0  0  0  0  0  0  0  0  0  0  0
    4.8068   59.5351   73.8293 H   0  0  0  0  0  0  0  0  0  0  0  0
    2.7537   57.4978   73.7065 H   0  0  0  0  0  0  0  0  0  0  0  0
    2.9994   58.6363   75.0310 H   0  0  0  0  0  0  0  0  0  0  0  0
    1.1596   58.8055   72.6293 H   0  0  0  0  0  0  0  0  0  0  0  0
    2.2475   60.9660   75.3672 H   0  0  0  0  0  0  0  0  0  0  0  0
    3.6326   61.6865   74.4789 H   0  0  0  0  0  0  0  0  0  0  0  0
    2.0379   62.5131   74.4789 H   0  0  0  0  0  0  0  0  0  0  0  0
    1.3581   62.5712   72.3322 H   0  0  0  0  0  0  0  0  0  0  0  0
    0.8096   61.0410   71.5230 H   0  0  0  0  0  0  0  0  0  0  0  0
   -0.1229   62.1611   74.2038 H   0  0  0  0  0  0  0  0  0  0  0  0
   -1.0686   61.9788   72.6517 H   0  0  0  0  0  0  0  0  0  0  0  0
   -1.0525   59.6219   72.8099 H   0  0  0  0  0  0  0  0  0  0  0  0
    0.6603   59.7893   75.3647 H   0  0  0  0  0  0  0  0  0  0  0  0
   -0.3988   57.4132   73.7676 H   0  0  0  0  0  0  0  0  0  0  0  0
    0.6955   57.3495   75.2028 H   0  0  0  0  0  0  0  0  0  0  0  0
   -1.7051   56.9101   75.7566 H   0  0  0  0  0  0  0  0  0  0  0  0
   -0.9951   58.3540   76.6028 H   0  0  0  0  0  0  0  0  0  0  0  0
   -3.9019   57.3114   75.3809 H   0  0  0  0  0  0  0  0  0  0  0  0
   -5.3245   61.1803   73.9835 H   0  0  0  0  0  0  0  0  0  0  0  0
   -4.4984   61.1916   75.5852 H   0  0  0  0  0  0  0  0  0  0  0  0
   -3.2599   60.5046   72.8837 H   0  0  0  0  0  0  0  0  0  0  0  0
   -2.9727   61.9879   73.9018 H   0  0  0  0  0  0  0  0  0  0  0  0
   -1.7931   60.7905   75.5378 H   0  0  0  0  0  0  0  0  0  0  0  0
    2.6325   59.4232   68.7868 H   0  0  0  0  0  0  0  0  0  0  0  0
    4.8576   63.7927   71.3686 H   0  0  0  0  0  0  0  0  0  0  0  0
    5.8618   63.2042   70.0004 H   0  0  0  0  0  0  0  0  0  0  0  0
    4.0882   62.9193   70.0004 H   0  0  0  0  0  0  0  0  0  0  0  0
  2  1  1  0
  3  2  1  0
  4  3  1  0
  5  4  1  0
  5  1  1  0
  5  6  1  1
  7  5  1  0
  8  7  1  0
  9  8  1  0
 10  4  1  0
 10  9  1  0
 11 10  1  0
 12 11  1  0
 13 12  1  0
 14 13  2  0
 15 14  1  0
 16 15  2  0
 17 15  1  0
 18 17  1  0
 19 18  1  0
 19 13  1  0
 19  9  1  0
  1 21  1  6
 21 20  3  0
 22  1  1  0
 23 22  1  0
 24 23  2  0
 25 23  1  0
  2 26  1  0
  2 27  1  0
  3 28  1  0
  3 29  1  0
  4 30  1  6
  6 31  1  0
  6 32  1  0
  6 33  1  0
  7 34  1  0
  7 35  1  0
  8 36  1  0
  8 37  1  0
  9 38  1  6
 10 39  1  1
 11 40  1  0
 11 41  1  0
 12 42  1  0
 12 43  1  0
 14 44  1  0
 17 45  1  0
 17 46  1  0
 18 47  1  0
 18 48  1  0
 19 49  1  1
 20 50  1  0
 25 51  1  0
 25 52  1  0
 25 53  1  0
M  END
>  <score>  (3) 
-7.426

$$$$
=
     RDKit          3D

 53 56  0  0  0  0  0  0  0  0999 V2000
    0.9210   56.5320   75.4510 C   0  0  2  0  0  0  0  0  0  0  0  0
    1.2890   55.3490   74.5080 C   0  0  0  0  0  0  0  0  0  0  0  0
    1.9160   55.9560   73.2360 C   0  0  0  0  0  0  0  0  0  0  0  0
    2.0200   57.4510   73.5240 C   0  0  2  0  0  0  0  0  0  0  0  0
    0.8050   57.7260   74.4370 C   0  0  1  0  0  0  0  0  0  0  0  0
   -0.5630   57.6380   73.6920 C   0  0  0  0  0  0  0  0  0  0  0  0
    0.9440   59.1510   75.0060 C   0  0  0  0  0  0  0  0  0  0  0  0
    1.0970   60.2050   73.8940 C   0  0  0  0  0  0  0  0  0  0  0  0
    2.2230   59.8750   72.8810 C   0  0  1  0  0  0  0  0  0  0  0  0
    2.1100   58.4190   72.3410 C   0  0  1  0  0  0  0  0  0  0  0  0
    3.3100   58.1050   71.4370 C   0  0  0  0  0  0  0  0  0  0  0  0
    3.3640   59.0680   70.2570 C   0  0  0  0  0  0  0  0  0  0  0  0
    3.3550   60.5120   70.6940 C   0  0  0  0  0  0  0  0  0  0  0  0
    4.2290   61.3800   70.1570 C   0  0  0  0  0  0  0  0  0  0  0  0
    4.1360   62.8320   70.4390 C   0  0  0  0  0  0  0  0  0  0  0  0
    4.9930   63.5930   69.9970 O   0  0  0  0  0  0  0  0  0  0  0  0
    2.9200   63.3220   71.1790 C   0  0  0  0  0  0  0  0  0  0  0  0
    2.5270   62.3290   72.2610 C   0  0  0  0  0  0  0  0  0  0  0  0
    2.2920   60.9050   71.7120 C   0  0  2  0  0  0  0  0  0  0  0  0
    2.8330   56.9340   77.2960 C   0  0  0  0  0  0  0  0  0  0  0  0
    1.9860   56.7550   76.4630 C   0  0  0  0  0  0  0  0  0  0  0  0
   -0.3450   56.3640   76.1210 O   0  0  0  0  0  0  0  0  0  0  0  0
   -0.7710   55.1070   76.4120 C   0  0  0  0  0  0  0  0  0  0  0  0
   -0.2650   54.3370   77.2150 O   0  0  0  0  0  0  0  0  0  0  0  0
   -1.9700   54.7780   75.5770 C   0  0  0  0  0  0  0  0  0  0  0  0
    2.0113   54.6833   75.0031 H   0  0  0  0  0  0  0  0  0  0  0  0
    0.3961   54.7570   74.2583 H   0  0  0  0  0  0  0  0  0  0  0  0
    2.9122   55.5270   73.0531 H   0  0  0  0  0  0  0  0  0  0  0  0
    1.3149   55.7482   72.3385 H   0  0  0  0  0  0  0  0  0  0  0  0
    2.9994   57.6594   73.9794 H   0  0  0  0  0  0  0  0  0  0  0  0
   -1.3787   57.5855   74.4281 H   0  0  0  0  0  0  0  0  0  0  0  0
   -0.6951   58.5295   73.0613 H   0  0  0  0  0  0  0  0  0  0  0  0
   -0.5797   56.7369   73.0613 H   0  0  0  0  0  0  0  0  0  0  0  0
    0.0466   59.3863   75.5970 H   0  0  0  0  0  0  0  0  0  0  0  0
    1.8503   59.1808   75.6287 H   0  0  0  0  0  0  0  0  0  0  0  0
    0.1454   60.2745   73.3466 H   0  0  0  0  0  0  0  0  0  0  0  0
    1.3676   61.1532   74.3815 H   0  0  0  0  0  0  0  0  0  0  0  0
    3.1693   59.9525   73.4364 H   0  0  0  0  0  0  0  0  0  0  0  0
    1.1996   58.3064   71.7340 H   0  0  0  0  0  0  0  0  0  0  0  0
    4.2368   58.1989   72.0220 H   0  0  0  0  0  0  0  0  0  0  0  0
    3.2031   57.0802   71.0517 H   0  0  0  0  0  0  0  0  0  0  0  0
    4.2850   58.8770   69.6867 H   0  0  0  0  0  0  0  0  0  0  0  0
    2.4676   58.8973   69.6427 H   0  0  0  0  0  0  0  0  0  0  0  0
    5.0263   61.0068   69.4975 H   0  0  0  0  0  0  0  0  0  0  0  0
    3.1441   64.2942   71.6423 H   0  0  0  0  0  0  0  0  0  0  0  0
    2.0864   63.4270   70.4690 H   0  0  0  0  0  0  0  0  0  0  0  0
    3.3321   62.2883   73.0095 H   0  0  0  0  0  0  0  0  0  0  0  0
    1.5789   62.6751   72.6985 H   0  0  0  0  0  0  0  0  0  0  0  0
    1.3250   60.9005   71.1877 H   0  0  0  0  0  0  0  0  0  0  0  0
    3.6085   57.0979   78.0587 H   0  0  0  0  0  0  0  0  0  0  0  0
   -2.8211   54.5445   76.2335 H   0  0  0  0  0  0  0  0  0  0  0  0
   -2.2224   55.6401   74.9421 H   0  0  0  0  0  0  0  0  0  0  0  0
   -1.7471   53.9078   74.9421 H   0  0  0  0  0  0  0  0  0  0  0  0
  2  1  1  0
  3  2  1  0
  4  3  1  0
  5  4  1  0
  5  1  1  0
  5  6  1  6
  7  5  1  0
  8  7  1  0
  9  8  1  0
 10  4  1  0
 10  9  1  0
 11 10  1  0
 12 11  1  0
 13 12  1  0
 14 13  2  0
 15 14  1  0
 16 15  2  0
 17 15  1  0
 18 17  1  0
 19 18  1  0
 19 13  1  0
 19  9  1  0
  1 21  1  1
 21 20  3  0
 22  1  1  0
 23 22  1  0
 24 23  2  0
 25 23  1  0
  2 26  1  0
  2 27  1  0
  3 28  1  0
  3 29  1  0
  4 30  1  1
  6 31  1  0
  6 32  1  0
  6 33  1  0
  7 34  1  0
  7 35  1  0
  8 36  1  0
  8 37  1  0
  9 38  1  1
 10 39  1  6
 11 40  1  0
 11 41  1  0
 12 42  1  0
 12 43  1  0
 14 44  1  0
 17 45  1  0
 17 46  1  0
 18 47  1  0
 18 48  1  0
 19 49  1  6
 20 50  1  0
 25 51  1  0
 25 52  1  0
 25 53  1  0
M  END
>  <score>  (4) 
-7.371

$$$$
=
     RDKit          3D

 53 56  0  0  0  0  0  0  0  0999 V2000
    3.4700   61.3380   71.7210 C   0  0  2  0  0  0  0  0  0  0  0  0
    4.8130   61.1190   72.4790 C   0  0  0  0  0  0  0  0  0  0  0  0
    4.5570   60.0530   73.5640 C   0  0  0  0  0  0  0  0  0  0  0  0
    3.1240   59.5850   73.3250 C   0  0  2  0  0  0  0  0  0  0  0  0
    2.4200   60.8470   72.7810 C   0  0  1  0  0  0  0  0  0  0  0  0
    2.2190   61.9580   73.8590 C   0  0  0  0  0  0  0  0  0  0  0  0
    1.0300   60.4350   72.2600 C   0  0  0  0  0  0  0  0  0  0  0  0
    0.1990   59.7140   73.3380 C   0  0  0  0  0  0  0  0  0  0  0  0
    0.9430   58.5260   73.9980 C   0  0  1  0  0  0  0  0  0  0  0  0
    2.3670   58.9300   74.4840 C   0  0  1  0  0  0  0  0  0  0  0  0
    3.1030   57.6950   75.0210 C   0  0  0  0  0  0  0  0  0  0  0  0
    2.3400   57.0750   76.1860 C   0  0  0  0  0  0  0  0  0  0  0  0
    0.9070   56.7630   75.8320 C   0  0  0  0  0  0  0  0  0  0  0  0
    0.3810   55.5690   76.1550 C   0  0  0  0  0  0  0  0  0  0  0  0
   -1.0640   55.2950   75.9730 C   0  0  0  0  0  0  0  0  0  0  0  0
   -1.5030   54.1720   76.2050 O   0  0  0  0  0  0  0  0  0  0  0  0
   -1.9530   56.4530   75.6050 C   0  0  0  0  0  0  0  0  0  0  0  0
   -1.2420   57.3710   74.6240 C   0  0  0  0  0  0  0  0  0  0  0  0
    0.1190   57.8760   75.1520 C   0  0  2  0  0  0  0  0  0  0  0  0
    3.3980   59.8650   69.4750 C   0  0  0  0  0  0  0  0  0  0  0  0
    3.4270   60.5330   70.4730 C   0  0  0  0  0  0  0  0  0  0  0  0
    3.2040   62.7190   71.4050 O   0  0  0  0  0  0  0  0  0  0  0  0
    3.6610   63.2230   70.2290 C   0  0  0  0  0  0  0  0  0  0  0  0
    3.0190   63.3560   69.1980 O   0  0  0  0  0  0  0  0  0  0  0  0
    5.1070   63.5870   70.3690 C   0  0  0  0  0  0  0  0  0  0  0  0
    5.5867   60.7674   71.7806 H   0  0  0  0  0  0  0  0  0  0  0  0
    5.1638   62.0587   72.9305 H   0  0  0  0  0  0  0  0  0  0  0  0
    5.2609   59.2146   73.4564 H   0  0  0  0  0  0  0  0  0  0  0  0
    4.6979   60.4532   74.5789 H   0  0  0  0  0  0  0  0  0  0  0  0
    3.1380   58.7286   72.6348 H   0  0  0  0  0  0  0  0  0  0  0  0
    2.2993   61.5142   74.8623 H   0  0  0  0  0  0  0  0  0  0  0  0
    2.9918   62.7312   73.7372 H   0  0  0  0  0  0  0  0  0  0  0  0
    1.2242   62.4114   73.7372 H   0  0  0  0  0  0  0  0  0  0  0  0
    0.4891   61.3377   71.9396 H   0  0  0  0  0  0  0  0  0  0  0  0
    1.1748   59.7385   71.4210 H   0  0  0  0  0  0  0  0  0  0  0  0
   -0.0610   60.4409   74.1216 H   0  0  0  0  0  0  0  0  0  0  0  0
   -0.6912   59.3025   72.8397 H   0  0  0  0  0  0  0  0  0  0  0  0
    1.0612   57.7630   73.2145 H   0  0  0  0  0  0  0  0  0  0  0  0
    2.2986   59.6577   75.3060 H   0  0  0  0  0  0  0  0  0  0  0  0
    3.1968   56.9522   74.2151 H   0  0  0  0  0  0  0  0  0  0  0  0
    4.0979   58.0033   75.3749 H   0  0  0  0  0  0  0  0  0  0  0  0
    2.8424   56.1420   76.4812 H   0  0  0  0  0  0  0  0  0  0  0  0
    2.3316   57.8051   77.0088 H   0  0  0  0  0  0  0  0  0  0  0  0
    1.0338   54.7823   76.5611 H   0  0  0  0  0  0  0  0  0  0  0  0
   -2.8745   56.0705   75.1419 H   0  0  0  0  0  0  0  0  0  0  0  0
   -2.1971   57.0209   76.5149 H   0  0  0  0  0  0  0  0  0  0  0  0
   -1.0725   56.8199   73.6872 H   0  0  0  0  0  0  0  0  0  0  0  0
   -1.8839   58.2511   74.4707 H   0  0  0  0  0  0  0  0  0  0  0  0
   -0.0781   58.6444   75.9141 H   0  0  0  0  0  0  0  0  0  0  0  0
    3.3714   59.2533   68.5611 H   0  0  0  0  0  0  0  0  0  0  0  0
    5.3670   63.6524   71.4358 H   0  0  0  0  0  0  0  0  0  0  0  0
    5.7273   62.8170   69.8870 H   0  0  0  0  0  0  0  0  0  0  0  0
    5.2888   64.5589   69.8870 H   0  0  0  0  0  0  0  0  0  0  0  0
  2  1  1  0
  3  2  1  0
  4  3  1  0
  5  4  1  0
  5  1  1  0
  5  6  1  1
  7  5  1  0
  8  7  1  0
  9  8  1  0
 10  4  1  0
 10  9  1  0
 11 10  1  0
 12 11  1  0
 13 12  1  0
 14 13  2  0
 15 14  1  0
 16 15  2  0
 17 15  1  0
 18 17  1  0
 19 18  1  0
 19 13  1  0
 19  9  1  0
  1 21  1  6
 21 20  3  0
 22  1  1  0
 23 22  1  0
 24 23  2  0
 25 23  1  0
  2 26  1  0
  2 27  1  0
  3 28  1  0
  3 29  1  0
  4 30  1  6
  6 31  1  0
  6 32  1  0
  6 33  1  0
  7 34  1  0
  7 35  1  0
  8 36  1  0
  8 37  1  0
  9 38  1  6
 10 39  1  1
 11 40  1  0
 11 41  1  0
 12 42  1  0
 12 43  1  0
 14 44  1  0
 17 45  1  0
 17 46  1  0
 18 47  1  0
 18 48  1  0
 19 49  1  1
 20 50  1  0
 25 51  1  0
 25 52  1  0
 25 53  1  0
M  END
>  <score>  (5) 
-7.245

$$$$
=
     RDKit          3D

 53 56  0  0  0  0  0  0  0  0999 V2000
    3.0820   60.6390   72.1300 C   0  0  2  0  0  0  0  0  0  0  0  0
    3.3120   59.5200   71.0710 C   0  0  0  0  0  0  0  0  0  0  0  0
    2.5730   58.2610   71.5700 C   0  0  0  0  0  0  0  0  0  0  0  0
    1.8290   58.7120   72.8230 C   0  0  2  0  0  0  0  0  0  0  0  0
    2.7510   59.8010   73.4160 C   0  0  1  0  0  0  0  0  0  0  0  0
    4.0740   59.2320   74.0160 C   0  0  0  0  0  0  0  0  0  0  0  0
    1.9860   60.5140   74.5470 C   0  0  0  0  0  0  0  0  0  0  0  0
    1.4760   59.5280   75.6130 C   0  0  0  0  0  0  0  0  0  0  0  0
    0.6650   58.3460   75.0240 C   0  0  1  0  0  0  0  0  0  0  0  0
    1.4170   57.6530   73.8490 C   0  0  1  0  0  0  0  0  0  0  0  0
    0.5250   56.5710   73.2260 C   0  0  0  0  0  0  0  0  0  0  0  0
    0.1470   55.5190   74.2620 C   0  0  0  0  0  0  0  0  0  0  0  0
   -0.4830   56.1250   75.4920 C   0  0  0  0  0  0  0  0  0  0  0  0
   -1.6040   55.5890   76.0040 C   0  0  0  0  0  0  0  0  0  0  0  0
   -2.1510   56.0540   77.3000 C   0  0  0  0  0  0  0  0  0  0  0  0
   -3.2170   55.6000   77.7070 O   0  0  0  0  0  0  0  0  0  0  0  0
   -1.3080   56.9980   78.1150 C   0  0  0  0  0  0  0  0  0  0  0  0
   -0.6050   57.9940   77.2060 C   0  0  0  0  0  0  0  0  0  0  0  0
    0.2460   57.3110   76.1120 C   0  0  2  0  0  0  0  0  0  0  0  0
    1.0620   62.2580   71.4090 C   0  0  0  0  0  0  0  0  0  0  0  0
    1.9590   61.5250   71.7310 C   0  0  0  0  0  0  0  0  0  0  0  0
    4.2540   61.4410   72.3850 O   0  0  0  0  0  0  0  0  0  0  0  0
    5.1780   61.5840   71.3990 C   0  0  0  0  0  0  0  0  0  0  0  0
    6.0600   60.7890   71.1100 O   0  0  0  0  0  0  0  0  0  0  0  0
    4.9720   62.8970   70.7080 C   0  0  0  0  0  0  0  0  0  0  0  0
    2.9073   59.8335   70.0974 H   0  0  0  0  0  0  0  0  0  0  0  0
    4.3857   59.3178   70.9434 H   0  0  0  0  0  0  0  0  0  0  0  0
    1.8655   57.9005   70.8087 H   0  0  0  0  0  0  0  0  0  0  0  0
    3.2639   57.4301   71.7757 H   0  0  0  0  0  0  0  0  0  0  0  0
    0.8255   59.0599   72.5368 H   0  0  0  0  0  0  0  0  0  0  0  0
    4.0185   59.2559   75.1143 H   0  0  0  0  0  0  0  0  0  0  0  0
    4.2133   58.1944   73.6783 H   0  0  0  0  0  0  0  0  0  0  0  0
    4.9230   59.8446   73.6783 H   0  0  0  0  0  0  0  0  0  0  0  0
    2.6589   61.2393   75.0278 H   0  0  0  0  0  0  0  0  0  0  0  0
    1.1125   61.0134   74.1024 H   0  0  0  0  0  0  0  0  0  0  0  0
    2.3430   59.1203   76.1535 H   0  0  0  0  0  0  0  0  0  0  0  0
    0.7981   60.0881   76.2739 H   0  0  0  0  0  0  0  0  0  0  0  0
   -0.2604   58.7804   74.6178 H   0  0  0  0  0  0  0  0  0  0  0  0
    2.3278   57.1587   74.2178 H   0  0  0  0  0  0  0  0  0  0  0  0
   -0.3911   57.0390   72.8364 H   0  0  0  0  0  0  0  0  0  0  0  0
    1.0804   56.0813   72.4125 H   0  0  0  0  0  0  0  0  0  0  0  0
   -0.5678   54.8168   73.8082 H   0  0  0  0  0  0  0  0  0  0  0  0
    1.0698   55.0082   74.5742 H   0  0  0  0  0  0  0  0  0  0  0  0
   -2.1238   54.7921   75.4519 H   0  0  0  0  0  0  0  0  0  0  0  0
   -1.9520   57.5426   78.8212 H   0  0  0  0  0  0  0  0  0  0  0  0
   -0.5517   56.4191   78.6654 H   0  0  0  0  0  0  0  0  0  0  0  0
   -1.3653   58.6220   76.7186 H   0  0  0  0  0  0  0  0  0  0  0  0
    0.0766   58.5889   77.8318 H   0  0  0  0  0  0  0  0  0  0  0  0
    1.1570   56.9184   76.5873 H   0  0  0  0  0  0  0  0  0  0  0  0
    0.2413   62.9286   71.1144 H   0  0  0  0  0  0  0  0  0  0  0  0
    4.8474   63.6910   71.4590 H   0  0  0  0  0  0  0  0  0  0  0  0
    5.8459   63.1213   70.0788 H   0  0  0  0  0  0  0  0  0  0  0  0
    4.0714   62.8429   70.0788 H   0  0  0  0  0  0  0  0  0  0  0  0
  2  1  1  0
  3  2  1  0
  4  3  1  0
  5  4  1  0
  5  1  1  0
  5  6  1  1
  7  5  1  0
  8  7  1  0
  9  8  1  0
 10  4  1  0
 10  9  1  0
 11 10  1  0
 12 11  1  0
 13 12  1  0
 14 13  2  0
 15 14  1  0
 16 15  2  0
 17 15  1  0
 18 17  1  0
 19 18  1  0
 19 13  1  0
 19  9  1  0
  1 21  1  6
 21 20  3  0
 22  1  1  0
 23 22  1  0
 24 23  2  0
 25 23  1  0
  2 26  1  0
  2 27  1  0
  3 28  1  0
  3 29  1  0
  4 30  1  6
  6 31  1  0
  6 32  1  0
  6 33  1  0
  7 34  1  0
  7 35  1  0
  8 36  1  0
  8 37  1  0
  9 38  1  6
 10 39  1  1
 11 40  1  0
 11 41  1  0
 12 42  1  0
 12 43  1  0
 14 44  1  0
 17 45  1  0
 17 46  1  0
 18 47  1  0
 18 48  1  0
 19 49  1  1
 20 50  1  0
 25 51  1  0
 25 52  1  0
 25 53  1  0
M  END
>  <score>  (6) 
-6.995

$$$$
=
     RDKit          3D

 53 56  0  0  0  0  0  0  0  0999 V2000
    2.5800   61.8450   72.6080 C   0  0  2  0  0  0  0  0  0  0  0  0
    2.0560   60.5310   71.9580 C   0  0  0  0  0  0  0  0  0  0  0  0
    0.6170   60.3100   72.4690 C   0  0  0  0  0  0  0  0  0  0  0  0
    0.2950   61.5570   73.2870 C   0  0  2  0  0  0  0  0  0  0  0  0
    1.6630   61.9630   73.8780 C   0  0  1  0  0  0  0  0  0  0  0  0
    2.1780   60.9820   74.9770 C   0  0  0  0  0  0  0  0  0  0  0  0
    1.5170   63.3570   74.5170 C   0  0  0  0  0  0  0  0  0  0  0  0
    0.3870   63.3980   75.5620 C   0  0  0  0  0  0  0  0  0  0  0  0
   -0.9660   62.8620   75.0300 C   0  0  1  0  0  0  0  0  0  0  0  0
   -0.8110   61.4730   74.3420 C   0  0  1  0  0  0  0  0  0  0  0  0
   -2.1510   61.0430   73.7310 C   0  0  0  0  0  0  0  0  0  0  0  0
   -3.2290   60.9460   74.8050 C   0  0  0  0  0  0  0  0  0  0  0  0
   -3.3600   62.2210   75.6020 C   0  0  0  0  0  0  0  0  0  0  0  0
   -4.5770   62.7390   75.8410 C   0  0  0  0  0  0  0  0  0  0  0  0
   -4.7510   63.8900   76.7580 C   0  0  0  0  0  0  0  0  0  0  0  0
   -5.8630   64.3920   76.8990 O   0  0  0  0  0  0  0  0  0  0  0  0
   -3.5560   64.3300   77.5610 C   0  0  0  0  0  0  0  0  0  0  0  0
   -2.2930   64.2350   76.7200 C   0  0  0  0  0  0  0  0  0  0  0  0
   -2.0660   62.8230   76.1350 C   0  0  2  0  0  0  0  0  0  0  0  0
    2.2790   63.9160   70.9230 C   0  0  0  0  0  0  0  0  0  0  0  0
    2.4130   62.9970   71.6850 C   0  0  0  0  0  0  0  0  0  0  0  0
    3.9570   61.7700   73.0310 O   0  0  0  0  0  0  0  0  0  0  0  0
    4.7210   60.7340   72.5970 C   0  0  0  0  0  0  0  0  0  0  0  0
    4.7670   59.6130   73.0800 O   0  0  0  0  0  0  0  0  0  0  0  0
    5.5370   61.1730   71.4190 C   0  0  0  0  0  0  0  0  0  0  0  0
    2.0560   60.6268   70.8622 H   0  0  0  0  0  0  0  0  0  0  0  0
    2.6997   59.6800   72.2253 H   0  0  0  0  0  0  0  0  0  0  0  0
   -0.0820   60.2092   71.6256 H   0  0  0  0  0  0  0  0  0  0  0  0
    0.5257   59.3894   73.0641 H   0  0  0  0  0  0  0  0  0  0  0  0
   -0.1658   62.3072   72.6275 H   0  0  0  0  0  0  0  0  0  0  0  0
    1.9595   61.3982   75.9715 H   0  0  0  0  0  0  0  0  0  0  0  0
    1.6735   60.0107   74.8671 H   0  0  0  0  0  0  0  0  0  0  0  0
    3.2640   60.8457   74.8671 H   0  0  0  0  0  0  0  0  0  0  0  0
    2.4645   63.6233   75.0082 H   0  0  0  0  0  0  0  0  0  0  0  0
    1.2673   64.0717   73.7190 H   0  0  0  0  0  0  0  0  0  0  0  0
    0.6886   62.7866   76.4252 H   0  0  0  0  0  0  0  0  0  0  0  0
    0.2336   64.4533   75.8317 H   0  0  0  0  0  0  0  0  0  0  0  0
   -1.3013   63.5777   74.2649 H   0  0  0  0  0  0  0  0  0  0  0  0
   -0.5244   60.7104   75.0811 H   0  0  0  0  0  0  0  0  0  0  0  0
   -2.4580   61.7833   72.9776 H   0  0  0  0  0  0  0  0  0  0  0  0
   -2.0257   60.0538   73.2666 H   0  0  0  0  0  0  0  0  0  0  0  0
   -4.1928   60.7312   74.3204 H   0  0  0  0  0  0  0  0  0  0  0  0
   -2.9408   60.1432   75.4995 H   0  0  0  0  0  0  0  0  0  0  0  0
   -5.4578   62.3016   75.3481 H   0  0  0  0  0  0  0  0  0  0  0  0
   -3.6994   65.3715   77.8845 H   0  0  0  0  0  0  0  0  0  0  0  0
   -3.4526   63.6745   78.4383 H   0  0  0  0  0  0  0  0  0  0  0  0
   -2.3699   64.9513   75.8887 H   0  0  0  0  0  0  0  0  0  0  0  0
   -1.4405   64.4614   77.3773 H   0  0  0  0  0  0  0  0  0  0  0  0
   -1.7172   62.1714   76.9497 H   0  0  0  0  0  0  0  0  0  0  0  0
    2.1563   64.7575   70.2253 H   0  0  0  0  0  0  0  0  0  0  0  0
    6.4545   61.6666   71.7720 H   0  0  0  0  0  0  0  0  0  0  0  0
    5.8032   60.2964   70.8102 H   0  0  0  0  0  0  0  0  0  0  0  0
    4.9522   61.8782   70.8102 H   0  0  0  0  0  0  0  0  0  0  0  0
  2  1  1  0
  3  2  1  0
  4  3  1  0
  5  4  1  0
  5  1  1  0
  5  6  1  1
  7  5  1  0
  8  7  1  0
  9  8  1  0
 10  4  1  0
 10  9  1  0
 11 10  1  0
 12 11  1  0
 13 12  1  0
 14 13  2  0
 15 14  1  0
 16 15  2  0
 17 15  1  0
 18 17  1  0
 19 18  1  0
 19 13  1  0
 19  9  1  0
  1 21  1  6
 21 20  3  0
 22  1  1  0
 23 22  1  0
 24 23  2  0
 25 23  1  0
  2 26  1  0
  2 27  1  0
  3 28  1  0
  3 29  1  0
  4 30  1  6
  6 31  1  0
  6 32  1  0
  6 33  1  0
  7 34  1  0
  7 35  1  0
  8 36  1  0
  8 37  1  0
  9 38  1  6
 10 39  1  1
 11 40  1  0
 11 41  1  0
 12 42  1  0
 12 43  1  0
 14 44  1  0
 17 45  1  0
 17 46  1  0
 18 47  1  0
 18 48  1  0
 19 49  1  1
 20 50  1  0
 25 51  1  0
 25 52  1  0
 25 53  1  0
M  END
>  <score>  (7) 
-6.953

$$$$
=
     RDKit          3D

 53 56  0  0  0  0  0  0  0  0999 V2000
    2.3940   61.7800   71.7890 C   0  0  2  0  0  0  0  0  0  0  0  0
    2.7100   60.8970   70.5450 C   0  0  0  0  0  0  0  0  0  0  0  0
    2.5960   59.4240   70.9900 C   0  0  0  0  0  0  0  0  0  0  0  0
    2.0900   59.4860   72.4280 C   0  0  2  0  0  0  0  0  0  0  0  0
    2.7070   60.7930   72.9710 C   0  0  1  0  0  0  0  0  0  0  0  0
    4.2510   60.7110   73.1770 C   0  0  0  0  0  0  0  0  0  0  0  0
    2.0610   61.0990   74.3350 C   0  0  0  0  0  0  0  0  0  0  0  0
    2.2080   59.9250   75.3200 C   0  0  0  0  0  0  0  0  0  0  0  0
    1.7230   58.5710   74.7430 C   0  0  1  0  0  0  0  0  0  0  0  0
    2.3390   58.2830   73.3420 C   0  0  1  0  0  0  0  0  0  0  0  0
    1.7380   56.9940   72.7650 C   0  0  0  0  0  0  0  0  0  0  0  0
    2.0180   55.8090   73.6830 C   0  0  0  0  0  0  0  0  0  0  0  0
    1.5570   56.0580   75.0970 C   0  0  0  0  0  0  0  0  0  0  0  0
    0.8540   55.1150   75.7490 C   0  0  0  0  0  0  0  0  0  0  0  0
    0.5330   55.2580   77.1880 C   0  0  0  0  0  0  0  0  0  0  0  0
   -0.1750   54.4190   77.7390 O   0  0  0  0  0  0  0  0  0  0  0  0
    1.1840   56.3890   77.9390 C   0  0  0  0  0  0  0  0  0  0  0  0
    1.2500   57.6320   77.0660 C   0  0  0  0  0  0  0  0  0  0  0  0
    1.9720   57.3840   75.7230 C   0  0  2  0  0  0  0  0  0  0  0  0
   -0.1770   62.5600   71.7930 C   0  0  0  0  0  0  0  0  0  0  0  0
    0.9740   62.2170   71.7820 C   0  0  0  0  0  0  0  0  0  0  0  0
    3.2480   62.9360   71.9080 O   0  0  0  0  0  0  0  0  0  0  0  0
    3.5710   63.6300   70.7860 C   0  0  0  0  0  0  0  0  0  0  0  0
    2.8110   64.2980   70.1000 O   0  0  0  0  0  0  0  0  0  0  0  0
    5.0270   63.4470   70.4850 C   0  0  0  0  0  0  0  0  0  0  0  0
    1.9877   61.1050   69.7419 H   0  0  0  0  0  0  0  0  0  0  0  0
    3.7177   61.1116   70.1597 H   0  0  0  0  0  0  0  0  0  0  0  0
    1.8831   58.8811   70.3520 H   0  0  0  0  0  0  0  0  0  0  0  0
    3.5558   58.8924   70.9115 H   0  0  0  0  0  0  0  0  0  0  0  0
    0.9903   59.4611   72.4205 H   0  0  0  0  0  0  0  0  0  0  0  0
    4.4772   60.6990   74.2534 H   0  0  0  0  0  0  0  0  0  0  0  0
    4.6347   59.7912   72.7114 H   0  0  0  0  0  0  0  0  0  0  0  0
    4.7300   61.5850   72.7114 H   0  0  0  0  0  0  0  0  0  0  0  0
    2.5461   61.9871   74.7663 H   0  0  0  0  0  0  0  0  0  0  0  0
    0.9872   61.2719   74.1708 H   0  0  0  0  0  0  0  0  0  0  0  0
    3.2698   59.8281   75.5905 H   0  0  0  0  0  0  0  0  0  0  0  0
    1.5752   60.1514   76.1908 H   0  0  0  0  0  0  0  0  0  0  0  0
    0.6341   58.6619   74.6161 H   0  0  0  0  0  0  0  0  0  0  0  0
    3.4256   58.1334   73.4258 H   0  0  0  0  0  0  0  0  0  0  0  0
    0.6503   57.1190   72.6588 H   0  0  0  0  0  0  0  0  0  0  0  0
    2.1978   56.7979   71.7852 H   0  0  0  0  0  0  0  0  0  0  0  0
    1.4930   54.9257   73.2903 H   0  0  0  0  0  0  0  0  0  0  0  0
    3.1065   55.6522   73.7070 H   0  0  0  0  0  0  0  0  0  0  0  0
    0.5116   54.2226   75.2046 H   0  0  0  0  0  0  0  0  0  0  0  0
    0.5967   56.6106   78.8423 H   0  0  0  0  0  0  0  0  0  0  0  0
    2.2059   56.0925   78.2178 H   0  0  0  0  0  0  0  0  0  0  0  0
    0.2240   57.9688   76.8563 H   0  0  0  0  0  0  0  0  0  0  0  0
    1.8253   58.3918   77.6154 H   0  0  0  0  0  0  0  0  0  0  0  0
    3.0512   57.3220   75.9269 H   0  0  0  0  0  0  0  0  0  0  0  0
   -1.2311   62.8741   71.8031 H   0  0  0  0  0  0  0  0  0  0  0  0
    5.5901   63.3762   71.4273 H   0  0  0  0  0  0  0  0  0  0  0  0
    5.1680   62.5241   69.9034 H   0  0  0  0  0  0  0  0  0  0  0  0
    5.3920   64.3063   69.9034 H   0  0  0  0  0  0  0  0  0  0  0  0
  2  1  1  0
  3  2  1  0
  4  3  1  0
  5  4  1  0
  5  1  1  0
  5  6  1  1
  7  5  1  0
  8  7  1  0
  9  8  1  0
 10  4  1  0
 10  9  1  0
 11 10  1  0
 12 11  1  0
 13 12  1  0
 14 13  2  0
 15 14  1  0
 16 15  2  0
 17 15  1  0
 18 17  1  0
 19 18  1  0
 19 13  1  0
 19  9  1  0
  1 21  1  6
 21 20  3  0
 22  1  1  0
 23 22  1  0
 24 23  2  0
 25 23  1  0
  2 26  1  0
  2 27  1  0
  3 28  1  0
  3 29  1  0
  4 30  1  6
  6 31  1  0
  6 32  1  0
  6 33  1  0
  7 34  1  0
  7 35  1  0
  8 36  1  0
  8 37  1  0
  9 38  1  6
 10 39  1  1
 11 40  1  0
 11 41  1  0
 12 42  1  0
 12 43  1  0
 14 44  1  0
 17 45  1  0
 17 46  1  0
 18 47  1  0
 18 48  1  0
 19 49  1  1
 20 50  1  0
 25 51  1  0
 25 52  1  0
 25 53  1  0
M  END
>  <score>  (8) 
-6.944

$$$$
=
     RDKit          3D

 53 56  0  0  0  0  0  0  0  0999 V2000
    2.7430   61.4490   72.4580 C   0  0  2  0  0  0  0  0  0  0  0  0
    2.4950   62.3280   73.7190 C   0  0  0  0  0  0  0  0  0  0  0  0
    2.0850   61.3800   74.8650 C   0  0  0  0  0  0  0  0  0  0  0  0
    2.2340   59.9760   74.2850 C   0  0  2  0  0  0  0  0  0  0  0  0
    1.8970   60.1670   72.7900 C   0  0  1  0  0  0  0  0  0  0  0  0
    0.3880   60.4640   72.5280 C   0  0  0  0  0  0  0  0  0  0  0  0
    2.2620   58.8680   72.0460 C   0  0  0  0  0  0  0  0  0  0  0  0
    1.5650   57.6380   72.6550 C   0  0  0  0  0  0  0  0  0  0  0  0
    1.7740   57.5040   74.1850 C   0  0  1  0  0  0  0  0  0  0  0  0
    1.4510   58.8310   74.9340 C   0  0  1  0  0  0  0  0  0  0  0  0
    1.7860   58.6820   76.4240 C   0  0  0  0  0  0  0  0  0  0  0  0
    0.9780   57.5510   77.0490 C   0  0  0  0  0  0  0  0  0  0  0  0
    1.1430   56.2490   76.3050 C   0  0  0  0  0  0  0  0  0  0  0  0
    1.3800   55.1140   76.9850 C   0  0  0  0  0  0  0  0  0  0  0  0
    1.3800   53.7990   76.3020 C   0  0  0  0  0  0  0  0  0  0  0  0
    1.6740   52.7870   76.9320 O   0  0  0  0  0  0  0  0  0  0  0  0
    0.9120   53.7560   74.8720 C   0  0  0  0  0  0  0  0  0  0  0  0
    1.4040   54.9830   74.1200 C   0  0  0  0  0  0  0  0  0  0  0  0
    0.9790   56.3080   74.7910 C   0  0  2  0  0  0  0  0  0  0  0  0
    5.3560   60.8850   72.1870 C   0  0  0  0  0  0  0  0  0  0  0  0
    4.1880   61.1440   72.3000 C   0  0  0  0  0  0  0  0  0  0  0  0
    2.2430   62.0340   71.2390 O   0  0  0  0  0  0  0  0  0  0  0  0
    3.0750   62.8080   70.4940 C   0  0  0  0  0  0  0  0  0  0  0  0
    3.5660   63.8760   70.8270 O   0  0  0  0  0  0  0  0  0  0  0  0
    3.3020   62.1600   69.1620 C   0  0  0  0  0  0  0  0  0  0  0  0
    3.4146   62.8683   73.9881 H   0  0  0  0  0  0  0  0  0  0  0  0
    1.7069   63.0710   73.5272 H   0  0  0  0  0  0  0  0  0  0  0  0
    2.7477   61.5126   75.7329 H   0  0  0  0  0  0  0  0  0  0  0  0
    1.0619   61.5757   75.2186 H   0  0  0  0  0  0  0  0  0  0  0  0
    3.2521   59.6118   74.4872 H   0  0  0  0  0  0  0  0  0  0  0  0
   -0.1375   60.5674   73.4888 H   0  0  0  0  0  0  0  0  0  0  0  0
    0.2922   61.3982   71.9552 H   0  0  0  0  0  0  0  0  0  0  0  0
   -0.0547   59.6357   71.9552 H   0  0  0  0  0  0  0  0  0  0  0  0
    1.9568   58.9640   70.9936 H   0  0  0  0  0  0  0  0  0  0  0  0
    3.3485   58.7205   72.1340 H   0  0  0  0  0  0  0  0  0  0  0  0
    0.4859   57.7153   72.4564 H   0  0  0  0  0  0  0  0  0  0  0  0
    2.0122   56.7481   72.1880 H   0  0  0  0  0  0  0  0  0  0  0  0
    2.8428   57.2894   74.3323 H   0  0  0  0  0  0  0  0  0  0  0  0
    0.3781   59.0616   74.8580 H   0  0  0  0  0  0  0  0  0  0  0  0
    2.8583   58.4620   76.5325 H   0  0  0  0  0  0  0  0  0  0  0  0
    1.5344   59.6214   76.9380 H   0  0  0  0  0  0  0  0  0  0  0  0
    1.3123   57.4096   78.0874 H   0  0  0  0  0  0  0  0  0  0  0  0
   -0.0845   57.8319   77.0031 H   0  0  0  0  0  0  0  0  0  0  0  0
    1.5772   55.1621   78.0661 H   0  0  0  0  0  0  0  0  0  0  0  0
    1.3069   52.8507   74.3877 H   0  0  0  0  0  0  0  0  0  0  0  0
   -0.1878   53.7423   74.8550 H   0  0  0  0  0  0  0  0  0  0  0  0
    2.5025   54.9494   74.0735 H   0  0  0  0  0  0  0  0  0  0  0  0
    0.9517   54.9600   73.1176 H   0  0  0  0  0  0  0  0  0  0  0  0
   -0.0908   56.4627   74.5869 H   0  0  0  0  0  0  0  0  0  0  0  0
    6.4252   60.6479   72.0836 H   0  0  0  0  0  0  0  0  0  0  0  0
    3.6623   61.1315   69.3113 H   0  0  0  0  0  0  0  0  0  0  0  0
    2.3575   62.1395   68.5985 H   0  0  0  0  0  0  0  0  0  0  0  0
    4.0528   62.7334   68.5985 H   0  0  0  0  0  0  0  0  0  0  0  0
  2  1  1  0
  3  2  1  0
  4  3  1  0
  5  4  1  0
  5  1  1  0
  5  6  1  1
  7  5  1  0
  8  7  1  0
  9  8  1  0
 10  4  1  0
 10  9  1  0
 11 10  1  0
 12 11  1  0
 13 12  1  0
 14 13  2  0
 15 14  1  0
 16 15  2  0
 17 15  1  0
 18 17  1  0
 19 18  1  0
 19 13  1  0
 19  9  1  0
  1 21  1  6
 21 20  3  0
 22  1  1  0
 23 22  1  0
 24 23  2  0
 25 23  1  0
  2 26  1  0
  2 27  1  0
  3 28  1  0
  3 29  1  0
  4 30  1  6
  6 31  1  0
  6 32  1  0
  6 33  1  0
  7 34  1  0
  7 35  1  0
  8 36  1  0
  8 37  1  0
  9 38  1  6
 10 39  1  1
 11 40  1  0
 11 41  1  0
 12 42  1  0
 12 43  1  0
 14 44  1  0
 17 45  1  0
 17 46  1  0
 18 47  1  0
 18 48  1  0
 19 49  1  1
 20 50  1  0
 25 51  1  0
 25 52  1  0
 25 53  1  0
M  END
>  <score>  (9) 
-6.911

$$$$
