=
     RDKit          3D

 81 87  0  0  0  0  0  0  0  0999 V2000
    3.2350   62.5540   69.1270 C   0  0  0  0  0  0  0  0  0  0  0  0
    2.3160   63.5030   69.8410 C   0  0  0  0  0  0  0  0  0  0  0  0
    2.2690   64.8530   69.4730 C   0  0  0  0  0  0  0  0  0  0  0  0
    1.3970   65.7410   70.1170 C   0  0  0  0  0  0  0  0  0  0  0  0
    0.5440   65.2540   71.1180 C   0  0  0  0  0  0  0  0  0  0  0  0
    0.5750   63.9060   71.4950 C   0  0  0  0  0  0  0  0  0  0  0  0
    1.4630   63.0370   70.8490 C   0  0  0  0  0  0  0  0  0  0  0  0
    1.4100   67.2150   69.7800 C   0  0  0  0  0  0  0  0  0  0  0  0
    0.7940   67.5020   68.4000 C   0  0  0  0  0  0  0  0  0  0  0  0
    1.0100   68.9090   68.0090 N   0  0  0  0  0  0  0  0  0  0  0  0
    2.1920   69.0480   67.2230 C   0  0  0  0  0  0  0  0  0  0  0  0
    2.1620   68.6650   65.8750 C   0  0  0  0  0  0  0  0  0  0  0  0
    1.0150   67.9460   65.2160 C   0  0  0  0  0  0  0  0  0  0  0  0
    0.7350   68.5040   63.8180 C   0  0  0  0  0  0  0  0  0  0  0  0
    1.9900   68.8160   62.9890 C   0  0  0  0  0  0  0  0  0  0  0  0
    3.3000   68.4250   63.6710 C   0  0  0  0  0  0  0  0  0  0  0  0
    3.3050   68.8820   65.1070 C   0  0  0  0  0  0  0  0  0  0  0  0
    4.4330   69.4500   65.5820 N   0  0  0  0  0  0  0  0  0  0  0  0
    4.4630   69.8250   66.8680 C   0  0  0  0  0  0  0  0  0  0  0  0
    3.3710   69.6590   67.7490 C   0  0  0  0  0  0  0  0  0  0  0  0
    3.5210   70.1040   69.0890 C   0  0  0  0  0  0  0  0  0  0  0  0
    4.7100   70.6780   69.5410 C   0  0  0  0  0  0  0  0  0  0  0  0
    5.7700   70.8310   68.6630 C   0  0  0  0  0  0  0  0  0  0  0  0
    5.6330   70.4060   67.3400 C   0  0  0  0  0  0  0  0  0  0  0  0
   -0.3110   63.4070   72.6130 C   0  0  0  0  0  0  0  0  0  0  0  0
   -0.3470   61.8770   72.6640 C   0  0  0  0  0  0  0  0  0  0  0  0
    0.3880   61.3390   73.8270 N   0  0  0  0  0  0  0  0  0  0  0  0
    1.2540   60.2530   73.4940 C   0  0  0  0  0  0  0  0  0  0  0  0
    0.7530   58.9410   73.5990 C   0  0  0  0  0  0  0  0  0  0  0  0
   -0.6380   58.6720   74.1260 C   0  0  0  0  0  0  0  0  0  0  0  0
   -0.8670   57.2180   74.5390 C   0  0  0  0  0  0  0  0  0  0  0  0
   -0.3610   56.2790   73.4550 C   0  0  0  0  0  0  0  0  0  0  0  0
    1.1430   56.4550   73.2770 C   0  0  0  0  0  0  0  0  0  0  0  0
    1.5740   57.8960   73.1770 C   0  0  0  0  0  0  0  0  0  0  0  0
    2.8300   58.0860   72.7100 N   0  0  0  0  0  0  0  0  0  0  0  0
    3.3250   59.3290   72.6560 C   0  0  0  0  0  0  0  0  0  0  0  0
    2.5900   60.4670   73.0430 C   0  0  0  0  0  0  0  0  0  0  0  0
    3.2260   61.7340   72.9730 C   0  0  0  0  0  0  0  0  0  0  0  0
    4.5370   61.8680   72.5150 C   0  0  0  0  0  0  0  0  0  0  0  0
    5.2390   60.7410   72.1230 C   0  0  0  0  0  0  0  0  0  0  0  0
    4.6280   59.4880   72.2000 C   0  0  0  0  0  0  0  0  0  0  0  0
    3.8024   61.9680   69.8650 H   0  0  0  0  0  0  0  0  0  0  0  0
    2.6427   61.8746   68.4965 H   0  0  0  0  0  0  0  0  0  0  0  0
    3.9331   63.1242   68.4965 H   0  0  0  0  0  0  0  0  0  0  0  0
    2.9239   65.2207   68.6693 H   0  0  0  0  0  0  0  0  0  0  0  0
   -0.1587   65.9401   71.6135 H   0  0  0  0  0  0  0  0  0  0  0  0
    1.4908   61.9757   71.1368 H   0  0  0  0  0  0  0  0  0  0  0  0
    0.8348   67.7580   70.5444 H   0  0  0  0  0  0  0  0  0  0  0  0
    2.4586   67.5464   69.7568 H   0  0  0  0  0  0  0  0  0  0  0  0
    1.2624   66.8446   67.6527 H   0  0  0  0  0  0  0  0  0  0  0  0
   -0.2886   67.3140   68.4524 H   0  0  0  0  0  0  0  0  0  0  0  0
    0.3887   69.6881   68.2696 H   0  0  0  0  0  0  0  0  0  0  0  0
    1.2633   66.8777   65.1318 H   0  0  0  0  0  0  0  0  0  0  0  0
    0.1157   68.0904   65.8328 H   0  0  0  0  0  0  0  0  0  0  0  0
    0.1356   67.7641   63.2673 H   0  0  0  0  0  0  0  0  0  0  0  0
    0.2128   69.4611   63.9640 H   0  0  0  0  0  0  0  0  0  0  0  0
    1.9197   68.2700   62.0367 H   0  0  0  0  0  0  0  0  0  0  0  0
    2.0168   69.9071   62.8516 H   0  0  0  0  0  0  0  0  0  0  0  0
    3.4123   67.3312   63.6389 H   0  0  0  0  0  0  0  0  0  0  0  0
    4.1345   68.9078   63.1414 H   0  0  0  0  0  0  0  0  0  0  0  0
    2.6790   69.9935   69.7882 H   0  0  0  0  0  0  0  0  0  0  0  0
    4.8045   71.0064   70.5866 H   0  0  0  0  0  0  0  0  0  0  0  0
    6.7123   71.2837   69.0051 H   0  0  0  0  0  0  0  0  0  0  0  0
    6.4791   70.5355   66.6491 H   0  0  0  0  0  0  0  0  0  0  0  0
    0.0745   63.7871   73.5706 H   0  0  0  0  0  0  0  0  0  0  0  0
   -1.3333   63.7691   72.4293 H   0  0  0  0  0  0  0  0  0  0  0  0
   -1.3953   61.5494   72.7252 H   0  0  0  0  0  0  0  0  0  0  0  0
    0.1390   61.4977   71.7530 H   0  0  0  0  0  0  0  0  0  0  0  0
    0.2862   61.7099   74.7825 H   0  0  0  0  0  0  0  0  0  0  0  0
   -0.8071   59.3133   75.0036 H   0  0  0  0  0  0  0  0  0  0  0  0
   -1.3399   58.8885   73.3072 H   0  0  0  0  0  0  0  0  0  0  0  0
   -0.3264   57.0167   75.4756 H   0  0  0  0  0  0  0  0  0  0  0  0
   -1.9445   57.0513   74.6844 H   0  0  0  0  0  0  0  0  0  0  0  0
   -0.5750   55.2394   73.7439 H   0  0  0  0  0  0  0  0  0  0  0  0
   -0.8678   56.5132   72.5072 H   0  0  0  0  0  0  0  0  0  0  0  0
    1.6510   55.9991   74.1396 H   0  0  0  0  0  0  0  0  0  0  0  0
    1.4145   55.9703   72.3276 H   0  0  0  0  0  0  0  0  0  0  0  0
    2.6724   62.6311   73.2872 H   0  0  0  0  0  0  0  0  0  0  0  0
    5.0088   62.8605   72.4658 H   0  0  0  0  0  0  0  0  0  0  0  0
    6.2710   60.8321   71.7534 H   0  0  0  0  0  0  0  0  0  0  0  0
    5.1960   58.5985   71.8899 H   0  0  0  0  0  0  0  0  0  0  0  0
  2  1  1  0
  3  2  2  0
  4  3  1  0
  5  4  2  0
  6  5  1  0
  7  2  1  0
  7  6  2  0
  8  4  1  0
  9  8  1  0
 10  9  1  0
 11 10  1  0
 12 11  1  0
 13 12  1  0
 14 13  1  0
 15 14  1  0
 16 15  1  0
 17 16  1  0
 17 12  2  0
 18 17  1  0
 19 18  2  0
 20 19  1  0
 20 11  2  0
 21 20  1  0
 22 21  2  0
 23 22  1  0
 24 19  1  0
 24 23  2  0
 25  6  1  0
 26 25  1  0
 27 26  1  0
 28 27  1  0
 29 28  1  0
 30 29  1  0
 31 30  1  0
 32 31  1  0
 33 32  1  0
 34 33  1  0
 34 29  2  0
 35 34  1  0
 36 35  2  0
 37 36  1  0
 37 28  2  0
 38 37  1  0
 39 38  2  0
 40 39  1  0
 41 36  1  0
 41 40  2  0
  1 42  1  0
  1 43  1  0
  1 44  1  0
  3 45  1  0
  5 46  1  0
  7 47  1  0
  8 48  1  0
  8 49  1  0
  9 50  1  0
  9 51  1  0
 10 52  1  0
 13 53  1  0
 13 54  1  0
 14 55  1  0
 14 56  1  0
 15 57  1  0
 15 58  1  0
 16 59  1  0
 16 60  1  0
 21 61  1  0
 22 62  1  0
 23 63  1  0
 24 64  1  0
 25 65  1  0
 25 66  1  0
 26 67  1  0
 26 68  1  0
 27 69  1  0
 30 70  1  0
 30 71  1  0
 31 72  1  0
 31 73  1  0
 32 74  1  0
 32 75  1  0
 33 76  1  0
 33 77  1  0
 38 78  1  0
 39 79  1  0
 40 80  1  0
 41 81  1  0
M  END
>  <score>  (1) 
-13.118

$$$$
=
     RDKit          3D

 81 87  0  0  0  0  0  0  0  0999 V2000
    4.1620   63.6120   70.3670 C   0  0  0  0  0  0  0  0  0  0  0  0
    2.7650   64.0800   70.6540 C   0  0  0  0  0  0  0  0  0  0  0  0
    1.9900   63.4400   71.6290 C   0  0  0  0  0  0  0  0  0  0  0  0
    0.6940   63.8870   71.9200 C   0  0  0  0  0  0  0  0  0  0  0  0
    0.1900   65.0060   71.2440 C   0  0  0  0  0  0  0  0  0  0  0  0
    0.9520   65.6610   70.2690 C   0  0  0  0  0  0  0  0  0  0  0  0
    2.2400   65.1920   69.9830 C   0  0  0  0  0  0  0  0  0  0  0  0
   -0.1740   63.1410   72.9090 C   0  0  0  0  0  0  0  0  0  0  0  0
   -0.0810   61.6160   72.7310 C   0  0  0  0  0  0  0  0  0  0  0  0
    0.7940   61.0180   73.7590 N   0  0  0  0  0  0  0  0  0  0  0  0
    1.1390   59.6760   73.4210 C   0  0  0  0  0  0  0  0  0  0  0  0
    0.5050   58.6200   74.0900 C   0  0  0  0  0  0  0  0  0  0  0  0
   -0.4050   58.7850   75.2780 C   0  0  0  0  0  0  0  0  0  0  0  0
   -1.6260   57.8650   75.1800 C   0  0  0  0  0  0  0  0  0  0  0  0
   -1.3210   56.4490   74.6680 C   0  0  0  0  0  0  0  0  0  0  0  0
    0.1640   56.1760   74.4370 C   0  0  0  0  0  0  0  0  0  0  0  0
    0.8020   57.3180   73.6890 C   0  0  0  0  0  0  0  0  0  0  0  0
    1.6540   57.0160   72.6880 N   0  0  0  0  0  0  0  0  0  0  0  0
    2.2560   58.0230   72.0400 C   0  0  0  0  0  0  0  0  0  0  0  0
    2.0390   59.3840   72.3510 C   0  0  0  0  0  0  0  0  0  0  0  0
    2.7310   60.3610   71.5880 C   0  0  0  0  0  0  0  0  0  0  0  0
    3.6110   60.0040   70.5660 C   0  0  0  0  0  0  0  0  0  0  0  0
    3.8110   58.6640   70.2760 C   0  0  0  0  0  0  0  0  0  0  0  0
    3.1310   57.6930   71.0130 C   0  0  0  0  0  0  0  0  0  0  0  0
    0.3750   66.8330   69.5100 C   0  0  0  0  0  0  0  0  0  0  0  0
    1.1970   67.1550   68.2590 C   0  0  0  0  0  0  0  0  0  0  0  0
    1.1870   68.5970   67.9390 N   0  0  0  0  0  0  0  0  0  0  0  0
    2.2700   68.9960   67.0960 C   0  0  0  0  0  0  0  0  0  0  0  0
    3.3820   69.6250   67.6890 C   0  0  0  0  0  0  0  0  0  0  0  0
    3.4080   69.9490   69.1640 C   0  0  0  0  0  0  0  0  0  0  0  0
    4.4850   70.9600   69.5530 C   0  0  0  0  0  0  0  0  0  0  0  0
    5.8150   70.5780   68.9210 C   0  0  0  0  0  0  0  0  0  0  0  0
    5.6980   70.6190   67.4010 C   0  0  0  0  0  0  0  0  0  0  0  0
    4.4730   69.9200   66.8710 C   0  0  0  0  0  0  0  0  0  0  0  0
    4.4920   69.6610   65.5420 N   0  0  0  0  0  0  0  0  0  0  0  0
    3.4150   69.1080   64.9700 C   0  0  0  0  0  0  0  0  0  0  0  0
    2.2570   68.7550   65.6910 C   0  0  0  0  0  0  0  0  0  0  0  0
    1.1620   68.2020   64.9750 C   0  0  0  0  0  0  0  0  0  0  0  0
    1.2240   67.9890   63.5990 C   0  0  0  0  0  0  0  0  0  0  0  0
    2.3770   68.3260   62.9090 C   0  0  0  0  0  0  0  0  0  0  0  0
    3.4540   68.8830   63.6000 C   0  0  0  0  0  0  0  0  0  0  0  0
    4.6913   63.4347   71.3148 H   0  0  0  0  0  0  0  0  0  0  0  0
    4.1240   62.6775   69.7879 H   0  0  0  0  0  0  0  0  0  0  0  0
    4.6945   64.3808   69.7879 H   0  0  0  0  0  0  0  0  0  0  0  0
    2.4028   62.5772   72.1723 H   0  0  0  0  0  0  0  0  0  0  0  0
   -0.8184   65.3750   71.4826 H   0  0  0  0  0  0  0  0  0  0  0  0
    2.8474   65.7033   69.2217 H   0  0  0  0  0  0  0  0  0  0  0  0
    0.1491   63.3988   73.9284 H   0  0  0  0  0  0  0  0  0  0  0  0
   -1.2183   63.4380   72.7321 H   0  0  0  0  0  0  0  0  0  0  0  0
   -1.0877   61.1812   72.8177 H   0  0  0  0  0  0  0  0  0  0  0  0
    0.3453   61.4032   71.7395 H   0  0  0  0  0  0  0  0  0  0  0  0
    1.1132   61.5057   74.6082 H   0  0  0  0  0  0  0  0  0  0  0  0
    0.1541   58.5412   76.1934 H   0  0  0  0  0  0  0  0  0  0  0  0
   -0.7578   59.8266   75.3013 H   0  0  0  0  0  0  0  0  0  0  0  0
   -2.0719   57.7788   76.1819 H   0  0  0  0  0  0  0  0  0  0  0  0
   -2.3031   58.3233   74.4441 H   0  0  0  0  0  0  0  0  0  0  0  0
   -1.6941   55.7261   75.4084 H   0  0  0  0  0  0  0  0  0  0  0  0
   -1.8173   56.3510   73.6912 H   0  0  0  0  0  0  0  0  0  0  0  0
    0.6650   56.0553   75.4088 H   0  0  0  0  0  0  0  0  0  0  0  0
    0.2676   55.2582   73.8395 H   0  0  0  0  0  0  0  0  0  0  0  0
    2.5692   61.4265   71.8082 H   0  0  0  0  0  0  0  0  0  0  0  0
    4.1418   60.7801   69.9950 H   0  0  0  0  0  0  0  0  0  0  0  0
    4.5001   58.3677   69.4714 H   0  0  0  0  0  0  0  0  0  0  0  0
    3.2934   56.6319   70.7726 H   0  0  0  0  0  0  0  0  0  0  0  0
   -0.6545   66.5905   69.2079 H   0  0  0  0  0  0  0  0  0  0  0  0
    0.3942   67.7129   70.1698 H   0  0  0  0  0  0  0  0  0  0  0  0
    2.2365   66.8369   68.4269 H   0  0  0  0  0  0  0  0  0  0  0  0
    0.7453   66.6185   67.4116 H   0  0  0  0  0  0  0  0  0  0  0  0
    0.4710   69.2498   68.2885 H   0  0  0  0  0  0  0  0  0  0  0  0
    2.4277   70.3604   69.4463 H   0  0  0  0  0  0  0  0  0  0  0  0
    3.6397   69.0134   69.6940 H   0  0  0  0  0  0  0  0  0  0  0  0
    4.1893   71.9596   69.2017 H   0  0  0  0  0  0  0  0  0  0  0  0
    4.5952   70.9647   70.6475 H   0  0  0  0  0  0  0  0  0  0  0  0
    6.5905   71.2870   69.2464 H   0  0  0  0  0  0  0  0  0  0  0  0
    6.0865   69.5597   69.2361 H   0  0  0  0  0  0  0  0  0  0  0  0
    5.6626   71.6715   67.0833 H   0  0  0  0  0  0  0  0  0  0  0  0
    6.5725   70.0888   66.9959 H   0  0  0  0  0  0  0  0  0  0  0  0
    0.2438   67.9357   65.5191 H   0  0  0  0  0  0  0  0  0  0  0  0
    0.3646   67.5569   63.0654 H   0  0  0  0  0  0  0  0  0  0  0  0
    2.4432   68.1558   61.8243 H   0  0  0  0  0  0  0  0  0  0  0  0
    4.3628   69.1524   63.0418 H   0  0  0  0  0  0  0  0  0  0  0  0
  2  1  1  0
  3  2  2  0
  4  3  1  0
  5  4  2  0
  6  5  1  0
  7  2  1  0
  7  6  2  0
  8  4  1  0
  9  8  1  0
 10  9  1  0
 11 10  1  0
 12 11  1  0
 13 12  1  0
 14 13  1  0
 15 14  1  0
 16 15  1  0
 17 16  1  0
 17 12  2  0
 18 17  1  0
 19 18  2  0
 20 19  1  0
 20 11  2  0
 21 20  1  0
 22 21  2  0
 23 22  1  0
 24 19  1  0
 24 23  2  0
 25  6  1  0
 26 25  1  0
 27 26  1  0
 28 27  1  0
 29 28  1  0
 30 29  1  0
 31 30  1  0
 32 31  1  0
 33 32  1  0
 34 33  1  0
 34 29  2  0
 35 34  1  0
 36 35  2  0
 37 36  1  0
 37 28  2  0
 38 37  1  0
 39 38  2  0
 40 39  1  0
 41 36  1  0
 41 40  2  0
  1 42  1  0
  1 43  1  0
  1 44  1  0
  3 45  1  0
  5 46  1  0
  7 47  1  0
  8 48  1  0
  8 49  1  0
  9 50  1  0
  9 51  1  0
 10 52  1  0
 13 53  1  0
 13 54  1  0
 14 55  1  0
 14 56  1  0
 15 57  1  0
 15 58  1  0
 16 59  1  0
 16 60  1  0
 21 61  1  0
 22 62  1  0
 23 63  1  0
 24 64  1  0
 25 65  1  0
 25 66  1  0
 26 67  1  0
 26 68  1  0
 27 69  1  0
 30 70  1  0
 30 71  1  0
 31 72  1  0
 31 73  1  0
 32 74  1  0
 32 75  1  0
 33 76  1  0
 33 77  1  0
 38 78  1  0
 39 79  1  0
 40 80  1  0
 41 81  1  0
M  END
>  <score>  (2) 
-12.99

$$$$
=
     RDKit          3D

 81 87  0  0  0  0  0  0  0  0999 V2000
    3.7330   63.4740   69.8520 C   0  0  0  0  0  0  0  0  0  0  0  0
    2.5250   64.2930   70.2030 C   0  0  0  0  0  0  0  0  0  0  0  0
    1.8290   64.0520   71.3940 C   0  0  0  0  0  0  0  0  0  0  0  0
    0.7150   64.8280   71.7410 C   0  0  0  0  0  0  0  0  0  0  0  0
    0.3220   65.8740   70.8960 C   0  0  0  0  0  0  0  0  0  0  0  0
    1.0080   66.1320   69.7040 C   0  0  0  0  0  0  0  0  0  0  0  0
    2.1110   65.3380   69.3670 C   0  0  0  0  0  0  0  0  0  0  0  0
   -0.0880   64.5100   72.9830 C   0  0  0  0  0  0  0  0  0  0  0  0
    0.1280   63.0640   73.4610 C   0  0  0  0  0  0  0  0  0  0  0  0
   -0.4340   62.1000   72.4940 N   0  0  0  0  0  0  0  0  0  0  0  0
   -0.2420   60.7580   72.9370 C   0  0  0  0  0  0  0  0  0  0  0  0
    0.9730   60.1160   72.6620 C   0  0  0  0  0  0  0  0  0  0  0  0
    2.0510   60.6750   71.7720 C   0  0  0  0  0  0  0  0  0  0  0  0
    3.4440   60.4390   72.3660 C   0  0  0  0  0  0  0  0  0  0  0  0
    3.6450   59.0530   72.9970 C   0  0  0  0  0  0  0  0  0  0  0  0
    2.4490   58.1160   72.8370 C   0  0  0  0  0  0  0  0  0  0  0  0
    1.1660   58.8330   73.1710 C   0  0  0  0  0  0  0  0  0  0  0  0
    0.2580   58.1780   73.9240 N   0  0  0  0  0  0  0  0  0  0  0  0
   -0.9020   58.7920   74.1960 C   0  0  0  0  0  0  0  0  0  0  0  0
   -1.2180   60.0900   73.7380 C   0  0  0  0  0  0  0  0  0  0  0  0
   -2.4780   60.6370   74.1000 C   0  0  0  0  0  0  0  0  0  0  0  0
   -3.3930   59.9210   74.8730 C   0  0  0  0  0  0  0  0  0  0  0  0
   -3.0650   58.6480   75.3110 C   0  0  0  0  0  0  0  0  0  0  0  0
   -1.8260   58.1020   74.9710 C   0  0  0  0  0  0  0  0  0  0  0  0
    0.5390   67.2290   68.7760 C   0  0  0  0  0  0  0  0  0  0  0  0
    1.4520   67.3620   67.5540 C   0  0  0  0  0  0  0  0  0  0  0  0
    1.4240   68.7230   66.9800 N   0  0  0  0  0  0  0  0  0  0  0  0
    2.6910   69.1510   66.4780 C   0  0  0  0  0  0  0  0  0  0  0  0
    3.6010   69.7420   67.3760 C   0  0  0  0  0  0  0  0  0  0  0  0
    3.2290   69.9970   68.8180 C   0  0  0  0  0  0  0  0  0  0  0  0
    4.1590   70.9790   69.5280 C   0  0  0  0  0  0  0  0  0  0  0  0
    5.6110   70.6150   69.2590 C   0  0  0  0  0  0  0  0  0  0  0  0
    5.9050   70.7280   67.7670 C   0  0  0  0  0  0  0  0  0  0  0  0
    4.8700   70.0640   66.8960 C   0  0  0  0  0  0  0  0  0  0  0  0
    5.2460   69.8670   65.6100 N   0  0  0  0  0  0  0  0  0  0  0  0
    4.3640   69.3510   64.7450 C   0  0  0  0  0  0  0  0  0  0  0  0
    3.0570   68.9750   65.1110 C   0  0  0  0  0  0  0  0  0  0  0  0
    2.1960   68.4660   64.1030 C   0  0  0  0  0  0  0  0  0  0  0  0
    2.6250   68.3160   62.7850 C   0  0  0  0  0  0  0  0  0  0  0  0
    3.9200   68.6750   62.4460 C   0  0  0  0  0  0  0  0  0  0  0  0
    4.7700   69.1890   63.4260 C   0  0  0  0  0  0  0  0  0  0  0  0
    4.2288   63.1379   70.7746 H   0  0  0  0  0  0  0  0  0  0  0  0
    3.4237   62.5986   69.2621 H   0  0  0  0  0  0  0  0  0  0  0  0
    4.4317   64.0854   69.2621 H   0  0  0  0  0  0  0  0  0  0  0  0
    2.1602   63.2451   72.0642 H   0  0  0  0  0  0  0  0  0  0  0  0
   -0.5379   66.5013   71.1735 H   0  0  0  0  0  0  0  0  0  0  0  0
    2.6591   65.5373   68.4343 H   0  0  0  0  0  0  0  0  0  0  0  0
    0.2152   65.1975   73.7864 H   0  0  0  0  0  0  0  0  0  0  0  0
   -1.1533   64.6279   72.7354 H   0  0  0  0  0  0  0  0  0  0  0  0
    1.2067   62.8779   73.5696 H   0  0  0  0  0  0  0  0  0  0  0  0
   -0.3835   62.9327   74.4259 H   0  0  0  0  0  0  0  0  0  0  0  0
   -0.9029   62.3622   71.6152 H   0  0  0  0  0  0  0  0  0  0  0  0
    1.9933   60.1850   70.7888 H   0  0  0  0  0  0  0  0  0  0  0  0
    1.8941   61.7596   71.6771 H   0  0  0  0  0  0  0  0  0  0  0  0
    4.1847   60.5603   71.5618 H   0  0  0  0  0  0  0  0  0  0  0  0
    3.5641   61.1711   73.1782 H   0  0  0  0  0  0  0  0  0  0  0  0
    4.5191   58.5815   72.5241 H   0  0  0  0  0  0  0  0  0  0  0  0
    3.7810   59.2125   74.0768 H   0  0  0  0  0  0  0  0  0  0  0  0
    2.4045   57.7607   71.7969 H   0  0  0  0  0  0  0  0  0  0  0  0
    2.5698   57.2657   73.5243 H   0  0  0  0  0  0  0  0  0  0  0  0
   -2.7391   61.6508   73.7624 H   0  0  0  0  0  0  0  0  0  0  0  0
   -4.3662   60.3634   75.1323 H   0  0  0  0  0  0  0  0  0  0  0  0
   -3.7755   58.0720   75.9220 H   0  0  0  0  0  0  0  0  0  0  0  0
   -1.5731   57.0928   75.3282 H   0  0  0  0  0  0  0  0  0  0  0  0
   -0.4811   66.9971   68.4359 H   0  0  0  0  0  0  0  0  0  0  0  0
    0.5623   68.1801   69.3281 H   0  0  0  0  0  0  0  0  0  0  0  0
    2.4833   67.1261   67.8553 H   0  0  0  0  0  0  0  0  0  0  0  0
    1.0893   66.6643   66.7848 H   0  0  0  0  0  0  0  0  0  0  0  0
    0.5752   69.3054   66.9452 H   0  0  0  0  0  0  0  0  0  0  0  0
    2.2074   70.4039   68.8463 H   0  0  0  0  0  0  0  0  0  0  0  0
    3.3129   69.0358   69.3463 H   0  0  0  0  0  0  0  0  0  0  0  0
    3.9647   71.9963   69.1573 H   0  0  0  0  0  0  0  0  0  0  0  0
    3.9717   70.9319   70.6109 H   0  0  0  0  0  0  0  0  0  0  0  0
    6.2681   71.3012   69.8135 H   0  0  0  0  0  0  0  0  0  0  0  0
    5.7926   69.5809   69.5872 H   0  0  0  0  0  0  0  0  0  0  0  0
    5.9506   71.7945   67.5014 H   0  0  0  0  0  0  0  0  0  0  0  0
    6.8587   70.2105   67.5861 H   0  0  0  0  0  0  0  0  0  0  0  0
    1.1665   68.1835   64.3683 H   0  0  0  0  0  0  0  0  0  0  0  0
    1.9419   67.9163   62.0211 H   0  0  0  0  0  0  0  0  0  0  0  0
    4.2752   68.5556   61.4118 H   0  0  0  0  0  0  0  0  0  0  0  0
    5.7944   69.4751   63.1454 H   0  0  0  0  0  0  0  0  0  0  0  0
  2  1  1  0
  3  2  2  0
  4  3  1  0
  5  4  2  0
  6  5  1  0
  7  2  1  0
  7  6  2  0
  8  4  1  0
  9  8  1  0
 10  9  1  0
 11 10  1  0
 12 11  1  0
 13 12  1  0
 14 13  1  0
 15 14  1  0
 16 15  1  0
 17 16  1  0
 17 12  2  0
 18 17  1  0
 19 18  2  0
 20 19  1  0
 20 11  2  0
 21 20  1  0
 22 21  2  0
 23 22  1  0
 24 19  1  0
 24 23  2  0
 25  6  1  0
 26 25  1  0
 27 26  1  0
 28 27  1  0
 29 28  1  0
 30 29  1  0
 31 30  1  0
 32 31  1  0
 33 32  1  0
 34 33  1  0
 34 29  2  0
 35 34  1  0
 36 35  2  0
 37 36  1  0
 37 28  2  0
 38 37  1  0
 39 38  2  0
 40 39  1  0
 41 36  1  0
 41 40  2  0
  1 42  1  0
  1 43  1  0
  1 44  1  0
  3 45  1  0
  5 46  1  0
  7 47  1  0
  8 48  1  0
  8 49  1  0
  9 50  1  0
  9 51  1  0
 10 52  1  0
 13 53  1  0
 13 54  1  0
 14 55  1  0
 14 56  1  0
 15 57  1  0
 15 58  1  0
 16 59  1  0
 16 60  1  0
 21 61  1  0
 22 62  1  0
 23 63  1  0
 24 64  1  0
 25 65  1  0
 25 66  1  0
 26 67  1  0
 26 68  1  0
 27 69  1  0
 30 70  1  0
 30 71  1  0
 31 72  1  0
 31 73  1  0
 32 74  1  0
 32 75  1  0
 33 76  1  0
 33 77  1  0
 38 78  1  0
 39 79  1  0
 40 80  1  0
 41 81  1  0
M  END
>  <score>  (3) 
-12.858

$$$$
=
     RDKit          3D

 81 87  0  0  0  0  0  0  0  0999 V2000
    3.5440   62.9940   70.0150 C   0  0  0  0  0  0  0  0  0  0  0  0
    2.4560   63.9700   70.3590 C   0  0  0  0  0  0  0  0  0  0  0  0
    2.1250   65.0020   69.4730 C   0  0  0  0  0  0  0  0  0  0  0  0
    1.0950   65.9020   69.7750 C   0  0  0  0  0  0  0  0  0  0  0  0
    0.3740   65.7390   70.9660 C   0  0  0  0  0  0  0  0  0  0  0  0
    0.6880   64.7100   71.8610 C   0  0  0  0  0  0  0  0  0  0  0  0
    1.7290   63.8280   71.5480 C   0  0  0  0  0  0  0  0  0  0  0  0
    0.7980   67.0690   68.8590 C   0  0  0  0  0  0  0  0  0  0  0  0
    1.7220   68.2680   69.1260 C   0  0  0  0  0  0  0  0  0  0  0  0
    1.5600   69.3010   68.0830 N   0  0  0  0  0  0  0  0  0  0  0  0
    2.6650   69.2970   67.1810 C   0  0  0  0  0  0  0  0  0  0  0  0
    2.4760   68.8310   65.8730 C   0  0  0  0  0  0  0  0  0  0  0  0
    1.2220   68.1600   65.3780 C   0  0  0  0  0  0  0  0  0  0  0  0
    0.8450   68.6470   63.9750 C   0  0  0  0  0  0  0  0  0  0  0  0
    2.0310   68.8080   63.0130 C   0  0  0  0  0  0  0  0  0  0  0  0
    3.3710   68.3630   63.5960 C   0  0  0  0  0  0  0  0  0  0  0  0
    3.5500   68.9090   64.9880 C   0  0  0  0  0  0  0  0  0  0  0  0
    4.7560   69.4190   65.3130 N   0  0  0  0  0  0  0  0  0  0  0  0
    4.9390   69.8730   66.5610 C   0  0  0  0  0  0  0  0  0  0  0  0
    3.9300   69.8490   67.5490 C   0  0  0  0  0  0  0  0  0  0  0  0
    4.2430   70.3670   68.8340 C   0  0  0  0  0  0  0  0  0  0  0  0
    5.5070   70.8770   69.1300 C   0  0  0  0  0  0  0  0  0  0  0  0
    6.4830   70.8910   68.1480 C   0  0  0  0  0  0  0  0  0  0  0  0
    6.1870   70.3930   66.8780 C   0  0  0  0  0  0  0  0  0  0  0  0
   -0.0630   64.5800   73.1660 C   0  0  0  0  0  0  0  0  0  0  0  0
   -0.0320   63.1420   73.6930 C   0  0  0  0  0  0  0  0  0  0  0  0
   -0.6710   62.1910   72.7610 N   0  0  0  0  0  0  0  0  0  0  0  0
   -0.6500   60.8410   73.2290 C   0  0  0  0  0  0  0  0  0  0  0  0
    0.5060   60.0720   72.9970 C   0  0  0  0  0  0  0  0  0  0  0  0
    1.6700   60.6210   72.2050 C   0  0  0  0  0  0  0  0  0  0  0  0
    2.6440   59.5480   71.7210 C   0  0  0  0  0  0  0  0  0  0  0  0
    2.9890   58.6000   72.8600 C   0  0  0  0  0  0  0  0  0  0  0  0
    1.7320   57.8760   73.3290 C   0  0  0  0  0  0  0  0  0  0  0  0
    0.5540   58.7890   73.5450 C   0  0  0  0  0  0  0  0  0  0  0  0
   -0.4680   58.2500   74.2510 N   0  0  0  0  0  0  0  0  0  0  0  0
   -1.5870   58.9630   74.4280 C   0  0  0  0  0  0  0  0  0  0  0  0
   -1.7510   60.2720   73.9340 C   0  0  0  0  0  0  0  0  0  0  0  0
   -2.9930   60.9240   74.1560 C   0  0  0  0  0  0  0  0  0  0  0  0
   -4.0250   60.3060   74.8620 C   0  0  0  0  0  0  0  0  0  0  0  0
   -3.8400   59.0250   75.3550 C   0  0  0  0  0  0  0  0  0  0  0  0
   -2.6280   58.3700   75.1310 C   0  0  0  0  0  0  0  0  0  0  0  0
    3.9865   62.5970   70.9405 H   0  0  0  0  0  0  0  0  0  0  0  0
    3.1215   62.1664   69.4262 H   0  0  0  0  0  0  0  0  0  0  0  0
    4.3210   63.5036   69.4262 H   0  0  0  0  0  0  0  0  0  0  0  0
    2.6799   65.1074   68.5291 H   0  0  0  0  0  0  0  0  0  0  0  0
   -0.4498   66.4293   71.2003 H   0  0  0  0  0  0  0  0  0  0  0  0
    1.9791   63.0137   72.2440 H   0  0  0  0  0  0  0  0  0  0  0  0
    0.9320   66.7440   67.8167 H   0  0  0  0  0  0  0  0  0  0  0  0
   -0.2364   67.3917   69.0485 H   0  0  0  0  0  0  0  0  0  0  0  0
    1.4736   68.7030   70.1053 H   0  0  0  0  0  0  0  0  0  0  0  0
    2.7646   67.9175   69.1145 H   0  0  0  0  0  0  0  0  0  0  0  0
    0.7551   69.9402   68.0158 H   0  0  0  0  0  0  0  0  0  0  0  0
    1.3858   67.0727   65.3476 H   0  0  0  0  0  0  0  0  0  0  0  0
    0.4002   68.4114   66.0646 H   0  0  0  0  0  0  0  0  0  0  0  0
    0.1442   67.9211   63.5369 H   0  0  0  0  0  0  0  0  0  0  0  0
    0.4075   69.6485   64.1002 H   0  0  0  0  0  0  0  0  0  0  0  0
    1.8297   68.2087   62.1129 H   0  0  0  0  0  0  0  0  0  0  0  0
    2.1203   69.8827   62.7962 H   0  0  0  0  0  0  0  0  0  0  0  0
    3.4028   67.2640   63.6317 H   0  0  0  0  0  0  0  0  0  0  0  0
    4.1807   68.7462   62.9576 H   0  0  0  0  0  0  0  0  0  0  0  0
    3.4689   70.3659   69.6155 H   0  0  0  0  0  0  0  0  0  0  0  0
    5.7267   71.2650   70.1356 H   0  0  0  0  0  0  0  0  0  0  0  0
    7.4839   71.2914   68.3669 H   0  0  0  0  0  0  0  0  0  0  0  0
    6.9676   70.4131   66.1032 H   0  0  0  0  0  0  0  0  0  0  0  0
    0.3992   65.2436   73.9116 H   0  0  0  0  0  0  0  0  0  0  0  0
   -1.1121   64.8592   72.9888 H   0  0  0  0  0  0  0  0  0  0  0  0
    1.0158   62.8420   73.8417 H   0  0  0  0  0  0  0  0  0  0  0  0
   -0.5943   63.1171   74.6381 H   0  0  0  0  0  0  0  0  0  0  0  0
   -1.0900   62.4728   71.8632 H   0  0  0  0  0  0  0  0  0  0  0  0
    1.2732   61.1514   71.3268 H   0  0  0  0  0  0  0  0  0  0  0  0
    2.2320   61.2853   72.8780 H   0  0  0  0  0  0  0  0  0  0  0  0
    2.1800   58.9786   70.9022 H   0  0  0  0  0  0  0  0  0  0  0  0
    3.5652   60.0330   71.3659 H   0  0  0  0  0  0  0  0  0  0  0  0
    3.7262   57.8623   72.5103 H   0  0  0  0  0  0  0  0  0  0  0  0
    3.4094   59.1765   73.6972 H   0  0  0  0  0  0  0  0  0  0  0  0
    1.4578   57.1286   72.5699 H   0  0  0  0  0  0  0  0  0  0  0  0
    1.9676   57.4188   74.3013 H   0  0  0  0  0  0  0  0  0  0  0  0
   -3.1446   61.9398   73.7621 H   0  0  0  0  0  0  0  0  0  0  0  0
   -4.9774   60.8314   75.0258 H   0  0  0  0  0  0  0  0  0  0  0  0
   -4.6426   58.5273   75.9191 H   0  0  0  0  0  0  0  0  0  0  0  0
   -2.4928   57.3515   75.5238 H   0  0  0  0  0  0  0  0  0  0  0  0
  2  1  1  0
  3  2  2  0
  4  3  1  0
  5  4  2  0
  6  5  1  0
  7  2  1  0
  7  6  2  0
  8  4  1  0
  9  8  1  0
 10  9  1  0
 11 10  1  0
 12 11  1  0
 13 12  1  0
 14 13  1  0
 15 14  1  0
 16 15  1  0
 17 16  1  0
 17 12  2  0
 18 17  1  0
 19 18  2  0
 20 19  1  0
 20 11  2  0
 21 20  1  0
 22 21  2  0
 23 22  1  0
 24 19  1  0
 24 23  2  0
 25  6  1  0
 26 25  1  0
 27 26  1  0
 28 27  1  0
 29 28  1  0
 30 29  1  0
 31 30  1  0
 32 31  1  0
 33 32  1  0
 34 33  1  0
 34 29  2  0
 35 34  1  0
 36 35  2  0
 37 36  1  0
 37 28  2  0
 38 37  1  0
 39 38  2  0
 40 39  1  0
 41 36  1  0
 41 40  2  0
  1 42  1  0
  1 43  1  0
  1 44  1  0
  3 45  1  0
  5 46  1  0
  7 47  1  0
  8 48  1  0
  8 49  1  0
  9 50  1  0
  9 51  1  0
 10 52  1  0
 13 53  1  0
 13 54  1  0
 14 55  1  0
 14 56  1  0
 15 57  1  0
 15 58  1  0
 16 59  1  0
 16 60  1  0
 21 61  1  0
 22 62  1  0
 23 63  1  0
 24 64  1  0
 25 65  1  0
 25 66  1  0
 26 67  1  0
 26 68  1  0
 27 69  1  0
 30 70  1  0
 30 71  1  0
 31 72  1  0
 31 73  1  0
 32 74  1  0
 32 75  1  0
 33 76  1  0
 33 77  1  0
 38 78  1  0
 39 79  1  0
 40 80  1  0
 41 81  1  0
M  END
>  <score>  (4) 
-12.676

$$$$
=
     RDKit          3D

 81 87  0  0  0  0  0  0  0  0999 V2000
    3.7290   63.4390   70.3960 C   0  0  0  0  0  0  0  0  0  0  0  0
    2.4800   64.2340   70.6450 C   0  0  0  0  0  0  0  0  0  0  0  0
    2.0590   65.1990   69.7220 C   0  0  0  0  0  0  0  0  0  0  0  0
    0.8810   65.9270   69.9360 C   0  0  0  0  0  0  0  0  0  0  0  0
    0.1080   65.6570   71.0730 C   0  0  0  0  0  0  0  0  0  0  0  0
    0.5120   64.6930   72.0040 C   0  0  0  0  0  0  0  0  0  0  0  0
    1.6990   63.9840   71.7800 C   0  0  0  0  0  0  0  0  0  0  0  0
    0.4750   67.0300   68.9830 C   0  0  0  0  0  0  0  0  0  0  0  0
    1.5360   68.1390   68.8900 C   0  0  0  0  0  0  0  0  0  0  0  0
    1.3000   68.9950   67.7100 N   0  0  0  0  0  0  0  0  0  0  0  0
    2.4740   69.0930   66.9040 C   0  0  0  0  0  0  0  0  0  0  0  0
    2.4240   68.6610   65.5720 C   0  0  0  0  0  0  0  0  0  0  0  0
    1.2620   67.9300   64.9540 C   0  0  0  0  0  0  0  0  0  0  0  0
    0.9700   68.4400   63.5390 C   0  0  0  0  0  0  0  0  0  0  0  0
    2.2180   68.7090   62.6850 C   0  0  0  0  0  0  0  0  0  0  0  0
    3.5320   68.3300   63.3650 C   0  0  0  0  0  0  0  0  0  0  0  0
    3.5590   68.8380   64.7830 C   0  0  0  0  0  0  0  0  0  0  0  0
    4.6980   69.4120   65.2230 N   0  0  0  0  0  0  0  0  0  0  0  0
    4.7470   69.8340   66.4940 C   0  0  0  0  0  0  0  0  0  0  0  0
    3.6640   69.7110   67.3940 C   0  0  0  0  0  0  0  0  0  0  0  0
    3.8360   70.2030   68.7150 C   0  0  0  0  0  0  0  0  0  0  0  0
    5.0350   70.7810   69.1310 C   0  0  0  0  0  0  0  0  0  0  0  0
    6.0860   70.8910   68.2360 C   0  0  0  0  0  0  0  0  0  0  0  0
    5.9280   70.4200   66.9310 C   0  0  0  0  0  0  0  0  0  0  0  0
   -0.3040   64.4510   73.2530 C   0  0  0  0  0  0  0  0  0  0  0  0
   -0.1260   63.0220   73.7740 C   0  0  0  0  0  0  0  0  0  0  0  0
   -0.7470   62.0200   72.8830 N   0  0  0  0  0  0  0  0  0  0  0  0
   -0.4980   60.6730   73.2890 C   0  0  0  0  0  0  0  0  0  0  0  0
   -1.4610   60.0280   74.0900 C   0  0  0  0  0  0  0  0  0  0  0  0
   -2.6900   60.7560   74.5810 C   0  0  0  0  0  0  0  0  0  0  0  0
   -3.4040   60.0490   75.7320 C   0  0  0  0  0  0  0  0  0  0  0  0
   -3.5750   58.5720   75.4150 C   0  0  0  0  0  0  0  0  0  0  0  0
   -2.2090   57.9110   75.2700 C   0  0  0  0  0  0  0  0  0  0  0  0
   -1.2550   58.6830   74.3960 C   0  0  0  0  0  0  0  0  0  0  0  0
   -0.1630   57.9920   73.9900 N   0  0  0  0  0  0  0  0  0  0  0  0
    0.7760   58.6190   73.2710 C   0  0  0  0  0  0  0  0  0  0  0  0
    0.6760   59.9710   72.8890 C   0  0  0  0  0  0  0  0  0  0  0  0
    1.7470   60.5420   72.1520 C   0  0  0  0  0  0  0  0  0  0  0  0
    2.8650   59.7910   71.7890 C   0  0  0  0  0  0  0  0  0  0  0  0
    2.9380   58.4580   72.1590 C   0  0  0  0  0  0  0  0  0  0  0  0
    1.8970   57.8900   72.8960 C   0  0  0  0  0  0  0  0  0  0  0  0
    4.1791   63.1525   71.3579 H   0  0  0  0  0  0  0  0  0  0  0  0
    3.4792   62.5333   69.8238 H   0  0  0  0  0  0  0  0  0  0  0  0
    4.4438   64.0487   69.8238 H   0  0  0  0  0  0  0  0  0  0  0  0
    2.6591   65.3876   68.8196 H   0  0  0  0  0  0  0  0  0  0  0  0
   -0.8288   66.2100   71.2362 H   0  0  0  0  0  0  0  0  0  0  0  0
    2.0215   63.2216   72.5044 H   0  0  0  0  0  0  0  0  0  0  0  0
    0.3270   66.5969   67.9827 H   0  0  0  0  0  0  0  0  0  0  0  0
   -0.4521   67.4817   69.3656 H   0  0  0  0  0  0  0  0  0  0  0  0
    1.4914   68.7575   69.7986 H   0  0  0  0  0  0  0  0  0  0  0  0
    2.5267   67.6710   68.7928 H   0  0  0  0  0  0  0  0  0  0  0  0
    0.4061   69.4600   67.4967 H   0  0  0  0  0  0  0  0  0  0  0  0
    1.4988   66.8569   64.9060 H   0  0  0  0  0  0  0  0  0  0  0  0
    0.3719   68.1056   65.5760 H   0  0  0  0  0  0  0  0  0  0  0  0
    0.3570   67.6866   63.0226 H   0  0  0  0  0  0  0  0  0  0  0  0
    0.4585   69.4068   63.6559 H   0  0  0  0  0  0  0  0  0  0  0  0
    2.1311   68.1296   61.7540 H   0  0  0  0  0  0  0  0  0  0  0  0
    2.2536   69.7941   62.5081 H   0  0  0  0  0  0  0  0  0  0  0  0
    3.6335   67.2347   63.3710 H   0  0  0  0  0  0  0  0  0  0  0  0
    4.3644   68.7854   62.8085 H   0  0  0  0  0  0  0  0  0  0  0  0
    3.0022   70.1262   69.4283 H   0  0  0  0  0  0  0  0  0  0  0  0
    5.1451   71.1469   70.1625 H   0  0  0  0  0  0  0  0  0  0  0  0
    7.0371   71.3455   68.5504 H   0  0  0  0  0  0  0  0  0  0  0  0
    6.7666   70.5163   66.2257 H   0  0  0  0  0  0  0  0  0  0  0  0
    0.0176   65.1578   74.0321 H   0  0  0  0  0  0  0  0  0  0  0  0
   -1.3655   64.5971   73.0044 H   0  0  0  0  0  0  0  0  0  0  0  0
    0.9496   62.8059   73.8543 H   0  0  0  0  0  0  0  0  0  0  0  0
   -0.6227   62.9560   74.7533 H   0  0  0  0  0  0  0  0  0  0  0  0
   -1.3036   62.2678   72.0525 H   0  0  0  0  0  0  0  0  0  0  0  0
   -2.3874   61.7569   74.9225 H   0  0  0  0  0  0  0  0  0  0  0  0
   -3.3976   60.7956   73.7397 H   0  0  0  0  0  0  0  0  0  0  0  0
   -2.8082   60.1570   76.6504 H   0  0  0  0  0  0  0  0  0  0  0  0
   -4.3959   60.5033   75.8725 H   0  0  0  0  0  0  0  0  0  0  0  0
   -4.1307   58.0859   76.2304 H   0  0  0  0  0  0  0  0  0  0  0  0
   -4.1306   58.4660   74.4716 H   0  0  0  0  0  0  0  0  0  0  0  0
   -1.7622   57.8128   76.2704 H   0  0  0  0  0  0  0  0  0  0  0  0
   -2.3720   56.9362   74.7871 H   0  0  0  0  0  0  0  0  0  0  0  0
    1.6938   61.6013   71.8605 H   0  0  0  0  0  0  0  0  0  0  0  0
    3.6812   60.2530   71.2142 H   0  0  0  0  0  0  0  0  0  0  0  0
    3.8101   57.8512   71.8741 H   0  0  0  0  0  0  0  0  0  0  0  0
    1.9670   56.8320   73.1888 H   0  0  0  0  0  0  0  0  0  0  0  0
  2  1  1  0
  3  2  2  0
  4  3  1  0
  5  4  2  0
  6  5  1  0
  7  2  1  0
  7  6  2  0
  8  4  1  0
  9  8  1  0
 10  9  1  0
 11 10  1  0
 12 11  1  0
 13 12  1  0
 14 13  1  0
 15 14  1  0
 16 15  1  0
 17 16  1  0
 17 12  2  0
 18 17  1  0
 19 18  2  0
 20 19  1  0
 20 11  2  0
 21 20  1  0
 22 21  2  0
 23 22  1  0
 24 19  1  0
 24 23  2  0
 25  6  1  0
 26 25  1  0
 27 26  1  0
 28 27  1  0
 29 28  1  0
 30 29  1  0
 31 30  1  0
 32 31  1  0
 33 32  1  0
 34 33  1  0
 34 29  2  0
 35 34  1  0
 36 35  2  0
 37 36  1  0
 37 28  2  0
 38 37  1  0
 39 38  2  0
 40 39  1  0
 41 36  1  0
 41 40  2  0
  1 42  1  0
  1 43  1  0
  1 44  1  0
  3 45  1  0
  5 46  1  0
  7 47  1  0
  8 48  1  0
  8 49  1  0
  9 50  1  0
  9 51  1  0
 10 52  1  0
 13 53  1  0
 13 54  1  0
 14 55  1  0
 14 56  1  0
 15 57  1  0
 15 58  1  0
 16 59  1  0
 16 60  1  0
 21 61  1  0
 22 62  1  0
 23 63  1  0
 24 64  1  0
 25 65  1  0
 25 66  1  0
 26 67  1  0
 26 68  1  0
 27 69  1  0
 30 70  1  0
 30 71  1  0
 31 72  1  0
 31 73  1  0
 32 74  1  0
 32 75  1  0
 33 76  1  0
 33 77  1  0
 38 78  1  0
 39 79  1  0
 40 80  1  0
 41 81  1  0
M  END
>  <score>  (5) 
-12.427

$$$$
=
     RDKit          3D

 81 87  0  0  0  0  0  0  0  0999 V2000
    3.6770   63.2900   69.9980 C   0  0  0  0  0  0  0  0  0  0  0  0
    2.5200   64.1790   70.3500 C   0  0  0  0  0  0  0  0  0  0  0  0
    2.1360   65.2140   69.4890 C   0  0  0  0  0  0  0  0  0  0  0  0
    1.0420   66.0340   69.7980 C   0  0  0  0  0  0  0  0  0  0  0  0
    0.3130   65.7860   70.9680 C   0  0  0  0  0  0  0  0  0  0  0  0
    0.6800   64.7540   71.8390 C   0  0  0  0  0  0  0  0  0  0  0  0
    1.7840   63.9530   71.5200 C   0  0  0  0  0  0  0  0  0  0  0  0
    0.6830   67.2060   68.9110 C   0  0  0  0  0  0  0  0  0  0  0  0
    1.8370   67.6020   67.9750 C   0  0  0  0  0  0  0  0  0  0  0  0
    1.8510   69.0610   67.7460 N   0  0  0  0  0  0  0  0  0  0  0  0
    3.0270   69.4590   67.0430 C   0  0  0  0  0  0  0  0  0  0  0  0
    4.0350   70.1450   67.7340 C   0  0  0  0  0  0  0  0  0  0  0  0
    3.9070   70.6580   69.1430 C   0  0  0  0  0  0  0  0  0  0  0  0
    5.1900   70.4140   69.9450 C   0  0  0  0  0  0  0  0  0  0  0  0
    6.4900   70.6820   69.1720 C   0  0  0  0  0  0  0  0  0  0  0  0
    6.2740   71.2370   67.7650 C   0  0  0  0  0  0  0  0  0  0  0  0
    5.2070   70.4540   67.0450 C   0  0  0  0  0  0  0  0  0  0  0  0
    5.4320   70.1220   65.7570 N   0  0  0  0  0  0  0  0  0  0  0  0
    4.4740   69.4590   65.0950 C   0  0  0  0  0  0  0  0  0  0  0  0
    3.2430   69.0880   65.6810 C   0  0  0  0  0  0  0  0  0  0  0  0
    2.3090   68.3800   64.8780 C   0  0  0  0  0  0  0  0  0  0  0  0
    2.5790   68.0650   63.5460 C   0  0  0  0  0  0  0  0  0  0  0  0
    3.7910   68.4390   62.9890 C   0  0  0  0  0  0  0  0  0  0  0  0
    4.7220   69.1270   63.7690 C   0  0  0  0  0  0  0  0  0  0  0  0
   -0.0820   64.5330   73.1250 C   0  0  0  0  0  0  0  0  0  0  0  0
    0.0580   63.0910   73.6230 C   0  0  0  0  0  0  0  0  0  0  0  0
   -0.5090   62.1130   72.6720 N   0  0  0  0  0  0  0  0  0  0  0  0
   -0.4530   60.7670   73.1460 C   0  0  0  0  0  0  0  0  0  0  0  0
    0.7160   60.0210   72.9030 C   0  0  0  0  0  0  0  0  0  0  0  0
    1.8580   60.5900   72.0940 C   0  0  0  0  0  0  0  0  0  0  0  0
    2.8480   59.5350   71.6020 C   0  0  0  0  0  0  0  0  0  0  0  0
    3.2270   58.6000   72.7410 C   0  0  0  0  0  0  0  0  0  0  0  0
    1.9920   57.8520   73.2300 C   0  0  0  0  0  0  0  0  0  0  0  0
    0.7970   58.7420   73.4570 C   0  0  0  0  0  0  0  0  0  0  0  0
   -0.2040   58.1850   74.1780 N   0  0  0  0  0  0  0  0  0  0  0  0
   -1.3350   58.8760   74.3660 C   0  0  0  0  0  0  0  0  0  0  0  0
   -1.5330   60.1780   73.8680 C   0  0  0  0  0  0  0  0  0  0  0  0
   -2.7850   60.8050   74.1020 C   0  0  0  0  0  0  0  0  0  0  0  0
   -3.7950   60.1690   74.8240 C   0  0  0  0  0  0  0  0  0  0  0  0
   -3.5770   58.8950   75.3210 C   0  0  0  0  0  0  0  0  0  0  0  0
   -2.3540   58.2640   75.0850 C   0  0  0  0  0  0  0  0  0  0  0  0
    4.1525   62.9246   70.9202 H   0  0  0  0  0  0  0  0  0  0  0  0
    3.3160   62.4347   69.4079 H   0  0  0  0  0  0  0  0  0  0  0  0
    4.4104   63.8591   69.4079 H   0  0  0  0  0  0  0  0  0  0  0  0
    2.6990   65.3856   68.5597 H   0  0  0  0  0  0  0  0  0  0  0  0
   -0.5603   66.4112   71.2056 H   0  0  0  0  0  0  0  0  0  0  0  0
    2.0765   63.1365   72.1966 H   0  0  0  0  0  0  0  0  0  0  0  0
   -0.1905   66.9335   68.3005 H   0  0  0  0  0  0  0  0  0  0  0  0
    0.4652   68.0665   69.5607 H   0  0  0  0  0  0  0  0  0  0  0  0
    2.7911   67.2996   68.4313 H   0  0  0  0  0  0  0  0  0  0  0  0
    1.6964   67.0953   67.0088 H   0  0  0  0  0  0  0  0  0  0  0  0
    1.1094   69.7063   68.0534 H   0  0  0  0  0  0  0  0  0  0  0  0
    3.7033   71.7386   69.1135 H   0  0  0  0  0  0  0  0  0  0  0  0
    3.0835   70.1192   69.6344 H   0  0  0  0  0  0  0  0  0  0  0  0
    5.1735   71.0718   70.8265 H   0  0  0  0  0  0  0  0  0  0  0  0
    5.1966   69.3448   70.2034 H   0  0  0  0  0  0  0  0  0  0  0  0
    7.0878   71.4083   69.7422 H   0  0  0  0  0  0  0  0  0  0  0  0
    6.9972   69.7127   69.0571 H   0  0  0  0  0  0  0  0  0  0  0  0
    5.9644   72.2902   67.8352 H   0  0  0  0  0  0  0  0  0  0  0  0
    7.2156   71.1543   67.2024 H   0  0  0  0  0  0  0  0  0  0  0  0
    1.3487   68.0724   65.3176 H   0  0  0  0  0  0  0  0  0  0  0  0
    1.8352   67.5238   62.9427 H   0  0  0  0  0  0  0  0  0  0  0  0
    4.0179   68.1958   61.9405 H   0  0  0  0  0  0  0  0  0  0  0  0
    5.6834   69.4157   63.3191 H   0  0  0  0  0  0  0  0  0  0  0  0
    0.3094   65.2157   73.8936 H   0  0  0  0  0  0  0  0  0  0  0  0
   -1.1471   64.7282   72.9316 H   0  0  0  0  0  0  0  0  0  0  0  0
    1.1256   62.8679   73.7657 H   0  0  0  0  0  0  0  0  0  0  0  0
   -0.4995   63.0050   74.5673 H   0  0  0  0  0  0  0  0  0  0  0  0
   -0.9052   62.3757   71.7583 H   0  0  0  0  0  0  0  0  0  0  0  0
    1.4392   61.1081   71.2187 H   0  0  0  0  0  0  0  0  0  0  0  0
    2.4146   61.2687   72.7570 H   0  0  0  0  0  0  0  0  0  0  0  0
    2.3855   58.9522   70.7918 H   0  0  0  0  0  0  0  0  0  0  0  0
    3.7543   60.0372   71.2325 H   0  0  0  0  0  0  0  0  0  0  0  0
    3.9750   57.8761   72.3853 H   0  0  0  0  0  0  0  0  0  0  0  0
    3.6455   59.1896   73.5700 H   0  0  0  0  0  0  0  0  0  0  0  0
    1.7238   57.0950   72.4783 H   0  0  0  0  0  0  0  0  0  0  0  0
    2.2498   57.4048   74.2013 H   0  0  0  0  0  0  0  0  0  0  0  0
   -2.9627   61.8153   73.7049 H   0  0  0  0  0  0  0  0  0  0  0  0
   -4.7562   60.6751   74.9970 H   0  0  0  0  0  0  0  0  0  0  0  0
   -4.3618   58.3837   75.8977 H   0  0  0  0  0  0  0  0  0  0  0  0
   -2.1923   57.2505   75.4808 H   0  0  0  0  0  0  0  0  0  0  0  0
  2  1  1  0
  3  2  2  0
  4  3  1  0
  5  4  2  0
  6  5  1  0
  7  2  1  0
  7  6  2  0
  8  4  1  0
  9  8  1  0
 10  9  1  0
 11 10  1  0
 12 11  1  0
 13 12  1  0
 14 13  1  0
 15 14  1  0
 16 15  1  0
 17 16  1  0
 17 12  2  0
 18 17  1  0
 19 18  2  0
 20 19  1  0
 20 11  2  0
 21 20  1  0
 22 21  2  0
 23 22  1  0
 24 19  1  0
 24 23  2  0
 25  6  1  0
 26 25  1  0
 27 26  1  0
 28 27  1  0
 29 28  1  0
 30 29  1  0
 31 30  1  0
 32 31  1  0
 33 32  1  0
 34 33  1  0
 34 29  2  0
 35 34  1  0
 36 35  2  0
 37 36  1  0
 37 28  2  0
 38 37  1  0
 39 38  2  0
 40 39  1  0
 41 36  1  0
 41 40  2  0
  1 42  1  0
  1 43  1  0
  1 44  1  0
  3 45  1  0
  5 46  1  0
  7 47  1  0
  8 48  1  0
  8 49  1  0
  9 50  1  0
  9 51  1  0
 10 52  1  0
 13 53  1  0
 13 54  1  0
 14 55  1  0
 14 56  1  0
 15 57  1  0
 15 58  1  0
 16 59  1  0
 16 60  1  0
 21 61  1  0
 22 62  1  0
 23 63  1  0
 24 64  1  0
 25 65  1  0
 25 66  1  0
 26 67  1  0
 26 68  1  0
 27 69  1  0
 30 70  1  0
 30 71  1  0
 31 72  1  0
 31 73  1  0
 32 74  1  0
 32 75  1  0
 33 76  1  0
 33 77  1  0
 38 78  1  0
 39 79  1  0
 40 80  1  0
 41 81  1  0
M  END
>  <score>  (6) 
-12.312

$$$$
=
     RDKit          3D

 81 87  0  0  0  0  0  0  0  0999 V2000
    3.6060   63.2570   70.0380 C   0  0  0  0  0  0  0  0  0  0  0  0
    2.4530   64.1560   70.3810 C   0  0  0  0  0  0  0  0  0  0  0  0
    2.0940   65.2040   69.5240 C   0  0  0  0  0  0  0  0  0  0  0  0
    1.0040   66.0320   69.8230 C   0  0  0  0  0  0  0  0  0  0  0  0
    0.2540   65.7800   70.9790 C   0  0  0  0  0  0  0  0  0  0  0  0
    0.5950   64.7350   71.8450 C   0  0  0  0  0  0  0  0  0  0  0  0
    1.6960   63.9260   71.5360 C   0  0  0  0  0  0  0  0  0  0  0  0
    0.6720   67.2160   68.9430 C   0  0  0  0  0  0  0  0  0  0  0  0
    1.8330   67.5880   68.0050 C   0  0  0  0  0  0  0  0  0  0  0  0
    1.7680   69.0140   67.6260 N   0  0  0  0  0  0  0  0  0  0  0  0
    2.9490   69.4150   66.9350 C   0  0  0  0  0  0  0  0  0  0  0  0
    3.9440   70.1130   67.6350 C   0  0  0  0  0  0  0  0  0  0  0  0
    3.7940   70.6350   69.0390 C   0  0  0  0  0  0  0  0  0  0  0  0
    5.0680   70.4060   69.8580 C   0  0  0  0  0  0  0  0  0  0  0  0
    6.3760   70.6780   69.0990 C   0  0  0  0  0  0  0  0  0  0  0  0
    6.1740   71.2220   67.6870 C   0  0  0  0  0  0  0  0  0  0  0  0
    5.1220   70.4270   66.9580 C   0  0  0  0  0  0  0  0  0  0  0  0
    5.3660   70.0880   65.6760 N   0  0  0  0  0  0  0  0  0  0  0  0
    4.4210   69.4140   65.0060 C   0  0  0  0  0  0  0  0  0  0  0  0
    3.1850   69.0370   65.5780 C   0  0  0  0  0  0  0  0  0  0  0  0
    2.2660   68.3180   64.7690 C   0  0  0  0  0  0  0  0  0  0  0  0
    2.5560   67.9960   63.4420 C   0  0  0  0  0  0  0  0  0  0  0  0
    3.7720   68.3750   62.8990 C   0  0  0  0  0  0  0  0  0  0  0  0
    4.6880   69.0750   63.6860 C   0  0  0  0  0  0  0  0  0  0  0  0
   -0.1900   64.5090   73.1160 C   0  0  0  0  0  0  0  0  0  0  0  0
   -0.0090   63.0840   73.6460 C   0  0  0  0  0  0  0  0  0  0  0  0
   -0.7140   62.0850   72.8170 N   0  0  0  0  0  0  0  0  0  0  0  0
   -0.4720   60.7380   73.2270 C   0  0  0  0  0  0  0  0  0  0  0  0
   -1.4460   60.0940   74.0130 C   0  0  0  0  0  0  0  0  0  0  0  0
   -2.6830   60.8220   74.4850 C   0  0  0  0  0  0  0  0  0  0  0  0
   -3.4140   60.1160   75.6260 C   0  0  0  0  0  0  0  0  0  0  0  0
   -3.5800   58.6380   75.3080 C   0  0  0  0  0  0  0  0  0  0  0  0
   -2.2110   57.9770   75.1840 C   0  0  0  0  0  0  0  0  0  0  0  0
   -1.2440   58.7480   74.3240 C   0  0  0  0  0  0  0  0  0  0  0  0
   -0.1470   58.0580   73.9360 N   0  0  0  0  0  0  0  0  0  0  0  0
    0.8030   58.6840   73.2310 C   0  0  0  0  0  0  0  0  0  0  0  0
    0.7090   60.0360   72.8460 C   0  0  0  0  0  0  0  0  0  0  0  0
    1.7910   60.6070   72.1250 C   0  0  0  0  0  0  0  0  0  0  0  0
    2.9150   59.8560   71.7800 C   0  0  0  0  0  0  0  0  0  0  0  0
    2.9830   58.5240   72.1520 C   0  0  0  0  0  0  0  0  0  0  0  0
    1.9310   57.9560   72.8730 C   0  0  0  0  0  0  0  0  0  0  0  0
    4.0743   62.8919   70.9639 H   0  0  0  0  0  0  0  0  0  0  0  0
    3.2419   62.4020   69.4494 H   0  0  0  0  0  0  0  0  0  0  0  0
    4.3464   63.8186   69.4494 H   0  0  0  0  0  0  0  0  0  0  0  0
    2.6742   65.3790   68.6060 H   0  0  0  0  0  0  0  0  0  0  0  0
   -0.6157   66.4128   71.2094 H   0  0  0  0  0  0  0  0  0  0  0  0
    1.9691   63.0999   72.2091 H   0  0  0  0  0  0  0  0  0  0  0  0
   -0.2098   66.9681   68.3339 H   0  0  0  0  0  0  0  0  0  0  0  0
    0.4776   68.0785   69.5974 H   0  0  0  0  0  0  0  0  0  0  0  0
    2.7866   67.3948   68.5181 H   0  0  0  0  0  0  0  0  0  0  0  0
    1.7571   66.9780   67.0928 H   0  0  0  0  0  0  0  0  0  0  0  0
    0.9742   69.6367   67.8335 H   0  0  0  0  0  0  0  0  0  0  0  0
    3.5828   71.7138   68.9994 H   0  0  0  0  0  0  0  0  0  0  0  0
    2.9681   70.0938   69.5238 H   0  0  0  0  0  0  0  0  0  0  0  0
    5.0359   71.0698   70.7345 H   0  0  0  0  0  0  0  0  0  0  0  0
    5.0790   69.3387   70.1240 H   0  0  0  0  0  0  0  0  0  0  0  0
    6.9618   71.4120   69.6718 H   0  0  0  0  0  0  0  0  0  0  0  0
    6.8909   69.7114   68.9966 H   0  0  0  0  0  0  0  0  0  0  0  0
    5.8560   72.2733   67.7467 H   0  0  0  0  0  0  0  0  0  0  0  0
    7.1233   71.1423   67.1370 H   0  0  0  0  0  0  0  0  0  0  0  0
    1.3021   68.0072   65.1983 H   0  0  0  0  0  0  0  0  0  0  0  0
    1.8242   67.4455   62.8325 H   0  0  0  0  0  0  0  0  0  0  0  0
    4.0144   68.1263   61.8553 H   0  0  0  0  0  0  0  0  0  0  0  0
    5.6529   69.3677   63.2463 H   0  0  0  0  0  0  0  0  0  0  0  0
    0.1560   65.2205   73.8803 H   0  0  0  0  0  0  0  0  0  0  0  0
   -1.2565   64.6594   72.8924 H   0  0  0  0  0  0  0  0  0  0  0  0
    1.0643   62.8431   73.6543 H   0  0  0  0  0  0  0  0  0  0  0  0
   -0.4369   63.0441   74.6586 H   0  0  0  0  0  0  0  0  0  0  0  0
   -1.3198   62.3348   72.0223 H   0  0  0  0  0  0  0  0  0  0  0  0
   -2.3861   61.8234   74.8299 H   0  0  0  0  0  0  0  0  0  0  0  0
   -3.3780   60.8601   73.6332 H   0  0  0  0  0  0  0  0  0  0  0  0
   -2.8320   60.2251   76.5530 H   0  0  0  0  0  0  0  0  0  0  0  0
   -4.4080   60.5702   75.7511 H   0  0  0  0  0  0  0  0  0  0  0  0
   -4.1476   58.1526   76.1156 H   0  0  0  0  0  0  0  0  0  0  0  0
   -4.1216   58.5307   74.3566 H   0  0  0  0  0  0  0  0  0  0  0  0
   -1.7794   57.8798   76.1911 H   0  0  0  0  0  0  0  0  0  0  0  0
   -2.3667   57.0019   74.6993 H   0  0  0  0  0  0  0  0  0  0  0  0
    1.7418   61.6660   71.8317 H   0  0  0  0  0  0  0  0  0  0  0  0
    3.7398   60.3179   71.2175 H   0  0  0  0  0  0  0  0  0  0  0  0
    3.8599   57.9175   71.8813 H   0  0  0  0  0  0  0  0  0  0  0  0
    1.9973   56.8981   73.1671 H   0  0  0  0  0  0  0  0  0  0  0  0
  2  1  1  0
  3  2  2  0
  4  3  1  0
  5  4  2  0
  6  5  1  0
  7  2  1  0
  7  6  2  0
  8  4  1  0
  9  8  1  0
 10  9  1  0
 11 10  1  0
 12 11  1  0
 13 12  1  0
 14 13  1  0
 15 14  1  0
 16 15  1  0
 17 16  1  0
 17 12  2  0
 18 17  1  0
 19 18  2  0
 20 19  1  0
 20 11  2  0
 21 20  1  0
 22 21  2  0
 23 22  1  0
 24 19  1  0
 24 23  2  0
 25  6  1  0
 26 25  1  0
 27 26  1  0
 28 27  1  0
 29 28  1  0
 30 29  1  0
 31 30  1  0
 32 31  1  0
 33 32  1  0
 34 33  1  0
 34 29  2  0
 35 34  1  0
 36 35  2  0
 37 36  1  0
 37 28  2  0
 38 37  1  0
 39 38  2  0
 40 39  1  0
 41 36  1  0
 41 40  2  0
  1 42  1  0
  1 43  1  0
  1 44  1  0
  3 45  1  0
  5 46  1  0
  7 47  1  0
  8 48  1  0
  8 49  1  0
  9 50  1  0
  9 51  1  0
 10 52  1  0
 13 53  1  0
 13 54  1  0
 14 55  1  0
 14 56  1  0
 15 57  1  0
 15 58  1  0
 16 59  1  0
 16 60  1  0
 21 61  1  0
 22 62  1  0
 23 63  1  0
 24 64  1  0
 25 65  1  0
 25 66  1  0
 26 67  1  0
 26 68  1  0
 27 69  1  0
 30 70  1  0
 30 71  1  0
 31 72  1  0
 31 73  1  0
 32 74  1  0
 32 75  1  0
 33 76  1  0
 33 77  1  0
 38 78  1  0
 39 79  1  0
 40 80  1  0
 41 81  1  0
M  END
>  <score>  (7) 
-12.298

$$$$
=
     RDKit          3D

 81 87  0  0  0  0  0  0  0  0999 V2000
   -0.7720   62.7080   71.3900 C   0  0  0  0  0  0  0  0  0  0  0  0
    0.4050   63.5490   70.9870 C   0  0  0  0  0  0  0  0  0  0  0  0
    1.6890   62.9920   70.9410 C   0  0  0  0  0  0  0  0  0  0  0  0
    2.7890   63.7630   70.5430 C   0  0  0  0  0  0  0  0  0  0  0  0
    2.5860   65.0950   70.1570 C   0  0  0  0  0  0  0  0  0  0  0  0
    1.3090   65.6670   70.1930 C   0  0  0  0  0  0  0  0  0  0  0  0
    0.2230   64.8840   70.6060 C   0  0  0  0  0  0  0  0  0  0  0  0
    4.1870   63.1870   70.5790 C   0  0  0  0  0  0  0  0  0  0  0  0
    4.2060   61.7380   71.0950 C   0  0  0  0  0  0  0  0  0  0  0  0
    4.1540   61.7040   72.5700 N   0  0  0  0  0  0  0  0  0  0  0  0
    3.0710   60.8950   73.0270 C   0  0  0  0  0  0  0  0  0  0  0  0
    2.1330   61.4470   73.9110 C   0  0  0  0  0  0  0  0  0  0  0  0
    2.2680   62.7960   74.5660 C   0  0  0  0  0  0  0  0  0  0  0  0
    0.9310   63.5450   74.5800 C   0  0  0  0  0  0  0  0  0  0  0  0
   -0.2880   62.6740   74.9160 C   0  0  0  0  0  0  0  0  0  0  0  0
    0.0580   61.2290   75.2710 C   0  0  0  0  0  0  0  0  0  0  0  0
    1.0430   60.6620   74.2820 C   0  0  0  0  0  0  0  0  0  0  0  0
    0.8310   59.4080   73.8310 N   0  0  0  0  0  0  0  0  0  0  0  0
    1.7210   58.8800   72.9800 C   0  0  0  0  0  0  0  0  0  0  0  0
    2.8670   59.5730   72.5290 C   0  0  0  0  0  0  0  0  0  0  0  0
    3.7330   58.9080   71.6200 C   0  0  0  0  0  0  0  0  0  0  0  0
    3.4810   57.6070   71.1870 C   0  0  0  0  0  0  0  0  0  0  0  0
    2.3530   56.9430   71.6420 C   0  0  0  0  0  0  0  0  0  0  0  0
    1.4880   57.5880   72.5280 C   0  0  0  0  0  0  0  0  0  0  0  0
    1.1130   67.1190   69.8270 C   0  0  0  0  0  0  0  0  0  0  0  0
    1.0710   67.3180   68.3090 C   0  0  0  0  0  0  0  0  0  0  0  0
    1.1060   68.7460   67.9310 N   0  0  0  0  0  0  0  0  0  0  0  0
    2.2070   69.0780   67.0830 C   0  0  0  0  0  0  0  0  0  0  0  0
    3.3410   69.6790   67.6650 C   0  0  0  0  0  0  0  0  0  0  0  0
    3.3730   70.0410   69.1320 C   0  0  0  0  0  0  0  0  0  0  0  0
    4.4880   71.0190   69.4990 C   0  0  0  0  0  0  0  0  0  0  0  0
    5.8040   70.5680   68.8850 C   0  0  0  0  0  0  0  0  0  0  0  0
    5.6960   70.5720   67.3640 C   0  0  0  0  0  0  0  0  0  0  0  0
    4.4470   69.9080   66.8460 C   0  0  0  0  0  0  0  0  0  0  0  0
    4.4610   69.6120   65.5250 N   0  0  0  0  0  0  0  0  0  0  0  0
    3.3660   69.0880   64.9620 C   0  0  0  0  0  0  0  0  0  0  0  0
    2.1920   68.8000   65.6850 C   0  0  0  0  0  0  0  0  0  0  0  0
    1.0790   68.2720   64.9780 C   0  0  0  0  0  0  0  0  0  0  0  0
    1.1380   68.0190   63.6080 C   0  0  0  0  0  0  0  0  0  0  0  0
    2.3070   68.2920   62.9160 C   0  0  0  0  0  0  0  0  0  0  0  0
    3.4020   68.8240   63.5990 C   0  0  0  0  0  0  0  0  0  0  0  0
   -0.8329   62.6645   72.4874 H   0  0  0  0  0  0  0  0  0  0  0  0
   -1.6948   63.1525   70.9889 H   0  0  0  0  0  0  0  0  0  0  0  0
   -0.6505   61.6910   70.9889 H   0  0  0  0  0  0  0  0  0  0  0  0
    1.8355   61.9382   71.2203 H   0  0  0  0  0  0  0  0  0  0  0  0
    3.4418   65.6990   69.8212 H   0  0  0  0  0  0  0  0  0  0  0  0
   -0.7851   65.3235   70.6312 H   0  0  0  0  0  0  0  0  0  0  0  0
    4.6042   63.2060   69.5613 H   0  0  0  0  0  0  0  0  0  0  0  0
    4.7864   63.7989   71.2692 H   0  0  0  0  0  0  0  0  0  0  0  0
    3.3354   61.2004   70.6913 H   0  0  0  0  0  0  0  0  0  0  0  0
    5.1397   61.2593   70.7648 H   0  0  0  0  0  0  0  0  0  0  0  0
    4.8128   62.1991   73.1879 H   0  0  0  0  0  0  0  0  0  0  0  0
    2.6125   62.6586   75.6016 H   0  0  0  0  0  0  0  0  0  0  0  0
    2.9927   63.3904   73.9902 H   0  0  0  0  0  0  0  0  0  0  0  0
    0.9957   64.3478   75.3292 H   0  0  0  0  0  0  0  0  0  0  0  0
    0.7735   63.9193   73.5577 H   0  0  0  0  0  0  0  0  0  0  0  0
   -0.8094   63.1251   75.7731 H   0  0  0  0  0  0  0  0  0  0  0  0
   -0.9119   62.6380   74.0108 H   0  0  0  0  0  0  0  0  0  0  0  0
    0.4993   61.1998   76.2782 H   0  0  0  0  0  0  0  0  0  0  0  0
   -0.8617   60.6263   75.2413 H   0  0  0  0  0  0  0  0  0  0  0  0
    4.6252   59.4331   71.2483 H   0  0  0  0  0  0  0  0  0  0  0  0
    4.1723   57.1114   70.4895 H   0  0  0  0  0  0  0  0  0  0  0  0
    2.1409   55.9166   71.3080 H   0  0  0  0  0  0  0  0  0  0  0  0
    0.5923   57.0550   72.8796 H   0  0  0  0  0  0  0  0  0  0  0  0
    0.1648   67.4711   70.2594 H   0  0  0  0  0  0  0  0  0  0  0  0
    1.9636   67.6917   70.2253 H   0  0  0  0  0  0  0  0  0  0  0  0
    1.9391   66.8119   67.8614 H   0  0  0  0  0  0  0  0  0  0  0  0
    0.1255   66.8944   67.9394 H   0  0  0  0  0  0  0  0  0  0  0  0
    0.4069   69.4332   68.2471 H   0  0  0  0  0  0  0  0  0  0  0  0
    2.4085   70.4982   69.3980 H   0  0  0  0  0  0  0  0  0  0  0  0
    3.5645   69.1116   69.6884 H   0  0  0  0  0  0  0  0  0  0  0  0
    4.2336   72.0195   69.1191 H   0  0  0  0  0  0  0  0  0  0  0  0
    4.5938   71.0490   70.5935 H   0  0  0  0  0  0  0  0  0  0  0  0
    6.6054   71.2545   69.1955 H   0  0  0  0  0  0  0  0  0  0  0  0
    6.0333   69.5486   69.2289 H   0  0  0  0  0  0  0  0  0  0  0  0
    5.7040   71.6160   67.0176 H   0  0  0  0  0  0  0  0  0  0  0  0
    6.5506   69.9966   66.9786 H   0  0  0  0  0  0  0  0  0  0  0  0
    0.1485   68.0576   65.5241 H   0  0  0  0  0  0  0  0  0  0  0  0
    0.2647   67.6065   63.0815 H   0  0  0  0  0  0  0  0  0  0  0  0
    2.3717   68.0910   61.8365 H   0  0  0  0  0  0  0  0  0  0  0  0
    4.3237   69.0413   63.0393 H   0  0  0  0  0  0  0  0  0  0  0  0
  2  1  1  0
  3  2  2  0
  4  3  1  0
  5  4  2  0
  6  5  1  0
  7  2  1  0
  7  6  2  0
  8  4  1  0
  9  8  1  0
 10  9  1  0
 11 10  1  0
 12 11  1  0
 13 12  1  0
 14 13  1  0
 15 14  1  0
 16 15  1  0
 17 16  1  0
 17 12  2  0
 18 17  1  0
 19 18  2  0
 20 19  1  0
 20 11  2  0
 21 20  1  0
 22 21  2  0
 23 22  1  0
 24 19  1  0
 24 23  2  0
 25  6  1  0
 26 25  1  0
 27 26  1  0
 28 27  1  0
 29 28  1  0
 30 29  1  0
 31 30  1  0
 32 31  1  0
 33 32  1  0
 34 33  1  0
 34 29  2  0
 35 34  1  0
 36 35  2  0
 37 36  1  0
 37 28  2  0
 38 37  1  0
 39 38  2  0
 40 39  1  0
 41 36  1  0
 41 40  2  0
  1 42  1  0
  1 43  1  0
  1 44  1  0
  3 45  1  0
  5 46  1  0
  7 47  1  0
  8 48  1  0
  8 49  1  0
  9 50  1  0
  9 51  1  0
 10 52  1  0
 13 53  1  0
 13 54  1  0
 14 55  1  0
 14 56  1  0
 15 57  1  0
 15 58  1  0
 16 59  1  0
 16 60  1  0
 21 61  1  0
 22 62  1  0
 23 63  1  0
 24 64  1  0
 25 65  1  0
 25 66  1  0
 26 67  1  0
 26 68  1  0
 27 69  1  0
 30 70  1  0
 30 71  1  0
 31 72  1  0
 31 73  1  0
 32 74  1  0
 32 75  1  0
 33 76  1  0
 33 77  1  0
 38 78  1  0
 39 79  1  0
 40 80  1  0
 41 81  1  0
M  END
>  <score>  (8) 
-12.117

$$$$
=
     RDKit          3D

 81 87  0  0  0  0  0  0  0  0999 V2000
    4.1440   63.4550   70.2640 C   0  0  0  0  0  0  0  0  0  0  0  0
    2.7810   63.9760   70.6180 C   0  0  0  0  0  0  0  0  0  0  0  0
    2.0340   63.3690   71.6360 C   0  0  0  0  0  0  0  0  0  0  0  0
    0.7720   63.8650   71.9900 C   0  0  0  0  0  0  0  0  0  0  0  0
    0.2760   65.0000   71.3340 C   0  0  0  0  0  0  0  0  0  0  0  0
    1.0110   65.6210   70.3180 C   0  0  0  0  0  0  0  0  0  0  0  0
    2.2650   65.1040   69.9690 C   0  0  0  0  0  0  0  0  0  0  0  0
   -0.0700   63.1560   73.0270 C   0  0  0  0  0  0  0  0  0  0  0  0
   -0.5590   61.7820   72.5390 C   0  0  0  0  0  0  0  0  0  0  0  0
   -0.8370   60.8860   73.6800 N   0  0  0  0  0  0  0  0  0  0  0  0
    0.3310   60.6880   74.4730 C   0  0  0  0  0  0  0  0  0  0  0  0
    1.4600   60.0970   73.8890 C   0  0  0  0  0  0  0  0  0  0  0  0
    1.4880   59.4850   72.5140 C   0  0  0  0  0  0  0  0  0  0  0  0
    2.7790   59.8420   71.7690 C   0  0  0  0  0  0  0  0  0  0  0  0
    4.0500   59.7930   72.6310 C   0  0  0  0  0  0  0  0  0  0  0  0
    3.8160   59.3040   74.0590 C   0  0  0  0  0  0  0  0  0  0  0  0
    2.6140   59.9850   74.6620 C   0  0  0  0  0  0  0  0  0  0  0  0
    2.7130   60.4220   75.9340 N   0  0  0  0  0  0  0  0  0  0  0  0
    1.6390   60.9960   76.4930 C   0  0  0  0  0  0  0  0  0  0  0  0
    0.4110   61.1680   75.8160 C   0  0  0  0  0  0  0  0  0  0  0  0
   -0.6540   61.7970   76.5140 C   0  0  0  0  0  0  0  0  0  0  0  0
   -0.5110   62.2270   77.8340 C   0  0  0  0  0  0  0  0  0  0  0  0
    0.7000   62.0480   78.4820 C   0  0  0  0  0  0  0  0  0  0  0  0
    1.7570   61.4390   77.8050 C   0  0  0  0  0  0  0  0  0  0  0  0
    0.4390   66.8110   69.5820 C   0  0  0  0  0  0  0  0  0  0  0  0
    1.2560   67.1460   68.3310 C   0  0  0  0  0  0  0  0  0  0  0  0
    1.2360   68.5900   68.0200 N   0  0  0  0  0  0  0  0  0  0  0  0
    2.3030   68.9980   67.1620 C   0  0  0  0  0  0  0  0  0  0  0  0
    3.4190   69.6340   67.7400 C   0  0  0  0  0  0  0  0  0  0  0  0
    3.4640   69.9560   69.2150 C   0  0  0  0  0  0  0  0  0  0  0  0
    4.5400   70.9740   69.5890 C   0  0  0  0  0  0  0  0  0  0  0  0
    5.8640   70.6030   68.9380 C   0  0  0  0  0  0  0  0  0  0  0  0
    5.7240   70.6450   67.4200 C   0  0  0  0  0  0  0  0  0  0  0  0
    4.4970   69.9370   66.9070 C   0  0  0  0  0  0  0  0  0  0  0  0
    4.4980   69.6810   65.5770 N   0  0  0  0  0  0  0  0  0  0  0  0
    3.4170   69.1210   65.0200 C   0  0  0  0  0  0  0  0  0  0  0  0
    2.2720   68.7590   65.7570 C   0  0  0  0  0  0  0  0  0  0  0  0
    1.1710   68.1990   65.0570 C   0  0  0  0  0  0  0  0  0  0  0  0
    1.2140   67.9880   63.6790 C   0  0  0  0  0  0  0  0  0  0  0  0
    2.3540   68.3340   62.9730 C   0  0  0  0  0  0  0  0  0  0  0  0
    3.4380   68.8980   63.6490 C   0  0  0  0  0  0  0  0  0  0  0  0
    4.7052   63.2405   71.1854 H   0  0  0  0  0  0  0  0  0  0  0  0
    4.0420   62.5325   69.6736 H   0  0  0  0  0  0  0  0  0  0  0  0
    4.6833   64.2104   69.6736 H   0  0  0  0  0  0  0  0  0  0  0  0
    2.4423   62.4940   72.1629 H   0  0  0  0  0  0  0  0  0  0  0  0
   -0.7042   65.4080   71.6217 H   0  0  0  0  0  0  0  0  0  0  0  0
    2.8515   65.5901   69.1754 H   0  0  0  0  0  0  0  0  0  0  0  0
    0.5327   63.0149   73.9363 H   0  0  0  0  0  0  0  0  0  0  0  0
   -0.9552   63.7781   73.2255 H   0  0  0  0  0  0  0  0  0  0  0  0
   -1.4801   61.9149   71.9526 H   0  0  0  0  0  0  0  0  0  0  0  0
    0.2286   61.3283   71.9194 H   0  0  0  0  0  0  0  0  0  0  0  0
   -1.7540   60.4603   73.8768 H   0  0  0  0  0  0  0  0  0  0  0  0
    1.4197   58.3911   72.6077 H   0  0  0  0  0  0  0  0  0  0  0  0
    0.6368   59.8817   71.9412 H   0  0  0  0  0  0  0  0  0  0  0  0
    2.9017   59.1336   70.9365 H   0  0  0  0  0  0  0  0  0  0  0  0
    2.6684   60.8846   71.4361 H   0  0  0  0  0  0  0  0  0  0  0  0
    4.7696   59.1159   72.1475 H   0  0  0  0  0  0  0  0  0  0  0  0
    4.4226   60.8252   72.7060 H   0  0  0  0  0  0  0  0  0  0  0  0
    3.6472   58.2171   74.0460 H   0  0  0  0  0  0  0  0  0  0  0  0
    4.7015   59.5440   74.6659 H   0  0  0  0  0  0  0  0  0  0  0  0
   -1.6154   61.9490   76.0015 H   0  0  0  0  0  0  0  0  0  0  0  0
   -1.3535   62.7044   78.3558 H   0  0  0  0  0  0  0  0  0  0  0  0
    0.8273   62.3833   79.5219 H   0  0  0  0  0  0  0  0  0  0  0  0
    2.7159   61.3050   78.3271 H   0  0  0  0  0  0  0  0  0  0  0  0
   -0.5946   66.5826   69.2828 H   0  0  0  0  0  0  0  0  0  0  0  0
    0.4700   67.6798   70.2560 H   0  0  0  0  0  0  0  0  0  0  0  0
    2.2979   66.8335   68.4945 H   0  0  0  0  0  0  0  0  0  0  0  0
    0.8057   66.6119   67.4813 H   0  0  0  0  0  0  0  0  0  0  0  0
    0.5237   69.2381   68.3854 H   0  0  0  0  0  0  0  0  0  0  0  0
    2.4851   70.3604   69.5122 H   0  0  0  0  0  0  0  0  0  0  0  0
    3.7092   69.0214   69.7406 H   0  0  0  0  0  0  0  0  0  0  0  0
    4.2321   71.9717   69.2430 H   0  0  0  0  0  0  0  0  0  0  0  0
    4.6661   70.9775   70.6817 H   0  0  0  0  0  0  0  0  0  0  0  0
    6.6386   71.3177   69.2530 H   0  0  0  0  0  0  0  0  0  0  0  0
    6.1486   69.5867   69.2481 H   0  0  0  0  0  0  0  0  0  0  0  0
    5.6754   71.6976   67.1044 H   0  0  0  0  0  0  0  0  0  0  0  0
    6.5965   70.1221   67.0013 H   0  0  0  0  0  0  0  0  0  0  0  0
    0.2631   67.9252   65.6144 H   0  0  0  0  0  0  0  0  0  0  0  0
    0.3499   67.5506   63.1575 H   0  0  0  0  0  0  0  0  0  0  0  0
    2.4053   68.1657   61.8872 H   0  0  0  0  0  0  0  0  0  0  0  0
    4.3367   69.1743   63.0780 H   0  0  0  0  0  0  0  0  0  0  0  0
  2  1  1  0
  3  2  2  0
  4  3  1  0
  5  4  2  0
  6  5  1  0
  7  2  1  0
  7  6  2  0
  8  4  1  0
  9  8  1  0
 10  9  1  0
 11 10  1  0
 12 11  1  0
 13 12  1  0
 14 13  1  0
 15 14  1  0
 16 15  1  0
 17 16  1  0
 17 12  2  0
 18 17  1  0
 19 18  2  0
 20 19  1  0
 20 11  2  0
 21 20  1  0
 22 21  2  0
 23 22  1  0
 24 19  1  0
 24 23  2  0
 25  6  1  0
 26 25  1  0
 27 26  1  0
 28 27  1  0
 29 28  1  0
 30 29  1  0
 31 30  1  0
 32 31  1  0
 33 32  1  0
 34 33  1  0
 34 29  2  0
 35 34  1  0
 36 35  2  0
 37 36  1  0
 37 28  2  0
 38 37  1  0
 39 38  2  0
 40 39  1  0
 41 36  1  0
 41 40  2  0
  1 42  1  0
  1 43  1  0
  1 44  1  0
  3 45  1  0
  5 46  1  0
  7 47  1  0
  8 48  1  0
  8 49  1  0
  9 50  1  0
  9 51  1  0
 10 52  1  0
 13 53  1  0
 13 54  1  0
 14 55  1  0
 14 56  1  0
 15 57  1  0
 15 58  1  0
 16 59  1  0
 16 60  1  0
 21 61  1  0
 22 62  1  0
 23 63  1  0
 24 64  1  0
 25 65  1  0
 25 66  1  0
 26 67  1  0
 26 68  1  0
 27 69  1  0
 30 70  1  0
 30 71  1  0
 31 72  1  0
 31 73  1  0
 32 74  1  0
 32 75  1  0
 33 76  1  0
 33 77  1  0
 38 78  1  0
 39 79  1  0
 40 80  1  0
 41 81  1  0
M  END
>  <score>  (9) 
-12.056

$$$$
