=
     RDKit          3D

 18 19  0  0  0  0  0  0  0  0999 V2000
    5.3460   70.4580   67.1700 C   0  0  0  0  0  0  0  0  0  0  0  0
    6.0450   70.2500   65.9760 C   0  0  0  0  0  0  0  0  0  0  0  0
    5.4380   69.5150   64.9510 C   0  0  0  0  0  0  0  0  0  0  0  0
    4.1500   68.9950   65.1170 C   0  0  0  0  0  0  0  0  0  0  0  0
    3.4660   69.2120   66.3150 C   0  0  0  0  0  0  0  0  0  0  0  0
    4.0700   69.9460   67.3420 C   0  0  0  0  0  0  0  0  0  0  0  0
    3.2200   70.0800   68.5270 C   0  0  0  0  0  0  0  0  0  0  0  0
    3.5260   70.6710   69.5430 O   0  0  0  0  0  0  0  0  0  0  0  0
    1.6810   69.2660   68.2910 S   0  0  0  0  0  0  0  0  0  0  0  0
    2.0890   68.7070   66.6070 C   0  0  0  0  0  0  0  0  0  0  0  0
    5.8660   72.4460   68.1590 O   0  0  0  0  0  1  0  0  0  0  0  0
    5.9850   71.2160   68.2150 N   0  0  0  0  0  4  0  0  0  0  0  0
    6.6620   70.5760   69.0290 O   0  0  0  0  0  0  0  0  0  0  0  0
    7.0578   70.6585   65.8445 H   0  0  0  0  0  0  0  0  0  0  0  0
    5.9779   69.3450   64.0078 H   0  0  0  0  0  0  0  0  0  0  0  0
    3.6783   68.4180   64.3079 H   0  0  0  0  0  0  0  0  0  0  0  0
    2.0681   67.6084   66.5556 H   0  0  0  0  0  0  0  0  0  0  0  0
    1.3618   69.0868   65.8742 H   0  0  0  0  0  0  0  0  0  0  0  0
  2  1  2  0
  3  2  1  0
  4  3  2  0
  5  4  1  0
  6  5  2  0
  6  1  1  0
  7  6  1  0
  8  7  2  0
  9  7  1  0
 10  9  1  0
 10  5  1  0
 12  1  1  0
 12 11  1  0
 13 12  2  0
  2 14  1  0
  3 15  1  0
  4 16  1  0
 10 17  1  0
 10 18  1  0
M  CHG  2  11  -1  12   1
M  END
>  <score>  (1) 
-7.781

$$$$
=
     RDKit          3D

 18 19  0  0  0  0  0  0  0  0999 V2000
    2.8860   69.3420   66.9900 C   0  0  0  0  0  0  0  0  0  0  0  0
    2.6850   68.8660   65.6900 C   0  0  0  0  0  0  0  0  0  0  0  0
    3.7320   68.9480   64.7650 C   0  0  0  0  0  0  0  0  0  0  0  0
    4.9650   69.4980   65.1360 C   0  0  0  0  0  0  0  0  0  0  0  0
    5.1490   69.9670   66.4380 C   0  0  0  0  0  0  0  0  0  0  0  0
    4.1040   69.8870   67.3640 C   0  0  0  0  0  0  0  0  0  0  0  0
    4.4600   70.4220   68.6800 C   0  0  0  0  0  0  0  0  0  0  0  0
    3.7210   70.4610   69.6430 O   0  0  0  0  0  0  0  0  0  0  0  0
    6.1160   71.0090   68.6900 S   0  0  0  0  0  0  0  0  0  0  0  0
    6.4170   70.5730   66.9480 C   0  0  0  0  0  0  0  0  0  0  0  0
    1.6690   68.1740   68.5260 O   0  0  0  0  0  1  0  0  0  0  0  0
    1.7980   69.2500   67.9290 N   0  0  0  0  0  4  0  0  0  0  0  0
    1.0400   70.2260   67.9970 O   0  0  0  0  0  0  0  0  0  0  0  0
    1.7167   68.4329   65.3987 H   0  0  0  0  0  0  0  0  0  0  0  0
    3.5853   68.5779   63.7396 H   0  0  0  0  0  0  0  0  0  0  0  0
    5.7847   69.5603   64.4051 H   0  0  0  0  0  0  0  0  0  0  0  0
    6.6679   71.4737   66.3685 H   0  0  0  0  0  0  0  0  0  0  0  0
    7.2597   69.8724   66.8527 H   0  0  0  0  0  0  0  0  0  0  0  0
  2  1  2  0
  3  2  1  0
  4  3  2  0
  5  4  1  0
  6  5  2  0
  6  1  1  0
  7  6  1  0
  8  7  2  0
  9  7  1  0
 10  9  1  0
 10  5  1  0
 12  1  1  0
 12 11  1  0
 13 12  2  0
  2 14  1  0
  3 15  1  0
  4 16  1  0
 10 17  1  0
 10 18  1  0
M  CHG  2  11  -1  12   1
M  END
>  <score>  (2) 
-7.687

$$$$
=
     RDKit          3D

 18 19  0  0  0  0  0  0  0  0999 V2000
    1.5920   68.6080   65.9740 C   0  0  0  0  0  0  0  0  0  0  0  0
    2.2140   69.0380   67.1510 C   0  0  0  0  0  0  0  0  0  0  0  0
    3.5360   69.4930   67.0960 C   0  0  0  0  0  0  0  0  0  0  0  0
    4.2280   69.5180   65.8800 C   0  0  0  0  0  0  0  0  0  0  0  0
    3.5920   69.0850   64.7140 C   0  0  0  0  0  0  0  0  0  0  0  0
    2.2710   68.6300   64.7660 C   0  0  0  0  0  0  0  0  0  0  0  0
    1.7560   68.2140   63.4600 C   0  0  0  0  0  0  0  0  0  0  0  0
    0.6390   67.7840   63.2530 O   0  0  0  0  0  0  0  0  0  0  0  0
    2.9740   68.4190   62.2110 S   0  0  0  0  0  0  0  0  0  0  0  0
    4.2290   69.0660   63.3610 C   0  0  0  0  0  0  0  0  0  0  0  0
   -0.6540   69.0040   65.9720 O   0  0  0  0  0  1  0  0  0  0  0  0
    0.2310   68.1420   66.0480 N   0  0  0  0  0  4  0  0  0  0  0  0
    0.0690   66.9350   66.2610 O   0  0  0  0  0  0  0  0  0  0  0  0
    1.6708   69.0186   68.1073 H   0  0  0  0  0  0  0  0  0  0  0  0
    4.0350   69.8335   68.0153 H   0  0  0  0  0  0  0  0  0  0  0  0
    5.2672   69.8767   65.8424 H   0  0  0  0  0  0  0  0  0  0  0  0
    5.1135   68.4121   63.3661 H   0  0  0  0  0  0  0  0  0  0  0  0
    4.5625   70.0710   63.0631 H   0  0  0  0  0  0  0  0  0  0  0  0
  2  1  2  0
  3  2  1  0
  4  3  2  0
  5  4  1  0
  6  5  2  0
  6  1  1  0
  7  6  1  0
  8  7  2  0
  9  7  1  0
 10  9  1  0
 10  5  1  0
 12  1  1  0
 12 11  1  0
 13 12  2  0
  2 14  1  0
  3 15  1  0
  4 16  1  0
 10 17  1  0
 10 18  1  0
M  CHG  2  11  -1  12   1
M  END
>  <score>  (3) 
-7.386

$$$$
=
     RDKit          3D

 18 19  0  0  0  0  0  0  0  0999 V2000
    4.7440   70.5720   68.1070 C   0  0  0  0  0  0  0  0  0  0  0  0
    3.8500   70.5030   69.1810 C   0  0  0  0  0  0  0  0  0  0  0  0
    2.6400   69.8200   69.0180 C   0  0  0  0  0  0  0  0  0  0  0  0
    2.3270   69.2120   67.7960 C   0  0  0  0  0  0  0  0  0  0  0  0
    3.2310   69.2900   66.7340 C   0  0  0  0  0  0  0  0  0  0  0  0
    4.4410   69.9730   66.8950 C   0  0  0  0  0  0  0  0  0  0  0  0
    5.2710   69.9600   65.6880 C   0  0  0  0  0  0  0  0  0  0  0  0
    6.3620   70.4850   65.5850 O   0  0  0  0  0  0  0  0  0  0  0  0
    4.4800   69.0790   64.3910 S   0  0  0  0  0  0  0  0  0  0  0  0
    3.0070   68.6830   65.3860 C   0  0  0  0  0  0  0  0  0  0  0  0
    6.9370   70.6220   68.7310 O   0  0  0  0  0  1  0  0  0  0  0  0
    5.9850   71.2790   68.2920 N   0  0  0  0  0  4  0  0  0  0  0  0
    5.9670   72.4960   68.0720 O   0  0  0  0  0  0  0  0  0  0  0  0
    4.0954   70.9798   70.1414 H   0  0  0  0  0  0  0  0  0  0  0  0
    1.9295   69.7602   69.8556 H   0  0  0  0  0  0  0  0  0  0  0  0
    1.3744   68.6759   67.6731 H   0  0  0  0  0  0  0  0  0  0  0  0
    2.1073   69.1119   64.9206 H   0  0  0  0  0  0  0  0  0  0  0  0
    2.8560   67.5958   65.4588 H   0  0  0  0  0  0  0  0  0  0  0  0
  2  1  2  0
  3  2  1  0
  4  3  2  0
  5  4  1  0
  6  5  2  0
  6  1  1  0
  7  6  1  0
  8  7  2  0
  9  7  1  0
 10  9  1  0
 10  5  1  0
 12  1  1  0
 12 11  1  0
 13 12  2  0
  2 14  1  0
  3 15  1  0
  4 16  1  0
 10 17  1  0
 10 18  1  0
M  CHG  2  11  -1  12   1
M  END
>  <score>  (4) 
-7.329

$$$$
=
     RDKit          3D

 18 19  0  0  0  0  0  0  0  0999 V2000
    3.7390   68.7160   63.5200 C   0  0  0  0  0  0  0  0  0  0  0  0
    5.0220   69.2430   63.6970 C   0  0  0  0  0  0  0  0  0  0  0  0
    5.3950   69.7210   64.9580 C   0  0  0  0  0  0  0  0  0  0  0  0
    4.4960   69.6710   66.0300 C   0  0  0  0  0  0  0  0  0  0  0  0
    3.2190   69.1410   65.8360 C   0  0  0  0  0  0  0  0  0  0  0  0
    2.8430   68.6640   64.5760 C   0  0  0  0  0  0  0  0  0  0  0  0
    1.4750   68.1440   64.5440 C   0  0  0  0  0  0  0  0  0  0  0  0
    0.9270   67.6770   63.5650 O   0  0  0  0  0  0  0  0  0  0  0  0
    0.7140   68.2810   66.1210 S   0  0  0  0  0  0  0  0  0  0  0  0
    2.1750   69.0370   66.9030 C   0  0  0  0  0  0  0  0  0  0  0  0
    3.7420   67.0850   61.9250 O   0  0  0  0  0  1  0  0  0  0  0  0
    3.3710   68.2290   62.2150 N   0  0  0  0  0  4  0  0  0  0  0  0
    2.7880   69.0270   61.4700 O   0  0  0  0  0  0  0  0  0  0  0  0
    5.7293   69.2813   62.8554 H   0  0  0  0  0  0  0  0  0  0  0  0
    6.4014   70.1389   65.1081 H   0  0  0  0  0  0  0  0  0  0  0  0
    4.7941   70.0472   67.0197 H   0  0  0  0  0  0  0  0  0  0  0  0
    1.9254   70.0361   67.2897 H   0  0  0  0  0  0  0  0  0  0  0  0
    2.5304   68.4335   67.7512 H   0  0  0  0  0  0  0  0  0  0  0  0
  2  1  2  0
  3  2  1  0
  4  3  2  0
  5  4  1  0
  6  5  2  0
  6  1  1  0
  7  6  1  0
  8  7  2  0
  9  7  1  0
 10  9  1  0
 10  5  1  0
 12  1  1  0
 12 11  1  0
 13 12  2  0
  2 14  1  0
  3 15  1  0
  4 16  1  0
 10 17  1  0
 10 18  1  0
M  CHG  2  11  -1  12   1
M  END
>  <score>  (5) 
-7.322

$$$$
=
     RDKit          3D

 18 19  0  0  0  0  0  0  0  0999 V2000
    2.5680   68.6130   65.4700 C   0  0  0  0  0  0  0  0  0  0  0  0
    3.9590   68.7290   65.5630 C   0  0  0  0  0  0  0  0  0  0  0  0
    4.7070   68.9110   64.3940 C   0  0  0  0  0  0  0  0  0  0  0  0
    4.0730   68.9780   63.1480 C   0  0  0  0  0  0  0  0  0  0  0  0
    2.6830   68.8610   63.0740 C   0  0  0  0  0  0  0  0  0  0  0  0
    1.9330   68.6780   64.2400 C   0  0  0  0  0  0  0  0  0  0  0  0
    0.4950   68.5740   63.9860 C   0  0  0  0  0  0  0  0  0  0  0  0
   -0.3560   68.4130   64.8390 O   0  0  0  0  0  0  0  0  0  0  0  0
    0.1490   68.7130   62.2700 S   0  0  0  0  0  0  0  0  0  0  0  0
    1.8970   68.9150   61.8030 C   0  0  0  0  0  0  0  0  0  0  0  0
    1.5560   67.2580   67.0000 O   0  0  0  0  0  1  0  0  0  0  0  0
    1.8130   68.4250   66.6820 N   0  0  0  0  0  4  0  0  0  0  0  0
    1.4210   69.4500   67.2540 O   0  0  0  0  0  0  0  0  0  0  0  0
    4.4583   68.6779   66.5418 H   0  0  0  0  0  0  0  0  0  0  0  0
    5.8015   69.0021   64.4550 H   0  0  0  0  0  0  0  0  0  0  0  0
    4.6657   69.1219   62.2326 H   0  0  0  0  0  0  0  0  0  0  0  0
    2.2070   68.1026   61.1293 H   0  0  0  0  0  0  0  0  0  0  0  0
    2.0608   69.8649   61.2731 H   0  0  0  0  0  0  0  0  0  0  0  0
  2  1  2  0
  3  2  1  0
  4  3  2  0
  5  4  1  0
  6  5  2  0
  6  1  1  0
  7  6  1  0
  8  7  2  0
  9  7  1  0
 10  9  1  0
 10  5  1  0
 12  1  1  0
 12 11  1  0
 13 12  2  0
  2 14  1  0
  3 15  1  0
  4 16  1  0
 10 17  1  0
 10 18  1  0
M  CHG  2  11  -1  12   1
M  END
>  <score>  (6) 
-6.427

$$$$
=
     RDKit          3D

 18 19  0  0  0  0  0  0  0  0999 V2000
    3.6790   61.7640   70.5600 C   0  0  0  0  0  0  0  0  0  0  0  0
    3.8550   63.0410   70.0170 C   0  0  0  0  0  0  0  0  0  0  0  0
    2.9070   64.0340   70.2870 C   0  0  0  0  0  0  0  0  0  0  0  0
    1.7970   63.7540   71.0920 C   0  0  0  0  0  0  0  0  0  0  0  0
    1.6360   62.4750   71.6270 C   0  0  0  0  0  0  0  0  0  0  0  0
    2.5810   61.4800   71.3580 C   0  0  0  0  0  0  0  0  0  0  0  0
    2.2640   60.1990   71.9930 C   0  0  0  0  0  0  0  0  0  0  0  0
    2.9340   59.1900   71.9050 O   0  0  0  0  0  0  0  0  0  0  0  0
    0.7710   60.3080   72.9120 S   0  0  0  0  0  0  0  0  0  0  0  0
    0.4930   62.0590   72.4980 C   0  0  0  0  0  0  0  0  0  0  0  0
    5.6460   60.7070   71.0220 O   0  0  0  0  0  1  0  0  0  0  0  0
    4.6640   60.7540   70.2710 N   0  0  0  0  0  4  0  0  0  0  0  0
    4.4800   60.0760   69.2530 O   0  0  0  0  0  0  0  0  0  0  0  0
    4.7281   63.2619   69.3854 H   0  0  0  0  0  0  0  0  0  0  0  0
    3.0350   65.0412   69.8638 H   0  0  0  0  0  0  0  0  0  0  0  0
    1.0549   64.5383   71.3021 H   0  0  0  0  0  0  0  0  0  0  0  0
   -0.4584   62.1757   71.9583 H   0  0  0  0  0  0  0  0  0  0  0  0
    0.4374   62.6787   73.4051 H   0  0  0  0  0  0  0  0  0  0  0  0
  2  1  2  0
  3  2  1  0
  4  3  2  0
  5  4  1  0
  6  5  2  0
  6  1  1  0
  7  6  1  0
  8  7  2  0
  9  7  1  0
 10  9  1  0
 10  5  1  0
 12  1  1  0
 12 11  1  0
 13 12  2  0
  2 14  1  0
  3 15  1  0
  4 16  1  0
 10 17  1  0
 10 18  1  0
M  CHG  2  11  -1  12   1
M  END
>  <score>  (7) 
-6.167

$$$$
=
     RDKit          3D

 18 19  0  0  0  0  0  0  0  0999 V2000
    2.7340   62.5150   70.4190 C   0  0  0  0  0  0  0  0  0  0  0  0
    1.7320   63.4210   70.7830 C   0  0  0  0  0  0  0  0  0  0  0  0
    0.7590   63.0250   71.7070 C   0  0  0  0  0  0  0  0  0  0  0  0
    0.7870   61.7400   72.2620 C   0  0  0  0  0  0  0  0  0  0  0  0
    1.7950   60.8490   71.8880 C   0  0  0  0  0  0  0  0  0  0  0  0
    2.7690   61.2410   70.9640 C   0  0  0  0  0  0  0  0  0  0  0  0
    3.7500   60.1910   70.6820 C   0  0  0  0  0  0  0  0  0  0  0  0
    4.6860   60.2960   69.9160 O   0  0  0  0  0  0  0  0  0  0  0  0
    3.3960   58.7390   71.6050 S   0  0  0  0  0  0  0  0  0  0  0  0
    1.9280   59.4540   72.4110 C   0  0  0  0  0  0  0  0  0  0  0  0
    4.7590   63.4430   69.9280 O   0  0  0  0  0  1  0  0  0  0  0  0
    3.7280   62.9390   69.4670 N   0  0  0  0  0  4  0  0  0  0  0  0
    3.4280   62.8360   68.2710 O   0  0  0  0  0  0  0  0  0  0  0  0
    1.7095   64.4313   70.3485 H   0  0  0  0  0  0  0  0  0  0  0  0
   -0.0342   63.7287   71.9997 H   0  0  0  0  0  0  0  0  0  0  0  0
    0.0196   61.4341   72.9883 H   0  0  0  0  0  0  0  0  0  0  0  0
    1.0324   58.8668   72.1598 H   0  0  0  0  0  0  0  0  0  0  0  0
    2.0320   59.4474   73.5061 H   0  0  0  0  0  0  0  0  0  0  0  0
  2  1  2  0
  3  2  1  0
  4  3  2  0
  5  4  1  0
  6  5  2  0
  6  1  1  0
  7  6  1  0
  8  7  2  0
  9  7  1  0
 10  9  1  0
 10  5  1  0
 12  1  1  0
 12 11  1  0
 13 12  2  0
  2 14  1  0
  3 15  1  0
  4 16  1  0
 10 17  1  0
 10 18  1  0
M  CHG  2  11  -1  12   1
M  END
>  <score>  (8) 
-6.06

$$$$
=
     RDKit          3D

 18 19  0  0  0  0  0  0  0  0999 V2000
    1.4760   68.5370   64.6600 C   0  0  0  0  0  0  0  0  0  0  0  0
    0.1290   68.7690   64.3660 C   0  0  0  0  0  0  0  0  0  0  0  0
   -0.2470   69.0150   63.0400 C   0  0  0  0  0  0  0  0  0  0  0  0
    0.7120   69.0290   62.0210 C   0  0  0  0  0  0  0  0  0  0  0  0
    2.0540   68.7950   62.3320 C   0  0  0  0  0  0  0  0  0  0  0  0
    2.4320   68.5490   63.6560 C   0  0  0  0  0  0  0  0  0  0  0  0
    3.8710   68.3250   63.8090 C   0  0  0  0  0  0  0  0  0  0  0  0
    4.4340   68.0930   64.8600 O   0  0  0  0  0  0  0  0  0  0  0  0
    4.6910   68.4360   62.2600 S   0  0  0  0  0  0  0  0  0  0  0  0
    3.1650   68.7860   61.3310 C   0  0  0  0  0  0  0  0  0  0  0  0
    2.2120   69.2630   66.6930 O   0  0  0  0  0  1  0  0  0  0  0  0
    1.8460   68.2850   66.0290 N   0  0  0  0  0  4  0  0  0  0  0  0
    1.8420   67.1040   66.3950 O   0  0  0  0  0  0  0  0  0  0  0  0
   -0.6257   68.7584   65.1662 H   0  0  0  0  0  0  0  0  0  0  0  0
   -1.3041   69.1986   62.7974 H   0  0  0  0  0  0  0  0  0  0  0  0
    0.4110   69.2231   60.9809 H   0  0  0  0  0  0  0  0  0  0  0  0
    3.2378   69.7650   60.8347 H   0  0  0  0  0  0  0  0  0  0  0  0
    2.9918   68.0313   60.5497 H   0  0  0  0  0  0  0  0  0  0  0  0
  2  1  2  0
  3  2  1  0
  4  3  2  0
  5  4  1  0
  6  5  2  0
  6  1  1  0
  7  6  1  0
  8  7  2  0
  9  7  1  0
 10  9  1  0
 10  5  1  0
 12  1  1  0
 12 11  1  0
 13 12  2  0
  2 14  1  0
  3 15  1  0
  4 16  1  0
 10 17  1  0
 10 18  1  0
M  CHG  2  11  -1  12   1
M  END
>  <score>  (9) 
-6.037

$$$$
