=
     RDKit          3D

 32 32  0  0  0  0  0  0  0  0999 V2000
    2.3630   68.8600   66.2320 C   0  0  0  0  0  0  0  0  0  0  0  0
    2.2600   69.2590   67.5640 C   0  0  0  0  0  0  0  0  0  0  0  0
    3.3600   69.8500   68.1960 C   0  0  0  0  0  0  0  0  0  0  0  0
    4.5710   70.0610   67.5130 C   0  0  0  0  0  0  0  0  0  0  0  0
    4.6330   69.6620   66.1610 C   0  0  0  0  0  0  0  0  0  0  0  0
    3.5420   69.0720   65.5200 C   0  0  0  0  0  0  0  0  0  0  0  0
    5.7970   70.7120   68.1820 C   0  0  0  0  0  0  0  0  0  0  0  0
    5.8980   70.4440   69.7000 C   0  0  0  0  0  0  0  0  0  0  0  0
    7.0900   70.1690   67.5350 C   0  0  0  0  0  0  0  0  0  0  0  0
    5.7380   72.2430   67.9910 C   0  0  0  0  0  0  0  0  0  0  0  0
    0.9670   68.1140   65.4240 S   0  0  0  0  0  6  0  0  0  0  0  0
    1.1380   66.6760   65.4970 O   0  0  0  0  0  0  0  0  0  0  0  0
   -0.2290   68.7410   65.9520 O   0  0  0  0  0  0  0  0  0  0  0  0
    0.1170   69.1570   63.1600 C   0  0  0  0  0  0  0  0  0  0  0  0
    1.1730   68.6120   63.7810 C   0  0  0  0  0  0  0  0  0  0  0  0
    0.2750   69.9580   60.7180 N   0  0  0  0  0  0  0  0  0  0  0  0
    0.1940   69.5940   61.8140 C   0  0  0  0  0  0  0  0  0  0  0  0
    1.3196   69.1101   68.1149 H   0  0  0  0  0  0  0  0  0  0  0  0
    3.2755   70.1559   69.2492 H   0  0  0  0  0  0  0  0  0  0  0  0
    5.5646   69.8198   65.5977 H   0  0  0  0  0  0  0  0  0  0  0  0
    3.6124   68.7772   64.4626 H   0  0  0  0  0  0  0  0  0  0  0  0
    5.5626   71.3340   70.2526 H   0  0  0  0  0  0  0  0  0  0  0  0
    5.2612   69.5868   69.9642 H   0  0  0  0  0  0  0  0  0  0  0  0
    6.9421   70.2203   69.9642 H   0  0  0  0  0  0  0  0  0  0  0  0
    7.7975   69.8719   68.3231 H   0  0  0  0  0  0  0  0  0  0  0  0
    6.8489   69.2961   66.9105 H   0  0  0  0  0  0  0  0  0  0  0  0
    7.5444   70.9523   66.9105 H   0  0  0  0  0  0  0  0  0  0  0  0
    5.7190   72.7348   68.9748 H   0  0  0  0  0  0  0  0  0  0  0  0
    6.6239   72.5771   67.4311 H   0  0  0  0  0  0  0  0  0  0  0  0
    4.8290   72.5079   67.4311 H   0  0  0  0  0  0  0  0  0  0  0  0
   -0.8306   69.2674   63.7076 H   0  0  0  0  0  0  0  0  0  0  0  0
    2.1357   68.4862   63.2639 H   0  0  0  0  0  0  0  0  0  0  0  0
  2  1  2  0
  3  2  1  0
  4  3  2  0
  5  4  1  0
  6  5  2  0
  6  1  1  0
  7  4  1  0
  8  7  1  0
  9  7  1  0
 10  7  1  0
 11  1  1  0
 12 11  2  0
 13 11  2  0
 15 14  2  0
 15 11  1  0
 17 16  3  0
 17 14  1  0
  2 18  1  0
  3 19  1  0
  5 20  1  0
  6 21  1  0
  8 22  1  0
  8 23  1  0
  8 24  1  0
  9 25  1  0
  9 26  1  0
  9 27  1  0
 10 28  1  0
 10 29  1  0
 10 30  1  0
 14 31  1  0
 15 32  1  0
M  END
>  <score>  (1) 
-8.455

$$$$
=
     RDKit          3D

 32 32  0  0  0  0  0  0  0  0999 V2000
    3.7240   68.7970   65.0160 C   0  0  0  0  0  0  0  0  0  0  0  0
    5.0340   69.2430   64.8500 C   0  0  0  0  0  0  0  0  0  0  0  0
    5.6750   69.9140   65.8970 C   0  0  0  0  0  0  0  0  0  0  0  0
    5.0280   70.1420   67.1250 C   0  0  0  0  0  0  0  0  0  0  0  0
    3.7090   69.6610   67.2650 C   0  0  0  0  0  0  0  0  0  0  0  0
    3.0600   68.9890   66.2260 C   0  0  0  0  0  0  0  0  0  0  0  0
    5.7090   70.8750   68.2970 C   0  0  0  0  0  0  0  0  0  0  0  0
    7.1930   70.4940   68.4950 C   0  0  0  0  0  0  0  0  0  0  0  0
    5.6570   72.3990   68.0570 C   0  0  0  0  0  0  0  0  0  0  0  0
    4.9730   70.5420   69.6130 C   0  0  0  0  0  0  0  0  0  0  0  0
    2.9090   67.9400   63.6900 S   0  0  0  0  0  6  0  0  0  0  0  0
    1.6940   67.3590   64.2280 O   0  0  0  0  0  0  0  0  0  0  0  0
    2.8550   68.8420   62.5560 O   0  0  0  0  0  0  0  0  0  0  0  0
    3.8140   65.4780   63.9210 C   0  0  0  0  0  0  0  0  0  0  0  0
    4.0190   66.6630   63.3290 C   0  0  0  0  0  0  0  0  0  0  0  0
    5.3760   63.4800   63.4730 N   0  0  0  0  0  0  0  0  0  0  0  0
    4.6730   64.3750   63.6850 C   0  0  0  0  0  0  0  0  0  0  0  0
    5.5613   69.0683   63.9005 H   0  0  0  0  0  0  0  0  0  0  0  0
    6.7061   70.2706   65.7570 H   0  0  0  0  0  0  0  0  0  0  0  0
    3.1785   69.8189   68.2156 H   0  0  0  0  0  0  0  0  0  0  0  0
    2.0345   68.6150   66.3619 H   0  0  0  0  0  0  0  0  0  0  0  0
    7.4165   70.4366   69.5705 H   0  0  0  0  0  0  0  0  0  0  0  0
    7.3862   69.5171   68.0277 H   0  0  0  0  0  0  0  0  0  0  0  0
    7.8329   71.2570   68.0277 H   0  0  0  0  0  0  0  0  0  0  0  0
    5.6392   72.9221   69.0245 H   0  0  0  0  0  0  0  0  0  0  0  0
    6.5450   72.7111   67.4878 H   0  0  0  0  0  0  0  0  0  0  0  0
    4.7498   72.6498   67.4878 H   0  0  0  0  0  0  0  0  0  0  0  0
    5.6035   70.8273   70.4680 H   0  0  0  0  0  0  0  0  0  0  0  0
    4.0254   71.0990   69.6542 H   0  0  0  0  0  0  0  0  0  0  0  0
    4.7658   69.4625   69.6542 H   0  0  0  0  0  0  0  0  0  0  0  0
    2.9607   65.3587   64.6048 H   0  0  0  0  0  0  0  0  0  0  0  0
    4.8618   66.8178   62.6392 H   0  0  0  0  0  0  0  0  0  0  0  0
  2  1  2  0
  3  2  1  0
  4  3  2  0
  5  4  1  0
  6  5  2  0
  6  1  1  0
  7  4  1  0
  8  7  1  0
  9  7  1  0
 10  7  1  0
 11  1  1  0
 12 11  2  0
 13 11  2  0
 15 14  2  0
 15 11  1  0
 17 16  3  0
 17 14  1  0
  2 18  1  0
  3 19  1  0
  5 20  1  0
  6 21  1  0
  8 22  1  0
  8 23  1  0
  8 24  1  0
  9 25  1  0
  9 26  1  0
  9 27  1  0
 10 28  1  0
 10 29  1  0
 10 30  1  0
 14 31  1  0
 15 32  1  0
M  END
>  <score>  (2) 
-8.136

$$$$
=
     RDKit          3D

 32 32  0  0  0  0  0  0  0  0999 V2000
    3.6850   68.8050   64.0270 C   0  0  0  0  0  0  0  0  0  0  0  0
    4.5160   69.2530   65.0520 C   0  0  0  0  0  0  0  0  0  0  0  0
    3.9910   69.4480   66.3340 C   0  0  0  0  0  0  0  0  0  0  0  0
    2.6380   69.1920   66.6180 C   0  0  0  0  0  0  0  0  0  0  0  0
    1.8290   68.7220   65.5610 C   0  0  0  0  0  0  0  0  0  0  0  0
    2.3430   68.5240   64.2780 C   0  0  0  0  0  0  0  0  0  0  0  0
    2.0320   69.3940   68.0200 C   0  0  0  0  0  0  0  0  0  0  0  0
    0.7260   70.2190   68.0250 C   0  0  0  0  0  0  0  0  0  0  0  0
    1.7070   68.0210   68.6470 C   0  0  0  0  0  0  0  0  0  0  0  0
    3.0450   70.1360   68.9190 C   0  0  0  0  0  0  0  0  0  0  0  0
    4.3500   68.5510   62.3980 S   0  0  0  0  0  6  0  0  0  0  0  0
    3.3380   68.9660   61.4460 O   0  0  0  0  0  0  0  0  0  0  0  0
    5.6730   69.1410   62.3710 O   0  0  0  0  0  0  0  0  0  0  0  0
    4.3770   66.1440   63.4650 C   0  0  0  0  0  0  0  0  0  0  0  0
    4.5090   66.8310   62.3210 C   0  0  0  0  0  0  0  0  0  0  0  0
    4.5680   63.5760   63.5120 N   0  0  0  0  0  0  0  0  0  0  0  0
    4.4920   64.7310   63.4960 C   0  0  0  0  0  0  0  0  0  0  0  0
    5.5795   69.4523   64.8541 H   0  0  0  0  0  0  0  0  0  0  0  0
    4.6506   69.8092   67.1367 H   0  0  0  0  0  0  0  0  0  0  0  0
    0.7675   68.5064   65.7528 H   0  0  0  0  0  0  0  0  0  0  0  0
    1.6945   68.1495   63.4723 H   0  0  0  0  0  0  0  0  0  0  0  0
    0.4188   70.4130   69.0633 H   0  0  0  0  0  0  0  0  0  0  0  0
    0.8943   71.1751   67.5076 H   0  0  0  0  0  0  0  0  0  0  0  0
   -0.0651   69.6564   67.5076 H   0  0  0  0  0  0  0  0  0  0  0  0
    1.7268   68.1048   69.7436 H   0  0  0  0  0  0  0  0  0  0  0  0
    0.7073   67.6969   68.3220 H   0  0  0  0  0  0  0  0  0  0  0  0
    2.4553   67.2831   68.3220 H   0  0  0  0  0  0  0  0  0  0  0  0
    2.7985   69.9554   69.9757 H   0  0  0  0  0  0  0  0  0  0  0  0
    4.0598   69.7660   68.7108 H   0  0  0  0  0  0  0  0  0  0  0  0
    2.9983   71.2151   68.7108 H   0  0  0  0  0  0  0  0  0  0  0  0
    4.1752   66.6882   64.3994 H   0  0  0  0  0  0  0  0  0  0  0  0
    4.7110   66.3191   61.3685 H   0  0  0  0  0  0  0  0  0  0  0  0
  2  1  2  0
  3  2  1  0
  4  3  2  0
  5  4  1  0
  6  5  2  0
  6  1  1  0
  7  4  1  0
  8  7  1  0
  9  7  1  0
 10  7  1  0
 11  1  1  0
 12 11  2  0
 13 11  2  0
 15 14  2  0
 15 11  1  0
 17 16  3  0
 17 14  1  0
  2 18  1  0
  3 19  1  0
  5 20  1  0
  6 21  1  0
  8 22  1  0
  8 23  1  0
  8 24  1  0
  9 25  1  0
  9 26  1  0
  9 27  1  0
 10 28  1  0
 10 29  1  0
 10 30  1  0
 14 31  1  0
 15 32  1  0
M  END
>  <score>  (3) 
-8.018

$$$$
=
     RDKit          3D

 32 32  0  0  0  0  0  0  0  0999 V2000
    4.3430   68.7570   64.8020 C   0  0  0  0  0  0  0  0  0  0  0  0
    3.4500   68.9230   65.8580 C   0  0  0  0  0  0  0  0  0  0  0  0
    3.8630   69.5910   67.0160 C   0  0  0  0  0  0  0  0  0  0  0  0
    5.1650   70.1090   67.1370 C   0  0  0  0  0  0  0  0  0  0  0  0
    6.0370   69.9390   66.0410 C   0  0  0  0  0  0  0  0  0  0  0  0
    5.6340   69.2740   64.8810 C   0  0  0  0  0  0  0  0  0  0  0  0
    5.6470   70.8520   68.3980 C   0  0  0  0  0  0  0  0  0  0  0  0
    7.0700   70.4550   68.8520 C   0  0  0  0  0  0  0  0  0  0  0  0
    5.6610   72.3730   68.1310 C   0  0  0  0  0  0  0  0  0  0  0  0
    4.6920   70.5510   69.5730 C   0  0  0  0  0  0  0  0  0  0  0  0
    3.8200   67.9140   63.3270 S   0  0  0  0  0  6  0  0  0  0  0  0
    4.1070   68.7840   62.2030 O   0  0  0  0  0  0  0  0  0  0  0  0
    4.3630   66.5710   63.3770 O   0  0  0  0  0  0  0  0  0  0  0  0
    1.3600   68.7700   62.9420 C   0  0  0  0  0  0  0  0  0  0  0  0
    2.1050   67.8260   63.5330 C   0  0  0  0  0  0  0  0  0  0  0  0
   -1.2070   68.7640   63.1570 N   0  0  0  0  0  0  0  0  0  0  0  0
   -0.0530   68.7770   63.0560 C   0  0  0  0  0  0  0  0  0  0  0  0
    2.4251   68.5309   65.7819 H   0  0  0  0  0  0  0  0  0  0  0  0
    3.1549   69.7135   67.8488 H   0  0  0  0  0  0  0  0  0  0  0  0
    7.0595   70.3401   66.1017 H   0  0  0  0  0  0  0  0  0  0  0  0
    6.3301   69.1595   64.0370 H   0  0  0  0  0  0  0  0  0  0  0  0
    7.1142   70.4427   69.9510 H   0  0  0  0  0  0  0  0  0  0  0  0
    7.3130   69.4548   68.4640 H   0  0  0  0  0  0  0  0  0  0  0  0
    7.7957   71.1850   68.4640 H   0  0  0  0  0  0  0  0  0  0  0  0
    5.6660   72.9134   69.0891 H   0  0  0  0  0  0  0  0  0  0  0  0
    6.5616   72.6362   67.5569 H   0  0  0  0  0  0  0  0  0  0  0  0
    4.7654   72.6527   67.5569 H   0  0  0  0  0  0  0  0  0  0  0  0
    5.2180   70.7168   70.5247 H   0  0  0  0  0  0  0  0  0  0  0  0
    3.8188   71.2175   69.5157 H   0  0  0  0  0  0  0  0  0  0  0  0
    4.3587   69.5043   69.5157 H   0  0  0  0  0  0  0  0  0  0  0  0
    1.8560   69.5572   62.3552 H   0  0  0  0  0  0  0  0  0  0  0  0
    1.6427   67.0243   64.1275 H   0  0  0  0  0  0  0  0  0  0  0  0
  2  1  2  0
  3  2  1  0
  4  3  2  0
  5  4  1  0
  6  5  2  0
  6  1  1  0
  7  4  1  0
  8  7  1  0
  9  7  1  0
 10  7  1  0
 11  1  1  0
 12 11  2  0
 13 11  2  0
 15 14  2  0
 15 11  1  0
 17 16  3  0
 17 14  1  0
  2 18  1  0
  3 19  1  0
  5 20  1  0
  6 21  1  0
  8 22  1  0
  8 23  1  0
  8 24  1  0
  9 25  1  0
  9 26  1  0
  9 27  1  0
 10 28  1  0
 10 29  1  0
 10 30  1  0
 14 31  1  0
 15 32  1  0
M  END
>  <score>  (4) 
-7.873

$$$$
=
     RDKit          3D

 32 32  0  0  0  0  0  0  0  0999 V2000
    2.6480   68.7600   65.9110 C   0  0  0  0  0  0  0  0  0  0  0  0
    3.8980   68.9870   65.3370 C   0  0  0  0  0  0  0  0  0  0  0  0
    4.8890   69.6450   66.0730 C   0  0  0  0  0  0  0  0  0  0  0  0
    4.6570   70.0760   67.3910 C   0  0  0  0  0  0  0  0  0  0  0  0
    3.3870   69.8130   67.9480 C   0  0  0  0  0  0  0  0  0  0  0  0
    2.3910   69.1570   67.2220 C   0  0  0  0  0  0  0  0  0  0  0  0
    5.7300   70.7990   68.2280 C   0  0  0  0  0  0  0  0  0  0  0  0
    5.7300   72.3350   68.0540 C   0  0  0  0  0  0  0  0  0  0  0  0
    5.5010   70.5100   69.7270 C   0  0  0  0  0  0  0  0  0  0  0  0
    7.1310   70.2940   67.8210 C   0  0  0  0  0  0  0  0  0  0  0  0
    1.3880   67.9200   64.9810 S   0  0  0  0  0  6  0  0  0  0  0  0
    1.2820   68.5820   63.6950 O   0  0  0  0  0  0  0  0  0  0  0  0
    1.6650   66.4990   65.0570 O   0  0  0  0  0  0  0  0  0  0  0  0
   -0.6270   67.2300   66.5290 C   0  0  0  0  0  0  0  0  0  0  0  0
   -0.0410   68.2560   65.8950 C   0  0  0  0  0  0  0  0  0  0  0  0
   -2.7540   67.5480   67.9450 N   0  0  0  0  0  0  0  0  0  0  0  0
   -1.8020   67.4120   67.3010 C   0  0  0  0  0  0  0  0  0  0  0  0
    4.1040   68.6503   64.3103 H   0  0  0  0  0  0  0  0  0  0  0  0
    5.8702   69.8290   65.6110 H   0  0  0  0  0  0  0  0  0  0  0  0
    3.1768   70.1327   68.9793 H   0  0  0  0  0  0  0  0  0  0  0  0
    1.4118   68.9552   67.6808 H   0  0  0  0  0  0  0  0  0  0  0  0
    6.7671   72.6993   68.0127 H   0  0  0  0  0  0  0  0  0  0  0  0
    5.2115   72.5982   67.1203 H   0  0  0  0  0  0  0  0  0  0  0  0
    5.2115   72.8004   68.9052 H   0  0  0  0  0  0  0  0  0  0  0  0
    6.0720   71.2307   70.3308 H   0  0  0  0  0  0  0  0  0  0  0  0
    4.4299   70.6045   69.9592 H   0  0  0  0  0  0  0  0  0  0  0  0
    5.8378   69.4889   69.9592 H   0  0  0  0  0  0  0  0  0  0  0  0
    7.7209   70.0814   68.7247 H   0  0  0  0  0  0  0  0  0  0  0  0
    7.0306   69.3755   67.2241 H   0  0  0  0  0  0  0  0  0  0  0  0
    7.6397   71.0653   67.2241 H   0  0  0  0  0  0  0  0  0  0  0  0
   -0.1864   66.2253   66.4483 H   0  0  0  0  0  0  0  0  0  0  0  0
   -0.4540   69.2738   65.9541 H   0  0  0  0  0  0  0  0  0  0  0  0
  2  1  2  0
  3  2  1  0
  4  3  2  0
  5  4  1  0
  6  5  2  0
  6  1  1  0
  7  4  1  0
  8  7  1  0
  9  7  1  0
 10  7  1  0
 11  1  1  0
 12 11  2  0
 13 11  2  0
 15 14  2  0
 15 11  1  0
 17 16  3  0
 17 14  1  0
  2 18  1  0
  3 19  1  0
  5 20  1  0
  6 21  1  0
  8 22  1  0
  8 23  1  0
  8 24  1  0
  9 25  1  0
  9 26  1  0
  9 27  1  0
 10 28  1  0
 10 29  1  0
 10 30  1  0
 14 31  1  0
 15 32  1  0
M  END
>  <score>  (5) 
-7.828

$$$$
=
     RDKit          3D

 32 32  0  0  0  0  0  0  0  0999 V2000
    3.3050   68.6990   63.8180 C   0  0  0  0  0  0  0  0  0  0  0  0
    1.9290   68.4780   63.8420 C   0  0  0  0  0  0  0  0  0  0  0  0
    1.2290   68.5940   65.0480 C   0  0  0  0  0  0  0  0  0  0  0  0
    1.8840   68.9410   66.2430 C   0  0  0  0  0  0  0  0  0  0  0  0
    3.2740   69.1760   66.1790 C   0  0  0  0  0  0  0  0  0  0  0  0
    3.9820   69.0620   64.9810 C   0  0  0  0  0  0  0  0  0  0  0  0
    1.1400   69.0800   67.5850 C   0  0  0  0  0  0  0  0  0  0  0  0
    1.6640   70.2280   68.4760 C   0  0  0  0  0  0  0  0  0  0  0  0
   -0.3570   69.3530   67.3220 C   0  0  0  0  0  0  0  0  0  0  0  0
    1.2830   67.7720   68.3940 C   0  0  0  0  0  0  0  0  0  0  0  0
    4.1960   68.5570   62.2870 S   0  0  0  0  0  6  0  0  0  0  0  0
    3.2770   68.8900   61.2160 O   0  0  0  0  0  0  0  0  0  0  0  0
    5.4420   69.2810   62.4400 O   0  0  0  0  0  0  0  0  0  0  0  0
    4.3250   66.1360   63.3140 C   0  0  0  0  0  0  0  0  0  0  0  0
    4.5440   66.8650   62.2100 C   0  0  0  0  0  0  0  0  0  0  0  0
    4.7830   63.6020   63.3490 N   0  0  0  0  0  0  0  0  0  0  0  0
    4.5820   64.7420   63.3430 C   0  0  0  0  0  0  0  0  0  0  0  0
    1.3957   68.2136   62.9170 H   0  0  0  0  0  0  0  0  0  0  0  0
    0.1446   68.4101   65.0616 H   0  0  0  0  0  0  0  0  0  0  0  0
    3.8132   69.4560   67.0960 H   0  0  0  0  0  0  0  0  0  0  0  0
    5.0643   69.2569   64.9553 H   0  0  0  0  0  0  0  0  0  0  0  0
    1.5400   69.9563   69.5347 H   0  0  0  0  0  0  0  0  0  0  0  0
    2.7296   70.3996   68.2639 H   0  0  0  0  0  0  0  0  0  0  0  0
    1.0955   71.1455   68.2639 H   0  0  0  0  0  0  0  0  0  0  0  0
   -0.8862   69.4495   68.2815 H   0  0  0  0  0  0  0  0  0  0  0  0
   -0.4644   70.2856   66.7486 H   0  0  0  0  0  0  0  0  0  0  0  0
   -0.7867   68.5184   66.7486 H   0  0  0  0  0  0  0  0  0  0  0  0
    1.2579   68.0015   69.4695 H   0  0  0  0  0  0  0  0  0  0  0  0
    0.4536   67.0939   68.1443 H   0  0  0  0  0  0  0  0  0  0  0  0
    2.2393   67.2891   68.1443 H   0  0  0  0  0  0  0  0  0  0  0  0
    3.9374   66.6304   64.2170 H   0  0  0  0  0  0  0  0  0  0  0  0
    4.9308   66.4036   61.2894 H   0  0  0  0  0  0  0  0  0  0  0  0
  2  1  2  0
  3  2  1  0
  4  3  2  0
  5  4  1  0
  6  5  2  0
  6  1  1  0
  7  4  1  0
  8  7  1  0
  9  7  1  0
 10  7  1  0
 11  1  1  0
 12 11  2  0
 13 11  2  0
 15 14  2  0
 15 11  1  0
 17 16  3  0
 17 14  1  0
  2 18  1  0
  3 19  1  0
  5 20  1  0
  6 21  1  0
  8 22  1  0
  8 23  1  0
  8 24  1  0
  9 25  1  0
  9 26  1  0
  9 27  1  0
 10 28  1  0
 10 29  1  0
 10 30  1  0
 14 31  1  0
 15 32  1  0
M  END
>  <score>  (6) 
-7.819

$$$$
=
     RDKit          3D

 32 32  0  0  0  0  0  0  0  0999 V2000
    2.4360   69.0530   66.4380 C   0  0  0  0  0  0  0  0  0  0  0  0
    3.7630   69.4170   66.2160 C   0  0  0  0  0  0  0  0  0  0  0  0
    4.3320   69.2230   64.9530 C   0  0  0  0  0  0  0  0  0  0  0  0
    3.5900   68.6740   63.8920 C   0  0  0  0  0  0  0  0  0  0  0  0
    2.2450   68.3340   64.1470 C   0  0  0  0  0  0  0  0  0  0  0  0
    1.6660   68.5240   65.4040 C   0  0  0  0  0  0  0  0  0  0  0  0
    4.1890   68.4520   62.4900 C   0  0  0  0  0  0  0  0  0  0  0  0
    3.2490   68.8660   61.3350 C   0  0  0  0  0  0  0  0  0  0  0  0
    5.4840   69.2790   62.3420 C   0  0  0  0  0  0  0  0  0  0  0  0
    4.5160   66.9560   62.2980 C   0  0  0  0  0  0  0  0  0  0  0  0
    1.7080   69.3020   68.0400 S   0  0  0  0  0  6  0  0  0  0  0  0
    2.7820   69.6100   68.9640 O   0  0  0  0  0  0  0  0  0  0  0  0
    0.5940   70.2150   67.8750 O   0  0  0  0  0  0  0  0  0  0  0  0
    1.4850   67.1690   69.5680 C   0  0  0  0  0  0  0  0  0  0  0  0
    1.0860   67.7330   68.4190 C   0  0  0  0  0  0  0  0  0  0  0  0
    0.6710   64.8300   70.2750 N   0  0  0  0  0  0  0  0  0  0  0  0
    1.0270   65.8860   69.9600 C   0  0  0  0  0  0  0  0  0  0  0  0
    4.3598   69.8546   67.0299 H   0  0  0  0  0  0  0  0  0  0  0  0
    5.3819   69.5058   64.7862 H   0  0  0  0  0  0  0  0  0  0  0  0
    1.6366   67.9084   63.3354 H   0  0  0  0  0  0  0  0  0  0  0  0
    0.6124   68.2586   65.5760 H   0  0  0  0  0  0  0  0  0  0  0  0
    2.3168   69.2766   61.7502 H   0  0  0  0  0  0  0  0  0  0  0  0
    3.7426   69.6300   60.7164 H   0  0  0  0  0  0  0  0  0  0  0  0
    3.0186   67.9861   60.7164 H   0  0  0  0  0  0  0  0  0  0  0  0
    5.8754   69.5290   63.3392 H   0  0  0  0  0  0  0  0  0  0  0  0
    6.2331   68.6917   61.7907 H   0  0  0  0  0  0  0  0  0  0  0  0
    5.2663   70.2056   61.7907 H   0  0  0  0  0  0  0  0  0  0  0  0
    4.6212   66.4745   63.2814 H   0  0  0  0  0  0  0  0  0  0  0  0
    3.7025   66.4718   61.7379 H   0  0  0  0  0  0  0  0  0  0  0  0
    5.4573   66.8554   61.7379 H   0  0  0  0  0  0  0  0  0  0  0  0
    2.1830   67.7137   70.2208 H   0  0  0  0  0  0  0  0  0  0  0  0
    0.3889   67.2171   67.7423 H   0  0  0  0  0  0  0  0  0  0  0  0
  2  1  2  0
  3  2  1  0
  4  3  2  0
  5  4  1  0
  6  5  2  0
  6  1  1  0
  7  4  1  0
  8  7  1  0
  9  7  1  0
 10  7  1  0
 11  1  1  0
 12 11  2  0
 13 11  2  0
 15 14  2  0
 15 11  1  0
 17 16  3  0
 17 14  1  0
  2 18  1  0
  3 19  1  0
  5 20  1  0
  6 21  1  0
  8 22  1  0
  8 23  1  0
  8 24  1  0
  9 25  1  0
  9 26  1  0
  9 27  1  0
 10 28  1  0
 10 29  1  0
 10 30  1  0
 14 31  1  0
 15 32  1  0
M  END
>  <score>  (7) 
-7.743

$$$$
=
     RDKit          3D

 32 32  0  0  0  0  0  0  0  0999 V2000
    2.7530   68.8670   65.9020 C   0  0  0  0  0  0  0  0  0  0  0  0
    4.0200   69.0650   65.3550 C   0  0  0  0  0  0  0  0  0  0  0  0
    5.0140   69.6860   66.1180 C   0  0  0  0  0  0  0  0  0  0  0  0
    4.7680   70.1100   67.4360 C   0  0  0  0  0  0  0  0  0  0  0  0
    3.4810   69.8770   67.9640 C   0  0  0  0  0  0  0  0  0  0  0  0
    2.4810   69.2580   67.2110 C   0  0  0  0  0  0  0  0  0  0  0  0
    5.8450   70.7930   68.3010 C   0  0  0  0  0  0  0  0  0  0  0  0
    5.8830   72.3310   68.1540 C   0  0  0  0  0  0  0  0  0  0  0  0
    5.5850   70.4830   69.7920 C   0  0  0  0  0  0  0  0  0  0  0  0
    7.2400   70.2610   67.9070 C   0  0  0  0  0  0  0  0  0  0  0  0
    1.4890   68.0740   64.9370 S   0  0  0  0  0  6  0  0  0  0  0  0
    1.7800   66.6540   64.9210 O   0  0  0  0  0  0  0  0  0  0  0  0
    0.2080   68.5580   65.4160 O   0  0  0  0  0  0  0  0  0  0  0  0
    2.7520   68.1670   62.6290 C   0  0  0  0  0  0  0  0  0  0  0  0
    1.7660   68.7140   63.3550 C   0  0  0  0  0  0  0  0  0  0  0  0
    3.2870   68.9870   60.2470 N   0  0  0  0  0  0  0  0  0  0  0  0
    3.0510   68.6270   61.3220 C   0  0  0  0  0  0  0  0  0  0  0  0
    4.2367   68.7344   64.3285 H   0  0  0  0  0  0  0  0  0  0  0  0
    6.0093   69.8462   65.6778 H   0  0  0  0  0  0  0  0  0  0  0  0
    3.2594   70.1907   68.9948 H   0  0  0  0  0  0  0  0  0  0  0  0
    1.4871   69.0807   67.6478 H   0  0  0  0  0  0  0  0  0  0  0  0
    5.8945   72.7945   69.1515 H   0  0  0  0  0  0  0  0  0  0  0  0
    6.7887   72.6244   67.6029 H   0  0  0  0  0  0  0  0  0  0  0  0
    4.9929   72.6688   67.6029 H   0  0  0  0  0  0  0  0  0  0  0  0
    6.1665   71.1763   70.4175 H   0  0  0  0  0  0  0  0  0  0  0  0
    4.5135   70.6031   70.0101 H   0  0  0  0  0  0  0  0  0  0  0  0
    5.8898   69.4488   70.0101 H   0  0  0  0  0  0  0  0  0  0  0  0
    7.8185   70.0404   68.8162 H   0  0  0  0  0  0  0  0  0  0  0  0
    7.1276   69.3426   67.3121 H   0  0  0  0  0  0  0  0  0  0  0  0
    7.7677   71.0210   67.3121 H   0  0  0  0  0  0  0  0  0  0  0  0
    3.3418   67.3431   63.0572 H   0  0  0  0  0  0  0  0  0  0  0  0
    1.1561   69.5392   62.9587 H   0  0  0  0  0  0  0  0  0  0  0  0
  2  1  2  0
  3  2  1  0
  4  3  2  0
  5  4  1  0
  6  5  2  0
  6  1  1  0
  7  4  1  0
  8  7  1  0
  9  7  1  0
 10  7  1  0
 11  1  1  0
 12 11  2  0
 13 11  2  0
 15 14  2  0
 15 11  1  0
 17 16  3  0
 17 14  1  0
  2 18  1  0
  3 19  1  0
  5 20  1  0
  6 21  1  0
  8 22  1  0
  8 23  1  0
  8 24  1  0
  9 25  1  0
  9 26  1  0
  9 27  1  0
 10 28  1  0
 10 29  1  0
 10 30  1  0
 14 31  1  0
 15 32  1  0
M  END
>  <score>  (8) 
-7.625

$$$$
=
     RDKit          3D

 32 32  0  0  0  0  0  0  0  0999 V2000
    1.7760   68.7330   66.0840 C   0  0  0  0  0  0  0  0  0  0  0  0
    3.1170   69.1140   66.1130 C   0  0  0  0  0  0  0  0  0  0  0  0
    3.8970   68.9910   64.9590 C   0  0  0  0  0  0  0  0  0  0  0  0
    3.3560   68.4970   63.7590 C   0  0  0  0  0  0  0  0  0  0  0  0
    1.9910   68.1380   63.7590 C   0  0  0  0  0  0  0  0  0  0  0  0
    1.2030   68.2580   64.9060 C   0  0  0  0  0  0  0  0  0  0  0  0
    4.1890   68.3530   62.4710 C   0  0  0  0  0  0  0  0  0  0  0  0
    3.4320   68.7590   61.1860 C   0  0  0  0  0  0  0  0  0  0  0  0
    5.4450   69.2480   62.5630 C   0  0  0  0  0  0  0  0  0  0  0  0
    4.6250   66.8820   62.2980 C   0  0  0  0  0  0  0  0  0  0  0  0
    0.7810   68.8940   67.5470 S   0  0  0  0  0  6  0  0  0  0  0  0
    0.7300   67.5920   68.1840 O   0  0  0  0  0  0  0  0  0  0  0  0
    1.2600   70.0520   68.2760 O   0  0  0  0  0  0  0  0  0  0  0  0
   -1.6440   68.2360   66.7580 C   0  0  0  0  0  0  0  0  0  0  0  0
   -0.7820   69.2540   66.9010 C   0  0  0  0  0  0  0  0  0  0  0  0
   -4.0170   68.6080   65.8290 N   0  0  0  0  0  0  0  0  0  0  0  0
   -2.9470   68.4380   66.2370 C   0  0  0  0  0  0  0  0  0  0  0  0
    3.5592   69.5095   67.0393 H   0  0  0  0  0  0  0  0  0  0  0  0
    4.9560   69.2869   64.9907 H   0  0  0  0  0  0  0  0  0  0  0  0
    1.5368   67.7545   62.8334 H   0  0  0  0  0  0  0  0  0  0  0  0
    0.1391   67.9799   64.8796 H   0  0  0  0  0  0  0  0  0  0  0  0
    2.4926   69.2628   61.4575 H   0  0  0  0  0  0  0  0  0  0  0  0
    4.0568   69.4431   60.5930 H   0  0  0  0  0  0  0  0  0  0  0  0
    3.2078   67.8601   60.5930 H   0  0  0  0  0  0  0  0  0  0  0  0
    5.6928   69.4246   63.6201 H   0  0  0  0  0  0  0  0  0  0  0  0
    6.2894   68.7469   62.0672 H   0  0  0  0  0  0  0  0  0  0  0  0
    5.2470   70.2098   62.0672 H   0  0  0  0  0  0  0  0  0  0  0  0
    4.7616   66.4213   63.2875 H   0  0  0  0  0  0  0  0  0  0  0  0
    3.8509   66.3331   61.7416 H   0  0  0  0  0  0  0  0  0  0  0  0
    5.5731   66.8436   61.7416 H   0  0  0  0  0  0  0  0  0  0  0  0
   -1.3330   67.2225   67.0514 H   0  0  0  0  0  0  0  0  0  0  0  0
   -1.0594   70.2801   66.6177 H   0  0  0  0  0  0  0  0  0  0  0  0
  2  1  2  0
  3  2  1  0
  4  3  2  0
  5  4  1  0
  6  5  2  0
  6  1  1  0
  7  4  1  0
  8  7  1  0
  9  7  1  0
 10  7  1  0
 11  1  1  0
 12 11  2  0
 13 11  2  0
 15 14  2  0
 15 11  1  0
 17 16  3  0
 17 14  1  0
  2 18  1  0
  3 19  1  0
  5 20  1  0
  6 21  1  0
  8 22  1  0
  8 23  1  0
  8 24  1  0
  9 25  1  0
  9 26  1  0
  9 27  1  0
 10 28  1  0
 10 29  1  0
 10 30  1  0
 14 31  1  0
 15 32  1  0
M  END
>  <score>  (9) 
-7.325

$$$$
