=
     RDKit          3D

 31 32  0  0  0  0  0  0  0  0999 V2000
    1.9040   66.8810   67.2100 O   0  0  0  0  0  0  0  0  0  0  0  0
    1.7590   67.3260   65.8320 S   0  0  0  0  0  6  0  0  0  0  0  0
    0.4680   67.1370   65.1880 O   0  0  0  0  0  0  0  0  0  0  0  0
    3.0060   66.4710   64.8690 C   0  0  0  0  0  0  0  0  0  0  0  0
    3.6960   67.3660   63.8720 C   0  0  0  0  0  0  0  0  0  0  0  0
    2.9750   67.8770   62.7810 C   0  0  0  0  0  0  0  0  0  0  0  0
    3.5840   68.7250   61.8540 C   0  0  0  0  0  0  0  0  0  0  0  0
    4.9170   69.0920   62.0170 C   0  0  0  0  0  0  0  0  0  0  0  0
    5.6360   68.6200   63.1110 C   0  0  0  0  0  0  0  0  0  0  0  0
    5.0280   67.7710   64.0390 C   0  0  0  0  0  0  0  0  0  0  0  0
    2.1310   69.0790   65.7570 C   0  0  0  0  0  0  0  0  0  0  0  0
    3.0340   69.5370   66.8740 C   0  0  0  0  0  0  0  0  0  0  0  0
    4.4000   69.7390   66.6240 C   0  0  0  0  0  0  0  0  0  0  0  0
    5.2550   70.1830   67.6340 C   0  0  0  0  0  0  0  0  0  0  0  0
    4.7520   70.4510   68.9040 C   0  0  0  0  0  0  0  0  0  0  0  0
    3.3930   70.2860   69.1600 C   0  0  0  0  0  0  0  0  0  0  0  0
    2.5380   69.8430   68.1480 C   0  0  0  0  0  0  0  0  0  0  0  0
    3.7619   66.0640   65.5567 H   0  0  0  0  0  0  0  0  0  0  0  0
    2.4972   65.6775   64.3020 H   0  0  0  0  0  0  0  0  0  0  0  0
    1.9165   67.6057   62.6549 H   0  0  0  0  0  0  0  0  0  0  0  0
    3.0105   69.1031   60.9948 H   0  0  0  0  0  0  0  0  0  0  0  0
    5.4006   69.7533   61.2830 H   0  0  0  0  0  0  0  0  0  0  0  0
    6.6867   68.9164   63.2455 H   0  0  0  0  0  0  0  0  0  0  0  0
    5.5999   67.4167   64.9093 H   0  0  0  0  0  0  0  0  0  0  0  0
    2.6246   69.2920   64.7973 H   0  0  0  0  0  0  0  0  0  0  0  0
    1.1799   69.6222   65.8585 H   0  0  0  0  0  0  0  0  0  0  0  0
    4.8023   69.5449   65.6188 H   0  0  0  0  0  0  0  0  0  0  0  0
    6.3264   70.3211   67.4264 H   0  0  0  0  0  0  0  0  0  0  0  0
    5.4262   70.7922   69.7034 H   0  0  0  0  0  0  0  0  0  0  0  0
    2.9922   70.5049   70.1607 H   0  0  0  0  0  0  0  0  0  0  0  0
    1.4630   69.7332   68.3538 H   0  0  0  0  0  0  0  0  0  0  0  0
  2  1  2  0
  3  2  2  0
  4  2  1  0
  5  4  1  0
  6  5  2  0
  7  6  1  0
  8  7  2  0
  9  8  1  0
 10  5  1  0
 10  9  2  0
 11  2  1  0
 12 11  1  0
 13 12  2  0
 14 13  1  0
 15 14  2  0
 16 15  1  0
 17 16  2  0
 17 12  1  0
  4 18  1  0
  4 19  1  0
  6 20  1  0
  7 21  1  0
  8 22  1  0
  9 23  1  0
 10 24  1  0
 11 25  1  0
 11 26  1  0
 13 27  1  0
 14 28  1  0
 15 29  1  0
 16 30  1  0
 17 31  1  0
M  END
>  <score>  (1) 
-8.169

$$$$
=
     RDKit          3D

 31 32  0  0  0  0  0  0  0  0999 V2000
    3.0940   66.2470   65.5490 O   0  0  0  0  0  0  0  0  0  0  0  0
    2.0180   67.2030   65.3340 S   0  0  0  0  0  6  0  0  0  0  0  0
    0.9920   66.8650   64.3590 O   0  0  0  0  0  0  0  0  0  0  0  0
    2.7780   68.7520   64.8480 C   0  0  0  0  0  0  0  0  0  0  0  0
    3.7460   69.2800   65.8740 C   0  0  0  0  0  0  0  0  0  0  0  0
    5.0960   69.4610   65.5290 C   0  0  0  0  0  0  0  0  0  0  0  0
    6.0100   69.9690   66.4530 C   0  0  0  0  0  0  0  0  0  0  0  0
    5.5850   70.3230   67.7300 C   0  0  0  0  0  0  0  0  0  0  0  0
    4.2450   70.1820   68.0780 C   0  0  0  0  0  0  0  0  0  0  0  0
    3.3290   69.6740   67.1540 C   0  0  0  0  0  0  0  0  0  0  0  0
    1.1840   67.4820   66.8980 C   0  0  0  0  0  0  0  0  0  0  0  0
   -0.2930   67.7390   66.7400 C   0  0  0  0  0  0  0  0  0  0  0  0
   -1.2150   66.9310   67.4220 C   0  0  0  0  0  0  0  0  0  0  0  0
   -2.5880   67.1600   67.3100 C   0  0  0  0  0  0  0  0  0  0  0  0
   -3.0570   68.2130   66.5300 C   0  0  0  0  0  0  0  0  0  0  0  0
   -2.1540   69.0430   65.8720 C   0  0  0  0  0  0  0  0  0  0  0  0
   -0.7800   68.8150   65.9850 C   0  0  0  0  0  0  0  0  0  0  0  0
    3.3193   68.5957   63.9032 H   0  0  0  0  0  0  0  0  0  0  0  0
    1.9732   69.4944   64.7422 H   0  0  0  0  0  0  0  0  0  0  0  0
    5.4371   69.1987   64.5166 H   0  0  0  0  0  0  0  0  0  0  0  0
    7.0666   70.0897   66.1719 H   0  0  0  0  0  0  0  0  0  0  0  0
    6.3067   70.7134   68.4627 H   0  0  0  0  0  0  0  0  0  0  0  0
    3.9062   70.4715   69.0837 H   0  0  0  0  0  0  0  0  0  0  0  0
    2.2690   69.5819   67.4331 H   0  0  0  0  0  0  0  0  0  0  0  0
    1.3194   66.5926   67.5310 H   0  0  0  0  0  0  0  0  0  0  0  0
    1.6277   68.3804   67.3520 H   0  0  0  0  0  0  0  0  0  0  0  0
   -0.8518   66.1065   68.0531 H   0  0  0  0  0  0  0  0  0  0  0  0
   -3.2991   66.5080   67.8384 H   0  0  0  0  0  0  0  0  0  0  0  0
   -4.1386   68.3888   66.4338 H   0  0  0  0  0  0  0  0  0  0  0  0
   -2.5228   69.8804   65.2616 H   0  0  0  0  0  0  0  0  0  0  0  0
   -0.0732   69.4869   65.4762 H   0  0  0  0  0  0  0  0  0  0  0  0
  2  1  2  0
  3  2  2  0
  4  2  1  0
  5  4  1  0
  6  5  2  0
  7  6  1  0
  8  7  2  0
  9  8  1  0
 10  5  1  0
 10  9  2  0
 11  2  1  0
 12 11  1  0
 13 12  2  0
 14 13  1  0
 15 14  2  0
 16 15  1  0
 17 16  2  0
 17 12  1  0
  4 18  1  0
  4 19  1  0
  6 20  1  0
  7 21  1  0
  8 22  1  0
  9 23  1  0
 10 24  1  0
 11 25  1  0
 11 26  1  0
 13 27  1  0
 14 28  1  0
 15 29  1  0
 16 30  1  0
 17 31  1  0
M  END
>  <score>  (2) 
-8.161

$$$$
=
     RDKit          3D

 31 32  0  0  0  0  0  0  0  0999 V2000
   -0.1830   66.8820   66.4550 O   0  0  0  0  0  0  0  0  0  0  0  0
    1.0860   67.4790   66.0670 S   0  0  0  0  0  6  0  0  0  0  0  0
    2.3040   66.7370   66.3570 O   0  0  0  0  0  0  0  0  0  0  0  0
    1.1860   69.0760   66.8760 C   0  0  0  0  0  0  0  0  0  0  0  0
    2.6020   69.4950   67.1780 C   0  0  0  0  0  0  0  0  0  0  0  0
    2.9310   69.9590   68.4620 C   0  0  0  0  0  0  0  0  0  0  0  0
    4.2380   70.3330   68.7750 C   0  0  0  0  0  0  0  0  0  0  0  0
    5.2410   70.2300   67.8150 C   0  0  0  0  0  0  0  0  0  0  0  0
    4.9390   69.7420   66.5480 C   0  0  0  0  0  0  0  0  0  0  0  0
    3.6300   69.3670   66.2330 C   0  0  0  0  0  0  0  0  0  0  0  0
    1.0590   67.7730   64.2980 C   0  0  0  0  0  0  0  0  0  0  0  0
    2.4270   67.6990   63.6680 C   0  0  0  0  0  0  0  0  0  0  0  0
    3.2140   66.5520   63.8510 C   0  0  0  0  0  0  0  0  0  0  0  0
    4.4750   66.4470   63.2620 C   0  0  0  0  0  0  0  0  0  0  0  0
    4.9590   67.4800   62.4650 C   0  0  0  0  0  0  0  0  0  0  0  0
    4.1780   68.6120   62.2480 C   0  0  0  0  0  0  0  0  0  0  0  0
    2.9150   68.7160   62.8360 C   0  0  0  0  0  0  0  0  0  0  0  0
    0.7295   69.8310   66.2191 H   0  0  0  0  0  0  0  0  0  0  0  0
    0.6555   68.9926   67.8360 H   0  0  0  0  0  0  0  0  0  0  0  0
    2.1477   70.0285   69.2312 H   0  0  0  0  0  0  0  0  0  0  0  0
    4.4762   70.7095   69.7808 H   0  0  0  0  0  0  0  0  0  0  0  0
    6.2699   70.5338   68.0579 H   0  0  0  0  0  0  0  0  0  0  0  0
    5.7326   69.6510   65.7918 H   0  0  0  0  0  0  0  0  0  0  0  0
    3.4039   68.9673   65.2334 H   0  0  0  0  0  0  0  0  0  0  0  0
    0.4145   67.0164   63.8266 H   0  0  0  0  0  0  0  0  0  0  0  0
    0.6782   68.7927   64.1395 H   0  0  0  0  0  0  0  0  0  0  0  0
    2.8321   65.7244   64.4669 H   0  0  0  0  0  0  0  0  0  0  0  0
    5.0863   65.5476   63.4278 H   0  0  0  0  0  0  0  0  0  0  0  0
    5.9563   67.4024   62.0075 H   0  0  0  0  0  0  0  0  0  0  0  0
    4.5562   69.4261   61.6123 H   0  0  0  0  0  0  0  0  0  0  0  0
    2.2969   69.6055   62.6440 H   0  0  0  0  0  0  0  0  0  0  0  0
  2  1  2  0
  3  2  2  0
  4  2  1  0
  5  4  1  0
  6  5  2  0
  7  6  1  0
  8  7  2  0
  9  8  1  0
 10  5  1  0
 10  9  2  0
 11  2  1  0
 12 11  1  0
 13 12  2  0
 14 13  1  0
 15 14  2  0
 16 15  1  0
 17 16  2  0
 17 12  1  0
  4 18  1  0
  4 19  1  0
  6 20  1  0
  7 21  1  0
  8 22  1  0
  9 23  1  0
 10 24  1  0
 11 25  1  0
 11 26  1  0
 13 27  1  0
 14 28  1  0
 15 29  1  0
 16 30  1  0
 17 31  1  0
M  END
>  <score>  (3) 
-7.637

$$$$
=
     RDKit          3D

 31 32  0  0  0  0  0  0  0  0999 V2000
    4.1830   58.9310   74.3110 O   0  0  0  0  0  0  0  0  0  0  0  0
    3.6660   59.8940   73.3500 S   0  0  0  0  0  6  0  0  0  0  0  0
    3.3270   61.2240   73.8350 O   0  0  0  0  0  0  0  0  0  0  0  0
    2.2030   59.1680   72.6110 C   0  0  0  0  0  0  0  0  0  0  0  0
    0.9630   59.9970   72.8230 C   0  0  0  0  0  0  0  0  0  0  0  0
    0.8300   61.2300   72.1650 C   0  0  0  0  0  0  0  0  0  0  0  0
   -0.3180   62.0080   72.3260 C   0  0  0  0  0  0  0  0  0  0  0  0
   -1.3580   61.5560   73.1330 C   0  0  0  0  0  0  0  0  0  0  0  0
   -1.2560   60.3210   73.7660 C   0  0  0  0  0  0  0  0  0  0  0  0
   -0.1090   59.5410   73.6050 C   0  0  0  0  0  0  0  0  0  0  0  0
    4.8790   60.1040   72.0450 C   0  0  0  0  0  0  0  0  0  0  0  0
    4.4850   61.1560   71.0400 C   0  0  0  0  0  0  0  0  0  0  0  0
    4.9790   62.4620   71.1720 C   0  0  0  0  0  0  0  0  0  0  0  0
    4.6480   63.4510   70.2430 C   0  0  0  0  0  0  0  0  0  0  0  0
    3.8340   63.1410   69.1580 C   0  0  0  0  0  0  0  0  0  0  0  0
    3.3610   61.8410   68.9950 C   0  0  0  0  0  0  0  0  0  0  0  0
    3.6940   60.8520   69.9230 C   0  0  0  0  0  0  0  0  0  0  0  0
    2.3727   59.0615   71.5294 H   0  0  0  0  0  0  0  0  0  0  0  0
    2.0362   58.1960   73.0982 H   0  0  0  0  0  0  0  0  0  0  0  0
    1.6411   61.5879   71.5139 H   0  0  0  0  0  0  0  0  0  0  0  0
   -0.4006   62.9785   71.8149 H   0  0  0  0  0  0  0  0  0  0  0  0
   -2.2581   62.1733   73.2700 H   0  0  0  0  0  0  0  0  0  0  0  0
   -2.0818   59.9579   74.3954 H   0  0  0  0  0  0  0  0  0  0  0  0
   -0.0452   58.5589   74.0963 H   0  0  0  0  0  0  0  0  0  0  0  0
    5.8371   60.3952   72.5002 H   0  0  0  0  0  0  0  0  0  0  0  0
    4.9543   59.1470   71.5079 H   0  0  0  0  0  0  0  0  0  0  0  0
    5.6359   62.7107   72.0185 H   0  0  0  0  0  0  0  0  0  0  0  0
    5.0307   64.4746   70.3691 H   0  0  0  0  0  0  0  0  0  0  0  0
    3.5646   63.9208   68.4305 H   0  0  0  0  0  0  0  0  0  0  0  0
    2.7238   61.5929   68.1334 H   0  0  0  0  0  0  0  0  0  0  0  0
    3.3319   59.8237   69.7761 H   0  0  0  0  0  0  0  0  0  0  0  0
  2  1  2  0
  3  2  2  0
  4  2  1  0
  5  4  1  0
  6  5  2  0
  7  6  1  0
  8  7  2  0
  9  8  1  0
 10  5  1  0
 10  9  2  0
 11  2  1  0
 12 11  1  0
 13 12  2  0
 14 13  1  0
 15 14  2  0
 16 15  1  0
 17 16  2  0
 17 12  1  0
  4 18  1  0
  4 19  1  0
  6 20  1  0
  7 21  1  0
  8 22  1  0
  9 23  1  0
 10 24  1  0
 11 25  1  0
 11 26  1  0
 13 27  1  0
 14 28  1  0
 15 29  1  0
 16 30  1  0
 17 31  1  0
M  END
>  <score>  (4) 
-7.484

$$$$
=
     RDKit          3D

 31 32  0  0  0  0  0  0  0  0999 V2000
    3.3050   61.2100   73.9230 O   0  0  0  0  0  0  0  0  0  0  0  0
    3.6360   59.8920   73.4000 S   0  0  0  0  0  6  0  0  0  0  0  0
    4.1290   58.8930   74.3360 O   0  0  0  0  0  0  0  0  0  0  0  0
    4.8660   60.1280   72.1180 C   0  0  0  0  0  0  0  0  0  0  0  0
    4.4610   61.1560   71.0940 C   0  0  0  0  0  0  0  0  0  0  0  0
    4.9140   62.4790   71.2210 C   0  0  0  0  0  0  0  0  0  0  0  0
    4.5710   63.4470   70.2750 C   0  0  0  0  0  0  0  0  0  0  0  0
    3.7870   63.1020   69.1780 C   0  0  0  0  0  0  0  0  0  0  0  0
    3.3570   61.7880   69.0210 C   0  0  0  0  0  0  0  0  0  0  0  0
    3.7000   60.8190   69.9660 C   0  0  0  0  0  0  0  0  0  0  0  0
    2.1730   59.2050   72.6210 C   0  0  0  0  0  0  0  0  0  0  0  0
    0.9410   60.0450   72.8380 C   0  0  0  0  0  0  0  0  0  0  0  0
    0.8150   61.2770   72.1780 C   0  0  0  0  0  0  0  0  0  0  0  0
   -0.3250   62.0660   72.3440 C   0  0  0  0  0  0  0  0  0  0  0  0
   -1.3640   61.6240   73.1580 C   0  0  0  0  0  0  0  0  0  0  0  0
   -1.2690   60.3890   73.7940 C   0  0  0  0  0  0  0  0  0  0  0  0
   -0.1290   59.6000   73.6270 C   0  0  0  0  0  0  0  0  0  0  0  0
    5.8050   60.4540   72.5892 H   0  0  0  0  0  0  0  0  0  0  0  0
    4.9810   59.1685   71.5925 H   0  0  0  0  0  0  0  0  0  0  0  0
    5.5472   62.7564   72.0767 H   0  0  0  0  0  0  0  0  0  0  0  0
    4.9206   64.4828   70.3968 H   0  0  0  0  0  0  0  0  0  0  0  0
    3.5081   63.8659   68.4373 H   0  0  0  0  0  0  0  0  0  0  0  0
    2.7450   61.5118   68.1497 H   0  0  0  0  0  0  0  0  0  0  0  0
    3.3694   59.7796   69.8237 H   0  0  0  0  0  0  0  0  0  0  0  0
    2.3566   59.1249   71.5394 H   0  0  0  0  0  0  0  0  0  0  0  0
    1.9865   58.2227   73.0796 H   0  0  0  0  0  0  0  0  0  0  0  0
    1.6253   61.6259   71.5210 H   0  0  0  0  0  0  0  0  0  0  0  0
   -0.4020   63.0364   71.8317 H   0  0  0  0  0  0  0  0  0  0  0  0
   -2.2582   62.2490   73.2985 H   0  0  0  0  0  0  0  0  0  0  0  0
   -2.0938   60.0341   74.4294 H   0  0  0  0  0  0  0  0  0  0  0  0
   -0.0699   58.6184   74.1200 H   0  0  0  0  0  0  0  0  0  0  0  0
  2  1  2  0
  3  2  2  0
  4  2  1  0
  5  4  1  0
  6  5  2  0
  7  6  1  0
  8  7  2  0
  9  8  1  0
 10  5  1  0
 10  9  2  0
 11  2  1  0
 12 11  1  0
 13 12  2  0
 14 13  1  0
 15 14  2  0
 16 15  1  0
 17 16  2  0
 17 12  1  0
  4 18  1  0
  4 19  1  0
  6 20  1  0
  7 21  1  0
  8 22  1  0
  9 23  1  0
 10 24  1  0
 11 25  1  0
 11 26  1  0
 13 27  1  0
 14 28  1  0
 15 29  1  0
 16 30  1  0
 17 31  1  0
M  END
>  <score>  (5) 
-7.443

$$$$
=
     RDKit          3D

 31 32  0  0  0  0  0  0  0  0999 V2000
    1.1690   70.0030   67.5000 O   0  0  0  0  0  0  0  0  0  0  0  0
    1.8730   68.7990   67.0840 S   0  0  0  0  0  6  0  0  0  0  0  0
    2.2410   67.8360   68.1110 O   0  0  0  0  0  0  0  0  0  0  0  0
    3.3630   69.3250   66.2380 C   0  0  0  0  0  0  0  0  0  0  0  0
    4.4070   69.8780   67.1740 C   0  0  0  0  0  0  0  0  0  0  0  0
    4.0260   70.3490   68.4410 C   0  0  0  0  0  0  0  0  0  0  0  0
    4.9740   70.8460   69.3360 C   0  0  0  0  0  0  0  0  0  0  0  0
    6.3210   70.8610   68.9850 C   0  0  0  0  0  0  0  0  0  0  0  0
    6.7200   70.3680   67.7460 C   0  0  0  0  0  0  0  0  0  0  0  0
    5.7710   69.8700   66.8500 C   0  0  0  0  0  0  0  0  0  0  0  0
    0.8560   67.9290   65.8880 C   0  0  0  0  0  0  0  0  0  0  0  0
   -0.6110   67.9560   66.2330 C   0  0  0  0  0  0  0  0  0  0  0  0
   -1.4790   68.7850   65.5080 C   0  0  0  0  0  0  0  0  0  0  0  0
   -2.8460   68.8140   65.7920 C   0  0  0  0  0  0  0  0  0  0  0  0
   -3.3660   67.9990   66.7930 C   0  0  0  0  0  0  0  0  0  0  0  0
   -2.5230   67.1470   67.5010 C   0  0  0  0  0  0  0  0  0  0  0  0
   -1.1560   67.1170   67.2150 C   0  0  0  0  0  0  0  0  0  0  0  0
    3.7895   68.4602   65.7086 H   0  0  0  0  0  0  0  0  0  0  0  0
    3.0811   70.1318   65.5455 H   0  0  0  0  0  0  0  0  0  0  0  0
    2.9654   70.3258   68.7318 H   0  0  0  0  0  0  0  0  0  0  0  0
    4.6571   71.2258   70.3185 H   0  0  0  0  0  0  0  0  0  0  0  0
    7.0686   71.2617   69.6854 H   0  0  0  0  0  0  0  0  0  0  0  0
    7.7852   70.3705   67.4717 H   0  0  0  0  0  0  0  0  0  0  0  0
    6.0974   69.4673   65.8798 H   0  0  0  0  0  0  0  0  0  0  0  0
    0.9933   68.3991   64.9030 H   0  0  0  0  0  0  0  0  0  0  0  0
    1.1751   66.8763   65.8882 H   0  0  0  0  0  0  0  0  0  0  0  0
   -1.0779   69.4208   64.7050 H   0  0  0  0  0  0  0  0  0  0  0  0
   -3.5117   69.4810   65.2245 H   0  0  0  0  0  0  0  0  0  0  0  0
   -4.4410   68.0280   67.0243 H   0  0  0  0  0  0  0  0  0  0  0  0
   -2.9340   66.4963   68.2869 H   0  0  0  0  0  0  0  0  0  0  0  0
   -0.4999   66.4274   67.7664 H   0  0  0  0  0  0  0  0  0  0  0  0
  2  1  2  0
  3  2  2  0
  4  2  1  0
  5  4  1  0
  6  5  2  0
  7  6  1  0
  8  7  2  0
  9  8  1  0
 10  5  1  0
 10  9  2  0
 11  2  1  0
 12 11  1  0
 13 12  2  0
 14 13  1  0
 15 14  2  0
 16 15  1  0
 17 16  2  0
 17 12  1  0
  4 18  1  0
  4 19  1  0
  6 20  1  0
  7 21  1  0
  8 22  1  0
  9 23  1  0
 10 24  1  0
 11 25  1  0
 11 26  1  0
 13 27  1  0
 14 28  1  0
 15 29  1  0
 16 30  1  0
 17 31  1  0
M  END
>  <score>  (6) 
-7.429

$$$$
=
     RDKit          3D

 31 32  0  0  0  0  0  0  0  0999 V2000
    1.2390   69.4960   62.2790 O   0  0  0  0  0  0  0  0  0  0  0  0
    0.6780   68.5550   63.2370 S   0  0  0  0  0  6  0  0  0  0  0  0
   -0.3540   67.6420   62.7700 O   0  0  0  0  0  0  0  0  0  0  0  0
    0.0130   69.5180   64.5950 C   0  0  0  0  0  0  0  0  0  0  0  0
   -0.7720   68.6870   65.5770 C   0  0  0  0  0  0  0  0  0  0  0  0
   -0.0920   67.9090   66.5280 C   0  0  0  0  0  0  0  0  0  0  0  0
   -0.7930   67.1470   67.4640 C   0  0  0  0  0  0  0  0  0  0  0  0
   -2.1850   67.1670   67.4760 C   0  0  0  0  0  0  0  0  0  0  0  0
   -2.8740   67.9600   66.5620 C   0  0  0  0  0  0  0  0  0  0  0  0
   -2.1720   68.7230   65.6250 C   0  0  0  0  0  0  0  0  0  0  0  0
    2.0110   67.5500   63.8940 C   0  0  0  0  0  0  0  0  0  0  0  0
    3.1900   68.3660   64.3580 C   0  0  0  0  0  0  0  0  0  0  0  0
    3.2980   68.7240   65.7100 C   0  0  0  0  0  0  0  0  0  0  0  0
    4.3900   69.4610   66.1710 C   0  0  0  0  0  0  0  0  0  0  0  0
    5.4000   69.8340   65.2890 C   0  0  0  0  0  0  0  0  0  0  0  0
    5.3240   69.4590   63.9510 C   0  0  0  0  0  0  0  0  0  0  0  0
    4.2320   68.7200   63.4900 C   0  0  0  0  0  0  0  0  0  0  0  0
    0.8483   69.9951   65.1285 H   0  0  0  0  0  0  0  0  0  0  0  0
   -0.6770   70.2594   64.1658 H   0  0  0  0  0  0  0  0  0  0  0  0
    1.0079   67.9000   66.5354 H   0  0  0  0  0  0  0  0  0  0  0  0
   -0.2456   66.5306   68.1923 H   0  0  0  0  0  0  0  0  0  0  0  0
   -2.7390   66.5580   68.2055 H   0  0  0  0  0  0  0  0  0  0  0  0
   -3.9736   67.9859   66.5776 H   0  0  0  0  0  0  0  0  0  0  0  0
   -2.7244   69.3588   64.9174 H   0  0  0  0  0  0  0  0  0  0  0  0
    1.6266   66.9725   64.7477 H   0  0  0  0  0  0  0  0  0  0  0  0
    2.3621   66.8971   63.0813 H   0  0  0  0  0  0  0  0  0  0  0  0
    2.5115   68.4198   66.4164 H   0  0  0  0  0  0  0  0  0  0  0  0
    4.4524   69.7470   67.2313 H   0  0  0  0  0  0  0  0  0  0  0  0
    6.2561   70.4237   65.6486 H   0  0  0  0  0  0  0  0  0  0  0  0
    6.1259   69.7453   63.2546 H   0  0  0  0  0  0  0  0  0  0  0  0
    4.1894   68.4126   62.4347 H   0  0  0  0  0  0  0  0  0  0  0  0
  2  1  2  0
  3  2  2  0
  4  2  1  0
  5  4  1  0
  6  5  2  0
  7  6  1  0
  8  7  2  0
  9  8  1  0
 10  5  1  0
 10  9  2  0
 11  2  1  0
 12 11  1  0
 13 12  2  0
 14 13  1  0
 15 14  2  0
 16 15  1  0
 17 16  2  0
 17 12  1  0
  4 18  1  0
  4 19  1  0
  6 20  1  0
  7 21  1  0
  8 22  1  0
  9 23  1  0
 10 24  1  0
 11 25  1  0
 11 26  1  0
 13 27  1  0
 14 28  1  0
 15 29  1  0
 16 30  1  0
 17 31  1  0
M  END
>  <score>  (7) 
-7.226

$$$$
=
     RDKit          3D

 31 32  0  0  0  0  0  0  0  0999 V2000
    3.6040   60.9940   73.9180 O   0  0  0  0  0  0  0  0  0  0  0  0
    3.2140   59.8280   73.1380 S   0  0  0  0  0  6  0  0  0  0  0  0
    3.1860   58.5380   73.8090 O   0  0  0  0  0  0  0  0  0  0  0  0
    4.3420   59.7230   71.7490 C   0  0  0  0  0  0  0  0  0  0  0  0
    4.3010   60.9410   70.8630 C   0  0  0  0  0  0  0  0  0  0  0  0
    3.6650   60.8710   69.6130 C   0  0  0  0  0  0  0  0  0  0  0  0
    3.5940   61.9900   68.7820 C   0  0  0  0  0  0  0  0  0  0  0  0
    4.1390   63.2020   69.1970 C   0  0  0  0  0  0  0  0  0  0  0  0
    4.7430   63.2970   70.4470 C   0  0  0  0  0  0  0  0  0  0  0  0
    4.8150   62.1780   71.2790 C   0  0  0  0  0  0  0  0  0  0  0  0
    1.5710   60.1110   72.4750 C   0  0  0  0  0  0  0  0  0  0  0  0
    1.1370   61.5510   72.5730 C   0  0  0  0  0  0  0  0  0  0  0  0
    1.0810   62.3400   71.4150 C   0  0  0  0  0  0  0  0  0  0  0  0
    0.6620   63.6710   71.4740 C   0  0  0  0  0  0  0  0  0  0  0  0
    0.2740   64.2250   72.6900 C   0  0  0  0  0  0  0  0  0  0  0  0
    0.2920   63.4460   73.8440 C   0  0  0  0  0  0  0  0  0  0  0  0
    0.7100   62.1140   73.7840 C   0  0  0  0  0  0  0  0  0  0  0  0
    5.3648   59.6058   72.1364 H   0  0  0  0  0  0  0  0  0  0  0  0
    4.0325   58.8619   71.1385 H   0  0  0  0  0  0  0  0  0  0  0  0
    3.2168   59.9217   69.2845 H   0  0  0  0  0  0  0  0  0  0  0  0
    3.1071   61.9143   67.7985 H   0  0  0  0  0  0  0  0  0  0  0  0
    4.0923   64.0820   68.5387 H   0  0  0  0  0  0  0  0  0  0  0  0
    5.1650   64.2565   70.7806 H   0  0  0  0  0  0  0  0  0  0  0  0
    5.2800   62.2675   72.2718 H   0  0  0  0  0  0  0  0  0  0  0  0
    1.5644   59.8141   71.4158 H   0  0  0  0  0  0  0  0  0  0  0  0
    0.8672   59.5135   73.0731 H   0  0  0  0  0  0  0  0  0  0  0  0
    1.3710   61.9048   70.4473 H   0  0  0  0  0  0  0  0  0  0  0  0
    0.6387   64.2813   70.5592 H   0  0  0  0  0  0  0  0  0  0  0  0
   -0.0463   65.2762   72.7396 H   0  0  0  0  0  0  0  0  0  0  0  0
   -0.0233   63.8799   74.8044 H   0  0  0  0  0  0  0  0  0  0  0  0
    0.7040   61.5004   74.6969 H   0  0  0  0  0  0  0  0  0  0  0  0
  2  1  2  0
  3  2  2  0
  4  2  1  0
  5  4  1  0
  6  5  2  0
  7  6  1  0
  8  7  2  0
  9  8  1  0
 10  5  1  0
 10  9  2  0
 11  2  1  0
 12 11  1  0
 13 12  2  0
 14 13  1  0
 15 14  2  0
 16 15  1  0
 17 16  2  0
 17 12  1  0
  4 18  1  0
  4 19  1  0
  6 20  1  0
  7 21  1  0
  8 22  1  0
  9 23  1  0
 10 24  1  0
 11 25  1  0
 11 26  1  0
 13 27  1  0
 14 28  1  0
 15 29  1  0
 16 30  1  0
 17 31  1  0
M  END
>  <score>  (8) 
-7.095

$$$$
=
     RDKit          3D

 31 32  0  0  0  0  0  0  0  0999 V2000
   -0.2880   64.0640   73.7030 O   0  0  0  0  0  0  0  0  0  0  0  0
    0.4940   63.2140   72.8170 S   0  0  0  0  0  6  0  0  0  0  0  0
   -0.1780   62.0870   72.1880 O   0  0  0  0  0  0  0  0  0  0  0  0
    1.8790   62.5920   73.7700 C   0  0  0  0  0  0  0  0  0  0  0  0
    2.5370   61.3930   73.1380 C   0  0  0  0  0  0  0  0  0  0  0  0
    3.9350   61.3550   73.0070 C   0  0  0  0  0  0  0  0  0  0  0  0
    4.5720   60.2480   72.4450 C   0  0  0  0  0  0  0  0  0  0  0  0
    3.8230   59.1530   72.0240 C   0  0  0  0  0  0  0  0  0  0  0  0
    2.4400   59.1600   72.1770 C   0  0  0  0  0  0  0  0  0  0  0  0
    1.8010   60.2680   72.7400 C   0  0  0  0  0  0  0  0  0  0  0  0
    1.1620   64.2300   71.4980 C   0  0  0  0  0  0  0  0  0  0  0  0
    2.1650   63.4980   70.6430 C   0  0  0  0  0  0  0  0  0  0  0  0
    3.5160   63.8770   70.6790 C   0  0  0  0  0  0  0  0  0  0  0  0
    4.4700   63.2040   69.9130 C   0  0  0  0  0  0  0  0  0  0  0  0
    4.0890   62.1290   69.1160 C   0  0  0  0  0  0  0  0  0  0  0  0
    2.7580   61.7190   69.0930 C   0  0  0  0  0  0  0  0  0  0  0  0
    1.8040   62.3930   69.8600 C   0  0  0  0  0  0  0  0  0  0  0  0
    2.6270   63.3929   73.8651 H   0  0  0  0  0  0  0  0  0  0  0  0
    1.4894   62.2758   74.7489 H   0  0  0  0  0  0  0  0  0  0  0  0
    4.5357   62.2094   73.3521 H   0  0  0  0  0  0  0  0  0  0  0  0
    5.6664   60.2407   72.3347 H   0  0  0  0  0  0  0  0  0  0  0  0
    4.3232   58.2841   71.5714 H   0  0  0  0  0  0  0  0  0  0  0  0
    1.8480   58.2910   71.8539 H   0  0  0  0  0  0  0  0  0  0  0  0
    0.7090   60.2574   72.8723 H   0  0  0  0  0  0  0  0  0  0  0  0
    0.3322   64.5636   70.8576 H   0  0  0  0  0  0  0  0  0  0  0  0
    1.6842   65.0772   71.9666 H   0  0  0  0  0  0  0  0  0  0  0  0
    3.8274   64.7155   71.3193 H   0  0  0  0  0  0  0  0  0  0  0  0
    5.5222   63.5235   69.9396 H   0  0  0  0  0  0  0  0  0  0  0  0
    4.8378   61.6037   68.5050 H   0  0  0  0  0  0  0  0  0  0  0  0
    2.4575   60.8635   68.4702 H   0  0  0  0  0  0  0  0  0  0  0  0
    0.7581   62.0525   69.8491 H   0  0  0  0  0  0  0  0  0  0  0  0
  2  1  2  0
  3  2  2  0
  4  2  1  0
  5  4  1  0
  6  5  2  0
  7  6  1  0
  8  7  2  0
  9  8  1  0
 10  5  1  0
 10  9  2  0
 11  2  1  0
 12 11  1  0
 13 12  2  0
 14 13  1  0
 15 14  2  0
 16 15  1  0
 17 16  2  0
 17 12  1  0
  4 18  1  0
  4 19  1  0
  6 20  1  0
  7 21  1  0
  8 22  1  0
  9 23  1  0
 10 24  1  0
 11 25  1  0
 11 26  1  0
 13 27  1  0
 14 28  1  0
 15 29  1  0
 16 30  1  0
 17 31  1  0
M  END
>  <score>  (9) 
-7.077

$$$$
