=
     RDKit          3D

 41 43  0  0  0  0  0  0  0  0999 V2000
    2.0680   68.7960   66.7510 C   0  0  0  0  0  0  0  0  0  0  0  0
    2.3830   69.3970   67.8770 N   0  0  0  0  0  0  0  0  0  0  0  0
    3.6610   69.8620   67.6830 C   0  0  0  0  0  0  0  0  0  0  0  0
    4.1230   69.5420   66.4100 C   0  0  0  0  0  0  0  0  0  0  0  0
    3.0840   68.8570   65.8380 N   0  0  0  0  0  0  0  0  0  0  0  0
    5.3910   69.8930   65.9460 C   0  0  0  0  0  0  0  0  0  0  0  0
    6.2110   70.6090   66.8300 C   0  0  0  0  0  0  0  0  0  0  0  0
    5.7730   70.9600   68.1120 C   0  0  0  0  0  0  0  0  0  0  0  0
    4.4980   70.5770   68.5510 C   0  0  0  0  0  0  0  0  0  0  0  0
    0.5000   67.9820   66.4010 S   0  0  0  0  0  3  0  0  0  0  0  0
    0.1060   67.2110   67.8210 O   0  0  0  0  0  1  0  0  0  0  0  0
    1.1580   66.7840   65.2030 C   0  0  0  0  0  0  0  0  0  0  0  0
    3.0360   67.2530   63.5680 C   0  0  0  0  0  0  0  0  0  0  0  0
    3.4480   67.8530   62.3760 C   0  0  0  0  0  0  0  0  0  0  0  0
    2.5870   68.6880   61.6740 C   0  0  0  0  0  0  0  0  0  0  0  0
    1.3020   68.8410   62.1550 C   0  0  0  0  0  0  0  0  0  0  0  0
    0.8410   68.2270   63.2650 N   0  0  0  0  0  0  0  0  0  0  0  0
    1.7100   67.4480   63.9690 C   0  0  0  0  0  0  0  0  0  0  0  0
    4.0200   65.1400   63.7680 C   0  0  0  0  0  0  0  0  0  0  0  0
    3.8270   66.4380   64.3330 O   0  0  0  0  0  0  0  0  0  0  0  0
    4.7080   67.6790   61.8630 O   0  0  0  0  0  0  0  0  0  0  0  0
    5.5970   68.6540   62.4150 C   0  0  0  0  0  0  0  0  0  0  0  0
    6.5060   71.6500   69.0410 O   0  0  0  0  0  0  0  0  0  0  0  0
    7.5710   70.9440   69.6530 C   0  0  0  0  0  0  0  0  0  0  0  0
    7.2110   70.6030   70.9150 F   0  0  0  0  0  0  0  0  0  0  0  0
    8.6150   71.8060   69.7680 F   0  0  0  0  0  0  0  0  0  0  0  0
    3.0704   68.4584   64.8883 H   0  0  0  0  0  0  0  0  0  0  0  0
    5.7311   69.6213   64.9358 H   0  0  0  0  0  0  0  0  0  0  0  0
    7.2215   70.9014   66.5084 H   0  0  0  0  0  0  0  0  0  0  0  0
    4.1582   70.8346   69.5650 H   0  0  0  0  0  0  0  0  0  0  0  0
    1.9628   66.2090   65.6844 H   0  0  0  0  0  0  0  0  0  0  0  0
    0.3282   66.1332   64.8902 H   0  0  0  0  0  0  0  0  0  0  0  0
    2.9187   69.2102   60.7644 H   0  0  0  0  0  0  0  0  0  0  0  0
    0.6157   69.4999   61.6029 H   0  0  0  0  0  0  0  0  0  0  0  0
    4.1298   64.4012   64.5756 H   0  0  0  0  0  0  0  0  0  0  0  0
    3.1510   64.8776   63.1467 H   0  0  0  0  0  0  0  0  0  0  0  0
    4.9278   65.1418   63.1467 H   0  0  0  0  0  0  0  0  0  0  0  0
    5.5552   68.6082   63.5133 H   0  0  0  0  0  0  0  0  0  0  0  0
    6.6234   68.4467   62.0781 H   0  0  0  0  0  0  0  0  0  0  0  0
    5.2961   69.6570   62.0781 H   0  0  0  0  0  0  0  0  0  0  0  0
    7.8231   70.0512   69.0619 H   0  0  0  0  0  0  0  0  0  0  0  0
  2  1  2  0
  3  2  1  0
  4  3  2  0
  5  4  1  0
  5  1  1  0
  6  4  1  0
  7  6  2  0
  8  7  1  0
  9  3  1  0
  9  8  2  0
 10  1  1  0
 10 11  1  1
 12 10  1  0
 14 13  2  0
 15 14  1  0
 16 15  2  0
 17 16  1  0
 18 17  2  0
 18 13  1  0
 18 12  1  0
 20 19  1  0
 20 13  1  0
 21 14  1  0
 22 21  1  0
 23  8  1  0
 24 23  1  0
 25 24  1  0
 26 24  1  0
  5 27  1  0
  6 28  1  0
  7 29  1  0
  9 30  1  0
 12 31  1  0
 12 32  1  0
 15 33  1  0
 16 34  1  0
 19 35  1  0
 19 36  1  0
 19 37  1  0
 22 38  1  0
 22 39  1  0
 22 40  1  0
 24 41  1  0
M  CHG  2  10   1  11  -1
M  END
>  <score>  (1) 
-10.035

$$$$
=
     RDKit          3D

 41 43  0  0  0  0  0  0  0  0999 V2000
    4.0550   68.7100   64.9490 C   0  0  0  0  0  0  0  0  0  0  0  0
    5.2680   69.1980   65.0890 N   0  0  0  0  0  0  0  0  0  0  0  0
    5.2550   69.8310   66.3090 C   0  0  0  0  0  0  0  0  0  0  0  0
    4.0110   69.7150   66.9210 C   0  0  0  0  0  0  0  0  0  0  0  0
    3.2630   68.9950   66.0270 N   0  0  0  0  0  0  0  0  0  0  0  0
    3.7190   70.2640   68.1690 C   0  0  0  0  0  0  0  0  0  0  0  0
    4.7550   70.9550   68.8140 C   0  0  0  0  0  0  0  0  0  0  0  0
    6.0220   71.0790   68.2330 C   0  0  0  0  0  0  0  0  0  0  0  0
    6.2760   70.5280   66.9690 C   0  0  0  0  0  0  0  0  0  0  0  0
    3.4620   67.7680   63.5340 S   0  0  0  0  0  3  0  0  0  0  0  0
    2.6790   68.8890   62.5870 O   0  0  0  0  0  1  0  0  0  0  0  0
    2.2510   66.7700   64.4510 C   0  0  0  0  0  0  0  0  0  0  0  0
    0.3550   67.5110   65.9590 C   0  0  0  0  0  0  0  0  0  0  0  0
   -0.8010   68.2780   66.1210 C   0  0  0  0  0  0  0  0  0  0  0  0
   -1.3660   68.9380   65.0360 C   0  0  0  0  0  0  0  0  0  0  0  0
   -0.7080   68.8670   63.8240 C   0  0  0  0  0  0  0  0  0  0  0  0
    0.4470   68.1930   63.6390 N   0  0  0  0  0  0  0  0  0  0  0  0
    0.9640   67.5130   64.7000 C   0  0  0  0  0  0  0  0  0  0  0  0
    1.1510   67.5790   68.1580 C   0  0  0  0  0  0  0  0  0  0  0  0
    0.9610   66.8110   66.9680 O   0  0  0  0  0  0  0  0  0  0  0  0
   -1.4440   68.3930   67.3270 O   0  0  0  0  0  0  0  0  0  0  0  0
   -2.5320   67.4660   67.3880 C   0  0  0  0  0  0  0  0  0  0  0  0
    7.0870   71.7400   68.7850 O   0  0  0  0  0  0  0  0  0  0  0  0
    7.9110   70.9880   69.6590 C   0  0  0  0  0  0  0  0  0  0  0  0
    7.1850   70.6100   70.7390 F   0  0  0  0  0  0  0  0  0  0  0  0
    8.8810   71.8210   70.1170 F   0  0  0  0  0  0  0  0  0  0  0  0
    2.2782   68.7174   66.1458 H   0  0  0  0  0  0  0  0  0  0  0  0
    2.7237   70.1601   68.6258 H   0  0  0  0  0  0  0  0  0  0  0  0
    4.5676   71.4094   69.7981 H   0  0  0  0  0  0  0  0  0  0  0  0
    7.2650   70.6415   66.5009 H   0  0  0  0  0  0  0  0  0  0  0  0
    2.0284   65.8630   63.8698 H   0  0  0  0  0  0  0  0  0  0  0  0
    2.6908   66.5247   65.4289 H   0  0  0  0  0  0  0  0  0  0  0  0
   -2.3067   69.4987   65.1394 H   0  0  0  0  0  0  0  0  0  0  0  0
   -1.1493   69.3884   62.9618 H   0  0  0  0  0  0  0  0  0  0  0  0
    0.9923   66.9377   69.0375 H   0  0  0  0  0  0  0  0  0  0  0  0
    2.1753   67.9796   68.1763 H   0  0  0  0  0  0  0  0  0  0  0  0
    0.4316   68.4109   68.1763 H   0  0  0  0  0  0  0  0  0  0  0  0
   -2.7772   67.2571   68.4398 H   0  0  0  0  0  0  0  0  0  0  0  0
   -3.4102   67.8977   66.8856 H   0  0  0  0  0  0  0  0  0  0  0  0
   -2.2452   66.5304   66.8856 H   0  0  0  0  0  0  0  0  0  0  0  0
    8.3193   70.1115   69.1346 H   0  0  0  0  0  0  0  0  0  0  0  0
  2  1  2  0
  3  2  1  0
  4  3  2  0
  5  4  1  0
  5  1  1  0
  6  4  1  0
  7  6  2  0
  8  7  1  0
  9  3  1  0
  9  8  2  0
 10  1  1  0
 10 11  1  6
 12 10  1  0
 14 13  2  0
 15 14  1  0
 16 15  2  0
 17 16  1  0
 18 17  2  0
 18 13  1  0
 18 12  1  0
 20 19  1  0
 20 13  1  0
 21 14  1  0
 22 21  1  0
 23  8  1  0
 24 23  1  0
 25 24  1  0
 26 24  1  0
  5 27  1  0
  6 28  1  0
  7 29  1  0
  9 30  1  0
 12 31  1  0
 12 32  1  0
 15 33  1  0
 16 34  1  0
 19 35  1  0
 19 36  1  0
 19 37  1  0
 22 38  1  0
 22 39  1  0
 22 40  1  0
 24 41  1  0
M  CHG  2  10   1  11  -1
M  END
>  <score>  (2) 
-9.243

$$$$
=
     RDKit          3D

 41 43  0  0  0  0  0  0  0  0999 V2000
    0.1500   66.0200   69.7660 C   0  0  0  0  0  0  0  0  0  0  0  0
   -0.7100   66.0290   68.7720 N   0  0  0  0  0  0  0  0  0  0  0  0
   -0.2670   67.0230   67.9320 C   0  0  0  0  0  0  0  0  0  0  0  0
    0.8880   67.6200   68.4270 C   0  0  0  0  0  0  0  0  0  0  0  0
    1.1300   66.9600   69.6020 N   0  0  0  0  0  0  0  0  0  0  0  0
    1.5520   68.6580   67.7740 C   0  0  0  0  0  0  0  0  0  0  0  0
    1.0030   69.0940   66.5590 C   0  0  0  0  0  0  0  0  0  0  0  0
   -0.1500   68.5060   66.0260 C   0  0  0  0  0  0  0  0  0  0  0  0
   -0.8010   67.4740   66.7170 C   0  0  0  0  0  0  0  0  0  0  0  0
    0.0930   64.9190   71.1900 S   0  0  0  0  0  3  0  0  0  0  0  0
   -0.3390   65.9030   72.4600 O   0  0  0  0  0  1  0  0  0  0  0  0
    1.8760   64.5730   71.2480 C   0  0  0  0  0  0  0  0  0  0  0  0
    2.4390   62.2010   70.5590 C   0  0  0  0  0  0  0  0  0  0  0  0
    2.7690   60.9000   70.9470 C   0  0  0  0  0  0  0  0  0  0  0  0
    2.7390   60.5360   72.2880 C   0  0  0  0  0  0  0  0  0  0  0  0
    2.4460   61.5160   73.2150 C   0  0  0  0  0  0  0  0  0  0  0  0
    2.1870   62.8000   72.8900 N   0  0  0  0  0  0  0  0  0  0  0  0
    2.1740   63.1320   71.5690 C   0  0  0  0  0  0  0  0  0  0  0  0
    3.7210   62.8350   68.7080 C   0  0  0  0  0  0  0  0  0  0  0  0
    2.4190   62.6350   69.2600 O   0  0  0  0  0  0  0  0  0  0  0  0
    3.1030   59.9260   70.0420 O   0  0  0  0  0  0  0  0  0  0  0  0
    3.4730   58.7280   70.7300 C   0  0  0  0  0  0  0  0  0  0  0  0
   -0.7570   68.8710   64.8530 O   0  0  0  0  0  0  0  0  0  0  0  0
    0.0860   69.0120   63.7240 C   0  0  0  0  0  0  0  0  0  0  0  0
   -0.6770   69.1480   62.6120 F   0  0  0  0  0  0  0  0  0  0  0  0
    0.7710   67.8470   63.5820 F   0  0  0  0  0  0  0  0  0  0  0  0
    1.9118   67.1396   70.2481 H   0  0  0  0  0  0  0  0  0  0  0  0
    2.4623   69.1129   68.1915 H   0  0  0  0  0  0  0  0  0  0  0  0
    1.4892   69.9160   66.0132 H   0  0  0  0  0  0  0  0  0  0  0  0
   -1.7189   67.0241   66.3108 H   0  0  0  0  0  0  0  0  0  0  0  0
    2.3141   64.8140   70.2682 H   0  0  0  0  0  0  0  0  0  0  0  0
    2.3103   65.1903   72.0482 H   0  0  0  0  0  0  0  0  0  0  0  0
    2.9421   59.5010   72.6004 H   0  0  0  0  0  0  0  0  0  0  0  0
    2.4223   61.2346   74.2781 H   0  0  0  0  0  0  0  0  0  0  0  0
    4.4514   62.9472   69.5228 H   0  0  0  0  0  0  0  0  0  0  0  0
    3.9935   61.9682   68.0880 H   0  0  0  0  0  0  0  0  0  0  0  0
    3.7208   63.7436   68.0880 H   0  0  0  0  0  0  0  0  0  0  0  0
    3.4206   58.8975   71.8156 H   0  0  0  0  0  0  0  0  0  0  0  0
    2.7833   57.9175   70.4518 H   0  0  0  0  0  0  0  0  0  0  0  0
    4.4996   58.4476   70.4518 H   0  0  0  0  0  0  0  0  0  0  0  0
    0.7490   69.8801   63.8533 H   0  0  0  0  0  0  0  0  0  0  0  0
  2  1  2  0
  3  2  1  0
  4  3  2  0
  5  4  1  0
  5  1  1  0
  6  4  1  0
  7  6  2  0
  8  7  1  0
  9  3  1  0
  9  8  2  0
 10  1  1  0
 10 11  1  1
 12 10  1  0
 14 13  2  0
 15 14  1  0
 16 15  2  0
 17 16  1  0
 18 17  2  0
 18 13  1  0
 18 12  1  0
 20 19  1  0
 20 13  1  0
 21 14  1  0
 22 21  1  0
 23  8  1  0
 24 23  1  0
 25 24  1  0
 26 24  1  0
  5 27  1  0
  6 28  1  0
  7 29  1  0
  9 30  1  0
 12 31  1  0
 12 32  1  0
 15 33  1  0
 16 34  1  0
 19 35  1  0
 19 36  1  0
 19 37  1  0
 22 38  1  0
 22 39  1  0
 22 40  1  0
 24 41  1  0
M  CHG  2  10   1  11  -1
M  END
>  <score>  (3) 
-8.718

$$$$
=
     RDKit          3D

 41 43  0  0  0  0  0  0  0  0999 V2000
    0.1390   66.0090   69.4050 C   0  0  0  0  0  0  0  0  0  0  0  0
    1.2600   66.4190   68.8550 N   0  0  0  0  0  0  0  0  0  0  0  0
    0.8680   67.1690   67.7720 C   0  0  0  0  0  0  0  0  0  0  0  0
   -0.5190   67.2200   67.6720 C   0  0  0  0  0  0  0  0  0  0  0  0
   -0.9590   66.4660   68.7280 N   0  0  0  0  0  0  0  0  0  0  0  0
   -1.1880   67.9140   66.6650 C   0  0  0  0  0  0  0  0  0  0  0  0
   -0.3930   68.5880   65.7270 C   0  0  0  0  0  0  0  0  0  0  0  0
    1.0040   68.5700   65.8050 C   0  0  0  0  0  0  0  0  0  0  0  0
    1.6440   67.8480   66.8230 C   0  0  0  0  0  0  0  0  0  0  0  0
    0.0090   64.9770   70.8750 S   0  0  0  0  0  3  0  0  0  0  0  0
   -0.3900   66.0370   72.0930 O   0  0  0  0  0  1  0  0  0  0  0  0
    1.7720   64.5480   70.9750 C   0  0  0  0  0  0  0  0  0  0  0  0
    3.1040   62.4040   70.7540 C   0  0  0  0  0  0  0  0  0  0  0  0
    3.2690   61.0670   71.1230 C   0  0  0  0  0  0  0  0  0  0  0  0
    2.3060   60.4250   71.8930 C   0  0  0  0  0  0  0  0  0  0  0  0
    1.2310   61.1710   72.3340 C   0  0  0  0  0  0  0  0  0  0  0  0
    1.0670   62.4820   72.0570 N   0  0  0  0  0  0  0  0  0  0  0  0
    1.9950   63.0860   71.2630 C   0  0  0  0  0  0  0  0  0  0  0  0
    3.8060   62.8970   68.5770 C   0  0  0  0  0  0  0  0  0  0  0  0
    3.9910   63.1030   69.9790 O   0  0  0  0  0  0  0  0  0  0  0  0
    4.3510   60.3240   70.7270 O   0  0  0  0  0  0  0  0  0  0  0  0
    5.5170   60.7430   71.4420 C   0  0  0  0  0  0  0  0  0  0  0  0
    1.8570   69.1920   64.9320 O   0  0  0  0  0  0  0  0  0  0  0  0
    3.2340   68.8930   65.0750 C   0  0  0  0  0  0  0  0  0  0  0  0
    3.8390   69.8970   65.7570 F   0  0  0  0  0  0  0  0  0  0  0  0
    3.7790   68.8870   63.8310 F   0  0  0  0  0  0  0  0  0  0  0  0
   -1.9422   66.2766   68.9696 H   0  0  0  0  0  0  0  0  0  0  0  0
   -2.2864   67.9320   66.6089 H   0  0  0  0  0  0  0  0  0  0  0  0
   -0.8786   69.1436   64.9112 H   0  0  0  0  0  0  0  0  0  0  0  0
    2.7422   67.8151   66.8759 H   0  0  0  0  0  0  0  0  0  0  0  0
    2.2502   64.7954   70.0158 H   0  0  0  0  0  0  0  0  0  0  0  0
    2.2090   65.1225   71.8051 H   0  0  0  0  0  0  0  0  0  0  0  0
    2.3974   59.3576   72.1428 H   0  0  0  0  0  0  0  0  0  0  0  0
    0.4660   60.6693   72.9448 H   0  0  0  0  0  0  0  0  0  0  0  0
    3.0787   62.0872   68.4182 H   0  0  0  0  0  0  0  0  0  0  0  0
    3.4302   63.8227   68.1168 H   0  0  0  0  0  0  0  0  0  0  0  0
    4.7667   62.6225   68.1168 H   0  0  0  0  0  0  0  0  0  0  0  0
    5.3280   60.6751   72.5235 H   0  0  0  0  0  0  0  0  0  0  0  0
    6.3635   60.0928   71.1761 H   0  0  0  0  0  0  0  0  0  0  0  0
    5.7561   61.7833   71.1761 H   0  0  0  0  0  0  0  0  0  0  0  0
    3.3606   67.9327   65.5963 H   0  0  0  0  0  0  0  0  0  0  0  0
  2  1  2  0
  3  2  1  0
  4  3  2  0
  5  4  1  0
  5  1  1  0
  6  4  1  0
  7  6  2  0
  8  7  1  0
  9  3  1  0
  9  8  2  0
 10  1  1  0
 10 11  1  1
 12 10  1  0
 14 13  2  0
 15 14  1  0
 16 15  2  0
 17 16  1  0
 18 17  2  0
 18 13  1  0
 18 12  1  0
 20 19  1  0
 20 13  1  0
 21 14  1  0
 22 21  1  0
 23  8  1  0
 24 23  1  0
 25 24  1  0
 26 24  1  0
  5 27  1  0
  6 28  1  0
  7 29  1  0
  9 30  1  0
 12 31  1  0
 12 32  1  0
 15 33  1  0
 16 34  1  0
 19 35  1  0
 19 36  1  0
 19 37  1  0
 22 38  1  0
 22 39  1  0
 22 40  1  0
 24 41  1  0
M  CHG  2  10   1  11  -1
M  END
>  <score>  (4) 
-8.337

$$$$
=
     RDKit          3D

 41 43  0  0  0  0  0  0  0  0999 V2000
    1.8630   69.0820   66.7250 C   0  0  0  0  0  0  0  0  0  0  0  0
    3.0810   69.2100   66.2480 N   0  0  0  0  0  0  0  0  0  0  0  0
    3.7930   69.8150   67.2570 C   0  0  0  0  0  0  0  0  0  0  0  0
    2.9880   70.0490   68.3670 C   0  0  0  0  0  0  0  0  0  0  0  0
    1.7580   69.5730   67.9970 N   0  0  0  0  0  0  0  0  0  0  0  0
    3.4530   70.6530   69.5350 C   0  0  0  0  0  0  0  0  0  0  0  0
    4.8050   71.0240   69.5590 C   0  0  0  0  0  0  0  0  0  0  0  0
    5.6470   70.7900   68.4650 C   0  0  0  0  0  0  0  0  0  0  0  0
    5.1410   70.1950   67.3000 C   0  0  0  0  0  0  0  0  0  0  0  0
    0.4690   68.3490   65.8510 S   0  0  0  0  0  3  0  0  0  0  0  0
   -0.6970   68.1510   67.0220 O   0  0  0  0  0  1  0  0  0  0  0  0
    1.2700   66.7570   65.4940 C   0  0  0  0  0  0  0  0  0  0  0  0
    2.1220   67.7920   63.3450 C   0  0  0  0  0  0  0  0  0  0  0  0
    3.1280   67.8590   62.3780 C   0  0  0  0  0  0  0  0  0  0  0  0
    4.1840   66.9540   62.3970 C   0  0  0  0  0  0  0  0  0  0  0  0
    4.2370   66.0480   63.4360 C   0  0  0  0  0  0  0  0  0  0  0  0
    3.3230   65.9920   64.4280 N   0  0  0  0  0  0  0  0  0  0  0  0
    2.2690   66.8540   64.3710 C   0  0  0  0  0  0  0  0  0  0  0  0
    0.1730   68.4890   62.2550 C   0  0  0  0  0  0  0  0  0  0  0  0
    1.0370   68.6270   63.3840 O   0  0  0  0  0  0  0  0  0  0  0  0
    3.1110   68.7790   61.3620 O   0  0  0  0  0  0  0  0  0  0  0  0
    4.4050   69.3730   61.2220 C   0  0  0  0  0  0  0  0  0  0  0  0
    6.9730   71.1240   68.3980 O   0  0  0  0  0  0  0  0  0  0  0  0
    7.7720   70.7570   69.5090 C   0  0  0  0  0  0  0  0  0  0  0  0
    6.9700   70.5290   70.5780 F   0  0  0  0  0  0  0  0  0  0  0  0
    8.5440   71.8290   69.8250 F   0  0  0  0  0  0  0  0  0  0  0  0
    0.9052   69.5831   68.5745 H   0  0  0  0  0  0  0  0  0  0  0  0
    2.7912   70.8298   70.3957 H   0  0  0  0  0  0  0  0  0  0  0  0
    5.2133   71.5098   70.4575 H   0  0  0  0  0  0  0  0  0  0  0  0
    5.7943   70.0287   66.4308 H   0  0  0  0  0  0  0  0  0  0  0  0
    1.7899   66.4125   66.4001 H   0  0  0  0  0  0  0  0  0  0  0  0
    0.4862   66.0500   65.1845 H   0  0  0  0  0  0  0  0  0  0  0  0
    4.9518   66.9605   61.6093 H   0  0  0  0  0  0  0  0  0  0  0  0
    5.0709   65.3309   63.4574 H   0  0  0  0  0  0  0  0  0  0  0  0
   -0.8583   68.3243   62.6005 H   0  0  0  0  0  0  0  0  0  0  0  0
    0.2143   69.4051   61.6475 H   0  0  0  0  0  0  0  0  0  0  0  0
    0.4976   67.6313   61.6475 H   0  0  0  0  0  0  0  0  0  0  0  0
    4.8289   69.5676   62.2182 H   0  0  0  0  0  0  0  0  0  0  0  0
    5.0652   68.6878   60.6701 H   0  0  0  0  0  0  0  0  0  0  0  0
    4.3158   70.3203   60.6701 H   0  0  0  0  0  0  0  0  0  0  0  0
    8.3677   69.8641   69.2685 H   0  0  0  0  0  0  0  0  0  0  0  0
  2  1  2  0
  3  2  1  0
  4  3  2  0
  5  4  1  0
  5  1  1  0
  6  4  1  0
  7  6  2  0
  8  7  1  0
  9  3  1  0
  9  8  2  0
 10  1  1  0
 10 11  1  1
 12 10  1  0
 14 13  2  0
 15 14  1  0
 16 15  2  0
 17 16  1  0
 18 17  2  0
 18 13  1  0
 18 12  1  0
 20 19  1  0
 20 13  1  0
 21 14  1  0
 22 21  1  0
 23  8  1  0
 24 23  1  0
 25 24  1  0
 26 24  1  0
  5 27  1  0
  6 28  1  0
  7 29  1  0
  9 30  1  0
 12 31  1  0
 12 32  1  0
 15 33  1  0
 16 34  1  0
 19 35  1  0
 19 36  1  0
 19 37  1  0
 22 38  1  0
 22 39  1  0
 22 40  1  0
 24 41  1  0
M  CHG  2  10   1  11  -1
M  END
>  <score>  (5) 
-8.127

$$$$
=
     RDKit          3D

 41 43  0  0  0  0  0  0  0  0999 V2000
    3.5190   58.8330   74.5860 C   0  0  0  0  0  0  0  0  0  0  0  0
    3.7800   60.0820   74.2690 N   0  0  0  0  0  0  0  0  0  0  0  0
    3.7480   60.1110   72.8950 C   0  0  0  0  0  0  0  0  0  0  0  0
    3.4520   58.8560   72.3730 C   0  0  0  0  0  0  0  0  0  0  0  0
    3.3140   58.0570   73.4780 N   0  0  0  0  0  0  0  0  0  0  0  0
    3.3560   58.5990   71.0060 C   0  0  0  0  0  0  0  0  0  0  0  0
    3.5670   59.6840   70.1430 C   0  0  0  0  0  0  0  0  0  0  0  0
    3.8520   60.9640   70.6340 C   0  0  0  0  0  0  0  0  0  0  0  0
    3.9570   61.1820   72.0150 C   0  0  0  0  0  0  0  0  0  0  0  0
    3.4230   58.1750   76.2590 S   0  0  0  0  0  3  0  0  0  0  0  0
    4.3730   56.8100   76.2240 O   0  0  0  0  0  1  0  0  0  0  0  0
    1.6660   57.7150   76.1930 C   0  0  0  0  0  0  0  0  0  0  0  0
    1.2590   55.4540   75.1260 C   0  0  0  0  0  0  0  0  0  0  0  0
    1.1390   54.0710   75.2850 C   0  0  0  0  0  0  0  0  0  0  0  0
    1.1240   53.5070   76.5560 C   0  0  0  0  0  0  0  0  0  0  0  0
    1.3050   54.3480   77.6360 C   0  0  0  0  0  0  0  0  0  0  0  0
    1.4920   55.6800   77.5240 N   0  0  0  0  0  0  0  0  0  0  0  0
    1.4580   56.2250   76.2750 C   0  0  0  0  0  0  0  0  0  0  0  0
   -0.0510   56.4300   73.4520 C   0  0  0  0  0  0  0  0  0  0  0  0
    1.2580   56.0910   73.9130 O   0  0  0  0  0  0  0  0  0  0  0  0
    0.9990   53.2180   74.2210 O   0  0  0  0  0  0  0  0  0  0  0  0
   -0.3480   52.7430   74.1510 C   0  0  0  0  0  0  0  0  0  0  0  0
    4.0780   62.0760   69.8680 O   0  0  0  0  0  0  0  0  0  0  0  0
    4.3690   63.2740   70.5660 C   0  0  0  0  0  0  0  0  0  0  0  0
    3.3600   64.1590   70.3720 F   0  0  0  0  0  0  0  0  0  0  0  0
    5.4750   63.8180   69.9950 F   0  0  0  0  0  0  0  0  0  0  0  0
    3.0948   57.0506   73.4748 H   0  0  0  0  0  0  0  0  0  0  0  0
    3.1259   57.5938   70.6230 H   0  0  0  0  0  0  0  0  0  0  0  0
    3.5073   59.5260   69.0560 H   0  0  0  0  0  0  0  0  0  0  0  0
    4.2006   62.1819   72.4035 H   0  0  0  0  0  0  0  0  0  0  0  0
    1.1444   58.1913   77.0363 H   0  0  0  0  0  0  0  0  0  0  0  0
    1.2664   58.0564   75.2267 H   0  0  0  0  0  0  0  0  0  0  0  0
    0.9729   52.4265   76.6964 H   0  0  0  0  0  0  0  0  0  0  0  0
    1.2963   53.9078   78.6441 H   0  0  0  0  0  0  0  0  0  0  0  0
   -0.7109   56.6009   74.3153 H   0  0  0  0  0  0  0  0  0  0  0  0
    0.0002   57.3445   72.8429 H   0  0  0  0  0  0  0  0  0  0  0  0
   -0.4502   55.6056   72.8429 H   0  0  0  0  0  0  0  0  0  0  0  0
   -0.7413   52.6043   75.1689 H   0  0  0  0  0  0  0  0  0  0  0  0
   -0.9681   53.4767   73.6151 H   0  0  0  0  0  0  0  0  0  0  0  0
   -0.3708   51.7826   73.6151 H   0  0  0  0  0  0  0  0  0  0  0  0
    4.5062   63.0636   71.6369 H   0  0  0  0  0  0  0  0  0  0  0  0
  2  1  2  0
  3  2  1  0
  4  3  2  0
  5  4  1  0
  5  1  1  0
  6  4  1  0
  7  6  2  0
  8  7  1  0
  9  3  1  0
  9  8  2  0
 10  1  1  0
 10 11  1  6
 12 10  1  0
 14 13  2  0
 15 14  1  0
 16 15  2  0
 17 16  1  0
 18 17  2  0
 18 13  1  0
 18 12  1  0
 20 19  1  0
 20 13  1  0
 21 14  1  0
 22 21  1  0
 23  8  1  0
 24 23  1  0
 25 24  1  0
 26 24  1  0
  5 27  1  0
  6 28  1  0
  7 29  1  0
  9 30  1  0
 12 31  1  0
 12 32  1  0
 15 33  1  0
 16 34  1  0
 19 35  1  0
 19 36  1  0
 19 37  1  0
 22 38  1  0
 22 39  1  0
 22 40  1  0
 24 41  1  0
M  CHG  2  10   1  11  -1
M  END
>  <score>  (6) 
-7.633

$$$$
=
     RDKit          3D

 41 43  0  0  0  0  0  0  0  0999 V2000
    2.6810   60.0590   71.6250 C   0  0  0  0  0  0  0  0  0  0  0  0
    3.1710   60.9290   70.7700 N   0  0  0  0  0  0  0  0  0  0  0  0
    2.3430   62.0220   70.8650 C   0  0  0  0  0  0  0  0  0  0  0  0
    1.3380   61.8090   71.8030 C   0  0  0  0  0  0  0  0  0  0  0  0
    1.5770   60.5440   72.2710 N   0  0  0  0  0  0  0  0  0  0  0  0
    0.3580   62.7550   72.1020 C   0  0  0  0  0  0  0  0  0  0  0  0
    0.4220   63.9720   71.4080 C   0  0  0  0  0  0  0  0  0  0  0  0
    1.4280   64.2250   70.4680 C   0  0  0  0  0  0  0  0  0  0  0  0
    2.3880   63.2440   70.1810 C   0  0  0  0  0  0  0  0  0  0  0  0
    3.3490   58.4180   71.9480 S   0  0  0  0  0  3  0  0  0  0  0  0
    3.7910   57.8460   70.4500 O   0  0  0  0  0  1  0  0  0  0  0  0
    1.7800   57.6610   72.4660 C   0  0  0  0  0  0  0  0  0  0  0  0
    1.8830   57.5280   74.9940 C   0  0  0  0  0  0  0  0  0  0  0  0
    1.9450   56.7290   76.1380 C   0  0  0  0  0  0  0  0  0  0  0  0
    2.1210   55.3550   76.0280 C   0  0  0  0  0  0  0  0  0  0  0  0
    2.1590   54.8090   74.7610 C   0  0  0  0  0  0  0  0  0  0  0  0
    2.0360   55.5360   73.6300 N   0  0  0  0  0  0  0  0  0  0  0  0
    1.9100   56.8870   73.7520 C   0  0  0  0  0  0  0  0  0  0  0  0
    2.9020   59.5810   75.4650 C   0  0  0  0  0  0  0  0  0  0  0  0
    1.7360   58.8900   75.0140 O   0  0  0  0  0  0  0  0  0  0  0  0
    1.8680   57.2510   77.4040 O   0  0  0  0  0  0  0  0  0  0  0  0
    3.0280   56.8800   78.1540 C   0  0  0  0  0  0  0  0  0  0  0  0
    1.5640   65.3780   69.7410 O   0  0  0  0  0  0  0  0  0  0  0  0
    0.5640   66.3630   69.9300 C   0  0  0  0  0  0  0  0  0  0  0  0
   -0.5040   66.0690   69.1480 F   0  0  0  0  0  0  0  0  0  0  0  0
    1.0640   67.5410   69.4740 F   0  0  0  0  0  0  0  0  0  0  0  0
    1.0236   60.0463   72.9830 H   0  0  0  0  0  0  0  0  0  0  0  0
   -0.4273   62.5563   72.8462 H   0  0  0  0  0  0  0  0  0  0  0  0
   -0.3351   64.7449   71.6067 H   0  0  0  0  0  0  0  0  0  0  0  0
    3.1673   63.4316   69.4277 H   0  0  0  0  0  0  0  0  0  0  0  0
    1.0339   58.4569   72.6071 H   0  0  0  0  0  0  0  0  0  0  0  0
    1.4740   56.9547   71.6802 H   0  0  0  0  0  0  0  0  0  0  0  0
    2.2266   54.7228   76.9220 H   0  0  0  0  0  0  0  0  0  0  0  0
    2.2971   53.7217   74.6675 H   0  0  0  0  0  0  0  0  0  0  0  0
    2.9196   59.5914   76.5648 H   0  0  0  0  0  0  0  0  0  0  0  0
    3.8000   59.0692   75.0887 H   0  0  0  0  0  0  0  0  0  0  0  0
    2.8843   60.6145   75.0887 H   0  0  0  0  0  0  0  0  0  0  0  0
    2.8074   56.9506   79.2293 H   0  0  0  0  0  0  0  0  0  0  0  0
    3.3108   55.8466   77.9047 H   0  0  0  0  0  0  0  0  0  0  0  0
    3.8580   57.5575   77.9047 H   0  0  0  0  0  0  0  0  0  0  0  0
    0.2737   66.4088   70.9900 H   0  0  0  0  0  0  0  0  0  0  0  0
  2  1  2  0
  3  2  1  0
  4  3  2  0
  5  4  1  0
  5  1  1  0
  6  4  1  0
  7  6  2  0
  8  7  1  0
  9  3  1  0
  9  8  2  0
 10  1  1  0
 10 11  1  6
 12 10  1  0
 14 13  2  0
 15 14  1  0
 16 15  2  0
 17 16  1  0
 18 17  2  0
 18 13  1  0
 18 12  1  0
 20 19  1  0
 20 13  1  0
 21 14  1  0
 22 21  1  0
 23  8  1  0
 24 23  1  0
 25 24  1  0
 26 24  1  0
  5 27  1  0
  6 28  1  0
  7 29  1  0
  9 30  1  0
 12 31  1  0
 12 32  1  0
 15 33  1  0
 16 34  1  0
 19 35  1  0
 19 36  1  0
 19 37  1  0
 22 38  1  0
 22 39  1  0
 22 40  1  0
 24 41  1  0
M  CHG  2  10   1  11  -1
M  END
>  <score>  (7) 
-7.595

$$$$
=
     RDKit          3D

 41 43  0  0  0  0  0  0  0  0999 V2000
    2.5880   60.1860   72.0120 C   0  0  0  0  0  0  0  0  0  0  0  0
    3.1630   61.0140   71.1690 N   0  0  0  0  0  0  0  0  0  0  0  0
    2.3090   62.0880   71.0910 C   0  0  0  0  0  0  0  0  0  0  0  0
    1.2000   61.9060   71.9110 C   0  0  0  0  0  0  0  0  0  0  0  0
    1.4040   60.6800   72.4850 N   0  0  0  0  0  0  0  0  0  0  0  0
    0.1720   62.8420   72.0250 C   0  0  0  0  0  0  0  0  0  0  0  0
    0.2980   64.0150   71.2670 C   0  0  0  0  0  0  0  0  0  0  0  0
    1.4080   64.2360   70.4420 C   0  0  0  0  0  0  0  0  0  0  0  0
    2.4150   63.2660   70.3390 C   0  0  0  0  0  0  0  0  0  0  0  0
    3.2430   58.5870   72.5210 S   0  0  0  0  0  3  0  0  0  0  0  0
    2.4080   57.4830   71.5990 O   0  0  0  0  0  1  0  0  0  0  0  0
    2.5720   58.6240   74.2090 C   0  0  0  0  0  0  0  0  0  0  0  0
    0.4940   57.1770   74.3110 C   0  0  0  0  0  0  0  0  0  0  0  0
   -0.0750   55.9390   74.6210 C   0  0  0  0  0  0  0  0  0  0  0  0
    0.6780   54.9570   75.2540 C   0  0  0  0  0  0  0  0  0  0  0  0
    2.0110   55.2210   75.4940 C   0  0  0  0  0  0  0  0  0  0  0  0
    2.6180   56.3770   75.1510 N   0  0  0  0  0  0  0  0  0  0  0  0
    1.8570   57.3480   74.5730 C   0  0  0  0  0  0  0  0  0  0  0  0
   -1.0040   58.9480   74.6140 C   0  0  0  0  0  0  0  0  0  0  0  0
   -0.1820   58.2060   73.7110 O   0  0  0  0  0  0  0  0  0  0  0  0
   -1.3870   55.6460   74.3520 O   0  0  0  0  0  0  0  0  0  0  0  0
   -2.0550   55.2550   75.5550 C   0  0  0  0  0  0  0  0  0  0  0  0
    1.6100   65.3450   69.6640 O   0  0  0  0  0  0  0  0  0  0  0  0
    0.8180   66.4800   69.9660 C   0  0  0  0  0  0  0  0  0  0  0  0
   -0.2600   66.5030   69.1430 F   0  0  0  0  0  0  0  0  0  0  0  0
    1.5560   67.5800   69.6670 F   0  0  0  0  0  0  0  0  0  0  0  0
    0.7765   60.2124   73.1547 H   0  0  0  0  0  0  0  0  0  0  0  0
   -0.6959   62.6683   72.6782 H   0  0  0  0  0  0  0  0  0  0  0  0
   -0.4922   64.7783   71.3215 H   0  0  0  0  0  0  0  0  0  0  0  0
    3.2778   63.4275   69.6761 H   0  0  0  0  0  0  0  0  0  0  0  0
    3.4013   58.7777   74.9152 H   0  0  0  0  0  0  0  0  0  0  0  0
    1.8405   59.4439   74.2604 H   0  0  0  0  0  0  0  0  0  0  0  0
    0.2258   54.0002   75.5540 H   0  0  0  0  0  0  0  0  0  0  0  0
    2.6124   54.4465   75.9925 H   0  0  0  0  0  0  0  0  0  0  0  0
   -0.7284   58.6992   75.6495 H   0  0  0  0  0  0  0  0  0  0  0  0
   -0.8564   60.0247   74.4439 H   0  0  0  0  0  0  0  0  0  0  0  0
   -2.0600   58.6913   74.4439 H   0  0  0  0  0  0  0  0  0  0  0  0
   -1.4735   55.5954   76.4245 H   0  0  0  0  0  0  0  0  0  0  0  0
   -3.0563   55.7096   75.5828 H   0  0  0  0  0  0  0  0  0  0  0  0
   -2.1489   54.1594   75.5828 H   0  0  0  0  0  0  0  0  0  0  0  0
    0.5059   66.4539   71.0205 H   0  0  0  0  0  0  0  0  0  0  0  0
  2  1  2  0
  3  2  1  0
  4  3  2  0
  5  4  1  0
  5  1  1  0
  6  4  1  0
  7  6  2  0
  8  7  1  0
  9  3  1  0
  9  8  2  0
 10  1  1  0
 10 11  1  6
 12 10  1  0
 14 13  2  0
 15 14  1  0
 16 15  2  0
 17 16  1  0
 18 17  2  0
 18 13  1  0
 18 12  1  0
 20 19  1  0
 20 13  1  0
 21 14  1  0
 22 21  1  0
 23  8  1  0
 24 23  1  0
 25 24  1  0
 26 24  1  0
  5 27  1  0
  6 28  1  0
  7 29  1  0
  9 30  1  0
 12 31  1  0
 12 32  1  0
 15 33  1  0
 16 34  1  0
 19 35  1  0
 19 36  1  0
 19 37  1  0
 22 38  1  0
 22 39  1  0
 22 40  1  0
 24 41  1  0
M  CHG  2  10   1  11  -1
M  END
>  <score>  (8) 
-7.494

$$$$
=
     RDKit          3D

 41 43  0  0  0  0  0  0  0  0999 V2000
    3.2080   61.3130   72.5120 C   0  0  0  0  0  0  0  0  0  0  0  0
    3.6320   62.0020   71.4760 N   0  0  0  0  0  0  0  0  0  0  0  0
    2.6720   62.9650   71.2760 C   0  0  0  0  0  0  0  0  0  0  0  0
    1.6520   62.8590   72.2170 C   0  0  0  0  0  0  0  0  0  0  0  0
    2.0210   61.7920   72.9920 N   0  0  0  0  0  0  0  0  0  0  0  0
    0.5480   63.7110   72.2480 C   0  0  0  0  0  0  0  0  0  0  0  0
    0.4990   64.7170   71.2710 C   0  0  0  0  0  0  0  0  0  0  0  0
    1.5150   64.8610   70.3190 C   0  0  0  0  0  0  0  0  0  0  0  0
    2.6020   63.9760   70.3080 C   0  0  0  0  0  0  0  0  0  0  0  0
    4.0560   59.9060   73.2510 S   0  0  0  0  0  3  0  0  0  0  0  0
    3.8170   58.6630   72.1720 O   0  0  0  0  0  1  0  0  0  0  0  0
    2.9360   59.7220   74.6710 C   0  0  0  0  0  0  0  0  0  0  0  0
    2.2020   57.3120   74.9370 C   0  0  0  0  0  0  0  0  0  0  0  0
    1.1990   56.3540   74.7770 C   0  0  0  0  0  0  0  0  0  0  0  0
    0.0250   56.6690   74.1010 C   0  0  0  0  0  0  0  0  0  0  0  0
   -0.1380   57.9680   73.6650 C   0  0  0  0  0  0  0  0  0  0  0  0
    0.7760   58.9420   73.8570 N   0  0  0  0  0  0  0  0  0  0  0  0
    1.9410   58.6080   74.4800 C   0  0  0  0  0  0  0  0  0  0  0  0
    3.2980   57.0930   76.9920 C   0  0  0  0  0  0  0  0  0  0  0  0
    3.3950   57.0780   75.5670 O   0  0  0  0  0  0  0  0  0  0  0  0
    1.3280   55.0700   75.2400 O   0  0  0  0  0  0  0  0  0  0  0  0
    1.8850   54.2370   74.2190 C   0  0  0  0  0  0  0  0  0  0  0  0
    1.5460   65.8060   69.3290 O   0  0  0  0  0  0  0  0  0  0  0  0
    0.5760   66.8360   69.4100 C   0  0  0  0  0  0  0  0  0  0  0  0
   -0.5180   66.4750   68.6950 F   0  0  0  0  0  0  0  0  0  0  0  0
    1.0950   67.9310   68.7960 F   0  0  0  0  0  0  0  0  0  0  0  0
    1.4966   61.4165   73.7951 H   0  0  0  0  0  0  0  0  0  0  0  0
   -0.2455   63.5997   73.0016 H   0  0  0  0  0  0  0  0  0  0  0  0
   -0.3568   65.4078   71.2528 H   0  0  0  0  0  0  0  0  0  0  0  0
    3.3912   64.0740   69.5481 H   0  0  0  0  0  0  0  0  0  0  0  0
    3.5359   59.5093   75.5682 H   0  0  0  0  0  0  0  0  0  0  0  0
    2.3714   60.6603   74.7752 H   0  0  0  0  0  0  0  0  0  0  0  0
   -0.7481   55.9077   73.9199 H   0  0  0  0  0  0  0  0  0  0  0  0
   -1.0650   58.2239   73.1310 H   0  0  0  0  0  0  0  0  0  0  0  0
    4.2956   56.9387   77.4291 H   0  0  0  0  0  0  0  0  0  0  0  0
    2.8991   58.0635   77.3222 H   0  0  0  0  0  0  0  0  0  0  0  0
    2.6246   56.2883   77.3222 H   0  0  0  0  0  0  0  0  0  0  0  0
    2.4392   53.4082   74.6838 H   0  0  0  0  0  0  0  0  0  0  0  0
    1.0754   53.8319   73.5941 H   0  0  0  0  0  0  0  0  0  0  0  0
    2.5687   54.8304   73.5941 H   0  0  0  0  0  0  0  0  0  0  0  0
    0.3127   67.0256   70.4611 H   0  0  0  0  0  0  0  0  0  0  0  0
  2  1  2  0
  3  2  1  0
  4  3  2  0
  5  4  1  0
  5  1  1  0
  6  4  1  0
  7  6  2  0
  8  7  1  0
  9  3  1  0
  9  8  2  0
 10  1  1  0
 10 11  1  6
 12 10  1  0
 14 13  2  0
 15 14  1  0
 16 15  2  0
 17 16  1  0
 18 17  2  0
 18 13  1  0
 18 12  1  0
 20 19  1  0
 20 13  1  0
 21 14  1  0
 22 21  1  0
 23  8  1  0
 24 23  1  0
 25 24  1  0
 26 24  1  0
  5 27  1  0
  6 28  1  0
  7 29  1  0
  9 30  1  0
 12 31  1  0
 12 32  1  0
 15 33  1  0
 16 34  1  0
 19 35  1  0
 19 36  1  0
 19 37  1  0
 22 38  1  0
 22 39  1  0
 22 40  1  0
 24 41  1  0
M  CHG  2  10   1  11  -1
M  END
>  <score>  (9) 
-7.492

$$$$
