=
     RDKit          3D

 56 59  0  0  0  0  0  0  0  0999 V2000
    1.0710   67.0310   69.4850 C   0  0  0  0  0  0  0  0  0  0  0  0
    2.0390   68.5040   64.3620 C   0  0  0  0  0  0  0  0  0  0  0  0
    2.9630   68.5940   65.4120 C   0  0  0  0  0  0  0  0  0  0  0  0
    2.6420   68.1910   66.7210 C   0  0  0  0  0  0  0  0  0  0  0  0
    1.3590   67.6830   66.9660 C   0  0  0  0  0  0  0  0  0  0  0  0
    0.4680   67.6010   65.9120 C   0  0  0  0  0  0  0  0  0  0  0  0
    0.7520   67.9990   64.6060 C   0  0  0  0  0  0  0  0  0  0  0  0
   -0.7060   67.0770   66.3550 O   0  0  0  0  0  0  0  0  0  0  0  0
   -0.6100   66.8030   67.7100 N   0  0  0  0  0  0  0  0  0  0  0  0
    0.6270   67.1810   68.0700 C   0  0  0  0  0  0  0  0  0  0  0  0
    3.1920   68.9870   60.7970 C   0  0  0  0  0  0  0  0  0  0  0  0
    3.0900   68.2350   62.1010 C   0  0  0  0  0  0  0  0  0  0  0  0
    3.6230   67.1410   62.2390 O   0  0  0  0  0  0  0  0  0  0  0  0
    2.3210   68.9050   63.0380 N   0  0  0  0  0  0  0  0  0  0  0  0
    0.3080   65.9460   70.2600 C   0  0  0  0  0  0  0  0  0  0  0  0
    1.1850   64.9110   70.9930 C   0  0  0  0  0  0  0  0  0  0  0  0
    0.3220   63.7530   71.5330 C   0  0  0  0  0  0  0  0  0  0  0  0
    1.1150   62.4770   71.8210 C   0  0  0  0  0  0  0  0  0  0  0  0
    2.5430   62.8310   72.1210 N   0  0  0  0  0  4  0  0  0  0  0  0
    3.2470   63.4200   70.9210 C   0  0  0  0  0  0  0  0  0  0  0  0
    2.3180   64.3450   70.1320 C   0  0  0  0  0  0  0  0  0  0  0  0
    3.3280   61.7310   72.8080 C   0  0  0  0  0  0  0  0  0  0  0  0
    3.1260   60.3380   72.2760 C   0  0  0  0  0  0  0  0  0  0  0  0
    3.7400   59.9310   71.0800 C   0  0  0  0  0  0  0  0  0  0  0  0
    3.5620   58.6330   70.5960 C   0  0  0  0  0  0  0  0  0  0  0  0
    2.7640   57.7310   71.2950 C   0  0  0  0  0  0  0  0  0  0  0  0
    2.1380   58.1250   72.4750 C   0  0  0  0  0  0  0  0  0  0  0  0
    2.3140   59.4200   72.9610 C   0  0  0  0  0  0  0  0  0  0  0  0
    2.1403   66.7728   69.4879 H   0  0  0  0  0  0  0  0  0  0  0  0
    0.8688   67.9879   69.9885 H   0  0  0  0  0  0  0  0  0  0  0  0
    3.9680   68.9912   65.2066 H   0  0  0  0  0  0  0  0  0  0  0  0
    3.3801   68.2726   67.5325 H   0  0  0  0  0  0  0  0  0  0  0  0
    0.0027   67.9209   63.8045 H   0  0  0  0  0  0  0  0  0  0  0  0
    3.3373   70.0580   61.0017 H   0  0  0  0  0  0  0  0  0  0  0  0
    4.0465   68.6049   60.2193 H   0  0  0  0  0  0  0  0  0  0  0  0
    2.2666   68.8464   60.2193 H   0  0  0  0  0  0  0  0  0  0  0  0
    1.9075   69.7981   62.7341 H   0  0  0  0  0  0  0  0  0  0  0  0
   -0.3236   66.4458   71.0091 H   0  0  0  0  0  0  0  0  0  0  0  0
   -0.2597   65.3803   69.5065 H   0  0  0  0  0  0  0  0  0  0  0  0
    1.6555   65.4551   71.8252 H   0  0  0  0  0  0  0  0  0  0  0  0
   -0.1563   64.0828   72.4670 H   0  0  0  0  0  0  0  0  0  0  0  0
   -0.4106   63.5062   70.7504 H   0  0  0  0  0  0  0  0  0  0  0  0
    0.6758   61.9602   72.6870 H   0  0  0  0  0  0  0  0  0  0  0  0
    1.0783   61.8167   70.9420 H   0  0  0  0  0  0  0  0  0  0  0  0
    2.5002   63.5784   72.8284 H   0  0  0  0  0  0  0  0  0  0  0  0
    4.1195   63.9955   71.2639 H   0  0  0  0  0  0  0  0  0  0  0  0
    3.5595   62.5964   70.2621 H   0  0  0  0  0  0  0  0  0  0  0  0
    2.9095   65.1820   69.7326 H   0  0  0  0  0  0  0  0  0  0  0  0
    1.8612   63.7519   69.3260 H   0  0  0  0  0  0  0  0  0  0  0  0
    4.3969   61.9737   72.7155 H   0  0  0  0  0  0  0  0  0  0  0  0
    2.9566   61.7072   73.8431 H   0  0  0  0  0  0  0  0  0  0  0  0
    4.3664   60.6407   70.5197 H   0  0  0  0  0  0  0  0  0  0  0  0
    4.0527   58.3229   69.6616 H   0  0  0  0  0  0  0  0  0  0  0  0
    2.6281   56.7076   70.9153 H   0  0  0  0  0  0  0  0  0  0  0  0
    1.5039   57.4136   73.0244 H   0  0  0  0  0  0  0  0  0  0  0  0
    1.8115   59.7255   73.8906 H   0  0  0  0  0  0  0  0  0  0  0  0
  3  2  2  0
  4  3  1  0
  5  4  2  0
  6  5  1  0
  7  2  1  0
  7  6  2  0
  8  6  1  0
  9  8  1  0
 10  9  2  0
 10  5  1  0
 10  1  1  0
 12 11  1  0
 13 12  2  0
 14 12  1  0
 14  2  1  0
 15  1  1  0
 16 15  1  0
 17 16  1  0
 18 17  1  0
 19 18  1  0
 20 19  1  0
 21 20  1  0
 21 16  1  0
 22 19  1  0
 23 22  1  0
 24 23  2  0
 25 24  1  0
 26 25  2  0
 27 26  1  0
 28 27  2  0
 28 23  1  0
  1 29  1  0
  1 30  1  0
  3 31  1  0
  4 32  1  0
  7 33  1  0
 11 34  1  0
 11 35  1  0
 11 36  1  0
 14 37  1  0
 15 38  1  0
 15 39  1  0
 16 40  1  0
 17 41  1  0
 17 42  1  0
 18 43  1  0
 18 44  1  0
 19 45  1  0
 20 46  1  0
 20 47  1  0
 21 48  1  0
 21 49  1  0
 22 50  1  0
 22 51  1  0
 24 52  1  0
 25 53  1  0
 26 54  1  0
 27 55  1  0
 28 56  1  0
M  CHG  1  19   1
M  END
>  <score>  (1) 
-10.069

$$$$
=
     RDKit          3D

 56 59  0  0  0  0  0  0  0  0999 V2000
    1.1490   66.5710   69.9240 C   0  0  0  0  0  0  0  0  0  0  0  0
    2.4010   61.4220   71.0460 C   0  0  0  0  0  0  0  0  0  0  0  0
    3.0390   62.2110   70.0800 C   0  0  0  0  0  0  0  0  0  0  0  0
    2.6610   63.5450   69.8420 C   0  0  0  0  0  0  0  0  0  0  0  0
    1.6170   64.0870   70.6040 C   0  0  0  0  0  0  0  0  0  0  0  0
    1.0070   63.2870   71.5530 C   0  0  0  0  0  0  0  0  0  0  0  0
    1.3520   61.9610   71.8070 C   0  0  0  0  0  0  0  0  0  0  0  0
    0.0340   64.0000   72.1830 O   0  0  0  0  0  0  0  0  0  0  0  0
   -0.0140   65.2830   71.6610 N   0  0  0  0  0  0  0  0  0  0  0  0
    0.9300   65.3220   70.7070 C   0  0  0  0  0  0  0  0  0  0  0  0
    3.5420   57.8200   71.0680 C   0  0  0  0  0  0  0  0  0  0  0  0
    3.3570   59.1820   70.4460 C   0  0  0  0  0  0  0  0  0  0  0  0
    3.7570   59.4150   69.3120 O   0  0  0  0  0  0  0  0  0  0  0  0
    2.7460   60.0780   71.3080 N   0  0  0  0  0  0  0  0  0  0  0  0
   -0.0220   66.9300   68.9960 C   0  0  0  0  0  0  0  0  0  0  0  0
    0.3690   67.5900   67.6570 C   0  0  0  0  0  0  0  0  0  0  0  0
    1.4350   66.7480   66.9290 C   0  0  0  0  0  0  0  0  0  0  0  0
    1.5190   67.0290   65.4270 C   0  0  0  0  0  0  0  0  0  0  0  0
    1.0460   68.4270   65.1510 N   0  0  0  0  0  4  0  0  0  0  0  0
   -0.4220   68.6010   65.4590 C   0  0  0  0  0  0  0  0  0  0  0  0
   -0.8190   67.8320   66.7220 C   0  0  0  0  0  0  0  0  0  0  0  0
    1.4510   68.9680   63.7930 C   0  0  0  0  0  0  0  0  0  0  0  0
    2.9240   68.9570   63.4870 C   0  0  0  0  0  0  0  0  0  0  0  0
    3.3860   68.6450   62.1980 C   0  0  0  0  0  0  0  0  0  0  0  0
    4.7530   68.6490   61.9120 C   0  0  0  0  0  0  0  0  0  0  0  0
    5.6730   68.9580   62.9110 C   0  0  0  0  0  0  0  0  0  0  0  0
    5.2300   69.2550   64.1970 C   0  0  0  0  0  0  0  0  0  0  0  0
    3.8660   69.2520   64.4850 C   0  0  0  0  0  0  0  0  0  0  0  0
    1.3006   67.4013   70.6294 H   0  0  0  0  0  0  0  0  0  0  0  0
    2.0267   66.3998   69.2835 H   0  0  0  0  0  0  0  0  0  0  0  0
    3.8591   61.7749   69.4907 H   0  0  0  0  0  0  0  0  0  0  0  0
    3.1721   64.1477   69.0768 H   0  0  0  0  0  0  0  0  0  0  0  0
    0.8270   61.3649   72.5679 H   0  0  0  0  0  0  0  0  0  0  0  0
    3.5294   57.9127   72.1640 H   0  0  0  0  0  0  0  0  0  0  0  0
    2.7258   57.1563   70.7467 H   0  0  0  0  0  0  0  0  0  0  0  0
    4.5057   57.3980   70.7467 H   0  0  0  0  0  0  0  0  0  0  0  0
    2.5172   59.7232   72.2475 H   0  0  0  0  0  0  0  0  0  0  0  0
   -0.5711   66.0041   68.7697 H   0  0  0  0  0  0  0  0  0  0  0  0
   -0.6185   67.6783   69.5385 H   0  0  0  0  0  0  0  0  0  0  0  0
    0.7776   68.5775   67.9176 H   0  0  0  0  0  0  0  0  0  0  0  0
    2.4154   66.9646   67.3784 H   0  0  0  0  0  0  0  0  0  0  0  0
    1.1453   65.6930   67.0435 H   0  0  0  0  0  0  0  0  0  0  0  0
    2.5612   66.9219   65.0919 H   0  0  0  0  0  0  0  0  0  0  0  0
    0.8835   66.3136   64.8845 H   0  0  0  0  0  0  0  0  0  0  0  0
    1.5561   69.0274   65.8145 H   0  0  0  0  0  0  0  0  0  0  0  0
   -0.6326   69.6702   65.6091 H   0  0  0  0  0  0  0  0  0  0  0  0
   -1.0040   68.2053   64.6136 H   0  0  0  0  0  0  0  0  0  0  0  0
   -1.5817   68.4113   67.2630 H   0  0  0  0  0  0  0  0  0  0  0  0
   -1.2043   66.8503   66.4091 H   0  0  0  0  0  0  0  0  0  0  0  0
    0.9442   68.3638   63.0261 H   0  0  0  0  0  0  0  0  0  0  0  0
    1.1591   70.0285   63.7992 H   0  0  0  0  0  0  0  0  0  0  0  0
    2.6644   68.3951   61.4062 H   0  0  0  0  0  0  0  0  0  0  0  0
    5.1032   68.4080   60.8975 H   0  0  0  0  0  0  0  0  0  0  0  0
    6.7493   68.9674   62.6840 H   0  0  0  0  0  0  0  0  0  0  0  0
    5.9575   69.4924   64.9872 H   0  0  0  0  0  0  0  0  0  0  0  0
    3.5244   69.4832   65.5047 H   0  0  0  0  0  0  0  0  0  0  0  0
  3  2  2  0
  4  3  1  0
  5  4  2  0
  6  5  1  0
  7  2  1  0
  7  6  2  0
  8  6  1  0
  9  8  1  0
 10  9  2  0
 10  5  1  0
 10  1  1  0
 12 11  1  0
 13 12  2  0
 14 12  1  0
 14  2  1  0
 15  1  1  0
 16 15  1  0
 17 16  1  0
 18 17  1  0
 19 18  1  0
 20 19  1  0
 21 20  1  0
 21 16  1  0
 22 19  1  0
 23 22  1  0
 24 23  2  0
 25 24  1  0
 26 25  2  0
 27 26  1  0
 28 27  2  0
 28 23  1  0
  1 29  1  0
  1 30  1  0
  3 31  1  0
  4 32  1  0
  7 33  1  0
 11 34  1  0
 11 35  1  0
 11 36  1  0
 14 37  1  0
 15 38  1  0
 15 39  1  0
 16 40  1  0
 17 41  1  0
 17 42  1  0
 18 43  1  0
 18 44  1  0
 19 45  1  0
 20 46  1  0
 20 47  1  0
 21 48  1  0
 21 49  1  0
 22 50  1  0
 22 51  1  0
 24 52  1  0
 25 53  1  0
 26 54  1  0
 27 55  1  0
 28 56  1  0
M  CHG  1  19   1
M  END
>  <score>  (2) 
-10.015

$$$$
=
     RDKit          3D

 56 59  0  0  0  0  0  0  0  0999 V2000
   -1.1150   66.8420   68.0640 C   0  0  0  0  0  0  0  0  0  0  0  0
    2.5140   68.1630   64.2640 C   0  0  0  0  0  0  0  0  0  0  0  0
    2.7800   67.3660   65.3860 C   0  0  0  0  0  0  0  0  0  0  0  0
    1.7860   67.0630   66.3340 C   0  0  0  0  0  0  0  0  0  0  0  0
    0.4960   67.5750   66.1350 C   0  0  0  0  0  0  0  0  0  0  0  0
    0.2610   68.3550   65.0180 C   0  0  0  0  0  0  0  0  0  0  0  0
    1.2240   68.6810   64.0650 C   0  0  0  0  0  0  0  0  0  0  0  0
   -1.0440   68.7410   65.0060 O   0  0  0  0  0  0  0  0  0  0  0  0
   -1.6920   68.2220   66.1160 N   0  0  0  0  0  0  0  0  0  0  0  0
   -0.7570   67.5340   66.7930 C   0  0  0  0  0  0  0  0  0  0  0  0
    5.4350   69.3980   62.2110 C   0  0  0  0  0  0  0  0  0  0  0  0
    4.6560   69.2110   63.4900 C   0  0  0  0  0  0  0  0  0  0  0  0
    5.0850   69.6380   64.5550 O   0  0  0  0  0  0  0  0  0  0  0  0
    3.4860   68.4960   63.2960 N   0  0  0  0  0  0  0  0  0  0  0  0
   -0.0650   67.0090   69.1730 C   0  0  0  0  0  0  0  0  0  0  0  0
    0.2920   65.7240   69.9490 C   0  0  0  0  0  0  0  0  0  0  0  0
    1.7940   65.4060   69.8110 C   0  0  0  0  0  0  0  0  0  0  0  0
    2.3310   64.4820   70.9060 C   0  0  0  0  0  0  0  0  0  0  0  0
    1.2130   63.6290   71.4350 N   0  0  0  0  0  4  0  0  0  0  0  0
    0.1630   64.4470   72.1470 C   0  0  0  0  0  0  0  0  0  0  0  0
   -0.0850   65.7770   71.4320 C   0  0  0  0  0  0  0  0  0  0  0  0
    1.6710   62.4120   72.2150 C   0  0  0  0  0  0  0  0  0  0  0  0
    2.9640   61.7860   71.7690 C   0  0  0  0  0  0  0  0  0  0  0  0
    3.1040   61.2790   70.4660 C   0  0  0  0  0  0  0  0  0  0  0  0
    4.3110   60.7120   70.0510 C   0  0  0  0  0  0  0  0  0  0  0  0
    5.3860   60.6350   70.9320 C   0  0  0  0  0  0  0  0  0  0  0  0
    5.2570   61.1210   72.2310 C   0  0  0  0  0  0  0  0  0  0  0  0
    4.0540   61.6890   72.6490 C   0  0  0  0  0  0  0  0  0  0  0  0
   -2.0702   67.2508   68.4253 H   0  0  0  0  0  0  0  0  0  0  0  0
   -1.1779   65.7671   67.8390 H   0  0  0  0  0  0  0  0  0  0  0  0
    3.7947   66.9662   65.5292 H   0  0  0  0  0  0  0  0  0  0  0  0
    2.0153   66.4392   67.2106 H   0  0  0  0  0  0  0  0  0  0  0  0
    0.9850   69.3142   63.1978 H   0  0  0  0  0  0  0  0  0  0  0  0
    6.4789   69.6486   62.4508 H   0  0  0  0  0  0  0  0  0  0  0  0
    5.4066   68.4675   61.6250 H   0  0  0  0  0  0  0  0  0  0  0  0
    4.9873   70.2142   61.6250 H   0  0  0  0  0  0  0  0  0  0  0  0
    3.3043   68.1700   62.3360 H   0  0  0  0  0  0  0  0  0  0  0  0
    0.8567   67.3935   68.7119 H   0  0  0  0  0  0  0  0  0  0  0  0
   -0.5107   67.6929   69.9103 H   0  0  0  0  0  0  0  0  0  0  0  0
   -0.3095   64.9235   69.4936 H   0  0  0  0  0  0  0  0  0  0  0  0
    1.9583   64.9220   68.8370 H   0  0  0  0  0  0  0  0  0  0  0  0
    2.3339   66.3600   69.9025 H   0  0  0  0  0  0  0  0  0  0  0  0
    3.1180   63.8370   70.4880 H   0  0  0  0  0  0  0  0  0  0  0  0
    2.7487   65.0873   71.7240 H   0  0  0  0  0  0  0  0  0  0  0  0
    0.7541   63.2271   70.6051 H   0  0  0  0  0  0  0  0  0  0  0  0
   -0.7766   63.8758   72.1773 H   0  0  0  0  0  0  0  0  0  0  0  0
    0.5211   64.6614   73.1648 H   0  0  0  0  0  0  0  0  0  0  0  0
   -1.1524   66.0291   71.5159 H   0  0  0  0  0  0  0  0  0  0  0  0
    0.5488   66.5377   71.9113 H   0  0  0  0  0  0  0  0  0  0  0  0
    1.7885   62.7120   73.2668 H   0  0  0  0  0  0  0  0  0  0  0  0
    0.8994   61.6464   72.0463 H   0  0  0  0  0  0  0  0  0  0  0  0
    2.2560   61.3291   69.7671 H   0  0  0  0  0  0  0  0  0  0  0  0
    4.4123   60.3256   69.0261 H   0  0  0  0  0  0  0  0  0  0  0  0
    6.3368   60.1906   70.6026 H   0  0  0  0  0  0  0  0  0  0  0  0
    6.1054   61.0566   72.9282 H   0  0  0  0  0  0  0  0  0  0  0  0
    3.9579   62.0648   73.6783 H   0  0  0  0  0  0  0  0  0  0  0  0
  3  2  2  0
  4  3  1  0
  5  4  2  0
  6  5  1  0
  7  2  1  0
  7  6  2  0
  8  6  1  0
  9  8  1  0
 10  9  2  0
 10  5  1  0
 10  1  1  0
 12 11  1  0
 13 12  2  0
 14 12  1  0
 14  2  1  0
 15  1  1  0
 16 15  1  0
 17 16  1  0
 18 17  1  0
 19 18  1  0
 20 19  1  0
 21 20  1  0
 21 16  1  0
 22 19  1  0
 23 22  1  0
 24 23  2  0
 25 24  1  0
 26 25  2  0
 27 26  1  0
 28 27  2  0
 28 23  1  0
  1 29  1  0
  1 30  1  0
  3 31  1  0
  4 32  1  0
  7 33  1  0
 11 34  1  0
 11 35  1  0
 11 36  1  0
 14 37  1  0
 15 38  1  0
 15 39  1  0
 16 40  1  0
 17 41  1  0
 17 42  1  0
 18 43  1  0
 18 44  1  0
 19 45  1  0
 20 46  1  0
 20 47  1  0
 21 48  1  0
 21 49  1  0
 22 50  1  0
 22 51  1  0
 24 52  1  0
 25 53  1  0
 26 54  1  0
 27 55  1  0
 28 56  1  0
M  CHG  1  19   1
M  END
>  <score>  (3) 
-9.899

$$$$
=
     RDKit          3D

 56 59  0  0  0  0  0  0  0  0999 V2000
    0.7190   68.3530   65.2190 C   0  0  0  0  0  0  0  0  0  0  0  0
    5.4050   70.1620   67.2500 C   0  0  0  0  0  0  0  0  0  0  0  0
    4.1670   70.2300   67.9030 C   0  0  0  0  0  0  0  0  0  0  0  0
    2.9880   69.7380   67.3140 C   0  0  0  0  0  0  0  0  0  0  0  0
    3.0700   69.1620   66.0390 C   0  0  0  0  0  0  0  0  0  0  0  0
    4.3040   69.1040   65.4190 C   0  0  0  0  0  0  0  0  0  0  0  0
    5.4890   69.5890   65.9710 C   0  0  0  0  0  0  0  0  0  0  0  0
    4.1700   68.5050   64.2050 O   0  0  0  0  0  0  0  0  0  0  0  0
    2.8440   68.1570   64.0030 N   0  0  0  0  0  0  0  0  0  0  0  0
    2.1900   68.5660   65.1030 C   0  0  0  0  0  0  0  0  0  0  0  0
    8.2820   71.4080   69.3570 C   0  0  0  0  0  0  0  0  0  0  0  0
    6.9020   70.8360   69.1450 C   0  0  0  0  0  0  0  0  0  0  0  0
    6.1850   70.5540   70.0980 O   0  0  0  0  0  0  0  0  0  0  0  0
    6.6070   70.6510   67.8040 N   0  0  0  0  0  0  0  0  0  0  0  0
    0.1780   68.5550   66.6430 C   0  0  0  0  0  0  0  0  0  0  0  0
    0.3950   67.3730   67.6100 C   0  0  0  0  0  0  0  0  0  0  0  0
    1.4810   67.7160   68.6500 C   0  0  0  0  0  0  0  0  0  0  0  0
    1.4200   66.8520   69.9110 C   0  0  0  0  0  0  0  0  0  0  0  0
    0.7880   65.5290   69.5820 N   0  0  0  0  0  4  0  0  0  0  0  0
   -0.6620   65.6760   69.1850 C   0  0  0  0  0  0  0  0  0  0  0  0
   -0.8800   66.9270   68.3310 C   0  0  0  0  0  0  0  0  0  0  0  0
    1.0300   64.4470   70.6160 C   0  0  0  0  0  0  0  0  0  0  0  0
    2.2050   63.5410   70.3660 C   0  0  0  0  0  0  0  0  0  0  0  0
    3.5020   63.9270   70.7410 C   0  0  0  0  0  0  0  0  0  0  0  0
    4.5880   63.0780   70.5210 C   0  0  0  0  0  0  0  0  0  0  0  0
    4.3940   61.8380   69.9180 C   0  0  0  0  0  0  0  0  0  0  0  0
    3.1150   61.4470   69.5280 C   0  0  0  0  0  0  0  0  0  0  0  0
    2.0280   62.2930   69.7470 C   0  0  0  0  0  0  0  0  0  0  0  0
    0.2111   69.0633   64.5501 H   0  0  0  0  0  0  0  0  0  0  0  0
    0.5223   67.3060   64.9450 H   0  0  0  0  0  0  0  0  0  0  0  0
    4.1156   70.6811   68.9050 H   0  0  0  0  0  0  0  0  0  0  0  0
    2.0250   69.8038   67.8415 H   0  0  0  0  0  0  0  0  0  0  0  0
    6.4446   69.5257   65.4299 H   0  0  0  0  0  0  0  0  0  0  0  0
    8.4827   71.4912   70.4353 H   0  0  0  0  0  0  0  0  0  0  0  0
    9.0286   70.7452   68.8951 H   0  0  0  0  0  0  0  0  0  0  0  0
    8.3408   72.4046   68.8951 H   0  0  0  0  0  0  0  0  0  0  0  0
    7.3500   70.8987   67.1351 H   0  0  0  0  0  0  0  0  0  0  0  0
    0.6734   69.4387   67.0715 H   0  0  0  0  0  0  0  0  0  0  0  0
   -0.9117   68.6640   66.5393 H   0  0  0  0  0  0  0  0  0  0  0  0
    0.7206   66.5297   66.9832 H   0  0  0  0  0  0  0  0  0  0  0  0
    2.4665   67.5774   68.1815 H   0  0  0  0  0  0  0  0  0  0  0  0
    1.3080   68.7559   68.9643 H   0  0  0  0  0  0  0  0  0  0  0  0
    2.4386   66.6870   70.2920 H   0  0  0  0  0  0  0  0  0  0  0  0
    0.8201   67.3642   70.6776 H   0  0  0  0  0  0  0  0  0  0  0  0
    1.2842   65.1839   68.7480 H   0  0  0  0  0  0  0  0  0  0  0  0
   -0.9672   64.7905   68.6081 H   0  0  0  0  0  0  0  0  0  0  0  0
   -1.2649   65.7707   70.1002 H   0  0  0  0  0  0  0  0  0  0  0  0
   -1.6533   66.7108   67.5792 H   0  0  0  0  0  0  0  0  0  0  0  0
   -1.1868   67.7418   69.0032 H   0  0  0  0  0  0  0  0  0  0  0  0
    1.1865   64.9395   71.5870 H   0  0  0  0  0  0  0  0  0  0  0  0
    0.1432   63.7974   70.5758 H   0  0  0  0  0  0  0  0  0  0  0  0
    3.6637   64.9076   71.2125 H   0  0  0  0  0  0  0  0  0  0  0  0
    5.5985   63.3890   70.8245 H   0  0  0  0  0  0  0  0  0  0  0  0
    5.2498   61.1678   69.7497 H   0  0  0  0  0  0  0  0  0  0  0  0
    2.9622   60.4698   69.0467 H   0  0  0  0  0  0  0  0  0  0  0  0
    1.0219   61.9795   69.4317 H   0  0  0  0  0  0  0  0  0  0  0  0
  3  2  2  0
  4  3  1  0
  5  4  2  0
  6  5  1  0
  7  2  1  0
  7  6  2  0
  8  6  1  0
  9  8  1  0
 10  9  2  0
 10  5  1  0
 10  1  1  0
 12 11  1  0
 13 12  2  0
 14 12  1  0
 14  2  1  0
 15  1  1  0
 16 15  1  0
 17 16  1  0
 18 17  1  0
 19 18  1  0
 20 19  1  0
 21 20  1  0
 21 16  1  0
 22 19  1  0
 23 22  1  0
 24 23  2  0
 25 24  1  0
 26 25  2  0
 27 26  1  0
 28 27  2  0
 28 23  1  0
  1 29  1  0
  1 30  1  0
  3 31  1  0
  4 32  1  0
  7 33  1  0
 11 34  1  0
 11 35  1  0
 11 36  1  0
 14 37  1  0
 15 38  1  0
 15 39  1  0
 16 40  1  0
 17 41  1  0
 17 42  1  0
 18 43  1  0
 18 44  1  0
 19 45  1  0
 20 46  1  0
 20 47  1  0
 21 48  1  0
 21 49  1  0
 22 50  1  0
 22 51  1  0
 24 52  1  0
 25 53  1  0
 26 54  1  0
 27 55  1  0
 28 56  1  0
M  CHG  1  19   1
M  END
>  <score>  (4) 
-9.857

$$$$
=
     RDKit          3D

 56 59  0  0  0  0  0  0  0  0999 V2000
    0.0900   65.6890   70.1320 C   0  0  0  0  0  0  0  0  0  0  0  0
    2.7040   61.9070   72.9970 C   0  0  0  0  0  0  0  0  0  0  0  0
    2.9230   62.1800   71.6400 C   0  0  0  0  0  0  0  0  0  0  0  0
    2.2060   63.1810   70.9590 C   0  0  0  0  0  0  0  0  0  0  0  0
    1.2510   63.9190   71.6720 C   0  0  0  0  0  0  0  0  0  0  0  0
    1.0570   63.6300   73.0100 C   0  0  0  0  0  0  0  0  0  0  0  0
    1.7450   62.6410   73.7120 C   0  0  0  0  0  0  0  0  0  0  0  0
    0.1040   64.4590   73.5150 O   0  0  0  0  0  0  0  0  0  0  0  0
   -0.3490   65.3090   72.5180 N   0  0  0  0  0  0  0  0  0  0  0  0
    0.3370   64.9700   71.4140 C   0  0  0  0  0  0  0  0  0  0  0  0
    3.9980   58.8190   74.7480 C   0  0  0  0  0  0  0  0  0  0  0  0
    3.0160   59.5880   73.8990 C   0  0  0  0  0  0  0  0  0  0  0  0
    2.0280   59.0370   73.4270 O   0  0  0  0  0  0  0  0  0  0  0  0
    3.3970   60.9060   73.7130 N   0  0  0  0  0  0  0  0  0  0  0  0
    1.1600   66.7410   69.8000 C   0  0  0  0  0  0  0  0  0  0  0  0
    1.1850   67.2230   68.3340 C   0  0  0  0  0  0  0  0  0  0  0  0
   -0.1880   67.0040   67.6670 C   0  0  0  0  0  0  0  0  0  0  0  0
   -0.4150   67.8720   66.4280 C   0  0  0  0  0  0  0  0  0  0  0  0
    0.9090   68.2200   65.8100 N   0  0  0  0  0  4  0  0  0  0  0  0
    1.7420   69.1010   66.7100 C   0  0  0  0  0  0  0  0  0  0  0  0
    1.6020   68.6880   68.1770 C   0  0  0  0  0  0  0  0  0  0  0  0
    0.8200   68.7190   64.3810 C   0  0  0  0  0  0  0  0  0  0  0  0
    2.1100   68.7540   63.6080 C   0  0  0  0  0  0  0  0  0  0  0  0
    3.3400   68.8940   64.2710 C   0  0  0  0  0  0  0  0  0  0  0  0
    4.5370   68.9120   63.5520 C   0  0  0  0  0  0  0  0  0  0  0  0
    4.5190   68.7970   62.1640 C   0  0  0  0  0  0  0  0  0  0  0  0
    3.3060   68.6710   61.4920 C   0  0  0  0  0  0  0  0  0  0  0  0
    2.1080   68.6530   62.2070 C   0  0  0  0  0  0  0  0  0  0  0  0
    0.0650   64.9496   69.3179 H   0  0  0  0  0  0  0  0  0  0  0  0
   -0.8650   66.2239   70.2412 H   0  0  0  0  0  0  0  0  0  0  0  0
    3.6765   61.5954   71.0919 H   0  0  0  0  0  0  0  0  0  0  0  0
    2.3904   63.3796   69.8929 H   0  0  0  0  0  0  0  0  0  0  0  0
    1.5455   62.4453   74.7759 H   0  0  0  0  0  0  0  0  0  0  0  0
    3.7772   58.9919   75.8116 H   0  0  0  0  0  0  0  0  0  0  0  0
    3.9126   57.7451   74.5257 H   0  0  0  0  0  0  0  0  0  0  0  0
    5.0201   59.1593   74.5257 H   0  0  0  0  0  0  0  0  0  0  0  0
    4.2876   61.1889   74.1463 H   0  0  0  0  0  0  0  0  0  0  0  0
    0.9848   67.6170   70.4419 H   0  0  0  0  0  0  0  0  0  0  0  0
    2.1295   66.2511   69.9736 H   0  0  0  0  0  0  0  0  0  0  0  0
    1.9523   66.6152   67.8322 H   0  0  0  0  0  0  0  0  0  0  0  0
   -0.2653   65.9477   67.3700 H   0  0  0  0  0  0  0  0  0  0  0  0
   -0.9528   67.2896   68.4042 H   0  0  0  0  0  0  0  0  0  0  0  0
   -1.0253   67.3183   65.6994 H   0  0  0  0  0  0  0  0  0  0  0  0
   -0.9377   68.7953   66.7184 H   0  0  0  0  0  0  0  0  0  0  0  0
    1.4177   67.3285   65.7249 H   0  0  0  0  0  0  0  0  0  0  0  0
    2.7982   69.0189   66.4139 H   0  0  0  0  0  0  0  0  0  0  0  0
    1.3879   70.1372   66.6058 H   0  0  0  0  0  0  0  0  0  0  0  0
    2.5694   68.8357   68.6794 H   0  0  0  0  0  0  0  0  0  0  0  0
    0.8148   69.3107   68.6270 H   0  0  0  0  0  0  0  0  0  0  0  0
    0.1220   68.0635   63.8395 H   0  0  0  0  0  0  0  0  0  0  0  0
    0.4927   69.7666   64.4549 H   0  0  0  0  0  0  0  0  0  0  0  0
    3.3608   68.9904   65.3666 H   0  0  0  0  0  0  0  0  0  0  0  0
    5.4950   69.0171   64.0823 H   0  0  0  0  0  0  0  0  0  0  0  0
    5.4627   68.8057   61.5989 H   0  0  0  0  0  0  0  0  0  0  0  0
    3.2922   68.5855   60.3954 H   0  0  0  0  0  0  0  0  0  0  0  0
    1.1533   68.5589   61.6687 H   0  0  0  0  0  0  0  0  0  0  0  0
  3  2  2  0
  4  3  1  0
  5  4  2  0
  6  5  1  0
  7  2  1  0
  7  6  2  0
  8  6  1  0
  9  8  1  0
 10  9  2  0
 10  5  1  0
 10  1  1  0
 12 11  1  0
 13 12  2  0
 14 12  1  0
 14  2  1  0
 15  1  1  0
 16 15  1  0
 17 16  1  0
 18 17  1  0
 19 18  1  0
 20 19  1  0
 21 20  1  0
 21 16  1  0
 22 19  1  0
 23 22  1  0
 24 23  2  0
 25 24  1  0
 26 25  2  0
 27 26  1  0
 28 27  2  0
 28 23  1  0
  1 29  1  0
  1 30  1  0
  3 31  1  0
  4 32  1  0
  7 33  1  0
 11 34  1  0
 11 35  1  0
 11 36  1  0
 14 37  1  0
 15 38  1  0
 15 39  1  0
 16 40  1  0
 17 41  1  0
 17 42  1  0
 18 43  1  0
 18 44  1  0
 19 45  1  0
 20 46  1  0
 20 47  1  0
 21 48  1  0
 21 49  1  0
 22 50  1  0
 22 51  1  0
 24 52  1  0
 25 53  1  0
 26 54  1  0
 27 55  1  0
 28 56  1  0
M  CHG  1  19   1
M  END
>  <score>  (5) 
-9.639

$$$$
=
     RDKit          3D

 56 59  0  0  0  0  0  0  0  0999 V2000
    0.2430   65.5330   70.2590 C   0  0  0  0  0  0  0  0  0  0  0  0
    0.9580   60.6290   72.4460 C   0  0  0  0  0  0  0  0  0  0  0  0
   -0.1830   61.4250   72.6160 C   0  0  0  0  0  0  0  0  0  0  0  0
   -0.3000   62.6920   72.0160 C   0  0  0  0  0  0  0  0  0  0  0  0
    0.7600   63.1550   71.2240 C   0  0  0  0  0  0  0  0  0  0  0  0
    1.8720   62.3480   71.0710 C   0  0  0  0  0  0  0  0  0  0  0  0
    2.0230   61.0920   71.6580 C   0  0  0  0  0  0  0  0  0  0  0  0
    2.7730   62.9720   70.2650 O   0  0  0  0  0  0  0  0  0  0  0  0
    2.2710   64.2030   69.8730 N   0  0  0  0  0  0  0  0  0  0  0  0
    1.0690   64.3090   70.4630 C   0  0  0  0  0  0  0  0  0  0  0  0
    1.6330   57.5910   74.5900 C   0  0  0  0  0  0  0  0  0  0  0  0
    1.5660   59.0740   74.3170 C   0  0  0  0  0  0  0  0  0  0  0  0
    1.8580   59.8860   75.1870 O   0  0  0  0  0  0  0  0  0  0  0  0
    1.1160   59.3560   73.0380 N   0  0  0  0  0  0  0  0  0  0  0  0
    1.0710   66.7960   69.9800 C   0  0  0  0  0  0  0  0  0  0  0  0
    1.1580   67.2210   68.4990 C   0  0  0  0  0  0  0  0  0  0  0  0
   -0.2220   67.1130   67.8220 C   0  0  0  0  0  0  0  0  0  0  0  0
   -0.3510   67.9550   66.5510 C   0  0  0  0  0  0  0  0  0  0  0  0
    1.0070   68.1480   65.9380 N   0  0  0  0  0  4  0  0  0  0  0  0
    1.9140   68.9760   66.8180 C   0  0  0  0  0  0  0  0  0  0  0  0
    1.7190   68.6310   68.2960 C   0  0  0  0  0  0  0  0  0  0  0  0
    0.9810   68.6020   64.4920 C   0  0  0  0  0  0  0  0  0  0  0  0
    2.1310   68.1490   63.6330 C   0  0  0  0  0  0  0  0  0  0  0  0
    2.3330   68.7000   62.3570 C   0  0  0  0  0  0  0  0  0  0  0  0
    3.4090   68.2880   61.5670 C   0  0  0  0  0  0  0  0  0  0  0  0
    4.2890   67.3170   62.0390 C   0  0  0  0  0  0  0  0  0  0  0  0
    4.0920   66.7520   63.2960 C   0  0  0  0  0  0  0  0  0  0  0  0
    3.0190   67.1610   64.0880 C   0  0  0  0  0  0  0  0  0  0  0  0
   -0.4275   65.3612   69.4040 H   0  0  0  0  0  0  0  0  0  0  0  0
   -0.3077   65.7093   71.1948 H   0  0  0  0  0  0  0  0  0  0  0  0
   -1.0101   61.0485   73.2359 H   0  0  0  0  0  0  0  0  0  0  0  0
   -1.2014   63.3046   72.1647 H   0  0  0  0  0  0  0  0  0  0  0  0
    2.9335   60.4927   71.5104 H   0  0  0  0  0  0  0  0  0  0  0  0
    1.6408   57.4181   75.6763 H   0  0  0  0  0  0  0  0  0  0  0  0
    0.7563   57.0965   74.1463 H   0  0  0  0  0  0  0  0  0  0  0  0
    2.5507   57.1776   74.1463 H   0  0  0  0  0  0  0  0  0  0  0  0
    0.8685   58.5459   72.4520 H   0  0  0  0  0  0  0  0  0  0  0  0
    0.6226   67.6266   70.5449 H   0  0  0  0  0  0  0  0  0  0  0  0
    2.1000   66.5555   70.2856 H   0  0  0  0  0  0  0  0  0  0  0  0
    1.8674   66.5238   68.0292 H   0  0  0  0  0  0  0  0  0  0  0  0
   -0.3988   66.0594   67.5600 H   0  0  0  0  0  0  0  0  0  0  0  0
   -0.9627   67.4972   68.5388 H   0  0  0  0  0  0  0  0  0  0  0  0
   -1.0068   67.4390   65.8343 H   0  0  0  0  0  0  0  0  0  0  0  0
   -0.7822   68.9351   66.8027 H   0  0  0  0  0  0  0  0  0  0  0  0
    1.4261   67.2083   65.8903 H   0  0  0  0  0  0  0  0  0  0  0  0
    2.9600   68.7807   66.5392 H   0  0  0  0  0  0  0  0  0  0  0  0
    1.6649   70.0376   66.6729 H   0  0  0  0  0  0  0  0  0  0  0  0
    2.6912   68.7008   68.8059 H   0  0  0  0  0  0  0  0  0  0  0  0
    0.9920   69.3436   68.7128 H   0  0  0  0  0  0  0  0  0  0  0  0
    0.0533   68.2235   64.0379 H   0  0  0  0  0  0  0  0  0  0  0  0
    1.0532   69.6991   64.5263 H   0  0  0  0  0  0  0  0  0  0  0  0
    1.6378   69.4627   61.9763 H   0  0  0  0  0  0  0  0  0  0  0  0
    3.5614   68.7307   60.5716 H   0  0  0  0  0  0  0  0  0  0  0  0
    5.1392   66.9967   61.4189 H   0  0  0  0  0  0  0  0  0  0  0  0
    4.7842   65.9811   63.6656 H   0  0  0  0  0  0  0  0  0  0  0  0
    2.8672   66.7055   65.0777 H   0  0  0  0  0  0  0  0  0  0  0  0
  3  2  2  0
  4  3  1  0
  5  4  2  0
  6  5  1  0
  7  2  1  0
  7  6  2  0
  8  6  1  0
  9  8  1  0
 10  9  2  0
 10  5  1  0
 10  1  1  0
 12 11  1  0
 13 12  2  0
 14 12  1  0
 14  2  1  0
 15  1  1  0
 16 15  1  0
 17 16  1  0
 18 17  1  0
 19 18  1  0
 20 19  1  0
 21 20  1  0
 21 16  1  0
 22 19  1  0
 23 22  1  0
 24 23  2  0
 25 24  1  0
 26 25  2  0
 27 26  1  0
 28 27  2  0
 28 23  1  0
  1 29  1  0
  1 30  1  0
  3 31  1  0
  4 32  1  0
  7 33  1  0
 11 34  1  0
 11 35  1  0
 11 36  1  0
 14 37  1  0
 15 38  1  0
 15 39  1  0
 16 40  1  0
 17 41  1  0
 17 42  1  0
 18 43  1  0
 18 44  1  0
 19 45  1  0
 20 46  1  0
 20 47  1  0
 21 48  1  0
 21 49  1  0
 22 50  1  0
 22 51  1  0
 24 52  1  0
 25 53  1  0
 26 54  1  0
 27 55  1  0
 28 56  1  0
M  CHG  1  19   1
M  END
>  <score>  (6) 
-9.581

$$$$
=
     RDKit          3D

 56 59  0  0  0  0  0  0  0  0999 V2000
   -0.1030   69.2900   62.9420 C   0  0  0  0  0  0  0  0  0  0  0  0
   -0.4770   67.4040   68.0070 C   0  0  0  0  0  0  0  0  0  0  0  0
    0.7210   67.7410   67.3620 C   0  0  0  0  0  0  0  0  0  0  0  0
    0.7420   68.2260   66.0420 C   0  0  0  0  0  0  0  0  0  0  0  0
   -0.4770   68.3770   65.3670 C   0  0  0  0  0  0  0  0  0  0  0  0
   -1.6440   68.0400   66.0280 C   0  0  0  0  0  0  0  0  0  0  0  0
   -1.6990   67.5490   67.3310 C   0  0  0  0  0  0  0  0  0  0  0  0
   -2.7060   68.2670   65.2090 O   0  0  0  0  0  0  0  0  0  0  0  0
   -2.2580   68.7570   63.9920 N   0  0  0  0  0  0  0  0  0  0  0  0
   -0.9200   68.8080   64.0920 C   0  0  0  0  0  0  0  0  0  0  0  0
   -0.0390   65.7310   71.3660 C   0  0  0  0  0  0  0  0  0  0  0  0
    0.3790   66.0840   69.9600 C   0  0  0  0  0  0  0  0  0  0  0  0
    1.4430   65.6840   69.5010 O   0  0  0  0  0  0  0  0  0  0  0  0
   -0.5390   66.9050   69.3260 N   0  0  0  0  0  0  0  0  0  0  0  0
    1.0910   68.3820   62.6100 C   0  0  0  0  0  0  0  0  0  0  0  0
    2.3950   68.6920   63.3740 C   0  0  0  0  0  0  0  0  0  0  0  0
    2.7880   67.5080   64.2790 C   0  0  0  0  0  0  0  0  0  0  0  0
    4.2660   67.5030   64.6770 C   0  0  0  0  0  0  0  0  0  0  0  0
    4.7990   68.9070   64.6460 N   0  0  0  0  0  4  0  0  0  0  0  0
    4.8120   69.4780   63.2480 C   0  0  0  0  0  0  0  0  0  0  0  0
    3.5710   69.0510   62.4620 C   0  0  0  0  0  0  0  0  0  0  0  0
    6.1030   69.0960   65.3940 C   0  0  0  0  0  0  0  0  0  0  0  0
    6.0070   69.7700   66.7360 C   0  0  0  0  0  0  0  0  0  0  0  0
    7.1600   70.2380   67.3880 C   0  0  0  0  0  0  0  0  0  0  0  0
    7.0670   70.8760   68.6270 C   0  0  0  0  0  0  0  0  0  0  0  0
    5.8240   71.0480   69.2310 C   0  0  0  0  0  0  0  0  0  0  0  0
    4.6740   70.5770   68.6030 C   0  0  0  0  0  0  0  0  0  0  0  0
    4.7640   69.9400   67.3660 C   0  0  0  0  0  0  0  0  0  0  0  0
   -0.7516   69.3490   62.0556 H   0  0  0  0  0  0  0  0  0  0  0  0
    0.3075   70.2699   63.2272 H   0  0  0  0  0  0  0  0  0  0  0  0
    1.6713   67.6228   67.9033 H   0  0  0  0  0  0  0  0  0  0  0  0
    1.6927   68.4808   65.5509 H   0  0  0  0  0  0  0  0  0  0  0  0
   -2.6552   67.2872   67.8077 H   0  0  0  0  0  0  0  0  0  0  0  0
    0.5978   66.2688   72.0838 H   0  0  0  0  0  0  0  0  0  0  0  0
   -1.0893   66.0196   71.5197 H   0  0  0  0  0  0  0  0  0  0  0  0
    0.0697   64.6472   71.5197 H   0  0  0  0  0  0  0  0  0  0  0  0
   -1.3611   67.1833   69.8806 H   0  0  0  0  0  0  0  0  0  0  0  0
    0.8024   67.3456   62.8392 H   0  0  0  0  0  0  0  0  0  0  0  0
    1.3156   68.5556   61.5473 H   0  0  0  0  0  0  0  0  0  0  0  0
    2.1795   69.5816   63.9840 H   0  0  0  0  0  0  0  0  0  0  0  0
    2.1815   67.5550   65.1955 H   0  0  0  0  0  0  0  0  0  0  0  0
    2.6067   66.5886   63.7030 H   0  0  0  0  0  0  0  0  0  0  0  0
    4.3706   67.0937   65.6926 H   0  0  0  0  0  0  0  0  0  0  0  0
    4.8335   66.8803   63.9698 H   0  0  0  0  0  0  0  0  0  0  0  0
    4.1263   69.4717   65.1840 H   0  0  0  0  0  0  0  0  0  0  0  0
    4.8370   70.5760   63.3096 H   0  0  0  0  0  0  0  0  0  0  0  0
    5.7020   69.0973   62.7256 H   0  0  0  0  0  0  0  0  0  0  0  0
    3.2676   69.8790   61.8044 H   0  0  0  0  0  0  0  0  0  0  0  0
    3.8334   68.1520   61.8850 H   0  0  0  0  0  0  0  0  0  0  0  0
    6.5484   68.1022   65.5486 H   0  0  0  0  0  0  0  0  0  0  0  0
    6.7065   69.7701   64.7683 H   0  0  0  0  0  0  0  0  0  0  0  0
    8.1452   70.1007   66.9184 H   0  0  0  0  0  0  0  0  0  0  0  0
    7.9761   71.2428   69.1260 H   0  0  0  0  0  0  0  0  0  0  0  0
    5.7507   71.5558   70.2040 H   0  0  0  0  0  0  0  0  0  0  0  0
    3.6931   70.7076   69.0834 H   0  0  0  0  0  0  0  0  0  0  0  0
    3.8513   69.5667   66.8785 H   0  0  0  0  0  0  0  0  0  0  0  0
  3  2  2  0
  4  3  1  0
  5  4  2  0
  6  5  1  0
  7  2  1  0
  7  6  2  0
  8  6  1  0
  9  8  1  0
 10  9  2  0
 10  5  1  0
 10  1  1  0
 12 11  1  0
 13 12  2  0
 14 12  1  0
 14  2  1  0
 15  1  1  0
 16 15  1  0
 17 16  1  0
 18 17  1  0
 19 18  1  0
 20 19  1  0
 21 20  1  0
 21 16  1  0
 22 19  1  0
 23 22  1  0
 24 23  2  0
 25 24  1  0
 26 25  2  0
 27 26  1  0
 28 27  2  0
 28 23  1  0
  1 29  1  0
  1 30  1  0
  3 31  1  0
  4 32  1  0
  7 33  1  0
 11 34  1  0
 11 35  1  0
 11 36  1  0
 14 37  1  0
 15 38  1  0
 15 39  1  0
 16 40  1  0
 17 41  1  0
 17 42  1  0
 18 43  1  0
 18 44  1  0
 19 45  1  0
 20 46  1  0
 20 47  1  0
 21 48  1  0
 21 49  1  0
 22 50  1  0
 22 51  1  0
 24 52  1  0
 25 53  1  0
 26 54  1  0
 27 55  1  0
 28 56  1  0
M  CHG  1  19   1
M  END
>  <score>  (7) 
-9.281

$$$$
=
     RDKit          3D

 56 59  0  0  0  0  0  0  0  0999 V2000
    4.3370   60.6140   70.6910 C   0  0  0  0  0  0  0  0  0  0  0  0
    0.6420   57.9530   73.6260 C   0  0  0  0  0  0  0  0  0  0  0  0
    0.8800   59.3330   73.6930 C   0  0  0  0  0  0  0  0  0  0  0  0
    1.8580   59.9580   72.8990 C   0  0  0  0  0  0  0  0  0  0  0  0
    2.6050   59.1660   72.0160 C   0  0  0  0  0  0  0  0  0  0  0  0
    2.3480   57.8090   71.9670 C   0  0  0  0  0  0  0  0  0  0  0  0
    1.3930   57.1570   72.7450 C   0  0  0  0  0  0  0  0  0  0  0  0
    3.1660   57.2290   71.0480 O   0  0  0  0  0  0  0  0  0  0  0  0
    3.9790   58.1950   70.4740 N   0  0  0  0  0  0  0  0  0  0  0  0
    3.6430   59.3510   71.0700 C   0  0  0  0  0  0  0  0  0  0  0  0
   -1.3800   55.9410   76.1030 C   0  0  0  0  0  0  0  0  0  0  0  0
   -0.1040   56.5200   75.5440 C   0  0  0  0  0  0  0  0  0  0  0  0
    0.9710   56.3240   76.0980 O   0  0  0  0  0  0  0  0  0  0  0  0
   -0.3240   57.2880   74.4120 N   0  0  0  0  0  0  0  0  0  0  0  0
    3.8280   61.2280   69.3780 C   0  0  0  0  0  0  0  0  0  0  0  0
    2.9910   62.5160   69.5260 C   0  0  0  0  0  0  0  0  0  0  0  0
    1.5310   62.1750   69.8880 C   0  0  0  0  0  0  0  0  0  0  0  0
    0.7700   63.3360   70.5300 C   0  0  0  0  0  0  0  0  0  0  0  0
    1.3690   64.6380   70.0800 N   0  0  0  0  0  4  0  0  0  0  0  0
    2.7790   64.8190   70.5880 C   0  0  0  0  0  0  0  0  0  0  0  0
    3.5550   63.5010   70.5540 C   0  0  0  0  0  0  0  0  0  0  0  0
    0.4810   65.8460   70.3050 C   0  0  0  0  0  0  0  0  0  0  0  0
    0.1680   66.6770   69.0900 C   0  0  0  0  0  0  0  0  0  0  0  0
   -1.0690   66.5550   68.4370 C   0  0  0  0  0  0  0  0  0  0  0  0
   -1.3620   67.3380   67.3180 C   0  0  0  0  0  0  0  0  0  0  0  0
   -0.4210   68.2440   66.8350 C   0  0  0  0  0  0  0  0  0  0  0  0
    0.8140   68.3660   67.4650 C   0  0  0  0  0  0  0  0  0  0  0  0
    1.1100   67.5860   68.5830 C   0  0  0  0  0  0  0  0  0  0  0  0
    4.1890   61.3471   71.4976 H   0  0  0  0  0  0  0  0  0  0  0  0
    5.3977   60.3651   70.5397 H   0  0  0  0  0  0  0  0  0  0  0  0
    0.2845   59.9446   74.3868 H   0  0  0  0  0  0  0  0  0  0  0  0
    2.0325   61.0418   72.9691 H   0  0  0  0  0  0  0  0  0  0  0  0
    1.2348   56.0708   72.6727 H   0  0  0  0  0  0  0  0  0  0  0  0
   -1.3402   55.9591   77.2021 H   0  0  0  0  0  0  0  0  0  0  0  0
   -2.2362   56.5388   75.7572 H   0  0  0  0  0  0  0  0  0  0  0  0
   -1.4940   54.9030   75.7572 H   0  0  0  0  0  0  0  0  0  0  0  0
   -1.3038   57.3848   74.1095 H   0  0  0  0  0  0  0  0  0  0  0  0
    4.7020   61.4621   68.7524 H   0  0  0  0  0  0  0  0  0  0  0  0
    3.1537   60.4794   68.9366 H   0  0  0  0  0  0  0  0  0  0  0  0
    3.0344   63.0148   68.5465 H   0  0  0  0  0  0  0  0  0  0  0  0
    1.0046   61.8811   68.9680 H   0  0  0  0  0  0  0  0  0  0  0  0
    1.5646   61.3632   70.6296 H   0  0  0  0  0  0  0  0  0  0  0  0
   -0.2865   63.2942   70.2265 H   0  0  0  0  0  0  0  0  0  0  0  0
    0.8405   63.2593   71.6251 H   0  0  0  0  0  0  0  0  0  0  0  0
    1.4350   64.5727   69.0542 H   0  0  0  0  0  0  0  0  0  0  0  0
    3.2960   65.5557   69.9556 H   0  0  0  0  0  0  0  0  0  0  0  0
    2.7307   65.1670   71.6304 H   0  0  0  0  0  0  0  0  0  0  0  0
    4.6035   63.7152   70.2993 H   0  0  0  0  0  0  0  0  0  0  0  0
    3.4675   63.0354   71.5467 H   0  0  0  0  0  0  0  0  0  0  0  0
   -0.4723   65.4887   70.7217 H   0  0  0  0  0  0  0  0  0  0  0  0
    1.0490   66.5077   70.9754 H   0  0  0  0  0  0  0  0  0  0  0  0
   -1.8138   65.8366   68.8099 H   0  0  0  0  0  0  0  0  0  0  0  0
   -2.3367   67.2390   66.8179 H   0  0  0  0  0  0  0  0  0  0  0  0
   -0.6538   68.8629   65.9559 H   0  0  0  0  0  0  0  0  0  0  0  0
    1.5582   69.0790   67.0805 H   0  0  0  0  0  0  0  0  0  0  0  0
    2.0905   67.6841   69.0718 H   0  0  0  0  0  0  0  0  0  0  0  0
  3  2  2  0
  4  3  1  0
  5  4  2  0
  6  5  1  0
  7  2  1  0
  7  6  2  0
  8  6  1  0
  9  8  1  0
 10  9  2  0
 10  5  1  0
 10  1  1  0
 12 11  1  0
 13 12  2  0
 14 12  1  0
 14  2  1  0
 15  1  1  0
 16 15  1  0
 17 16  1  0
 18 17  1  0
 19 18  1  0
 20 19  1  0
 21 20  1  0
 21 16  1  0
 22 19  1  0
 23 22  1  0
 24 23  2  0
 25 24  1  0
 26 25  2  0
 27 26  1  0
 28 27  2  0
 28 23  1  0
  1 29  1  0
  1 30  1  0
  3 31  1  0
  4 32  1  0
  7 33  1  0
 11 34  1  0
 11 35  1  0
 11 36  1  0
 14 37  1  0
 15 38  1  0
 15 39  1  0
 16 40  1  0
 17 41  1  0
 17 42  1  0
 18 43  1  0
 18 44  1  0
 19 45  1  0
 20 46  1  0
 20 47  1  0
 21 48  1  0
 21 49  1  0
 22 50  1  0
 22 51  1  0
 24 52  1  0
 25 53  1  0
 26 54  1  0
 27 55  1  0
 28 56  1  0
M  CHG  1  19   1
M  END
>  <score>  (8) 
-9.225

$$$$
=
     RDKit          3D

 56 59  0  0  0  0  0  0  0  0999 V2000
    5.3750   61.6600   71.0750 C   0  0  0  0  0  0  0  0  0  0  0  0
    2.3680   57.4530   72.6910 C   0  0  0  0  0  0  0  0  0  0  0  0
    2.8700   58.4530   73.5350 C   0  0  0  0  0  0  0  0  0  0  0  0
    3.6450   59.5200   73.0440 C   0  0  0  0  0  0  0  0  0  0  0  0
    3.9110   59.5730   71.6690 C   0  0  0  0  0  0  0  0  0  0  0  0
    3.4020   58.5750   70.8590 C   0  0  0  0  0  0  0  0  0  0  0  0
    2.6380   57.5010   71.3140 C   0  0  0  0  0  0  0  0  0  0  0  0
    3.7630   58.8150   69.5690 O   0  0  0  0  0  0  0  0  0  0  0  0
    4.5180   59.9760   69.5070 N   0  0  0  0  0  0  0  0  0  0  0  0
    4.6120   60.4160   70.7720 C   0  0  0  0  0  0  0  0  0  0  0  0
    0.8150   54.4600   74.3930 C   0  0  0  0  0  0  0  0  0  0  0  0
    1.8540   55.5420   74.2300 C   0  0  0  0  0  0  0  0  0  0  0  0
    2.7810   55.6480   75.0240 O   0  0  0  0  0  0  0  0  0  0  0  0
    1.5940   56.3640   73.1460 N   0  0  0  0  0  0  0  0  0  0  0  0
    4.4970   62.9190   71.1530 C   0  0  0  0  0  0  0  0  0  0  0  0
    3.0000   62.6690   71.4320 C   0  0  0  0  0  0  0  0  0  0  0  0
    2.6910   62.8480   72.9320 C   0  0  0  0  0  0  0  0  0  0  0  0
    1.2130   63.1120   73.2280 C   0  0  0  0  0  0  0  0  0  0  0  0
    0.3690   62.5150   72.1380 N   0  0  0  0  0  4  0  0  0  0  0  0
    0.5900   63.2000   70.8100 C   0  0  0  0  0  0  0  0  0  0  0  0
    2.0650   63.5570   70.6070 C   0  0  0  0  0  0  0  0  0  0  0  0
   -1.0930   62.3470   72.5000 C   0  0  0  0  0  0  0  0  0  0  0  0
   -1.4410   61.1230   73.3040 C   0  0  0  0  0  0  0  0  0  0  0  0
   -0.5430   60.0470   73.3980 C   0  0  0  0  0  0  0  0  0  0  0  0
   -0.8630   58.9190   74.1570 C   0  0  0  0  0  0  0  0  0  0  0  0
   -2.0840   58.8490   74.8220 C   0  0  0  0  0  0  0  0  0  0  0  0
   -2.9890   59.9020   74.7270 C   0  0  0  0  0  0  0  0  0  0  0  0
   -2.6730   61.0310   73.9710 C   0  0  0  0  0  0  0  0  0  0  0  0
    5.8820   61.5296   72.0424 H   0  0  0  0  0  0  0  0  0  0  0  0
    6.0834   61.8126   70.2474 H   0  0  0  0  0  0  0  0  0  0  0  0
    2.6519   58.4023   74.6120 H   0  0  0  0  0  0  0  0  0  0  0  0
    4.0327   60.2938   73.7230 H   0  0  0  0  0  0  0  0  0  0  0  0
    2.2644   56.7278   70.6266 H   0  0  0  0  0  0  0  0  0  0  0  0
    0.6401   54.2779   75.4636 H   0  0  0  0  0  0  0  0  0  0  0  0
   -0.1241   54.7787   73.9171 H   0  0  0  0  0  0  0  0  0  0  0  0
    1.1715   53.5346   73.9171 H   0  0  0  0  0  0  0  0  0  0  0  0
    0.7385   56.1570   72.6111 H   0  0  0  0  0  0  0  0  0  0  0  0
    4.8899   63.5568   71.9585 H   0  0  0  0  0  0  0  0  0  0  0  0
    4.5451   63.3828   70.1567 H   0  0  0  0  0  0  0  0  0  0  0  0
    2.8077   61.6302   71.1256 H   0  0  0  0  0  0  0  0  0  0  0  0
    2.9928   61.9318   73.4606 H   0  0  0  0  0  0  0  0  0  0  0  0
    3.2501   63.7321   73.2723 H   0  0  0  0  0  0  0  0  0  0  0  0
    0.9447   62.6543   74.1916 H   0  0  0  0  0  0  0  0  0  0  0  0
    1.0368   64.1968   73.2753 H   0  0  0  0  0  0  0  0  0  0  0  0
    0.7044   61.5475   72.0265 H   0  0  0  0  0  0  0  0  0  0  0  0
    0.2698   62.5262   70.0016 H   0  0  0  0  0  0  0  0  0  0  0  0
    0.0027   64.1300   70.7970 H   0  0  0  0  0  0  0  0  0  0  0  0
    2.3137   63.4383   69.5421 H   0  0  0  0  0  0  0  0  0  0  0  0
    2.2075   64.5952   70.9413 H   0  0  0  0  0  0  0  0  0  0  0  0
   -1.3984   63.2291   73.0820 H   0  0  0  0  0  0  0  0  0  0  0  0
   -1.6224   62.2314   71.5427 H   0  0  0  0  0  0  0  0  0  0  0  0
    0.4205   60.0931   72.8693 H   0  0  0  0  0  0  0  0  0  0  0  0
   -0.1494   58.0850   74.2294 H   0  0  0  0  0  0  0  0  0  0  0  0
   -2.3334   57.9617   75.4224 H   0  0  0  0  0  0  0  0  0  0  0  0
   -3.9555   59.8439   75.2491 H   0  0  0  0  0  0  0  0  0  0  0  0
   -3.3958   61.8569   73.8968 H   0  0  0  0  0  0  0  0  0  0  0  0
  3  2  2  0
  4  3  1  0
  5  4  2  0
  6  5  1  0
  7  2  1  0
  7  6  2  0
  8  6  1  0
  9  8  1  0
 10  9  2  0
 10  5  1  0
 10  1  1  0
 12 11  1  0
 13 12  2  0
 14 12  1  0
 14  2  1  0
 15  1  1  0
 16 15  1  0
 17 16  1  0
 18 17  1  0
 19 18  1  0
 20 19  1  0
 21 20  1  0
 21 16  1  0
 22 19  1  0
 23 22  1  0
 24 23  2  0
 25 24  1  0
 26 25  2  0
 27 26  1  0
 28 27  2  0
 28 23  1  0
  1 29  1  0
  1 30  1  0
  3 31  1  0
  4 32  1  0
  7 33  1  0
 11 34  1  0
 11 35  1  0
 11 36  1  0
 14 37  1  0
 15 38  1  0
 15 39  1  0
 16 40  1  0
 17 41  1  0
 17 42  1  0
 18 43  1  0
 18 44  1  0
 19 45  1  0
 20 46  1  0
 20 47  1  0
 21 48  1  0
 21 49  1  0
 22 50  1  0
 22 51  1  0
 24 52  1  0
 25 53  1  0
 26 54  1  0
 27 55  1  0
 28 56  1  0
M  CHG  1  19   1
M  END
>  <score>  (9) 
-9.121

$$$$
