=
     RDKit          3D

 53 54  0  0  0  0  0  0  0  0999 V2000
    0.3880   68.7580   64.2200 C   0  0  0  0  0  0  0  0  0  0  0  0
   -0.3860   69.3970   63.2470 C   0  0  0  0  0  0  0  0  0  0  0  0
    0.1120   69.5530   61.9530 C   0  0  0  0  0  0  0  0  0  0  0  0
    1.3860   69.0860   61.6340 C   0  0  0  0  0  0  0  0  0  0  0  0
    2.1730   68.4680   62.6090 C   0  0  0  0  0  0  0  0  0  0  0  0
    1.6830   68.3090   63.9120 C   0  0  0  0  0  0  0  0  0  0  0  0
    2.5180   67.6380   64.9520 C   0  0  0  0  0  0  0  0  0  0  0  0
    2.2360   66.4950   65.3190 O   0  0  0  0  0  0  0  0  0  0  0  0
    3.7160   68.3920   65.4990 C   0  0  0  0  0  0  0  0  0  0  0  0
    3.2890   69.4180   66.5470 C   0  0  0  0  0  0  0  0  0  0  0  0
    4.4710   69.9490   67.3150 C   0  0  0  0  0  0  0  0  0  0  0  0
    4.3270   70.3540   68.6490 C   0  0  0  0  0  0  0  0  0  0  0  0
    5.4280   70.8270   69.3660 C   0  0  0  0  0  0  0  0  0  0  0  0
    6.6800   70.8940   68.7600 C   0  0  0  0  0  0  0  0  0  0  0  0
    6.8340   70.4880   67.4360 C   0  0  0  0  0  0  0  0  0  0  0  0
    5.7360   70.0150   66.7160 C   0  0  0  0  0  0  0  0  0  0  0  0
   -0.0710   68.6630   65.5080 O   0  0  0  0  0  0  0  0  0  0  0  0
   -1.5010   68.6130   65.6070 C   0  0  0  0  0  0  0  0  0  0  0  0
   -1.8850   68.2620   67.0500 C   0  0  1  0  0  0  0  0  0  0  0  0
   -3.3150   68.3070   67.2370 O   0  0  0  0  0  0  0  0  0  0  0  0
   -1.4220   66.8620   67.4880 C   0  0  0  0  0  0  0  0  0  0  0  0
    0.0880   66.8480   67.4700 N   0  0  0  0  0  4  0  0  0  0  0  0
    0.7600   67.2660   68.7280 C   0  0  0  0  0  0  0  0  0  0  0  0
    1.4070   65.3660   70.3000 C   0  0  0  0  0  0  0  0  0  0  0  0
    0.3380   66.3650   69.8830 C   0  0  0  0  0  0  0  0  0  0  0  0
   -1.3867   69.7765   63.5013 H   0  0  0  0  0  0  0  0  0  0  0  0
   -0.5014   70.0450   61.1838 H   0  0  0  0  0  0  0  0  0  0  0  0
    1.7730   69.2044   60.6112 H   0  0  0  0  0  0  0  0  0  0  0  0
    3.1795   68.1055   62.3531 H   0  0  0  0  0  0  0  0  0  0  0  0
    4.4113   67.6753   65.9604 H   0  0  0  0  0  0  0  0  0  0  0  0
    4.2031   68.9235   64.6682 H   0  0  0  0  0  0  0  0  0  0  0  0
    2.7853   70.2557   66.0424 H   0  0  0  0  0  0  0  0  0  0  0  0
    2.6105   68.9231   67.2574 H   0  0  0  0  0  0  0  0  0  0  0  0
    3.3412   70.2990   69.1339 H   0  0  0  0  0  0  0  0  0  0  0  0
    5.3061   71.1472   70.4113 H   0  0  0  0  0  0  0  0  0  0  0  0
    7.5464   71.2670   69.3259 H   0  0  0  0  0  0  0  0  0  0  0  0
    7.8230   70.5404   66.9573 H   0  0  0  0  0  0  0  0  0  0  0  0
    5.8644   69.6922   65.6723 H   0  0  0  0  0  0  0  0  0  0  0  0
   -1.9245   69.5924   65.3396 H   0  0  0  0  0  0  0  0  0  0  0  0
   -1.8967   67.8511   64.9193 H   0  0  0  0  0  0  0  0  0  0  0  0
   -1.3732   69.0187   67.6627 H   0  0  0  0  0  0  0  0  0  0  0  0
   -3.5211   68.3135   68.2053 H   0  0  0  0  0  0  0  0  0  0  0  0
   -1.7860   66.6484   68.5038 H   0  0  0  0  0  0  0  0  0  0  0  0
   -1.8213   66.0952   66.8078 H   0  0  0  0  0  0  0  0  0  0  0  0
    0.3914   65.8874   67.2551 H   0  0  0  0  0  0  0  0  0  0  0  0
    0.3631   67.5457   66.7640 H   0  0  0  0  0  0  0  0  0  0  0  0
    1.8500   67.1987   68.5959 H   0  0  0  0  0  0  0  0  0  0  0  0
    0.4695   68.3013   68.9597 H   0  0  0  0  0  0  0  0  0  0  0  0
    1.4569   65.3193   71.3979 H   0  0  0  0  0  0  0  0  0  0  0  0
    1.1552   64.3720   69.9018 H   0  0  0  0  0  0  0  0  0  0  0  0
    2.3817   65.6844   69.9018 H   0  0  0  0  0  0  0  0  0  0  0  0
   -0.5594   65.8067   69.5782 H   0  0  0  0  0  0  0  0  0  0  0  0
    0.1517   67.0174   70.7488 H   0  0  0  0  0  0  0  0  0  0  0  0
  2  1  2  0
  3  2  1  0
  4  3  2  0
  5  4  1  0
  6  5  2  0
  6  1  1  0
  7  6  1  0
  8  7  2  0
  9  7  1  0
 10  9  1  0
 11 10  1  0
 12 11  2  0
 13 12  1  0
 14 13  2  0
 15 14  1  0
 16 11  1  0
 16 15  2  0
 17  1  1  0
 18 17  1  0
 19 18  1  0
 20 19  1  0
 21 19  1  0
 22 21  1  0
 23 22  1  0
 25 24  1  0
 25 23  1  0
  2 26  1  0
  3 27  1  0
  4 28  1  0
  5 29  1  0
  9 30  1  0
  9 31  1  0
 10 32  1  0
 10 33  1  0
 12 34  1  0
 13 35  1  0
 14 36  1  0
 15 37  1  0
 16 38  1  0
 18 39  1  0
 18 40  1  0
 19 41  1  1
 20 42  1  0
 21 43  1  0
 21 44  1  0
 22 45  1  0
 22 46  1  0
 23 47  1  0
 23 48  1  0
 24 49  1  0
 24 50  1  0
 24 51  1  0
 25 52  1  0
 25 53  1  0
M  CHG  1  22   1
M  END
>  <score>  (1) 
-9.595

$$$$
=
     RDKit          3D

 53 54  0  0  0  0  0  0  0  0999 V2000
   -0.6340   68.5930   65.4570 C   0  0  0  0  0  0  0  0  0  0  0  0
   -2.0180   68.7820   65.3930 C   0  0  0  0  0  0  0  0  0  0  0  0
   -2.8430   68.2310   66.3740 C   0  0  0  0  0  0  0  0  0  0  0  0
   -2.2890   67.4800   67.4090 C   0  0  0  0  0  0  0  0  0  0  0  0
   -0.9100   67.2680   67.4650 C   0  0  0  0  0  0  0  0  0  0  0  0
   -0.0740   67.8160   66.4840 C   0  0  0  0  0  0  0  0  0  0  0  0
    1.4030   67.6000   66.5490 C   0  0  0  0  0  0  0  0  0  0  0  0
    1.9030   66.6240   65.9850 O   0  0  0  0  0  0  0  0  0  0  0  0
    2.2400   68.6230   67.2940 C   0  0  0  0  0  0  0  0  0  0  0  0
    3.2550   69.2860   66.3650 C   0  0  0  0  0  0  0  0  0  0  0  0
    4.4130   69.8640   67.1340 C   0  0  0  0  0  0  0  0  0  0  0  0
    4.2310   70.3350   68.4420 C   0  0  0  0  0  0  0  0  0  0  0  0
    5.3100   70.8530   69.1620 C   0  0  0  0  0  0  0  0  0  0  0  0
    6.5770   70.8980   68.5860 C   0  0  0  0  0  0  0  0  0  0  0  0
    6.7690   70.4260   67.2890 C   0  0  0  0  0  0  0  0  0  0  0  0
    5.6930   69.9100   66.5660 C   0  0  0  0  0  0  0  0  0  0  0  0
    0.1710   69.0770   64.4590 O   0  0  0  0  0  0  0  0  0  0  0  0
   -0.4490   69.0760   63.1670 C   0  0  0  0  0  0  0  0  0  0  0  0
    0.6060   68.7220   62.1110 C   0  0  1  0  0  0  0  0  0  0  0  0
    0.4350   69.5090   60.9150 O   0  0  0  0  0  0  0  0  0  0  0  0
    2.0520   68.9400   62.5870 C   0  0  0  0  0  0  0  0  0  0  0  0
    2.5500   67.6380   63.1680 N   0  0  0  0  0  4  0  0  0  0  0  0
    3.8960   67.1960   62.7200 C   0  0  0  0  0  0  0  0  0  0  0  0
    5.6650   69.0230   62.9050 C   0  0  0  0  0  0  0  0  0  0  0  0
    4.9800   67.8400   63.5750 C   0  0  0  0  0  0  0  0  0  0  0  0
   -2.4562   69.3649   64.5695 H   0  0  0  0  0  0  0  0  0  0  0  0
   -3.9307   68.3894   66.3305 H   0  0  0  0  0  0  0  0  0  0  0  0
   -2.9408   67.0524   68.1851 H   0  0  0  0  0  0  0  0  0  0  0  0
   -0.4794   66.6694   68.2812 H   0  0  0  0  0  0  0  0  0  0  0  0
    1.5765   69.3952   67.7105 H   0  0  0  0  0  0  0  0  0  0  0  0
    2.7868   68.1080   68.0976 H   0  0  0  0  0  0  0  0  0  0  0  0
    3.6355   68.5348   65.6573 H   0  0  0  0  0  0  0  0  0  0  0  0
    2.7509   70.1062   65.8328 H   0  0  0  0  0  0  0  0  0  0  0  0
    3.2333   70.2964   68.9036 H   0  0  0  0  0  0  0  0  0  0  0  0
    5.1586   71.2260   70.1857 H   0  0  0  0  0  0  0  0  0  0  0  0
    7.4258   71.3059   69.1545 H   0  0  0  0  0  0  0  0  0  0  0  0
    7.7702   70.4603   66.8346 H   0  0  0  0  0  0  0  0  0  0  0  0
    5.8507   69.5368   65.5433 H   0  0  0  0  0  0  0  0  0  0  0  0
   -1.2576   68.3305   63.1458 H   0  0  0  0  0  0  0  0  0  0  0  0
   -0.8707   70.0695   62.9547 H   0  0  0  0  0  0  0  0  0  0  0  0
    0.4498   67.6510   61.9146 H   0  0  0  0  0  0  0  0  0  0  0  0
    0.2315   70.4457   61.1626 H   0  0  0  0  0  0  0  0  0  0  0  0
    2.6846   69.2365   61.7373 H   0  0  0  0  0  0  0  0  0  0  0  0
    2.0904   69.7372   63.3439 H   0  0  0  0  0  0  0  0  0  0  0  0
    2.5770   67.7402   64.1926 H   0  0  0  0  0  0  0  0  0  0  0  0
    1.8956   66.9167   62.8328 H   0  0  0  0  0  0  0  0  0  0  0  0
    3.9663   66.1019   62.8096 H   0  0  0  0  0  0  0  0  0  0  0  0
    4.0406   67.5003   61.6729 H   0  0  0  0  0  0  0  0  0  0  0  0
    6.0587   69.7029   63.6749 H   0  0  0  0  0  0  0  0  0  0  0  0
    6.4929   68.6604   62.2780 H   0  0  0  0  0  0  0  0  0  0  0  0
    4.9384   69.5605   62.2780 H   0  0  0  0  0  0  0  0  0  0  0  0
    5.7421   67.0795   63.8006 H   0  0  0  0  0  0  0  0  0  0  0  0
    4.4891   68.2237   64.4815 H   0  0  0  0  0  0  0  0  0  0  0  0
  2  1  2  0
  3  2  1  0
  4  3  2  0
  5  4  1  0
  6  5  2  0
  6  1  1  0
  7  6  1  0
  8  7  2  0
  9  7  1  0
 10  9  1  0
 11 10  1  0
 12 11  2  0
 13 12  1  0
 14 13  2  0
 15 14  1  0
 16 11  1  0
 16 15  2  0
 17  1  1  0
 18 17  1  0
 19 18  1  0
 20 19  1  0
 21 19  1  0
 22 21  1  0
 23 22  1  0
 25 24  1  0
 25 23  1  0
  2 26  1  0
  3 27  1  0
  4 28  1  0
  5 29  1  0
  9 30  1  0
  9 31  1  0
 10 32  1  0
 10 33  1  0
 12 34  1  0
 13 35  1  0
 14 36  1  0
 15 37  1  0
 16 38  1  0
 18 39  1  0
 18 40  1  0
 19 41  1  6
 20 42  1  0
 21 43  1  0
 21 44  1  0
 22 45  1  0
 22 46  1  0
 23 47  1  0
 23 48  1  0
 24 49  1  0
 24 50  1  0
 24 51  1  0
 25 52  1  0
 25 53  1  0
M  CHG  1  22   1
M  END
>  <score>  (2) 
-9.497

$$$$
=
     RDKit          3D

 53 54  0  0  0  0  0  0  0  0999 V2000
    2.7090   66.9810   64.4120 C   0  0  0  0  0  0  0  0  0  0  0  0
    2.4900   65.7080   64.9480 C   0  0  0  0  0  0  0  0  0  0  0  0
    3.3840   64.6740   64.6720 C   0  0  0  0  0  0  0  0  0  0  0  0
    4.4870   64.9040   63.8510 C   0  0  0  0  0  0  0  0  0  0  0  0
    4.6970   66.1670   63.2940 C   0  0  0  0  0  0  0  0  0  0  0  0
    3.8040   67.2130   63.5630 C   0  0  0  0  0  0  0  0  0  0  0  0
    4.0340   68.5670   62.9770 C   0  0  0  0  0  0  0  0  0  0  0  0
    3.5470   68.8490   61.8800 O   0  0  0  0  0  0  0  0  0  0  0  0
    4.8470   69.5630   63.7840 C   0  0  0  0  0  0  0  0  0  0  0  0
    5.5380   68.8830   64.9640 C   0  0  0  0  0  0  0  0  0  0  0  0
    5.2450   69.5920   66.2600 C   0  0  0  0  0  0  0  0  0  0  0  0
    3.9680   69.5220   66.8330 C   0  0  0  0  0  0  0  0  0  0  0  0
    3.7020   70.1640   68.0450 C   0  0  0  0  0  0  0  0  0  0  0  0
    4.7090   70.8730   68.6950 C   0  0  0  0  0  0  0  0  0  0  0  0
    5.9830   70.9430   68.1360 C   0  0  0  0  0  0  0  0  0  0  0  0
    6.2520   70.3040   66.9240 C   0  0  0  0  0  0  0  0  0  0  0  0
    1.7970   67.9820   64.6270 O   0  0  0  0  0  0  0  0  0  0  0  0
    0.5810   67.8220   63.8850 C   0  0  0  0  0  0  0  0  0  0  0  0
   -0.4090   68.9120   64.3170 C   0  0  1  0  0  0  0  0  0  0  0  0
   -1.5300   68.9890   63.4120 O   0  0  0  0  0  0  0  0  0  0  0  0
   -0.9870   68.6980   65.7260 C   0  0  0  0  0  0  0  0  0  0  0  0
   -0.4310   67.4000   66.2620 N   0  0  0  0  0  4  0  0  0  0  0  0
   -0.4210   67.2550   67.7410 C   0  0  0  0  0  0  0  0  0  0  0  0
    1.2320   66.8570   69.6400 C   0  0  0  0  0  0  0  0  0  0  0  0
    0.9750   67.5150   68.2930 C   0  0  0  0  0  0  0  0  0  0  0  0
    1.6137   65.5226   65.5865 H   0  0  0  0  0  0  0  0  0  0  0  0
    3.2187   63.6754   65.1027 H   0  0  0  0  0  0  0  0  0  0  0  0
    5.1941   64.0879   63.6414 H   0  0  0  0  0  0  0  0  0  0  0  0
    5.5658   66.3415   62.6422 H   0  0  0  0  0  0  0  0  0  0  0  0
    5.6099   70.0148   63.1330 H   0  0  0  0  0  0  0  0  0  0  0  0
    4.1661   70.3333   64.1752 H   0  0  0  0  0  0  0  0  0  0  0  0
    5.1820   67.8447   65.0364 H   0  0  0  0  0  0  0  0  0  0  0  0
    6.6240   68.9142   64.7920 H   0  0  0  0  0  0  0  0  0  0  0  0
    3.1709   68.9586   66.3258 H   0  0  0  0  0  0  0  0  0  0  0  0
    2.6959   70.1094   68.4864 H   0  0  0  0  0  0  0  0  0  0  0  0
    4.4985   71.3776   69.6495 H   0  0  0  0  0  0  0  0  0  0  0  0
    6.7783   71.5025   68.6502 H   0  0  0  0  0  0  0  0  0  0  0  0
    7.2604   70.3601   66.4882 H   0  0  0  0  0  0  0  0  0  0  0  0
    0.7892   67.9171   62.8091 H   0  0  0  0  0  0  0  0  0  0  0  0
    0.1517   66.8283   64.0808 H   0  0  0  0  0  0  0  0  0  0  0  0
    0.1824   69.8394   64.3084 H   0  0  0  0  0  0  0  0  0  0  0  0
   -2.3705   69.0467   63.9319 H   0  0  0  0  0  0  0  0  0  0  0  0
   -0.6919   69.5304   66.3817 H   0  0  0  0  0  0  0  0  0  0  0  0
   -2.0856   68.6584   65.6882 H   0  0  0  0  0  0  0  0  0  0  0  0
   -0.9964   66.6313   65.8741 H   0  0  0  0  0  0  0  0  0  0  0  0
    0.5582   67.3831   65.9754 H   0  0  0  0  0  0  0  0  0  0  0  0
   -1.1244   67.9776   68.1804 H   0  0  0  0  0  0  0  0  0  0  0  0
   -0.7206   66.2288   68.0000 H   0  0  0  0  0  0  0  0  0  0  0  0
    0.9598   67.5539   70.4464 H   0  0  0  0  0  0  0  0  0  0  0  0
    0.6244   65.9439   69.7239 H   0  0  0  0  0  0  0  0  0  0  0  0
    2.2976   66.5974   69.7239 H   0  0  0  0  0  0  0  0  0  0  0  0
    1.1070   68.6012   68.4062 H   0  0  0  0  0  0  0  0  0  0  0  0
    1.6893   67.0776   67.5800 H   0  0  0  0  0  0  0  0  0  0  0  0
  2  1  2  0
  3  2  1  0
  4  3  2  0
  5  4  1  0
  6  5  2  0
  6  1  1  0
  7  6  1  0
  8  7  2  0
  9  7  1  0
 10  9  1  0
 11 10  1  0
 12 11  2  0
 13 12  1  0
 14 13  2  0
 15 14  1  0
 16 11  1  0
 16 15  2  0
 17  1  1  0
 18 17  1  0
 19 18  1  0
 20 19  1  0
 21 19  1  0
 22 21  1  0
 23 22  1  0
 25 24  1  0
 25 23  1  0
  2 26  1  0
  3 27  1  0
  4 28  1  0
  5 29  1  0
  9 30  1  0
  9 31  1  0
 10 32  1  0
 10 33  1  0
 12 34  1  0
 13 35  1  0
 14 36  1  0
 15 37  1  0
 16 38  1  0
 18 39  1  0
 18 40  1  0
 19 41  1  1
 20 42  1  0
 21 43  1  0
 21 44  1  0
 22 45  1  0
 22 46  1  0
 23 47  1  0
 23 48  1  0
 24 49  1  0
 24 50  1  0
 24 51  1  0
 25 52  1  0
 25 53  1  0
M  CHG  1  22   1
M  END
>  <score>  (3) 
-9.326

$$$$
=
     RDKit          3D

 53 54  0  0  0  0  0  0  0  0999 V2000
   -0.4390   67.2280   67.6060 C   0  0  0  0  0  0  0  0  0  0  0  0
   -1.8110   67.3370   67.8520 C   0  0  0  0  0  0  0  0  0  0  0  0
   -2.6210   68.0570   66.9730 C   0  0  0  0  0  0  0  0  0  0  0  0
   -2.0610   68.6800   65.8590 C   0  0  0  0  0  0  0  0  0  0  0  0
   -0.6870   68.5940   65.6210 C   0  0  0  0  0  0  0  0  0  0  0  0
    0.1350   67.8750   66.4990 C   0  0  0  0  0  0  0  0  0  0  0  0
    1.6020   67.7730   66.2400 C   0  0  0  0  0  0  0  0  0  0  0  0
    2.1070   66.6710   66.0110 O   0  0  0  0  0  0  0  0  0  0  0  0
    2.4160   69.0530   66.2380 C   0  0  0  0  0  0  0  0  0  0  0  0
    2.6400   69.5650   67.6600 C   0  0  0  0  0  0  0  0  0  0  0  0
    4.0690   69.9890   67.8760 C   0  0  0  0  0  0  0  0  0  0  0  0
    4.4770   70.5020   69.1150 C   0  0  0  0  0  0  0  0  0  0  0  0
    5.8060   70.8770   69.3210 C   0  0  0  0  0  0  0  0  0  0  0  0
    6.7390   70.7360   68.2960 C   0  0  0  0  0  0  0  0  0  0  0  0
    6.3440   70.2210   67.0630 C   0  0  0  0  0  0  0  0  0  0  0  0
    5.0150   69.8480   66.8530 C   0  0  0  0  0  0  0  0  0  0  0  0
    0.3690   66.5780   68.5020 O   0  0  0  0  0  0  0  0  0  0  0  0
   -0.3520   65.8350   69.4930 C   0  0  0  0  0  0  0  0  0  0  0  0
    0.4880   65.7740   70.7750 C   0  0  1  0  0  0  0  0  0  0  0  0
   -0.2870   66.1630   71.9280 O   0  0  0  0  0  0  0  0  0  0  0  0
    1.0600   64.3770   71.0730 C   0  0  0  0  0  0  0  0  0  0  0  0
    1.8940   63.9570   69.8860 N   0  0  0  0  0  4  0  0  0  0  0  0
    2.3210   62.5340   69.8600 C   0  0  0  0  0  0  0  0  0  0  0  0
    4.6760   63.3790   70.3510 C   0  0  0  0  0  0  0  0  0  0  0  0
    3.8070   62.4300   69.5380 C   0  0  0  0  0  0  0  0  0  0  0  0
   -2.2515   66.8556   68.7376 H   0  0  0  0  0  0  0  0  0  0  0  0
   -3.7024   68.1330   67.1594 H   0  0  0  0  0  0  0  0  0  0  0  0
   -2.7033   69.2415   65.1646 H   0  0  0  0  0  0  0  0  0  0  0  0
   -0.2497   69.0916   64.7428 H   0  0  0  0  0  0  0  0  0  0  0  0
    3.3915   68.8576   65.7688 H   0  0  0  0  0  0  0  0  0  0  0  0
    1.8621   69.8183   65.6745 H   0  0  0  0  0  0  0  0  0  0  0  0
    1.9807   70.4275   67.8372 H   0  0  0  0  0  0  0  0  0  0  0  0
    2.4131   68.7478   68.3605 H   0  0  0  0  0  0  0  0  0  0  0  0
    3.7459   70.6098   69.9298 H   0  0  0  0  0  0  0  0  0  0  0  0
    6.1170   71.2845   70.2943 H   0  0  0  0  0  0  0  0  0  0  0  0
    7.7860   71.0308   68.4599 H   0  0  0  0  0  0  0  0  0  0  0  0
    7.0804   70.1081   66.2537 H   0  0  0  0  0  0  0  0  0  0  0  0
    4.7091   69.4409   65.8780 H   0  0  0  0  0  0  0  0  0  0  0  0
   -1.3106   66.3321   69.7027 H   0  0  0  0  0  0  0  0  0  0  0  0
   -0.5482   64.8166   69.1265 H   0  0  0  0  0  0  0  0  0  0  0  0
    1.3188   66.4713   70.5920 H   0  0  0  0  0  0  0  0  0  0  0  0
    0.2024   65.9173   72.7528 H   0  0  0  0  0  0  0  0  0  0  0  0
    1.6866   64.4141   71.9763 H   0  0  0  0  0  0  0  0  0  0  0  0
    0.2462   63.6572   71.2449 H   0  0  0  0  0  0  0  0  0  0  0  0
    1.3428   64.1361   69.0345 H   0  0  0  0  0  0  0  0  0  0  0  0
    2.7630   64.5063   69.9492 H   0  0  0  0  0  0  0  0  0  0  0  0
    2.1310   62.0807   70.8441 H   0  0  0  0  0  0  0  0  0  0  0  0
    1.7500   62.0047   69.0829 H   0  0  0  0  0  0  0  0  0  0  0  0
    4.5112   63.1991   71.4236 H   0  0  0  0  0  0  0  0  0  0  0  0
    5.7348   63.2053   70.1085 H   0  0  0  0  0  0  0  0  0  0  0  0
    4.4100   64.4184   70.1085 H   0  0  0  0  0  0  0  0  0  0  0  0
    3.9481   62.6575   68.4711 H   0  0  0  0  0  0  0  0  0  0  0  0
    4.1210   61.4072   69.7936 H   0  0  0  0  0  0  0  0  0  0  0  0
  2  1  2  0
  3  2  1  0
  4  3  2  0
  5  4  1  0
  6  5  2  0
  6  1  1  0
  7  6  1  0
  8  7  2  0
  9  7  1  0
 10  9  1  0
 11 10  1  0
 12 11  2  0
 13 12  1  0
 14 13  2  0
 15 14  1  0
 16 11  1  0
 16 15  2  0
 17  1  1  0
 18 17  1  0
 19 18  1  0
 20 19  1  0
 21 19  1  0
 22 21  1  0
 23 22  1  0
 25 24  1  0
 25 23  1  0
  2 26  1  0
  3 27  1  0
  4 28  1  0
  5 29  1  0
  9 30  1  0
  9 31  1  0
 10 32  1  0
 10 33  1  0
 12 34  1  0
 13 35  1  0
 14 36  1  0
 15 37  1  0
 16 38  1  0
 18 39  1  0
 18 40  1  0
 19 41  1  6
 20 42  1  0
 21 43  1  0
 21 44  1  0
 22 45  1  0
 22 46  1  0
 23 47  1  0
 23 48  1  0
 24 49  1  0
 24 50  1  0
 24 51  1  0
 25 52  1  0
 25 53  1  0
M  CHG  1  22   1
M  END
>  <score>  (4) 
-9.026

$$$$
=
     RDKit          3D

 53 54  0  0  0  0  0  0  0  0999 V2000
    4.8320   69.8510   66.6210 C   0  0  0  0  0  0  0  0  0  0  0  0
    6.2020   70.1310   66.5790 C   0  0  0  0  0  0  0  0  0  0  0  0
    6.8530   70.5950   67.7230 C   0  0  0  0  0  0  0  0  0  0  0  0
    6.1360   70.7940   68.9020 C   0  0  0  0  0  0  0  0  0  0  0  0
    4.7640   70.5380   68.9430 C   0  0  0  0  0  0  0  0  0  0  0  0
    4.1000   70.0730   67.7990 C   0  0  0  0  0  0  0  0  0  0  0  0
    2.6350   69.7880   67.8450 C   0  0  0  0  0  0  0  0  0  0  0  0
    1.8790   70.5700   68.4250 O   0  0  0  0  0  0  0  0  0  0  0  0
    2.1290   68.5440   67.1380 C   0  0  0  0  0  0  0  0  0  0  0  0
    1.1650   67.7600   68.0260 C   0  0  0  0  0  0  0  0  0  0  0  0
   -0.2520   67.8570   67.5230 C   0  0  0  0  0  0  0  0  0  0  0  0
   -0.6120   68.8530   66.6040 C   0  0  0  0  0  0  0  0  0  0  0  0
   -1.9200   68.9290   66.1230 C   0  0  0  0  0  0  0  0  0  0  0  0
   -2.8770   68.0100   66.5490 C   0  0  0  0  0  0  0  0  0  0  0  0
   -2.5260   67.0130   67.4570 C   0  0  0  0  0  0  0  0  0  0  0  0
   -1.2190   66.9340   67.9410 C   0  0  0  0  0  0  0  0  0  0  0  0
    4.1780   69.4580   65.4830 O   0  0  0  0  0  0  0  0  0  0  0  0
    5.0330   69.3390   64.3390 C   0  0  0  0  0  0  0  0  0  0  0  0
    4.1830   68.9480   63.1230 C   0  0  1  0  0  0  0  0  0  0  0  0
    5.0080   68.4820   62.0350 O   0  0  0  0  0  0  0  0  0  0  0  0
    3.1600   67.8380   63.4160 C   0  0  0  0  0  0  0  0  0  0  0  0
    3.8700   66.7460   64.1800 N   0  0  0  0  0  4  0  0  0  0  0  0
    2.9980   65.7640   64.8760 C   0  0  0  0  0  0  0  0  0  0  0  0
    4.8800   64.2080   64.1420 C   0  0  0  0  0  0  0  0  0  0  0  0
    3.4130   64.3400   64.5250 C   0  0  0  0  0  0  0  0  0  0  0  0
    6.7654   69.9856   65.6455 H   0  0  0  0  0  0  0  0  0  0  0  0
    7.9326   70.8039   67.6944 H   0  0  0  0  0  0  0  0  0  0  0  0
    6.6532   71.1541   69.8035 H   0  0  0  0  0  0  0  0  0  0  0  0
    4.2028   70.7015   69.8749 H   0  0  0  0  0  0  0  0  0  0  0  0
    1.6071   68.8418   66.2166 H   0  0  0  0  0  0  0  0  0  0  0  0
    2.9901   67.9006   66.9042 H   0  0  0  0  0  0  0  0  0  0  0  0
    1.4688   66.7028   68.0372 H   0  0  0  0  0  0  0  0  0  0  0  0
    1.2020   68.1887   69.0383 H   0  0  0  0  0  0  0  0  0  0  0  0
    0.1403   69.5782   66.2604 H   0  0  0  0  0  0  0  0  0  0  0  0
   -2.1961   69.7162   65.4060 H   0  0  0  0  0  0  0  0  0  0  0  0
   -3.9075   68.0715   66.1692 H   0  0  0  0  0  0  0  0  0  0  0  0
   -3.2805   66.2866   67.7932 H   0  0  0  0  0  0  0  0  0  0  0  0
   -0.9470   66.1424   68.6547 H   0  0  0  0  0  0  0  0  0  0  0  0
    5.5305   70.3013   64.1479 H   0  0  0  0  0  0  0  0  0  0  0  0
    5.7973   68.5696   64.5229 H   0  0  0  0  0  0  0  0  0  0  0  0
    3.6456   69.8699   62.8558 H   0  0  0  0  0  0  0  0  0  0  0  0
    5.8096   68.0292   62.3991 H   0  0  0  0  0  0  0  0  0  0  0  0
    2.3336   68.2407   64.0200 H   0  0  0  0  0  0  0  0  0  0  0  0
    2.7432   67.4422   62.4781 H   0  0  0  0  0  0  0  0  0  0  0  0
    4.4592   66.2271   63.5133 H   0  0  0  0  0  0  0  0  0  0  0  0
    4.3967   67.2255   64.9240 H   0  0  0  0  0  0  0  0  0  0  0  0
    3.0849   65.9090   65.9629 H   0  0  0  0  0  0  0  0  0  0  0  0
    1.9577   65.9212   64.5549 H   0  0  0  0  0  0  0  0  0  0  0  0
    5.4934   64.1528   65.0534 H   0  0  0  0  0  0  0  0  0  0  0  0
    5.0230   63.2934   63.5479 H   0  0  0  0  0  0  0  0  0  0  0  0
    5.1840   65.0824   63.5479 H   0  0  0  0  0  0  0  0  0  0  0  0
    2.8006   63.9985   63.6775 H   0  0  0  0  0  0  0  0  0  0  0  0
    3.2594   63.7286   65.4264 H   0  0  0  0  0  0  0  0  0  0  0  0
  2  1  2  0
  3  2  1  0
  4  3  2  0
  5  4  1  0
  6  5  2  0
  6  1  1  0
  7  6  1  0
  8  7  2  0
  9  7  1  0
 10  9  1  0
 11 10  1  0
 12 11  2  0
 13 12  1  0
 14 13  2  0
 15 14  1  0
 16 11  1  0
 16 15  2  0
 17  1  1  0
 18 17  1  0
 19 18  1  0
 20 19  1  0
 21 19  1  0
 22 21  1  0
 23 22  1  0
 25 24  1  0
 25 23  1  0
  2 26  1  0
  3 27  1  0
  4 28  1  0
  5 29  1  0
  9 30  1  0
  9 31  1  0
 10 32  1  0
 10 33  1  0
 12 34  1  0
 13 35  1  0
 14 36  1  0
 15 37  1  0
 16 38  1  0
 18 39  1  0
 18 40  1  0
 19 41  1  6
 20 42  1  0
 21 43  1  0
 21 44  1  0
 22 45  1  0
 22 46  1  0
 23 47  1  0
 23 48  1  0
 24 49  1  0
 24 50  1  0
 24 51  1  0
 25 52  1  0
 25 53  1  0
M  CHG  1  22   1
M  END
>  <score>  (5) 
-8.86

$$$$
=
     RDKit          3D

 53 54  0  0  0  0  0  0  0  0999 V2000
    2.9370   66.6040   64.9140 C   0  0  0  0  0  0  0  0  0  0  0  0
    2.8810   65.2560   65.2840 C   0  0  0  0  0  0  0  0  0  0  0  0
    3.6600   64.3160   64.6100 C   0  0  0  0  0  0  0  0  0  0  0  0
    4.4810   64.7150   63.5570 C   0  0  0  0  0  0  0  0  0  0  0  0
    4.5240   66.0550   63.1670 C   0  0  0  0  0  0  0  0  0  0  0  0
    3.7440   67.0080   63.8370 C   0  0  0  0  0  0  0  0  0  0  0  0
    3.7970   68.4430   63.4290 C   0  0  0  0  0  0  0  0  0  0  0  0
    3.5590   68.7550   62.2600 O   0  0  0  0  0  0  0  0  0  0  0  0
    4.1180   69.4760   64.4940 C   0  0  0  0  0  0  0  0  0  0  0  0
    5.4380   69.1550   65.1930 C   0  0  0  0  0  0  0  0  0  0  0  0
    5.4970   69.7640   66.5690 C   0  0  0  0  0  0  0  0  0  0  0  0
    6.7160   70.2150   67.0930 C   0  0  0  0  0  0  0  0  0  0  0  0
    6.7670   70.7980   68.3610 C   0  0  0  0  0  0  0  0  0  0  0  0
    5.6030   70.9400   69.1120 C   0  0  0  0  0  0  0  0  0  0  0  0
    4.3850   70.5000   68.5960 C   0  0  0  0  0  0  0  0  0  0  0  0
    4.3310   69.9160   67.3300 C   0  0  0  0  0  0  0  0  0  0  0  0
    2.1250   67.5190   65.5300 O   0  0  0  0  0  0  0  0  0  0  0  0
    0.9700   66.9380   66.1510 C   0  0  0  0  0  0  0  0  0  0  0  0
    0.1330   68.0570   66.7840 C   0  0  1  0  0  0  0  0  0  0  0  0
    0.9730   69.0530   67.4030 O   0  0  0  0  0  0  0  0  0  0  0  0
   -0.7690   68.7950   65.7800 C   0  0  0  0  0  0  0  0  0  0  0  0
   -0.3950   68.3310   64.3930 N   0  0  0  0  0  4  0  0  0  0  0  0
    0.0730   69.3850   63.4560 C   0  0  0  0  0  0  0  0  0  0  0  0
    0.2370   69.8870   60.9620 C   0  0  0  0  0  0  0  0  0  0  0  0
    0.2120   68.8210   62.0470 C   0  0  0  0  0  0  0  0  0  0  0  0
    2.2229   64.9378   66.1060 H   0  0  0  0  0  0  0  0  0  0  0  0
    3.6264   63.2582   64.9099 H   0  0  0  0  0  0  0  0  0  0  0  0
    5.0976   63.9713   63.0310 H   0  0  0  0  0  0  0  0  0  0  0  0
    5.1710   66.3635   62.3326 H   0  0  0  0  0  0  0  0  0  0  0  0
    4.1933   70.4668   64.0221 H   0  0  0  0  0  0  0  0  0  0  0  0
    3.3140   69.4647   65.2446 H   0  0  0  0  0  0  0  0  0  0  0  0
    5.5395   68.0632   65.2808 H   0  0  0  0  0  0  0  0  0  0  0  0
    6.2575   69.5779   64.5933 H   0  0  0  0  0  0  0  0  0  0  0  0
    7.6378   70.1092   66.5022 H   0  0  0  0  0  0  0  0  0  0  0  0
    7.7283   71.1456   68.7672 H   0  0  0  0  0  0  0  0  0  0  0  0
    5.6445   71.3987   70.1109 H   0  0  0  0  0  0  0  0  0  0  0  0
    3.4649   70.6134   69.1880 H   0  0  0  0  0  0  0  0  0  0  0  0
    3.3667   69.5728   66.9271 H   0  0  0  0  0  0  0  0  0  0  0  0
    0.3701   66.4102   65.3951 H   0  0  0  0  0  0  0  0  0  0  0  0
    1.2826   66.2218   66.9251 H   0  0  0  0  0  0  0  0  0  0  0  0
   -0.4976   67.5437   67.5248 H   0  0  0  0  0  0  0  0  0  0  0  0
    0.9069   68.9747   68.3877 H   0  0  0  0  0  0  0  0  0  0  0  0
   -1.8242   68.5586   65.9815 H   0  0  0  0  0  0  0  0  0  0  0  0
   -0.6331   69.8829   65.8701 H   0  0  0  0  0  0  0  0  0  0  0  0
    0.3588   67.6354   64.4863 H   0  0  0  0  0  0  0  0  0  0  0  0
   -1.2633   67.9601   63.9814 H   0  0  0  0  0  0  0  0  0  0  0  0
   -0.6547   70.2098   63.4459 H   0  0  0  0  0  0  0  0  0  0  0  0
    1.0546   69.7504   63.7921 H   0  0  0  0  0  0  0  0  0  0  0  0
    0.2604   70.8834   61.4274 H   0  0  0  0  0  0  0  0  0  0  0  0
    1.1323   69.7531   60.3370 H   0  0  0  0  0  0  0  0  0  0  0  0
   -0.6635   69.7953   60.3370 H   0  0  0  0  0  0  0  0  0  0  0  0
   -0.6388   68.1505   61.8557 H   0  0  0  0  0  0  0  0  0  0  0  0
    1.1776   68.2959   62.0044 H   0  0  0  0  0  0  0  0  0  0  0  0
  2  1  2  0
  3  2  1  0
  4  3  2  0
  5  4  1  0
  6  5  2  0
  6  1  1  0
  7  6  1  0
  8  7  2  0
  9  7  1  0
 10  9  1  0
 11 10  1  0
 12 11  2  0
 13 12  1  0
 14 13  2  0
 15 14  1  0
 16 11  1  0
 16 15  2  0
 17  1  1  0
 18 17  1  0
 19 18  1  0
 20 19  1  0
 21 19  1  0
 22 21  1  0
 23 22  1  0
 25 24  1  0
 25 23  1  0
  2 26  1  0
  3 27  1  0
  4 28  1  0
  5 29  1  0
  9 30  1  0
  9 31  1  0
 10 32  1  0
 10 33  1  0
 12 34  1  0
 13 35  1  0
 14 36  1  0
 15 37  1  0
 16 38  1  0
 18 39  1  0
 18 40  1  0
 19 41  1  1
 20 42  1  0
 21 43  1  0
 21 44  1  0
 22 45  1  0
 22 46  1  0
 23 47  1  0
 23 48  1  0
 24 49  1  0
 24 50  1  0
 24 51  1  0
 25 52  1  0
 25 53  1  0
M  CHG  1  22   1
M  END
>  <score>  (6) 
-8.54

$$$$
=
     RDKit          3D

 53 54  0  0  0  0  0  0  0  0999 V2000
    3.9930   69.5690   66.7340 C   0  0  0  0  0  0  0  0  0  0  0  0
    5.2010   70.2340   66.9690 C   0  0  0  0  0  0  0  0  0  0  0  0
    5.4680   70.7660   68.2310 C   0  0  0  0  0  0  0  0  0  0  0  0
    4.5260   70.6490   69.2520 C   0  0  0  0  0  0  0  0  0  0  0  0
    3.3090   70.0070   69.0150 C   0  0  0  0  0  0  0  0  0  0  0  0
    3.0300   69.4710   67.7510 C   0  0  0  0  0  0  0  0  0  0  0  0
    1.7330   68.7730   67.5010 C   0  0  0  0  0  0  0  0  0  0  0  0
    0.8260   69.3650   66.9110 O   0  0  0  0  0  0  0  0  0  0  0  0
    1.5970   67.3340   67.9630 C   0  0  0  0  0  0  0  0  0  0  0  0
    0.5750   67.2130   69.0920 C   0  0  0  0  0  0  0  0  0  0  0  0
    0.8740   66.0350   69.9830 C   0  0  0  0  0  0  0  0  0  0  0  0
    2.0250   65.2630   69.7750 C   0  0  0  0  0  0  0  0  0  0  0  0
    2.3120   64.1830   70.6130 C   0  0  0  0  0  0  0  0  0  0  0  0
    1.4560   63.8710   71.6670 C   0  0  0  0  0  0  0  0  0  0  0  0
    0.3130   64.6370   71.8850 C   0  0  0  0  0  0  0  0  0  0  0  0
    0.0230   65.7160   71.0490 C   0  0  0  0  0  0  0  0  0  0  0  0
    3.7000   69.1030   65.4790 O   0  0  0  0  0  0  0  0  0  0  0  0
    4.8400   69.0230   64.6130 C   0  0  0  0  0  0  0  0  0  0  0  0
    4.3710   68.6130   63.2120 C   0  0  1  0  0  0  0  0  0  0  0  0
    5.4870   68.2580   62.3690 O   0  0  0  0  0  0  0  0  0  0  0  0
    3.4110   67.4110   63.2100 C   0  0  0  0  0  0  0  0  0  0  0  0
    3.8830   66.4410   64.2670 N   0  0  0  0  0  4  0  0  0  0  0  0
    2.9380   65.3500   64.6200 C   0  0  0  0  0  0  0  0  0  0  0  0
    4.8020   63.7610   63.9130 C   0  0  0  0  0  0  0  0  0  0  0  0
    3.6980   64.0620   64.9150 C   0  0  0  0  0  0  0  0  0  0  0  0
    5.9393   70.3374   66.1602 H   0  0  0  0  0  0  0  0  0  0  0  0
    6.4228   71.2783   68.4205 H   0  0  0  0  0  0  0  0  0  0  0  0
    4.7422   71.0638   70.2476 H   0  0  0  0  0  0  0  0  0  0  0  0
    2.5673   69.9218   69.8228 H   0  0  0  0  0  0  0  0  0  0  0  0
    1.2708   66.7138   67.1151 H   0  0  0  0  0  0  0  0  0  0  0  0
    2.5736   66.9937   68.3378 H   0  0  0  0  0  0  0  0  0  0  0  0
    0.5981   68.1325   69.6953 H   0  0  0  0  0  0  0  0  0  0  0  0
   -0.4185   67.0638   68.6440 H   0  0  0  0  0  0  0  0  0  0  0  0
    2.7063   65.5090   68.9471 H   0  0  0  0  0  0  0  0  0  0  0  0
    3.2146   63.5783   70.4406 H   0  0  0  0  0  0  0  0  0  0  0  0
    1.6825   63.0204   72.3266 H   0  0  0  0  0  0  0  0  0  0  0  0
   -0.3622   64.3908   72.7177 H   0  0  0  0  0  0  0  0  0  0  0  0
   -0.8790   66.3195   71.2281 H   0  0  0  0  0  0  0  0  0  0  0  0
    5.3362   70.0035   64.5641 H   0  0  0  0  0  0  0  0  0  0  0  0
    5.5513   68.2789   65.0007 H   0  0  0  0  0  0  0  0  0  0  0  0
    3.8410   69.4979   62.8298 H   0  0  0  0  0  0  0  0  0  0  0  0
    6.2619   68.0115   62.9337 H   0  0  0  0  0  0  0  0  0  0  0  0
    2.3895   67.7477   63.4405 H   0  0  0  0  0  0  0  0  0  0  0  0
    3.4024   66.9280   62.2218 H   0  0  0  0  0  0  0  0  0  0  0  0
    4.7537   66.0065   63.9294 H   0  0  0  0  0  0  0  0  0  0  0  0
    3.9951   66.9992   65.1253 H   0  0  0  0  0  0  0  0  0  0  0  0
    2.3626   65.6432   65.5105 H   0  0  0  0  0  0  0  0  0  0  0  0
    2.2600   65.1773   63.7712 H   0  0  0  0  0  0  0  0  0  0  0  0
    5.7273   63.5087   64.4517 H   0  0  0  0  0  0  0  0  0  0  0  0
    4.5023   62.9118   63.2813 H   0  0  0  0  0  0  0  0  0  0  0  0
    4.9748   64.6448   63.2813 H   0  0  0  0  0  0  0  0  0  0  0  0
    2.9826   63.2265   64.9051 H   0  0  0  0  0  0  0  0  0  0  0  0
    4.1797   64.1901   65.8956 H   0  0  0  0  0  0  0  0  0  0  0  0
  2  1  2  0
  3  2  1  0
  4  3  2  0
  5  4  1  0
  6  5  2  0
  6  1  1  0
  7  6  1  0
  8  7  2  0
  9  7  1  0
 10  9  1  0
 11 10  1  0
 12 11  2  0
 13 12  1  0
 14 13  2  0
 15 14  1  0
 16 11  1  0
 16 15  2  0
 17  1  1  0
 18 17  1  0
 19 18  1  0
 20 19  1  0
 21 19  1  0
 22 21  1  0
 23 22  1  0
 25 24  1  0
 25 23  1  0
  2 26  1  0
  3 27  1  0
  4 28  1  0
  5 29  1  0
  9 30  1  0
  9 31  1  0
 10 32  1  0
 10 33  1  0
 12 34  1  0
 13 35  1  0
 14 36  1  0
 15 37  1  0
 16 38  1  0
 18 39  1  0
 18 40  1  0
 19 41  1  6
 20 42  1  0
 21 43  1  0
 21 44  1  0
 22 45  1  0
 22 46  1  0
 23 47  1  0
 23 48  1  0
 24 49  1  0
 24 50  1  0
 24 51  1  0
 25 52  1  0
 25 53  1  0
M  CHG  1  22   1
M  END
>  <score>  (7) 
-8.169

$$$$
=
     RDKit          3D

 53 54  0  0  0  0  0  0  0  0999 V2000
    5.1500   69.8300   66.0700 C   0  0  0  0  0  0  0  0  0  0  0  0
    6.3960   70.4390   66.2490 C   0  0  0  0  0  0  0  0  0  0  0  0
    6.7410   70.9650   67.4950 C   0  0  0  0  0  0  0  0  0  0  0  0
    5.8390   70.8970   68.5550 C   0  0  0  0  0  0  0  0  0  0  0  0
    4.5840   70.3110   68.3750 C   0  0  0  0  0  0  0  0  0  0  0  0
    4.2270   69.7820   67.1270 C   0  0  0  0  0  0  0  0  0  0  0  0
    2.8900   69.1450   66.9360 C   0  0  0  0  0  0  0  0  0  0  0  0
    2.6740   68.4690   65.9280 O   0  0  0  0  0  0  0  0  0  0  0  0
    1.8480   69.3360   68.0230 C   0  0  0  0  0  0  0  0  0  0  0  0
    0.5490   69.8980   67.4480 C   0  0  0  0  0  0  0  0  0  0  0  0
   -0.5300   68.8480   67.3920 C   0  0  0  0  0  0  0  0  0  0  0  0
   -1.7140   69.0840   66.6800 C   0  0  0  0  0  0  0  0  0  0  0  0
   -2.7040   68.1030   66.6110 C   0  0  0  0  0  0  0  0  0  0  0  0
   -2.5190   66.8770   67.2470 C   0  0  0  0  0  0  0  0  0  0  0  0
   -1.3420   66.6310   67.9510 C   0  0  0  0  0  0  0  0  0  0  0  0
   -0.3510   67.6100   68.0230 C   0  0  0  0  0  0  0  0  0  0  0  0
    4.7830   69.3730   64.8310 O   0  0  0  0  0  0  0  0  0  0  0  0
    5.6410   68.3450   64.3190 C   0  0  0  0  0  0  0  0  0  0  0  0
    5.1290   67.9150   62.9380 C   0  0  1  0  0  0  0  0  0  0  0  0
    4.4060   66.6690   63.0130 O   0  0  0  0  0  0  0  0  0  0  0  0
    4.1880   68.9390   62.2820 C   0  0  0  0  0  0  0  0  0  0  0  0
    2.7700   68.5550   62.6340 N   0  0  0  0  0  4  0  0  0  0  0  0
    1.7190   68.9960   61.6800 C   0  0  0  0  0  0  0  0  0  0  0  0
    0.2400   69.0000   63.7560 C   0  0  0  0  0  0  0  0  0  0  0  0
    0.3330   68.7410   62.2600 C   0  0  0  0  0  0  0  0  0  0  0  0
    7.1033   70.5034   65.4090 H   0  0  0  0  0  0  0  0  0  0  0  0
    7.7256   71.4335   67.6403 H   0  0  0  0  0  0  0  0  0  0  0  0
    6.1165   71.3065   69.5375 H   0  0  0  0  0  0  0  0  0  0  0  0
    3.8744   70.2645   69.2142 H   0  0  0  0  0  0  0  0  0  0  0  0
    1.6407   68.3649   68.4964 H   0  0  0  0  0  0  0  0  0  0  0  0
    2.2408   70.0505   68.7614 H   0  0  0  0  0  0  0  0  0  0  0  0
    0.2069   70.7285   68.0830 H   0  0  0  0  0  0  0  0  0  0  0  0
    0.7468   70.2445   66.4229 H   0  0  0  0  0  0  0  0  0  0  0  0
   -1.8637   70.0484   66.1725 H   0  0  0  0  0  0  0  0  0  0  0  0
   -3.6321   68.2978   66.0536 H   0  0  0  0  0  0  0  0  0  0  0  0
   -3.3007   66.1049   67.1934 H   0  0  0  0  0  0  0  0  0  0  0  0
   -1.1940   65.6625   68.4512 H   0  0  0  0  0  0  0  0  0  0  0  0
    0.5768   67.4088   68.5786 H   0  0  0  0  0  0  0  0  0  0  0  0
    6.6672   68.7309   64.2290 H   0  0  0  0  0  0  0  0  0  0  0  0
    5.6403   67.4832   65.0025 H   0  0  0  0  0  0  0  0  0  0  0  0
    6.0376   67.8189   62.3255 H   0  0  0  0  0  0  0  0  0  0  0  0
    4.2650   66.4259   63.9623 H   0  0  0  0  0  0  0  0  0  0  0  0
    4.4082   69.9472   62.6629 H   0  0  0  0  0  0  0  0  0  0  0  0
    4.3253   68.9429   61.1906 H   0  0  0  0  0  0  0  0  0  0  0  0
    2.7280   67.5277   62.6962 H   0  0  0  0  0  0  0  0  0  0  0  0
    2.5627   69.0400   63.5187 H   0  0  0  0  0  0  0  0  0  0  0  0
    1.8369   70.0718   61.4829 H   0  0  0  0  0  0  0  0  0  0  0  0
    1.8245   68.4262   60.7450 H   0  0  0  0  0  0  0  0  0  0  0  0
    0.5623   68.1025   64.3042 H   0  0  0  0  0  0  0  0  0  0  0  0
    0.8905   69.8459   64.0228 H   0  0  0  0  0  0  0  0  0  0  0  0
   -0.8001   69.2389   64.0228 H   0  0  0  0  0  0  0  0  0  0  0  0
    0.0655   67.6907   62.0719 H   0  0  0  0  0  0  0  0  0  0  0  0
   -0.3559   69.4436   61.7683 H   0  0  0  0  0  0  0  0  0  0  0  0
  2  1  2  0
  3  2  1  0
  4  3  2  0
  5  4  1  0
  6  5  2  0
  6  1  1  0
  7  6  1  0
  8  7  2  0
  9  7  1  0
 10  9  1  0
 11 10  1  0
 12 11  2  0
 13 12  1  0
 14 13  2  0
 15 14  1  0
 16 11  1  0
 16 15  2  0
 17  1  1  0
 18 17  1  0
 19 18  1  0
 20 19  1  0
 21 19  1  0
 22 21  1  0
 23 22  1  0
 25 24  1  0
 25 23  1  0
  2 26  1  0
  3 27  1  0
  4 28  1  0
  5 29  1  0
  9 30  1  0
  9 31  1  0
 10 32  1  0
 10 33  1  0
 12 34  1  0
 13 35  1  0
 14 36  1  0
 15 37  1  0
 16 38  1  0
 18 39  1  0
 18 40  1  0
 19 41  1  6
 20 42  1  0
 21 43  1  0
 21 44  1  0
 22 45  1  0
 22 46  1  0
 23 47  1  0
 23 48  1  0
 24 49  1  0
 24 50  1  0
 24 51  1  0
 25 52  1  0
 25 53  1  0
M  CHG  1  22   1
M  END
>  <score>  (8) 
-7.903

$$$$
=
     RDKit          3D

 53 54  0  0  0  0  0  0  0  0999 V2000
    0.6110   61.7340   72.7030 C   0  0  0  0  0  0  0  0  0  0  0  0
   -0.7730   61.9290   72.7040 C   0  0  0  0  0  0  0  0  0  0  0  0
   -1.6110   60.9740   73.2800 C   0  0  0  0  0  0  0  0  0  0  0  0
   -1.0690   59.8180   73.8400 C   0  0  0  0  0  0  0  0  0  0  0  0
    0.3110   59.6070   73.8210 C   0  0  0  0  0  0  0  0  0  0  0  0
    1.1610   60.5600   73.2430 C   0  0  0  0  0  0  0  0  0  0  0  0
    2.6380   60.3410   73.2320 C   0  0  0  0  0  0  0  0  0  0  0  0
    3.3560   60.9820   74.0020 O   0  0  0  0  0  0  0  0  0  0  0  0
    3.1960   59.3010   72.2790 C   0  0  0  0  0  0  0  0  0  0  0  0
    4.4910   59.7870   71.6290 C   0  0  0  0  0  0  0  0  0  0  0  0
    4.2470   60.9730   70.7330 C   0  0  0  0  0  0  0  0  0  0  0  0
    3.3610   60.8740   69.6510 C   0  0  0  0  0  0  0  0  0  0  0  0
    3.1200   61.9780   68.8320 C   0  0  0  0  0  0  0  0  0  0  0  0
    3.7560   63.1910   69.0890 C   0  0  0  0  0  0  0  0  0  0  0  0
    4.6340   63.3000   70.1660 C   0  0  0  0  0  0  0  0  0  0  0  0
    4.8780   62.1970   70.9860 C   0  0  0  0  0  0  0  0  0  0  0  0
    1.4300   62.6390   72.0790 O   0  0  0  0  0  0  0  0  0  0  0  0
    0.9540   63.9900   72.1460 C   0  0  0  0  0  0  0  0  0  0  0  0
    0.8950   64.5650   70.7260 C   0  0  1  0  0  0  0  0  0  0  0  0
    0.0290   63.7810   69.8790 O   0  0  0  0  0  0  0  0  0  0  0  0
    0.3820   66.0140   70.6680 C   0  0  0  0  0  0  0  0  0  0  0  0
    1.1090   66.7180   69.5480 N   0  0  0  0  0  4  0  0  0  0  0  0
    0.2660   67.2050   68.4260 C   0  0  0  0  0  0  0  0  0  0  0  0
    1.9420   69.0850   68.0270 C   0  0  0  0  0  0  0  0  0  0  0  0
    1.1130   67.9660   67.4130 C   0  0  0  0  0  0  0  0  0  0  0  0
   -1.2013   62.8352   72.2508 H   0  0  0  0  0  0  0  0  0  0  0  0
   -2.6994   61.1330   73.2923 H   0  0  0  0  0  0  0  0  0  0  0  0
   -1.7313   59.0691   74.2987 H   0  0  0  0  0  0  0  0  0  0  0  0
    0.7322   58.6908   74.2606 H   0  0  0  0  0  0  0  0  0  0  0  0
    3.3998   58.3753   72.8371 H   0  0  0  0  0  0  0  0  0  0  0  0
    2.4545   59.1203   71.4868 H   0  0  0  0  0  0  0  0  0  0  0  0
    5.2009   60.0752   72.4183 H   0  0  0  0  0  0  0  0  0  0  0  0
    4.8980   58.9691   71.0162 H   0  0  0  0  0  0  0  0  0  0  0  0
    2.8526   59.9202   69.4463 H   0  0  0  0  0  0  0  0  0  0  0  0
    2.4269   61.8905   67.9823 H   0  0  0  0  0  0  0  0  0  0  0  0
    3.5655   64.0608   68.4431 H   0  0  0  0  0  0  0  0  0  0  0  0
    5.1358   64.2573   70.3703 H   0  0  0  0  0  0  0  0  0  0  0  0
    5.5701   62.2900   71.8359 H   0  0  0  0  0  0  0  0  0  0  0  0
   -0.0509   64.0060   72.5932 H   0  0  0  0  0  0  0  0  0  0  0  0
    1.6325   64.5946   72.7658 H   0  0  0  0  0  0  0  0  0  0  0  0
    1.9371   64.5375   70.3750 H   0  0  0  0  0  0  0  0  0  0  0  0
   -0.5752   63.2340   70.4409 H   0  0  0  0  0  0  0  0  0  0  0  0
   -0.7006   66.0199   70.4730 H   0  0  0  0  0  0  0  0  0  0  0  0
    0.5655   66.5245   71.6250 H   0  0  0  0  0  0  0  0  0  0  0  0
    1.5964   67.5309   69.9512 H   0  0  0  0  0  0  0  0  0  0  0  0
    1.7350   66.0108   69.1370 H   0  0  0  0  0  0  0  0  0  0  0  0
   -0.2071   66.3452   67.9291 H   0  0  0  0  0  0  0  0  0  0  0  0
   -0.5030   67.8819   68.8266 H   0  0  0  0  0  0  0  0  0  0  0  0
    1.8927   69.0184   69.1239 H   0  0  0  0  0  0  0  0  0  0  0  0
    2.9879   68.9880   67.7004 H   0  0  0  0  0  0  0  0  0  0  0  0
    1.5446   70.0573   67.7004 H   0  0  0  0  0  0  0  0  0  0  0  0
    0.4426   68.4040   66.6589 H   0  0  0  0  0  0  0  0  0  0  0  0
    1.8195   67.2441   66.9775 H   0  0  0  0  0  0  0  0  0  0  0  0
  2  1  2  0
  3  2  1  0
  4  3  2  0
  5  4  1  0
  6  5  2  0
  6  1  1  0
  7  6  1  0
  8  7  2  0
  9  7  1  0
 10  9  1  0
 11 10  1  0
 12 11  2  0
 13 12  1  0
 14 13  2  0
 15 14  1  0
 16 11  1  0
 16 15  2  0
 17  1  1  0
 18 17  1  0
 19 18  1  0
 20 19  1  0
 21 19  1  0
 22 21  1  0
 23 22  1  0
 25 24  1  0
 25 23  1  0
  2 26  1  0
  3 27  1  0
  4 28  1  0
  5 29  1  0
  9 30  1  0
  9 31  1  0
 10 32  1  0
 10 33  1  0
 12 34  1  0
 13 35  1  0
 14 36  1  0
 15 37  1  0
 16 38  1  0
 18 39  1  0
 18 40  1  0
 19 41  1  6
 20 42  1  0
 21 43  1  0
 21 44  1  0
 22 45  1  0
 22 46  1  0
 23 47  1  0
 23 48  1  0
 24 49  1  0
 24 50  1  0
 24 51  1  0
 25 52  1  0
 25 53  1  0
M  CHG  1  22   1
M  END
>  <score>  (9) 
-7.541

$$$$
