=
     RDKit          3D

 49 51  0  0  0  0  0  0  0  0999 V2000
    2.4150   61.3320   72.0760 C   0  0  0  0  0  0  0  0  0  0  0  0
    1.4220   62.2690   72.3740 C   0  0  0  0  0  0  0  0  0  0  0  0
    1.4190   63.4510   71.6540 C   0  0  0  0  0  0  0  0  0  0  0  0
    2.3490   63.7400   70.6670 C   0  0  0  0  0  0  0  0  0  0  0  0
    3.3440   62.8220   70.3650 C   0  0  0  0  0  0  0  0  0  0  0  0
    3.3790   61.6070   71.0660 C   0  0  0  0  0  0  0  0  0  0  0  0
    2.1580   65.1040   70.0790 C   0  0  0  0  0  0  0  0  0  0  0  0
    0.8090   65.5970   70.6640 C   0  0  2  0  0  0  0  0  0  0  0  0
    0.4980   64.5740   71.7640 C   0  0  0  0  0  0  0  0  0  0  0  0
   -0.3810   64.6450   72.6120 O   0  0  0  0  0  0  0  0  0  0  0  0
    2.9830   60.1070   74.0540 C   0  0  0  0  0  0  0  0  0  0  0  0
    2.5410   60.1170   72.7040 O   0  0  0  0  0  0  0  0  0  0  0  0
    4.3120   60.6230   70.8540 O   0  0  0  0  0  0  0  0  0  0  0  0
    5.6460   60.8660   71.2770 C   0  0  0  0  0  0  0  0  0  0  0  0
   -0.1390   65.6150   69.6050 O   0  0  0  0  0  0  0  0  0  0  0  0
   -0.1150   66.6330   68.6970 C   0  0  0  0  0  0  0  0  0  0  0  0
   -1.3010   66.8110   67.9860 C   0  0  0  0  0  0  0  0  0  0  0  0
   -1.4280   67.8430   67.0560 C   0  0  0  0  0  0  0  0  0  0  0  0
   -0.3700   68.7270   66.8490 C   0  0  0  0  0  0  0  0  0  0  0  0
    0.8280   68.5710   67.5580 C   0  0  0  0  0  0  0  0  0  0  0  0
    0.9550   67.4920   68.4520 C   0  0  0  0  0  0  0  0  0  0  0  0
    1.9500   69.5640   67.4170 C   0  0  0  0  0  0  0  0  0  0  0  0
    3.1260   69.1030   66.5770 N   0  0  0  0  0  4  0  0  0  0  0  0
    4.4050   69.8460   66.8640 C   0  0  0  0  0  0  0  0  0  0  0  0
    2.8330   69.0680   65.1060 C   0  0  0  0  0  0  0  0  0  0  0  0
    0.6699   62.0742   73.1527 H   0  0  0  0  0  0  0  0  0  0  0  0
    4.0924   63.0426   69.5896 H   0  0  0  0  0  0  0  0  0  0  0  0
    2.9783   65.7736   70.3769 H   0  0  0  0  0  0  0  0  0  0  0  0
    2.1544   65.0873   68.9791 H   0  0  0  0  0  0  0  0  0  0  0  0
    0.8088   66.6123   71.0872 H   0  0  0  0  0  0  0  0  0  0  0  0
    2.1118   60.1267   74.7252 H   0  0  0  0  0  0  0  0  0  0  0  0
    3.5694   59.1954   74.2411 H   0  0  0  0  0  0  0  0  0  0  0  0
    3.6101   60.9912   74.2411 H   0  0  0  0  0  0  0  0  0  0  0  0
    5.6865   60.8734   72.3762 H   0  0  0  0  0  0  0  0  0  0  0  0
    6.3032   60.0728   70.8912 H   0  0  0  0  0  0  0  0  0  0  0  0
    5.9813   61.8400   70.8912 H   0  0  0  0  0  0  0  0  0  0  0  0
   -2.1467   66.1295   68.1604 H   0  0  0  0  0  0  0  0  0  0  0  0
   -2.3620   67.9592   66.4866 H   0  0  0  0  0  0  0  0  0  0  0  0
   -0.4763   69.5497   66.1266 H   0  0  0  0  0  0  0  0  0  0  0  0
    1.9132   67.3238   68.9654 H   0  0  0  0  0  0  0  0  0  0  0  0
    1.5407   70.4752   66.9565 H   0  0  0  0  0  0  0  0  0  0  0  0
    2.3453   69.7202   68.4315 H   0  0  0  0  0  0  0  0  0  0  0  0
    3.2792   68.1289   66.8744 H   0  0  0  0  0  0  0  0  0  0  0  0
    4.5454   69.9276   67.9519 H   0  0  0  0  0  0  0  0  0  0  0  0
    5.2528   69.2998   66.4248 H   0  0  0  0  0  0  0  0  0  0  0  0
    4.3505   70.8530   66.4248 H   0  0  0  0  0  0  0  0  0  0  0  0
    1.7517   68.9388   64.9505 H   0  0  0  0  0  0  0  0  0  0  0  0
    3.1597   70.0116   64.6445 H   0  0  0  0  0  0  0  0  0  0  0  0
    3.3727   68.2279   64.6445 H   0  0  0  0  0  0  0  0  0  0  0  0
  2  1  2  0
  3  2  1  0
  4  3  2  0
  5  4  1  0
  6  5  2  0
  6  1  1  0
  7  4  1  0
  8  7  1  0
  9  3  1  0
  9  8  1  0
 10  9  2  0
 12 11  1  0
 12  1  1  0
 13  6  1  0
 14 13  1  0
 15  8  1  0
 16 15  1  0
 17 16  2  0
 18 17  1  0
 19 18  2  0
 20 19  1  0
 21 20  2  0
 21 16  1  0
 22 20  1  0
 23 22  1  0
 24 23  1  0
 25 23  1  0
  2 26  1  0
  5 27  1  0
  7 28  1  0
  7 29  1  0
  8 30  1  1
 11 31  1  0
 11 32  1  0
 11 33  1  0
 14 34  1  0
 14 35  1  0
 14 36  1  0
 17 37  1  0
 18 38  1  0
 19 39  1  0
 21 40  1  0
 22 41  1  0
 22 42  1  0
 23 43  1  0
 24 44  1  0
 24 45  1  0
 24 46  1  0
 25 47  1  0
 25 48  1  0
 25 49  1  0
M  CHG  1  23   1
M  END
>  <score>  (1) 
-8.689

$$$$
=
     RDKit          3D

 49 51  0  0  0  0  0  0  0  0999 V2000
    2.0130   68.7270   66.0640 C   0  0  0  0  0  0  0  0  0  0  0  0
    2.1890   68.2890   67.3790 C   0  0  0  0  0  0  0  0  0  0  0  0
    1.1290   67.6360   67.9850 C   0  0  0  0  0  0  0  0  0  0  0  0
   -0.0820   67.4070   67.3520 C   0  0  0  0  0  0  0  0  0  0  0  0
   -0.2730   67.8410   66.0480 C   0  0  0  0  0  0  0  0  0  0  0  0
    0.7780   68.5010   65.3940 C   0  0  0  0  0  0  0  0  0  0  0  0
   -1.0770   66.7300   68.2420 C   0  0  0  0  0  0  0  0  0  0  0  0
   -0.2670   66.3320   69.5030 C   0  0  2  0  0  0  0  0  0  0  0  0
    1.0600   67.0810   69.3300 C   0  0  0  0  0  0  0  0  0  0  0  0
    1.9500   67.2070   70.1590 O   0  0  0  0  0  0  0  0  0  0  0  0
    4.2870   69.4520   65.8730 C   0  0  0  0  0  0  0  0  0  0  0  0
    2.9740   69.3850   65.3360 O   0  0  0  0  0  0  0  0  0  0  0  0
    0.7080   68.9730   64.1070 O   0  0  0  0  0  0  0  0  0  0  0  0
   -0.4950   68.7570   63.3820 C   0  0  0  0  0  0  0  0  0  0  0  0
   -0.1380   64.9160   69.5030 O   0  0  0  0  0  0  0  0  0  0  0  0
    0.6120   64.3080   70.4670 C   0  0  0  0  0  0  0  0  0  0  0  0
    0.0730   64.3670   71.7520 C   0  0  0  0  0  0  0  0  0  0  0  0
    0.7150   63.7490   72.8240 C   0  0  0  0  0  0  0  0  0  0  0  0
    1.8970   63.0410   72.6140 C   0  0  0  0  0  0  0  0  0  0  0  0
    2.4520   62.9620   71.3300 C   0  0  0  0  0  0  0  0  0  0  0  0
    1.8180   63.6370   70.2710 C   0  0  0  0  0  0  0  0  0  0  0  0
    3.6770   62.1300   71.0620 C   0  0  0  0  0  0  0  0  0  0  0  0
    3.4460   60.6320   70.9980 N   0  0  0  0  0  4  0  0  0  0  0  0
    4.2150   59.8550   72.0350 C   0  0  0  0  0  0  0  0  0  0  0  0
    3.6380   60.0550   69.6280 C   0  0  0  0  0  0  0  0  0  0  0  0
    3.1356   68.4569   67.9136 H   0  0  0  0  0  0  0  0  0  0  0  0
   -1.2316   67.6705   65.5361 H   0  0  0  0  0  0  0  0  0  0  0  0
   -1.8933   67.4184   68.5061 H   0  0  0  0  0  0  0  0  0  0  0  0
   -1.5473   65.8618   67.7572 H   0  0  0  0  0  0  0  0  0  0  0  0
   -0.7201   66.5941   70.4705 H   0  0  0  0  0  0  0  0  0  0  0  0
    4.2344   69.4493   66.9717 H   0  0  0  0  0  0  0  0  0  0  0  0
    4.8676   68.5823   65.5316 H   0  0  0  0  0  0  0  0  0  0  0  0
    4.7761   70.3763   65.5316 H   0  0  0  0  0  0  0  0  0  0  0  0
   -1.3262   68.6078   64.0869 H   0  0  0  0  0  0  0  0  0  0  0  0
   -0.7037   69.6320   62.7489 H   0  0  0  0  0  0  0  0  0  0  0  0
   -0.3863   67.8640   62.7489 H   0  0  0  0  0  0  0  0  0  0  0  0
   -0.8699   64.9076   71.9216 H   0  0  0  0  0  0  0  0  0  0  0  0
    0.2887   63.8201   73.8356 H   0  0  0  0  0  0  0  0  0  0  0  0
    2.3955   62.5429   73.4586 H   0  0  0  0  0  0  0  0  0  0  0  0
    2.2810   63.6353   69.2732 H   0  0  0  0  0  0  0  0  0  0  0  0
    4.0998   62.4495   70.0981 H   0  0  0  0  0  0  0  0  0  0  0  0
    4.3489   62.2964   71.9169 H   0  0  0  0  0  0  0  0  0  0  0  0
    2.4484   60.5225   71.2297 H   0  0  0  0  0  0  0  0  0  0  0  0
    3.9001   60.1732   73.0398 H   0  0  0  0  0  0  0  0  0  0  0  0
    4.0148   58.7805   71.9111 H   0  0  0  0  0  0  0  0  0  0  0  0
    5.2915   60.0441   71.9111 H   0  0  0  0  0  0  0  0  0  0  0  0
    3.9843   59.0144   69.7136 H   0  0  0  0  0  0  0  0  0  0  0  0
    2.6831   60.0800   69.0825 H   0  0  0  0  0  0  0  0  0  0  0  0
    4.3875   60.6471   69.0825 H   0  0  0  0  0  0  0  0  0  0  0  0
  2  1  2  0
  3  2  1  0
  4  3  2  0
  5  4  1  0
  6  5  2  0
  6  1  1  0
  7  4  1  0
  8  7  1  0
  9  3  1  0
  9  8  1  0
 10  9  2  0
 12 11  1  0
 12  1  1  0
 13  6  1  0
 14 13  1  0
 15  8  1  0
 16 15  1  0
 17 16  2  0
 18 17  1  0
 19 18  2  0
 20 19  1  0
 21 20  2  0
 21 16  1  0
 22 20  1  0
 23 22  1  0
 24 23  1  0
 25 23  1  0
  2 26  1  0
  5 27  1  0
  7 28  1  0
  7 29  1  0
  8 30  1  1
 11 31  1  0
 11 32  1  0
 11 33  1  0
 14 34  1  0
 14 35  1  0
 14 36  1  0
 17 37  1  0
 18 38  1  0
 19 39  1  0
 21 40  1  0
 22 41  1  0
 22 42  1  0
 23 43  1  0
 24 44  1  0
 24 45  1  0
 24 46  1  0
 25 47  1  0
 25 48  1  0
 25 49  1  0
M  CHG  1  23   1
M  END
>  <score>  (2) 
-8.311

$$$$
=
     RDKit          3D

 49 51  0  0  0  0  0  0  0  0999 V2000
    3.3730   61.5930   73.0930 C   0  0  0  0  0  0  0  0  0  0  0  0
    3.3250   62.1790   71.8250 C   0  0  0  0  0  0  0  0  0  0  0  0
    2.1990   62.9170   71.5020 C   0  0  0  0  0  0  0  0  0  0  0  0
    1.1330   63.0920   72.3700 C   0  0  0  0  0  0  0  0  0  0  0  0
    1.1640   62.5120   73.6290 C   0  0  0  0  0  0  0  0  0  0  0  0
    2.2900   61.7610   74.0000 C   0  0  0  0  0  0  0  0  0  0  0  0
    0.0200   63.8860   71.7600 C   0  0  0  0  0  0  0  0  0  0  0  0
    0.6030   64.4150   70.4240 C   0  0  2  0  0  0  0  0  0  0  0  0
    1.9090   63.6270   70.2650 C   0  0  0  0  0  0  0  0  0  0  0  0
    2.6290   63.5840   69.2760 O   0  0  0  0  0  0  0  0  0  0  0  0
    4.4390   59.4530   73.2340 C   0  0  0  0  0  0  0  0  0  0  0  0
    4.4230   60.8380   73.5530 O   0  0  0  0  0  0  0  0  0  0  0  0
    2.4350   61.1420   75.2170 O   0  0  0  0  0  0  0  0  0  0  0  0
    1.2960   60.5120   75.7850 C   0  0  0  0  0  0  0  0  0  0  0  0
    0.7850   65.8190   70.5590 O   0  0  0  0  0  0  0  0  0  0  0  0
    0.6330   66.6260   69.4690 C   0  0  0  0  0  0  0  0  0  0  0  0
   -0.5830   66.4840   68.8020 C   0  0  0  0  0  0  0  0  0  0  0  0
   -0.8870   67.2780   67.6960 C   0  0  0  0  0  0  0  0  0  0  0  0
    0.0190   68.2440   67.2630 C   0  0  0  0  0  0  0  0  0  0  0  0
    1.2430   68.4090   67.9240 C   0  0  0  0  0  0  0  0  0  0  0  0
    1.5540   67.5620   69.0030 C   0  0  0  0  0  0  0  0  0  0  0  0
    2.1980   69.5040   67.5300 C   0  0  0  0  0  0  0  0  0  0  0  0
    3.3050   69.0920   66.5780 N   0  0  0  0  0  4  0  0  0  0  0  0
    4.5880   69.8570   66.7720 C   0  0  0  0  0  0  0  0  0  0  0  0
    2.8840   69.0870   65.1390 C   0  0  0  0  0  0  0  0  0  0  0  0
    4.1518   62.0582   71.1096 H   0  0  0  0  0  0  0  0  0  0  0  0
    0.3212   62.6382   74.3245 H   0  0  0  0  0  0  0  0  0  0  0  0
   -0.8565   63.2476   71.5754 H   0  0  0  0  0  0  0  0  0  0  0  0
   -0.3209   64.6994   72.4173 H   0  0  0  0  0  0  0  0  0  0  0  0
   -0.0275   64.2769   69.5333 H   0  0  0  0  0  0  0  0  0  0  0  0
    4.4458   58.8630   74.1623 H   0  0  0  0  0  0  0  0  0  0  0  0
    3.5437   59.2017   72.6464 H   0  0  0  0  0  0  0  0  0  0  0  0
    5.3399   59.2225   72.6464 H   0  0  0  0  0  0  0  0  0  0  0  0
    1.3649   60.5501   76.8822 H   0  0  0  0  0  0  0  0  0  0  0  0
    0.3857   61.0349   75.4564 H   0  0  0  0  0  0  0  0  0  0  0  0
    1.2552   59.4630   75.4564 H   0  0  0  0  0  0  0  0  0  0  0  0
   -1.3111   65.7373   69.1518 H   0  0  0  0  0  0  0  0  0  0  0  0
   -1.8413   67.1416   67.1661 H   0  0  0  0  0  0  0  0  0  0  0  0
   -0.2277   68.8791   66.3994 H   0  0  0  0  0  0  0  0  0  0  0  0
    2.5391   67.6397   69.4862 H   0  0  0  0  0  0  0  0  0  0  0  0
    1.6166   70.3040   67.0483 H   0  0  0  0  0  0  0  0  0  0  0  0
    2.6982   69.8177   68.4581 H   0  0  0  0  0  0  0  0  0  0  0  0
    3.5049   68.1146   66.8342 H   0  0  0  0  0  0  0  0  0  0  0  0
    4.7856   69.9748   67.8477 H   0  0  0  0  0  0  0  0  0  0  0  0
    5.4176   69.3060   66.3050 H   0  0  0  0  0  0  0  0  0  0  0  0
    4.4977   70.8488   66.3050 H   0  0  0  0  0  0  0  0  0  0  0  0
    1.7858   69.0740   65.0783 H   0  0  0  0  0  0  0  0  0  0  0  0
    3.2680   69.9898   64.6415 H   0  0  0  0  0  0  0  0  0  0  0  0
    3.2894   68.1936   64.6415 H   0  0  0  0  0  0  0  0  0  0  0  0
  2  1  2  0
  3  2  1  0
  4  3  2  0
  5  4  1  0
  6  5  2  0
  6  1  1  0
  7  4  1  0
  8  7  1  0
  9  3  1  0
  9  8  1  0
 10  9  2  0
 12 11  1  0
 12  1  1  0
 13  6  1  0
 14 13  1  0
 15  8  1  0
 16 15  1  0
 17 16  2  0
 18 17  1  0
 19 18  2  0
 20 19  1  0
 21 20  2  0
 21 16  1  0
 22 20  1  0
 23 22  1  0
 24 23  1  0
 25 23  1  0
  2 26  1  0
  5 27  1  0
  7 28  1  0
  7 29  1  0
  8 30  1  6
 11 31  1  0
 11 32  1  0
 11 33  1  0
 14 34  1  0
 14 35  1  0
 14 36  1  0
 17 37  1  0
 18 38  1  0
 19 39  1  0
 21 40  1  0
 22 41  1  0
 22 42  1  0
 23 43  1  0
 24 44  1  0
 24 45  1  0
 24 46  1  0
 25 47  1  0
 25 48  1  0
 25 49  1  0
M  CHG  1  23   1
M  END
>  <score>  (3) 
-8.123

$$$$
=
     RDKit          3D

 49 51  0  0  0  0  0  0  0  0999 V2000
    0.5100   61.8670   72.1580 C   0  0  0  0  0  0  0  0  0  0  0  0
   -0.0650   63.1400   72.1770 C   0  0  0  0  0  0  0  0  0  0  0  0
    0.5600   64.1370   71.4500 C   0  0  0  0  0  0  0  0  0  0  0  0
    1.7180   63.9290   70.7170 C   0  0  0  0  0  0  0  0  0  0  0  0
    2.3030   62.6720   70.6920 C   0  0  0  0  0  0  0  0  0  0  0  0
    1.6980   61.6300   71.4110 C   0  0  0  0  0  0  0  0  0  0  0  0
    2.2180   65.1810   70.0650 C   0  0  0  0  0  0  0  0  0  0  0  0
    1.0860   66.2170   70.2860 C   0  0  2  0  0  0  0  0  0  0  0  0
    0.1630   65.5310   71.3010 C   0  0  0  0  0  0  0  0  0  0  0  0
   -0.7760   66.0340   71.9030 O   0  0  0  0  0  0  0  0  0  0  0  0
   -1.2590   60.9220   73.4660 C   0  0  0  0  0  0  0  0  0  0  0  0
    0.0020   60.7810   72.8280 O   0  0  0  0  0  0  0  0  0  0  0  0
    2.1830   60.3460   71.4610 O   0  0  0  0  0  0  0  0  0  0  0  0
    3.5690   60.1480   71.2180 C   0  0  0  0  0  0  0  0  0  0  0  0
    0.4790   66.4670   69.0250 O   0  0  0  0  0  0  0  0  0  0  0  0
    1.0280   67.3900   68.1840 C   0  0  0  0  0  0  0  0  0  0  0  0
    1.7990   68.3670   68.8120 C   0  0  0  0  0  0  0  0  0  0  0  0
    2.4540   69.3480   68.0670 C   0  0  0  0  0  0  0  0  0  0  0  0
    2.3620   69.3430   66.6770 C   0  0  0  0  0  0  0  0  0  0  0  0
    1.5990   68.3660   66.0250 C   0  0  0  0  0  0  0  0  0  0  0  0
    0.9030   67.4170   66.7960 C   0  0  0  0  0  0  0  0  0  0  0  0
    1.5570   68.2860   64.5220 C   0  0  0  0  0  0  0  0  0  0  0  0
    2.8920   68.0360   63.8460 N   0  0  0  0  0  4  0  0  0  0  0  0
    2.8680   68.2580   62.3560 C   0  0  0  0  0  0  0  0  0  0  0  0
    3.4990   66.7100   64.1920 C   0  0  0  0  0  0  0  0  0  0  0  0
   -0.9821   63.3423   72.7497 H   0  0  0  0  0  0  0  0  0  0  0  0
    3.2249   62.4949   70.1187 H   0  0  0  0  0  0  0  0  0  0  0  0
    3.1515   65.5191   70.5385 H   0  0  0  0  0  0  0  0  0  0  0  0
    2.4457   65.0335   68.9990 H   0  0  0  0  0  0  0  0  0  0  0  0
    1.3981   67.1992   70.6705 H   0  0  0  0  0  0  0  0  0  0  0  0
   -1.1216   60.9066   74.5573 H   0  0  0  0  0  0  0  0  0  0  0  0
   -1.7163   61.8769   73.1674 H   0  0  0  0  0  0  0  0  0  0  0  0
   -1.9159   60.0917   73.1674 H   0  0  0  0  0  0  0  0  0  0  0  0
    4.1022   60.0718   72.1771 H   0  0  0  0  0  0  0  0  0  0  0  0
    3.7118   59.2203   70.6444 H   0  0  0  0  0  0  0  0  0  0  0  0
    3.9659   60.9986   70.6444 H   0  0  0  0  0  0  0  0  0  0  0  0
    1.8921   68.3644   69.9081 H   0  0  0  0  0  0  0  0  0  0  0  0
    3.0427   70.1249   68.5768 H   0  0  0  0  0  0  0  0  0  0  0  0
    2.8901   70.1086   66.0897 H   0  0  0  0  0  0  0  0  0  0  0  0
    0.2507   66.6857   66.2962 H   0  0  0  0  0  0  0  0  0  0  0  0
    0.8775   67.4667   64.2446 H   0  0  0  0  0  0  0  0  0  0  0  0
    1.2221   69.2747   64.1751 H   0  0  0  0  0  0  0  0  0  0  0  0
    3.5113   68.7584   64.2403 H   0  0  0  0  0  0  0  0  0  0  0  0
    2.7519   69.3317   62.1471 H   0  0  0  0  0  0  0  0  0  0  0  0
    3.8102   67.8987   61.9165 H   0  0  0  0  0  0  0  0  0  0  0  0
    2.0243   67.7056   61.9165 H   0  0  0  0  0  0  0  0  0  0  0  0
    3.5478   66.6033   65.2857 H   0  0  0  0  0  0  0  0  0  0  0  0
    2.8807   65.9029   63.7721 H   0  0  0  0  0  0  0  0  0  0  0  0
    4.5140   66.6506   63.7721 H   0  0  0  0  0  0  0  0  0  0  0  0
  2  1  2  0
  3  2  1  0
  4  3  2  0
  5  4  1  0
  6  5  2  0
  6  1  1  0
  7  4  1  0
  8  7  1  0
  9  3  1  0
  9  8  1  0
 10  9  2  0
 12 11  1  0
 12  1  1  0
 13  6  1  0
 14 13  1  0
 15  8  1  0
 16 15  1  0
 17 16  2  0
 18 17  1  0
 19 18  2  0
 20 19  1  0
 21 20  2  0
 21 16  1  0
 22 20  1  0
 23 22  1  0
 24 23  1  0
 25 23  1  0
  2 26  1  0
  5 27  1  0
  7 28  1  0
  7 29  1  0
  8 30  1  1
 11 31  1  0
 11 32  1  0
 11 33  1  0
 14 34  1  0
 14 35  1  0
 14 36  1  0
 17 37  1  0
 18 38  1  0
 19 39  1  0
 21 40  1  0
 22 41  1  0
 22 42  1  0
 23 43  1  0
 24 44  1  0
 24 45  1  0
 24 46  1  0
 25 47  1  0
 25 48  1  0
 25 49  1  0
M  CHG  1  23   1
M  END
>  <score>  (4) 
-8.102

$$$$
=
     RDKit          3D

 49 51  0  0  0  0  0  0  0  0999 V2000
    5.6050   70.4850   66.7720 C   0  0  0  0  0  0  0  0  0  0  0  0
    5.9790   69.9100   65.5550 C   0  0  0  0  0  0  0  0  0  0  0  0
    5.0790   69.0520   64.9470 C   0  0  0  0  0  0  0  0  0  0  0  0
    3.8420   68.7420   65.4910 C   0  0  0  0  0  0  0  0  0  0  0  0
    3.4600   69.3000   66.7010 C   0  0  0  0  0  0  0  0  0  0  0  0
    4.3390   70.1810   67.3480 C   0  0  0  0  0  0  0  0  0  0  0  0
    3.0840   67.7510   64.6640 C   0  0  0  0  0  0  0  0  0  0  0  0
    3.9080   67.6190   63.3570 C   0  0  2  0  0  0  0  0  0  0  0  0
    5.2220   68.3390   63.6860 C   0  0  0  0  0  0  0  0  0  0  0  0
    6.2470   68.3470   63.0180 O   0  0  0  0  0  0  0  0  0  0  0  0
    7.1130   70.8420   68.5980 C   0  0  0  0  0  0  0  0  0  0  0  0
    6.3910   71.3550   67.4880 O   0  0  0  0  0  0  0  0  0  0  0  0
    4.0710   70.7960   68.5460 O   0  0  0  0  0  0  0  0  0  0  0  0
    2.8160   70.5390   69.1600 C   0  0  0  0  0  0  0  0  0  0  0  0
    3.1600   68.2270   62.3120 O   0  0  0  0  0  0  0  0  0  0  0  0
    1.8960   68.6770   62.5630 C   0  0  0  0  0  0  0  0  0  0  0  0
    1.2810   69.3210   61.4900 C   0  0  0  0  0  0  0  0  0  0  0  0
   -0.0270   69.7930   61.5960 C   0  0  0  0  0  0  0  0  0  0  0  0
   -0.7440   69.6000   62.7750 C   0  0  0  0  0  0  0  0  0  0  0  0
   -0.1480   68.9480   63.8620 C   0  0  0  0  0  0  0  0  0  0  0  0
    1.1900   68.5270   63.7550 C   0  0  0  0  0  0  0  0  0  0  0  0
   -0.9300   68.6480   65.1130 C   0  0  0  0  0  0  0  0  0  0  0  0
   -0.1050   68.5060   66.3790 N   0  0  0  0  0  4  0  0  0  0  0  0
   -0.2600   67.1690   67.0560 C   0  0  0  0  0  0  0  0  0  0  0  0
   -0.2950   69.6350   67.3470 C   0  0  0  0  0  0  0  0  0  0  0  0
    6.9540   70.1312   65.0963 H   0  0  0  0  0  0  0  0  0  0  0  0
    2.4842   69.0561   67.1462 H   0  0  0  0  0  0  0  0  0  0  0  0
    3.0192   66.7825   65.1815 H   0  0  0  0  0  0  0  0  0  0  0  0
    2.0492   68.0719   64.4736 H   0  0  0  0  0  0  0  0  0  0  0  0
    4.1179   66.5930   63.0203 H   0  0  0  0  0  0  0  0  0  0  0  0
    6.6386   71.1791   69.5314 H   0  0  0  0  0  0  0  0  0  0  0  0
    7.1096   69.7426   68.5612 H   0  0  0  0  0  0  0  0  0  0  0  0
    8.1501   71.2069   68.5612 H   0  0  0  0  0  0  0  0  0  0  0  0
    2.9312   70.5626   70.2537 H   0  0  0  0  0  0  0  0  0  0  0  0
    2.0923   71.3076   68.8509 H   0  0  0  0  0  0  0  0  0  0  0  0
    2.4527   69.5478   68.8509 H   0  0  0  0  0  0  0  0  0  0  0  0
    1.8339   69.4583   60.5490 H   0  0  0  0  0  0  0  0  0  0  0  0
   -0.4927   70.3177   60.7488 H   0  0  0  0  0  0  0  0  0  0  0  0
   -1.7804   69.9605   62.8523 H   0  0  0  0  0  0  0  0  0  0  0  0
    1.6863   68.0726   64.6252 H   0  0  0  0  0  0  0  0  0  0  0  0
   -1.6500   69.4653   65.2672 H   0  0  0  0  0  0  0  0  0  0  0  0
   -1.4017   67.6681   64.9475 H   0  0  0  0  0  0  0  0  0  0  0  0
    0.8697   68.5575   66.0501 H   0  0  0  0  0  0  0  0  0  0  0  0
   -0.2441   67.3065   68.1473 H   0  0  0  0  0  0  0  0  0  0  0  0
   -1.2167   66.7156   66.7575 H   0  0  0  0  0  0  0  0  0  0  0  0
    0.5676   66.5087   66.7575 H   0  0  0  0  0  0  0  0  0  0  0  0
   -0.2303   69.2508   68.3757 H   0  0  0  0  0  0  0  0  0  0  0  0
    0.4887   70.3903   67.1878 H   0  0  0  0  0  0  0  0  0  0  0  0
   -1.2827   70.0922   67.1878 H   0  0  0  0  0  0  0  0  0  0  0  0
  2  1  2  0
  3  2  1  0
  4  3  2  0
  5  4  1  0
  6  5  2  0
  6  1  1  0
  7  4  1  0
  8  7  1  0
  9  3  1  0
  9  8  1  0
 10  9  2  0
 12 11  1  0
 12  1  1  0
 13  6  1  0
 14 13  1  0
 15  8  1  0
 16 15  1  0
 17 16  2  0
 18 17  1  0
 19 18  2  0
 20 19  1  0
 21 20  2  0
 21 16  1  0
 22 20  1  0
 23 22  1  0
 24 23  1  0
 25 23  1  0
  2 26  1  0
  5 27  1  0
  7 28  1  0
  7 29  1  0
  8 30  1  6
 11 31  1  0
 11 32  1  0
 11 33  1  0
 14 34  1  0
 14 35  1  0
 14 36  1  0
 17 37  1  0
 18 38  1  0
 19 39  1  0
 21 40  1  0
 22 41  1  0
 22 42  1  0
 23 43  1  0
 24 44  1  0
 24 45  1  0
 24 46  1  0
 25 47  1  0
 25 48  1  0
 25 49  1  0
M  CHG  1  23   1
M  END
>  <score>  (5) 
-7.657

$$$$
=
     RDKit          3D

 49 51  0  0  0  0  0  0  0  0999 V2000
    1.0270   61.0640   72.3280 C   0  0  0  0  0  0  0  0  0  0  0  0
    0.4360   62.3230   72.4660 C   0  0  0  0  0  0  0  0  0  0  0  0
    0.9590   63.3620   71.7170 C   0  0  0  0  0  0  0  0  0  0  0  0
    2.0320   63.2090   70.8520 C   0  0  0  0  0  0  0  0  0  0  0  0
    2.6320   61.9670   70.7090 C   0  0  0  0  0  0  0  0  0  0  0  0
    2.1280   60.8840   71.4450 C   0  0  0  0  0  0  0  0  0  0  0  0
    2.4360   64.4970   70.2040 C   0  0  0  0  0  0  0  0  0  0  0  0
    1.3180   65.4980   70.5930 C   0  0  2  0  0  0  0  0  0  0  0  0
    0.5250   64.7510   71.6730 C   0  0  0  0  0  0  0  0  0  0  0  0
   -0.3490   65.2090   72.3960 O   0  0  0  0  0  0  0  0  0  0  0  0
    0.8090   59.9000   74.4100 C   0  0  0  0  0  0  0  0  0  0  0  0
    0.6150   59.9410   73.0030 O   0  0  0  0  0  0  0  0  0  0  0  0
    2.6380   59.6100   71.3860 O   0  0  0  0  0  0  0  0  0  0  0  0
    4.0480   59.4590   71.3090 C   0  0  0  0  0  0  0  0  0  0  0  0
    0.5690   65.7860   69.4180 O   0  0  0  0  0  0  0  0  0  0  0  0
    0.6500   67.0270   68.8560 C   0  0  0  0  0  0  0  0  0  0  0  0
    1.8670   67.6790   69.0510 C   0  0  0  0  0  0  0  0  0  0  0  0
    2.1000   68.9360   68.4930 C   0  0  0  0  0  0  0  0  0  0  0  0
    1.1200   69.5420   67.7080 C   0  0  0  0  0  0  0  0  0  0  0  0
   -0.1060   68.9000   67.4930 C   0  0  0  0  0  0  0  0  0  0  0  0
   -0.3430   67.6570   68.1080 C   0  0  0  0  0  0  0  0  0  0  0  0
   -1.1440   69.4940   66.5780 C   0  0  0  0  0  0  0  0  0  0  0  0
   -1.8580   68.5050   65.6750 N   0  0  0  0  0  4  0  0  0  0  0  0
   -1.6570   68.7720   64.2060 C   0  0  0  0  0  0  0  0  0  0  0  0
   -3.3100   68.3340   66.0060 C   0  0  0  0  0  0  0  0  0  0  0  0
   -0.4142   62.4820   73.1456 H   0  0  0  0  0  0  0  0  0  0  0  0
    3.4876   61.8333   70.0308 H   0  0  0  0  0  0  0  0  0  0  0  0
    3.4103   64.8352   70.5864 H   0  0  0  0  0  0  0  0  0  0  0  0
    2.5472   64.3987   69.1141 H   0  0  0  0  0  0  0  0  0  0  0  0
    1.6547   66.4701   70.9825 H   0  0  0  0  0  0  0  0  0  0  0  0
   -0.1457   60.1018   74.9178 H   0  0  0  0  0  0  0  0  0  0  0  0
    1.1757   58.9045   74.7007 H   0  0  0  0  0  0  0  0  0  0  0  0
    1.5471   60.6620   74.7007 H   0  0  0  0  0  0  0  0  0  0  0  0
    4.4680   59.4140   72.3247 H   0  0  0  0  0  0  0  0  0  0  0  0
    4.2885   58.5300   70.7713 H   0  0  0  0  0  0  0  0  0  0  0  0
    4.4797   60.3160   70.7713 H   0  0  0  0  0  0  0  0  0  0  0  0
    2.6522   67.1966   69.6517 H   0  0  0  0  0  0  0  0  0  0  0  0
    3.0565   69.4489   68.6722 H   0  0  0  0  0  0  0  0  0  0  0  0
    1.3102   70.5268   67.2564 H   0  0  0  0  0  0  0  0  0  0  0  0
   -1.3258   67.1756   67.9969 H   0  0  0  0  0  0  0  0  0  0  0  0
   -1.9010   69.9920   67.2016 H   0  0  0  0  0  0  0  0  0  0  0  0
   -0.6022   70.1789   65.9091 H   0  0  0  0  0  0  0  0  0  0  0  0
   -1.3988   67.6051   65.8755 H   0  0  0  0  0  0  0  0  0  0  0  0
   -0.9999   69.6449   64.0785 H   0  0  0  0  0  0  0  0  0  0  0  0
   -1.1946   67.8929   63.7334 H   0  0  0  0  0  0  0  0  0  0  0  0
   -2.6297   68.9732   63.7334 H   0  0  0  0  0  0  0  0  0  0  0  0
   -3.4377   68.3190   67.0985 H   0  0  0  0  0  0  0  0  0  0  0  0
   -3.8839   69.1708   65.5812 H   0  0  0  0  0  0  0  0  0  0  0  0
   -3.6738   67.3868   65.5812 H   0  0  0  0  0  0  0  0  0  0  0  0
  2  1  2  0
  3  2  1  0
  4  3  2  0
  5  4  1  0
  6  5  2  0
  6  1  1  0
  7  4  1  0
  8  7  1  0
  9  3  1  0
  9  8  1  0
 10  9  2  0
 12 11  1  0
 12  1  1  0
 13  6  1  0
 14 13  1  0
 15  8  1  0
 16 15  1  0
 17 16  2  0
 18 17  1  0
 19 18  2  0
 20 19  1  0
 21 20  2  0
 21 16  1  0
 22 20  1  0
 23 22  1  0
 24 23  1  0
 25 23  1  0
  2 26  1  0
  5 27  1  0
  7 28  1  0
  7 29  1  0
  8 30  1  1
 11 31  1  0
 11 32  1  0
 11 33  1  0
 14 34  1  0
 14 35  1  0
 14 36  1  0
 17 37  1  0
 18 38  1  0
 19 39  1  0
 21 40  1  0
 22 41  1  0
 22 42  1  0
 23 43  1  0
 24 44  1  0
 24 45  1  0
 24 46  1  0
 25 47  1  0
 25 48  1  0
 25 49  1  0
M  CHG  1  23   1
M  END
>  <score>  (6) 
-7.466

$$$$
=
     RDKit          3D

 49 51  0  0  0  0  0  0  0  0999 V2000
    2.9930   58.7750   74.2630 C   0  0  0  0  0  0  0  0  0  0  0  0
    3.8110   59.7060   73.6190 C   0  0  0  0  0  0  0  0  0  0  0  0
    3.8840   59.6490   72.2380 C   0  0  0  0  0  0  0  0  0  0  0  0
    3.1920   58.7180   71.4800 C   0  0  0  0  0  0  0  0  0  0  0  0
    2.3800   57.7830   72.1060 C   0  0  0  0  0  0  0  0  0  0  0  0
    2.2720   57.8100   73.5040 C   0  0  0  0  0  0  0  0  0  0  0  0
    3.4840   58.8370   70.0160 C   0  0  0  0  0  0  0  0  0  0  0  0
    4.3040   60.1460   69.8860 C   0  0  2  0  0  0  0  0  0  0  0  0
    4.6480   60.5010   71.3380 C   0  0  0  0  0  0  0  0  0  0  0  0
    5.4270   61.3630   71.7220 O   0  0  0  0  0  0  0  0  0  0  0  0
    3.8660   58.1480   76.4030 C   0  0  0  0  0  0  0  0  0  0  0  0
    2.8200   58.7110   75.6240 O   0  0  0  0  0  0  0  0  0  0  0  0
    1.5010   56.9390   74.2330 O   0  0  0  0  0  0  0  0  0  0  0  0
    1.8320   55.5580   74.1910 C   0  0  0  0  0  0  0  0  0  0  0  0
    3.4830   61.1060   69.2330 O   0  0  0  0  0  0  0  0  0  0  0  0
    2.8290   62.0480   69.9730 C   0  0  0  0  0  0  0  0  0  0  0  0
    3.3200   63.3450   69.8340 C   0  0  0  0  0  0  0  0  0  0  0  0
    2.7180   64.4120   70.5020 C   0  0  0  0  0  0  0  0  0  0  0  0
    1.5960   64.1900   71.2980 C   0  0  0  0  0  0  0  0  0  0  0  0
    1.0810   62.8950   71.4450 C   0  0  0  0  0  0  0  0  0  0  0  0
    1.7350   61.8250   70.8070 C   0  0  0  0  0  0  0  0  0  0  0  0
   -0.1810   62.6440   72.2260 C   0  0  0  0  0  0  0  0  0  0  0  0
   -0.0150   61.8040   73.4790 N   0  0  0  0  0  4  0  0  0  0  0  0
   -0.4610   60.3740   73.3140 C   0  0  0  0  0  0  0  0  0  0  0  0
   -0.6200   62.4280   74.7010 C   0  0  0  0  0  0  0  0  0  0  0  0
    4.3770   60.4576   74.1889 H   0  0  0  0  0  0  0  0  0  0  0  0
    1.8309   57.0341   71.5164 H   0  0  0  0  0  0  0  0  0  0  0  0
    4.0706   57.9749   69.6657 H   0  0  0  0  0  0  0  0  0  0  0  0
    2.5675   58.8568   69.4081 H   0  0  0  0  0  0  0  0  0  0  0  0
    5.2257   60.0811   69.2891 H   0  0  0  0  0  0  0  0  0  0  0  0
    3.6352   58.2722   77.4713 H   0  0  0  0  0  0  0  0  0  0  0  0
    3.9607   57.0770   76.1705 H   0  0  0  0  0  0  0  0  0  0  0  0
    4.8121   58.6588   76.1705 H   0  0  0  0  0  0  0  0  0  0  0  0
    1.9246   55.1718   75.2168 H   0  0  0  0  0  0  0  0  0  0  0  0
    1.0404   55.0072   73.6618 H   0  0  0  0  0  0  0  0  0  0  0  0
    2.7873   55.4258   73.6618 H   0  0  0  0  0  0  0  0  0  0  0  0
    4.1925   63.5297   69.1900 H   0  0  0  0  0  0  0  0  0  0  0  0
    3.1287   65.4274   70.4003 H   0  0  0  0  0  0  0  0  0  0  0  0
    1.1131   65.0338   71.8125 H   0  0  0  0  0  0  0  0  0  0  0  0
    1.3775   60.7974   70.9689 H   0  0  0  0  0  0  0  0  0  0  0  0
   -0.5956   63.6185   72.5232 H   0  0  0  0  0  0  0  0  0  0  0  0
   -0.8400   62.0677   71.5599 H   0  0  0  0  0  0  0  0  0  0  0  0
    1.0035   61.7779   73.6304 H   0  0  0  0  0  0  0  0  0  0  0  0
   -0.6033   59.9177   74.3047 H   0  0  0  0  0  0  0  0  0  0  0  0
   -1.4100   60.3477   72.7584 H   0  0  0  0  0  0  0  0  0  0  0  0
    0.3048   59.8128   72.7584 H   0  0  0  0  0  0  0  0  0  0  0  0
   -0.1796   61.9738   75.6009 H   0  0  0  0  0  0  0  0  0  0  0  0
   -0.4173   63.5092   74.6993 H   0  0  0  0  0  0  0  0  0  0  0  0
   -1.7069   62.2588   74.6993 H   0  0  0  0  0  0  0  0  0  0  0  0
  2  1  2  0
  3  2  1  0
  4  3  2  0
  5  4  1  0
  6  5  2  0
  6  1  1  0
  7  4  1  0
  8  7  1  0
  9  3  1  0
  9  8  1  0
 10  9  2  0
 12 11  1  0
 12  1  1  0
 13  6  1  0
 14 13  1  0
 15  8  1  0
 16 15  1  0
 17 16  2  0
 18 17  1  0
 19 18  2  0
 20 19  1  0
 21 20  2  0
 21 16  1  0
 22 20  1  0
 23 22  1  0
 24 23  1  0
 25 23  1  0
  2 26  1  0
  5 27  1  0
  7 28  1  0
  7 29  1  0
  8 30  1  6
 11 31  1  0
 11 32  1  0
 11 33  1  0
 14 34  1  0
 14 35  1  0
 14 36  1  0
 17 37  1  0
 18 38  1  0
 19 39  1  0
 21 40  1  0
 22 41  1  0
 22 42  1  0
 23 43  1  0
 24 44  1  0
 24 45  1  0
 24 46  1  0
 25 47  1  0
 25 48  1  0
 25 49  1  0
M  CHG  1  23   1
M  END
>  <score>  (7) 
-7.454

$$$$
=
     RDKit          3D

 49 51  0  0  0  0  0  0  0  0999 V2000
    1.9210   68.7270   66.1420 C   0  0  0  0  0  0  0  0  0  0  0  0
    2.1210   68.2660   67.4460 C   0  0  0  0  0  0  0  0  0  0  0  0
    1.0750   67.5960   68.0570 C   0  0  0  0  0  0  0  0  0  0  0  0
   -0.1450   67.3710   67.4390 C   0  0  0  0  0  0  0  0  0  0  0  0
   -0.3600   67.8280   66.1470 C   0  0  0  0  0  0  0  0  0  0  0  0
    0.6760   68.5060   65.4880 C   0  0  0  0  0  0  0  0  0  0  0  0
   -1.1220   66.6710   68.3330 C   0  0  0  0  0  0  0  0  0  0  0  0
   -0.2880   66.2550   69.5730 C   0  0  2  0  0  0  0  0  0  0  0  0
    1.0310   67.0150   69.3910 C   0  0  0  0  0  0  0  0  0  0  0  0
    1.9350   67.1310   70.2080 O   0  0  0  0  0  0  0  0  0  0  0  0
    4.0130   68.6890   64.9780 C   0  0  0  0  0  0  0  0  0  0  0  0
    2.8650   69.4050   65.4110 O   0  0  0  0  0  0  0  0  0  0  0  0
    0.5810   69.0030   64.2120 O   0  0  0  0  0  0  0  0  0  0  0  0
   -0.6140   68.7530   63.4860 C   0  0  0  0  0  0  0  0  0  0  0  0
   -0.1510   64.8400   69.5440 O   0  0  0  0  0  0  0  0  0  0  0  0
    0.4530   64.2000   70.5870 C   0  0  0  0  0  0  0  0  0  0  0  0
    1.5670   63.4370   70.2390 C   0  0  0  0  0  0  0  0  0  0  0  0
    2.3040   62.7650   71.2140 C   0  0  0  0  0  0  0  0  0  0  0  0
    1.9460   62.8740   72.5560 C   0  0  0  0  0  0  0  0  0  0  0  0
    0.8350   63.6420   72.9280 C   0  0  0  0  0  0  0  0  0  0  0  0
    0.0720   64.2690   71.9260 C   0  0  0  0  0  0  0  0  0  0  0  0
    0.4820   63.8480   74.3770 C   0  0  0  0  0  0  0  0  0  0  0  0
   -0.0710   62.6290   75.0920 N   0  0  0  0  0  4  0  0  0  0  0  0
    0.9770   61.8230   75.8150 C   0  0  0  0  0  0  0  0  0  0  0  0
   -0.9240   61.7590   74.2190 C   0  0  0  0  0  0  0  0  0  0  0  0
    3.0753   68.4296   67.9681 H   0  0  0  0  0  0  0  0  0  0  0  0
   -1.3261   67.6616   65.6480 H   0  0  0  0  0  0  0  0  0  0  0  0
   -1.9379   67.3493   68.6233 H   0  0  0  0  0  0  0  0  0  0  0  0
   -1.5955   65.8091   67.8401 H   0  0  0  0  0  0  0  0  0  0  0  0
   -0.7255   66.4965   70.5529 H   0  0  0  0  0  0  0  0  0  0  0  0
    4.5775   68.3369   65.8540 H   0  0  0  0  0  0  0  0  0  0  0  0
    3.6999   67.8258   64.3724 H   0  0  0  0  0  0  0  0  0  0  0  0
    4.6505   69.3499   64.3724 H   0  0  0  0  0  0  0  0  0  0  0  0
   -1.4413   68.5799   64.1900 H   0  0  0  0  0  0  0  0  0  0  0  0
   -0.8470   69.6219   62.8529 H   0  0  0  0  0  0  0  0  0  0  0  0
   -0.4791   67.8636   62.8529 H   0  0  0  0  0  0  0  0  0  0  0  0
    1.8680   63.3642   69.1835 H   0  0  0  0  0  0  0  0  0  0  0  0
    3.1678   62.1490   70.9234 H   0  0  0  0  0  0  0  0  0  0  0  0
    2.5372   62.3557   73.3254 H   0  0  0  0  0  0  0  0  0  0  0  0
   -0.8380   64.8214   72.2031 H   0  0  0  0  0  0  0  0  0  0  0  0
    1.3920   64.1678   74.9058 H   0  0  0  0  0  0  0  0  0  0  0  0
   -0.3230   64.5976   74.3892 H   0  0  0  0  0  0  0  0  0  0  0  0
   -0.6897   63.0224   75.8154 H   0  0  0  0  0  0  0  0  0  0  0  0
    0.8376   61.9302   76.9008 H   0  0  0  0  0  0  0  0  0  0  0  0
    0.8817   60.7633   75.5360 H   0  0  0  0  0  0  0  0  0  0  0  0
    1.9768   62.1871   75.5360 H   0  0  0  0  0  0  0  0  0  0  0  0
   -1.5555   61.1149   74.8485 H   0  0  0  0  0  0  0  0  0  0  0  0
   -1.5625   62.3906   73.5839 H   0  0  0  0  0  0  0  0  0  0  0  0
   -0.2799   61.1330   73.5839 H   0  0  0  0  0  0  0  0  0  0  0  0
  2  1  2  0
  3  2  1  0
  4  3  2  0
  5  4  1  0
  6  5  2  0
  6  1  1  0
  7  4  1  0
  8  7  1  0
  9  3  1  0
  9  8  1  0
 10  9  2  0
 12 11  1  0
 12  1  1  0
 13  6  1  0
 14 13  1  0
 15  8  1  0
 16 15  1  0
 17 16  2  0
 18 17  1  0
 19 18  2  0
 20 19  1  0
 21 20  2  0
 21 16  1  0
 22 20  1  0
 23 22  1  0
 24 23  1  0
 25 23  1  0
  2 26  1  0
  5 27  1  0
  7 28  1  0
  7 29  1  0
  8 30  1  1
 11 31  1  0
 11 32  1  0
 11 33  1  0
 14 34  1  0
 14 35  1  0
 14 36  1  0
 17 37  1  0
 18 38  1  0
 19 39  1  0
 21 40  1  0
 22 41  1  0
 22 42  1  0
 23 43  1  0
 24 44  1  0
 24 45  1  0
 24 46  1  0
 25 47  1  0
 25 48  1  0
 25 49  1  0
M  CHG  1  23   1
M  END
>  <score>  (8) 
-7.391

$$$$
=
     RDKit          3D

 49 51  0  0  0  0  0  0  0  0999 V2000
    2.4360   62.3200   73.1580 C   0  0  0  0  0  0  0  0  0  0  0  0
    2.6880   62.8160   71.8760 C   0  0  0  0  0  0  0  0  0  0  0  0
    1.8230   63.7730   71.3770 C   0  0  0  0  0  0  0  0  0  0  0  0
    0.7300   64.2510   72.0840 C   0  0  0  0  0  0  0  0  0  0  0  0
    0.4640   63.7640   73.3560 C   0  0  0  0  0  0  0  0  0  0  0  0
    1.3210   62.7970   73.9030 C   0  0  0  0  0  0  0  0  0  0  0  0
   -0.0740   65.2410   71.3010 C   0  0  0  0  0  0  0  0  0  0  0  0
    0.7810   65.5290   70.0390 C   0  0  2  0  0  0  0  0  0  0  0  0
    1.8690   64.4480   70.0880 C   0  0  0  0  0  0  0  0  0  0  0  0
    2.6740   64.1720   69.2090 O   0  0  0  0  0  0  0  0  0  0  0  0
    3.9920   60.5100   72.9720 C   0  0  0  0  0  0  0  0  0  0  0  0
    3.2070   61.3720   73.7830 O   0  0  0  0  0  0  0  0  0  0  0  0
    1.1600   62.2430   75.1490 O   0  0  0  0  0  0  0  0  0  0  0  0
    0.0350   61.4030   75.3650 C   0  0  0  0  0  0  0  0  0  0  0  0
    1.2780   66.8570   70.1490 O   0  0  0  0  0  0  0  0  0  0  0  0
    1.5060   67.5860   69.0190 C   0  0  0  0  0  0  0  0  0  0  0  0
    2.2530   68.7480   69.2130 C   0  0  0  0  0  0  0  0  0  0  0  0
    2.5950   69.5640   68.1350 C   0  0  0  0  0  0  0  0  0  0  0  0
    2.2130   69.2080   66.8430 C   0  0  0  0  0  0  0  0  0  0  0  0
    1.4690   68.0410   66.6250 C   0  0  0  0  0  0  0  0  0  0  0  0
    1.0880   67.2590   67.7300 C   0  0  0  0  0  0  0  0  0  0  0  0
    1.1210   67.5900   65.2310 C   0  0  0  0  0  0  0  0  0  0  0  0
   -0.1730   68.1470   64.6700 N   0  0  0  0  0  4  0  0  0  0  0  0
    0.0150   68.9980   63.4410 C   0  0  0  0  0  0  0  0  0  0  0  0
   -1.0190   68.8430   65.6940 C   0  0  0  0  0  0  0  0  0  0  0  0
    3.5438   62.4581   71.2848 H   0  0  0  0  0  0  0  0  0  0  0  0
   -0.4033   64.1296   73.9253 H   0  0  0  0  0  0  0  0  0  0  0  0
   -1.0486   64.8148   71.0208 H   0  0  0  0  0  0  0  0  0  0  0  0
   -0.2879   66.1534   71.8770 H   0  0  0  0  0  0  0  0  0  0  0  0
    0.2515   65.4834   69.0759 H   0  0  0  0  0  0  0  0  0  0  0  0
    4.5934   59.8496   73.6140 H   0  0  0  0  0  0  0  0  0  0  0  0
    3.3312   59.9016   72.3369 H   0  0  0  0  0  0  0  0  0  0  0  0
    4.6593   61.1111   72.3369 H   0  0  0  0  0  0  0  0  0  0  0  0
   -0.1290   61.2805   76.4458 H   0  0  0  0  0  0  0  0  0  0  0  0
   -0.8559   61.8587   74.9082 H   0  0  0  0  0  0  0  0  0  0  0  0
    0.2188   60.4193   74.9082 H   0  0  0  0  0  0  0  0  0  0  0  0
    2.5759   69.0238   70.2277 H   0  0  0  0  0  0  0  0  0  0  0  0
    3.1663   70.4886   68.3046 H   0  0  0  0  0  0  0  0  0  0  0  0
    2.4963   69.8449   65.9921 H   0  0  0  0  0  0  0  0  0  0  0  0
    0.4506   66.3760   67.5748 H   0  0  0  0  0  0  0  0  0  0  0  0
    1.9394   67.8942   64.5619 H   0  0  0  0  0  0  0  0  0  0  0  0
    0.9804   66.5007   65.2917 H   0  0  0  0  0  0  0  0  0  0  0  0
   -0.6957   67.3115   64.3706 H   0  0  0  0  0  0  0  0  0  0  0  0
    0.2432   70.0312   63.7418 H   0  0  0  0  0  0  0  0  0  0  0  0
    0.8465   68.5983   62.8419 H   0  0  0  0  0  0  0  0  0  0  0  0
   -0.9075   68.9858   62.8419 H   0  0  0  0  0  0  0  0  0  0  0  0
   -0.6790   68.5633   66.7020 H   0  0  0  0  0  0  0  0  0  0  0  0
   -0.9287   69.9317   65.5656 H   0  0  0  0  0  0  0  0  0  0  0  0
   -2.0699   68.5446   65.5656 H   0  0  0  0  0  0  0  0  0  0  0  0
  2  1  2  0
  3  2  1  0
  4  3  2  0
  5  4  1  0
  6  5  2  0
  6  1  1  0
  7  4  1  0
  8  7  1  0
  9  3  1  0
  9  8  1  0
 10  9  2  0
 12 11  1  0
 12  1  1  0
 13  6  1  0
 14 13  1  0
 15  8  1  0
 16 15  1  0
 17 16  2  0
 18 17  1  0
 19 18  2  0
 20 19  1  0
 21 20  2  0
 21 16  1  0
 22 20  1  0
 23 22  1  0
 24 23  1  0
 25 23  1  0
  2 26  1  0
  5 27  1  0
  7 28  1  0
  7 29  1  0
  8 30  1  6
 11 31  1  0
 11 32  1  0
 11 33  1  0
 14 34  1  0
 14 35  1  0
 14 36  1  0
 17 37  1  0
 18 38  1  0
 19 39  1  0
 21 40  1  0
 22 41  1  0
 22 42  1  0
 23 43  1  0
 24 44  1  0
 24 45  1  0
 24 46  1  0
 25 47  1  0
 25 48  1  0
 25 49  1  0
M  CHG  1  23   1
M  END
>  <score>  (9) 
-7.379

$$$$
