=
     RDKit          3D

 29 31  0  0  0  0  0  0  0  0999 V2000
    4.9220   69.7370   65.7930 C   0  0  0  0  0  0  0  0  0  0  0  0
    5.3390   70.1500   67.0710 C   0  0  0  0  0  0  0  0  0  0  0  0
    6.7700   70.5590   67.3250 C   0  0  0  0  0  0  0  0  0  0  0  0
    6.9750   71.3110   68.6400 C   0  0  0  0  0  0  0  0  0  0  0  0
    6.2380   70.6150   69.7750 C   0  0  0  0  0  0  0  0  0  0  0  0
    4.7400   70.6070   69.4910 C   0  0  0  0  0  0  0  0  0  0  0  0
    4.4000   70.1320   68.1020 C   0  0  0  0  0  0  0  0  0  0  0  0
    3.1170   69.7360   67.9250 N   0  0  0  0  0  0  0  0  0  0  0  0
    2.7320   69.3020   66.7180 C   0  0  0  0  0  0  0  0  0  0  0  0
    3.5980   69.2570   65.6050 C   0  0  0  0  0  0  0  0  0  0  0  0
    3.0970   68.7400   64.3820 C   0  0  0  0  0  0  0  0  0  0  0  0
    1.7780   68.3010   64.2650 C   0  0  0  0  0  0  0  0  0  0  0  0
    0.9360   68.3660   65.3640 C   0  0  0  0  0  0  0  0  0  0  0  0
    1.4230   68.8630   66.5740 C   0  0  0  0  0  0  0  0  0  0  0  0
    5.9070   69.6050   64.7780 N   0  0  0  0  0  0  0  0  0  0  0  0
    7.3914   69.6515   67.3444 H   0  0  0  0  0  0  0  0  0  0  0  0
    7.0538   71.2478   66.5156 H   0  0  0  0  0  0  0  0  0  0  0  0
    8.0494   71.3448   68.8735 H   0  0  0  0  0  0  0  0  0  0  0  0
    6.5772   72.3308   68.5313 H   0  0  0  0  0  0  0  0  0  0  0  0
    6.5983   69.5794   69.8634 H   0  0  0  0  0  0  0  0  0  0  0  0
    6.4263   71.1548   70.7148 H   0  0  0  0  0  0  0  0  0  0  0  0
    4.2503   69.9416   70.2173 H   0  0  0  0  0  0  0  0  0  0  0  0
    4.3863   71.6451   69.5764 H   0  0  0  0  0  0  0  0  0  0  0  0
    3.7626   68.6843   63.5080 H   0  0  0  0  0  0  0  0  0  0  0  0
    1.4088   67.9060   63.3071 H   0  0  0  0  0  0  0  0  0  0  0  0
   -0.1078   68.0286   65.2833 H   0  0  0  0  0  0  0  0  0  0  0  0
    0.7479   68.9082   67.4413 H   0  0  0  0  0  0  0  0  0  0  0  0
    5.6340   69.3044   63.8314 H   0  0  0  0  0  0  0  0  0  0  0  0
    6.8942   69.8098   64.9886 H   0  0  0  0  0  0  0  0  0  0  0  0
  2  1  2  0
  3  2  1  0
  4  3  1  0
  5  4  1  0
  6  5  1  0
  7  6  1  0
  7  2  1  0
  8  7  2  0
  9  8  1  0
 10  9  2  0
 10  1  1  0
 11 10  1  0
 12 11  2  0
 13 12  1  0
 14 13  2  0
 14  9  1  0
 15  1  1  0
  3 16  1  0
  3 17  1  0
  4 18  1  0
  4 19  1  0
  5 20  1  0
  5 21  1  0
  6 22  1  0
  6 23  1  0
 11 24  1  0
 12 25  1  0
 13 26  1  0
 14 27  1  0
 15 28  1  0
 15 29  1  0
M  END
>  <score>  (1) 
-9.645

$$$$
=
     RDKit          3D

 29 31  0  0  0  0  0  0  0  0999 V2000
    4.9950   69.5240   65.1400 C   0  0  0  0  0  0  0  0  0  0  0  0
    3.6920   69.1170   64.8030 C   0  0  0  0  0  0  0  0  0  0  0  0
    3.3410   68.7380   63.3840 C   0  0  0  0  0  0  0  0  0  0  0  0
    2.0160   67.9880   63.2540 C   0  0  0  0  0  0  0  0  0  0  0  0
    0.9340   68.6660   64.0820 C   0  0  0  0  0  0  0  0  0  0  0  0
    1.3200   68.6430   65.5570 C   0  0  0  0  0  0  0  0  0  0  0  0
    2.7280   69.1130   65.8110 C   0  0  0  0  0  0  0  0  0  0  0  0
    2.9930   69.4820   67.0870 N   0  0  0  0  0  0  0  0  0  0  0  0
    4.2230   69.9110   67.3970 C   0  0  0  0  0  0  0  0  0  0  0  0
    5.2740   69.9770   66.4580 C   0  0  0  0  0  0  0  0  0  0  0  0
    6.5280   70.4840   66.8850 C   0  0  0  0  0  0  0  0  0  0  0  0
    6.7360   70.8960   68.2020 C   0  0  0  0  0  0  0  0  0  0  0  0
    5.6960   70.8110   69.1160 C   0  0  0  0  0  0  0  0  0  0  0  0
    4.4560   70.3230   68.7030 C   0  0  0  0  0  0  0  0  0  0  0  0
    5.9410   69.6780   64.0910 N   0  0  0  0  0  0  0  0  0  0  0  0
    3.2784   69.6584   62.7849 H   0  0  0  0  0  0  0  0  0  0  0  0
    4.1296   68.0574   63.0306 H   0  0  0  0  0  0  0  0  0  0  0  0
    1.7091   67.9765   62.1977 H   0  0  0  0  0  0  0  0  0  0  0  0
    2.1524   66.9602   63.6215 H   0  0  0  0  0  0  0  0  0  0  0  0
    0.8206   69.7088   63.7507 H   0  0  0  0  0  0  0  0  0  0  0  0
   -0.0161   68.1282   63.9474 H   0  0  0  0  0  0  0  0  0  0  0  0
    0.6287   69.2966   66.1092 H   0  0  0  0  0  0  0  0  0  0  0  0
    1.2595   67.5975   65.8936 H   0  0  0  0  0  0  0  0  0  0  0  0
    7.3544   70.5539   66.1624 H   0  0  0  0  0  0  0  0  0  0  0  0
    7.7168   71.2850   68.5128 H   0  0  0  0  0  0  0  0  0  0  0  0
    5.8479   71.1261   70.1589 H   0  0  0  0  0  0  0  0  0  0  0  0
    3.6369   70.2626   69.4347 H   0  0  0  0  0  0  0  0  0  0  0  0
    6.9037   69.9749   64.3052 H   0  0  0  0  0  0  0  0  0  0  0  0
    5.6640   69.4927   63.1164 H   0  0  0  0  0  0  0  0  0  0  0  0
  2  1  2  0
  3  2  1  0
  4  3  1  0
  5  4  1  0
  6  5  1  0
  7  6  1  0
  7  2  1  0
  8  7  2  0
  9  8  1  0
 10  9  2  0
 10  1  1  0
 11 10  1  0
 12 11  2  0
 13 12  1  0
 14 13  2  0
 14  9  1  0
 15  1  1  0
  3 16  1  0
  3 17  1  0
  4 18  1  0
  4 19  1  0
  5 20  1  0
  5 21  1  0
  6 22  1  0
  6 23  1  0
 11 24  1  0
 12 25  1  0
 13 26  1  0
 14 27  1  0
 15 28  1  0
 15 29  1  0
M  END
>  <score>  (2) 
-9.555

$$$$
=
     RDKit          3D

 29 31  0  0  0  0  0  0  0  0999 V2000
    2.9700   69.5050   67.2090 C   0  0  0  0  0  0  0  0  0  0  0  0
    4.1880   70.0060   67.7010 C   0  0  0  0  0  0  0  0  0  0  0  0
    4.3090   70.4900   69.1270 C   0  0  0  0  0  0  0  0  0  0  0  0
    5.7510   70.6580   69.6040 C   0  0  0  0  0  0  0  0  0  0  0  0
    6.5820   71.3790   68.5510 C   0  0  0  0  0  0  0  0  0  0  0  0
    6.6260   70.5510   67.2710 C   0  0  0  0  0  0  0  0  0  0  0  0
    5.2680   70.0780   66.8210 C   0  0  0  0  0  0  0  0  0  0  0  0
    5.1910   69.6900   65.5260 N   0  0  0  0  0  0  0  0  0  0  0  0
    4.0190   69.2540   65.0470 C   0  0  0  0  0  0  0  0  0  0  0  0
    2.8550   69.1550   65.8360 C   0  0  0  0  0  0  0  0  0  0  0  0
    1.6560   68.7180   65.2170 C   0  0  0  0  0  0  0  0  0  0  0  0
    1.6190   68.3740   63.8650 C   0  0  0  0  0  0  0  0  0  0  0  0
    2.7770   68.4630   63.1070 C   0  0  0  0  0  0  0  0  0  0  0  0
    3.9580   68.9020   63.7050 C   0  0  0  0  0  0  0  0  0  0  0  0
    1.8290   69.5730   68.0530 N   0  0  0  0  0  0  0  0  0  0  0  0
    3.8024   71.4631   69.2065 H   0  0  0  0  0  0  0  0  0  0  0  0
    3.8493   69.7209   69.7651 H   0  0  0  0  0  0  0  0  0  0  0  0
    5.7582   71.2446   70.5345 H   0  0  0  0  0  0  0  0  0  0  0  0
    6.1854   69.6627   69.7790 H   0  0  0  0  0  0  0  0  0  0  0  0
    6.1297   72.3586   68.3368 H   0  0  0  0  0  0  0  0  0  0  0  0
    7.6057   71.5178   68.9289 H   0  0  0  0  0  0  0  0  0  0  0  0
    7.0640   71.1667   66.4716 H   0  0  0  0  0  0  0  0  0  0  0  0
    7.2296   69.6560   67.4822 H   0  0  0  0  0  0  0  0  0  0  0  0
    0.7356   68.6487   65.8154 H   0  0  0  0  0  0  0  0  0  0  0  0
    0.6793   68.0351   63.4044 H   0  0  0  0  0  0  0  0  0  0  0  0
    2.7641   68.1893   62.0417 H   0  0  0  0  0  0  0  0  0  0  0  0
    4.8702   68.9717   63.0942 H   0  0  0  0  0  0  0  0  0  0  0  0
    0.9217   69.2146   67.7224 H   0  0  0  0  0  0  0  0  0  0  0  0
    1.9091   69.9807   68.9955 H   0  0  0  0  0  0  0  0  0  0  0  0
  2  1  2  0
  3  2  1  0
  4  3  1  0
  5  4  1  0
  6  5  1  0
  7  6  1  0
  7  2  1  0
  8  7  2  0
  9  8  1  0
 10  9  2  0
 10  1  1  0
 11 10  1  0
 12 11  2  0
 13 12  1  0
 14 13  2  0
 14  9  1  0
 15  1  1  0
  3 16  1  0
  3 17  1  0
  4 18  1  0
  4 19  1  0
  5 20  1  0
  5 21  1  0
  6 22  1  0
  6 23  1  0
 11 24  1  0
 12 25  1  0
 13 26  1  0
 14 27  1  0
 15 28  1  0
 15 29  1  0
M  END
>  <score>  (3) 
-9.554

$$$$
=
     RDKit          3D

 29 31  0  0  0  0  0  0  0  0999 V2000
    3.1020   69.3780   66.2600 C   0  0  0  0  0  0  0  0  0  0  0  0
    3.3940   69.0770   64.9180 C   0  0  0  0  0  0  0  0  0  0  0  0
    2.3490   68.4640   64.0160 C   0  0  0  0  0  0  0  0  0  0  0  0
    2.6970   68.5340   62.5290 C   0  0  0  0  0  0  0  0  0  0  0  0
    4.1450   68.1240   62.2990 C   0  0  0  0  0  0  0  0  0  0  0  0
    5.0770   69.0880   63.0240 C   0  0  0  0  0  0  0  0  0  0  0  0
    4.6870   69.3280   64.4600 C   0  0  0  0  0  0  0  0  0  0  0  0
    5.6620   69.8410   65.2460 N   0  0  0  0  0  0  0  0  0  0  0  0
    5.3950   70.0860   66.5350 C   0  0  0  0  0  0  0  0  0  0  0  0
    4.1310   69.8550   67.1160 C   0  0  0  0  0  0  0  0  0  0  0  0
    3.9690   70.1120   68.5020 C   0  0  0  0  0  0  0  0  0  0  0  0
    5.0210   70.5980   69.2790 C   0  0  0  0  0  0  0  0  0  0  0  0
    6.2540   70.8330   68.6890 C   0  0  0  0  0  0  0  0  0  0  0  0
    6.4260   70.5730   67.3290 C   0  0  0  0  0  0  0  0  0  0  0  0
    1.8380   68.9830   66.7750 N   0  0  0  0  0  0  0  0  0  0  0  0
    2.2284   67.4066   64.2942 H   0  0  0  0  0  0  0  0  0  0  0  0
    1.4256   69.0451   64.1558 H   0  0  0  0  0  0  0  0  0  0  0  0
    2.0358   67.8552   61.9704 H   0  0  0  0  0  0  0  0  0  0  0  0
    2.5612   69.5685   62.1808 H   0  0  0  0  0  0  0  0  0  0  0  0
    4.3016   67.1057   62.6843 H   0  0  0  0  0  0  0  0  0  0  0  0
    4.3627   68.1505   61.2211 H   0  0  0  0  0  0  0  0  0  0  0  0
    6.0948   68.6713   63.0036 H   0  0  0  0  0  0  0  0  0  0  0  0
    5.0144   70.0550   62.5035 H   0  0  0  0  0  0  0  0  0  0  0  0
    2.9933   69.9241   68.9739 H   0  0  0  0  0  0  0  0  0  0  0  0
    4.8736   70.7933   70.3514 H   0  0  0  0  0  0  0  0  0  0  0  0
    7.0902   71.2215   69.2889 H   0  0  0  0  0  0  0  0  0  0  0  0
    7.4086   70.7594   66.8711 H   0  0  0  0  0  0  0  0  0  0  0  0
    1.5937   69.1888   67.7542 H   0  0  0  0  0  0  0  0  0  0  0  0
    1.1660   68.4909   66.1691 H   0  0  0  0  0  0  0  0  0  0  0  0
  2  1  2  0
  3  2  1  0
  4  3  1  0
  5  4  1  0
  6  5  1  0
  7  6  1  0
  7  2  1  0
  8  7  2  0
  9  8  1  0
 10  9  2  0
 10  1  1  0
 11 10  1  0
 12 11  2  0
 13 12  1  0
 14 13  2  0
 14  9  1  0
 15  1  1  0
  3 16  1  0
  3 17  1  0
  4 18  1  0
  4 19  1  0
  5 20  1  0
  5 21  1  0
  6 22  1  0
  6 23  1  0
 11 24  1  0
 12 25  1  0
 13 26  1  0
 14 27  1  0
 15 28  1  0
 15 29  1  0
M  END
>  <score>  (4) 
-9.418

$$$$
=
     RDKit          3D

 29 31  0  0  0  0  0  0  0  0999 V2000
    4.8400   69.5670   65.3100 C   0  0  0  0  0  0  0  0  0  0  0  0
    3.9270   69.0760   64.3600 C   0  0  0  0  0  0  0  0  0  0  0  0
    4.3280   68.9050   62.9140 C   0  0  0  0  0  0  0  0  0  0  0  0
    3.3640   68.0410   62.1020 C   0  0  0  0  0  0  0  0  0  0  0  0
    1.9220   68.4400   62.3830 C   0  0  0  0  0  0  0  0  0  0  0  0
    1.5990   68.2110   63.8550 C   0  0  0  0  0  0  0  0  0  0  0  0
    2.6300   68.7900   64.7880 C   0  0  0  0  0  0  0  0  0  0  0  0
    2.2200   68.9650   66.0660 N   0  0  0  0  0  0  0  0  0  0  0  0
    3.0780   69.4730   66.9600 C   0  0  0  0  0  0  0  0  0  0  0  0
    4.4070   69.8180   66.6410 C   0  0  0  0  0  0  0  0  0  0  0  0
    5.2190   70.3860   67.6550 C   0  0  0  0  0  0  0  0  0  0  0  0
    4.7320   70.5890   68.9470 C   0  0  0  0  0  0  0  0  0  0  0  0
    3.4270   70.2310   69.2490 C   0  0  0  0  0  0  0  0  0  0  0  0
    2.6180   69.6810   68.2550 C   0  0  0  0  0  0  0  0  0  0  0  0
    6.1110   70.0050   64.8520 N   0  0  0  0  0  0  0  0  0  0  0  0
    4.3772   69.9003   62.4482 H   0  0  0  0  0  0  0  0  0  0  0  0
    5.2993   68.3887   62.9110 H   0  0  0  0  0  0  0  0  0  0  0  0
    3.5739   68.1742   61.0305 H   0  0  0  0  0  0  0  0  0  0  0  0
    3.5034   66.9882   62.3886 H   0  0  0  0  0  0  0  0  0  0  0  0
    1.7838   69.5040   62.1403 H   0  0  0  0  0  0  0  0  0  0  0  0
    1.2492   67.8277   61.7646 H   0  0  0  0  0  0  0  0  0  0  0  0
    0.6273   68.6769   64.0759 H   0  0  0  0  0  0  0  0  0  0  0  0
    1.5842   67.1236   64.0201 H   0  0  0  0  0  0  0  0  0  0  0  0
    6.2543   70.6726   67.4184 H   0  0  0  0  0  0  0  0  0  0  0  0
    5.3787   71.0298   69.7200 H   0  0  0  0  0  0  0  0  0  0  0  0
    3.0327   70.3797   70.2651 H   0  0  0  0  0  0  0  0  0  0  0  0
    1.5832   69.4030   68.5037 H   0  0  0  0  0  0  0  0  0  0  0  0
    6.8023   70.3701   65.5226 H   0  0  0  0  0  0  0  0  0  0  0  0
    6.3415   69.9576   63.8492 H   0  0  0  0  0  0  0  0  0  0  0  0
  2  1  2  0
  3  2  1  0
  4  3  1  0
  5  4  1  0
  6  5  1  0
  7  6  1  0
  7  2  1  0
  8  7  2  0
  9  8  1  0
 10  9  2  0
 10  1  1  0
 11 10  1  0
 12 11  2  0
 13 12  1  0
 14 13  2  0
 14  9  1  0
 15  1  1  0
  3 16  1  0
  3 17  1  0
  4 18  1  0
  4 19  1  0
  5 20  1  0
  5 21  1  0
  6 22  1  0
  6 23  1  0
 11 24  1  0
 12 25  1  0
 13 26  1  0
 14 27  1  0
 15 28  1  0
 15 29  1  0
M  END
>  <score>  (5) 
-9.294

$$$$
=
     RDKit          3D

 29 31  0  0  0  0  0  0  0  0999 V2000
    3.0380   69.9970   68.2600 C   0  0  0  0  0  0  0  0  0  0  0  0
    2.2630   69.3560   67.2770 C   0  0  0  0  0  0  0  0  0  0  0  0
    0.8140   69.0140   67.5320 C   0  0  0  0  0  0  0  0  0  0  0  0
    0.0300   68.6600   66.2700 C   0  0  0  0  0  0  0  0  0  0  0  0
    0.8270   67.7040   65.3950 C   0  0  0  0  0  0  0  0  0  0  0  0
    2.1230   68.3710   64.9460 C   0  0  0  0  0  0  0  0  0  0  0  0
    2.8850   69.0120   66.0770 C   0  0  0  0  0  0  0  0  0  0  0  0
    4.1900   69.2660   65.8230 N   0  0  0  0  0  0  0  0  0  0  0  0
    4.9380   69.8380   66.7760 C   0  0  0  0  0  0  0  0  0  0  0  0
    4.4240   70.2120   68.0350 C   0  0  0  0  0  0  0  0  0  0  0  0
    5.3150   70.7740   68.9860 C   0  0  0  0  0  0  0  0  0  0  0  0
    6.6640   70.9730   68.6900 C   0  0  0  0  0  0  0  0  0  0  0  0
    7.1490   70.6120   67.4420 C   0  0  0  0  0  0  0  0  0  0  0  0
    6.2830   70.0490   66.5040 C   0  0  0  0  0  0  0  0  0  0  0  0
    2.4550   70.2100   69.5380 N   0  0  0  0  0  0  0  0  0  0  0  0
    0.7765   68.1532   68.2158 H   0  0  0  0  0  0  0  0  0  0  0  0
    0.3442   69.9128   67.9580 H   0  0  0  0  0  0  0  0  0  0  0  0
   -0.9189   68.1826   66.5559 H   0  0  0  0  0  0  0  0  0  0  0  0
   -0.1638   69.5822   65.7025 H   0  0  0  0  0  0  0  0  0  0  0  0
    1.0637   66.7957   65.9685 H   0  0  0  0  0  0  0  0  0  0  0  0
    0.2299   67.4392   64.5099 H   0  0  0  0  0  0  0  0  0  0  0  0
    2.7649   67.6089   64.4800 H   0  0  0  0  0  0  0  0  0  0  0  0
    1.8513   69.1706   64.2411 H   0  0  0  0  0  0  0  0  0  0  0  0
    4.9339   71.0589   69.9778 H   0  0  0  0  0  0  0  0  0  0  0  0
    7.3373   71.4127   69.4406 H   0  0  0  0  0  0  0  0  0  0  0  0
    8.2090   70.7684   67.1933 H   0  0  0  0  0  0  0  0  0  0  0  0
    6.6783   69.7634   65.5180 H   0  0  0  0  0  0  0  0  0  0  0  0
    2.9963   70.6767   70.2797 H   0  0  0  0  0  0  0  0  0  0  0  0
    1.4910   69.8977   69.7228 H   0  0  0  0  0  0  0  0  0  0  0  0
  2  1  2  0
  3  2  1  0
  4  3  1  0
  5  4  1  0
  6  5  1  0
  7  6  1  0
  7  2  1  0
  8  7  2  0
  9  8  1  0
 10  9  2  0
 10  1  1  0
 11 10  1  0
 12 11  2  0
 13 12  1  0
 14 13  2  0
 14  9  1  0
 15  1  1  0
  3 16  1  0
  3 17  1  0
  4 18  1  0
  4 19  1  0
  5 20  1  0
  5 21  1  0
  6 22  1  0
  6 23  1  0
 11 24  1  0
 12 25  1  0
 13 26  1  0
 14 27  1  0
 15 28  1  0
 15 29  1  0
M  END
>  <score>  (6) 
-9.141

$$$$
=
     RDKit          3D

 29 31  0  0  0  0  0  0  0  0999 V2000
    4.9590   69.8590   65.6280 C   0  0  0  0  0  0  0  0  0  0  0  0
    4.1110   69.7910   66.7470 C   0  0  0  0  0  0  0  0  0  0  0  0
    4.5960   70.2130   68.1140 C   0  0  0  0  0  0  0  0  0  0  0  0
    3.4750   70.4220   69.1310 C   0  0  0  0  0  0  0  0  0  0  0  0
    2.4770   69.2740   69.0700 C   0  0  0  0  0  0  0  0  0  0  0  0
    1.8280   69.2260   67.6910 C   0  0  0  0  0  0  0  0  0  0  0  0
    2.8240   69.2870   66.5620 C   0  0  0  0  0  0  0  0  0  0  0  0
    2.3630   68.8630   65.3610 N   0  0  0  0  0  0  0  0  0  0  0  0
    3.1860   68.8870   64.3050 C   0  0  0  0  0  0  0  0  0  0  0  0
    4.5140   69.3570   64.3750 C   0  0  0  0  0  0  0  0  0  0  0  0
    5.3110   69.3010   63.2030 C   0  0  0  0  0  0  0  0  0  0  0  0
    4.8020   68.8100   62.0000 C   0  0  0  0  0  0  0  0  0  0  0  0
    3.4900   68.3660   61.9450 C   0  0  0  0  0  0  0  0  0  0  0  0
    2.7010   68.4080   63.0950 C   0  0  0  0  0  0  0  0  0  0  0  0
    6.3160   70.2240   65.8370 N   0  0  0  0  0  0  0  0  0  0  0  0
    5.2711   69.4339   68.4978 H   0  0  0  0  0  0  0  0  0  0  0  0
    5.0989   71.1833   67.9890 H   0  0  0  0  0  0  0  0  0  0  0  0
    3.9076   70.4719   70.1411 H   0  0  0  0  0  0  0  0  0  0  0  0
    2.9518   71.3604   68.8950 H   0  0  0  0  0  0  0  0  0  0  0  0
    2.9998   68.3252   69.2607 H   0  0  0  0  0  0  0  0  0  0  0  0
    1.6990   69.4284   69.8322 H   0  0  0  0  0  0  0  0  0  0  0  0
    1.2595   68.2882   67.6050 H   0  0  0  0  0  0  0  0  0  0  0  0
    1.1815   70.1117   67.6038 H   0  0  0  0  0  0  0  0  0  0  0  0
    6.3527   69.6521   63.2432 H   0  0  0  0  0  0  0  0  0  0  0  0
    5.4369   68.7756   61.1024 H   0  0  0  0  0  0  0  0  0  0  0  0
    3.0739   67.9833   61.0014 H   0  0  0  0  0  0  0  0  0  0  0  0
    1.6621   68.0505   63.0416 H   0  0  0  0  0  0  0  0  0  0  0  0
    6.9625   70.2827   65.0374 H   0  0  0  0  0  0  0  0  0  0  0  0
    6.6533   70.4299   66.7882 H   0  0  0  0  0  0  0  0  0  0  0  0
  2  1  2  0
  3  2  1  0
  4  3  1  0
  5  4  1  0
  6  5  1  0
  7  6  1  0
  7  2  1  0
  8  7  2  0
  9  8  1  0
 10  9  2  0
 10  1  1  0
 11 10  1  0
 12 11  2  0
 13 12  1  0
 14 13  2  0
 14  9  1  0
 15  1  1  0
  3 16  1  0
  3 17  1  0
  4 18  1  0
  4 19  1  0
  5 20  1  0
  5 21  1  0
  6 22  1  0
  6 23  1  0
 11 24  1  0
 12 25  1  0
 13 26  1  0
 14 27  1  0
 15 28  1  0
 15 29  1  0
M  END
>  <score>  (7) 
-8.964

$$$$
=
     RDKit          3D

 29 31  0  0  0  0  0  0  0  0999 V2000
    3.7900   69.3680   65.7480 C   0  0  0  0  0  0  0  0  0  0  0  0
    2.5200   69.0330   66.2500 C   0  0  0  0  0  0  0  0  0  0  0  0
    2.2250   69.1090   67.7290 C   0  0  0  0  0  0  0  0  0  0  0  0
    0.7350   69.0670   68.0660 C   0  0  0  0  0  0  0  0  0  0  0  0
    0.0380   67.9710   67.2720 C   0  0  0  0  0  0  0  0  0  0  0  0
    0.1520   68.2610   65.7800 C   0  0  0  0  0  0  0  0  0  0  0  0
    1.5560   68.5920   65.3430 C   0  0  0  0  0  0  0  0  0  0  0  0
    1.7910   68.4730   64.0150 N   0  0  0  0  0  0  0  0  0  0  0  0
    3.0140   68.7520   63.5450 C   0  0  0  0  0  0  0  0  0  0  0  0
    4.0730   69.1880   64.3670 C   0  0  0  0  0  0  0  0  0  0  0  0
    5.3400   69.4160   63.7710 C   0  0  0  0  0  0  0  0  0  0  0  0
    5.5420   69.2340   62.4020 C   0  0  0  0  0  0  0  0  0  0  0  0
    4.4860   68.8190   61.6050 C   0  0  0  0  0  0  0  0  0  0  0  0
    3.2390   68.5820   62.1850 C   0  0  0  0  0  0  0  0  0  0  0  0
    4.8190   69.6690   66.6800 N   0  0  0  0  0  0  0  0  0  0  0  0
    2.7163   68.2585   68.2243 H   0  0  0  0  0  0  0  0  0  0  0  0
    2.6048   70.0795   68.0810 H   0  0  0  0  0  0  0  0  0  0  0  0
    0.6127   68.8684   69.1410 H   0  0  0  0  0  0  0  0  0  0  0  0
    0.2844   70.0359   67.8050 H   0  0  0  0  0  0  0  0  0  0  0  0
    0.5114   67.0029   67.4929 H   0  0  0  0  0  0  0  0  0  0  0  0
   -1.0245   67.9377   67.5550 H   0  0  0  0  0  0  0  0  0  0  0  0
   -0.1865   67.3737   65.2249 H   0  0  0  0  0  0  0  0  0  0  0  0
   -0.4710   69.1431   65.5708 H   0  0  0  0  0  0  0  0  0  0  0  0
    6.1805   69.7430   64.4008 H   0  0  0  0  0  0  0  0  0  0  0  0
    6.5316   69.4184   61.9586 H   0  0  0  0  0  0  0  0  0  0  0  0
    4.6301   68.6776   60.5237 H   0  0  0  0  0  0  0  0  0  0  0  0
    2.4082   68.2501   61.5450 H   0  0  0  0  0  0  0  0  0  0  0  0
    5.7606   69.9182   66.3449 H   0  0  0  0  0  0  0  0  0  0  0  0
    4.6235   69.6381   67.6908 H   0  0  0  0  0  0  0  0  0  0  0  0
  2  1  2  0
  3  2  1  0
  4  3  1  0
  5  4  1  0
  6  5  1  0
  7  6  1  0
  7  2  1  0
  8  7  2  0
  9  8  1  0
 10  9  2  0
 10  1  1  0
 11 10  1  0
 12 11  2  0
 13 12  1  0
 14 13  2  0
 14  9  1  0
 15  1  1  0
  3 16  1  0
  3 17  1  0
  4 18  1  0
  4 19  1  0
  5 20  1  0
  5 21  1  0
  6 22  1  0
  6 23  1  0
 11 24  1  0
 12 25  1  0
 13 26  1  0
 14 27  1  0
 15 28  1  0
 15 29  1  0
M  END
>  <score>  (8) 
-8.081

$$$$
=
     RDKit          3D

 29 31  0  0  0  0  0  0  0  0999 V2000
    1.4540   68.4710   63.7630 C   0  0  0  0  0  0  0  0  0  0  0  0
    1.0420   68.6120   65.1000 C   0  0  0  0  0  0  0  0  0  0  0  0
   -0.4090   68.4490   65.4870 C   0  0  0  0  0  0  0  0  0  0  0  0
   -0.6340   68.2750   66.9890 C   0  0  0  0  0  0  0  0  0  0  0  0
    0.1860   69.2900   67.7730 C   0  0  0  0  0  0  0  0  0  0  0  0
    1.6720   69.0660   67.5130 C   0  0  0  0  0  0  0  0  0  0  0  0
    2.0090   68.9460   66.0490 C   0  0  0  0  0  0  0  0  0  0  0  0
    3.3120   69.1380   65.7380 N   0  0  0  0  0  0  0  0  0  0  0  0
    3.6950   69.0450   64.4580 C   0  0  0  0  0  0  0  0  0  0  0  0
    2.8050   68.7330   63.4100 C   0  0  0  0  0  0  0  0  0  0  0  0
    3.3090   68.7010   62.0850 C   0  0  0  0  0  0  0  0  0  0  0  0
    4.6540   68.9530   61.8120 C   0  0  0  0  0  0  0  0  0  0  0  0
    5.5190   69.2440   62.8560 C   0  0  0  0  0  0  0  0  0  0  0  0
    5.0300   69.2890   64.1620 C   0  0  0  0  0  0  0  0  0  0  0  0
    0.4530   68.2850   62.7720 N   0  0  0  0  0  0  0  0  0  0  0  0
   -0.9582   69.3427   65.1558 H   0  0  0  0  0  0  0  0  0  0  0  0
   -0.7673   67.5290   65.0019 H   0  0  0  0  0  0  0  0  0  0  0  0
   -1.7008   68.4202   67.2143 H   0  0  0  0  0  0  0  0  0  0  0  0
   -0.3188   67.2622   67.2806 H   0  0  0  0  0  0  0  0  0  0  0  0
   -0.0910   70.3062   67.4559 H   0  0  0  0  0  0  0  0  0  0  0  0
   -0.0169   69.1684   68.8473 H   0  0  0  0  0  0  0  0  0  0  0  0
    2.2317   69.9153   67.9318 H   0  0  0  0  0  0  0  0  0  0  0  0
    1.9465   68.1135   67.9899 H   0  0  0  0  0  0  0  0  0  0  0  0
    2.6249   68.4726   61.2544 H   0  0  0  0  0  0  0  0  0  0  0  0
    5.0251   68.9211   60.7770 H   0  0  0  0  0  0  0  0  0  0  0  0
    6.5831   69.4380   62.6560 H   0  0  0  0  0  0  0  0  0  0  0  0
    5.7233   69.5251   64.9828 H   0  0  0  0  0  0  0  0  0  0  0  0
    0.7208   68.1784   61.7831 H   0  0  0  0  0  0  0  0  0  0  0  0
   -0.5405   68.2567   63.0424 H   0  0  0  0  0  0  0  0  0  0  0  0
  2  1  2  0
  3  2  1  0
  4  3  1  0
  5  4  1  0
  6  5  1  0
  7  6  1  0
  7  2  1  0
  8  7  2  0
  9  8  1  0
 10  9  2  0
 10  1  1  0
 11 10  1  0
 12 11  2  0
 13 12  1  0
 14 13  2  0
 14  9  1  0
 15  1  1  0
  3 16  1  0
  3 17  1  0
  4 18  1  0
  4 19  1  0
  5 20  1  0
  5 21  1  0
  6 22  1  0
  6 23  1  0
 11 24  1  0
 12 25  1  0
 13 26  1  0
 14 27  1  0
 15 28  1  0
 15 29  1  0
M  END
>  <score>  (9) 
-7.967

$$$$
