=
     RDKit          3D

 54 57  0  0  0  0  0  0  0  0999 V2000
    2.1320   63.9560   71.7650 C   0  0  1  0  0  0  0  0  0  0  0  0
    2.2790   65.0440   70.7000 C   0  0  0  0  0  0  0  0  0  0  0  0
    0.8340   65.3670   70.4410 C   0  0  0  0  0  0  0  0  0  0  0  0
   -0.0100   64.8260   71.2640 N   0  0  0  0  0  0  0  0  0  0  0  0
    0.7100   64.0410   72.1190 N   0  0  0  0  0  0  0  0  0  0  0  0
    0.4180   66.2700   69.3440 C   0  0  0  0  0  0  0  0  0  0  0  0
    1.2870   67.2310   68.8200 C   0  0  0  0  0  0  0  0  0  0  0  0
    0.8510   68.0580   67.7870 C   0  0  0  0  0  0  0  0  0  0  0  0
    1.6870   68.9780   67.2890 F   0  0  0  0  0  0  0  0  0  0  0  0
   -0.4310   67.9510   67.2660 C   0  0  0  0  0  0  0  0  0  0  0  0
   -1.2850   66.9940   67.7940 C   0  0  0  0  0  0  0  0  0  0  0  0
   -0.8780   66.1550   68.8250 C   0  0  0  0  0  0  0  0  0  0  0  0
   -2.5250   66.8790   67.3020 F   0  0  0  0  0  0  0  0  0  0  0  0
    3.3670   60.0930   70.2000 C   0  0  0  0  0  0  0  0  0  0  0  0
    2.8940   61.0800   69.3380 C   0  0  0  0  0  0  0  0  0  0  0  0
    2.4940   62.3200   69.8320 C   0  0  0  0  0  0  0  0  0  0  0  0
    2.5480   62.5980   71.2080 C   0  0  0  0  0  0  0  0  0  0  0  0
    3.0400   61.6030   72.0780 C   0  0  0  0  0  0  0  0  0  0  0  0
    3.4420   60.3570   71.5690 C   0  0  0  0  0  0  0  0  0  0  0  0
    3.5620   57.7220   70.3220 C   0  0  0  0  0  0  0  0  0  0  0  0
    3.7260   58.9250   69.5830 O   0  0  0  0  0  0  0  0  0  0  0  0
    3.1040   61.9570   73.4020 O   0  0  0  0  0  0  0  0  0  0  0  0
    2.7260   60.9800   74.3660 C   0  0  0  0  0  0  0  0  0  0  0  0
    0.1260   63.5150   73.2710 C   0  0  0  0  0  0  0  0  0  0  0  0
    0.2240   64.1500   74.5220 C   0  0  0  0  0  0  0  0  0  0  0  0
   -0.3620   63.6070   75.6730 C   0  0  0  0  0  0  0  0  0  0  0  0
   -1.0530   62.3990   75.5890 C   0  0  0  0  0  0  0  0  0  0  0  0
   -1.1800   61.7470   74.3650 C   0  0  0  0  0  0  0  0  0  0  0  0
   -0.5890   62.3030   73.2260 C   0  0  0  0  0  0  0  0  0  0  0  0
   -1.8190   61.7220   77.0290 S   0  0  0  0  0  6  0  0  0  0  0  0
   -2.8830   62.5970   77.4620 O   0  0  0  0  0  0  0  0  0  0  0  0
   -0.8000   61.2400   77.9320 O   0  0  0  0  0  0  0  0  0  0  0  0
   -2.5700   60.3530   76.4130 N   0  0  0  0  0  0  0  0  0  0  0  0
    2.7769   64.0860   72.6466 H   0  0  0  0  0  0  0  0  0  0  0  0
    2.8282   65.9166   71.0833 H   0  0  0  0  0  0  0  0  0  0  0  0
    2.8488   64.7410   69.8092 H   0  0  0  0  0  0  0  0  0  0  0  0
    2.3066   67.3336   69.2198 H   0  0  0  0  0  0  0  0  0  0  0  0
   -0.7629   68.6114   66.4513 H   0  0  0  0  0  0  0  0  0  0  0  0
   -1.5710   65.4037   69.2317 H   0  0  0  0  0  0  0  0  0  0  0  0
    2.8358   60.8787   68.2581 H   0  0  0  0  0  0  0  0  0  0  0  0
    2.1315   63.0908   69.1359 H   0  0  0  0  0  0  0  0  0  0  0  0
    3.8188   59.5833   72.2542 H   0  0  0  0  0  0  0  0  0  0  0  0
    3.5925   57.9459   71.3985 H   0  0  0  0  0  0  0  0  0  0  0  0
    2.5934   57.2658   70.0697 H   0  0  0  0  0  0  0  0  0  0  0  0
    4.3732   57.0232   70.0697 H   0  0  0  0  0  0  0  0  0  0  0  0
    2.8820   61.3833   75.3774 H   0  0  0  0  0  0  0  0  0  0  0  0
    1.6643   60.7250   74.2327 H   0  0  0  0  0  0  0  0  0  0  0  0
    3.3396   60.0768   74.2327 H   0  0  0  0  0  0  0  0  0  0  0  0
    0.7756   65.0986   74.5989 H   0  0  0  0  0  0  0  0  0  0  0  0
   -0.2774   64.1304   76.6368 H   0  0  0  0  0  0  0  0  0  0  0  0
   -1.7402   60.8030   74.2947 H   0  0  0  0  0  0  0  0  0  0  0  0
   -0.6858   61.7769   72.2648 H   0  0  0  0  0  0  0  0  0  0  0  0
   -2.8950   59.7605   77.1903 H   0  0  0  0  0  0  0  0  0  0  0  0
   -3.3752   60.6337   75.8353 H   0  0  0  0  0  0  0  0  0  0  0  0
  2  1  1  0
  3  2  1  0
  4  3  2  0
  5  4  1  0
  5  1  1  0
  6  3  1  0
  7  6  2  0
  8  7  1  0
  9  8  1  0
 10  8  2  0
 11 10  1  0
 12 11  2  0
 12  6  1  0
 13 11  1  0
 15 14  2  0
 16 15  1  0
 17 16  2  0
 17  1  1  0
 18 17  1  0
 19 14  1  0
 19 18  2  0
 21 20  1  0
 21 14  1  0
 22 18  1  0
 23 22  1  0
 24  5  1  0
 25 24  2  0
 26 25  1  0
 27 26  2  0
 28 27  1  0
 29 28  2  0
 29 24  1  0
 30 27  1  0
 31 30  2  0
 32 30  2  0
 33 30  1  0
  1 34  1  1
  2 35  1  0
  2 36  1  0
  7 37  1  0
 10 38  1  0
 12 39  1  0
 15 40  1  0
 16 41  1  0
 19 42  1  0
 20 43  1  0
 20 44  1  0
 20 45  1  0
 23 46  1  0
 23 47  1  0
 23 48  1  0
 25 49  1  0
 26 50  1  0
 28 51  1  0
 29 52  1  0
 33 53  1  0
 33 54  1  0
M  END
>  <score>  (1) 
-8.337

$$$$
=
     RDKit          3D

 54 57  0  0  0  0  0  0  0  0999 V2000
    0.9270   59.8830   74.6040 C   0  0  1  0  0  0  0  0  0  0  0  0
    2.0110   60.7350   73.9390 C   0  0  0  0  0  0  0  0  0  0  0  0
    1.2800   61.1910   72.7070 C   0  0  0  0  0  0  0  0  0  0  0  0
    0.0110   60.9200   72.6850 N   0  0  0  0  0  0  0  0  0  0  0  0
   -0.2690   60.2140   73.8200 N   0  0  0  0  0  0  0  0  0  0  0  0
    1.9620   61.9290   71.6210 C   0  0  0  0  0  0  0  0  0  0  0  0
    1.8120   63.3100   71.4690 C   0  0  0  0  0  0  0  0  0  0  0  0
    2.4740   63.9620   70.4310 C   0  0  0  0  0  0  0  0  0  0  0  0
    2.3250   65.2850   70.2900 F   0  0  0  0  0  0  0  0  0  0  0  0
    3.2810   63.2690   69.5400 C   0  0  0  0  0  0  0  0  0  0  0  0
    3.4230   61.8980   69.6980 C   0  0  0  0  0  0  0  0  0  0  0  0
    2.7730   61.2210   70.7250 C   0  0  0  0  0  0  0  0  0  0  0  0
    4.1980   61.2160   68.8460 F   0  0  0  0  0  0  0  0  0  0  0  0
    2.0490   55.6850   74.4980 C   0  0  0  0  0  0  0  0  0  0  0  0
    1.5370   56.3030   73.3590 C   0  0  0  0  0  0  0  0  0  0  0  0
    1.1730   57.6480   73.3850 C   0  0  0  0  0  0  0  0  0  0  0  0
    1.3030   58.4050   74.5610 C   0  0  0  0  0  0  0  0  0  0  0  0
    1.8340   57.7820   75.7090 C   0  0  0  0  0  0  0  0  0  0  0  0
    2.2000   56.4270   75.6710 C   0  0  0  0  0  0  0  0  0  0  0  0
    1.5010   53.4080   74.9310 C   0  0  0  0  0  0  0  0  0  0  0  0
    2.3660   54.3640   74.3330 O   0  0  0  0  0  0  0  0  0  0  0  0
    1.9710   58.5910   76.8090 O   0  0  0  0  0  0  0  0  0  0  0  0
    3.2870   58.8230   77.3000 C   0  0  0  0  0  0  0  0  0  0  0  0
   -1.5870   59.9830   74.2120 C   0  0  0  0  0  0  0  0  0  0  0  0
   -1.9830   58.8000   74.8610 C   0  0  0  0  0  0  0  0  0  0  0  0
   -3.3120   58.5780   75.2430 C   0  0  0  0  0  0  0  0  0  0  0  0
   -4.2780   59.5450   74.9690 C   0  0  0  0  0  0  0  0  0  0  0  0
   -3.9210   60.7330   74.3370 C   0  0  0  0  0  0  0  0  0  0  0  0
   -2.5900   60.9380   73.9610 C   0  0  0  0  0  0  0  0  0  0  0  0
   -5.9510   59.2860   75.4730 S   0  0  0  0  0  6  0  0  0  0  0  0
   -6.5960   60.5630   75.6670 O   0  0  0  0  0  0  0  0  0  0  0  0
   -5.9950   58.2390   76.4670 O   0  0  0  0  0  0  0  0  0  0  0  0
   -6.6350   58.6300   74.0880 N   0  0  0  0  0  0  0  0  0  0  0  0
    0.7768   60.0836   75.6751 H   0  0  0  0  0  0  0  0  0  0  0  0
    2.3073   61.5835   74.5733 H   0  0  0  0  0  0  0  0  0  0  0  0
    2.9554   60.2061   73.7434 H   0  0  0  0  0  0  0  0  0  0  0  0
    1.1759   63.8781   72.1638 H   0  0  0  0  0  0  0  0  0  0  0  0
    3.7979   63.7962   68.7246 H   0  0  0  0  0  0  0  0  0  0  0  0
    2.8956   60.1332   70.8330 H   0  0  0  0  0  0  0  0  0  0  0  0
    1.4191   55.7242   72.4311 H   0  0  0  0  0  0  0  0  0  0  0  0
    0.7793   58.1223   72.4739 H   0  0  0  0  0  0  0  0  0  0  0  0
    2.6088   55.9465   76.5721 H   0  0  0  0  0  0  0  0  0  0  0  0
    1.5706   53.4849   76.0261 H   0  0  0  0  0  0  0  0  0  0  0  0
    0.4654   53.6022   74.6149 H   0  0  0  0  0  0  0  0  0  0  0  0
    1.7974   52.3970   74.6149 H   0  0  0  0  0  0  0  0  0  0  0  0
    3.2737   58.8207   78.3999 H   0  0  0  0  0  0  0  0  0  0  0  0
    3.9580   58.0293   76.9397 H   0  0  0  0  0  0  0  0  0  0  0  0
    3.6461   59.7983   76.9397 H   0  0  0  0  0  0  0  0  0  0  0  0
   -1.2287   58.0283   75.0744 H   0  0  0  0  0  0  0  0  0  0  0  0
   -3.5919   57.6462   75.7562 H   0  0  0  0  0  0  0  0  0  0  0  0
   -4.6795   61.5037   74.1352 H   0  0  0  0  0  0  0  0  0  0  0  0
   -2.3182   61.8751   73.4531 H   0  0  0  0  0  0  0  0  0  0  0  0
   -7.3533   57.9411   74.3531 H   0  0  0  0  0  0  0  0  0  0  0  0
   -7.0678   59.3801   73.5305 H   0  0  0  0  0  0  0  0  0  0  0  0
  2  1  1  0
  3  2  1  0
  4  3  2  0
  5  4  1  0
  5  1  1  0
  6  3  1  0
  7  6  2  0
  8  7  1  0
  9  8  1  0
 10  8  2  0
 11 10  1  0
 12 11  2  0
 12  6  1  0
 13 11  1  0
 15 14  2  0
 16 15  1  0
 17 16  2  0
 17  1  1  0
 18 17  1  0
 19 14  1  0
 19 18  2  0
 21 20  1  0
 21 14  1  0
 22 18  1  0
 23 22  1  0
 24  5  1  0
 25 24  2  0
 26 25  1  0
 27 26  2  0
 28 27  1  0
 29 28  2  0
 29 24  1  0
 30 27  1  0
 31 30  2  0
 32 30  2  0
 33 30  1  0
  1 34  1  1
  2 35  1  0
  2 36  1  0
  7 37  1  0
 10 38  1  0
 12 39  1  0
 15 40  1  0
 16 41  1  0
 19 42  1  0
 20 43  1  0
 20 44  1  0
 20 45  1  0
 23 46  1  0
 23 47  1  0
 23 48  1  0
 25 49  1  0
 26 50  1  0
 28 51  1  0
 29 52  1  0
 33 53  1  0
 33 54  1  0
M  END
>  <score>  (2) 
-8.188

$$$$
=
     RDKit          3D

 54 57  0  0  0  0  0  0  0  0999 V2000
   -1.2650   60.5260   73.5940 C   0  0  1  0  0  0  0  0  0  0  0  0
   -1.1750   61.8050   72.7590 C   0  0  0  0  0  0  0  0  0  0  0  0
    0.2760   61.7710   72.3670 C   0  0  0  0  0  0  0  0  0  0  0  0
    0.9010   60.6700   72.6550 N   0  0  0  0  0  0  0  0  0  0  0  0
    0.0150   59.8660   73.3130 N   0  0  0  0  0  0  0  0  0  0  0  0
    0.9260   62.9030   71.6690 C   0  0  0  0  0  0  0  0  0  0  0  0
    0.2100   64.0510   71.3170 C   0  0  0  0  0  0  0  0  0  0  0  0
    0.8650   65.0920   70.6610 C   0  0  0  0  0  0  0  0  0  0  0  0
    0.1740   66.1890   70.3260 F   0  0  0  0  0  0  0  0  0  0  0  0
    2.2140   65.0140   70.3470 C   0  0  0  0  0  0  0  0  0  0  0  0
    2.9140   63.8700   70.7000 C   0  0  0  0  0  0  0  0  0  0  0  0
    2.2870   62.8150   71.3550 C   0  0  0  0  0  0  0  0  0  0  0  0
    4.2170   63.7800   70.4040 F   0  0  0  0  0  0  0  0  0  0  0  0
   -1.9150   61.4980   77.7810 C   0  0  0  0  0  0  0  0  0  0  0  0
   -0.7760   61.9580   77.1230 C   0  0  0  0  0  0  0  0  0  0  0  0
   -0.5590   61.6490   75.7810 C   0  0  0  0  0  0  0  0  0  0  0  0
   -1.4760   60.8600   75.0680 C   0  0  0  0  0  0  0  0  0  0  0  0
   -2.6360   60.4070   75.7310 C   0  0  0  0  0  0  0  0  0  0  0  0
   -2.8450   60.7260   77.0830 C   0  0  0  0  0  0  0  0  0  0  0  0
   -3.0320   61.2820   79.8730 C   0  0  0  0  0  0  0  0  0  0  0  0
   -2.0030   61.8760   79.0940 O   0  0  0  0  0  0  0  0  0  0  0  0
   -3.5070   59.6770   74.9630 O   0  0  0  0  0  0  0  0  0  0  0  0
   -4.8010   60.2230   74.7300 C   0  0  0  0  0  0  0  0  0  0  0  0
    0.3030   58.5210   73.5430 C   0  0  0  0  0  0  0  0  0  0  0  0
   -0.6480   57.6250   74.0610 C   0  0  0  0  0  0  0  0  0  0  0  0
   -0.3420   56.2780   74.2930 C   0  0  0  0  0  0  0  0  0  0  0  0
    0.9400   55.8050   74.0160 C   0  0  0  0  0  0  0  0  0  0  0  0
    1.9050   56.6610   73.4920 C   0  0  0  0  0  0  0  0  0  0  0  0
    1.5830   58.0030   73.2670 C   0  0  0  0  0  0  0  0  0  0  0  0
    1.3260   54.1010   74.2790 S   0  0  0  0  0  6  0  0  0  0  0  0
    0.2420   53.2830   73.7870 O   0  0  0  0  0  0  0  0  0  0  0  0
    1.8790   53.9340   75.6030 O   0  0  0  0  0  0  0  0  0  0  0  0
    2.6020   53.8650   73.2160 N   0  0  0  0  0  0  0  0  0  0  0  0
   -2.1174   59.8756   73.3482 H   0  0  0  0  0  0  0  0  0  0  0  0
   -1.8348   61.7639   71.8798 H   0  0  0  0  0  0  0  0  0  0  0  0
   -1.4879   62.7196   73.2840 H   0  0  0  0  0  0  0  0  0  0  0  0
   -0.8607   64.1321   71.5556 H   0  0  0  0  0  0  0  0  0  0  0  0
    2.7183   65.8428   69.8285 H   0  0  0  0  0  0  0  0  0  0  0  0
    2.8588   61.9150   71.6251 H   0  0  0  0  0  0  0  0  0  0  0  0
   -0.0418   62.5702   77.6672 H   0  0  0  0  0  0  0  0  0  0  0  0
    0.3411   62.0277   75.2747 H   0  0  0  0  0  0  0  0  0  0  0  0
   -3.7487   60.3645   77.5956 H   0  0  0  0  0  0  0  0  0  0  0  0
   -2.8051   61.4130   80.9413 H   0  0  0  0  0  0  0  0  0  0  0  0
   -3.9928   61.7644   79.6404 H   0  0  0  0  0  0  0  0  0  0  0  0
   -3.0948   60.2087   79.6404 H   0  0  0  0  0  0  0  0  0  0  0  0
   -5.2906   60.4296   75.6931 H   0  0  0  0  0  0  0  0  0  0  0  0
   -4.7069   61.1581   74.1584 H   0  0  0  0  0  0  0  0  0  0  0  0
   -5.4052   59.5031   74.1584 H   0  0  0  0  0  0  0  0  0  0  0  0
   -1.6595   57.9914   74.2903 H   0  0  0  0  0  0  0  0  0  0  0  0
   -1.1087   55.5972   74.6914 H   0  0  0  0  0  0  0  0  0  0  0  0
    2.9117   56.2850   73.2571 H   0  0  0  0  0  0  0  0  0  0  0  0
    2.3537   58.6751   72.8617 H   0  0  0  0  0  0  0  0  0  0  0  0
    3.4683   53.7048   73.7497 H   0  0  0  0  0  0  0  0  0  0  0  0
    2.4077   53.0457   72.6228 H   0  0  0  0  0  0  0  0  0  0  0  0
  2  1  1  0
  3  2  1  0
  4  3  2  0
  5  4  1  0
  5  1  1  0
  6  3  1  0
  7  6  2  0
  8  7  1  0
  9  8  1  0
 10  8  2  0
 11 10  1  0
 12 11  2  0
 12  6  1  0
 13 11  1  0
 15 14  2  0
 16 15  1  0
 17 16  2  0
 17  1  1  0
 18 17  1  0
 19 14  1  0
 19 18  2  0
 21 20  1  0
 21 14  1  0
 22 18  1  0
 23 22  1  0
 24  5  1  0
 25 24  2  0
 26 25  1  0
 27 26  2  0
 28 27  1  0
 29 28  2  0
 29 24  1  0
 30 27  1  0
 31 30  2  0
 32 30  2  0
 33 30  1  0
  1 34  1  6
  2 35  1  0
  2 36  1  0
  7 37  1  0
 10 38  1  0
 12 39  1  0
 15 40  1  0
 16 41  1  0
 19 42  1  0
 20 43  1  0
 20 44  1  0
 20 45  1  0
 23 46  1  0
 23 47  1  0
 23 48  1  0
 25 49  1  0
 26 50  1  0
 28 51  1  0
 29 52  1  0
 33 53  1  0
 33 54  1  0
M  END
>  <score>  (3) 
-8.037

$$$$
=
     RDKit          3D

 54 57  0  0  0  0  0  0  0  0999 V2000
   -0.0760   60.7560   73.0670 C   0  0  1  0  0  0  0  0  0  0  0  0
    0.4070   61.7790   72.0360 C   0  0  0  0  0  0  0  0  0  0  0  0
    1.7510   61.2010   71.6910 C   0  0  0  0  0  0  0  0  0  0  0  0
    1.9840   60.0180   72.1700 N   0  0  0  0  0  0  0  0  0  0  0  0
    0.9030   59.6720   72.9290 N   0  0  0  0  0  0  0  0  0  0  0  0
    2.7170   61.9240   70.8330 C   0  0  0  0  0  0  0  0  0  0  0  0
    2.6070   61.9150   69.4400 C   0  0  0  0  0  0  0  0  0  0  0  0
    3.5400   62.6100   68.6740 C   0  0  0  0  0  0  0  0  0  0  0  0
    3.4290   62.5970   67.3400 F   0  0  0  0  0  0  0  0  0  0  0  0
    4.5810   63.3120   69.2640 C   0  0  0  0  0  0  0  0  0  0  0  0
    4.6820   63.3140   70.6480 C   0  0  0  0  0  0  0  0  0  0  0  0
    3.7650   62.6290   71.4380 C   0  0  0  0  0  0  0  0  0  0  0  0
    5.6810   63.9880   71.2320 F   0  0  0  0  0  0  0  0  0  0  0  0
   -0.2370   62.5540   77.0220 C   0  0  0  0  0  0  0  0  0  0  0  0
    0.9500   62.5680   76.2930 C   0  0  0  0  0  0  0  0  0  0  0  0
    1.0110   61.9920   75.0250 C   0  0  0  0  0  0  0  0  0  0  0  0
   -0.1180   61.3760   74.4600 C   0  0  0  0  0  0  0  0  0  0  0  0
   -1.3230   61.3750   75.1930 C   0  0  0  0  0  0  0  0  0  0  0  0
   -1.3730   61.9600   76.4690 C   0  0  0  0  0  0  0  0  0  0  0  0
   -1.3510   63.7140   78.7780 C   0  0  0  0  0  0  0  0  0  0  0  0
   -0.1570   63.1540   78.2480 O   0  0  0  0  0  0  0  0  0  0  0  0
   -2.3950   60.7930   74.5640 O   0  0  0  0  0  0  0  0  0  0  0  0
   -3.6900   61.3110   74.8480 C   0  0  0  0  0  0  0  0  0  0  0  0
    0.7360   58.3640   73.3830 C   0  0  0  0  0  0  0  0  0  0  0  0
   -0.4630   57.9170   73.9670 C   0  0  0  0  0  0  0  0  0  0  0  0
   -0.6140   56.6010   74.4250 C   0  0  0  0  0  0  0  0  0  0  0  0
    0.4500   55.7070   74.3130 C   0  0  0  0  0  0  0  0  0  0  0  0
    1.6480   56.1110   73.7310 C   0  0  0  0  0  0  0  0  0  0  0  0
    1.7830   57.4280   73.2800 C   0  0  0  0  0  0  0  0  0  0  0  0
    0.2580   54.0390   74.8620 S   0  0  0  0  0  6  0  0  0  0  0  0
   -0.5790   54.0150   76.0390 O   0  0  0  0  0  0  0  0  0  0  0  0
    1.5350   53.3670   74.8090 O   0  0  0  0  0  0  0  0  0  0  0  0
   -0.6630   53.3700   73.6280 N   0  0  0  0  0  0  0  0  0  0  0  0
   -1.1031   60.3948   72.9104 H   0  0  0  0  0  0  0  0  0  0  0  0
   -0.2564   61.8173   71.1594 H   0  0  0  0  0  0  0  0  0  0  0  0
    0.4320   62.8181   72.3961 H   0  0  0  0  0  0  0  0  0  0  0  0
    1.7899   61.3633   68.9521 H   0  0  0  0  0  0  0  0  0  0  0  0
    5.3115   63.8560   68.6472 H   0  0  0  0  0  0  0  0  0  0  0  0
    3.8625   62.6409   72.5336 H   0  0  0  0  0  0  0  0  0  0  0  0
    1.8474   63.0379   76.7218 H   0  0  0  0  0  0  0  0  0  0  0  0
    1.9545   62.0202   74.4601 H   0  0  0  0  0  0  0  0  0  0  0  0
   -2.3148   61.9500   77.0372 H   0  0  0  0  0  0  0  0  0  0  0  0
   -1.3089   63.6943   79.8770 H   0  0  0  0  0  0  0  0  0  0  0  0
   -1.4527   64.7537   78.4336 H   0  0  0  0  0  0  0  0  0  0  0  0
   -2.2155   63.1274   78.4336 H   0  0  0  0  0  0  0  0  0  0  0  0
   -3.8315   61.3676   75.9374 H   0  0  0  0  0  0  0  0  0  0  0  0
   -3.7861   62.3168   74.4130 H   0  0  0  0  0  0  0  0  0  0  0  0
   -4.4532   60.6490   74.4130 H   0  0  0  0  0  0  0  0  0  0  0  0
   -1.3042   58.6187   74.0669 H   0  0  0  0  0  0  0  0  0  0  0  0
   -1.5659   56.2756   74.8700 H   0  0  0  0  0  0  0  0  0  0  0  0
    2.4814   55.4007   73.6266 H   0  0  0  0  0  0  0  0  0  0  0  0
    2.7367   57.7424   72.8309 H   0  0  0  0  0  0  0  0  0  0  0  0
   -1.4288   52.8137   74.0341 H   0  0  0  0  0  0  0  0  0  0  0  0
   -1.0568   54.1234   73.0464 H   0  0  0  0  0  0  0  0  0  0  0  0
  2  1  1  0
  3  2  1  0
  4  3  2  0
  5  4  1  0
  5  1  1  0
  6  3  1  0
  7  6  2  0
  8  7  1  0
  9  8  1  0
 10  8  2  0
 11 10  1  0
 12 11  2  0
 12  6  1  0
 13 11  1  0
 15 14  2  0
 16 15  1  0
 17 16  2  0
 17  1  1  0
 18 17  1  0
 19 14  1  0
 19 18  2  0
 21 20  1  0
 21 14  1  0
 22 18  1  0
 23 22  1  0
 24  5  1  0
 25 24  2  0
 26 25  1  0
 27 26  2  0
 28 27  1  0
 29 28  2  0
 29 24  1  0
 30 27  1  0
 31 30  2  0
 32 30  2  0
 33 30  1  0
  1 34  1  6
  2 35  1  0
  2 36  1  0
  7 37  1  0
 10 38  1  0
 12 39  1  0
 15 40  1  0
 16 41  1  0
 19 42  1  0
 20 43  1  0
 20 44  1  0
 20 45  1  0
 23 46  1  0
 23 47  1  0
 23 48  1  0
 25 49  1  0
 26 50  1  0
 28 51  1  0
 29 52  1  0
 33 53  1  0
 33 54  1  0
M  END
>  <score>  (4) 
-7.67

$$$$
=
     RDKit          3D

 54 57  0  0  0  0  0  0  0  0999 V2000
    0.1170   58.7940   75.2140 C   0  0  1  0  0  0  0  0  0  0  0  0
   -0.2940   57.4910   75.9030 C   0  0  0  0  0  0  0  0  0  0  0  0
   -0.3060   56.5540   74.7280 C   0  0  0  0  0  0  0  0  0  0  0  0
    0.1860   57.0390   73.6290 N   0  0  0  0  0  0  0  0  0  0  0  0
    0.5250   58.3380   73.8800 N   0  0  0  0  0  0  0  0  0  0  0  0
   -0.8120   55.1670   74.8370 C   0  0  0  0  0  0  0  0  0  0  0  0
   -1.9950   54.8730   75.5210 C   0  0  0  0  0  0  0  0  0  0  0  0
   -2.4310   53.5520   75.5970 C   0  0  0  0  0  0  0  0  0  0  0  0
   -3.5650   53.2750   76.2540 F   0  0  0  0  0  0  0  0  0  0  0  0
   -1.7150   52.5190   75.0100 C   0  0  0  0  0  0  0  0  0  0  0  0
   -0.5420   52.8210   74.3350 C   0  0  0  0  0  0  0  0  0  0  0  0
   -0.0820   54.1310   74.2420 C   0  0  0  0  0  0  0  0  0  0  0  0
    0.1600   51.8350   73.7630 F   0  0  0  0  0  0  0  0  0  0  0  0
   -3.1910   61.6140   75.2250 C   0  0  0  0  0  0  0  0  0  0  0  0
   -3.3030   60.4050   74.5410 C   0  0  0  0  0  0  0  0  0  0  0  0
   -2.2460   59.4960   74.5310 C   0  0  0  0  0  0  0  0  0  0  0  0
   -1.0440   59.7840   75.1990 C   0  0  0  0  0  0  0  0  0  0  0  0
   -0.9380   61.0010   75.9020 C   0  0  0  0  0  0  0  0  0  0  0  0
   -2.0090   61.9090   75.9070 C   0  0  0  0  0  0  0  0  0  0  0  0
   -4.5860   63.2310   76.2790 C   0  0  0  0  0  0  0  0  0  0  0  0
   -4.3020   62.4100   75.1540 O   0  0  0  0  0  0  0  0  0  0  0  0
    0.2480   61.1980   76.5630 O   0  0  0  0  0  0  0  0  0  0  0  0
    0.9750   62.3880   76.2780 C   0  0  0  0  0  0  0  0  0  0  0  0
    1.3010   59.0620   72.9760 C   0  0  0  0  0  0  0  0  0  0  0  0
    2.4410   58.5180   72.3580 C   0  0  0  0  0  0  0  0  0  0  0  0
    3.2160   59.2600   71.4570 C   0  0  0  0  0  0  0  0  0  0  0  0
    2.8620   60.5760   71.1660 C   0  0  0  0  0  0  0  0  0  0  0  0
    1.7340   61.1450   71.7500 C   0  0  0  0  0  0  0  0  0  0  0  0
    0.9720   60.3910   72.6480 C   0  0  0  0  0  0  0  0  0  0  0  0
    3.8170   61.5090   70.0090 S   0  0  0  0  0  6  0  0  0  0  0  0
    4.5290   60.6050   69.1360 O   0  0  0  0  0  0  0  0  0  0  0  0
    4.4740   62.5960   70.6960 O   0  0  0  0  0  0  0  0  0  0  0  0
    2.6250   62.2190   69.0640 N   0  0  0  0  0  0  0  0  0  0  0  0
    0.9245   59.3457   75.7175 H   0  0  0  0  0  0  0  0  0  0  0  0
    0.4410   57.1828   76.6611 H   0  0  0  0  0  0  0  0  0  0  0  0
   -1.2426   57.5442   76.4574 H   0  0  0  0  0  0  0  0  0  0  0  0
   -2.5765   55.6774   75.9950 H   0  0  0  0  0  0  0  0  0  0  0  0
   -2.0709   51.4804   75.0787 H   0  0  0  0  0  0  0  0  0  0  0  0
    0.8513   54.3517   73.7032 H   0  0  0  0  0  0  0  0  0  0  0  0
   -4.2331   60.1659   74.0045 H   0  0  0  0  0  0  0  0  0  0  0  0
   -2.3544   58.5422   73.9939 H   0  0  0  0  0  0  0  0  0  0  0  0
   -1.9161   62.8598   76.4523 H   0  0  0  0  0  0  0  0  0  0  0  0
   -4.3909   62.6670   77.2031 H   0  0  0  0  0  0  0  0  0  0  0  0
   -3.9446   64.1243   76.2523 H   0  0  0  0  0  0  0  0  0  0  0  0
   -5.6422   63.5370   76.2523 H   0  0  0  0  0  0  0  0  0  0  0  0
    1.2705   62.8718   77.2207 H   0  0  0  0  0  0  0  0  0  0  0  0
    1.8746   62.1377   75.6965 H   0  0  0  0  0  0  0  0  0  0  0  0
    0.3417   63.0742   75.6965 H   0  0  0  0  0  0  0  0  0  0  0  0
    2.7320   57.4824   72.5881 H   0  0  0  0  0  0  0  0  0  0  0  0
    4.0985   58.8065   70.9822 H   0  0  0  0  0  0  0  0  0  0  0  0
    1.4446   62.1782   71.5074 H   0  0  0  0  0  0  0  0  0  0  0  0
    0.0875   60.8509   73.1129 H   0  0  0  0  0  0  0  0  0  0  0  0
    1.9115   62.6440   69.6733 H   0  0  0  0  0  0  0  0  0  0  0  0
    3.0464   62.9469   68.4694 H   0  0  0  0  0  0  0  0  0  0  0  0
  2  1  1  0
  3  2  1  0
  4  3  2  0
  5  4  1  0
  5  1  1  0
  6  3  1  0
  7  6  2  0
  8  7  1  0
  9  8  1  0
 10  8  2  0
 11 10  1  0
 12 11  2  0
 12  6  1  0
 13 11  1  0
 15 14  2  0
 16 15  1  0
 17 16  2  0
 17  1  1  0
 18 17  1  0
 19 14  1  0
 19 18  2  0
 21 20  1  0
 21 14  1  0
 22 18  1  0
 23 22  1  0
 24  5  1  0
 25 24  2  0
 26 25  1  0
 27 26  2  0
 28 27  1  0
 29 28  2  0
 29 24  1  0
 30 27  1  0
 31 30  2  0
 32 30  2  0
 33 30  1  0
  1 34  1  1
  2 35  1  0
  2 36  1  0
  7 37  1  0
 10 38  1  0
 12 39  1  0
 15 40  1  0
 16 41  1  0
 19 42  1  0
 20 43  1  0
 20 44  1  0
 20 45  1  0
 23 46  1  0
 23 47  1  0
 23 48  1  0
 25 49  1  0
 26 50  1  0
 28 51  1  0
 29 52  1  0
 33 53  1  0
 33 54  1  0
M  END
>  <score>  (5) 
-7.525

$$$$
=
     RDKit          3D

 54 57  0  0  0  0  0  0  0  0999 V2000
   -0.7730   59.7710   75.2530 C   0  0  1  0  0  0  0  0  0  0  0  0
   -0.8730   58.3780   75.8780 C   0  0  0  0  0  0  0  0  0  0  0  0
   -0.6350   57.5200   74.6670 C   0  0  0  0  0  0  0  0  0  0  0  0
   -0.2490   58.1570   73.6050 N   0  0  0  0  0  0  0  0  0  0  0  0
   -0.2380   59.4870   73.9160 N   0  0  0  0  0  0  0  0  0  0  0  0
   -0.7940   56.0490   74.7070 C   0  0  0  0  0  0  0  0  0  0  0  0
    0.1280   55.1970   74.0930 C   0  0  0  0  0  0  0  0  0  0  0  0
   -0.0650   53.8190   74.1570 C   0  0  0  0  0  0  0  0  0  0  0  0
    0.8220   53.0070   73.5650 F   0  0  0  0  0  0  0  0  0  0  0  0
   -1.1550   53.2710   74.8170 C   0  0  0  0  0  0  0  0  0  0  0  0
   -2.0650   54.1250   75.4230 C   0  0  0  0  0  0  0  0  0  0  0  0
   -1.8990   55.5050   75.3750 C   0  0  0  0  0  0  0  0  0  0  0  0
   -3.1220   53.6100   76.0640 F   0  0  0  0  0  0  0  0  0  0  0  0
   -4.6560   61.7240   75.2680 C   0  0  0  0  0  0  0  0  0  0  0  0
   -4.5130   60.4520   74.7170 C   0  0  0  0  0  0  0  0  0  0  0  0
   -3.2710   59.8200   74.7060 C   0  0  0  0  0  0  0  0  0  0  0  0
   -2.1370   60.4550   75.2390 C   0  0  0  0  0  0  0  0  0  0  0  0
   -2.2860   61.7360   75.8090 C   0  0  0  0  0  0  0  0  0  0  0  0
   -3.5420   62.3630   75.8160 C   0  0  0  0  0  0  0  0  0  0  0  0
   -6.9740   61.3140   74.9040 C   0  0  0  0  0  0  0  0  0  0  0  0
   -5.9280   62.2260   75.2130 O   0  0  0  0  0  0  0  0  0  0  0  0
   -1.1460   62.2780   76.3470 O   0  0  0  0  0  0  0  0  0  0  0  0
   -0.6850   63.5130   75.8110 C   0  0  0  0  0  0  0  0  0  0  0  0
    0.3610   60.4160   73.0660 C   0  0  0  0  0  0  0  0  0  0  0  0
   -0.3100   61.5670   72.6160 C   0  0  0  0  0  0  0  0  0  0  0  0
    0.3020   62.4880   71.7560 C   0  0  0  0  0  0  0  0  0  0  0  0
    1.6070   62.2630   71.3210 C   0  0  0  0  0  0  0  0  0  0  0  0
    2.3070   61.1390   71.7540 C   0  0  0  0  0  0  0  0  0  0  0  0
    1.6810   60.2290   72.6120 C   0  0  0  0  0  0  0  0  0  0  0  0
    2.3970   63.4340   70.2600 S   0  0  0  0  0  6  0  0  0  0  0  0
    3.7090   63.7430   70.7800 O   0  0  0  0  0  0  0  0  0  0  0  0
    1.4500   64.4610   69.8930 O   0  0  0  0  0  0  0  0  0  0  0  0
    2.6520   62.5290   68.8710 N   0  0  0  0  0  0  0  0  0  0  0  0
   -0.1331   60.4764   75.8034 H   0  0  0  0  0  0  0  0  0  0  0  0
   -0.1013   58.2205   76.6459 H   0  0  0  0  0  0  0  0  0  0  0  0
   -1.8176   58.1774   76.4048 H   0  0  0  0  0  0  0  0  0  0  0  0
    0.9988   55.6111   73.5636 H   0  0  0  0  0  0  0  0  0  0  0  0
   -1.2951   52.1808   74.8591 H   0  0  0  0  0  0  0  0  0  0  0  0
   -2.6322   56.1666   75.8595 H   0  0  0  0  0  0  0  0  0  0  0  0
   -5.3879   59.9425   74.2871 H   0  0  0  0  0  0  0  0  0  0  0  0
   -3.1776   58.8123   74.2750 H   0  0  0  0  0  0  0  0  0  0  0  0
   -3.6494   63.3652   76.2565 H   0  0  0  0  0  0  0  0  0  0  0  0
   -7.4137   60.9307   75.8366 H   0  0  0  0  0  0  0  0  0  0  0  0
   -7.7491   61.8298   74.3182 H   0  0  0  0  0  0  0  0  0  0  0  0
   -6.5686   60.4759   74.3182 H   0  0  0  0  0  0  0  0  0  0  0  0
   -0.4296   64.1972   76.6336 H   0  0  0  0  0  0  0  0  0  0  0  0
    0.2069   63.3341   75.1925 H   0  0  0  0  0  0  0  0  0  0  0  0
   -1.4760   63.9623   75.1925 H   0  0  0  0  0  0  0  0  0  0  0  0
   -1.3428   61.7489   72.9481 H   0  0  0  0  0  0  0  0  0  0  0  0
   -0.2443   63.3838   71.4258 H   0  0  0  0  0  0  0  0  0  0  0  0
    3.3425   60.9688   71.4241 H   0  0  0  0  0  0  0  0  0  0  0  0
    2.2371   59.3393   72.9426 H   0  0  0  0  0  0  0  0  0  0  0  0
    2.9223   61.5697   69.1310 H   0  0  0  0  0  0  0  0  0  0  0  0
    1.7857   62.5027   68.3145 H   0  0  0  0  0  0  0  0  0  0  0  0
  2  1  1  0
  3  2  1  0
  4  3  2  0
  5  4  1  0
  5  1  1  0
  6  3  1  0
  7  6  2  0
  8  7  1  0
  9  8  1  0
 10  8  2  0
 11 10  1  0
 12 11  2  0
 12  6  1  0
 13 11  1  0
 15 14  2  0
 16 15  1  0
 17 16  2  0
 17  1  1  0
 18 17  1  0
 19 14  1  0
 19 18  2  0
 21 20  1  0
 21 14  1  0
 22 18  1  0
 23 22  1  0
 24  5  1  0
 25 24  2  0
 26 25  1  0
 27 26  2  0
 28 27  1  0
 29 28  2  0
 29 24  1  0
 30 27  1  0
 31 30  2  0
 32 30  2  0
 33 30  1  0
  1 34  1  1
  2 35  1  0
  2 36  1  0
  7 37  1  0
 10 38  1  0
 12 39  1  0
 15 40  1  0
 16 41  1  0
 19 42  1  0
 20 43  1  0
 20 44  1  0
 20 45  1  0
 23 46  1  0
 23 47  1  0
 23 48  1  0
 25 49  1  0
 26 50  1  0
 28 51  1  0
 29 52  1  0
 33 53  1  0
 33 54  1  0
M  END
>  <score>  (6) 
-7.496

$$$$
=
     RDKit          3D

 54 57  0  0  0  0  0  0  0  0999 V2000
    0.1800   58.9740   74.9370 C   0  0  1  0  0  0  0  0  0  0  0  0
   -1.2020   58.4830   75.3740 C   0  0  0  0  0  0  0  0  0  0  0  0
   -2.0810   59.4450   74.6230 C   0  0  0  0  0  0  0  0  0  0  0  0
   -1.4690   60.1930   73.7580 N   0  0  0  0  0  0  0  0  0  0  0  0
   -0.1370   59.9020   73.8450 N   0  0  0  0  0  0  0  0  0  0  0  0
   -3.5440   59.4990   74.8380 C   0  0  0  0  0  0  0  0  0  0  0  0
   -4.2920   60.6290   74.4950 C   0  0  0  0  0  0  0  0  0  0  0  0
   -5.6680   60.6330   74.7160 C   0  0  0  0  0  0  0  0  0  0  0  0
   -6.3790   61.7190   74.3850 F   0  0  0  0  0  0  0  0  0  0  0  0
   -6.3140   59.5390   75.2720 C   0  0  0  0  0  0  0  0  0  0  0  0
   -5.5630   58.4230   75.6100 C   0  0  0  0  0  0  0  0  0  0  0  0
   -4.1880   58.3900   75.4020 C   0  0  0  0  0  0  0  0  0  0  0  0
   -6.1730   57.3590   76.1480 F   0  0  0  0  0  0  0  0  0  0  0  0
    2.2810   60.7800   78.2870 C   0  0  0  0  0  0  0  0  0  0  0  0
    0.9600   61.1310   78.0160 C   0  0  0  0  0  0  0  0  0  0  0  0
    0.2800   60.5580   76.9420 C   0  0  0  0  0  0  0  0  0  0  0  0
    0.9140   59.6250   76.1060 C   0  0  0  0  0  0  0  0  0  0  0  0
    2.2460   59.2590   76.3890 C   0  0  0  0  0  0  0  0  0  0  0  0
    2.9210   59.8410   77.4740 C   0  0  0  0  0  0  0  0  0  0  0  0
    4.2340   61.6190   79.3620 C   0  0  0  0  0  0  0  0  0  0  0  0
    2.8270   61.4150   79.3690 O   0  0  0  0  0  0  0  0  0  0  0  0
    2.7880   58.3130   75.5560 O   0  0  0  0  0  0  0  0  0  0  0  0
    4.0690   57.7920   75.8920 C   0  0  0  0  0  0  0  0  0  0  0  0
    0.7600   60.3590   72.8810 C   0  0  0  0  0  0  0  0  0  0  0  0
    1.8590   59.5930   72.4510 C   0  0  0  0  0  0  0  0  0  0  0  0
    2.7560   60.0680   71.4860 C   0  0  0  0  0  0  0  0  0  0  0  0
    2.5700   61.3360   70.9380 C   0  0  0  0  0  0  0  0  0  0  0  0
    1.4880   62.1190   71.3310 C   0  0  0  0  0  0  0  0  0  0  0  0
    0.6010   61.6300   72.2960 C   0  0  0  0  0  0  0  0  0  0  0  0
    3.6810   61.9310   69.7000 S   0  0  0  0  0  6  0  0  0  0  0  0
    4.6950   62.7520   70.3200 O   0  0  0  0  0  0  0  0  0  0  0  0
    2.9260   62.3750   68.5520 O   0  0  0  0  0  0  0  0  0  0  0  0
    4.4570   60.5220   69.2210 N   0  0  0  0  0  0  0  0  0  0  0  0
    0.8662   58.1804   74.6063 H   0  0  0  0  0  0  0  0  0  0  0  0
   -1.3805   57.4426   75.0646 H   0  0  0  0  0  0  0  0  0  0  0  0
   -1.3616   58.4681   76.4623 H   0  0  0  0  0  0  0  0  0  0  0  0
   -3.7986   61.5078   74.0543 H   0  0  0  0  0  0  0  0  0  0  0  0
   -7.4007   59.5560   75.4416 H   0  0  0  0  0  0  0  0  0  0  0  0
   -3.6088   57.4969   75.6792 H   0  0  0  0  0  0  0  0  0  0  0  0
    0.4492   61.8665   78.6549 H   0  0  0  0  0  0  0  0  0  0  0  0
   -0.7652   60.8402   76.7474 H   0  0  0  0  0  0  0  0  0  0  0  0
    3.9620   59.5554   77.6856 H   0  0  0  0  0  0  0  0  0  0  0  0
    4.6019   61.6723   80.3973 H   0  0  0  0  0  0  0  0  0  0  0  0
    4.7232   60.7824   78.8417 H   0  0  0  0  0  0  0  0  0  0  0  0
    4.4655   62.5601   78.8417 H   0  0  0  0  0  0  0  0  0  0  0  0
    4.1722   57.7500   76.9863 H   0  0  0  0  0  0  0  0  0  0  0  0
    4.1741   56.7797   75.4747 H   0  0  0  0  0  0  0  0  0  0  0  0
    4.8508   58.4436   75.4747 H   0  0  0  0  0  0  0  0  0  0  0  0
    2.0179   58.5945   72.8843 H   0  0  0  0  0  0  0  0  0  0  0  0
    3.6022   59.4441   71.1625 H   0  0  0  0  0  0  0  0  0  0  0  0
    1.3320   63.1131   70.8868 H   0  0  0  0  0  0  0  0  0  0  0  0
   -0.2469   62.2578   72.6074 H   0  0  0  0  0  0  0  0  0  0  0  0
    4.7494   59.9910   70.0537 H   0  0  0  0  0  0  0  0  0  0  0  0
    3.8122   59.9494   68.6577 H   0  0  0  0  0  0  0  0  0  0  0  0
  2  1  1  0
  3  2  1  0
  4  3  2  0
  5  4  1  0
  5  1  1  0
  6  3  1  0
  7  6  2  0
  8  7  1  0
  9  8  1  0
 10  8  2  0
 11 10  1  0
 12 11  2  0
 12  6  1  0
 13 11  1  0
 15 14  2  0
 16 15  1  0
 17 16  2  0
 17  1  1  0
 18 17  1  0
 19 14  1  0
 19 18  2  0
 21 20  1  0
 21 14  1  0
 22 18  1  0
 23 22  1  0
 24  5  1  0
 25 24  2  0
 26 25  1  0
 27 26  2  0
 28 27  1  0
 29 28  2  0
 29 24  1  0
 30 27  1  0
 31 30  2  0
 32 30  2  0
 33 30  1  0
  1 34  1  6
  2 35  1  0
  2 36  1  0
  7 37  1  0
 10 38  1  0
 12 39  1  0
 15 40  1  0
 16 41  1  0
 19 42  1  0
 20 43  1  0
 20 44  1  0
 20 45  1  0
 23 46  1  0
 23 47  1  0
 23 48  1  0
 25 49  1  0
 26 50  1  0
 28 51  1  0
 29 52  1  0
 33 53  1  0
 33 54  1  0
M  END
>  <score>  (7) 
-7.093

$$$$
=
     RDKit          3D

 54 57  0  0  0  0  0  0  0  0999 V2000
    0.3200   58.2200   74.0230 C   0  0  1  0  0  0  0  0  0  0  0  0
   -0.9800   57.5800   74.5150 C   0  0  0  0  0  0  0  0  0  0  0  0
   -1.8820   58.7820   74.5410 C   0  0  0  0  0  0  0  0  0  0  0  0
   -1.3910   59.8530   73.9960 N   0  0  0  0  0  0  0  0  0  0  0  0
   -0.1180   59.5560   73.6020 N   0  0  0  0  0  0  0  0  0  0  0  0
   -3.2440   58.7260   75.1170 C   0  0  0  0  0  0  0  0  0  0  0  0
   -3.6370   57.6870   75.9650 C   0  0  0  0  0  0  0  0  0  0  0  0
   -4.9310   57.6780   76.4820 C   0  0  0  0  0  0  0  0  0  0  0  0
   -5.3020   56.6790   77.2940 F   0  0  0  0  0  0  0  0  0  0  0  0
   -5.8410   58.6780   76.1730 C   0  0  0  0  0  0  0  0  0  0  0  0
   -5.4420   59.7040   75.3300 C   0  0  0  0  0  0  0  0  0  0  0  0
   -4.1570   59.7400   74.7980 C   0  0  0  0  0  0  0  0  0  0  0  0
   -6.3090   60.6760   75.0220 F   0  0  0  0  0  0  0  0  0  0  0  0
    3.2850   58.2140   77.2010 C   0  0  0  0  0  0  0  0  0  0  0  0
    2.3310   59.2280   77.1340 C   0  0  0  0  0  0  0  0  0  0  0  0
    1.3790   59.2390   76.1170 C   0  0  0  0  0  0  0  0  0  0  0  0
    1.3660   58.2350   75.1330 C   0  0  0  0  0  0  0  0  0  0  0  0
    2.3230   57.2020   75.2110 C   0  0  0  0  0  0  0  0  0  0  0  0
    3.2770   57.2010   76.2410 C   0  0  0  0  0  0  0  0  0  0  0  0
    4.0260   59.4670   79.0860 C   0  0  0  0  0  0  0  0  0  0  0  0
    4.1580   58.3260   78.2500 O   0  0  0  0  0  0  0  0  0  0  0  0
    2.2260   56.2350   74.2420 O   0  0  0  0  0  0  0  0  0  0  0  0
    2.0750   54.8860   74.6680 C   0  0  0  0  0  0  0  0  0  0  0  0
    0.5920   60.4180   72.7670 C   0  0  0  0  0  0  0  0  0  0  0  0
    1.8480   60.0830   72.2320 C   0  0  0  0  0  0  0  0  0  0  0  0
    2.5540   60.9620   71.4000 C   0  0  0  0  0  0  0  0  0  0  0  0
    2.0090   62.2090   71.0960 C   0  0  0  0  0  0  0  0  0  0  0  0
    0.7620   62.5710   71.5980 C   0  0  0  0  0  0  0  0  0  0  0  0
    0.0720   61.6820   72.4280 C   0  0  0  0  0  0  0  0  0  0  0  0
    2.8790   63.3120   70.0240 S   0  0  0  0  0  6  0  0  0  0  0  0
    2.4490   64.6670   70.2810 O   0  0  0  0  0  0  0  0  0  0  0  0
    2.9180   62.7540   68.6930 O   0  0  0  0  0  0  0  0  0  0  0  0
    4.4470   63.2050   70.6120 N   0  0  0  0  0  0  0  0  0  0  0  0
    0.8169   57.6804   73.2033 H   0  0  0  0  0  0  0  0  0  0  0  0
   -1.3452   56.8129   73.8163 H   0  0  0  0  0  0  0  0  0  0  0  0
   -0.8957   57.0484   75.4743 H   0  0  0  0  0  0  0  0  0  0  0  0
   -2.9311   56.8835   76.2221 H   0  0  0  0  0  0  0  0  0  0  0  0
   -6.8593   58.6576   76.5885 H   0  0  0  0  0  0  0  0  0  0  0  0
   -3.8589   60.5612   74.1296 H   0  0  0  0  0  0  0  0  0  0  0  0
    2.3298   60.0264   77.8907 H   0  0  0  0  0  0  0  0  0  0  0  0
    0.6287   60.0427   76.0835 H   0  0  0  0  0  0  0  0  0  0  0  0
    4.0242   56.3953   76.2918 H   0  0  0  0  0  0  0  0  0  0  0  0
    4.0621   59.1552   80.1403 H   0  0  0  0  0  0  0  0  0  0  0  0
    4.8491   60.1678   78.8825 H   0  0  0  0  0  0  0  0  0  0  0  0
    3.0647   59.9614   78.8825 H   0  0  0  0  0  0  0  0  0  0  0  0
    2.0706   54.8469   75.7673 H   0  0  0  0  0  0  0  0  0  0  0  0
    1.1262   54.4839   74.2830 H   0  0  0  0  0  0  0  0  0  0  0  0
    2.9114   54.2841   74.2830 H   0  0  0  0  0  0  0  0  0  0  0  0
    2.2885   59.1043   72.4730 H   0  0  0  0  0  0  0  0  0  0  0  0
    3.5319   60.6702   70.9893 H   0  0  0  0  0  0  0  0  0  0  0  0
    0.3235   63.5474   71.3441 H   0  0  0  0  0  0  0  0  0  0  0  0
   -0.9082   61.9795   72.8289 H   0  0  0  0  0  0  0  0  0  0  0  0
    4.4283   63.2063   71.6418 H   0  0  0  0  0  0  0  0  0  0  0  0
    4.8803   62.3325   70.2775 H   0  0  0  0  0  0  0  0  0  0  0  0
  2  1  1  0
  3  2  1  0
  4  3  2  0
  5  4  1  0
  5  1  1  0
  6  3  1  0
  7  6  2  0
  8  7  1  0
  9  8  1  0
 10  8  2  0
 11 10  1  0
 12 11  2  0
 12  6  1  0
 13 11  1  0
 15 14  2  0
 16 15  1  0
 17 16  2  0
 17  1  1  0
 18 17  1  0
 19 14  1  0
 19 18  2  0
 21 20  1  0
 21 14  1  0
 22 18  1  0
 23 22  1  0
 24  5  1  0
 25 24  2  0
 26 25  1  0
 27 26  2  0
 28 27  1  0
 29 28  2  0
 29 24  1  0
 30 27  1  0
 31 30  2  0
 32 30  2  0
 33 30  1  0
  1 34  1  6
  2 35  1  0
  2 36  1  0
  7 37  1  0
 10 38  1  0
 12 39  1  0
 15 40  1  0
 16 41  1  0
 19 42  1  0
 20 43  1  0
 20 44  1  0
 20 45  1  0
 23 46  1  0
 23 47  1  0
 23 48  1  0
 25 49  1  0
 26 50  1  0
 28 51  1  0
 29 52  1  0
 33 53  1  0
 33 54  1  0
M  END
>  <score>  (8) 
-7.068

$$$$
=
     RDKit          3D

 54 57  0  0  0  0  0  0  0  0999 V2000
   -0.3290   58.0210   74.4450 C   0  0  1  0  0  0  0  0  0  0  0  0
   -1.8190   58.0210   74.7910 C   0  0  0  0  0  0  0  0  0  0  0  0
   -2.1660   59.4540   74.4960 C   0  0  0  0  0  0  0  0  0  0  0  0
   -1.2370   60.1370   73.9010 N   0  0  0  0  0  0  0  0  0  0  0  0
   -0.1530   59.3150   73.7750 N   0  0  0  0  0  0  0  0  0  0  0  0
   -3.4900   60.0230   74.8320 C   0  0  0  0  0  0  0  0  0  0  0  0
   -4.6240   59.2150   74.9510 C   0  0  0  0  0  0  0  0  0  0  0  0
   -5.8500   59.7970   75.2690 C   0  0  0  0  0  0  0  0  0  0  0  0
   -6.9330   59.0170   75.3810 F   0  0  0  0  0  0  0  0  0  0  0  0
   -5.9710   61.1640   75.4700 C   0  0  0  0  0  0  0  0  0  0  0  0
   -4.8400   61.9580   75.3480 C   0  0  0  0  0  0  0  0  0  0  0  0
   -3.6030   61.4050   75.0320 C   0  0  0  0  0  0  0  0  0  0  0  0
   -4.9410   63.2790   75.5390 F   0  0  0  0  0  0  0  0  0  0  0  0
    2.0540   57.5140   78.0450 C   0  0  0  0  0  0  0  0  0  0  0  0
    1.2850   58.6630   77.8690 C   0  0  0  0  0  0  0  0  0  0  0  0
    0.5210   58.8350   76.7160 C   0  0  0  0  0  0  0  0  0  0  0  0
    0.5160   57.8600   75.7050 C   0  0  0  0  0  0  0  0  0  0  0  0
    1.2830   56.6910   75.8910 C   0  0  0  0  0  0  0  0  0  0  0  0
    2.0480   56.5280   77.0570 C   0  0  0  0  0  0  0  0  0  0  0  0
    3.6550   56.3910   79.4040 C   0  0  0  0  0  0  0  0  0  0  0  0
    2.7530   57.4740   79.2210 O   0  0  0  0  0  0  0  0  0  0  0  0
    1.1990   55.7640   74.8820 O   0  0  0  0  0  0  0  0  0  0  0  0
    2.1990   54.7530   74.8290 C   0  0  0  0  0  0  0  0  0  0  0  0
    0.9230   59.6710   72.9630 C   0  0  0  0  0  0  0  0  0  0  0  0
    1.0840   60.9710   72.4520 C   0  0  0  0  0  0  0  0  0  0  0  0
    2.1670   61.3120   71.6320 C   0  0  0  0  0  0  0  0  0  0  0  0
    3.1110   60.3420   71.2990 C   0  0  0  0  0  0  0  0  0  0  0  0
    2.9910   59.0470   71.7950 C   0  0  0  0  0  0  0  0  0  0  0  0
    1.9030   58.7220   72.6120 C   0  0  0  0  0  0  0  0  0  0  0  0
    4.4950   60.7710   70.2890 S   0  0  0  0  0  6  0  0  0  0  0  0
    4.4130   60.0580   69.0350 O   0  0  0  0  0  0  0  0  0  0  0  0
    5.6930   60.7780   71.0950 O   0  0  0  0  0  0  0  0  0  0  0  0
    4.1780   62.3790   69.9270 N   0  0  0  0  0  0  0  0  0  0  0  0
   -0.0062   57.1868   73.8048 H   0  0  0  0  0  0  0  0  0  0  0  0
   -2.3846   57.3261   74.1528 H   0  0  0  0  0  0  0  0  0  0  0  0
   -2.0530   57.6930   75.8146 H   0  0  0  0  0  0  0  0  0  0  0  0
   -4.5497   58.1287   74.7950 H   0  0  0  0  0  0  0  0  0  0  0  0
   -6.9447   61.6098   75.7212 H   0  0  0  0  0  0  0  0  0  0  0  0
   -2.7171   62.0505   74.9396 H   0  0  0  0  0  0  0  0  0  0  0  0
    1.2810   59.4408   78.6468 H   0  0  0  0  0  0  0  0  0  0  0  0
   -0.0852   59.7451   76.5964 H   0  0  0  0  0  0  0  0  0  0  0  0
    2.6475   55.6158   77.1930 H   0  0  0  0  0  0  0  0  0  0  0  0
    3.8022   56.2142   80.4797 H   0  0  0  0  0  0  0  0  0  0  0  0
    3.2403   55.4855   78.9370 H   0  0  0  0  0  0  0  0  0  0  0  0
    4.6206   56.6351   78.9370 H   0  0  0  0  0  0  0  0  0  0  0  0
    2.4838   54.4650   75.8517 H   0  0  0  0  0  0  0  0  0  0  0  0
    1.8045   53.8746   74.2972 H   0  0  0  0  0  0  0  0  0  0  0  0
    3.0816   55.1378   74.2972 H   0  0  0  0  0  0  0  0  0  0  0  0
    0.3394   61.7408   72.7030 H   0  0  0  0  0  0  0  0  0  0  0  0
    2.2720   62.3393   71.2530 H   0  0  0  0  0  0  0  0  0  0  0  0
    3.7452   58.2857   71.5467 H   0  0  0  0  0  0  0  0  0  0  0  0
    1.8099   57.6939   72.9920 H   0  0  0  0  0  0  0  0  0  0  0  0
    4.0726   62.9134   70.8012 H   0  0  0  0  0  0  0  0  0  0  0  0
    4.9585   62.7678   69.3788 H   0  0  0  0  0  0  0  0  0  0  0  0
  2  1  1  0
  3  2  1  0
  4  3  2  0
  5  4  1  0
  5  1  1  0
  6  3  1  0
  7  6  2  0
  8  7  1  0
  9  8  1  0
 10  8  2  0
 11 10  1  0
 12 11  2  0
 12  6  1  0
 13 11  1  0
 15 14  2  0
 16 15  1  0
 17 16  2  0
 17  1  1  0
 18 17  1  0
 19 14  1  0
 19 18  2  0
 21 20  1  0
 21 14  1  0
 22 18  1  0
 23 22  1  0
 24  5  1  0
 25 24  2  0
 26 25  1  0
 27 26  2  0
 28 27  1  0
 29 28  2  0
 29 24  1  0
 30 27  1  0
 31 30  2  0
 32 30  2  0
 33 30  1  0
  1 34  1  6
  2 35  1  0
  2 36  1  0
  7 37  1  0
 10 38  1  0
 12 39  1  0
 15 40  1  0
 16 41  1  0
 19 42  1  0
 20 43  1  0
 20 44  1  0
 20 45  1  0
 23 46  1  0
 23 47  1  0
 23 48  1  0
 25 49  1  0
 26 50  1  0
 28 51  1  0
 29 52  1  0
 33 53  1  0
 33 54  1  0
M  END
>  <score>  (9) 
-6.942

$$$$
