=
     RDKit          3D

 53 56  0  0  0  0  0  0  0  0999 V2000
    2.9850   61.6000   73.1300 C   0  0  0  0  0  0  0  0  0  0  0  0
    1.9740   62.5360   73.3650 C   0  0  0  0  0  0  0  0  0  0  0  0
    1.4150   63.1670   72.2680 C   0  0  0  0  0  0  0  0  0  0  0  0
    1.8110   62.9130   70.9640 C   0  0  0  0  0  0  0  0  0  0  0  0
    2.8120   61.9850   70.7140 C   0  0  0  0  0  0  0  0  0  0  0  0
    3.4090   61.3250   71.7990 C   0  0  0  0  0  0  0  0  0  0  0  0
    1.0230   63.6980   69.9610 C   0  0  0  0  0  0  0  0  0  0  0  0
    0.1440   64.6530   70.8090 C   0  0  1  0  0  0  0  0  0  0  0  0
    0.3680   64.1780   72.2480 C   0  0  0  0  0  0  0  0  0  0  0  0
   -0.1990   64.5760   73.2530 O   0  0  0  0  0  0  0  0  0  0  0  0
    2.8830   59.9420   74.8510 C   0  0  0  0  0  0  0  0  0  0  0  0
    3.6330   60.9010   74.1190 O   0  0  0  0  0  0  0  0  0  0  0  0
    4.4090   60.3910   71.6770 O   0  0  0  0  0  0  0  0  0  0  0  0
    5.7040   60.8490   71.3170 C   0  0  0  0  0  0  0  0  0  0  0  0
    0.5950   65.9830   70.5810 O   0  0  0  0  0  0  0  0  0  0  0  0
    0.2410   66.6100   69.4220 C   0  0  0  0  0  0  0  0  0  0  0  0
    1.2230   67.4510   68.8960 C   0  0  0  0  0  0  0  0  0  0  0  0
    0.9880   68.1900   67.7330 C   0  0  0  0  0  0  0  0  0  0  0  0
   -0.2450   68.0900   67.0730 C   0  0  0  0  0  0  0  0  0  0  0  0
   -1.2160   67.2200   67.5860 C   0  0  0  0  0  0  0  0  0  0  0  0
   -0.9730   66.4840   68.7510 C   0  0  0  0  0  0  0  0  0  0  0  0
   -0.5430   68.9500   65.8770 C   0  0  0  0  0  0  0  0  0  0  0  0
    0.0510   68.3910   64.6130 N   0  0  0  0  0  4  0  0  0  0  0  0
   -0.6840   68.7810   63.3490 C   0  0  0  0  0  0  0  0  0  0  0  0
    0.3880   69.3260   62.4210 C   0  0  0  0  0  0  0  0  0  0  0  0
    1.6650   68.6660   62.8990 C   0  0  0  0  0  0  0  0  0  0  0  0
    1.5160   68.7120   64.4050 C   0  0  0  0  0  0  0  0  0  0  0  0
    1.6346   62.7630   74.3864 H   0  0  0  0  0  0  0  0  0  0  0  0
    3.1318   61.7705   69.6836 H   0  0  0  0  0  0  0  0  0  0  0  0
    1.6936   64.2702   69.3031 H   0  0  0  0  0  0  0  0  0  0  0  0
    0.4211   63.0504   69.3065 H   0  0  0  0  0  0  0  0  0  0  0  0
   -0.9290   64.6439   70.5671 H   0  0  0  0  0  0  0  0  0  0  0  0
    3.0186   60.1154   75.9287 H   0  0  0  0  0  0  0  0  0  0  0  0
    1.8173   60.0373   74.5955 H   0  0  0  0  0  0  0  0  0  0  0  0
    3.2323   58.9307   74.5955 H   0  0  0  0  0  0  0  0  0  0  0  0
    6.2863   61.0549   72.2273 H   0  0  0  0  0  0  0  0  0  0  0  0
    6.2139   60.0767   70.7224 H   0  0  0  0  0  0  0  0  0  0  0  0
    5.6150   61.7702   70.7224 H   0  0  0  0  0  0  0  0  0  0  0  0
    2.1953   67.5334   69.4037 H   0  0  0  0  0  0  0  0  0  0  0  0
    1.7718   68.8512   67.3349 H   0  0  0  0  0  0  0  0  0  0  0  0
   -2.1802   67.1143   67.0671 H   0  0  0  0  0  0  0  0  0  0  0  0
   -1.7445   65.8026   69.1388 H   0  0  0  0  0  0  0  0  0  0  0  0
   -1.6339   69.0209   65.7546 H   0  0  0  0  0  0  0  0  0  0  0  0
   -0.0947   69.9391   66.0522 H   0  0  0  0  0  0  0  0  0  0  0  0
   -0.0537   67.3788   64.7723 H   0  0  0  0  0  0  0  0  0  0  0  0
   -1.1737   67.9040   62.9006 H   0  0  0  0  0  0  0  0  0  0  0  0
   -1.4757   69.5196   63.5434 H   0  0  0  0  0  0  0  0  0  0  0  0
    0.1753   69.0533   61.3768 H   0  0  0  0  0  0  0  0  0  0  0  0
    0.4471   70.4241   62.4450 H   0  0  0  0  0  0  0  0  0  0  0  0
    1.7354   67.6292   62.5383 H   0  0  0  0  0  0  0  0  0  0  0  0
    2.5769   69.1612   62.5340 H   0  0  0  0  0  0  0  0  0  0  0  0
    2.1577   67.9609   64.8888 H   0  0  0  0  0  0  0  0  0  0  0  0
    1.8141   69.6771   64.8405 H   0  0  0  0  0  0  0  0  0  0  0  0
  2  1  2  0
  3  2  1  0
  4  3  2  0
  5  4  1  0
  6  5  2  0
  6  1  1  0
  7  4  1  0
  8  7  1  0
  9  8  1  0
  9  3  1  0
 10  9  2  0
 12 11  1  0
 12  1  1  0
 13  6  1  0
 14 13  1  0
 15  8  1  0
 16 15  1  0
 17 16  2  0
 18 17  1  0
 19 18  2  0
 20 19  1  0
 21 20  2  0
 21 16  1  0
 22 19  1  0
 23 22  1  0
 24 23  1  0
 25 24  1  0
 26 25  1  0
 27 26  1  0
 27 23  1  0
  2 28  1  0
  5 29  1  0
  7 30  1  0
  7 31  1  0
  8 32  1  6
 11 33  1  0
 11 34  1  0
 11 35  1  0
 14 36  1  0
 14 37  1  0
 14 38  1  0
 17 39  1  0
 18 40  1  0
 20 41  1  0
 21 42  1  0
 22 43  1  0
 22 44  1  0
 23 45  1  0
 24 46  1  0
 24 47  1  0
 25 48  1  0
 25 49  1  0
 26 50  1  0
 26 51  1  0
 27 52  1  0
 27 53  1  0
M  CHG  1  23   1
M  END
>  <score>  (1) 
-9.119

$$$$
=
     RDKit          3D

 53 56  0  0  0  0  0  0  0  0999 V2000
    0.6060   68.7060   65.0370 C   0  0  0  0  0  0  0  0  0  0  0  0
   -0.4580   68.2920   65.8410 C   0  0  0  0  0  0  0  0  0  0  0  0
   -0.1560   67.7270   67.0680 C   0  0  0  0  0  0  0  0  0  0  0  0
    1.1410   67.5590   67.5250 C   0  0  0  0  0  0  0  0  0  0  0  0
    2.2100   67.9670   66.7400 C   0  0  0  0  0  0  0  0  0  0  0  0
    1.9470   68.5420   65.4860 C   0  0  0  0  0  0  0  0  0  0  0  0
    1.1950   66.9610   68.8970 C   0  0  0  0  0  0  0  0  0  0  0  0
   -0.2760   66.5940   69.2250 C   0  0  1  0  0  0  0  0  0  0  0  0
   -1.0740   67.2100   68.0720 C   0  0  0  0  0  0  0  0  0  0  0  0
   -2.2890   67.2570   67.9580 O   0  0  0  0  0  0  0  0  0  0  0  0
   -0.0030   68.4510   62.7380 C   0  0  0  0  0  0  0  0  0  0  0  0
    0.4580   69.2780   63.7970 O   0  0  0  0  0  0  0  0  0  0  0  0
    2.9190   68.9800   64.6200 O   0  0  0  0  0  0  0  0  0  0  0  0
    4.1490   69.4260   65.1730 C   0  0  0  0  0  0  0  0  0  0  0  0
   -0.3730   65.1760   69.2790 O   0  0  0  0  0  0  0  0  0  0  0  0
    0.4430   64.4910   70.1320 C   0  0  0  0  0  0  0  0  0  0  0  0
   -0.2070   63.5280   70.9060 C   0  0  0  0  0  0  0  0  0  0  0  0
    0.4930   62.7760   71.8530 C   0  0  0  0  0  0  0  0  0  0  0  0
    1.8690   62.9760   72.0340 C   0  0  0  0  0  0  0  0  0  0  0  0
    2.5230   63.9200   71.2320 C   0  0  0  0  0  0  0  0  0  0  0  0
    1.8150   64.6710   70.2870 C   0  0  0  0  0  0  0  0  0  0  0  0
    2.6130   62.2410   73.1130 C   0  0  0  0  0  0  0  0  0  0  0  0
    3.5650   61.2200   72.5520 N   0  0  0  0  0  4  0  0  0  0  0  0
    3.0370   60.4670   71.3500 C   0  0  0  0  0  0  0  0  0  0  0  0
    4.1280   60.5860   70.2990 C   0  0  0  0  0  0  0  0  0  0  0  0
    5.3940   60.8130   71.1000 C   0  0  0  0  0  0  0  0  0  0  0  0
    4.9310   61.7610   72.1860 C   0  0  0  0  0  0  0  0  0  0  0  0
   -1.5005   68.4108   65.5106 H   0  0  0  0  0  0  0  0  0  0  0  0
    3.2442   67.8424   67.0933 H   0  0  0  0  0  0  0  0  0  0  0  0
    1.8297   66.0626   68.9038 H   0  0  0  0  0  0  0  0  0  0  0  0
    1.6259   67.6528   69.6358 H   0  0  0  0  0  0  0  0  0  0  0  0
   -0.6500   66.9670   70.1899 H   0  0  0  0  0  0  0  0  0  0  0  0
   -0.4984   67.5622   63.1559 H   0  0  0  0  0  0  0  0  0  0  0  0
   -0.7183   69.0125   62.1190 H   0  0  0  0  0  0  0  0  0  0  0  0
    0.8507   68.1379   62.1190 H   0  0  0  0  0  0  0  0  0  0  0  0
    4.0869   69.4035   66.2710 H   0  0  0  0  0  0  0  0  0  0  0  0
    4.9625   68.7656   64.8381 H   0  0  0  0  0  0  0  0  0  0  0  0
    4.3501   70.4543   64.8381 H   0  0  0  0  0  0  0  0  0  0  0  0
   -1.2852   63.3589   70.7684 H   0  0  0  0  0  0  0  0  0  0  0  0
   -0.0366   62.0253   72.4580 H   0  0  0  0  0  0  0  0  0  0  0  0
    3.6063   64.0729   71.3464 H   0  0  0  0  0  0  0  0  0  0  0  0
    2.3446   65.4067   69.6639 H   0  0  0  0  0  0  0  0  0  0  0  0
    3.1842   62.9686   73.7082 H   0  0  0  0  0  0  0  0  0  0  0  0
    1.8742   61.7102   73.7314 H   0  0  0  0  0  0  0  0  0  0  0  0
    3.6604   60.5735   73.3481 H   0  0  0  0  0  0  0  0  0  0  0  0
    2.8580   59.4116   71.6033 H   0  0  0  0  0  0  0  0  0  0  0  0
    2.0779   60.8739   70.9970 H   0  0  0  0  0  0  0  0  0  0  0  0
    4.2016   59.6618   69.7070 H   0  0  0  0  0  0  0  0  0  0  0  0
    3.9337   61.3958   69.5804 H   0  0  0  0  0  0  0  0  0  0  0  0
    5.7677   59.8710   71.5278 H   0  0  0  0  0  0  0  0  0  0  0  0
    6.2270   61.2079   70.4999 H   0  0  0  0  0  0  0  0  0  0  0  0
    5.6111   61.7344   73.0501 H   0  0  0  0  0  0  0  0  0  0  0  0
    4.9081   62.8121   71.8626 H   0  0  0  0  0  0  0  0  0  0  0  0
  2  1  2  0
  3  2  1  0
  4  3  2  0
  5  4  1  0
  6  5  2  0
  6  1  1  0
  7  4  1  0
  8  7  1  0
  9  8  1  0
  9  3  1  0
 10  9  2  0
 12 11  1  0
 12  1  1  0
 13  6  1  0
 14 13  1  0
 15  8  1  0
 16 15  1  0
 17 16  2  0
 18 17  1  0
 19 18  2  0
 20 19  1  0
 21 20  2  0
 21 16  1  0
 22 19  1  0
 23 22  1  0
 24 23  1  0
 25 24  1  0
 26 25  1  0
 27 26  1  0
 27 23  1  0
  2 28  1  0
  5 29  1  0
  7 30  1  0
  7 31  1  0
  8 32  1  1
 11 33  1  0
 11 34  1  0
 11 35  1  0
 14 36  1  0
 14 37  1  0
 14 38  1  0
 17 39  1  0
 18 40  1  0
 20 41  1  0
 21 42  1  0
 22 43  1  0
 22 44  1  0
 23 45  1  0
 24 46  1  0
 24 47  1  0
 25 48  1  0
 25 49  1  0
 26 50  1  0
 26 51  1  0
 27 52  1  0
 27 53  1  0
M  CHG  1  23   1
M  END
>  <score>  (2) 
-8.715

$$$$
=
     RDKit          3D

 53 56  0  0  0  0  0  0  0  0999 V2000
    2.0150   60.4130   71.8750 C   0  0  0  0  0  0  0  0  0  0  0  0
    2.3240   61.4330   70.9720 C   0  0  0  0  0  0  0  0  0  0  0  0
    1.6950   62.6530   71.1390 C   0  0  0  0  0  0  0  0  0  0  0  0
    0.7830   62.9030   72.1530 C   0  0  0  0  0  0  0  0  0  0  0  0
    0.4670   61.9010   73.0600 C   0  0  0  0  0  0  0  0  0  0  0  0
    1.0810   60.6460   72.9230 C   0  0  0  0  0  0  0  0  0  0  0  0
    0.2760   64.3120   72.1370 C   0  0  0  0  0  0  0  0  0  0  0  0
    0.8660   64.9290   70.8430 C   0  0  1  0  0  0  0  0  0  0  0  0
    1.8340   63.8570   70.3320 C   0  0  0  0  0  0  0  0  0  0  0  0
    2.6000   63.9450   69.3860 O   0  0  0  0  0  0  0  0  0  0  0  0
    3.6250   58.9240   70.9200 C   0  0  0  0  0  0  0  0  0  0  0  0
    2.5580   59.1520   71.8300 O   0  0  0  0  0  0  0  0  0  0  0  0
    0.8450   59.5790   73.7560 O   0  0  0  0  0  0  0  0  0  0  0  0
   -0.4970   59.1420   73.9120 C   0  0  0  0  0  0  0  0  0  0  0  0
   -0.2110   65.1820   69.9470 O   0  0  0  0  0  0  0  0  0  0  0  0
   -0.0980   66.2070   69.0540 C   0  0  0  0  0  0  0  0  0  0  0  0
   -1.2110   66.3810   68.2290 C   0  0  0  0  0  0  0  0  0  0  0  0
   -1.2220   67.3670   67.2390 C   0  0  0  0  0  0  0  0  0  0  0  0
   -0.1120   68.2040   67.0640 C   0  0  0  0  0  0  0  0  0  0  0  0
    0.9900   68.0480   67.9160 C   0  0  0  0  0  0  0  0  0  0  0  0
    0.9950   67.0580   68.9050 C   0  0  0  0  0  0  0  0  0  0  0  0
   -0.0760   69.2030   65.9420 C   0  0  0  0  0  0  0  0  0  0  0  0
    0.1970   68.5530   64.6120 N   0  0  0  0  0  4  0  0  0  0  0  0
   -0.7460   68.9720   63.5060 C   0  0  0  0  0  0  0  0  0  0  0  0
    0.1550   69.3870   62.3550 C   0  0  0  0  0  0  0  0  0  0  0  0
    1.4430   68.6270   62.5970 C   0  0  0  0  0  0  0  0  0  0  0  0
    1.6100   68.7320   64.0980 C   0  0  0  0  0  0  0  0  0  0  0  0
    3.0434   61.2711   70.1557 H   0  0  0  0  0  0  0  0  0  0  0  0
   -0.2517   62.0870   73.8717 H   0  0  0  0  0  0  0  0  0  0  0  0
   -0.8235   64.3281   72.1079 H   0  0  0  0  0  0  0  0  0  0  0  0
    0.5727   64.8709   73.0368 H   0  0  0  0  0  0  0  0  0  0  0  0
    1.3916   65.8860   70.9764 H   0  0  0  0  0  0  0  0  0  0  0  0
    4.5500   58.7264   71.4816 H   0  0  0  0  0  0  0  0  0  0  0  0
    3.3879   58.0562   70.2869 H   0  0  0  0  0  0  0  0  0  0  0  0
    3.7633   59.8129   70.2869 H   0  0  0  0  0  0  0  0  0  0  0  0
   -0.7352   59.0644   74.9831 H   0  0  0  0  0  0  0  0  0  0  0  0
   -1.1758   59.8655   73.4369 H   0  0  0  0  0  0  0  0  0  0  0  0
   -0.6196   58.1575   73.4369 H   0  0  0  0  0  0  0  0  0  0  0  0
   -2.0905   65.7335   68.3601 H   0  0  0  0  0  0  0  0  0  0  0  0
   -2.1054   67.4866   66.5946 H   0  0  0  0  0  0  0  0  0  0  0  0
    1.8607   68.7112   67.8060 H   0  0  0  0  0  0  0  0  0  0  0  0
    1.8662   66.9512   69.5680 H   0  0  0  0  0  0  0  0  0  0  0  0
   -1.0478   69.7161   65.8929 H   0  0  0  0  0  0  0  0  0  0  0  0
    0.7403   69.9115   66.1461 H   0  0  0  0  0  0  0  0  0  0  0  0
    0.0428   67.5597   64.8367 H   0  0  0  0  0  0  0  0  0  0  0  0
   -1.3904   68.1315   63.2086 H   0  0  0  0  0  0  0  0  0  0  0  0
   -1.4149   69.7866   63.8207 H   0  0  0  0  0  0  0  0  0  0  0  0
   -0.2897   69.1032   61.3898 H   0  0  0  0  0  0  0  0  0  0  0  0
    0.3100   70.4752   62.3131 H   0  0  0  0  0  0  0  0  0  0  0  0
    1.3507   67.5777   62.2800 H   0  0  0  0  0  0  0  0  0  0  0  0
    2.2990   69.0248   62.0322 H   0  0  0  0  0  0  0  0  0  0  0  0
    2.2722   67.9403   64.4783 H   0  0  0  0  0  0  0  0  0  0  0  0
    2.0705   69.6785   64.4175 H   0  0  0  0  0  0  0  0  0  0  0  0
  2  1  2  0
  3  2  1  0
  4  3  2  0
  5  4  1  0
  6  5  2  0
  6  1  1  0
  7  4  1  0
  8  7  1  0
  9  8  1  0
  9  3  1  0
 10  9  2  0
 12 11  1  0
 12  1  1  0
 13  6  1  0
 14 13  1  0
 15  8  1  0
 16 15  1  0
 17 16  2  0
 18 17  1  0
 19 18  2  0
 20 19  1  0
 21 20  2  0
 21 16  1  0
 22 19  1  0
 23 22  1  0
 24 23  1  0
 25 24  1  0
 26 25  1  0
 27 26  1  0
 27 23  1  0
  2 28  1  0
  5 29  1  0
  7 30  1  0
  7 31  1  0
  8 32  1  1
 11 33  1  0
 11 34  1  0
 11 35  1  0
 14 36  1  0
 14 37  1  0
 14 38  1  0
 17 39  1  0
 18 40  1  0
 20 41  1  0
 21 42  1  0
 22 43  1  0
 22 44  1  0
 23 45  1  0
 24 46  1  0
 24 47  1  0
 25 48  1  0
 25 49  1  0
 26 50  1  0
 26 51  1  0
 27 52  1  0
 27 53  1  0
M  CHG  1  23   1
M  END
>  <score>  (3) 
-8.669

$$$$
=
     RDKit          3D

 53 56  0  0  0  0  0  0  0  0999 V2000
    0.6210   68.7080   65.4240 C   0  0  0  0  0  0  0  0  0  0  0  0
   -0.4280   68.1420   66.1540 C   0  0  0  0  0  0  0  0  0  0  0  0
   -0.1250   67.5750   67.3800 C   0  0  0  0  0  0  0  0  0  0  0  0
    1.1570   67.5460   67.9050 C   0  0  0  0  0  0  0  0  0  0  0  0
    2.2090   68.1060   67.1930 C   0  0  0  0  0  0  0  0  0  0  0  0
    1.9450   68.6880   65.9430 C   0  0  0  0  0  0  0  0  0  0  0  0
    1.2090   66.9120   69.2600 C   0  0  0  0  0  0  0  0  0  0  0  0
   -0.2210   66.3620   69.4940 C   0  0  1  0  0  0  0  0  0  0  0  0
   -1.0260   66.9180   68.3150 C   0  0  0  0  0  0  0  0  0  0  0  0
   -2.2300   66.8240   68.1340 O   0  0  0  0  0  0  0  0  0  0  0  0
    0.2500   68.4540   63.0740 C   0  0  0  0  0  0  0  0  0  0  0  0
    0.4710   69.3000   64.1940 O   0  0  0  0  0  0  0  0  0  0  0  0
    2.9030   69.2690   65.1470 O   0  0  0  0  0  0  0  0  0  0  0  0
    4.2330   69.3240   65.6400 C   0  0  0  0  0  0  0  0  0  0  0  0
   -0.1500   64.9410   69.5030 O   0  0  0  0  0  0  0  0  0  0  0  0
    0.5130   64.3210   70.5220 C   0  0  0  0  0  0  0  0  0  0  0  0
    1.6700   63.6430   70.1320 C   0  0  0  0  0  0  0  0  0  0  0  0
    2.4300   62.9280   71.0610 C   0  0  0  0  0  0  0  0  0  0  0  0
    2.0410   62.8870   72.4070 C   0  0  0  0  0  0  0  0  0  0  0  0
    0.8970   63.5950   72.8000 C   0  0  0  0  0  0  0  0  0  0  0  0
    0.1400   64.3080   71.8640 C   0  0  0  0  0  0  0  0  0  0  0  0
    2.7960   62.0440   73.3960 C   0  0  0  0  0  0  0  0  0  0  0  0
    3.0000   60.6370   72.9030 N   0  0  0  0  0  4  0  0  0  0  0  0
    3.8320   59.7670   73.8190 C   0  0  0  0  0  0  0  0  0  0  0  0
    3.0090   58.5060   74.0230 C   0  0  0  0  0  0  0  0  0  0  0  0
    2.1250   58.4360   72.7950 C   0  0  0  0  0  0  0  0  0  0  0  0
    1.7240   59.8820   72.5960 C   0  0  0  0  0  0  0  0  0  0  0  0
   -1.4580   68.1469   65.7679 H   0  0  0  0  0  0  0  0  0  0  0  0
    3.2306   68.0939   67.6007 H   0  0  0  0  0  0  0  0  0  0  0  0
    1.9461   66.0956   69.2780 H   0  0  0  0  0  0  0  0  0  0  0  0
    1.5131   67.6246   70.0408 H   0  0  0  0  0  0  0  0  0  0  0  0
   -0.6868   66.6547   70.4465 H   0  0  0  0  0  0  0  0  0  0  0  0
   -0.0136   67.4448   63.4232 H   0  0  0  0  0  0  0  0  0  0  0  0
   -0.5727   68.8582   62.4659 H   0  0  0  0  0  0  0  0  0  0  0  0
    1.1653   68.4041   62.4659 H   0  0  0  0  0  0  0  0  0  0  0  0
    4.2167   69.3233   66.7399 H   0  0  0  0  0  0  0  0  0  0  0  0
    4.7936   68.4483   65.2811 H   0  0  0  0  0  0  0  0  0  0  0  0
    4.7194   70.2430   65.2811 H   0  0  0  0  0  0  0  0  0  0  0  0
    1.9872   63.6723   69.0791 H   0  0  0  0  0  0  0  0  0  0  0  0
    3.3360   62.3959   70.7353 H   0  0  0  0  0  0  0  0  0  0  0  0
    0.5908   63.5900   73.8565 H   0  0  0  0  0  0  0  0  0  0  0  0
   -0.7537   64.8607   72.1893 H   0  0  0  0  0  0  0  0  0  0  0  0
    3.7795   62.5030   73.5750 H   0  0  0  0  0  0  0  0  0  0  0  0
    2.2031   61.9955   74.3213 H   0  0  0  0  0  0  0  0  0  0  0  0
    3.5142   60.8036   72.0262 H   0  0  0  0  0  0  0  0  0  0  0  0
    4.7978   59.5262   73.3507 H   0  0  0  0  0  0  0  0  0  0  0  0
    4.0587   60.2696   74.7709 H   0  0  0  0  0  0  0  0  0  0  0  0
    3.6598   57.6214   74.0860 H   0  0  0  0  0  0  0  0  0  0  0  0
    2.4300   58.5276   74.9580 H   0  0  0  0  0  0  0  0  0  0  0  0
    2.6814   58.0547   71.9261 H   0  0  0  0  0  0  0  0  0  0  0  0
    1.2684   57.7556   72.9100 H   0  0  0  0  0  0  0  0  0  0  0  0
    1.3975   60.0625   71.5612 H   0  0  0  0  0  0  0  0  0  0  0  0
    0.8778   60.1873   73.2290 H   0  0  0  0  0  0  0  0  0  0  0  0
  2  1  2  0
  3  2  1  0
  4  3  2  0
  5  4  1  0
  6  5  2  0
  6  1  1  0
  7  4  1  0
  8  7  1  0
  9  8  1  0
  9  3  1  0
 10  9  2  0
 12 11  1  0
 12  1  1  0
 13  6  1  0
 14 13  1  0
 15  8  1  0
 16 15  1  0
 17 16  2  0
 18 17  1  0
 19 18  2  0
 20 19  1  0
 21 20  2  0
 21 16  1  0
 22 19  1  0
 23 22  1  0
 24 23  1  0
 25 24  1  0
 26 25  1  0
 27 26  1  0
 27 23  1  0
  2 28  1  0
  5 29  1  0
  7 30  1  0
  7 31  1  0
  8 32  1  1
 11 33  1  0
 11 34  1  0
 11 35  1  0
 14 36  1  0
 14 37  1  0
 14 38  1  0
 17 39  1  0
 18 40  1  0
 20 41  1  0
 21 42  1  0
 22 43  1  0
 22 44  1  0
 23 45  1  0
 24 46  1  0
 24 47  1  0
 25 48  1  0
 25 49  1  0
 26 50  1  0
 26 51  1  0
 27 52  1  0
 27 53  1  0
M  CHG  1  23   1
M  END
>  <score>  (4) 
-8.641

$$$$
=
     RDKit          3D

 53 56  0  0  0  0  0  0  0  0999 V2000
    3.8270   69.4010   65.3760 C   0  0  0  0  0  0  0  0  0  0  0  0
    2.7150   68.5560   65.3530 C   0  0  0  0  0  0  0  0  0  0  0  0
    2.1500   68.2040   66.5660 C   0  0  0  0  0  0  0  0  0  0  0  0
    2.6350   68.6490   67.7850 C   0  0  0  0  0  0  0  0  0  0  0  0
    3.7380   69.4900   67.8250 C   0  0  0  0  0  0  0  0  0  0  0  0
    4.3440   69.8690   66.6170 C   0  0  0  0  0  0  0  0  0  0  0  0
    1.8230   68.1550   68.9420 C   0  0  0  0  0  0  0  0  0  0  0  0
    0.8080   67.1630   68.3170 C   0  0  1  0  0  0  0  0  0  0  0  0
    1.0070   67.3360   66.8080 C   0  0  0  0  0  0  0  0  0  0  0  0
    0.3520   66.8240   65.9140 O   0  0  0  0  0  0  0  0  0  0  0  0
    4.2840   69.1110   63.0450 C   0  0  0  0  0  0  0  0  0  0  0  0
    4.4930   69.8300   64.2530 O   0  0  0  0  0  0  0  0  0  0  0  0
    5.4400   70.6930   66.5300 O   0  0  0  0  0  0  0  0  0  0  0  0
    6.6090   70.3210   67.2450 C   0  0  0  0  0  0  0  0  0  0  0  0
    1.1310   65.8560   68.7780 O   0  0  0  0  0  0  0  0  0  0  0  0
    0.8510   65.5250   70.0720 C   0  0  0  0  0  0  0  0  0  0  0  0
    1.6070   64.4640   70.5750 C   0  0  0  0  0  0  0  0  0  0  0  0
    1.4020   63.9890   71.8730 C   0  0  0  0  0  0  0  0  0  0  0  0
    0.4320   64.5800   72.6940 C   0  0  0  0  0  0  0  0  0  0  0  0
   -0.3020   65.6660   72.1970 C   0  0  0  0  0  0  0  0  0  0  0  0
   -0.0920   66.1360   70.8960 C   0  0  0  0  0  0  0  0  0  0  0  0
    0.1370   64.0170   74.0560 C   0  0  0  0  0  0  0  0  0  0  0  0
    0.0070   62.5180   74.0340 N   0  0  0  0  0  4  0  0  0  0  0  0
   -0.3520   61.9010   75.3680 C   0  0  0  0  0  0  0  0  0  0  0  0
   -1.5440   61.0040   75.0810 C   0  0  0  0  0  0  0  0  0  0  0  0
   -1.4090   60.6650   73.6110 C   0  0  0  0  0  0  0  0  0  0  0  0
   -0.9690   61.9820   73.0080 C   0  0  0  0  0  0  0  0  0  0  0  0
    2.3028   68.1834   64.4036 H   0  0  0  0  0  0  0  0  0  0  0  0
    4.1305   69.8532   68.7863 H   0  0  0  0  0  0  0  0  0  0  0  0
    2.4639   67.6434   69.6752 H   0  0  0  0  0  0  0  0  0  0  0  0
    1.3253   68.9748   69.4808 H   0  0  0  0  0  0  0  0  0  0  0  0
   -0.2446   67.3356   68.5856 H   0  0  0  0  0  0  0  0  0  0  0  0
    3.9840   68.0790   63.2797 H   0  0  0  0  0  0  0  0  0  0  0  0
    3.4907   69.5994   62.4602 H   0  0  0  0  0  0  0  0  0  0  0  0
    5.2156   69.0980   62.4602 H   0  0  0  0  0  0  0  0  0  0  0  0
    6.4132   70.3833   68.3256 H   0  0  0  0  0  0  0  0  0  0  0  0
    6.8873   69.2899   66.9816 H   0  0  0  0  0  0  0  0  0  0  0  0
    7.4320   71.0016   66.9816 H   0  0  0  0  0  0  0  0  0  0  0  0
    2.3742   63.9959   69.9408 H   0  0  0  0  0  0  0  0  0  0  0  0
    2.0034   63.1492   72.2513 H   0  0  0  0  0  0  0  0  0  0  0  0
   -1.0516   66.1542   72.8371 H   0  0  0  0  0  0  0  0  0  0  0  0
   -0.6738   66.9914   70.5221 H   0  0  0  0  0  0  0  0  0  0  0  0
    0.9551   64.2919   74.7380 H   0  0  0  0  0  0  0  0  0  0  0  0
   -0.8227   64.4349   74.3942 H   0  0  0  0  0  0  0  0  0  0  0  0
    0.9624   62.2366   73.7714 H   0  0  0  0  0  0  0  0  0  0  0  0
    0.4898   61.3111   75.7597 H   0  0  0  0  0  0  0  0  0  0  0  0
   -0.5832   62.6638   76.1261 H   0  0  0  0  0  0  0  0  0  0  0  0
   -1.5040   60.0933   75.6966 H   0  0  0  0  0  0  0  0  0  0  0  0
   -2.5027   61.4899   75.3148 H   0  0  0  0  0  0  0  0  0  0  0  0
   -0.6523   59.8827   73.4517 H   0  0  0  0  0  0  0  0  0  0  0  0
   -2.3334   60.2673   73.1668 H   0  0  0  0  0  0  0  0  0  0  0  0
   -0.4762   61.8270   72.0369 H   0  0  0  0  0  0  0  0  0  0  0  0
   -1.8056   62.6672   72.8066 H   0  0  0  0  0  0  0  0  0  0  0  0
  2  1  2  0
  3  2  1  0
  4  3  2  0
  5  4  1  0
  6  5  2  0
  6  1  1  0
  7  4  1  0
  8  7  1  0
  9  8  1  0
  9  3  1  0
 10  9  2  0
 12 11  1  0
 12  1  1  0
 13  6  1  0
 14 13  1  0
 15  8  1  0
 16 15  1  0
 17 16  2  0
 18 17  1  0
 19 18  2  0
 20 19  1  0
 21 20  2  0
 21 16  1  0
 22 19  1  0
 23 22  1  0
 24 23  1  0
 25 24  1  0
 26 25  1  0
 27 26  1  0
 27 23  1  0
  2 28  1  0
  5 29  1  0
  7 30  1  0
  7 31  1  0
  8 32  1  6
 11 33  1  0
 11 34  1  0
 11 35  1  0
 14 36  1  0
 14 37  1  0
 14 38  1  0
 17 39  1  0
 18 40  1  0
 20 41  1  0
 21 42  1  0
 22 43  1  0
 22 44  1  0
 23 45  1  0
 24 46  1  0
 24 47  1  0
 25 48  1  0
 25 49  1  0
 26 50  1  0
 26 51  1  0
 27 52  1  0
 27 53  1  0
M  CHG  1  23   1
M  END
>  <score>  (5) 
-7.445

$$$$
=
     RDKit          3D

 53 56  0  0  0  0  0  0  0  0999 V2000
    3.0670   59.7960   72.0580 C   0  0  0  0  0  0  0  0  0  0  0  0
    3.2150   60.8720   71.1790 C   0  0  0  0  0  0  0  0  0  0  0  0
    2.5490   62.0460   71.4840 C   0  0  0  0  0  0  0  0  0  0  0  0
    1.7540   62.1970   72.6090 C   0  0  0  0  0  0  0  0  0  0  0  0
    1.6000   61.1380   73.4930 C   0  0  0  0  0  0  0  0  0  0  0  0
    2.2550   59.9270   73.2190 C   0  0  0  0  0  0  0  0  0  0  0  0
    1.1800   63.5750   72.7280 C   0  0  0  0  0  0  0  0  0  0  0  0
    1.5790   64.2840   71.4080 C   0  0  1  0  0  0  0  0  0  0  0  0
    2.5300   63.2920   70.7310 C   0  0  0  0  0  0  0  0  0  0  0  0
    3.1720   63.4670   69.7070 O   0  0  0  0  0  0  0  0  0  0  0  0
    3.3740   57.8600   70.6860 C   0  0  0  0  0  0  0  0  0  0  0  0
    3.6630   58.5710   71.8820 O   0  0  0  0  0  0  0  0  0  0  0  0
    2.1750   58.8110   74.0150 O   0  0  0  0  0  0  0  0  0  0  0  0
    0.9470   58.0980   74.0380 C   0  0  0  0  0  0  0  0  0  0  0  0
    0.3910   64.5180   70.6590 O   0  0  0  0  0  0  0  0  0  0  0  0
    0.3370   65.6000   69.8300 C   0  0  0  0  0  0  0  0  0  0  0  0
    1.4690   66.4170   69.8710 C   0  0  0  0  0  0  0  0  0  0  0  0
    1.5400   67.5830   69.1040 C   0  0  0  0  0  0  0  0  0  0  0  0
    0.4710   67.9460   68.2730 C   0  0  0  0  0  0  0  0  0  0  0  0
   -0.6490   67.1060   68.2100 C   0  0  0  0  0  0  0  0  0  0  0  0
   -0.7140   65.9410   68.9810 C   0  0  0  0  0  0  0  0  0  0  0  0
    0.4960   69.2450   67.5180 C   0  0  0  0  0  0  0  0  0  0  0  0
    1.1450   69.1030   66.1670 N   0  0  0  0  0  4  0  0  0  0  0  0
    2.6570   69.0740   66.1980 C   0  0  0  0  0  0  0  0  0  0  0  0
    3.0450   67.8420   65.3990 C   0  0  0  0  0  0  0  0  0  0  0  0
    1.8690   67.6140   64.4710 C   0  0  0  0  0  0  0  0  0  0  0  0
    0.6830   67.9040   65.3660 C   0  0  0  0  0  0  0  0  0  0  0  0
    3.8387   60.7888   70.2767 H   0  0  0  0  0  0  0  0  0  0  0  0
    0.9758   61.2458   74.3923 H   0  0  0  0  0  0  0  0  0  0  0  0
    0.0855   63.5317   72.8294 H   0  0  0  0  0  0  0  0  0  0  0  0
    1.5549   64.1064   73.6152 H   0  0  0  0  0  0  0  0  0  0  0  0
    2.0685   65.2616   71.5293 H   0  0  0  0  0  0  0  0  0  0  0  0
    2.9708   56.8680   70.9375 H   0  0  0  0  0  0  0  0  0  0  0  0
    2.6317   58.4190   70.0974 H   0  0  0  0  0  0  0  0  0  0  0  0
    4.2958   57.7426   70.0974 H   0  0  0  0  0  0  0  0  0  0  0  0
    0.6445   57.9223   75.0809 H   0  0  0  0  0  0  0  0  0  0  0  0
    0.1717   58.6864   73.5255 H   0  0  0  0  0  0  0  0  0  0  0  0
    1.0737   57.1330   73.5255 H   0  0  0  0  0  0  0  0  0  0  0  0
    2.3159   66.1390   70.5156 H   0  0  0  0  0  0  0  0  0  0  0  0
    2.4371   68.2177   69.1525 H   0  0  0  0  0  0  0  0  0  0  0  0
   -1.4868   67.3660   67.5463 H   0  0  0  0  0  0  0  0  0  0  0  0
   -1.5990   65.2908   68.9169 H   0  0  0  0  0  0  0  0  0  0  0  0
   -0.5377   69.5948   67.3798 H   0  0  0  0  0  0  0  0  0  0  0  0
    1.0865   69.9653   68.1032 H   0  0  0  0  0  0  0  0  0  0  0  0
    0.8284   69.9645   65.6996 H   0  0  0  0  0  0  0  0  0  0  0  0
    3.0704   69.9815   65.7337 H   0  0  0  0  0  0  0  0  0  0  0  0
    3.0478   69.0390   67.2256 H   0  0  0  0  0  0  0  0  0  0  0  0
    3.9654   68.0236   64.8247 H   0  0  0  0  0  0  0  0  0  0  0  0
    3.2502   66.9720   66.0400 H   0  0  0  0  0  0  0  0  0  0  0  0
    1.8988   68.3040   63.6149 H   0  0  0  0  0  0  0  0  0  0  0  0
    1.8485   66.6069   64.0291 H   0  0  0  0  0  0  0  0  0  0  0  0
   -0.2106   68.1461   64.7719 H   0  0  0  0  0  0  0  0  0  0  0  0
    0.3949   67.0482   65.9942 H   0  0  0  0  0  0  0  0  0  0  0  0
  2  1  2  0
  3  2  1  0
  4  3  2  0
  5  4  1  0
  6  5  2  0
  6  1  1  0
  7  4  1  0
  8  7  1  0
  9  8  1  0
  9  3  1  0
 10  9  2  0
 12 11  1  0
 12  1  1  0
 13  6  1  0
 14 13  1  0
 15  8  1  0
 16 15  1  0
 17 16  2  0
 18 17  1  0
 19 18  2  0
 20 19  1  0
 21 20  2  0
 21 16  1  0
 22 19  1  0
 23 22  1  0
 24 23  1  0
 25 24  1  0
 26 25  1  0
 27 26  1  0
 27 23  1  0
  2 28  1  0
  5 29  1  0
  7 30  1  0
  7 31  1  0
  8 32  1  1
 11 33  1  0
 11 34  1  0
 11 35  1  0
 14 36  1  0
 14 37  1  0
 14 38  1  0
 17 39  1  0
 18 40  1  0
 20 41  1  0
 21 42  1  0
 22 43  1  0
 22 44  1  0
 23 45  1  0
 24 46  1  0
 24 47  1  0
 25 48  1  0
 25 49  1  0
 26 50  1  0
 26 51  1  0
 27 52  1  0
 27 53  1  0
M  CHG  1  23   1
M  END
>  <score>  (6) 
-7.413

$$$$
=
     RDKit          3D

 53 56  0  0  0  0  0  0  0  0999 V2000
    2.4330   62.3980   70.2900 C   0  0  0  0  0  0  0  0  0  0  0  0
    1.5050   63.3530   70.7130 C   0  0  0  0  0  0  0  0  0  0  0  0
    1.2830   63.4760   72.0730 C   0  0  0  0  0  0  0  0  0  0  0  0
    1.9350   62.7030   73.0200 C   0  0  0  0  0  0  0  0  0  0  0  0
    2.8620   61.7520   72.6170 C   0  0  0  0  0  0  0  0  0  0  0  0
    3.1130   61.5920   71.2450 C   0  0  0  0  0  0  0  0  0  0  0  0
    1.5460   63.0590   74.4210 C   0  0  0  0  0  0  0  0  0  0  0  0
    0.3960   64.0870   74.2620 C   0  0  1  0  0  0  0  0  0  0  0  0
    0.3680   64.3770   72.7590 C   0  0  0  0  0  0  0  0  0  0  0  0
   -0.3180   65.2050   72.1800 O   0  0  0  0  0  0  0  0  0  0  0  0
    3.7510   62.9760   68.3800 C   0  0  0  0  0  0  0  0  0  0  0  0
    2.7510   62.1620   68.9750 O   0  0  0  0  0  0  0  0  0  0  0  0
    4.0030   60.6830   70.7260 O   0  0  0  0  0  0  0  0  0  0  0  0
    5.3700   60.8080   71.0910 C   0  0  0  0  0  0  0  0  0  0  0  0
   -0.8010   63.4820   74.7380 O   0  0  0  0  0  0  0  0  0  0  0  0
   -0.9270   62.1250   74.6690 C   0  0  0  0  0  0  0  0  0  0  0  0
   -0.5710   61.4510   75.8390 C   0  0  0  0  0  0  0  0  0  0  0  0
   -0.6100   60.0550   75.9030 C   0  0  0  0  0  0  0  0  0  0  0  0
   -1.0160   59.3100   74.7880 C   0  0  0  0  0  0  0  0  0  0  0  0
   -1.4040   59.9920   73.6260 C   0  0  0  0  0  0  0  0  0  0  0  0
   -1.3610   61.3890   73.5690 C   0  0  0  0  0  0  0  0  0  0  0  0
   -0.9720   57.8080   74.8140 C   0  0  0  0  0  0  0  0  0  0  0  0
    0.4230   57.2780   74.6190 N   0  0  0  0  0  4  0  0  0  0  0  0
    1.1410   57.8350   73.4080 C   0  0  0  0  0  0  0  0  0  0  0  0
    2.4790   58.3250   73.9330 C   0  0  0  0  0  0  0  0  0  0  0  0
    2.7160   57.4980   75.1800 C   0  0  0  0  0  0  0  0  0  0  0  0
    1.3400   57.4530   75.8110 C   0  0  0  0  0  0  0  0  0  0  0  0
    0.9694   63.9853   69.9896 H   0  0  0  0  0  0  0  0  0  0  0  0
    3.3903   61.1350   73.3588 H   0  0  0  0  0  0  0  0  0  0  0  0
    1.1977   62.1686   74.9649 H   0  0  0  0  0  0  0  0  0  0  0  0
    2.3906   63.4656   74.9965 H   0  0  0  0  0  0  0  0  0  0  0  0
    0.5185   65.0218   74.8287 H   0  0  0  0  0  0  0  0  0  0  0  0
    4.3462   63.4605   69.1680 H   0  0  0  0  0  0  0  0  0  0  0  0
    4.4077   62.3525   67.7555 H   0  0  0  0  0  0  0  0  0  0  0  0
    3.2737   63.7456   67.7555 H   0  0  0  0  0  0  0  0  0  0  0  0
    5.4575   60.8160   72.1875 H   0  0  0  0  0  0  0  0  0  0  0  0
    5.9374   59.9580   70.6841 H   0  0  0  0  0  0  0  0  0  0  0  0
    5.7738   61.7468   70.6841 H   0  0  0  0  0  0  0  0  0  0  0  0
   -0.2557   62.0261   76.7221 H   0  0  0  0  0  0  0  0  0  0  0  0
   -0.3212   59.5401   76.8312 H   0  0  0  0  0  0  0  0  0  0  0  0
   -1.7460   59.4222   72.7495 H   0  0  0  0  0  0  0  0  0  0  0  0
   -1.6715   61.9090   72.6507 H   0  0  0  0  0  0  0  0  0  0  0  0
   -1.3512   57.4590   75.7858 H   0  0  0  0  0  0  0  0  0  0  0  0
   -1.5937   57.4370   73.9858 H   0  0  0  0  0  0  0  0  0  0  0  0
    0.2393   56.2743   74.4785 H   0  0  0  0  0  0  0  0  0  0  0  0
    1.2870   57.0506   72.6508 H   0  0  0  0  0  0  0  0  0  0  0  0
    0.5686   58.6395   72.9230 H   0  0  0  0  0  0  0  0  0  0  0  0
    3.2749   58.1523   73.1936 H   0  0  0  0  0  0  0  0  0  0  0  0
    2.4802   59.4057   74.1383 H   0  0  0  0  0  0  0  0  0  0  0  0
    3.0697   56.4880   74.9257 H   0  0  0  0  0  0  0  0  0  0  0  0
    3.4884   57.9157   75.8425 H   0  0  0  0  0  0  0  0  0  0  0  0
    1.2514   56.6047   76.5056 H   0  0  0  0  0  0  0  0  0  0  0  0
    1.1080   58.3472   76.4082 H   0  0  0  0  0  0  0  0  0  0  0  0
  2  1  2  0
  3  2  1  0
  4  3  2  0
  5  4  1  0
  6  5  2  0
  6  1  1  0
  7  4  1  0
  8  7  1  0
  9  8  1  0
  9  3  1  0
 10  9  2  0
 12 11  1  0
 12  1  1  0
 13  6  1  0
 14 13  1  0
 15  8  1  0
 16 15  1  0
 17 16  2  0
 18 17  1  0
 19 18  2  0
 20 19  1  0
 21 20  2  0
 21 16  1  0
 22 19  1  0
 23 22  1  0
 24 23  1  0
 25 24  1  0
 26 25  1  0
 27 26  1  0
 27 23  1  0
  2 28  1  0
  5 29  1  0
  7 30  1  0
  7 31  1  0
  8 32  1  1
 11 33  1  0
 11 34  1  0
 11 35  1  0
 14 36  1  0
 14 37  1  0
 14 38  1  0
 17 39  1  0
 18 40  1  0
 20 41  1  0
 21 42  1  0
 22 43  1  0
 22 44  1  0
 23 45  1  0
 24 46  1  0
 24 47  1  0
 25 48  1  0
 25 49  1  0
 26 50  1  0
 26 51  1  0
 27 52  1  0
 27 53  1  0
M  CHG  1  23   1
M  END
>  <score>  (7) 
-7.316

$$$$
=
     RDKit          3D

 53 56  0  0  0  0  0  0  0  0999 V2000
    1.2450   64.2620   70.6950 C   0  0  0  0  0  0  0  0  0  0  0  0
    0.5560   64.2620   71.9110 C   0  0  0  0  0  0  0  0  0  0  0  0
    0.9050   63.3050   72.8470 C   0  0  0  0  0  0  0  0  0  0  0  0
    1.8960   62.3600   72.6320 C   0  0  0  0  0  0  0  0  0  0  0  0
    2.5920   62.3490   71.4310 C   0  0  0  0  0  0  0  0  0  0  0  0
    2.2660   63.3010   70.4520 C   0  0  0  0  0  0  0  0  0  0  0  0
    2.1050   61.4660   73.8150 C   0  0  0  0  0  0  0  0  0  0  0  0
    0.9750   61.8510   74.8050 C   0  0  1  0  0  0  0  0  0  0  0  0
    0.3350   63.0880   74.1690 C   0  0  0  0  0  0  0  0  0  0  0  0
   -0.5380   63.7960   74.6470 O   0  0  0  0  0  0  0  0  0  0  0  0
    0.9860   66.5330   69.9890 C   0  0  0  0  0  0  0  0  0  0  0  0
    1.0050   65.1480   69.6740 O   0  0  0  0  0  0  0  0  0  0  0  0
    2.8800   63.3860   69.2270 O   0  0  0  0  0  0  0  0  0  0  0  0
    3.6560   62.2780   68.7940 C   0  0  0  0  0  0  0  0  0  0  0  0
    0.0830   60.7470   74.9030 O   0  0  0  0  0  0  0  0  0  0  0  0
    0.5870   59.4820   74.8140 C   0  0  0  0  0  0  0  0  0  0  0  0
    0.2070   58.7880   73.6630 C   0  0  0  0  0  0  0  0  0  0  0  0
    0.6150   57.4680   73.4550 C   0  0  0  0  0  0  0  0  0  0  0  0
    1.4210   56.8210   74.4020 C   0  0  0  0  0  0  0  0  0  0  0  0
    1.8270   57.5320   75.5390 C   0  0  0  0  0  0  0  0  0  0  0  0
    1.4140   58.8540   75.7420 C   0  0  0  0  0  0  0  0  0  0  0  0
    1.7870   55.3730   74.2340 C   0  0  0  0  0  0  0  0  0  0  0  0
    0.8070   54.4580   74.9180 N   0  0  0  0  0  4  0  0  0  0  0  0
    0.0280   53.5620   73.9800 C   0  0  0  0  0  0  0  0  0  0  0  0
    0.1930   52.1610   74.5450 C   0  0  0  0  0  0  0  0  0  0  0  0
    0.4790   52.3830   76.0150 C   0  0  0  0  0  0  0  0  0  0  0  0
    1.4080   53.5780   75.9940 C   0  0  0  0  0  0  0  0  0  0  0  0
   -0.2360   64.9972   72.1166 H   0  0  0  0  0  0  0  0  0  0  0  0
    3.3844   61.6079   71.2497 H   0  0  0  0  0  0  0  0  0  0  0  0
    2.0205   60.4091   73.5221 H   0  0  0  0  0  0  0  0  0  0  0  0
    3.1048   61.5883   74.2572 H   0  0  0  0  0  0  0  0  0  0  0  0
    1.3043   62.0762   75.8301 H   0  0  0  0  0  0  0  0  0  0  0  0
    0.9843   66.6605   71.0816 H   0  0  0  0  0  0  0  0  0  0  0  0
    1.8776   67.0178   69.5647 H   0  0  0  0  0  0  0  0  0  0  0  0
    0.0815   66.9932   69.5647 H   0  0  0  0  0  0  0  0  0  0  0  0
    4.0377   61.7330   69.6699 H   0  0  0  0  0  0  0  0  0  0  0  0
    3.0300   61.6062   68.1884 H   0  0  0  0  0  0  0  0  0  0  0  0
    4.5013   62.6367   68.1884 H   0  0  0  0  0  0  0  0  0  0  0  0
   -0.4215   59.2870   72.9107 H   0  0  0  0  0  0  0  0  0  0  0  0
    0.3027   56.9347   72.5450 H   0  0  0  0  0  0  0  0  0  0  0  0
    2.4778   57.0457   76.2807 H   0  0  0  0  0  0  0  0  0  0  0  0
    1.7441   59.3993   76.6385 H   0  0  0  0  0  0  0  0  0  0  0  0
    1.8054   55.1341   73.1604 H   0  0  0  0  0  0  0  0  0  0  0  0
    2.7737   55.2175   74.6946 H   0  0  0  0  0  0  0  0  0  0  0  0
    0.1670   55.1367   75.3548 H   0  0  0  0  0  0  0  0  0  0  0  0
   -1.0336   53.8495   73.9637 H   0  0  0  0  0  0  0  0  0  0  0  0
    0.3904   53.6345   72.9439 H   0  0  0  0  0  0  0  0  0  0  0  0
   -0.7287   51.5756   74.4112 H   0  0  0  0  0  0  0  0  0  0  0  0
    0.9913   51.5957   74.0418 H   0  0  0  0  0  0  0  0  0  0  0  0
   -0.4441   52.6074   76.5696 H   0  0  0  0  0  0  0  0  0  0  0  0
    0.9097   51.5028   76.5147 H   0  0  0  0  0  0  0  0  0  0  0  0
    1.4139   54.0913   76.9669 H   0  0  0  0  0  0  0  0  0  0  0  0
    2.4564   53.3086   75.7981 H   0  0  0  0  0  0  0  0  0  0  0  0
  2  1  2  0
  3  2  1  0
  4  3  2  0
  5  4  1  0
  6  5  2  0
  6  1  1  0
  7  4  1  0
  8  7  1  0
  9  8  1  0
  9  3  1  0
 10  9  2  0
 12 11  1  0
 12  1  1  0
 13  6  1  0
 14 13  1  0
 15  8  1  0
 16 15  1  0
 17 16  2  0
 18 17  1  0
 19 18  2  0
 20 19  1  0
 21 20  2  0
 21 16  1  0
 22 19  1  0
 23 22  1  0
 24 23  1  0
 25 24  1  0
 26 25  1  0
 27 26  1  0
 27 23  1  0
  2 28  1  0
  5 29  1  0
  7 30  1  0
  7 31  1  0
  8 32  1  1
 11 33  1  0
 11 34  1  0
 11 35  1  0
 14 36  1  0
 14 37  1  0
 14 38  1  0
 17 39  1  0
 18 40  1  0
 20 41  1  0
 21 42  1  0
 22 43  1  0
 22 44  1  0
 23 45  1  0
 24 46  1  0
 24 47  1  0
 25 48  1  0
 25 49  1  0
 26 50  1  0
 26 51  1  0
 27 52  1  0
 27 53  1  0
M  CHG  1  23   1
M  END
>  <score>  (8) 
-7.166

$$$$
=
     RDKit          3D

 53 56  0  0  0  0  0  0  0  0999 V2000
    2.5400   63.2740   71.0100 C   0  0  0  0  0  0  0  0  0  0  0  0
    2.4840   62.0470   71.6760 C   0  0  0  0  0  0  0  0  0  0  0  0
    1.2520   61.6260   72.1440 C   0  0  0  0  0  0  0  0  0  0  0  0
    0.0880   62.3590   71.9810 C   0  0  0  0  0  0  0  0  0  0  0  0
    0.1260   63.5780   71.3190 C   0  0  0  0  0  0  0  0  0  0  0  0
    1.3570   64.0450   70.8320 C   0  0  0  0  0  0  0  0  0  0  0  0
   -1.1130   61.6640   72.5430 C   0  0  0  0  0  0  0  0  0  0  0  0
   -0.5450   60.4150   73.2650 C   0  0  1  0  0  0  0  0  0  0  0  0
    0.9360   60.4060   72.8730 C   0  0  0  0  0  0  0  0  0  0  0  0
    1.7620   59.5450   73.1320 O   0  0  0  0  0  0  0  0  0  0  0  0
    4.8940   63.0760   70.6290 C   0  0  0  0  0  0  0  0  0  0  0  0
    3.6910   63.8210   70.4970 O   0  0  0  0  0  0  0  0  0  0  0  0
    1.5200   65.2350   70.1660 O   0  0  0  0  0  0  0  0  0  0  0  0
    0.4100   66.1180   70.1010 C   0  0  0  0  0  0  0  0  0  0  0  0
   -0.7520   60.5850   74.6630 O   0  0  0  0  0  0  0  0  0  0  0  0
   -1.9960   60.3610   75.1770 C   0  0  0  0  0  0  0  0  0  0  0  0
   -2.5100   59.0900   74.9160 C   0  0  0  0  0  0  0  0  0  0  0  0
   -3.7900   58.7310   75.3450 C   0  0  0  0  0  0  0  0  0  0  0  0
   -4.5780   59.6480   76.0550 C   0  0  0  0  0  0  0  0  0  0  0  0
   -4.0460   60.9120   76.3430 C   0  0  0  0  0  0  0  0  0  0  0  0
   -2.7640   61.2650   75.9090 C   0  0  0  0  0  0  0  0  0  0  0  0
   -5.9910   59.3060   76.4390 C   0  0  0  0  0  0  0  0  0  0  0  0
   -6.9880   59.7900   75.4210 N   0  0  0  0  0  4  0  0  0  0  0  0
   -7.5350   61.1750   75.6880 C   0  0  0  0  0  0  0  0  0  0  0  0
   -7.3470   61.9330   74.3850 C   0  0  0  0  0  0  0  0  0  0  0  0
   -7.3150   60.8510   73.3260 C   0  0  0  0  0  0  0  0  0  0  0  0
   -6.4940   59.7650   73.9890 C   0  0  0  0  0  0  0  0  0  0  0  0
    3.3876   61.4372   71.8230 H   0  0  0  0  0  0  0  0  0  0  0  0
   -0.7919   64.1677   71.1784 H   0  0  0  0  0  0  0  0  0  0  0  0
   -1.6409   62.3163   73.2543 H   0  0  0  0  0  0  0  0  0  0  0  0
   -1.8418   61.3977   71.7633 H   0  0  0  0  0  0  0  0  0  0  0  0
   -1.0179   59.4595   72.9941 H   0  0  0  0  0  0  0  0  0  0  0  0
    5.1225   62.9345   71.6957 H   0  0  0  0  0  0  0  0  0  0  0  0
    4.7725   62.0948   70.1468 H   0  0  0  0  0  0  0  0  0  0  0  0
    5.7182   63.6220   70.1468 H   0  0  0  0  0  0  0  0  0  0  0  0
    0.0862   66.3756   71.1202 H   0  0  0  0  0  0  0  0  0  0  0  0
    0.7011   67.0341   69.5662 H   0  0  0  0  0  0  0  0  0  0  0  0
   -0.4172   65.6284   69.5662 H   0  0  0  0  0  0  0  0  0  0  0  0
   -1.8985   58.3606   74.3646 H   0  0  0  0  0  0  0  0  0  0  0  0
   -4.1807   57.7265   75.1253 H   0  0  0  0  0  0  0  0  0  0  0  0
   -4.6437   61.6352   76.9172 H   0  0  0  0  0  0  0  0  0  0  0  0
   -2.3602   62.2603   76.1464 H   0  0  0  0  0  0  0  0  0  0  0  0
   -6.0791   58.2133   76.5299 H   0  0  0  0  0  0  0  0  0  0  0  0
   -6.2126   59.8055   77.3937 H   0  0  0  0  0  0  0  0  0  0  0  0
   -7.7413   59.0964   75.5318 H   0  0  0  0  0  0  0  0  0  0  0  0
   -8.6009   61.1243   75.9549 H   0  0  0  0  0  0  0  0  0  0  0  0
   -7.0217   61.6659   76.5280 H   0  0  0  0  0  0  0  0  0  0  0  0
   -8.1851   62.6239   74.2114 H   0  0  0  0  0  0  0  0  0  0  0  0
   -6.4361   62.5497   74.3844 H   0  0  0  0  0  0  0  0  0  0  0  0
   -8.3289   60.4949   73.0912 H   0  0  0  0  0  0  0  0  0  0  0  0
   -6.8985   61.1902   72.3660 H   0  0  0  0  0  0  0  0  0  0  0  0
   -6.6826   58.7867   73.5228 H   0  0  0  0  0  0  0  0  0  0  0  0
   -5.4096   59.9274   73.9018 H   0  0  0  0  0  0  0  0  0  0  0  0
  2  1  2  0
  3  2  1  0
  4  3  2  0
  5  4  1  0
  6  5  2  0
  6  1  1  0
  7  4  1  0
  8  7  1  0
  9  8  1  0
  9  3  1  0
 10  9  2  0
 12 11  1  0
 12  1  1  0
 13  6  1  0
 14 13  1  0
 15  8  1  0
 16 15  1  0
 17 16  2  0
 18 17  1  0
 19 18  2  0
 20 19  1  0
 21 20  2  0
 21 16  1  0
 22 19  1  0
 23 22  1  0
 24 23  1  0
 25 24  1  0
 26 25  1  0
 27 26  1  0
 27 23  1  0
  2 28  1  0
  5 29  1  0
  7 30  1  0
  7 31  1  0
  8 32  1  6
 11 33  1  0
 11 34  1  0
 11 35  1  0
 14 36  1  0
 14 37  1  0
 14 38  1  0
 17 39  1  0
 18 40  1  0
 20 41  1  0
 21 42  1  0
 22 43  1  0
 22 44  1  0
 23 45  1  0
 24 46  1  0
 24 47  1  0
 25 48  1  0
 25 49  1  0
 26 50  1  0
 26 51  1  0
 27 52  1  0
 27 53  1  0
M  CHG  1  23   1
M  END
>  <score>  (9) 
-6.904

$$$$
