=
     RDKit          3D

 35 37  0  0  0  0  0  0  0  0999 V2000
    1.6050   68.4730   66.4170 C   0  0  0  0  0  0  0  0  0  0  0  0
    0.5370   68.3280   65.5640 C   0  0  0  0  0  0  0  0  0  0  0  0
   -0.6090   67.8670   65.8740 O   0  0  0  0  0  1  0  0  0  0  0  0
    0.7240   68.7330   64.1080 C   0  0  0  0  0  0  0  0  0  0  0  0
   -0.3780   69.1030   63.3100 C   0  0  0  0  0  0  0  0  0  0  0  0
   -0.2380   69.4060   61.9490 C   0  0  0  0  0  0  0  0  0  0  0  0
    1.0140   69.3470   61.3450 C   0  0  0  0  0  0  0  0  0  0  0  0
    2.1220   68.9880   62.1060 C   0  0  0  0  0  0  0  0  0  0  0  0
    1.9550   68.6760   63.4640 C   0  0  0  0  0  0  0  0  0  0  0  0
    3.3510   68.3800   64.4660 S   0  0  0  0  0  6  0  0  0  0  0  0
    4.4280   69.2050   63.9400 O   0  0  0  0  0  0  0  0  0  0  0  0
    3.5490   66.9540   64.6210 O   0  0  0  0  0  0  0  0  0  0  0  0
    2.8280   69.0810   65.9090 N   0  0  0  0  0  0  0  0  0  0  0  0
    3.9120   69.4790   66.8150 C   0  0  0  0  0  0  0  0  0  0  0  0
    1.8440   68.8610   68.8010 O   0  0  0  0  0  0  0  0  0  0  0  0
    1.5530   68.0600   67.9100 C   0  0  0  0  0  0  0  0  0  0  0  0
    1.1510   66.7700   68.1470 N   0  0  0  0  0  0  0  0  0  0  0  0
    0.9730   66.0970   69.3540 C   0  0  0  0  0  0  0  0  0  0  0  0
   -0.0290   66.4090   70.2670 C   0  0  0  0  0  0  0  0  0  0  0  0
   -0.1290   65.6750   71.4500 C   0  0  0  0  0  0  0  0  0  0  0  0
    0.7700   64.6490   71.6940 C   0  0  0  0  0  0  0  0  0  0  0  0
    1.7340   64.3990   70.7360 C   0  0  0  0  0  0  0  0  0  0  0  0
    1.8490   65.0930   69.5850 N   0  0  0  0  0  0  0  0  0  0  0  0
   -1.3763   69.1553   63.7690 H   0  0  0  0  0  0  0  0  0  0  0  0
   -1.1200   69.6912   61.3568 H   0  0  0  0  0  0  0  0  0  0  0  0
    1.1267   69.5819   60.2763 H   0  0  0  0  0  0  0  0  0  0  0  0
    3.1209   68.9490   61.6469 H   0  0  0  0  0  0  0  0  0  0  0  0
    3.5819   69.3578   67.8573 H   0  0  0  0  0  0  0  0  0  0  0  0
    4.7928   68.8456   66.6334 H   0  0  0  0  0  0  0  0  0  0  0  0
    4.1737   70.5319   66.6334 H   0  0  0  0  0  0  0  0  0  0  0  0
    0.9500   66.2138   67.3037 H   0  0  0  0  0  0  0  0  0  0  0  0
   -0.7355   67.2260   70.0588 H   0  0  0  0  0  0  0  0  0  0  0  0
   -0.9152   65.9091   72.1828 H   0  0  0  0  0  0  0  0  0  0  0  0
    0.7180   64.0544   72.6180 H   0  0  0  0  0  0  0  0  0  0  0  0
    2.4504   63.5855   70.9232 H   0  0  0  0  0  0  0  0  0  0  0  0
  2  1  2  0
  3  2  1  0
  4  2  1  0
  5  4  2  0
  6  5  1  0
  7  6  2  0
  8  7  1  0
  9  8  2  0
  9  4  1  0
 10  9  1  0
 11 10  2  0
 12 10  2  0
 13 10  1  0
 13  1  1  0
 14 13  1  0
 16 15  2  0
 16  1  1  0
 17 16  1  0
 18 17  1  0
 19 18  2  0
 20 19  1  0
 21 20  2  0
 22 21  1  0
 23 22  2  0
 23 18  1  0
  5 24  1  0
  6 25  1  0
  7 26  1  0
  8 27  1  0
 14 28  1  0
 14 29  1  0
 14 30  1  0
 17 31  1  0
 19 32  1  0
 20 33  1  0
 21 34  1  0
 22 35  1  0
M  CHG  1   3  -1
M  END
>  <score>  (1) 
-8.95

$$$$
=
     RDKit          3D

 35 37  0  0  0  0  0  0  0  0999 V2000
    2.6780   68.5710   66.0670 C   0  0  0  0  0  0  0  0  0  0  0  0
    2.9620   69.5270   67.0130 C   0  0  0  0  0  0  0  0  0  0  0  0
    2.1060   70.1980   67.6750 O   0  0  0  0  0  1  0  0  0  0  0  0
    4.4240   69.8410   67.2970 C   0  0  0  0  0  0  0  0  0  0  0  0
    4.8230   70.3850   68.5350 C   0  0  0  0  0  0  0  0  0  0  0  0
    6.1510   70.7510   68.7900 C   0  0  0  0  0  0  0  0  0  0  0  0
    7.1220   70.5840   67.8080 C   0  0  0  0  0  0  0  0  0  0  0  0
    6.7610   70.0480   66.5760 C   0  0  0  0  0  0  0  0  0  0  0  0
    5.4230   69.7000   66.3390 C   0  0  0  0  0  0  0  0  0  0  0  0
    4.9840   68.8820   64.8640 S   0  0  0  0  0  6  0  0  0  0  0  0
    6.1240   68.0610   64.4840 O   0  0  0  0  0  0  0  0  0  0  0  0
    4.4390   69.8350   63.9180 O   0  0  0  0  0  0  0  0  0  0  0  0
    3.7830   67.8510   65.4480 N   0  0  0  0  0  0  0  0  0  0  0  0
    3.5460   66.6660   64.6140 C   0  0  0  0  0  0  0  0  0  0  0  0
    0.9990   67.6330   64.5860 O   0  0  0  0  0  0  0  0  0  0  0  0
    1.2310   68.1900   65.6610 C   0  0  0  0  0  0  0  0  0  0  0  0
    0.2630   68.5040   66.5810 N   0  0  0  0  0  0  0  0  0  0  0  0
   -1.1110   68.2810   66.5420 C   0  0  0  0  0  0  0  0  0  0  0  0
   -1.7550   67.3200   67.3150 C   0  0  0  0  0  0  0  0  0  0  0  0
   -3.1380   67.1720   67.2100 C   0  0  0  0  0  0  0  0  0  0  0  0
   -3.8470   67.9850   66.3390 C   0  0  0  0  0  0  0  0  0  0  0  0
   -3.1350   68.9170   65.6090 C   0  0  0  0  0  0  0  0  0  0  0  0
   -1.7990   69.0800   65.6950 N   0  0  0  0  0  0  0  0  0  0  0  0
    4.0694   70.5262   69.3238 H   0  0  0  0  0  0  0  0  0  0  0  0
    6.4264   71.1712   69.7686 H   0  0  0  0  0  0  0  0  0  0  0  0
    8.1652   70.8730   68.0037 H   0  0  0  0  0  0  0  0  0  0  0  0
    7.5193   69.8982   65.7934 H   0  0  0  0  0  0  0  0  0  0  0  0
    3.3713   65.7925   65.2593 H   0  0  0  0  0  0  0  0  0  0  0  0
    2.6639   66.8350   63.9790 H   0  0  0  0  0  0  0  0  0  0  0  0
    4.4253   66.4828   63.9790 H   0  0  0  0  0  0  0  0  0  0  0  0
    0.6046   68.9767   67.4300 H   0  0  0  0  0  0  0  0  0  0  0  0
   -1.1790   66.6830   68.0024 H   0  0  0  0  0  0  0  0  0  0  0  0
   -3.6620   66.4162   67.8135 H   0  0  0  0  0  0  0  0  0  0  0  0
   -4.9379   67.8912   66.2330 H   0  0  0  0  0  0  0  0  0  0  0  0
   -3.6912   69.5652   64.9159 H   0  0  0  0  0  0  0  0  0  0  0  0
  2  1  2  0
  3  2  1  0
  4  2  1  0
  5  4  2  0
  6  5  1  0
  7  6  2  0
  8  7  1  0
  9  8  2  0
  9  4  1  0
 10  9  1  0
 11 10  2  0
 12 10  2  0
 13 10  1  0
 13  1  1  0
 14 13  1  0
 16 15  2  0
 16  1  1  0
 17 16  1  0
 18 17  1  0
 19 18  2  0
 20 19  1  0
 21 20  2  0
 22 21  1  0
 23 22  2  0
 23 18  1  0
  5 24  1  0
  6 25  1  0
  7 26  1  0
  8 27  1  0
 14 28  1  0
 14 29  1  0
 14 30  1  0
 17 31  1  0
 19 32  1  0
 20 33  1  0
 21 34  1  0
 22 35  1  0
M  CHG  1   3  -1
M  END
>  <score>  (2) 
-8.676

$$$$
=
     RDKit          3D

 35 37  0  0  0  0  0  0  0  0999 V2000
    1.2310   63.0580   71.1390 C   0  0  0  0  0  0  0  0  0  0  0  0
    0.2990   62.9100   72.1380 C   0  0  0  0  0  0  0  0  0  0  0  0
   -0.3890   63.8450   72.6610 O   0  0  0  0  0  1  0  0  0  0  0  0
    0.0650   61.5140   72.6970 C   0  0  0  0  0  0  0  0  0  0  0  0
   -1.1580   61.1730   73.3130 C   0  0  0  0  0  0  0  0  0  0  0  0
   -1.3670   59.9180   73.9000 C   0  0  0  0  0  0  0  0  0  0  0  0
   -0.3540   58.9650   73.8900 C   0  0  0  0  0  0  0  0  0  0  0  0
    0.8630   59.2690   73.2880 C   0  0  0  0  0  0  0  0  0  0  0  0
    1.0540   60.5360   72.7170 C   0  0  0  0  0  0  0  0  0  0  0  0
    2.5110   60.8770   71.8230 S   0  0  0  0  0  6  0  0  0  0  0  0
    2.9240   59.6270   71.2020 O   0  0  0  0  0  0  0  0  0  0  0  0
    3.4420   61.6050   72.6600 O   0  0  0  0  0  0  0  0  0  0  0  0
    1.8830   61.8670   70.6090 N   0  0  0  0  0  0  0  0  0  0  0  0
    2.7030   61.9270   69.3930 C   0  0  0  0  0  0  0  0  0  0  0  0
    2.7300   64.8880   70.5940 O   0  0  0  0  0  0  0  0  0  0  0  0
    1.5870   64.4320   70.5150 C   0  0  0  0  0  0  0  0  0  0  0  0
    0.5550   65.0690   69.8740 N   0  0  0  0  0  0  0  0  0  0  0  0
    0.5410   66.2860   69.1960 C   0  0  0  0  0  0  0  0  0  0  0  0
    1.5170   67.2640   69.3530 C   0  0  0  0  0  0  0  0  0  0  0  0
    1.4180   68.4510   68.6270 C   0  0  0  0  0  0  0  0  0  0  0  0
    0.3510   68.6350   67.7620 C   0  0  0  0  0  0  0  0  0  0  0  0
   -0.5750   67.6150   67.6600 C   0  0  0  0  0  0  0  0  0  0  0  0
   -0.5000   66.4580   68.3500 N   0  0  0  0  0  0  0  0  0  0  0  0
   -1.9708   61.9139   73.3329 H   0  0  0  0  0  0  0  0  0  0  0  0
   -2.3342   59.6860   74.3697 H   0  0  0  0  0  0  0  0  0  0  0  0
   -0.5135   57.9803   74.3536 H   0  0  0  0  0  0  0  0  0  0  0  0
    1.6694   58.5214   73.2600 H   0  0  0  0  0  0  0  0  0  0  0  0
    3.7647   62.0047   69.6702 H   0  0  0  0  0  0  0  0  0  0  0  0
    2.5450   61.0149   68.7988 H   0  0  0  0  0  0  0  0  0  0  0  0
    2.4139   62.8064   68.7988 H   0  0  0  0  0  0  0  0  0  0  0  0
   -0.3468   64.5719   69.8975 H   0  0  0  0  0  0  0  0  0  0  0  0
    2.3587   67.1032   70.0428 H   0  0  0  0  0  0  0  0  0  0  0  0
    2.1811   69.2351   68.7402 H   0  0  0  0  0  0  0  0  0  0  0  0
    0.2452   69.5607   67.1772 H   0  0  0  0  0  0  0  0  0  0  0  0
   -1.4244   67.7544   66.9752 H   0  0  0  0  0  0  0  0  0  0  0  0
  2  1  2  0
  3  2  1  0
  4  2  1  0
  5  4  2  0
  6  5  1  0
  7  6  2  0
  8  7  1  0
  9  8  2  0
  9  4  1  0
 10  9  1  0
 11 10  2  0
 12 10  2  0
 13 10  1  0
 13  1  1  0
 14 13  1  0
 16 15  2  0
 16  1  1  0
 17 16  1  0
 18 17  1  0
 19 18  2  0
 20 19  1  0
 21 20  2  0
 22 21  1  0
 23 22  2  0
 23 18  1  0
  5 24  1  0
  6 25  1  0
  7 26  1  0
  8 27  1  0
 14 28  1  0
 14 29  1  0
 14 30  1  0
 17 31  1  0
 19 32  1  0
 20 33  1  0
 21 34  1  0
 22 35  1  0
M  CHG  1   3  -1
M  END
>  <score>  (3) 
-8.613

$$$$
=
     RDKit          3D

 35 37  0  0  0  0  0  0  0  0999 V2000
    1.7740   59.7720   72.5670 C   0  0  0  0  0  0  0  0  0  0  0  0
    2.8490   59.8670   71.7150 C   0  0  0  0  0  0  0  0  0  0  0  0
    3.7870   59.0140   71.5990 O   0  0  0  0  0  1  0  0  0  0  0  0
    2.9550   61.1040   70.8330 C   0  0  0  0  0  0  0  0  0  0  0  0
    3.6770   61.0730   69.6220 C   0  0  0  0  0  0  0  0  0  0  0  0
    3.8510   62.2180   68.8340 C   0  0  0  0  0  0  0  0  0  0  0  0
    3.3070   63.4330   69.2370 C   0  0  0  0  0  0  0  0  0  0  0  0
    2.5860   63.4960   70.4260 C   0  0  0  0  0  0  0  0  0  0  0  0
    2.4360   62.3390   71.2060 C   0  0  0  0  0  0  0  0  0  0  0  0
    1.4060   62.3660   72.6120 S   0  0  0  0  0  6  0  0  0  0  0  0
    0.3350   63.3100   72.3300 O   0  0  0  0  0  0  0  0  0  0  0  0
    2.2100   62.5270   73.8050 O   0  0  0  0  0  0  0  0  0  0  0  0
    0.7540   60.8110   72.5240 N   0  0  0  0  0  0  0  0  0  0  0  0
   -0.5240   60.6520   73.2290 C   0  0  0  0  0  0  0  0  0  0  0  0
    1.7210   58.7260   74.7570 O   0  0  0  0  0  0  0  0  0  0  0  0
    1.5740   58.5830   73.5410 C   0  0  0  0  0  0  0  0  0  0  0  0
    1.2150   57.3970   72.9520 N   0  0  0  0  0  0  0  0  0  0  0  0
    0.9370   56.1610   73.5300 C   0  0  0  0  0  0  0  0  0  0  0  0
   -0.3500   55.7220   73.8210 C   0  0  0  0  0  0  0  0  0  0  0  0
   -0.5290   54.4640   74.3980 C   0  0  0  0  0  0  0  0  0  0  0  0
    0.5770   53.6740   74.6700 C   0  0  0  0  0  0  0  0  0  0  0  0
    1.8210   54.1810   74.3490 C   0  0  0  0  0  0  0  0  0  0  0  0
    2.0190   55.3920   73.7880 N   0  0  0  0  0  0  0  0  0  0  0  0
    4.1163   60.1220   69.2864 H   0  0  0  0  0  0  0  0  0  0  0  0
    4.4193   62.1561   67.8942 H   0  0  0  0  0  0  0  0  0  0  0  0
    3.4451   64.3348   68.6224 H   0  0  0  0  0  0  0  0  0  0  0  0
    2.1370   64.4458   70.7519 H   0  0  0  0  0  0  0  0  0  0  0  0
   -0.3490   60.6738   74.3148 H   0  0  0  0  0  0  0  0  0  0  0  0
   -1.2011   61.4728   72.9502 H   0  0  0  0  0  0  0  0  0  0  0  0
   -0.9794   59.6903   72.9502 H   0  0  0  0  0  0  0  0  0  0  0  0
    1.1396   57.4252   71.9252 H   0  0  0  0  0  0  0  0  0  0  0  0
   -1.2182   56.3599   73.5986 H   0  0  0  0  0  0  0  0  0  0  0  0
   -1.5403   54.1020   74.6352 H   0  0  0  0  0  0  0  0  0  0  0  0
    0.4678   52.6786   75.1253 H   0  0  0  0  0  0  0  0  0  0  0  0
    2.7033   53.5602   74.5636 H   0  0  0  0  0  0  0  0  0  0  0  0
  2  1  2  0
  3  2  1  0
  4  2  1  0
  5  4  2  0
  6  5  1  0
  7  6  2  0
  8  7  1  0
  9  8  2  0
  9  4  1  0
 10  9  1  0
 11 10  2  0
 12 10  2  0
 13 10  1  0
 13  1  1  0
 14 13  1  0
 16 15  2  0
 16  1  1  0
 17 16  1  0
 18 17  1  0
 19 18  2  0
 20 19  1  0
 21 20  2  0
 22 21  1  0
 23 22  2  0
 23 18  1  0
  5 24  1  0
  6 25  1  0
  7 26  1  0
  8 27  1  0
 14 28  1  0
 14 29  1  0
 14 30  1  0
 17 31  1  0
 19 32  1  0
 20 33  1  0
 21 34  1  0
 22 35  1  0
M  CHG  1   3  -1
M  END
>  <score>  (4) 
-8.493

$$$$
=
     RDKit          3D

 35 37  0  0  0  0  0  0  0  0999 V2000
    1.6310   63.9140   70.7970 C   0  0  0  0  0  0  0  0  0  0  0  0
    2.7210   63.2580   70.2740 C   0  0  0  0  0  0  0  0  0  0  0  0
    3.1150   63.3150   69.0650 O   0  0  0  0  0  1  0  0  0  0  0  0
    3.5320   62.3660   71.2020 C   0  0  0  0  0  0  0  0  0  0  0  0
    4.8860   62.0780   70.9330 C   0  0  0  0  0  0  0  0  0  0  0  0
    5.6300   61.1990   71.7320 C   0  0  0  0  0  0  0  0  0  0  0  0
    5.0370   60.5800   72.8280 C   0  0  0  0  0  0  0  0  0  0  0  0
    3.7030   60.8450   73.1220 C   0  0  0  0  0  0  0  0  0  0  0  0
    2.9750   61.7190   72.3000 C   0  0  0  0  0  0  0  0  0  0  0  0
    1.3550   62.1850   72.7450 S   0  0  0  0  0  6  0  0  0  0  0  0
    1.3060   62.1950   74.2000 O   0  0  0  0  0  0  0  0  0  0  0  0
    0.3960   61.3960   72.0000 O   0  0  0  0  0  0  0  0  0  0  0  0
    1.3590   63.7890   72.2230 N   0  0  0  0  0  0  0  0  0  0  0  0
    0.3640   64.6420   72.8840 C   0  0  0  0  0  0  0  0  0  0  0  0
   -0.4780   64.5220   69.7610 O   0  0  0  0  0  0  0  0  0  0  0  0
    0.7040   64.8190   69.9460 C   0  0  0  0  0  0  0  0  0  0  0  0
    1.2920   65.9530   69.4450 N   0  0  0  0  0  0  0  0  0  0  0  0
    0.7450   66.9760   68.6750 C   0  0  0  0  0  0  0  0  0  0  0  0
    1.3870   68.1860   68.4380 C   0  0  0  0  0  0  0  0  0  0  0  0
    0.7590   69.1510   67.6490 C   0  0  0  0  0  0  0  0  0  0  0  0
   -0.4920   68.8880   67.1150 C   0  0  0  0  0  0  0  0  0  0  0  0
   -1.0630   67.6610   67.3950 C   0  0  0  0  0  0  0  0  0  0  0  0
   -0.4750   66.7120   68.1520 N   0  0  0  0  0  0  0  0  0  0  0  0
    5.3726   62.5573   70.0707 H   0  0  0  0  0  0  0  0  0  0  0  0
    6.6846   60.9982   71.4922 H   0  0  0  0  0  0  0  0  0  0  0  0
    5.6171   59.8878   73.4560 H   0  0  0  0  0  0  0  0  0  0  0  0
    3.2228   60.3731   73.9919 H   0  0  0  0  0  0  0  0  0  0  0  0
    0.4700   64.5511   73.9751 H   0  0  0  0  0  0  0  0  0  0  0  0
    0.5227   65.6889   72.5861 H   0  0  0  0  0  0  0  0  0  0  0  0
   -0.6464   64.3252   72.5861 H   0  0  0  0  0  0  0  0  0  0  0  0
    2.2902   66.0645   69.6733 H   0  0  0  0  0  0  0  0  0  0  0  0
    2.3804   68.3811   68.8682 H   0  0  0  0  0  0  0  0  0  0  0  0
    1.2539   70.1136   67.4526 H   0  0  0  0  0  0  0  0  0  0  0  0
   -1.0122   69.6292   66.4905 H   0  0  0  0  0  0  0  0  0  0  0  0
   -2.0567   67.4454   66.9753 H   0  0  0  0  0  0  0  0  0  0  0  0
  2  1  2  0
  3  2  1  0
  4  2  1  0
  5  4  2  0
  6  5  1  0
  7  6  2  0
  8  7  1  0
  9  8  2  0
  9  4  1  0
 10  9  1  0
 11 10  2  0
 12 10  2  0
 13 10  1  0
 13  1  1  0
 14 13  1  0
 16 15  2  0
 16  1  1  0
 17 16  1  0
 18 17  1  0
 19 18  2  0
 20 19  1  0
 21 20  2  0
 22 21  1  0
 23 22  2  0
 23 18  1  0
  5 24  1  0
  6 25  1  0
  7 26  1  0
  8 27  1  0
 14 28  1  0
 14 29  1  0
 14 30  1  0
 17 31  1  0
 19 32  1  0
 20 33  1  0
 21 34  1  0
 22 35  1  0
M  CHG  1   3  -1
M  END
>  <score>  (5) 
-8.435

$$$$
=
     RDKit          3D

 35 37  0  0  0  0  0  0  0  0999 V2000
    0.5750   67.4770   67.2630 C   0  0  0  0  0  0  0  0  0  0  0  0
    1.4950   67.8290   66.3030 C   0  0  0  0  0  0  0  0  0  0  0  0
    2.7580   67.8520   66.4540 O   0  0  0  0  0  1  0  0  0  0  0  0
    0.9760   68.2490   64.9350 C   0  0  0  0  0  0  0  0  0  0  0  0
    1.7830   68.1330   63.7840 C   0  0  0  0  0  0  0  0  0  0  0  0
    1.3540   68.5840   62.5290 C   0  0  0  0  0  0  0  0  0  0  0  0
    0.0990   69.1680   62.3890 C   0  0  0  0  0  0  0  0  0  0  0  0
   -0.7230   69.2950   63.5050 C   0  0  0  0  0  0  0  0  0  0  0  0
   -0.2660   68.8480   64.7540 C   0  0  0  0  0  0  0  0  0  0  0  0
   -1.3410   68.8550   66.1260 S   0  0  0  0  0  6  0  0  0  0  0  0
   -2.6820   68.6190   65.6110 O   0  0  0  0  0  0  0  0  0  0  0  0
   -1.0820   70.0200   66.9460 O   0  0  0  0  0  0  0  0  0  0  0  0
   -0.8350   67.4430   66.8990 N   0  0  0  0  0  0  0  0  0  0  0  0
   -1.8370   66.8530   67.7960 C   0  0  0  0  0  0  0  0  0  0  0  0
    1.5580   67.8580   69.4490 O   0  0  0  0  0  0  0  0  0  0  0  0
    0.9750   67.0690   68.7030 C   0  0  0  0  0  0  0  0  0  0  0  0
    0.6200   65.7950   69.0710 N   0  0  0  0  0  0  0  0  0  0  0  0
    0.8030   65.1310   70.2810 C   0  0  0  0  0  0  0  0  0  0  0  0
    0.0250   65.3660   71.4100 C   0  0  0  0  0  0  0  0  0  0  0  0
    0.2830   64.6480   72.5790 C   0  0  0  0  0  0  0  0  0  0  0  0
    1.3070   63.7140   72.5950 C   0  0  0  0  0  0  0  0  0  0  0  0
    2.0320   63.5370   71.4320 C   0  0  0  0  0  0  0  0  0  0  0  0
    1.8000   64.2170   70.2900 N   0  0  0  0  0  0  0  0  0  0  0  0
    2.7789   67.6747   63.8745 H   0  0  0  0  0  0  0  0  0  0  0  0
    2.0104   68.4762   61.6529 H   0  0  0  0  0  0  0  0  0  0  0  0
   -0.2403   69.5259   61.4058 H   0  0  0  0  0  0  0  0  0  0  0  0
   -1.7233   69.7424   63.4085 H   0  0  0  0  0  0  0  0  0  0  0  0
   -1.5413   67.0271   68.8411 H   0  0  0  0  0  0  0  0  0  0  0  0
   -2.8158   67.3189   67.6094 H   0  0  0  0  0  0  0  0  0  0  0  0
   -1.9044   65.7710   67.6094 H   0  0  0  0  0  0  0  0  0  0  0  0
    0.1455   65.2462   68.3399 H   0  0  0  0  0  0  0  0  0  0  0  0
   -0.7850   66.1098   71.3819 H   0  0  0  0  0  0  0  0  0  0  0  0
   -0.3220   64.8222   73.4810 H   0  0  0  0  0  0  0  0  0  0  0  0
    1.5345   63.1341   73.5016 H   0  0  0  0  0  0  0  0  0  0  0  0
    2.8466   62.7978   71.4376 H   0  0  0  0  0  0  0  0  0  0  0  0
  2  1  2  0
  3  2  1  0
  4  2  1  0
  5  4  2  0
  6  5  1  0
  7  6  2  0
  8  7  1  0
  9  8  2  0
  9  4  1  0
 10  9  1  0
 11 10  2  0
 12 10  2  0
 13 10  1  0
 13  1  1  0
 14 13  1  0
 16 15  2  0
 16  1  1  0
 17 16  1  0
 18 17  1  0
 19 18  2  0
 20 19  1  0
 21 20  2  0
 22 21  1  0
 23 22  2  0
 23 18  1  0
  5 24  1  0
  6 25  1  0
  7 26  1  0
  8 27  1  0
 14 28  1  0
 14 29  1  0
 14 30  1  0
 17 31  1  0
 19 32  1  0
 20 33  1  0
 21 34  1  0
 22 35  1  0
M  CHG  1   3  -1
M  END
>  <score>  (6) 
-8.329

$$$$
=
     RDKit          3D

 35 37  0  0  0  0  0  0  0  0999 V2000
    1.6840   60.3090   73.0860 C   0  0  0  0  0  0  0  0  0  0  0  0
    0.7270   61.1830   72.6250 C   0  0  0  0  0  0  0  0  0  0  0  0
   -0.5310   61.0600   72.7780 O   0  0  0  0  0  1  0  0  0  0  0  0
    1.1910   62.4050   71.8450 C   0  0  0  0  0  0  0  0  0  0  0  0
    0.3990   63.5700   71.7810 C   0  0  0  0  0  0  0  0  0  0  0  0
    0.7710   64.6770   71.0070 C   0  0  0  0  0  0  0  0  0  0  0  0
    1.9520   64.6500   70.2710 C   0  0  0  0  0  0  0  0  0  0  0  0
    2.7570   63.5160   70.3150 C   0  0  0  0  0  0  0  0  0  0  0  0
    2.3580   62.4150   71.0870 C   0  0  0  0  0  0  0  0  0  0  0  0
    3.4290   61.0530   71.2790 S   0  0  0  0  0  6  0  0  0  0  0  0
    4.7860   61.5770   71.2390 O   0  0  0  0  0  0  0  0  0  0  0  0
    3.0420   59.9930   70.3710 O   0  0  0  0  0  0  0  0  0  0  0  0
    3.0880   60.6380   72.8790 N   0  0  0  0  0  0  0  0  0  0  0  0
    4.1520   59.8780   73.5460 C   0  0  0  0  0  0  0  0  0  0  0  0
    1.0990   59.0350   75.0680 O   0  0  0  0  0  0  0  0  0  0  0  0
    1.3370   59.0110   73.8580 C   0  0  0  0  0  0  0  0  0  0  0  0
    1.3030   57.8690   73.0980 N   0  0  0  0  0  0  0  0  0  0  0  0
    1.0050   56.5590   73.4670 C   0  0  0  0  0  0  0  0  0  0  0  0
   -0.2920   56.0840   73.6300 C   0  0  0  0  0  0  0  0  0  0  0  0
   -0.4910   54.7530   73.9990 C   0  0  0  0  0  0  0  0  0  0  0  0
    0.6060   53.9280   74.1950 C   0  0  0  0  0  0  0  0  0  0  0  0
    1.8610   54.4750   74.0110 C   0  0  0  0  0  0  0  0  0  0  0  0
    2.0780   55.7570   73.6520 N   0  0  0  0  0  0  0  0  0  0  0  0
   -0.5382   63.6108   72.3555 H   0  0  0  0  0  0  0  0  0  0  0  0
    0.1283   65.5694   70.9809 H   0  0  0  0  0  0  0  0  0  0  0  0
    2.2460   65.5166   69.6606 H   0  0  0  0  0  0  0  0  0  0  0  0
    3.6994   63.4832   69.7485 H   0  0  0  0  0  0  0  0  0  0  0  0
    4.0343   59.9621   74.6364 H   0  0  0  0  0  0  0  0  0  0  0  0
    4.0875   58.8203   73.2507 H   0  0  0  0  0  0  0  0  0  0  0  0
    5.1316   60.2820   73.2507 H   0  0  0  0  0  0  0  0  0  0  0  0
    1.5329   58.0003   72.1026 H   0  0  0  0  0  0  0  0  0  0  0  0
   -1.1521   56.7507   73.4697 H   0  0  0  0  0  0  0  0  0  0  0  0
   -1.5101   54.3614   74.1333 H   0  0  0  0  0  0  0  0  0  0  0  0
    0.4813   52.8748   74.4868 H   0  0  0  0  0  0  0  0  0  0  0  0
    2.7357   53.8264   74.1665 H   0  0  0  0  0  0  0  0  0  0  0  0
  2  1  2  0
  3  2  1  0
  4  2  1  0
  5  4  2  0
  6  5  1  0
  7  6  2  0
  8  7  1  0
  9  8  2  0
  9  4  1  0
 10  9  1  0
 11 10  2  0
 12 10  2  0
 13 10  1  0
 13  1  1  0
 14 13  1  0
 16 15  2  0
 16  1  1  0
 17 16  1  0
 18 17  1  0
 19 18  2  0
 20 19  1  0
 21 20  2  0
 22 21  1  0
 23 22  2  0
 23 18  1  0
  5 24  1  0
  6 25  1  0
  7 26  1  0
  8 27  1  0
 14 28  1  0
 14 29  1  0
 14 30  1  0
 17 31  1  0
 19 32  1  0
 20 33  1  0
 21 34  1  0
 22 35  1  0
M  CHG  1   3  -1
M  END
>  <score>  (7) 
-8.259

$$$$
=
     RDKit          3D

 35 37  0  0  0  0  0  0  0  0999 V2000
    1.1740   64.2080   70.9000 C   0  0  0  0  0  0  0  0  0  0  0  0
    1.9060   63.1600   70.3960 C   0  0  0  0  0  0  0  0  0  0  0  0
    2.5310   63.1520   69.2860 O   0  0  0  0  0  1  0  0  0  0  0  0
    1.9750   61.8770   71.2120 C   0  0  0  0  0  0  0  0  0  0  0  0
    3.0520   60.9780   71.0640 C   0  0  0  0  0  0  0  0  0  0  0  0
    3.0970   59.7570   71.7490 C   0  0  0  0  0  0  0  0  0  0  0  0
    2.0600   59.3970   72.6050 C   0  0  0  0  0  0  0  0  0  0  0  0
    0.9840   60.2630   72.7740 C   0  0  0  0  0  0  0  0  0  0  0  0
    0.9550   61.4750   72.0680 C   0  0  0  0  0  0  0  0  0  0  0  0
   -0.3030   62.6380   72.3900 S   0  0  0  0  0  6  0  0  0  0  0  0
   -0.6550   62.4990   73.7950 O   0  0  0  0  0  0  0  0  0  0  0  0
   -1.3340   62.5370   71.3780 O   0  0  0  0  0  0  0  0  0  0  0  0
    0.5740   64.0700   72.2210 N   0  0  0  0  0  0  0  0  0  0  0  0
   -0.0130   65.2240   72.9140 C   0  0  0  0  0  0  0  0  0  0  0  0
    1.8080   66.4690   70.2830 O   0  0  0  0  0  0  0  0  0  0  0  0
    0.9960   65.5510   70.1470 C   0  0  0  0  0  0  0  0  0  0  0  0
   -0.1030   65.6220   69.3290 N   0  0  0  0  0  0  0  0  0  0  0  0
   -0.5370   66.6570   68.5040 C   0  0  0  0  0  0  0  0  0  0  0  0
   -1.8220   66.7330   67.9780 C   0  0  0  0  0  0  0  0  0  0  0  0
   -2.1650   67.8120   67.1630 C   0  0  0  0  0  0  0  0  0  0  0  0
   -1.2210   68.7900   66.8920 C   0  0  0  0  0  0  0  0  0  0  0  0
    0.0330   68.6440   67.4550 C   0  0  0  0  0  0  0  0  0  0  0  0
    0.3870   67.6120   68.2480 N   0  0  0  0  0  0  0  0  0  0  0  0
    3.8806   61.2436   70.3911 H   0  0  0  0  0  0  0  0  0  0  0  0
    3.9537   59.0811   71.6102 H   0  0  0  0  0  0  0  0  0  0  0  0
    2.0908   58.4377   73.1424 H   0  0  0  0  0  0  0  0  0  0  0  0
    0.1623   59.9993   73.4561 H   0  0  0  0  0  0  0  0  0  0  0  0
    0.0623   65.0759   74.0014 H   0  0  0  0  0  0  0  0  0  0  0  0
    0.5300   66.1375   72.6299 H   0  0  0  0  0  0  0  0  0  0  0  0
   -1.0710   65.3230   72.6299 H   0  0  0  0  0  0  0  0  0  0  0  0
   -0.6982   64.7814   69.3241 H   0  0  0  0  0  0  0  0  0  0  0  0
   -2.5610   65.9497   68.2024 H   0  0  0  0  0  0  0  0  0  0  0  0
   -3.1771   67.8861   66.7386 H   0  0  0  0  0  0  0  0  0  0  0  0
   -1.4611   69.6516   66.2517 H   0  0  0  0  0  0  0  0  0  0  0  0
    0.7876   69.4159   67.2436 H   0  0  0  0  0  0  0  0  0  0  0  0
  2  1  2  0
  3  2  1  0
  4  2  1  0
  5  4  2  0
  6  5  1  0
  7  6  2  0
  8  7  1  0
  9  8  2  0
  9  4  1  0
 10  9  1  0
 11 10  2  0
 12 10  2  0
 13 10  1  0
 13  1  1  0
 14 13  1  0
 16 15  2  0
 16  1  1  0
 17 16  1  0
 18 17  1  0
 19 18  2  0
 20 19  1  0
 21 20  2  0
 22 21  1  0
 23 22  2  0
 23 18  1  0
  5 24  1  0
  6 25  1  0
  7 26  1  0
  8 27  1  0
 14 28  1  0
 14 29  1  0
 14 30  1  0
 17 31  1  0
 19 32  1  0
 20 33  1  0
 21 34  1  0
 22 35  1  0
M  CHG  1   3  -1
M  END
>  <score>  (8) 
-7.706

$$$$
=
     RDKit          3D

 35 37  0  0  0  0  0  0  0  0999 V2000
    1.8890   59.7960   72.5370 C   0  0  0  0  0  0  0  0  0  0  0  0
    2.9400   59.9430   71.6630 C   0  0  0  0  0  0  0  0  0  0  0  0
    3.9180   59.1390   71.5310 O   0  0  0  0  0  1  0  0  0  0  0  0
    2.9650   61.1800   70.7760 C   0  0  0  0  0  0  0  0  0  0  0  0
    3.6640   61.1820   69.5510 C   0  0  0  0  0  0  0  0  0  0  0  0
    3.7630   62.3320   68.7560 C   0  0  0  0  0  0  0  0  0  0  0  0
    3.1650   63.5190   69.1670 C   0  0  0  0  0  0  0  0  0  0  0  0
    2.4660   63.5500   70.3700 C   0  0  0  0  0  0  0  0  0  0  0  0
    2.3910   62.3890   71.1550 C   0  0  0  0  0  0  0  0  0  0  0  0
    1.3890   62.3680   72.5820 S   0  0  0  0  0  6  0  0  0  0  0  0
    0.2660   63.2550   72.3190 O   0  0  0  0  0  0  0  0  0  0  0  0
    2.2080   62.5750   73.7590 O   0  0  0  0  0  0  0  0  0  0  0  0
    0.8170   60.7820   72.5120 N   0  0  0  0  0  0  0  0  0  0  0  0
   -0.4370   60.5590   73.2420 C   0  0  0  0  0  0  0  0  0  0  0  0
    1.3390   57.5110   73.1410 O   0  0  0  0  0  0  0  0  0  0  0  0
    1.7700   58.6030   73.5180 C   0  0  0  0  0  0  0  0  0  0  0  0
    2.1880   58.8540   74.8000 N   0  0  0  0  0  0  0  0  0  0  0  0
    2.2380   58.0080   75.9060 C   0  0  0  0  0  0  0  0  0  0  0  0
    1.1130   57.6080   76.6180 C   0  0  0  0  0  0  0  0  0  0  0  0
    1.2640   56.7540   77.7110 C   0  0  0  0  0  0  0  0  0  0  0  0
    2.5310   56.3190   78.0680 C   0  0  0  0  0  0  0  0  0  0  0  0
    3.5980   56.7600   77.3080 C   0  0  0  0  0  0  0  0  0  0  0  0
    3.4770   57.5830   76.2460 N   0  0  0  0  0  0  0  0  0  0  0  0
    4.1456   60.2538   69.2096 H   0  0  0  0  0  0  0  0  0  0  0  0
    4.3147   62.2960   67.8050 H   0  0  0  0  0  0  0  0  0  0  0  0
    3.2439   64.4243   68.5471 H   0  0  0  0  0  0  0  0  0  0  0  0
    1.9762   64.4770   70.7029 H   0  0  0  0  0  0  0  0  0  0  0  0
   -0.2425   60.5936   74.3241 H   0  0  0  0  0  0  0  0  0  0  0  0
   -1.1613   61.3424   72.9744 H   0  0  0  0  0  0  0  0  0  0  0  0
   -0.8468   59.5739   72.9744 H   0  0  0  0  0  0  0  0  0  0  0  0
    2.5152   59.8155   74.9715 H   0  0  0  0  0  0  0  0  0  0  0  0
    0.1140   57.9612   76.3227 H   0  0  0  0  0  0  0  0  0  0  0  0
    0.3842   56.4282   78.2853 H   0  0  0  0  0  0  0  0  0  0  0  0
    2.6818   55.6468   78.9256 H   0  0  0  0  0  0  0  0  0  0  0  0
    4.6064   56.4194   77.5858 H   0  0  0  0  0  0  0  0  0  0  0  0
  2  1  2  0
  3  2  1  0
  4  2  1  0
  5  4  2  0
  6  5  1  0
  7  6  2  0
  8  7  1  0
  9  8  2  0
  9  4  1  0
 10  9  1  0
 11 10  2  0
 12 10  2  0
 13 10  1  0
 13  1  1  0
 14 13  1  0
 16 15  2  0
 16  1  1  0
 17 16  1  0
 18 17  1  0
 19 18  2  0
 20 19  1  0
 21 20  2  0
 22 21  1  0
 23 22  2  0
 23 18  1  0
  5 24  1  0
  6 25  1  0
  7 26  1  0
  8 27  1  0
 14 28  1  0
 14 29  1  0
 14 30  1  0
 17 31  1  0
 19 32  1  0
 20 33  1  0
 21 34  1  0
 22 35  1  0
M  CHG  1   3  -1
M  END
>  <score>  (9) 
-7.274

$$$$
