=
     RDKit          3D

 66 69  0  0  0  0  0  0  0  0999 V2000
    0.1690   65.6500   70.5730 C   0  0  1  0  0  0  0  0  0  0  0  0
    1.1250   64.5260   71.0350 C   0  0  2  0  0  0  0  0  0  0  0  0
    2.4770   64.5620   70.3180 C   0  0  0  0  0  0  0  0  0  0  0  0
    3.4050   63.4620   70.8190 C   0  0  0  0  0  0  0  0  0  0  0  0
    2.7820   62.0640   70.6860 N   0  0  1  0  0  4  0  0  0  0  0  0
    1.4030   62.0260   71.3480 C   0  0  0  0  0  0  0  0  0  0  0  0
    0.4900   63.1390   70.8440 C   0  0  0  0  0  0  0  0  0  0  0  0
    2.6940   61.6470   69.2210 C   0  0  0  0  0  0  0  0  0  0  0  0
    3.7430   61.0850   71.4330 C   0  0  0  0  0  0  0  0  0  0  0  0
    3.2130   59.7040   71.7360 C   0  0  0  0  0  0  0  0  0  0  0  0
    2.5460   59.4410   72.9420 C   0  0  0  0  0  0  0  0  0  0  0  0
    2.0510   58.1650   73.2160 C   0  0  0  0  0  0  0  0  0  0  0  0
    2.2220   57.1370   72.2930 C   0  0  0  0  0  0  0  0  0  0  0  0
    2.8970   57.3780   71.0990 C   0  0  0  0  0  0  0  0  0  0  0  0
    3.3940   58.6530   70.8220 C   0  0  0  0  0  0  0  0  0  0  0  0
   -0.5610   66.1060   71.7130 O   0  0  0  0  0  0  0  0  0  0  0  0
    0.8300   66.8590   69.9050 C   0  0  0  0  0  0  0  0  0  0  0  0
    0.2060   67.1800   68.5560 C   0  0  0  0  0  0  0  0  0  0  0  0
   -0.8160   66.5850   68.2000 O   0  0  0  0  0  0  0  0  0  0  0  0
    4.6740   69.4320   64.8040 C   0  0  0  0  0  0  0  0  0  0  0  0
    3.5530   68.5960   64.7540 C   0  0  0  0  0  0  0  0  0  0  0  0
    2.7990   68.4170   65.9030 C   0  0  0  0  0  0  0  0  0  0  0  0
    1.3470   67.4180   66.0650 S   0  0  0  0  0  0  0  0  0  0  0  0
    0.9240   68.1850   67.6670 C   0  0  2  0  0  0  0  0  0  0  0  0
    2.2490   68.6900   68.2600 C   0  0  0  0  0  0  0  0  0  0  0  0
    3.1350   69.0490   67.0990 C   0  0  0  0  0  0  0  0  0  0  0  0
    4.2530   69.8730   67.1690 C   0  0  0  0  0  0  0  0  0  0  0  0
    5.0260   70.0740   66.0180 C   0  0  0  0  0  0  0  0  0  0  0  0
    5.4780   68.7710   62.6500 C   0  0  0  0  0  0  0  0  0  0  0  0
    5.4930   69.6910   63.7320 O   0  0  0  0  0  0  0  0  0  0  0  0
    6.1440   70.8720   65.9680 O   0  0  0  0  0  0  0  0  0  0  0  0
    6.7880   71.1900   67.1920 C   0  0  0  0  0  0  0  0  0  0  0  0
   -0.4656   65.2004   69.7951 H   0  0  0  0  0  0  0  0  0  0  0  0
    1.3028   64.7082   72.1051 H   0  0  0  0  0  0  0  0  0  0  0  0
    2.3128   64.4269   69.2387 H   0  0  0  0  0  0  0  0  0  0  0  0
    2.9508   65.5332   70.5238 H   0  0  0  0  0  0  0  0  0  0  0  0
    4.3357   63.4911   70.2333 H   0  0  0  0  0  0  0  0  0  0  0  0
    3.5948   63.6442   71.8871 H   0  0  0  0  0  0  0  0  0  0  0  0
    0.9323   61.0560   71.1301 H   0  0  0  0  0  0  0  0  0  0  0  0
    1.5440   62.1692   72.4295 H   0  0  0  0  0  0  0  0  0  0  0  0
    0.2935   62.9814   69.7732 H   0  0  0  0  0  0  0  0  0  0  0  0
   -0.4433   63.1063   71.4252 H   0  0  0  0  0  0  0  0  0  0  0  0
    2.4672   60.5724   69.1586 H   0  0  0  0  0  0  0  0  0  0  0  0
    1.8969   62.2194   68.7241 H   0  0  0  0  0  0  0  0  0  0  0  0
    3.6545   61.8485   68.7241 H   0  0  0  0  0  0  0  0  0  0  0  0
    4.6438   60.9663   70.8129 H   0  0  0  0  0  0  0  0  0  0  0  0
    3.9152   61.5475   72.4161 H   0  0  0  0  0  0  0  0  0  0  0  0
    2.4120   60.2474   73.6780 H   0  0  0  0  0  0  0  0  0  0  0  0
    1.5251   57.9715   74.1625 H   0  0  0  0  0  0  0  0  0  0  0  0
    1.8239   56.1341   72.5068 H   0  0  0  0  0  0  0  0  0  0  0  0
    3.0387   56.5633   70.3736 H   0  0  0  0  0  0  0  0  0  0  0  0
    3.9318   58.8359   69.8800 H   0  0  0  0  0  0  0  0  0  0  0  0
   -0.0979   65.8167   72.5388 H   0  0  0  0  0  0  0  0  0  0  0  0
    0.7191   67.7328   70.5639 H   0  0  0  0  0  0  0  0  0  0  0  0
    1.8899   66.6163   69.7385 H   0  0  0  0  0  0  0  0  0  0  0  0
    3.2748   68.0892   63.8182 H   0  0  0  0  0  0  0  0  0  0  0  0
    0.2260   69.0288   67.5631 H   0  0  0  0  0  0  0  0  0  0  0  0
    2.0700   69.5753   68.8878 H   0  0  0  0  0  0  0  0  0  0  0  0
    2.7177   67.9209   68.8915 H   0  0  0  0  0  0  0  0  0  0  0  0
    4.5270   70.3608   68.1161 H   0  0  0  0  0  0  0  0  0  0  0  0
    5.4612   67.7436   63.0425 H   0  0  0  0  0  0  0  0  0  0  0  0
    4.5825   68.9431   62.0347 H   0  0  0  0  0  0  0  0  0  0  0  0
    6.3786   68.9138   62.0347 H   0  0  0  0  0  0  0  0  0  0  0  0
    6.1524   70.8761   68.0331 H   0  0  0  0  0  0  0  0  0  0  0  0
    7.7531   70.6649   67.2458 H   0  0  0  0  0  0  0  0  0  0  0  0
    6.9577   72.2755   67.2458 H   0  0  0  0  0  0  0  0  0  0  0  0
  2  1  1  0
  3  2  1  0
  4  3  1  0
  5  4  1  0
  6  5  1  0
  7  6  1  0
  7  2  1  0
  5  8  1  6
  9  5  1  0
 10  9  1  0
 11 10  2  0
 12 11  1  0
 13 12  2  0
 14 13  1  0
 15 14  2  0
 15 10  1  0
 16  1  1  0
 17  1  1  0
 18 17  1  0
 19 18  2  0
 21 20  2  0
 22 21  1  0
 23 22  1  0
 24 23  1  0
 24 18  1  0
 25 24  1  0
 26 25  1  0
 26 22  2  0
 27 26  1  0
 28 20  1  0
 28 27  2  0
 30 20  1  0
 30 29  1  0
 31 28  1  0
 32 31  1  0
  1 33  1  6
  2 34  1  1
  3 35  1  0
  3 36  1  0
  4 37  1  0
  4 38  1  0
  6 39  1  0
  6 40  1  0
  7 41  1  0
  7 42  1  0
  8 43  1  0
  8 44  1  0
  8 45  1  0
  9 46  1  0
  9 47  1  0
 11 48  1  0
 12 49  1  0
 13 50  1  0
 14 51  1  0
 15 52  1  0
 16 53  1  0
 17 54  1  0
 17 55  1  0
 21 56  1  0
 24 57  1  6
 25 58  1  0
 25 59  1  0
 27 60  1  0
 29 61  1  0
 29 62  1  0
 29 63  1  0
 32 64  1  0
 32 65  1  0
 32 66  1  0
M  CHG  1   5   1
M  END
>  <score>  (1) 
-10.144

$$$$
=
     RDKit          3D

 66 69  0  0  0  0  0  0  0  0999 V2000
    0.2340   65.7190   70.4430 C   0  0  1  0  0  0  0  0  0  0  0  0
    1.1670   64.6010   70.9640 C   0  0  2  0  0  0  0  0  0  0  0  0
    2.5300   64.5900   70.2670 C   0  0  0  0  0  0  0  0  0  0  0  0
    3.4340   63.4980   70.8250 C   0  0  0  0  0  0  0  0  0  0  0  0
    2.7930   62.1040   70.7400 N   0  0  1  0  0  4  0  0  0  0  0  0
    1.4040   62.1130   71.3810 C   0  0  0  0  0  0  0  0  0  0  0  0
    0.5150   63.2170   70.8190 C   0  0  0  0  0  0  0  0  0  0  0  0
    2.7210   61.6300   69.2910 C   0  0  0  0  0  0  0  0  0  0  0  0
    3.7290   61.1430   71.5390 C   0  0  0  0  0  0  0  0  0  0  0  0
    3.2300   59.7380   71.7690 C   0  0  0  0  0  0  0  0  0  0  0  0
    2.4900   59.4170   72.9180 C   0  0  0  0  0  0  0  0  0  0  0  0
    2.0240   58.1180   73.1240 C   0  0  0  0  0  0  0  0  0  0  0  0
    2.2970   57.1220   72.1890 C   0  0  0  0  0  0  0  0  0  0  0  0
    3.0450   57.4200   71.0530 C   0  0  0  0  0  0  0  0  0  0  0  0
    3.5130   58.7190   70.8440 C   0  0  0  0  0  0  0  0  0  0  0  0
   -0.3520   66.3690   71.5730 O   0  0  0  0  0  0  0  0  0  0  0  0
    0.8910   66.7820   69.5590 C   0  0  0  0  0  0  0  0  0  0  0  0
   -0.0030   67.1960   68.4000 C   0  0  0  0  0  0  0  0  0  0  0  0
   -1.1800   66.8220   68.3740 O   0  0  0  0  0  0  0  0  0  0  0  0
    1.2980   68.9040   62.5270 C   0  0  0  0  0  0  0  0  0  0  0  0
    0.2890   69.0450   63.4850 C   0  0  0  0  0  0  0  0  0  0  0  0
    0.4760   68.4910   64.7420 C   0  0  0  0  0  0  0  0  0  0  0  0
   -0.6560   68.5550   66.1000 S   0  0  0  0  0  0  0  0  0  0  0  0
    0.6280   68.0040   67.2750 C   0  0  2  0  0  0  0  0  0  0  0  0
    1.6500   67.2080   66.4480 C   0  0  0  0  0  0  0  0  0  0  0  0
    1.6430   67.8010   65.0650 C   0  0  0  0  0  0  0  0  0  0  0  0
    2.6500   67.6400   64.1200 C   0  0  0  0  0  0  0  0  0  0  0  0
    2.4860   68.1980   62.8460 C   0  0  0  0  0  0  0  0  0  0  0  0
   -0.0160   69.9340   60.8130 C   0  0  0  0  0  0  0  0  0  0  0  0
    1.2300   69.4140   61.2520 O   0  0  0  0  0  0  0  0  0  0  0  0
    3.4160   68.1100   61.8380 O   0  0  0  0  0  0  0  0  0  0  0  0
    4.4940   67.2030   62.0070 C   0  0  0  0  0  0  0  0  0  0  0  0
   -0.4994   65.2167   69.7950 H   0  0  0  0  0  0  0  0  0  0  0  0
    1.3318   64.8231   72.0287 H   0  0  0  0  0  0  0  0  0  0  0  0
    2.3800   64.4148   69.1915 H   0  0  0  0  0  0  0  0  0  0  0  0
    3.0147   65.5619   70.4417 H   0  0  0  0  0  0  0  0  0  0  0  0
    4.3730   63.4902   70.2520 H   0  0  0  0  0  0  0  0  0  0  0  0
    3.6109   63.7207   71.8876 H   0  0  0  0  0  0  0  0  0  0  0  0
    0.9222   61.1417   71.1951 H   0  0  0  0  0  0  0  0  0  0  0  0
    1.5312   62.2985   72.4578 H   0  0  0  0  0  0  0  0  0  0  0  0
    0.3321   63.0191   69.7525 H   0  0  0  0  0  0  0  0  0  0  0  0
   -0.4272   63.2207   71.3866 H   0  0  0  0  0  0  0  0  0  0  0  0
    2.5558   60.5427   69.2687 H   0  0  0  0  0  0  0  0  0  0  0  0
    1.8897   62.1377   68.7800 H   0  0  0  0  0  0  0  0  0  0  0  0
    3.6656   61.8680   68.7800 H   0  0  0  0  0  0  0  0  0  0  0  0
    4.6794   61.0722   70.9896 H   0  0  0  0  0  0  0  0  0  0  0  0
    3.8064   61.5873   72.5423 H   0  0  0  0  0  0  0  0  0  0  0  0
    2.2754   60.1972   73.6632 H   0  0  0  0  0  0  0  0  0  0  0  0
    1.4405   57.8801   74.0256 H   0  0  0  0  0  0  0  0  0  0  0  0
    1.9217   56.1003   72.3481 H   0  0  0  0  0  0  0  0  0  0  0  0
    3.2675   56.6312   70.3193 H   0  0  0  0  0  0  0  0  0  0  0  0
    4.1084   58.9464   69.9474 H   0  0  0  0  0  0  0  0  0  0  0  0
    0.0068   65.9710   72.4054 H   0  0  0  0  0  0  0  0  0  0  0  0
    1.1088   67.6684   70.1729 H   0  0  0  0  0  0  0  0  0  0  0  0
    1.8116   66.3508   69.1389 H   0  0  0  0  0  0  0  0  0  0  0  0
   -0.6379   69.5866   63.2451 H   0  0  0  0  0  0  0  0  0  0  0  0
    1.1367   68.8431   67.7721 H   0  0  0  0  0  0  0  0  0  0  0  0
    2.6514   67.2983   66.8941 H   0  0  0  0  0  0  0  0  0  0  0  0
    1.3912   66.1392   66.4215 H   0  0  0  0  0  0  0  0  0  0  0  0
    3.5641   67.0814   64.3699 H   0  0  0  0  0  0  0  0  0  0  0  0
   -0.6337   70.1918   61.6859 H   0  0  0  0  0  0  0  0  0  0  0  0
    0.1561   70.8354   60.2065 H   0  0  0  0  0  0  0  0  0  0  0  0
   -0.5357   69.1777   60.2065 H   0  0  0  0  0  0  0  0  0  0  0  0
    4.6780   67.0481   63.0804 H   0  0  0  0  0  0  0  0  0  0  0  0
    4.2416   66.2416   61.5358 H   0  0  0  0  0  0  0  0  0  0  0  0
    5.3981   67.6161   61.5358 H   0  0  0  0  0  0  0  0  0  0  0  0
  2  1  1  0
  3  2  1  0
  4  3  1  0
  5  4  1  0
  6  5  1  0
  7  6  1  0
  7  2  1  0
  5  8  1  6
  9  5  1  0
 10  9  1  0
 11 10  2  0
 12 11  1  0
 13 12  2  0
 14 13  1  0
 15 14  2  0
 15 10  1  0
 16  1  1  0
 17  1  1  0
 18 17  1  0
 19 18  2  0
 21 20  2  0
 22 21  1  0
 23 22  1  0
 24 23  1  0
 24 18  1  0
 25 24  1  0
 26 25  1  0
 26 22  2  0
 27 26  1  0
 28 20  1  0
 28 27  2  0
 30 20  1  0
 30 29  1  0
 31 28  1  0
 32 31  1  0
  1 33  1  6
  2 34  1  1
  3 35  1  0
  3 36  1  0
  4 37  1  0
  4 38  1  0
  6 39  1  0
  6 40  1  0
  7 41  1  0
  7 42  1  0
  8 43  1  0
  8 44  1  0
  8 45  1  0
  9 46  1  0
  9 47  1  0
 11 48  1  0
 12 49  1  0
 13 50  1  0
 14 51  1  0
 15 52  1  0
 16 53  1  0
 17 54  1  0
 17 55  1  0
 21 56  1  0
 24 57  1  1
 25 58  1  0
 25 59  1  0
 27 60  1  0
 29 61  1  0
 29 62  1  0
 29 63  1  0
 32 64  1  0
 32 65  1  0
 32 66  1  0
M  CHG  1   5   1
M  END
>  <score>  (2) 
-9.915

$$$$
=
     RDKit          3D

 66 69  0  0  0  0  0  0  0  0999 V2000
   -0.1270   65.7610   70.8300 C   0  0  1  0  0  0  0  0  0  0  0  0
    0.5950   64.5110   71.3830 C   0  0  2  0  0  0  0  0  0  0  0  0
    0.2710   63.2380   70.5950 C   0  0  0  0  0  0  0  0  0  0  0  0
    1.0230   62.0330   71.1460 C   0  0  0  0  0  0  0  0  0  0  0  0
    0.7480   61.8030   72.6400 N   0  0  1  0  0  4  0  0  0  0  0  0
    1.0110   63.0840   73.4360 C   0  0  0  0  0  0  0  0  0  0  0  0
    0.2610   64.2830   72.8660 C   0  0  0  0  0  0  0  0  0  0  0  0
   -0.6800   61.3110   72.8590 C   0  0  0  0  0  0  0  0  0  0  0  0
    1.7430   60.6920   73.1020 C   0  0  0  0  0  0  0  0  0  0  0  0
    3.0960   60.6650   72.4360 C   0  0  0  0  0  0  0  0  0  0  0  0
    4.1500   61.4570   72.9180 C   0  0  0  0  0  0  0  0  0  0  0  0
    5.4020   61.4250   72.3050 C   0  0  0  0  0  0  0  0  0  0  0  0
    5.6170   60.6060   71.1980 C   0  0  0  0  0  0  0  0  0  0  0  0
    4.5780   59.8270   70.6970 C   0  0  0  0  0  0  0  0  0  0  0  0
    3.3230   59.8580   71.3090 C   0  0  0  0  0  0  0  0  0  0  0  0
   -0.6920   66.4700   71.9330 O   0  0  0  0  0  0  0  0  0  0  0  0
    0.7390   66.7310   70.0210 C   0  0  0  0  0  0  0  0  0  0  0  0
    0.0970   67.1020   68.6930 C   0  0  0  0  0  0  0  0  0  0  0  0
   -0.9330   66.5240   68.3320 O   0  0  0  0  0  0  0  0  0  0  0  0
    4.5330   69.4730   64.9780 C   0  0  0  0  0  0  0  0  0  0  0  0
    3.4140   68.6360   64.9110 C   0  0  0  0  0  0  0  0  0  0  0  0
    2.6680   68.4220   66.0600 C   0  0  0  0  0  0  0  0  0  0  0  0
    1.2200   67.4150   66.2030 S   0  0  0  0  0  0  0  0  0  0  0  0
    0.8070   68.1340   67.8300 C   0  0  2  0  0  0  0  0  0  0  0  0
    2.1350   68.6240   68.4280 C   0  0  0  0  0  0  0  0  0  0  0  0
    3.0110   69.0190   67.2710 C   0  0  0  0  0  0  0  0  0  0  0  0
    4.1290   69.8430   67.3580 C   0  0  0  0  0  0  0  0  0  0  0  0
    4.8930   70.0800   66.2080 C   0  0  0  0  0  0  0  0  0  0  0  0
    5.2800   68.9100   62.7760 C   0  0  0  0  0  0  0  0  0  0  0  0
    5.3440   69.7650   63.9080 O   0  0  0  0  0  0  0  0  0  0  0  0
    6.0080   70.8810   66.1740 O   0  0  0  0  0  0  0  0  0  0  0  0
    6.8040   70.9640   67.3470 C   0  0  0  0  0  0  0  0  0  0  0  0
   -0.8775   65.3823   70.1205 H   0  0  0  0  0  0  0  0  0  0  0  0
    1.6700   64.7159   71.2719 H   0  0  0  0  0  0  0  0  0  0  0  0
   -0.8099   63.0441   70.6581 H   0  0  0  0  0  0  0  0  0  0  0  0
    0.5815   63.3903   69.5508 H   0  0  0  0  0  0  0  0  0  0  0  0
    0.7124   61.1375   70.5878 H   0  0  0  0  0  0  0  0  0  0  0  0
    2.0993   62.2279   71.0296 H   0  0  0  0  0  0  0  0  0  0  0  0
    0.6888   62.9268   74.4759 H   0  0  0  0  0  0  0  0  0  0  0  0
    2.0877   63.3016   73.3779 H   0  0  0  0  0  0  0  0  0  0  0  0
   -0.8203   64.1067   72.9647 H   0  0  0  0  0  0  0  0  0  0  0  0
    0.5679   65.1776   73.4277 H   0  0  0  0  0  0  0  0  0  0  0  0
   -0.8824   61.2413   73.9380 H   0  0  0  0  0  0  0  0  0  0  0  0
   -1.3860   62.0177   72.3984 H   0  0  0  0  0  0  0  0  0  0  0  0
   -0.8009   60.3194   72.3984 H   0  0  0  0  0  0  0  0  0  0  0  0
    1.9072   60.8217   74.1819 H   0  0  0  0  0  0  0  0  0  0  0  0
    1.2649   59.7434   72.8165 H   0  0  0  0  0  0  0  0  0  0  0  0
    3.9866   62.1096   73.7883 H   0  0  0  0  0  0  0  0  0  0  0  0
    6.2210   62.0469   72.6956 H   0  0  0  0  0  0  0  0  0  0  0  0
    6.6074   60.5752   70.7204 H   0  0  0  0  0  0  0  0  0  0  0  0
    4.7455   59.1865   69.8185 H   0  0  0  0  0  0  0  0  0  0  0  0
    2.5044   59.2445   70.9045 H   0  0  0  0  0  0  0  0  0  0  0  0
   -0.3732   66.0700   72.7806 H   0  0  0  0  0  0  0  0  0  0  0  0
    0.8896   67.6476   70.6102 H   0  0  0  0  0  0  0  0  0  0  0  0
    1.6955   66.2320   69.8065 H   0  0  0  0  0  0  0  0  0  0  0  0
    3.1308   68.1558   63.9628 H   0  0  0  0  0  0  0  0  0  0  0  0
    0.1071   68.9794   67.7565 H   0  0  0  0  0  0  0  0  0  0  0  0
    1.9590   69.4900   69.0831 H   0  0  0  0  0  0  0  0  0  0  0  0
    2.6100   67.8379   69.0333 H   0  0  0  0  0  0  0  0  0  0  0  0
    4.4092   70.3023   68.3174 H   0  0  0  0  0  0  0  0  0  0  0  0
    5.2018   67.8648   63.1099 H   0  0  0  0  0  0  0  0  0  0  0  0
    4.3987   69.1685   62.1706 H   0  0  0  0  0  0  0  0  0  0  0  0
    6.1900   69.0344   62.1706 H   0  0  0  0  0  0  0  0  0  0  0  0
    6.1575   70.8966   68.2344 H   0  0  0  0  0  0  0  0  0  0  0  0
    7.5287   70.1366   67.3576 H   0  0  0  0  0  0  0  0  0  0  0  0
    7.3424   71.9232   67.3576 H   0  0  0  0  0  0  0  0  0  0  0  0
  2  1  1  0
  3  2  1  0
  4  3  1  0
  5  4  1  0
  6  5  1  0
  7  6  1  0
  7  2  1  0
  5  8  1  6
  9  5  1  0
 10  9  1  0
 11 10  2  0
 12 11  1  0
 13 12  2  0
 14 13  1  0
 15 14  2  0
 15 10  1  0
 16  1  1  0
 17  1  1  0
 18 17  1  0
 19 18  2  0
 21 20  2  0
 22 21  1  0
 23 22  1  0
 24 23  1  0
 24 18  1  0
 25 24  1  0
 26 25  1  0
 26 22  2  0
 27 26  1  0
 28 20  1  0
 28 27  2  0
 30 20  1  0
 30 29  1  0
 31 28  1  0
 32 31  1  0
  1 33  1  6
  2 34  1  1
  3 35  1  0
  3 36  1  0
  4 37  1  0
  4 38  1  0
  6 39  1  0
  6 40  1  0
  7 41  1  0
  7 42  1  0
  8 43  1  0
  8 44  1  0
  8 45  1  0
  9 46  1  0
  9 47  1  0
 11 48  1  0
 12 49  1  0
 13 50  1  0
 14 51  1  0
 15 52  1  0
 16 53  1  0
 17 54  1  0
 17 55  1  0
 21 56  1  0
 24 57  1  6
 25 58  1  0
 25 59  1  0
 27 60  1  0
 29 61  1  0
 29 62  1  0
 29 63  1  0
 32 64  1  0
 32 65  1  0
 32 66  1  0
M  CHG  1   5   1
M  END
>  <score>  (3) 
-9.484

$$$$
=
     RDKit          3D

 66 69  0  0  0  0  0  0  0  0999 V2000
   -0.4180   66.5000   69.4570 C   0  0  1  0  0  0  0  0  0  0  0  0
    0.0800   67.3970   68.3010 C   0  0  2  0  0  0  0  0  0  0  0  0
   -0.6530   67.1330   66.9830 C   0  0  0  0  0  0  0  0  0  0  0  0
   -0.1600   68.0540   65.8740 C   0  0  0  0  0  0  0  0  0  0  0  0
    1.3570   67.9510   65.6560 N   0  0  1  0  0  4  0  0  0  0  0  0
    2.1030   68.1560   66.9760 C   0  0  0  0  0  0  0  0  0  0  0  0
    1.5930   67.2340   68.0780 C   0  0  0  0  0  0  0  0  0  0  0  0
    1.7230   66.6100   65.0260 C   0  0  0  0  0  0  0  0  0  0  0  0
    1.7350   69.0960   64.6630 C   0  0  0  0  0  0  0  0  0  0  0  0
    3.1150   69.0460   64.0540 C   0  0  0  0  0  0  0  0  0  0  0  0
    3.2940   68.6780   62.7120 C   0  0  0  0  0  0  0  0  0  0  0  0
    4.5710   68.6400   62.1500 C   0  0  0  0  0  0  0  0  0  0  0  0
    5.6840   68.9620   62.9230 C   0  0  0  0  0  0  0  0  0  0  0  0
    5.5240   69.3120   64.2610 C   0  0  0  0  0  0  0  0  0  0  0  0
    4.2480   69.3510   64.8260 C   0  0  0  0  0  0  0  0  0  0  0  0
   -1.0550   65.3550   68.8860 O   0  0  0  0  0  0  0  0  0  0  0  0
    0.6520   66.0190   70.4410 C   0  0  0  0  0  0  0  0  0  0  0  0
    0.0450   65.3850   71.6830 C   0  0  0  0  0  0  0  0  0  0  0  0
   -0.5730   66.0900   72.4870 O   0  0  0  0  0  0  0  0  0  0  0  0
    3.1650   60.2360   73.3750 C   0  0  0  0  0  0  0  0  0  0  0  0
    2.4280   61.2790   73.9470 C   0  0  0  0  0  0  0  0  0  0  0  0
    1.8550   62.2290   73.1160 C   0  0  0  0  0  0  0  0  0  0  0  0
    0.8830   63.6190   73.6180 S   0  0  0  0  0  0  0  0  0  0  0  0
    0.2950   63.9020   71.9120 C   0  0  2  0  0  0  0  0  0  0  0  0
    1.3720   63.3120   70.9880 C   0  0  0  0  0  0  0  0  0  0  0  0
    2.0000   62.1650   71.7310 C   0  0  0  0  0  0  0  0  0  0  0  0
    2.7400   61.1420   71.1480 C   0  0  0  0  0  0  0  0  0  0  0  0
    3.3220   60.1670   71.9680 C   0  0  0  0  0  0  0  0  0  0  0  0
    2.9410   58.2470   74.6860 C   0  0  0  0  0  0  0  0  0  0  0  0
    3.7720   59.2350   74.0940 O   0  0  0  0  0  0  0  0  0  0  0  0
    4.0640   59.1090   71.5020 O   0  0  0  0  0  0  0  0  0  0  0  0
    3.4400   58.2010   70.6060 C   0  0  0  0  0  0  0  0  0  0  0  0
   -1.0958   67.1301   70.0516 H   0  0  0  0  0  0  0  0  0  0  0  0
   -0.1397   68.4293   68.6110 H   0  0  0  0  0  0  0  0  0  0  0  0
   -0.4823   66.0888   66.6823 H   0  0  0  0  0  0  0  0  0  0  0  0
   -1.7245   67.3259   67.1401 H   0  0  0  0  0  0  0  0  0  0  0  0
   -0.6703   67.7836   64.9378 H   0  0  0  0  0  0  0  0  0  0  0  0
   -0.3856   69.0883   66.1729 H   0  0  0  0  0  0  0  0  0  0  0  0
    3.1721   67.9549   66.8131 H   0  0  0  0  0  0  0  0  0  0  0  0
    1.9343   69.1935   67.3003 H   0  0  0  0  0  0  0  0  0  0  0  0
    1.8015   66.1915   67.7955 H   0  0  0  0  0  0  0  0  0  0  0  0
    2.1080   67.4995   69.0130 H   0  0  0  0  0  0  0  0  0  0  0  0
    1.9237   65.8748   65.8192 H   0  0  0  0  0  0  0  0  0  0  0  0
    0.8881   66.2578   64.4023 H   0  0  0  0  0  0  0  0  0  0  0  0
    2.6210   66.7308   64.4023 H   0  0  0  0  0  0  0  0  0  0  0  0
    1.0073   69.0740   63.8384 H   0  0  0  0  0  0  0  0  0  0  0  0
    1.7224   70.0148   65.2677 H   0  0  0  0  0  0  0  0  0  0  0  0
    2.4200   68.4171   62.0972 H   0  0  0  0  0  0  0  0  0  0  0  0
    4.6986   68.3554   61.0952 H   0  0  0  0  0  0  0  0  0  0  0  0
    6.6891   68.9398   62.4765 H   0  0  0  0  0  0  0  0  0  0  0  0
    6.4039   69.5581   64.8736 H   0  0  0  0  0  0  0  0  0  0  0  0
    4.1289   69.6230   65.8852 H   0  0  0  0  0  0  0  0  0  0  0  0
   -1.3834   64.7648   69.6098 H   0  0  0  0  0  0  0  0  0  0  0  0
    1.2876   65.2754   69.9380 H   0  0  0  0  0  0  0  0  0  0  0  0
    1.2368   66.8946   70.7595 H   0  0  0  0  0  0  0  0  0  0  0  0
    2.3054   61.3439   75.0382 H   0  0  0  0  0  0  0  0  0  0  0  0
   -0.6686   63.4125   71.7074 H   0  0  0  0  0  0  0  0  0  0  0  0
    0.9148   62.9534   70.0540 H   0  0  0  0  0  0  0  0  0  0  0  0
    2.1238   64.0701   70.7232 H   0  0  0  0  0  0  0  0  0  0  0  0
    2.8667   61.0991   70.0562 H   0  0  0  0  0  0  0  0  0  0  0  0
    3.0047   58.3228   75.7815 H   0  0  0  0  0  0  0  0  0  0  0  0
    1.9000   58.4046   74.3675 H   0  0  0  0  0  0  0  0  0  0  0  0
    3.2747   57.2484   74.3675 H   0  0  0  0  0  0  0  0  0  0  0  0
    2.9083   57.4273   71.1793 H   0  0  0  0  0  0  0  0  0  0  0  0
    2.7240   58.7449   69.9724 H   0  0  0  0  0  0  0  0  0  0  0  0
    4.2044   57.7275   69.9724 H   0  0  0  0  0  0  0  0  0  0  0  0
  2  1  1  0
  3  2  1  0
  4  3  1  0
  5  4  1  0
  6  5  1  0
  7  6  1  0
  7  2  1  0
  5  8  1  6
  9  5  1  0
 10  9  1  0
 11 10  2  0
 12 11  1  0
 13 12  2  0
 14 13  1  0
 15 14  2  0
 15 10  1  0
 16  1  1  0
 17  1  1  0
 18 17  1  0
 19 18  2  0
 21 20  2  0
 22 21  1  0
 23 22  1  0
 24 23  1  0
 24 18  1  0
 25 24  1  0
 26 25  1  0
 26 22  2  0
 27 26  1  0
 28 20  1  0
 28 27  2  0
 30 20  1  0
 30 29  1  0
 31 28  1  0
 32 31  1  0
  1 33  1  1
  2 34  1  1
  3 35  1  0
  3 36  1  0
  4 37  1  0
  4 38  1  0
  6 39  1  0
  6 40  1  0
  7 41  1  0
  7 42  1  0
  8 43  1  0
  8 44  1  0
  8 45  1  0
  9 46  1  0
  9 47  1  0
 11 48  1  0
 12 49  1  0
 13 50  1  0
 14 51  1  0
 15 52  1  0
 16 53  1  0
 17 54  1  0
 17 55  1  0
 21 56  1  0
 24 57  1  1
 25 58  1  0
 25 59  1  0
 27 60  1  0
 29 61  1  0
 29 62  1  0
 29 63  1  0
 32 64  1  0
 32 65  1  0
 32 66  1  0
M  CHG  1   5   1
M  END
>  <score>  (4) 
-8.769

$$$$
=
     RDKit          3D

 66 69  0  0  0  0  0  0  0  0999 V2000
    0.5280   65.8280   70.6610 C   0  0  1  0  0  0  0  0  0  0  0  0
    0.6690   66.3660   69.2180 C   0  0  2  0  0  0  0  0  0  0  0  0
    1.5040   67.6460   69.1390 C   0  0  0  0  0  0  0  0  0  0  0  0
    1.6490   68.1310   67.7020 C   0  0  0  0  0  0  0  0  0  0  0  0
    0.2920   68.3520   67.0170 N   0  0  1  0  0  4  0  0  0  0  0  0
   -0.5790   67.0990   67.1370 C   0  0  0  0  0  0  0  0  0  0  0  0
   -0.7060   66.6210   68.5790 C   0  0  0  0  0  0  0  0  0  0  0  0
   -0.4190   69.5680   67.6040 C   0  0  0  0  0  0  0  0  0  0  0  0
    0.6020   68.6260   65.5110 C   0  0  0  0  0  0  0  0  0  0  0  0
    1.9440   68.1700   64.9940 C   0  0  0  0  0  0  0  0  0  0  0  0
    2.9930   69.0860   64.8150 C   0  0  0  0  0  0  0  0  0  0  0  0
    4.2350   68.6600   64.3440 C   0  0  0  0  0  0  0  0  0  0  0  0
    4.4440   67.3170   64.0400 C   0  0  0  0  0  0  0  0  0  0  0  0
    3.4090   66.3990   64.1960 C   0  0  0  0  0  0  0  0  0  0  0  0
    2.1640   66.8220   64.6670 C   0  0  0  0  0  0  0  0  0  0  0  0
   -0.6340   66.4210   71.2430 O   0  0  0  0  0  0  0  0  0  0  0  0
    0.4190   64.3070   70.8010 C   0  0  0  0  0  0  0  0  0  0  0  0
    1.7330   63.6760   71.2330 C   0  0  0  0  0  0  0  0  0  0  0  0
    2.7870   64.0360   70.7000 O   0  0  0  0  0  0  0  0  0  0  0  0
    0.9470   57.8870   73.4660 C   0  0  0  0  0  0  0  0  0  0  0  0
    1.9090   58.6600   72.8060 C   0  0  0  0  0  0  0  0  0  0  0  0
    1.6310   59.9910   72.5400 C   0  0  0  0  0  0  0  0  0  0  0  0
    2.6970   61.1480   71.7290 S   0  0  0  0  0  0  0  0  0  0  0  0
    1.6740   62.5610   72.2680 C   0  0  2  0  0  0  0  0  0  0  0  0
    0.2590   62.0030   72.4880 C   0  0  0  0  0  0  0  0  0  0  0  0
    0.4200   60.5700   72.9140 C   0  0  0  0  0  0  0  0  0  0  0  0
   -0.5520   59.8130   73.5600 C   0  0  0  0  0  0  0  0  0  0  0  0
   -0.2900   58.4670   73.8450 C   0  0  0  0  0  0  0  0  0  0  0  0
    2.0510   56.2380   74.8030 C   0  0  0  0  0  0  0  0  0  0  0  0
    1.1100   56.5620   73.7890 O   0  0  0  0  0  0  0  0  0  0  0  0
   -1.1700   57.6280   74.4850 O   0  0  0  0  0  0  0  0  0  0  0  0
   -1.4890   57.9060   75.8400 C   0  0  0  0  0  0  0  0  0  0  0  0
    1.4631   66.0994   71.1728 H   0  0  0  0  0  0  0  0  0  0  0  0
    1.1973   65.5800   68.6584 H   0  0  0  0  0  0  0  0  0  0  0  0
    1.0124   68.4305   69.7330 H   0  0  0  0  0  0  0  0  0  0  0  0
    2.5078   67.4277   69.5323 H   0  0  0  0  0  0  0  0  0  0  0  0
    2.2021   69.0818   67.7045 H   0  0  0  0  0  0  0  0  0  0  0  0
    2.1854   67.3531   67.1388 H   0  0  0  0  0  0  0  0  0  0  0  0
   -1.5830   67.3273   66.7499 H   0  0  0  0  0  0  0  0  0  0  0  0
   -0.0986   66.2973   66.5569 H   0  0  0  0  0  0  0  0  0  0  0  0
   -1.2337   67.3889   69.1637 H   0  0  0  0  0  0  0  0  0  0  0  0
   -1.2640   65.6731   68.5776 H   0  0  0  0  0  0  0  0  0  0  0  0
   -0.3885   69.5158   68.7023 H   0  0  0  0  0  0  0  0  0  0  0  0
    0.0848   70.4857   67.2664 H   0  0  0  0  0  0  0  0  0  0  0  0
   -1.4659   69.5790   67.2664 H   0  0  0  0  0  0  0  0  0  0  0  0
   -0.1723   68.1203   64.9155 H   0  0  0  0  0  0  0  0  0  0  0  0
    0.6171   69.7219   65.4172 H   0  0  0  0  0  0  0  0  0  0  0  0
    2.8340   70.1492   65.0483 H   0  0  0  0  0  0  0  0  0  0  0  0
    5.0508   69.3861   64.2125 H   0  0  0  0  0  0  0  0  0  0  0  0
    5.4266   66.9817   63.6767 H   0  0  0  0  0  0  0  0  0  0  0  0
    3.5719   65.3397   63.9481 H   0  0  0  0  0  0  0  0  0  0  0  0
    1.3486   66.0929   64.7829 H   0  0  0  0  0  0  0  0  0  0  0  0
   -0.5637   66.3851   72.2298 H   0  0  0  0  0  0  0  0  0  0  0  0
   -0.3500   64.0743   71.5524 H   0  0  0  0  0  0  0  0  0  0  0  0
    0.1532   63.8947   69.8164 H   0  0  0  0  0  0  0  0  0  0  0  0
    2.8699   58.2182   72.5035 H   0  0  0  0  0  0  0  0  0  0  0  0
    2.0353   63.0154   73.2023 H   0  0  0  0  0  0  0  0  0  0  0  0
   -0.2565   62.5760   73.2728 H   0  0  0  0  0  0  0  0  0  0  0  0
   -0.3423   62.0773   71.5699 H   0  0  0  0  0  0  0  0  0  0  0  0
   -1.5137   60.2656   73.8433 H   0  0  0  0  0  0  0  0  0  0  0  0
    1.5940   56.3953   75.7911 H   0  0  0  0  0  0  0  0  0  0  0  0
    2.3514   55.1847   74.7015 H   0  0  0  0  0  0  0  0  0  0  0  0
    2.9362   56.8831   74.7015 H   0  0  0  0  0  0  0  0  0  0  0  0
   -0.8251   57.3274   76.4991 H   0  0  0  0  0  0  0  0  0  0  0  0
   -1.3545   58.9801   76.0354 H   0  0  0  0  0  0  0  0  0  0  0  0
   -2.5346   57.6259   76.0354 H   0  0  0  0  0  0  0  0  0  0  0  0
  2  1  1  0
  3  2  1  0
  4  3  1  0
  5  4  1  0
  6  5  1  0
  7  6  1  0
  7  2  1  0
  5  8  1  1
  9  5  1  0
 10  9  1  0
 11 10  2  0
 12 11  1  0
 13 12  2  0
 14 13  1  0
 15 14  2  0
 15 10  1  0
 16  1  1  0
 17  1  1  0
 18 17  1  0
 19 18  2  0
 21 20  2  0
 22 21  1  0
 23 22  1  0
 24 23  1  0
 24 18  1  0
 25 24  1  0
 26 25  1  0
 26 22  2  0
 27 26  1  0
 28 20  1  0
 28 27  2  0
 30 20  1  0
 30 29  1  0
 31 28  1  0
 32 31  1  0
  1 33  1  1
  2 34  1  6
  3 35  1  0
  3 36  1  0
  4 37  1  0
  4 38  1  0
  6 39  1  0
  6 40  1  0
  7 41  1  0
  7 42  1  0
  8 43  1  0
  8 44  1  0
  8 45  1  0
  9 46  1  0
  9 47  1  0
 11 48  1  0
 12 49  1  0
 13 50  1  0
 14 51  1  0
 15 52  1  0
 16 53  1  0
 17 54  1  0
 17 55  1  0
 21 56  1  0
 24 57  1  1
 25 58  1  0
 25 59  1  0
 27 60  1  0
 29 61  1  0
 29 62  1  0
 29 63  1  0
 32 64  1  0
 32 65  1  0
 32 66  1  0
M  CHG  1   5   1
M  END
>  <score>  (5) 
-8.576

$$$$
=
     RDKit          3D

 66 69  0  0  0  0  0  0  0  0999 V2000
   -0.2900   66.6650   69.0880 C   0  0  1  0  0  0  0  0  0  0  0  0
    0.8740   67.3540   68.3390 C   0  0  2  0  0  0  0  0  0  0  0  0
    0.5530   68.7960   67.9360 C   0  0  0  0  0  0  0  0  0  0  0  0
    1.7310   69.4550   67.2290 C   0  0  0  0  0  0  0  0  0  0  0  0
    2.1950   68.6620   65.9980 N   0  0  1  0  0  4  0  0  0  0  0  0
    2.4650   67.2020   66.3710 C   0  0  0  0  0  0  0  0  0  0  0  0
    1.2810   66.5600   67.0870 C   0  0  0  0  0  0  0  0  0  0  0  0
    1.1650   68.7540   64.8750 C   0  0  0  0  0  0  0  0  0  0  0  0
    3.5230   69.3300   65.5220 C   0  0  0  0  0  0  0  0  0  0  0  0
    4.4710   69.8080   66.5940 C   0  0  0  0  0  0  0  0  0  0  0  0
    5.8540   69.8570   66.3590 C   0  0  0  0  0  0  0  0  0  0  0  0
    6.7280   70.3070   67.3500 C   0  0  0  0  0  0  0  0  0  0  0  0
    6.2320   70.7070   68.5880 C   0  0  0  0  0  0  0  0  0  0  0  0
    4.8640   70.6480   68.8430 C   0  0  0  0  0  0  0  0  0  0  0  0
    3.9880   70.1980   67.8530 C   0  0  0  0  0  0  0  0  0  0  0  0
   -1.3890   66.5450   68.1830 O   0  0  0  0  0  0  0  0  0  0  0  0
    0.0140   65.2830   69.6700 C   0  0  0  0  0  0  0  0  0  0  0  0
    0.1090   65.3070   71.1880 C   0  0  0  0  0  0  0  0  0  0  0  0
   -0.3900   66.2470   71.8140 O   0  0  0  0  0  0  0  0  0  0  0  0
    2.6840   59.6530   71.8940 C   0  0  0  0  0  0  0  0  0  0  0  0
    2.9330   60.8710   71.2540 C   0  0  0  0  0  0  0  0  0  0  0  0
    2.0420   61.9170   71.4340 C   0  0  0  0  0  0  0  0  0  0  0  0
    2.1630   63.5370   70.7320 S   0  0  0  0  0  0  0  0  0  0  0  0
    0.8890   64.1900   71.8640 C   0  0  2  0  0  0  0  0  0  0  0  0
    0.0170   62.9880   72.2630 C   0  0  0  0  0  0  0  0  0  0  0  0
    0.9090   61.7780   72.2340 C   0  0  0  0  0  0  0  0  0  0  0  0
    0.6400   60.5680   72.8660 C   0  0  0  0  0  0  0  0  0  0  0  0
    1.5310   59.5000   72.7050 C   0  0  0  0  0  0  0  0  0  0  0  0
    3.4820   57.8200   70.5790 C   0  0  0  0  0  0  0  0  0  0  0  0
    3.4960   58.5490   71.7980 O   0  0  0  0  0  0  0  0  0  0  0  0
    1.3710   58.2660   73.2880 O   0  0  0  0  0  0  0  0  0  0  0  0
    1.6050   58.1550   74.6840 C   0  0  0  0  0  0  0  0  0  0  0  0
   -0.5049   67.3036   69.9575 H   0  0  0  0  0  0  0  0  0  0  0  0
    1.7119   67.3785   69.0513 H   0  0  0  0  0  0  0  0  0  0  0  0
   -0.3138   68.7931   67.2588 H   0  0  0  0  0  0  0  0  0  0  0  0
    0.3352   69.3687   68.8495 H   0  0  0  0  0  0  0  0  0  0  0  0
    1.4304   70.4629   66.9069 H   0  0  0  0  0  0  0  0  0  0  0  0
    2.5700   69.4916   67.9395 H   0  0  0  0  0  0  0  0  0  0  0  0
    2.6729   66.6345   65.4519 H   0  0  0  0  0  0  0  0  0  0  0  0
    3.3244   67.1830   67.0573 H   0  0  0  0  0  0  0  0  0  0  0  0
    0.4257   66.5206   66.3964 H   0  0  0  0  0  0  0  0  0  0  0  0
    1.5792   65.5497   67.4040 H   0  0  0  0  0  0  0  0  0  0  0  0
    0.1577   68.8440   65.3078 H   0  0  0  0  0  0  0  0  0  0  0  0
    1.3775   69.6367   64.2540 H   0  0  0  0  0  0  0  0  0  0  0  0
    1.2176   67.8476   64.2540 H   0  0  0  0  0  0  0  0  0  0  0  0
    4.0619   68.5953   64.9058 H   0  0  0  0  0  0  0  0  0  0  0  0
    3.2104   70.2406   64.9899 H   0  0  0  0  0  0  0  0  0  0  0  0
    6.2528   69.5378   65.3848 H   0  0  0  0  0  0  0  0  0  0  0  0
    7.8095   70.3456   67.1527 H   0  0  0  0  0  0  0  0  0  0  0  0
    6.9209   71.0698   69.3651 H   0  0  0  0  0  0  0  0  0  0  0  0
    4.4737   70.9559   69.8242 H   0  0  0  0  0  0  0  0  0  0  0  0
    2.9091   70.1487   68.0617 H   0  0  0  0  0  0  0  0  0  0  0  0
   -2.2306   66.4531   68.6962 H   0  0  0  0  0  0  0  0  0  0  0  0
   -0.7886   64.5905   69.3762 H   0  0  0  0  0  0  0  0  0  0  0  0
    0.9879   64.9574   69.2758 H   0  0  0  0  0  0  0  0  0  0  0  0
    3.8216   60.9969   70.6180 H   0  0  0  0  0  0  0  0  0  0  0  0
    1.3181   64.6451   72.7688 H   0  0  0  0  0  0  0  0  0  0  0  0
   -0.3904   63.1344   73.2742 H   0  0  0  0  0  0  0  0  0  0  0  0
   -0.8325   62.8697   71.5742 H   0  0  0  0  0  0  0  0  0  0  0  0
   -0.2620   60.4518   73.4848 H   0  0  0  0  0  0  0  0  0  0  0  0
    3.4613   56.7420   70.7967 H   0  0  0  0  0  0  0  0  0  0  0  0
    2.5890   58.0940   69.9981 H   0  0  0  0  0  0  0  0  0  0  0  0
    4.3849   58.0595   69.9981 H   0  0  0  0  0  0  0  0  0  0  0  0
    0.7441   58.5634   75.2337 H   0  0  0  0  0  0  0  0  0  0  0  0
    1.7411   57.0963   74.9499 H   0  0  0  0  0  0  0  0  0  0  0  0
    2.5110   58.7193   74.9499 H   0  0  0  0  0  0  0  0  0  0  0  0
  2  1  1  0
  3  2  1  0
  4  3  1  0
  5  4  1  0
  6  5  1  0
  7  6  1  0
  7  2  1  0
  5  8  1  6
  9  5  1  0
 10  9  1  0
 11 10  2  0
 12 11  1  0
 13 12  2  0
 14 13  1  0
 15 14  2  0
 15 10  1  0
 16  1  1  0
 17  1  1  0
 18 17  1  0
 19 18  2  0
 21 20  2  0
 22 21  1  0
 23 22  1  0
 24 23  1  0
 24 18  1  0
 25 24  1  0
 26 25  1  0
 26 22  2  0
 27 26  1  0
 28 20  1  0
 28 27  2  0
 30 20  1  0
 30 29  1  0
 31 28  1  0
 32 31  1  0
  1 33  1  1
  2 34  1  1
  3 35  1  0
  3 36  1  0
  4 37  1  0
  4 38  1  0
  6 39  1  0
  6 40  1  0
  7 41  1  0
  7 42  1  0
  8 43  1  0
  8 44  1  0
  8 45  1  0
  9 46  1  0
  9 47  1  0
 11 48  1  0
 12 49  1  0
 13 50  1  0
 14 51  1  0
 15 52  1  0
 16 53  1  0
 17 54  1  0
 17 55  1  0
 21 56  1  0
 24 57  1  1
 25 58  1  0
 25 59  1  0
 27 60  1  0
 29 61  1  0
 29 62  1  0
 29 63  1  0
 32 64  1  0
 32 65  1  0
 32 66  1  0
M  CHG  1   5   1
M  END
>  <score>  (6) 
-8.438

$$$$
=
     RDKit          3D

 66 69  0  0  0  0  0  0  0  0999 V2000
    0.5940   65.9990   70.6220 C   0  0  1  0  0  0  0  0  0  0  0  0
    0.7250   66.5010   69.1650 C   0  0  2  0  0  0  0  0  0  0  0  0
    1.5340   67.7960   69.0510 C   0  0  0  0  0  0  0  0  0  0  0  0
    1.6700   68.2440   67.6010 C   0  0  0  0  0  0  0  0  0  0  0  0
    0.3100   68.4170   66.9100 N   0  0  1  0  0  4  0  0  0  0  0  0
   -0.5350   67.1500   67.0640 C   0  0  0  0  0  0  0  0  0  0  0  0
   -0.6540   66.7090   68.5190 C   0  0  0  0  0  0  0  0  0  0  0  0
   -0.4280   69.6340   67.4630 C   0  0  0  0  0  0  0  0  0  0  0  0
    0.6150   68.6560   65.3970 C   0  0  0  0  0  0  0  0  0  0  0  0
    1.9340   68.1410   64.8750 C   0  0  0  0  0  0  0  0  0  0  0  0
    2.1550   66.7630   64.7210 C   0  0  0  0  0  0  0  0  0  0  0  0
    3.3730   66.2900   64.2310 C   0  0  0  0  0  0  0  0  0  0  0  0
    4.3860   67.1850   63.8960 C   0  0  0  0  0  0  0  0  0  0  0  0
    4.1880   68.5530   64.0600 C   0  0  0  0  0  0  0  0  0  0  0  0
    2.9710   69.0300   64.5500 C   0  0  0  0  0  0  0  0  0  0  0  0
   -0.7840   66.0730   70.9920 O   0  0  0  0  0  0  0  0  0  0  0  0
    1.0930   64.5770   70.8880 C   0  0  0  0  0  0  0  0  0  0  0  0
    0.3670   63.9240   72.0550 C   0  0  0  0  0  0  0  0  0  0  0  0
    0.0790   64.5990   73.0470 O   0  0  0  0  0  0  0  0  0  0  0  0
   -0.3730   58.0500   74.0670 C   0  0  0  0  0  0  0  0  0  0  0  0
   -1.0790   59.2550   73.9950 C   0  0  0  0  0  0  0  0  0  0  0  0
   -0.4820   60.3470   73.3850 C   0  0  0  0  0  0  0  0  0  0  0  0
   -1.1900   61.9550   73.1770 S   0  0  0  0  0  0  0  0  0  0  0  0
    0.0930   62.4300   71.9680 C   0  0  2  0  0  0  0  0  0  0  0  0
    1.3210   61.5620   72.2860 C   0  0  0  0  0  0  0  0  0  0  0  0
    0.8020   60.2670   72.8470 C   0  0  0  0  0  0  0  0  0  0  0  0
    1.5230   59.0800   72.9220 C   0  0  0  0  0  0  0  0  0  0  0  0
    0.9360   57.9610   73.5270 C   0  0  0  0  0  0  0  0  0  0  0  0
   -1.3440   56.9780   75.9720 C   0  0  0  0  0  0  0  0  0  0  0  0
   -0.8610   56.9000   74.6390 O   0  0  0  0  0  0  0  0  0  0  0  0
    1.5500   56.7380   73.6490 O   0  0  0  0  0  0  0  0  0  0  0  0
    2.3710   56.5160   74.7850 C   0  0  0  0  0  0  0  0  0  0  0  0
    1.2464   66.6504   71.2220 H   0  0  0  0  0  0  0  0  0  0  0  0
    1.2704   65.7116   68.6271 H   0  0  0  0  0  0  0  0  0  0  0  0
    1.0259   68.5863   69.6231 H   0  0  0  0  0  0  0  0  0  0  0  0
    2.5418   67.6095   69.4504 H   0  0  0  0  0  0  0  0  0  0  0  0
    2.2028   69.2061   67.5774 H   0  0  0  0  0  0  0  0  0  0  0  0
    2.2233   67.4624   67.0598 H   0  0  0  0  0  0  0  0  0  0  0  0
   -1.5430   67.3467   66.6701 H   0  0  0  0  0  0  0  0  0  0  0  0
   -0.0372   66.3428   66.5066 H   0  0  0  0  0  0  0  0  0  0  0  0
   -1.1985   67.4813   69.0821 H   0  0  0  0  0  0  0  0  0  0  0  0
   -1.1921   65.7499   68.5435 H   0  0  0  0  0  0  0  0  0  0  0  0
   -0.4105   69.6051   68.5625 H   0  0  0  0  0  0  0  0  0  0  0  0
    0.0654   70.5525   67.1124 H   0  0  0  0  0  0  0  0  0  0  0  0
   -1.4706   69.6211   67.1124 H   0  0  0  0  0  0  0  0  0  0  0  0
   -0.1838   68.1711   64.8167 H   0  0  0  0  0  0  0  0  0  0  0  0
    0.6705   69.7489   65.2856 H   0  0  0  0  0  0  0  0  0  0  0  0
    1.3612   66.0502   64.9889 H   0  0  0  0  0  0  0  0  0  0  0  0
    3.5332   65.2086   64.1092 H   0  0  0  0  0  0  0  0  0  0  0  0
    5.3424   66.8109   63.5019 H   0  0  0  0  0  0  0  0  0  0  0  0
    4.9915   69.2590   63.8032 H   0  0  0  0  0  0  0  0  0  0  0  0
    2.8232   70.1119   64.6827 H   0  0  0  0  0  0  0  0  0  0  0  0
   -0.8609   66.0771   71.9790 H   0  0  0  0  0  0  0  0  0  0  0  0
    0.9312   63.9697   69.9852 H   0  0  0  0  0  0  0  0  0  0  0  0
    2.1612   64.6354   71.1439 H   0  0  0  0  0  0  0  0  0  0  0  0
   -2.0922   59.3349   74.4159 H   0  0  0  0  0  0  0  0  0  0  0  0
   -0.2174   62.2535   70.9276 H   0  0  0  0  0  0  0  0  0  0  0  0
    1.8993   61.3733   71.3695 H   0  0  0  0  0  0  0  0  0  0  0  0
    1.9860   62.0653   73.0033 H   0  0  0  0  0  0  0  0  0  0  0  0
    2.5417   59.0205   72.5113 H   0  0  0  0  0  0  0  0  0  0  0  0
   -0.5076   56.8429   76.6735 H   0  0  0  0  0  0  0  0  0  0  0  0
   -1.8061   57.9624   76.1375 H   0  0  0  0  0  0  0  0  0  0  0  0
   -2.0925   56.1891   76.1375 H   0  0  0  0  0  0  0  0  0  0  0  0
    1.7817   56.6753   75.7001 H   0  0  0  0  0  0  0  0  0  0  0  0
    2.7494   55.4833   74.7677 H   0  0  0  0  0  0  0  0  0  0  0  0
    3.2183   57.2173   74.7677 H   0  0  0  0  0  0  0  0  0  0  0  0
  2  1  1  0
  3  2  1  0
  4  3  1  0
  5  4  1  0
  6  5  1  0
  7  6  1  0
  7  2  1  0
  5  8  1  1
  9  5  1  0
 10  9  1  0
 11 10  2  0
 12 11  1  0
 13 12  2  0
 14 13  1  0
 15 14  2  0
 15 10  1  0
 16  1  1  0
 17  1  1  0
 18 17  1  0
 19 18  2  0
 21 20  2  0
 22 21  1  0
 23 22  1  0
 24 23  1  0
 24 18  1  0
 25 24  1  0
 26 25  1  0
 26 22  2  0
 27 26  1  0
 28 20  1  0
 28 27  2  0
 30 20  1  0
 30 29  1  0
 31 28  1  0
 32 31  1  0
  1 33  1  1
  2 34  1  6
  3 35  1  0
  3 36  1  0
  4 37  1  0
  4 38  1  0
  6 39  1  0
  6 40  1  0
  7 41  1  0
  7 42  1  0
  8 43  1  0
  8 44  1  0
  8 45  1  0
  9 46  1  0
  9 47  1  0
 11 48  1  0
 12 49  1  0
 13 50  1  0
 14 51  1  0
 15 52  1  0
 16 53  1  0
 17 54  1  0
 17 55  1  0
 21 56  1  0
 24 57  1  6
 25 58  1  0
 25 59  1  0
 27 60  1  0
 29 61  1  0
 29 62  1  0
 29 63  1  0
 32 64  1  0
 32 65  1  0
 32 66  1  0
M  CHG  1   5   1
M  END
>  <score>  (7) 
-8.179

$$$$
=
     RDKit          3D

 66 69  0  0  0  0  0  0  0  0999 V2000
    4.1080   61.1900   71.9070 C   0  0  1  0  0  0  0  0  0  0  0  0
    3.2980   62.5020   71.7940 C   0  0  2  0  0  0  0  0  0  0  0  0
    1.9440   62.4310   72.5060 C   0  0  0  0  0  0  0  0  0  0  0  0
    1.1880   63.7490   72.4020 C   0  0  0  0  0  0  0  0  0  0  0  0
    0.9870   64.1970   70.9470 N   0  0  1  0  0  4  0  0  0  0  0  0
    2.3240   64.2180   70.2040 C   0  0  0  0  0  0  0  0  0  0  0  0
    3.0740   62.8960   70.3250 C   0  0  0  0  0  0  0  0  0  0  0  0
   -0.0170   63.2940   70.2360 C   0  0  0  0  0  0  0  0  0  0  0  0
    0.4060   65.6450   71.0120 C   0  0  0  0  0  0  0  0  0  0  0  0
    0.3570   66.4210   69.7180 C   0  0  0  0  0  0  0  0  0  0  0  0
    1.4200   67.2570   69.3420 C   0  0  0  0  0  0  0  0  0  0  0  0
    1.3750   67.9680   68.1420 C   0  0  0  0  0  0  0  0  0  0  0  0
    0.2660   67.8580   67.3070 C   0  0  0  0  0  0  0  0  0  0  0  0
   -0.8050   67.0470   67.6740 C   0  0  0  0  0  0  0  0  0  0  0  0
   -0.7630   66.3350   68.8750 C   0  0  0  0  0  0  0  0  0  0  0  0
    5.4930   61.5300   71.9800 O   0  0  0  0  0  0  0  0  0  0  0  0
    3.7650   60.2930   73.0990 C   0  0  0  0  0  0  0  0  0  0  0  0
    2.9560   59.0730   72.6850 C   0  0  0  0  0  0  0  0  0  0  0  0
    2.9880   58.6910   71.5110 O   0  0  0  0  0  0  0  0  0  0  0  0
   -1.9310   55.9430   75.0140 C   0  0  0  0  0  0  0  0  0  0  0  0
   -0.7190   55.7030   74.3570 C   0  0  0  0  0  0  0  0  0  0  0  0
    0.1060   56.7770   74.0600 C   0  0  0  0  0  0  0  0  0  0  0  0
    1.6760   56.7050   73.2480 S   0  0  0  0  0  0  0  0  0  0  0  0
    2.0770   58.4170   73.7390 C   0  0  2  0  0  0  0  0  0  0  0  0
    0.7300   59.1280   73.9420 C   0  0  0  0  0  0  0  0  0  0  0  0
   -0.2480   58.0810   74.4000 C   0  0  0  0  0  0  0  0  0  0  0  0
   -1.4560   58.3380   75.0410 C   0  0  0  0  0  0  0  0  0  0  0  0
   -2.3020   57.2680   75.3580 C   0  0  0  0  0  0  0  0  0  0  0  0
   -2.3250   53.6470   75.5620 C   0  0  0  0  0  0  0  0  0  0  0  0
   -2.8260   54.9620   75.3660 O   0  0  0  0  0  0  0  0  0  0  0  0
   -3.5100   57.4020   75.9960 O   0  0  0  0  0  0  0  0  0  0  0  0
   -4.5130   58.1840   75.3650 C   0  0  0  0  0  0  0  0  0  0  0  0
    3.8467   60.6004   71.0159 H   0  0  0  0  0  0  0  0  0  0  0  0
    3.9058   63.2694   72.2957 H   0  0  0  0  0  0  0  0  0  0  0  0
    1.3397   61.6352   72.0460 H   0  0  0  0  0  0  0  0  0  0  0  0
    2.1248   62.2203   73.5704 H   0  0  0  0  0  0  0  0  0  0  0  0
    0.2016   63.6283   72.8737 H   0  0  0  0  0  0  0  0  0  0  0  0
    1.7869   64.5194   72.9098 H   0  0  0  0  0  0  0  0  0  0  0  0
    2.1341   64.4208   69.1397 H   0  0  0  0  0  0  0  0  0  0  0  0
    2.9486   65.0020   70.6571 H   0  0  0  0  0  0  0  0  0  0  0  0
    2.4886   62.1074   69.8296 H   0  0  0  0  0  0  0  0  0  0  0  0
    4.0580   63.0150   69.8479 H   0  0  0  0  0  0  0  0  0  0  0  0
   -0.6175   62.7539   70.9828 H   0  0  0  0  0  0  0  0  0  0  0  0
   -0.6792   63.9064   69.6063 H   0  0  0  0  0  0  0  0  0  0  0  0
    0.5220   62.5708   69.6063 H   0  0  0  0  0  0  0  0  0  0  0  0
   -0.6225   65.5733   71.3954 H   0  0  0  0  0  0  0  0  0  0  0  0
    1.1017   66.2041   71.6550 H   0  0  0  0  0  0  0  0  0  0  0  0
    2.2968   67.3526   69.9994 H   0  0  0  0  0  0  0  0  0  0  0  0
    2.2164   68.6160   67.8554 H   0  0  0  0  0  0  0  0  0  0  0  0
    0.2359   68.4119   66.3571 H   0  0  0  0  0  0  0  0  0  0  0  0
   -1.6843   66.9671   67.0179 H   0  0  0  0  0  0  0  0  0  0  0  0
   -1.6147   65.7013   69.1631 H   0  0  0  0  0  0  0  0  0  0  0  0
    5.7667   61.5972   72.9290 H   0  0  0  0  0  0  0  0  0  0  0  0
    4.7004   59.9552   73.5690 H   0  0  0  0  0  0  0  0  0  0  0  0
    3.1548   60.8812   73.8002 H   0  0  0  0  0  0  0  0  0  0  0  0
   -0.4257   54.6794   74.0808 H   0  0  0  0  0  0  0  0  0  0  0  0
    2.6593   58.4662   74.6710 H   0  0  0  0  0  0  0  0  0  0  0  0
    0.8279   59.9145   74.7047 H   0  0  0  0  0  0  0  0  0  0  0  0
    0.3908   59.6053   73.0108 H   0  0  0  0  0  0  0  0  0  0  0  0
   -1.7429   59.3690   75.2956 H   0  0  0  0  0  0  0  0  0  0  0  0
   -2.2466   53.4413   76.6398 H   0  0  0  0  0  0  0  0  0  0  0  0
   -3.0095   52.9210   75.0990 H   0  0  0  0  0  0  0  0  0  0  0  0
   -1.3309   53.5605   75.0990 H   0  0  0  0  0  0  0  0  0  0  0  0
   -5.1355   58.6694   76.1311 H   0  0  0  0  0  0  0  0  0  0  0  0
   -4.0380   58.9526   74.7375 H   0  0  0  0  0  0  0  0  0  0  0  0
   -5.1425   57.5360   74.7375 H   0  0  0  0  0  0  0  0  0  0  0  0
  2  1  1  0
  3  2  1  0
  4  3  1  0
  5  4  1  0
  6  5  1  0
  7  6  1  0
  7  2  1  0
  5  8  1  6
  9  5  1  0
 10  9  1  0
 11 10  2  0
 12 11  1  0
 13 12  2  0
 14 13  1  0
 15 14  2  0
 15 10  1  0
 16  1  1  0
 17  1  1  0
 18 17  1  0
 19 18  2  0
 21 20  2  0
 22 21  1  0
 23 22  1  0
 24 23  1  0
 24 18  1  0
 25 24  1  0
 26 25  1  0
 26 22  2  0
 27 26  1  0
 28 20  1  0
 28 27  2  0
 30 20  1  0
 30 29  1  0
 31 28  1  0
 32 31  1  0
  1 33  1  6
  2 34  1  1
  3 35  1  0
  3 36  1  0
  4 37  1  0
  4 38  1  0
  6 39  1  0
  6 40  1  0
  7 41  1  0
  7 42  1  0
  8 43  1  0
  8 44  1  0
  8 45  1  0
  9 46  1  0
  9 47  1  0
 11 48  1  0
 12 49  1  0
 13 50  1  0
 14 51  1  0
 15 52  1  0
 16 53  1  0
 17 54  1  0
 17 55  1  0
 21 56  1  0
 24 57  1  1
 25 58  1  0
 25 59  1  0
 27 60  1  0
 29 61  1  0
 29 62  1  0
 29 63  1  0
 32 64  1  0
 32 65  1  0
 32 66  1  0
M  CHG  1   5   1
M  END
>  <score>  (8) 
-7.958

$$$$
=
     RDKit          3D

 66 69  0  0  0  0  0  0  0  0999 V2000
    2.5280   62.6140   70.1870 C   0  0  1  0  0  0  0  0  0  0  0  0
    1.7330   62.3660   71.4890 C   0  0  2  0  0  0  0  0  0  0  0  0
    0.2690   62.8030   71.3860 C   0  0  0  0  0  0  0  0  0  0  0  0
   -0.4920   62.5160   72.6740 C   0  0  0  0  0  0  0  0  0  0  0  0
    0.1610   63.1700   73.9010 N   0  0  1  0  0  4  0  0  0  0  0  0
    1.6410   62.7900   73.9860 C   0  0  0  0  0  0  0  0  0  0  0  0
    2.3870   63.0740   72.6870 C   0  0  0  0  0  0  0  0  0  0  0  0
   -0.0090   64.6870   73.8600 C   0  0  0  0  0  0  0  0  0  0  0  0
   -0.5920   62.6110   75.1490 C   0  0  0  0  0  0  0  0  0  0  0  0
   -1.2120   61.2410   75.0160 C   0  0  0  0  0  0  0  0  0  0  0  0
   -0.4150   60.0870   75.0420 C   0  0  0  0  0  0  0  0  0  0  0  0
   -0.9920   58.8220   74.9270 C   0  0  0  0  0  0  0  0  0  0  0  0
   -2.3710   58.6940   74.7780 C   0  0  0  0  0  0  0  0  0  0  0  0
   -3.1740   59.8310   74.7330 C   0  0  0  0  0  0  0  0  0  0  0  0
   -2.5990   61.0980   74.8480 C   0  0  0  0  0  0  0  0  0  0  0  0
    3.2830   63.8160   70.3510 O   0  0  0  0  0  0  0  0  0  0  0  0
    3.4820   61.4960   69.7610 C   0  0  0  0  0  0  0  0  0  0  0  0
    4.5140   61.1830   70.8340 C   0  0  0  0  0  0  0  0  0  0  0  0
    5.4410   61.9740   71.0360 O   0  0  0  0  0  0  0  0  0  0  0  0
    1.7130   56.4760   73.8510 C   0  0  0  0  0  0  0  0  0  0  0  0
    1.9170   56.9430   72.5480 C   0  0  0  0  0  0  0  0  0  0  0  0
    2.6890   58.0790   72.3560 C   0  0  0  0  0  0  0  0  0  0  0  0
    3.0810   58.8360   70.8070 S   0  0  0  0  0  0  0  0  0  0  0  0
    4.3910   59.8560   71.5670 C   0  0  2  0  0  0  0  0  0  0  0  0
    4.0080   60.0060   73.0480 C   0  0  0  0  0  0  0  0  0  0  0  0
    3.2600   58.7590   73.4310 C   0  0  0  0  0  0  0  0  0  0  0  0
    3.0560   58.3150   74.7330 C   0  0  0  0  0  0  0  0  0  0  0  0
    2.2860   57.1660   74.9500 C   0  0  0  0  0  0  0  0  0  0  0  0
   -0.4140   55.3800   73.8650 C   0  0  0  0  0  0  0  0  0  0  0  0
    0.9750   55.3610   74.1650 O   0  0  0  0  0  0  0  0  0  0  0  0
    2.0260   56.6320   76.1890 O   0  0  0  0  0  0  0  0  0  0  0  0
    1.8220   57.5300   77.2700 C   0  0  0  0  0  0  0  0  0  0  0  0
    1.7761   62.6728   69.3863 H   0  0  0  0  0  0  0  0  0  0  0  0
    1.7526   61.2774   71.6458 H   0  0  0  0  0  0  0  0  0  0  0  0
    0.2321   63.8834   71.1824 H   0  0  0  0  0  0  0  0  0  0  0  0
   -0.2041   62.2343   70.5719 H   0  0  0  0  0  0  0  0  0  0  0  0
   -1.5168   62.9023   72.5718 H   0  0  0  0  0  0  0  0  0  0  0  0
   -0.4841   61.4274   72.8315 H   0  0  0  0  0  0  0  0  0  0  0  0
    2.1088   63.3685   74.7963 H   0  0  0  0  0  0  0  0  0  0  0  0
    1.7002   61.7086   74.1785 H   0  0  0  0  0  0  0  0  0  0  0  0
    2.3849   64.1588   72.5046 H   0  0  0  0  0  0  0  0  0  0  0  0
    3.4139   62.6937   72.7912 H   0  0  0  0  0  0  0  0  0  0  0  0
   -0.0529   65.0789   74.8869 H   0  0  0  0  0  0  0  0  0  0  0  0
    0.8443   65.1374   73.3318 H   0  0  0  0  0  0  0  0  0  0  0  0
   -0.9408   64.9374   73.3318 H   0  0  0  0  0  0  0  0  0  0  0  0
    0.1270   62.5710   75.9805 H   0  0  0  0  0  0  0  0  0  0  0  0
   -1.4394   63.2954   75.3028 H   0  0  0  0  0  0  0  0  0  0  0  0
    0.6753   60.1803   75.1541 H   0  0  0  0  0  0  0  0  0  0  0  0
   -0.3569   57.9243   74.9540 H   0  0  0  0  0  0  0  0  0  0  0  0
   -2.8254   57.6956   74.6959 H   0  0  0  0  0  0  0  0  0  0  0  0
   -4.2621   59.7307   74.6068 H   0  0  0  0  0  0  0  0  0  0  0  0
   -3.2381   61.9924   74.8067 H   0  0  0  0  0  0  0  0  0  0  0  0
    3.4004   64.0029   71.3161 H   0  0  0  0  0  0  0  0  0  0  0  0
    2.8955   60.5879   69.5576 H   0  0  0  0  0  0  0  0  0  0  0  0
    4.0197   61.8341   68.8629 H   0  0  0  0  0  0  0  0  0  0  0  0
    1.4723   56.4177   71.6899 H   0  0  0  0  0  0  0  0  0  0  0  0
    5.3864   59.3936   71.4935 H   0  0  0  0  0  0  0  0  0  0  0  0
    4.9130   60.1094   73.6647 H   0  0  0  0  0  0  0  0  0  0  0  0
    3.3900   60.9020   73.2074 H   0  0  0  0  0  0  0  0  0  0  0  0
    3.4943   58.8599   75.5821 H   0  0  0  0  0  0  0  0  0  0  0  0
   -0.9913   55.3879   74.8013 H   0  0  0  0  0  0  0  0  0  0  0  0
   -0.6506   56.2815   73.2807 H   0  0  0  0  0  0  0  0  0  0  0  0
   -0.6752   54.4853   73.2807 H   0  0  0  0  0  0  0  0  0  0  0  0
    1.9442   56.9920   78.2216 H   0  0  0  0  0  0  0  0  0  0  0  0
    2.5577   58.3458   77.2129 H   0  0  0  0  0  0  0  0  0  0  0  0
    0.8061   57.9478   77.2129 H   0  0  0  0  0  0  0  0  0  0  0  0
  2  1  1  0
  3  2  1  0
  4  3  1  0
  5  4  1  0
  6  5  1  0
  7  6  1  0
  7  2  1  0
  5  8  1  6
  9  5  1  0
 10  9  1  0
 11 10  2  0
 12 11  1  0
 13 12  2  0
 14 13  1  0
 15 14  2  0
 15 10  1  0
 16  1  1  0
 17  1  1  0
 18 17  1  0
 19 18  2  0
 21 20  2  0
 22 21  1  0
 23 22  1  0
 24 23  1  0
 24 18  1  0
 25 24  1  0
 26 25  1  0
 26 22  2  0
 27 26  1  0
 28 20  1  0
 28 27  2  0
 30 20  1  0
 30 29  1  0
 31 28  1  0
 32 31  1  0
  1 33  1  6
  2 34  1  1
  3 35  1  0
  3 36  1  0
  4 37  1  0
  4 38  1  0
  6 39  1  0
  6 40  1  0
  7 41  1  0
  7 42  1  0
  8 43  1  0
  8 44  1  0
  8 45  1  0
  9 46  1  0
  9 47  1  0
 11 48  1  0
 12 49  1  0
 13 50  1  0
 14 51  1  0
 15 52  1  0
 16 53  1  0
 17 54  1  0
 17 55  1  0
 21 56  1  0
 24 57  1  1
 25 58  1  0
 25 59  1  0
 27 60  1  0
 29 61  1  0
 29 62  1  0
 29 63  1  0
 32 64  1  0
 32 65  1  0
 32 66  1  0
M  CHG  1   5   1
M  END
>  <score>  (9) 
-7.861

$$$$
