=
     RDKit          3D

 54 57  0  0  0  0  0  0  0  0999 V2000
    1.7060   68.7300   67.8860 N   0  0  0  0  0  0  0  0  0  0  0  0
    2.9380   69.4450   67.9630 C   0  0  0  0  0  0  0  0  0  0  0  0
    3.2040   70.2060   69.1120 C   0  0  0  0  0  0  0  0  0  0  0  0
    4.3880   70.9390   69.2290 C   0  0  0  0  0  0  0  0  0  0  0  0
    5.3190   70.9240   68.1940 C   0  0  0  0  0  0  0  0  0  0  0  0
    5.0550   70.2040   67.0290 C   0  0  0  0  0  0  0  0  0  0  0  0
    3.8600   69.4860   66.8970 C   0  0  0  0  0  0  0  0  0  0  0  0
    3.5170   68.6640   65.3500 S   0  0  0  0  0  0  0  0  0  0  0  0
    1.7270   68.7160   65.3850 C   0  0  0  0  0  0  0  0  0  0  0  0
    1.0220   68.7370   66.6090 C   0  0  0  0  0  0  0  0  0  0  0  0
   -0.3810   68.7640   66.5990 C   0  0  0  0  0  0  0  0  0  0  0  0
   -1.0910   68.7540   65.3880 C   0  0  0  0  0  0  0  0  0  0  0  0
   -0.3770   68.7310   64.1800 C   0  0  0  0  0  0  0  0  0  0  0  0
    1.0210   68.7080   64.1800 C   0  0  0  0  0  0  0  0  0  0  0  0
   -2.6030   68.8020   65.4010 C   0  0  0  0  0  0  0  0  0  0  0  0
   -3.1240   68.9530   64.1560 F   0  0  0  0  0  0  0  0  0  0  0  0
   -3.1730   67.6860   65.9260 F   0  0  0  0  0  0  0  0  0  0  0  0
   -3.0720   69.8470   66.1380 F   0  0  0  0  0  0  0  0  0  0  0  0
    1.8460   67.2860   68.2390 C   0  0  0  0  0  0  0  0  0  0  0  0
    0.8700   66.8070   69.3280 C   0  0  0  0  0  0  0  0  0  0  0  0
    1.5290   65.8440   70.3190 C   0  0  0  0  0  0  0  0  0  0  0  0
    2.6550   61.9620   73.2630 C   0  0  0  0  0  0  0  0  0  0  0  0
    2.1780   62.9410   72.2080 N   0  0  0  0  0  4  0  0  0  0  0  0
    3.2520   63.1900   71.1490 C   0  0  0  0  0  0  0  0  0  0  0  0
    2.6600   63.6100   69.7770 C   0  0  0  0  0  0  0  0  0  0  0  0
    1.3540   64.3880   69.9030 N   0  0  0  0  0  4  0  0  0  0  0  0
    0.2720   63.6150   70.6710 C   0  0  0  0  0  0  0  0  0  0  0  0
    0.8450   62.5210   71.6100 C   0  0  0  0  0  0  0  0  0  0  0  0
    2.4705   70.2257   69.9315 H   0  0  0  0  0  0  0  0  0  0  0  0
    4.5841   71.5271   70.1377 H   0  0  0  0  0  0  0  0  0  0  0  0
    6.2628   71.4800   68.2950 H   0  0  0  0  0  0  0  0  0  0  0  0
    5.7891   70.2001   66.2098 H   0  0  0  0  0  0  0  0  0  0  0  0
   -0.9309   68.7933   67.5512 H   0  0  0  0  0  0  0  0  0  0  0  0
   -0.9221   68.7311   63.2246 H   0  0  0  0  0  0  0  0  0  0  0  0
    1.5677   68.6835   63.2258 H   0  0  0  0  0  0  0  0  0  0  0  0
    1.6701   66.6900   67.3313 H   0  0  0  0  0  0  0  0  0  0  0  0
    2.8606   67.1557   68.6434 H   0  0  0  0  0  0  0  0  0  0  0  0
    0.4990   67.6831   69.8802 H   0  0  0  0  0  0  0  0  0  0  0  0
    0.0504   66.2677   68.8305 H   0  0  0  0  0  0  0  0  0  0  0  0
    2.6039   66.0710   70.3734 H   0  0  0  0  0  0  0  0  0  0  0  0
    1.0439   65.9785   71.2970 H   0  0  0  0  0  0  0  0  0  0  0  0
    2.4543   62.3740   74.2630 H   0  0  0  0  0  0  0  0  0  0  0  0
    2.1210   61.0075   73.1457 H   0  0  0  0  0  0  0  0  0  0  0  0
    3.7358   61.7943   73.1457 H   0  0  0  0  0  0  0  0  0  0  0  0
    2.0110   63.8449   72.6728 H   0  0  0  0  0  0  0  0  0  0  0  0
    3.9168   63.9910   71.5046 H   0  0  0  0  0  0  0  0  0  0  0  0
    3.7943   62.2447   70.9996 H   0  0  0  0  0  0  0  0  0  0  0  0
    3.3952   64.2416   69.2568 H   0  0  0  0  0  0  0  0  0  0  0  0
    2.4407   62.6884   69.2179 H   0  0  0  0  0  0  0  0  0  0  0  0
    0.9844   64.4688   68.9450 H   0  0  0  0  0  0  0  0  0  0  0  0
   -0.3023   64.3299   71.2785 H   0  0  0  0  0  0  0  0  0  0  0  0
   -0.3549   63.1059   69.9242 H   0  0  0  0  0  0  0  0  0  0  0  0
    0.1292   62.3391   72.4252 H   0  0  0  0  0  0  0  0  0  0  0  0
    1.0052   61.6079   71.0179 H   0  0  0  0  0  0  0  0  0  0  0  0
  2  1  1  0
  3  2  2  0
  4  3  1  0
  5  4  2  0
  6  5  1  0
  7  6  2  0
  7  2  1  0
  8  7  1  0
  9  8  1  0
 10  9  2  0
 10  1  1  0
 11 10  1  0
 12 11  2  0
 13 12  1  0
 14 13  2  0
 14  9  1  0
 15 12  1  0
 16 15  1  0
 17 15  1  0
 18 15  1  0
 19  1  1  0
 20 19  1  0
 21 20  1  0
 23 22  1  0
 24 23  1  0
 25 24  1  0
 26 25  1  0
 26 21  1  0
 27 26  1  0
 28 27  1  0
 28 23  1  0
  3 29  1  0
  4 30  1  0
  5 31  1  0
  6 32  1  0
 11 33  1  0
 13 34  1  0
 14 35  1  0
 19 36  1  0
 19 37  1  0
 20 38  1  0
 20 39  1  0
 21 40  1  0
 21 41  1  0
 22 42  1  0
 22 43  1  0
 22 44  1  0
 23 45  1  0
 24 46  1  0
 24 47  1  0
 25 48  1  0
 25 49  1  0
 26 50  1  0
 27 51  1  0
 27 52  1  0
 28 53  1  0
 28 54  1  0
M  CHG  2  23   1  26   1
M  END
>  <score>  (1) 
-9.259

$$$$
=
     RDKit          3D

 54 57  0  0  0  0  0  0  0  0999 V2000
    3.0300   67.9100   65.3910 N   0  0  0  0  0  0  0  0  0  0  0  0
    3.4470   66.7180   64.7280 C   0  0  0  0  0  0  0  0  0  0  0  0
    2.7970   65.5120   65.0370 C   0  0  0  0  0  0  0  0  0  0  0  0
    3.1800   64.3150   64.4290 C   0  0  0  0  0  0  0  0  0  0  0  0
    4.2230   64.3060   63.5060 C   0  0  0  0  0  0  0  0  0  0  0  0
    4.9050   65.4880   63.2140 C   0  0  0  0  0  0  0  0  0  0  0  0
    4.5400   66.6870   63.8380 C   0  0  0  0  0  0  0  0  0  0  0  0
    5.5060   68.1530   63.5140 S   0  0  0  0  0  0  0  0  0  0  0  0
    5.2470   69.0180   65.0600 C   0  0  0  0  0  0  0  0  0  0  0  0
    4.0710   68.8220   65.8170 C   0  0  0  0  0  0  0  0  0  0  0  0
    3.8960   69.5280   67.0180 C   0  0  0  0  0  0  0  0  0  0  0  0
    4.8670   70.4360   67.4660 C   0  0  0  0  0  0  0  0  0  0  0  0
    6.0290   70.6220   66.7020 C   0  0  0  0  0  0  0  0  0  0  0  0
    6.2150   69.9210   65.5060 C   0  0  0  0  0  0  0  0  0  0  0  0
    4.6650   71.1720   68.7720 C   0  0  0  0  0  0  0  0  0  0  0  0
    5.1520   72.4390   68.7300 F   0  0  0  0  0  0  0  0  0  0  0  0
    3.3610   71.2700   69.1390 F   0  0  0  0  0  0  0  0  0  0  0  0
    5.3020   70.5550   69.8060 F   0  0  0  0  0  0  0  0  0  0  0  0
    2.1030   68.7420   64.5680 C   0  0  0  0  0  0  0  0  0  0  0  0
    0.6260   68.6410   64.9860 C   0  0  0  0  0  0  0  0  0  0  0  0
    0.3970   67.5810   66.0660 C   0  0  0  0  0  0  0  0  0  0  0  0
    0.3590   64.9800   70.3380 C   0  0  0  0  0  0  0  0  0  0  0  0
    0.3800   66.0010   69.2160 N   0  0  0  0  0  4  0  0  0  0  0  0
   -1.0320   66.3250   68.7270 C   0  0  0  0  0  0  0  0  0  0  0  0
   -1.1450   67.7430   68.1060 C   0  0  0  0  0  0  0  0  0  0  0  0
    0.1450   68.2040   67.4350 N   0  0  0  0  0  4  0  0  0  0  0  0
    1.3490   68.1970   68.3870 C   0  0  0  0  0  0  0  0  0  0  0  0
    1.1720   67.2410   69.5970 C   0  0  0  0  0  0  0  0  0  0  0  0
    1.9750   65.5105   65.7680 H   0  0  0  0  0  0  0  0  0  0  0  0
    2.6582   63.3794   64.6788 H   0  0  0  0  0  0  0  0  0  0  0  0
    4.5089   63.3680   63.0076 H   0  0  0  0  0  0  0  0  0  0  0  0
    5.7332   65.4776   62.4902 H   0  0  0  0  0  0  0  0  0  0  0  0
    2.9862   69.3671   67.6150 H   0  0  0  0  0  0  0  0  0  0  0  0
    6.8010   71.3257   67.0468 H   0  0  0  0  0  0  0  0  0  0  0  0
    7.1279   70.0816   64.9138 H   0  0  0  0  0  0  0  0  0  0  0  0
    2.4147   69.7934   64.6539 H   0  0  0  0  0  0  0  0  0  0  0  0
    2.1668   68.3615   63.5379 H   0  0  0  0  0  0  0  0  0  0  0  0
    0.3012   69.6174   65.3747 H   0  0  0  0  0  0  0  0  0  0  0  0
    0.0455   68.3473   64.0990 H   0  0  0  0  0  0  0  0  0  0  0  0
   -0.4758   66.9726   65.7868 H   0  0  0  0  0  0  0  0  0  0  0  0
    1.3060   66.9654   66.1354 H   0  0  0  0  0  0  0  0  0  0  0  0
    0.3697   65.5001   71.3072 H   0  0  0  0  0  0  0  0  0  0  0  0
   -0.5519   64.3683   70.2601 H   0  0  0  0  0  0  0  0  0  0  0  0
    1.2440   64.3314   70.2601 H   0  0  0  0  0  0  0  0  0  0  0  0
    0.8755   65.5786   68.4179 H   0  0  0  0  0  0  0  0  0  0  0  0
   -1.3185   65.5845   67.9657 H   0  0  0  0  0  0  0  0  0  0  0  0
   -1.6996   66.2928   69.6006 H   0  0  0  0  0  0  0  0  0  0  0  0
   -1.9474   67.7333   67.3537 H   0  0  0  0  0  0  0  0  0  0  0  0
   -1.3590   68.4451   68.9253 H   0  0  0  0  0  0  0  0  0  0  0  0
    0.0004   69.1985   67.2092 H   0  0  0  0  0  0  0  0  0  0  0  0
    2.2388   67.8830   67.8217 H   0  0  0  0  0  0  0  0  0  0  0  0
    1.4507   69.2155   68.7898 H   0  0  0  0  0  0  0  0  0  0  0  0
    2.1646   66.9341   69.9583 H   0  0  0  0  0  0  0  0  0  0  0  0
    0.6180   67.7767   70.3819 H   0  0  0  0  0  0  0  0  0  0  0  0
  2  1  1  0
  3  2  2  0
  4  3  1  0
  5  4  2  0
  6  5  1  0
  7  6  2  0
  7  2  1  0
  8  7  1  0
  9  8  1  0
 10  9  2  0
 10  1  1  0
 11 10  1  0
 12 11  2  0
 13 12  1  0
 14 13  2  0
 14  9  1  0
 15 12  1  0
 16 15  1  0
 17 15  1  0
 18 15  1  0
 19  1  1  0
 20 19  1  0
 21 20  1  0
 23 22  1  0
 24 23  1  0
 25 24  1  0
 26 25  1  0
 26 21  1  0
 27 26  1  0
 28 27  1  0
 28 23  1  0
  3 29  1  0
  4 30  1  0
  5 31  1  0
  6 32  1  0
 11 33  1  0
 13 34  1  0
 14 35  1  0
 19 36  1  0
 19 37  1  0
 20 38  1  0
 20 39  1  0
 21 40  1  0
 21 41  1  0
 22 42  1  0
 22 43  1  0
 22 44  1  0
 23 45  1  0
 24 46  1  0
 24 47  1  0
 25 48  1  0
 25 49  1  0
 26 50  1  0
 27 51  1  0
 27 52  1  0
 28 53  1  0
 28 54  1  0
M  CHG  2  23   1  26   1
M  END
>  <score>  (2) 
-9.107

$$$$
=
     RDKit          3D

 54 57  0  0  0  0  0  0  0  0999 V2000
    3.0300   68.8250   65.8420 N   0  0  0  0  0  0  0  0  0  0  0  0
    4.1310   69.4530   66.4960 C   0  0  0  0  0  0  0  0  0  0  0  0
    3.8940   70.1660   67.6810 C   0  0  0  0  0  0  0  0  0  0  0  0
    4.9350   70.8140   68.3490 C   0  0  0  0  0  0  0  0  0  0  0  0
    6.2280   70.7610   67.8370 C   0  0  0  0  0  0  0  0  0  0  0  0
    6.4770   70.0880   66.6400 C   0  0  0  0  0  0  0  0  0  0  0  0
    5.4330   69.4560   65.9540 C   0  0  0  0  0  0  0  0  0  0  0  0
    5.7770   68.6970   64.3760 S   0  0  0  0  0  0  0  0  0  0  0  0
    4.1660   68.8690   63.6150 C   0  0  0  0  0  0  0  0  0  0  0  0
    2.9900   68.9080   64.3970 C   0  0  0  0  0  0  0  0  0  0  0  0
    1.7430   69.0300   63.7650 C   0  0  0  0  0  0  0  0  0  0  0  0
    1.6490   69.0980   62.3660 C   0  0  0  0  0  0  0  0  0  0  0  0
    2.8250   69.0550   61.6030 C   0  0  0  0  0  0  0  0  0  0  0  0
    4.0740   68.9380   62.2230 C   0  0  0  0  0  0  0  0  0  0  0  0
    0.2950   69.2470   61.7090 C   0  0  0  0  0  0  0  0  0  0  0  0
   -0.4690   68.1330   61.8440 F   0  0  0  0  0  0  0  0  0  0  0  0
   -0.4340   70.2800   62.2050 F   0  0  0  0  0  0  0  0  0  0  0  0
    0.4030   69.4720   60.3690 F   0  0  0  0  0  0  0  0  0  0  0  0
    2.9250   67.3670   66.1460 C   0  0  0  0  0  0  0  0  0  0  0  0
    1.9450   67.0290   67.2820 C   0  0  0  0  0  0  0  0  0  0  0  0
    0.4970   66.9330   66.7940 C   0  0  0  0  0  0  0  0  0  0  0  0
   -3.8060   69.0470   65.3710 C   0  0  0  0  0  0  0  0  0  0  0  0
   -2.6100   68.4300   66.0700 N   0  0  0  0  0  4  0  0  0  0  0  0
   -1.5190   69.4680   66.3350 C   0  0  0  0  0  0  0  0  0  0  0  0
   -0.6260   69.1080   67.5520 C   0  0  0  0  0  0  0  0  0  0  0  0
   -0.4760   67.6040   67.7580 N   0  0  0  0  0  4  0  0  0  0  0  0
   -1.8230   66.8880   67.9290 C   0  0  0  0  0  0  0  0  0  0  0  0
   -3.0180   67.6710   67.3230 C   0  0  0  0  0  0  0  0  0  0  0  0
    2.8738   70.2152   68.0895 H   0  0  0  0  0  0  0  0  0  0  0  0
    4.7333   71.3658   69.2790 H   0  0  0  0  0  0  0  0  0  0  0  0
    7.0535   71.2494   68.3756 H   0  0  0  0  0  0  0  0  0  0  0  0
    7.4986   70.0540   66.2335 H   0  0  0  0  0  0  0  0  0  0  0  0
    0.8276   69.0729   64.3735 H   0  0  0  0  0  0  0  0  0  0  0  0
    2.7649   69.1138   60.5062 H   0  0  0  0  0  0  0  0  0  0  0  0
    4.9875   68.9002   61.6114 H   0  0  0  0  0  0  0  0  0  0  0  0
    2.5902   66.8480   65.2357 H   0  0  0  0  0  0  0  0  0  0  0  0
    3.9210   67.0412   66.4803 H   0  0  0  0  0  0  0  0  0  0  0  0
    2.2342   66.0634   67.7225 H   0  0  0  0  0  0  0  0  0  0  0  0
    1.9965   67.8410   68.0222 H   0  0  0  0  0  0  0  0  0  0  0  0
    0.4197   67.4235   65.8125 H   0  0  0  0  0  0  0  0  0  0  0  0
    0.2303   65.8678   66.7283 H   0  0  0  0  0  0  0  0  0  0  0  0
   -4.5200   69.4153   66.1223 H   0  0  0  0  0  0  0  0  0  0  0  0
   -3.4710   69.8848   64.7418 H   0  0  0  0  0  0  0  0  0  0  0  0
   -4.2945   68.2884   64.7418 H   0  0  0  0  0  0  0  0  0  0  0  0
   -2.2015   67.7322   65.4320 H   0  0  0  0  0  0  0  0  0  0  0  0
   -0.8814   69.5430   65.4418 H   0  0  0  0  0  0  0  0  0  0  0  0
   -2.0185   70.4213   66.5625 H   0  0  0  0  0  0  0  0  0  0  0  0
    0.3726   69.5414   67.3942 H   0  0  0  0  0  0  0  0  0  0  0  0
   -1.1138   69.5157   68.4497 H   0  0  0  0  0  0  0  0  0  0  0  0
   -0.0069   67.4935   68.6683 H   0  0  0  0  0  0  0  0  0  0  0  0
   -1.7619   65.9073   67.4345 H   0  0  0  0  0  0  0  0  0  0  0  0
   -2.0081   66.7978   69.0095 H   0  0  0  0  0  0  0  0  0  0  0  0
   -3.8173   66.9603   67.0659 H   0  0  0  0  0  0  0  0  0  0  0  0
   -3.3667   68.3999   68.0694 H   0  0  0  0  0  0  0  0  0  0  0  0
  2  1  1  0
  3  2  2  0
  4  3  1  0
  5  4  2  0
  6  5  1  0
  7  6  2  0
  7  2  1  0
  8  7  1  0
  9  8  1  0
 10  9  2  0
 10  1  1  0
 11 10  1  0
 12 11  2  0
 13 12  1  0
 14 13  2  0
 14  9  1  0
 15 12  1  0
 16 15  1  0
 17 15  1  0
 18 15  1  0
 19  1  1  0
 20 19  1  0
 21 20  1  0
 23 22  1  0
 24 23  1  0
 25 24  1  0
 26 25  1  0
 26 21  1  0
 27 26  1  0
 28 27  1  0
 28 23  1  0
  3 29  1  0
  4 30  1  0
  5 31  1  0
  6 32  1  0
 11 33  1  0
 13 34  1  0
 14 35  1  0
 19 36  1  0
 19 37  1  0
 20 38  1  0
 20 39  1  0
 21 40  1  0
 21 41  1  0
 22 42  1  0
 22 43  1  0
 22 44  1  0
 23 45  1  0
 24 46  1  0
 24 47  1  0
 25 48  1  0
 25 49  1  0
 26 50  1  0
 27 51  1  0
 27 52  1  0
 28 53  1  0
 28 54  1  0
M  CHG  2  23   1  26   1
M  END
>  <score>  (3) 
-8.904

$$$$
=
     RDKit          3D

 54 57  0  0  0  0  0  0  0  0999 V2000
    3.1130   67.8590   65.4740 N   0  0  0  0  0  0  0  0  0  0  0  0
    3.5240   66.7190   64.7220 C   0  0  0  0  0  0  0  0  0  0  0  0
    3.0020   65.4620   65.0650 C   0  0  0  0  0  0  0  0  0  0  0  0
    3.3870   64.3130   64.3710 C   0  0  0  0  0  0  0  0  0  0  0  0
    4.3050   64.4050   63.3290 C   0  0  0  0  0  0  0  0  0  0  0  0
    4.8630   65.6400   62.9980 C   0  0  0  0  0  0  0  0  0  0  0  0
    4.4980   66.7920   63.7050 C   0  0  0  0  0  0  0  0  0  0  0  0
    5.3130   68.3320   63.3180 S   0  0  0  0  0  0  0  0  0  0  0  0
    5.1910   69.1340   64.9150 C   0  0  0  0  0  0  0  0  0  0  0  0
    4.1340   68.8330   65.8030 C   0  0  0  0  0  0  0  0  0  0  0  0
    4.0620   69.4900   67.0400 C   0  0  0  0  0  0  0  0  0  0  0  0
    5.0180   70.4540   67.3990 C   0  0  0  0  0  0  0  0  0  0  0  0
    6.0600   70.7440   66.5060 C   0  0  0  0  0  0  0  0  0  0  0  0
    6.1430   70.0910   65.2710 C   0  0  0  0  0  0  0  0  0  0  0  0
    4.9300   71.1370   68.7450 C   0  0  0  0  0  0  0  0  0  0  0  0
    5.1710   72.4710   68.6630 F   0  0  0  0  0  0  0  0  0  0  0  0
    3.7180   70.9980   69.3420 F   0  0  0  0  0  0  0  0  0  0  0  0
    5.8430   70.6410   69.6270 F   0  0  0  0  0  0  0  0  0  0  0  0
    2.0360   68.6450   64.8010 C   0  0  0  0  0  0  0  0  0  0  0  0
    0.6120   68.2720   65.2460 C   0  0  0  0  0  0  0  0  0  0  0  0
    0.6060   67.3120   66.4390 C   0  0  0  0  0  0  0  0  0  0  0  0
   -4.1370   68.7780   65.8390 C   0  0  0  0  0  0  0  0  0  0  0  0
   -2.7620   68.3380   66.3030 N   0  0  0  0  0  4  0  0  0  0  0  0
   -1.8040   69.5240   66.4170 C   0  0  0  0  0  0  0  0  0  0  0  0
   -0.6720   69.2880   67.4530 C   0  0  0  0  0  0  0  0  0  0  0  0
   -0.2730   67.8200   67.5760 N   0  0  0  0  0  4  0  0  0  0  0  0
   -1.4530   66.9100   67.9460 C   0  0  0  0  0  0  0  0  0  0  0  0
   -2.8350   67.5130   67.5780 C   0  0  0  0  0  0  0  0  0  0  0  0
    2.2803   65.3809   65.8912 H   0  0  0  0  0  0  0  0  0  0  0  0
    2.9649   63.3356   64.6478 H   0  0  0  0  0  0  0  0  0  0  0  0
    4.5906   63.5039   62.7664 H   0  0  0  0  0  0  0  0  0  0  0  0
    5.5929   65.7090   62.1780 H   0  0  0  0  0  0  0  0  0  0  0  0
    3.2468   69.2472   67.7375 H   0  0  0  0  0  0  0  0  0  0  0  0
    6.8191   71.4918   66.7790 H   0  0  0  0  0  0  0  0  0  0  0  0
    6.9620   70.3329   64.5777 H   0  0  0  0  0  0  0  0  0  0  0  0
    2.1981   69.7106   65.0205 H   0  0  0  0  0  0  0  0  0  0  0  0
    2.1018   68.4164   63.7270 H   0  0  0  0  0  0  0  0  0  0  0  0
    0.0783   69.1911   65.5295 H   0  0  0  0  0  0  0  0  0  0  0  0
    0.1197   67.7636   64.4039 H   0  0  0  0  0  0  0  0  0  0  0  0
    0.2268   66.3345   66.1064 H   0  0  0  0  0  0  0  0  0  0  0  0
    1.6363   67.2317   66.8158 H   0  0  0  0  0  0  0  0  0  0  0  0
   -4.7717   68.9811   66.7142 H   0  0  0  0  0  0  0  0  0  0  0  0
   -4.0446   69.6914   65.2331 H   0  0  0  0  0  0  0  0  0  0  0  0
   -4.5921   67.9806   65.2331 H   0  0  0  0  0  0  0  0  0  0  0  0
   -2.3718   67.7157   65.5809 H   0  0  0  0  0  0  0  0  0  0  0  0
   -1.3472   69.7023   65.4323 H   0  0  0  0  0  0  0  0  0  0  0  0
   -2.3896   70.3900   66.7591 H   0  0  0  0  0  0  0  0  0  0  0  0
    0.2113   69.8667   67.1450 H   0  0  0  0  0  0  0  0  0  0  0  0
   -1.0516   69.6092   68.4342 H   0  0  0  0  0  0  0  0  0  0  0  0
    0.3568   67.7701   68.3895 H   0  0  0  0  0  0  0  0  0  0  0  0
   -1.3366   65.9543   67.4139 H   0  0  0  0  0  0  0  0  0  0  0  0
   -1.4347   66.7823   69.0384 H   0  0  0  0  0  0  0  0  0  0  0  0
   -3.5550   66.6941   67.4330 H   0  0  0  0  0  0  0  0  0  0  0  0
   -3.1526   68.1734   68.3984 H   0  0  0  0  0  0  0  0  0  0  0  0
  2  1  1  0
  3  2  2  0
  4  3  1  0
  5  4  2  0
  6  5  1  0
  7  6  2  0
  7  2  1  0
  8  7  1  0
  9  8  1  0
 10  9  2  0
 10  1  1  0
 11 10  1  0
 12 11  2  0
 13 12  1  0
 14 13  2  0
 14  9  1  0
 15 12  1  0
 16 15  1  0
 17 15  1  0
 18 15  1  0
 19  1  1  0
 20 19  1  0
 21 20  1  0
 23 22  1  0
 24 23  1  0
 25 24  1  0
 26 25  1  0
 26 21  1  0
 27 26  1  0
 28 27  1  0
 28 23  1  0
  3 29  1  0
  4 30  1  0
  5 31  1  0
  6 32  1  0
 11 33  1  0
 13 34  1  0
 14 35  1  0
 19 36  1  0
 19 37  1  0
 20 38  1  0
 20 39  1  0
 21 40  1  0
 21 41  1  0
 22 42  1  0
 22 43  1  0
 22 44  1  0
 23 45  1  0
 24 46  1  0
 24 47  1  0
 25 48  1  0
 25 49  1  0
 26 50  1  0
 27 51  1  0
 27 52  1  0
 28 53  1  0
 28 54  1  0
M  CHG  2  23   1  26   1
M  END
>  <score>  (4) 
-8.746

$$$$
=
     RDKit          3D

 54 57  0  0  0  0  0  0  0  0999 V2000
    1.8450   68.0310   64.2750 N   0  0  0  0  0  0  0  0  0  0  0  0
    1.1560   68.7560   63.2590 C   0  0  0  0  0  0  0  0  0  0  0  0
   -0.2140   69.0140   63.4270 C   0  0  0  0  0  0  0  0  0  0  0  0
   -0.9380   69.7040   62.4530 C   0  0  0  0  0  0  0  0  0  0  0  0
   -0.3030   70.1420   61.2940 C   0  0  0  0  0  0  0  0  0  0  0  0
    1.0490   69.8620   61.0930 C   0  0  0  0  0  0  0  0  0  0  0  0
    1.7750   69.1510   62.0560 C   0  0  0  0  0  0  0  0  0  0  0  0
    3.4740   68.7250   61.7110 S   0  0  0  0  0  0  0  0  0  0  0  0
    3.6020   67.2290   62.6860 C   0  0  0  0  0  0  0  0  0  0  0  0
    2.8060   67.0390   63.8370 C   0  0  0  0  0  0  0  0  0  0  0  0
    2.9420   65.8590   64.5850 C   0  0  0  0  0  0  0  0  0  0  0  0
    3.8700   64.8750   64.2120 C   0  0  0  0  0  0  0  0  0  0  0  0
    4.6550   65.0790   63.0680 C   0  0  0  0  0  0  0  0  0  0  0  0
    4.5250   66.2490   62.3130 C   0  0  0  0  0  0  0  0  0  0  0  0
    3.9870   63.6040   65.0230 C   0  0  0  0  0  0  0  0  0  0  0  0
    4.0470   63.8480   66.3580 F   0  0  0  0  0  0  0  0  0  0  0  0
    2.9510   62.7460   64.8330 F   0  0  0  0  0  0  0  0  0  0  0  0
    5.1150   62.9050   64.7140 F   0  0  0  0  0  0  0  0  0  0  0  0
    2.6050   68.9140   65.2100 C   0  0  0  0  0  0  0  0  0  0  0  0
    2.0840   68.8950   66.6580 C   0  0  0  0  0  0  0  0  0  0  0  0
    1.2570   67.6430   66.9640 C   0  0  0  0  0  0  0  0  0  0  0  0
   -3.4630   68.6730   65.6710 C   0  0  0  0  0  0  0  0  0  0  0  0
   -2.1410   68.3260   66.3290 N   0  0  0  0  0  4  0  0  0  0  0  0
   -1.3660   69.5830   66.7240 C   0  0  0  0  0  0  0  0  0  0  0  0
   -0.4020   69.3480   67.9170 C   0  0  0  0  0  0  0  0  0  0  0  0
    0.1460   67.9250   67.9690 N   0  0  0  0  0  4  0  0  0  0  0  0
   -0.9600   66.8620   68.0340 C   0  0  0  0  0  0  0  0  0  0  0  0
   -2.3240   67.3570   67.4860 C   0  0  0  0  0  0  0  0  0  0  0  0
   -0.7236   68.6678   64.3383 H   0  0  0  0  0  0  0  0  0  0  0  0
   -2.0099   69.9016   62.6012 H   0  0  0  0  0  0  0  0  0  0  0  0
   -0.8665   70.7081   60.5377 H   0  0  0  0  0  0  0  0  0  0  0  0
    1.5471   70.2017   60.1730 H   0  0  0  0  0  0  0  0  0  0  0  0
    2.3134   65.7039   65.4743 H   0  0  0  0  0  0  0  0  0  0  0  0
    5.3803   64.3110   62.7614 H   0  0  0  0  0  0  0  0  0  0  0  0
    5.1522   66.3982   61.4217 H   0  0  0  0  0  0  0  0  0  0  0  0
    3.6552   68.5868   65.2168 H   0  0  0  0  0  0  0  0  0  0  0  0
    2.4822   69.9437   64.8430 H   0  0  0  0  0  0  0  0  0  0  0  0
    2.9438   68.9267   67.3433 H   0  0  0  0  0  0  0  0  0  0  0  0
    1.4304   69.7697   66.7910 H   0  0  0  0  0  0  0  0  0  0  0  0
    0.8063   67.2777   66.0294 H   0  0  0  0  0  0  0  0  0  0  0  0
    1.9289   66.8902   67.4021 H   0  0  0  0  0  0  0  0  0  0  0  0
   -4.2177   68.8711   66.4464 H   0  0  0  0  0  0  0  0  0  0  0  0
   -3.3370   69.5685   65.0447 H   0  0  0  0  0  0  0  0  0  0  0  0
   -3.7930   67.8311   65.0447 H   0  0  0  0  0  0  0  0  0  0  0  0
   -1.5640   67.8338   65.6321 H   0  0  0  0  0  0  0  0  0  0  0  0
   -0.7771   69.9190   65.8578 H   0  0  0  0  0  0  0  0  0  0  0  0
   -2.1009   70.3391   67.0374 H   0  0  0  0  0  0  0  0  0  0  0  0
    0.4433   70.0461   67.8274 H   0  0  0  0  0  0  0  0  0  0  0  0
   -0.9753   69.5139   68.8410 H   0  0  0  0  0  0  0  0  0  0  0  0
    0.6331   67.8481   68.8733 H   0  0  0  0  0  0  0  0  0  0  0  0
   -0.6418   65.9912   67.4420 H   0  0  0  0  0  0  0  0  0  0  0  0
   -1.1080   66.6122   69.0950 H   0  0  0  0  0  0  0  0  0  0  0  0
   -2.9051   66.4903   67.1379 H   0  0  0  0  0  0  0  0  0  0  0  0
   -2.8513   67.8822   68.2960 H   0  0  0  0  0  0  0  0  0  0  0  0
  2  1  1  0
  3  2  2  0
  4  3  1  0
  5  4  2  0
  6  5  1  0
  7  6  2  0
  7  2  1  0
  8  7  1  0
  9  8  1  0
 10  9  2  0
 10  1  1  0
 11 10  1  0
 12 11  2  0
 13 12  1  0
 14 13  2  0
 14  9  1  0
 15 12  1  0
 16 15  1  0
 17 15  1  0
 18 15  1  0
 19  1  1  0
 20 19  1  0
 21 20  1  0
 23 22  1  0
 24 23  1  0
 25 24  1  0
 26 25  1  0
 26 21  1  0
 27 26  1  0
 28 27  1  0
 28 23  1  0
  3 29  1  0
  4 30  1  0
  5 31  1  0
  6 32  1  0
 11 33  1  0
 13 34  1  0
 14 35  1  0
 19 36  1  0
 19 37  1  0
 20 38  1  0
 20 39  1  0
 21 40  1  0
 21 41  1  0
 22 42  1  0
 22 43  1  0
 22 44  1  0
 23 45  1  0
 24 46  1  0
 24 47  1  0
 25 48  1  0
 25 49  1  0
 26 50  1  0
 27 51  1  0
 27 52  1  0
 28 53  1  0
 28 54  1  0
M  CHG  2  23   1  26   1
M  END
>  <score>  (5) 
-8.467

$$$$
=
     RDKit          3D

 54 57  0  0  0  0  0  0  0  0999 V2000
    1.5260   60.5410   73.2780 N   0  0  0  0  0  0  0  0  0  0  0  0
    1.8040   59.5500   74.2650 C   0  0  0  0  0  0  0  0  0  0  0  0
    1.7930   59.9260   75.6180 C   0  0  0  0  0  0  0  0  0  0  0  0
    2.0780   58.9970   76.6220 C   0  0  0  0  0  0  0  0  0  0  0  0
    2.3820   57.6810   76.2860 C   0  0  0  0  0  0  0  0  0  0  0  0
    2.4340   57.2980   74.9450 C   0  0  0  0  0  0  0  0  0  0  0  0
    2.1730   58.2300   73.9330 C   0  0  0  0  0  0  0  0  0  0  0  0
    2.3520   57.7240   72.2310 S   0  0  0  0  0  0  0  0  0  0  0  0
    2.7800   59.3030   71.5030 C   0  0  0  0  0  0  0  0  0  0  0  0
    2.3340   60.5150   72.0760 C   0  0  0  0  0  0  0  0  0  0  0  0
    2.6760   61.7340   71.4700 C   0  0  0  0  0  0  0  0  0  0  0  0
    3.4430   61.7620   70.2950 C   0  0  0  0  0  0  0  0  0  0  0  0
    3.8770   60.5500   69.7360 C   0  0  0  0  0  0  0  0  0  0  0  0
    3.5440   59.3300   70.3340 C   0  0  0  0  0  0  0  0  0  0  0  0
    3.8160   63.0880   69.6700 C   0  0  0  0  0  0  0  0  0  0  0  0
    3.9130   63.0110   68.3180 F   0  0  0  0  0  0  0  0  0  0  0  0
    2.9260   64.0790   69.9390 F   0  0  0  0  0  0  0  0  0  0  0  0
    5.0240   63.5360   70.1120 F   0  0  0  0  0  0  0  0  0  0  0  0
    0.1140   60.5010   72.7920 C   0  0  0  0  0  0  0  0  0  0  0  0
   -0.6690   61.8040   73.0270 C   0  0  0  0  0  0  0  0  0  0  0  0
   -1.0420   62.0040   74.4980 C   0  0  0  0  0  0  0  0  0  0  0  0
    1.7030   63.5820   78.3690 C   0  0  0  0  0  0  0  0  0  0  0  0
    0.8570   63.3840   77.1250 N   0  0  0  0  0  4  0  0  0  0  0  0
   -0.6320   63.3180   77.4650 C   0  0  0  0  0  0  0  0  0  0  0  0
   -1.5400   63.7670   76.2900 C   0  0  0  0  0  0  0  0  0  0  0  0
   -0.9370   63.4650   74.9210 N   0  0  0  0  0  4  0  0  0  0  0  0
    0.4460   64.1030   74.7250 C   0  0  0  0  0  0  0  0  0  0  0  0
    1.1740   64.4200   76.0580 C   0  0  0  0  0  0  0  0  0  0  0  0
    1.5570   60.9652   75.8909 H   0  0  0  0  0  0  0  0  0  0  0  0
    2.0621   59.3056   77.6777 H   0  0  0  0  0  0  0  0  0  0  0  0
    2.5812   56.9431   77.0771 H   0  0  0  0  0  0  0  0  0  0  0  0
    2.6812   56.2590   74.6817 H   0  0  0  0  0  0  0  0  0  0  0  0
    2.3388   62.6787   71.9215 H   0  0  0  0  0  0  0  0  0  0  0  0
    4.4847   60.5595   68.8191 H   0  0  0  0  0  0  0  0  0  0  0  0
    3.8855   58.3874   69.8814 H   0  0  0  0  0  0  0  0  0  0  0  0
    0.1264   60.2957   71.7114 H   0  0  0  0  0  0  0  0  0  0  0  0
   -0.3973   59.7158   73.3682 H   0  0  0  0  0  0  0  0  0  0  0  0
   -0.0489   62.6522   72.7014 H   0  0  0  0  0  0  0  0  0  0  0  0
   -1.6033   61.7423   72.4497 H   0  0  0  0  0  0  0  0  0  0  0  0
   -2.0767   61.6635   74.6513 H   0  0  0  0  0  0  0  0  0  0  0  0
   -0.3365   61.4221   75.1093 H   0  0  0  0  0  0  0  0  0  0  0  0
    1.0796   63.4361   79.2634 H   0  0  0  0  0  0  0  0  0  0  0  0
    2.5260   62.8522   78.3727 H   0  0  0  0  0  0  0  0  0  0  0  0
    2.1167   64.6012   78.3727 H   0  0  0  0  0  0  0  0  0  0  0  0
    1.1044   62.4699   76.7200 H   0  0  0  0  0  0  0  0  0  0  0  0
   -0.8862   62.2807   77.7285 H   0  0  0  0  0  0  0  0  0  0  0  0
   -0.8103   64.0085   78.3025 H   0  0  0  0  0  0  0  0  0  0  0  0
   -2.5037   63.2430   76.3718 H   0  0  0  0  0  0  0  0  0  0  0  0
   -1.6581   64.8581   76.3639 H   0  0  0  0  0  0  0  0  0  0  0  0
   -1.5425   63.9433   74.2387 H   0  0  0  0  0  0  0  0  0  0  0  0
    1.0706   63.4091   74.1433 H   0  0  0  0  0  0  0  0  0  0  0  0
    0.2910   65.0597   74.2047 H   0  0  0  0  0  0  0  0  0  0  0  0
    2.2594   64.4288   75.8794 H   0  0  0  0  0  0  0  0  0  0  0  0
    0.8285   65.4012   76.4156 H   0  0  0  0  0  0  0  0  0  0  0  0
  2  1  1  0
  3  2  2  0
  4  3  1  0
  5  4  2  0
  6  5  1  0
  7  6  2  0
  7  2  1  0
  8  7  1  0
  9  8  1  0
 10  9  2  0
 10  1  1  0
 11 10  1  0
 12 11  2  0
 13 12  1  0
 14 13  2  0
 14  9  1  0
 15 12  1  0
 16 15  1  0
 17 15  1  0
 18 15  1  0
 19  1  1  0
 20 19  1  0
 21 20  1  0
 23 22  1  0
 24 23  1  0
 25 24  1  0
 26 25  1  0
 26 21  1  0
 27 26  1  0
 28 27  1  0
 28 23  1  0
  3 29  1  0
  4 30  1  0
  5 31  1  0
  6 32  1  0
 11 33  1  0
 13 34  1  0
 14 35  1  0
 19 36  1  0
 19 37  1  0
 20 38  1  0
 20 39  1  0
 21 40  1  0
 21 41  1  0
 22 42  1  0
 22 43  1  0
 22 44  1  0
 23 45  1  0
 24 46  1  0
 24 47  1  0
 25 48  1  0
 25 49  1  0
 26 50  1  0
 27 51  1  0
 27 52  1  0
 28 53  1  0
 28 54  1  0
M  CHG  2  23   1  26   1
M  END
>  <score>  (6) 
-8.157

$$$$
=
     RDKit          3D

 54 57  0  0  0  0  0  0  0  0999 V2000
    1.5790   60.5620   73.2970 N   0  0  0  0  0  0  0  0  0  0  0  0
    1.7940   59.5200   74.2470 C   0  0  0  0  0  0  0  0  0  0  0  0
    1.7700   59.8390   75.6140 C   0  0  0  0  0  0  0  0  0  0  0  0
    1.9930   58.8580   76.5830 C   0  0  0  0  0  0  0  0  0  0  0  0
    2.2490   57.5450   76.1970 C   0  0  0  0  0  0  0  0  0  0  0  0
    2.3130   57.2170   74.8420 C   0  0  0  0  0  0  0  0  0  0  0  0
    2.1130   58.2000   73.8660 C   0  0  0  0  0  0  0  0  0  0  0  0
    2.3080   57.7590   72.1480 S   0  0  0  0  0  0  0  0  0  0  0  0
    2.8170   59.3470   71.4960 C   0  0  0  0  0  0  0  0  0  0  0  0
    2.4110   60.5520   72.1110 C   0  0  0  0  0  0  0  0  0  0  0  0
    2.8170   61.7790   71.5650 C   0  0  0  0  0  0  0  0  0  0  0  0
    3.6090   61.8230   70.4070 C   0  0  0  0  0  0  0  0  0  0  0  0
    4.0040   60.6180   69.8060 C   0  0  0  0  0  0  0  0  0  0  0  0
    3.6070   59.3890   70.3450 C   0  0  0  0  0  0  0  0  0  0  0  0
    4.0510   63.1560   69.8470 C   0  0  0  0  0  0  0  0  0  0  0  0
    3.1980   64.1610   70.1760 F   0  0  0  0  0  0  0  0  0  0  0  0
    5.2830   63.5380   70.2730 F   0  0  0  0  0  0  0  0  0  0  0  0
    4.1110   63.1410   68.4860 F   0  0  0  0  0  0  0  0  0  0  0  0
    0.1780   60.6030   72.7830 C   0  0  0  0  0  0  0  0  0  0  0  0
   -0.7580   61.5320   73.5770 C   0  0  0  0  0  0  0  0  0  0  0  0
   -2.2060   61.0360   73.5800 C   0  0  0  0  0  0  0  0  0  0  0  0
   -6.1490   58.2020   74.7750 C   0  0  0  0  0  0  0  0  0  0  0  0
   -4.9110   59.0750   74.6990 N   0  0  0  0  0  4  0  0  0  0  0  0
   -5.2770   60.5570   74.6000 C   0  0  0  0  0  0  0  0  0  0  0  0
   -4.1710   61.4900   75.1610 C   0  0  0  0  0  0  0  0  0  0  0  0
   -2.7670   60.9180   74.9930 N   0  0  0  0  0  4  0  0  0  0  0  0
   -2.6020   59.5390   75.6480 C   0  0  0  0  0  0  0  0  0  0  0  0
   -3.9430   58.7810   75.8340 C   0  0  0  0  0  0  0  0  0  0  0  0
    1.5730   60.8752   75.9261 H   0  0  0  0  0  0  0  0  0  0  0  0
    1.9664   59.1226   77.6504 H   0  0  0  0  0  0  0  0  0  0  0  0
    2.4007   56.7668   76.9595 H   0  0  0  0  0  0  0  0  0  0  0  0
    2.5218   56.1802   74.5394 H   0  0  0  0  0  0  0  0  0  0  0  0
    2.5110   62.7176   72.0502 H   0  0  0  0  0  0  0  0  0  0  0  0
    4.6315   60.6396   68.9028 H   0  0  0  0  0  0  0  0  0  0  0  0
    3.9185   58.4521   69.8601 H   0  0  0  0  0  0  0  0  0  0  0  0
    0.2034   60.9490   71.7391 H   0  0  0  0  0  0  0  0  0  0  0  0
   -0.2261   59.5850   72.8846 H   0  0  0  0  0  0  0  0  0  0  0  0
   -0.4016   61.5885   74.6161 H   0  0  0  0  0  0  0  0  0  0  0  0
   -0.7422   62.5190   73.0917 H   0  0  0  0  0  0  0  0  0  0  0  0
   -2.8252   61.7445   73.0102 H   0  0  0  0  0  0  0  0  0  0  0  0
   -2.2231   60.0355   73.1232 H   0  0  0  0  0  0  0  0  0  0  0  0
   -6.4058   58.0209   75.8292 H   0  0  0  0  0  0  0  0  0  0  0  0
   -6.9871   58.7100   74.2755 H   0  0  0  0  0  0  0  0  0  0  0  0
   -5.9519   57.2420   74.2755 H   0  0  0  0  0  0  0  0  0  0  0  0
   -4.4132   58.8375   73.8291 H   0  0  0  0  0  0  0  0  0  0  0  0
   -5.4444   60.8075   73.5421 H   0  0  0  0  0  0  0  0  0  0  0  0
   -6.1815   60.7152   75.2057 H   0  0  0  0  0  0  0  0  0  0  0  0
   -4.2229   62.4529   74.6317 H   0  0  0  0  0  0  0  0  0  0  0  0
   -4.3529   61.6042   76.2398 H   0  0  0  0  0  0  0  0  0  0  0  0
   -2.1481   61.5376   75.5352 H   0  0  0  0  0  0  0  0  0  0  0  0
   -1.9415   58.9288   75.0145 H   0  0  0  0  0  0  0  0  0  0  0  0
   -2.1803   59.7039   76.6505 H   0  0  0  0  0  0  0  0  0  0  0  0
   -3.7418   57.6999   75.8612 H   0  0  0  0  0  0  0  0  0  0  0  0
   -4.4021   59.1175   76.7752 H   0  0  0  0  0  0  0  0  0  0  0  0
  2  1  1  0
  3  2  2  0
  4  3  1  0
  5  4  2  0
  6  5  1  0
  7  6  2  0
  7  2  1  0
  8  7  1  0
  9  8  1  0
 10  9  2  0
 10  1  1  0
 11 10  1  0
 12 11  2  0
 13 12  1  0
 14 13  2  0
 14  9  1  0
 15 12  1  0
 16 15  1  0
 17 15  1  0
 18 15  1  0
 19  1  1  0
 20 19  1  0
 21 20  1  0
 23 22  1  0
 24 23  1  0
 25 24  1  0
 26 25  1  0
 26 21  1  0
 27 26  1  0
 28 27  1  0
 28 23  1  0
  3 29  1  0
  4 30  1  0
  5 31  1  0
  6 32  1  0
 11 33  1  0
 13 34  1  0
 14 35  1  0
 19 36  1  0
 19 37  1  0
 20 38  1  0
 20 39  1  0
 21 40  1  0
 21 41  1  0
 22 42  1  0
 22 43  1  0
 22 44  1  0
 23 45  1  0
 24 46  1  0
 24 47  1  0
 25 48  1  0
 25 49  1  0
 26 50  1  0
 27 51  1  0
 27 52  1  0
 28 53  1  0
 28 54  1  0
M  CHG  2  23   1  26   1
M  END
>  <score>  (7) 
-7.807

$$$$
=
     RDKit          3D

 54 57  0  0  0  0  0  0  0  0999 V2000
    2.5260   59.2120   72.8430 N   0  0  0  0  0  0  0  0  0  0  0  0
    1.4230   58.4300   73.2950 C   0  0  0  0  0  0  0  0  0  0  0  0
    1.5230   57.0310   73.2440 C   0  0  0  0  0  0  0  0  0  0  0  0
    0.4630   56.2200   73.6580 C   0  0  0  0  0  0  0  0  0  0  0  0
   -0.7140   56.8000   74.1220 C   0  0  0  0  0  0  0  0  0  0  0  0
   -0.8460   58.1890   74.1440 C   0  0  0  0  0  0  0  0  0  0  0  0
    0.2040   59.0060   73.7100 C   0  0  0  0  0  0  0  0  0  0  0  0
   -0.0460   60.7720   73.6570 S   0  0  0  0  0  0  0  0  0  0  0  0
    1.0780   61.1840   72.3260 C   0  0  0  0  0  0  0  0  0  0  0  0
    2.2180   60.3940   72.0630 C   0  0  0  0  0  0  0  0  0  0  0  0
    3.0850   60.7540   71.0190 C   0  0  0  0  0  0  0  0  0  0  0  0
    2.8400   61.8990   70.2450 C   0  0  0  0  0  0  0  0  0  0  0  0
    1.7040   62.6760   70.5190 C   0  0  0  0  0  0  0  0  0  0  0  0
    0.8320   62.3230   71.5540 C   0  0  0  0  0  0  0  0  0  0  0  0
    3.7780   62.2580   69.1140 C   0  0  0  0  0  0  0  0  0  0  0  0
    4.6390   63.2520   69.4540 F   0  0  0  0  0  0  0  0  0  0  0  0
    4.5390   61.2140   68.6930 F   0  0  0  0  0  0  0  0  0  0  0  0
    3.1040   62.7000   68.0160 F   0  0  0  0  0  0  0  0  0  0  0  0
    3.3890   59.7030   73.9580 C   0  0  0  0  0  0  0  0  0  0  0  0
    3.7860   58.6170   74.9730 C   0  0  0  0  0  0  0  0  0  0  0  0
    3.4080   58.9940   76.4080 C   0  0  0  0  0  0  0  0  0  0  0  0
   -0.8300   56.7800   77.8700 C   0  0  0  0  0  0  0  0  0  0  0  0
    0.5830   57.2130   77.5310 N   0  0  0  0  0  4  0  0  0  0  0  0
    1.1730   58.1050   78.6240 C   0  0  0  0  0  0  0  0  0  0  0  0
    2.7220   58.0400   78.6850 C   0  0  0  0  0  0  0  0  0  0  0  0
    3.3620   57.7770   77.3250 N   0  0  0  0  0  4  0  0  0  0  0  0
    2.8580   56.4840   76.6680 C   0  0  0  0  0  0  0  0  0  0  0  0
    1.4720   56.0260   77.1940 C   0  0  0  0  0  0  0  0  0  0  0  0
    2.4485   56.5665   72.8730 H   0  0  0  0  0  0  0  0  0  0  0  0
    0.5587   55.1249   73.6172 H   0  0  0  0  0  0  0  0  0  0  0  0
   -1.5403   56.1634   74.4714 H   0  0  0  0  0  0  0  0  0  0  0  0
   -1.7803   58.6441   74.5044 H   0  0  0  0  0  0  0  0  0  0  0  0
    3.9664   60.1316   70.8052 H   0  0  0  0  0  0  0  0  0  0  0  0
    1.4974   63.5712   69.9140 H   0  0  0  0  0  0  0  0  0  0  0  0
   -0.0515   62.9446   71.7614 H   0  0  0  0  0  0  0  0  0  0  0  0
    4.3086   60.1221   73.5237 H   0  0  0  0  0  0  0  0  0  0  0  0
    2.7991   60.4503   74.5089 H   0  0  0  0  0  0  0  0  0  0  0  0
    3.2738   57.6806   74.7071 H   0  0  0  0  0  0  0  0  0  0  0  0
    4.8794   58.5035   74.9327 H   0  0  0  0  0  0  0  0  0  0  0  0
    4.1532   59.7036   76.7968 H   0  0  0  0  0  0  0  0  0  0  0  0
    2.4038   59.4426   76.3881 H   0  0  0  0  0  0  0  0  0  0  0  0
   -0.9500   56.7432   78.9628 H   0  0  0  0  0  0  0  0  0  0  0  0
   -1.5457   57.5000   77.4466 H   0  0  0  0  0  0  0  0  0  0  0  0
   -1.0194   55.7826   77.4466 H   0  0  0  0  0  0  0  0  0  0  0  0
    0.5372   57.7878   76.6776 H   0  0  0  0  0  0  0  0  0  0  0  0
    0.8727   59.1450   78.4285 H   0  0  0  0  0  0  0  0  0  0  0  0
    0.7890   57.7428   79.5890 H   0  0  0  0  0  0  0  0  0  0  0  0
    3.0982   58.9994   79.0697 H   0  0  0  0  0  0  0  0  0  0  0  0
    2.9903   57.2001   79.3427 H   0  0  0  0  0  0  0  0  0  0  0  0
    4.3581   57.5985   77.5168 H   0  0  0  0  0  0  0  0  0  0  0  0
    2.7818   56.6506   75.5834 H   0  0  0  0  0  0  0  0  0  0  0  0
    3.5784   55.6908   76.9169 H   0  0  0  0  0  0  0  0  0  0  0  0
    0.9791   55.4187   76.4205 H   0  0  0  0  0  0  0  0  0  0  0  0
    1.6279   55.4403   78.1120 H   0  0  0  0  0  0  0  0  0  0  0  0
  2  1  1  0
  3  2  2  0
  4  3  1  0
  5  4  2  0
  6  5  1  0
  7  6  2  0
  7  2  1  0
  8  7  1  0
  9  8  1  0
 10  9  2  0
 10  1  1  0
 11 10  1  0
 12 11  2  0
 13 12  1  0
 14 13  2  0
 14  9  1  0
 15 12  1  0
 16 15  1  0
 17 15  1  0
 18 15  1  0
 19  1  1  0
 20 19  1  0
 21 20  1  0
 23 22  1  0
 24 23  1  0
 25 24  1  0
 26 25  1  0
 26 21  1  0
 27 26  1  0
 28 27  1  0
 28 23  1  0
  3 29  1  0
  4 30  1  0
  5 31  1  0
  6 32  1  0
 11 33  1  0
 13 34  1  0
 14 35  1  0
 19 36  1  0
 19 37  1  0
 20 38  1  0
 20 39  1  0
 21 40  1  0
 21 41  1  0
 22 42  1  0
 22 43  1  0
 22 44  1  0
 23 45  1  0
 24 46  1  0
 24 47  1  0
 25 48  1  0
 25 49  1  0
 26 50  1  0
 27 51  1  0
 27 52  1  0
 28 53  1  0
 28 54  1  0
M  CHG  2  23   1  26   1
M  END
>  <score>  (8) 
-7.643

$$$$
=
     RDKit          3D

 54 57  0  0  0  0  0  0  0  0999 V2000
    1.0700   62.0810   73.2960 N   0  0  0  0  0  0  0  0  0  0  0  0
    1.3440   63.0400   72.2770 C   0  0  0  0  0  0  0  0  0  0  0  0
    0.3810   64.0230   72.0000 C   0  0  0  0  0  0  0  0  0  0  0  0
    0.5940   64.9740   71.0000 C   0  0  0  0  0  0  0  0  0  0  0  0
    1.7720   64.9510   70.2580 C   0  0  0  0  0  0  0  0  0  0  0  0
    2.7240   63.9580   70.4940 C   0  0  0  0  0  0  0  0  0  0  0  0
    2.5060   62.9890   71.4800 C   0  0  0  0  0  0  0  0  0  0  0  0
    3.7010   61.6780   71.6760 S   0  0  0  0  0  0  0  0  0  0  0  0
    2.6220   60.3930   72.2990 C   0  0  0  0  0  0  0  0  0  0  0  0
    1.4550   60.7100   73.0280 C   0  0  0  0  0  0  0  0  0  0  0  0
    0.6390   59.6760   73.5130 C   0  0  0  0  0  0  0  0  0  0  0  0
    0.9770   58.3310   73.2950 C   0  0  0  0  0  0  0  0  0  0  0  0
    2.1410   58.0310   72.5700 C   0  0  0  0  0  0  0  0  0  0  0  0
    2.9590   59.0540   72.0800 C   0  0  0  0  0  0  0  0  0  0  0  0
    0.0740   57.2340   73.8110 C   0  0  0  0  0  0  0  0  0  0  0  0
   -1.1380   57.7060   74.2040 F   0  0  0  0  0  0  0  0  0  0  0  0
   -0.1690   56.2600   72.8950 F   0  0  0  0  0  0  0  0  0  0  0  0
    0.6060   56.6050   74.8960 F   0  0  0  0  0  0  0  0  0  0  0  0
    1.7150   62.4130   74.6000 C   0  0  0  0  0  0  0  0  0  0  0  0
    0.7610   62.3650   75.8060 C   0  0  0  0  0  0  0  0  0  0  0  0
   -0.6400   62.8760   75.4620 C   0  0  0  0  0  0  0  0  0  0  0  0
   -5.2410   64.7890   75.8920 C   0  0  0  0  0  0  0  0  0  0  0  0
   -3.9540   63.9860   75.9120 N   0  0  0  0  0  4  0  0  0  0  0  0
   -3.0400   64.4220   77.0580 C   0  0  0  0  0  0  0  0  0  0  0  0
   -2.0890   63.2920   77.5340 C   0  0  0  0  0  0  0  0  0  0  0  0
   -1.6980   62.3310   76.4150 N   0  0  0  0  0  4  0  0  0  0  0  0
   -2.9110   61.6770   75.7390 C   0  0  0  0  0  0  0  0  0  0  0  0
   -4.2220   62.4900   75.9070 C   0  0  0  0  0  0  0  0  0  0  0  0
   -0.5543   64.0444   72.5786 H   0  0  0  0  0  0  0  0  0  0  0  0
   -0.1684   65.7409   70.7985 H   0  0  0  0  0  0  0  0  0  0  0  0
    1.9521   65.7144   69.4868 H   0  0  0  0  0  0  0  0  0  0  0  0
    3.6507   63.9369   69.9018 H   0  0  0  0  0  0  0  0  0  0  0  0
   -0.2765   59.9226   74.0707 H   0  0  0  0  0  0  0  0  0  0  0  0
    2.4123   56.9811   72.3855 H   0  0  0  0  0  0  0  0  0  0  0  0
    3.8719   58.8039   71.5196 H   0  0  0  0  0  0  0  0  0  0  0  0
    2.5289   61.6940   74.7752 H   0  0  0  0  0  0  0  0  0  0  0  0
    2.0722   63.4504   74.5208 H   0  0  0  0  0  0  0  0  0  0  0  0
    0.6821   61.3241   76.1529 H   0  0  0  0  0  0  0  0  0  0  0  0
    1.1745   63.0198   76.5872 H   0  0  0  0  0  0  0  0  0  0  0  0
   -0.6415   63.9744   75.5207 H   0  0  0  0  0  0  0  0  0  0  0  0
   -0.8873   62.5308   74.4473 H   0  0  0  0  0  0  0  0  0  0  0  0
   -5.5637   64.9903   76.9242 H   0  0  0  0  0  0  0  0  0  0  0  0
   -5.0708   65.7415   75.3687 H   0  0  0  0  0  0  0  0  0  0  0  0
   -6.0217   64.2175   75.3687 H   0  0  0  0  0  0  0  0  0  0  0  0
   -3.4456   64.1883   75.0394 H   0  0  0  0  0  0  0  0  0  0  0  0
   -2.4316   65.2729   76.7177 H   0  0  0  0  0  0  0  0  0  0  0  0
   -3.6827   64.6932   77.9085 H   0  0  0  0  0  0  0  0  0  0  0  0
   -1.1743   63.7505   77.9378 H   0  0  0  0  0  0  0  0  0  0  0  0
   -2.6267   62.7086   78.2959 H   0  0  0  0  0  0  0  0  0  0  0  0
   -1.2081   61.5513   76.8765 H   0  0  0  0  0  0  0  0  0  0  0  0
   -2.6988   61.5755   74.6644 H   0  0  0  0  0  0  0  0  0  0  0  0
   -3.0681   60.7029   76.2253 H   0  0  0  0  0  0  0  0  0  0  0  0
   -4.8997   62.2512   75.0741 H   0  0  0  0  0  0  0  0  0  0  0  0
   -4.6753   62.2178   76.8716 H   0  0  0  0  0  0  0  0  0  0  0  0
  2  1  1  0
  3  2  2  0
  4  3  1  0
  5  4  2  0
  6  5  1  0
  7  6  2  0
  7  2  1  0
  8  7  1  0
  9  8  1  0
 10  9  2  0
 10  1  1  0
 11 10  1  0
 12 11  2  0
 13 12  1  0
 14 13  2  0
 14  9  1  0
 15 12  1  0
 16 15  1  0
 17 15  1  0
 18 15  1  0
 19  1  1  0
 20 19  1  0
 21 20  1  0
 23 22  1  0
 24 23  1  0
 25 24  1  0
 26 25  1  0
 26 21  1  0
 27 26  1  0
 28 27  1  0
 28 23  1  0
  3 29  1  0
  4 30  1  0
  5 31  1  0
  6 32  1  0
 11 33  1  0
 13 34  1  0
 14 35  1  0
 19 36  1  0
 19 37  1  0
 20 38  1  0
 20 39  1  0
 21 40  1  0
 21 41  1  0
 22 42  1  0
 22 43  1  0
 22 44  1  0
 23 45  1  0
 24 46  1  0
 24 47  1  0
 25 48  1  0
 25 49  1  0
 26 50  1  0
 27 51  1  0
 27 52  1  0
 28 53  1  0
 28 54  1  0
M  CHG  2  23   1  26   1
M  END
>  <score>  (9) 
-7.618

$$$$
