=
     RDKit          3D

 48 51  0  0  0  0  0  0  0  0999 V2000
   -0.7720   58.4820   74.6280 F   0  0  0  0  0  0  0  0  0  0  0  0
    0.0710   59.1980   73.8570 C   0  0  0  0  0  0  0  0  0  0  0  0
    1.3700   58.6870   73.6440 C   0  0  0  0  0  0  0  0  0  0  0  0
    2.2130   59.4260   72.8050 C   0  0  0  0  0  0  0  0  0  0  0  0
    1.8060   60.6360   72.2110 C   0  0  0  0  0  0  0  0  0  0  0  0
    0.4950   61.1150   72.4630 C   0  0  0  0  0  0  0  0  0  0  0  0
   -0.3840   60.3980   73.3000 C   0  0  0  0  0  0  0  0  0  0  0  0
   -1.7790   60.8600   73.6150 C   0  0  0  0  0  0  0  0  0  0  0  0
    0.0770   62.3950   71.8040 C   0  0  0  0  0  0  0  0  0  0  0  0
   -1.1100   62.6720   71.6820 O   0  0  0  0  0  0  0  0  0  0  0  0
    1.1510   63.2440   71.2690 C   0  0  0  0  0  0  0  0  0  0  0  0
    2.3520   62.6920   71.0750 C   0  0  0  0  0  0  0  0  0  0  0  0
    2.6910   61.3890   71.3800 N   0  0  0  0  0  0  0  0  0  0  0  0
    1.7670   57.4820   74.2560 N   0  0  0  0  0  0  0  0  0  0  0  0
    2.9280   57.6420   75.1580 C   0  0  0  0  0  0  0  0  0  0  0  0
    3.0040   56.4460   76.1210 C   0  0  0  0  0  0  0  0  0  0  0  0
    2.9960   55.1410   75.3520 N   0  0  0  0  0  4  0  0  0  0  0  0
    1.8460   55.0040   74.3660 C   0  0  2  0  0  0  0  0  0  0  0  0
    1.7690   56.2520   73.4480 C   0  0  0  0  0  0  0  0  0  0  0  0
    0.5520   54.7440   75.1300 C   0  0  0  0  0  0  0  0  0  0  0  0
    4.0840   60.9790   71.1220 C   0  0  0  0  0  0  0  0  0  0  0  0
    5.1630   61.1550   72.1630 C   0  0  0  0  0  0  0  0  0  0  0  0
    5.1860   61.9900   70.9230 C   0  0  0  0  0  0  0  0  0  0  0  0
    0.9640   64.7130   70.9690 C   0  0  0  0  0  0  0  0  0  0  0  0
    1.5020   65.1170   69.8990 O   0  0  0  0  0  0  0  0  0  0  0  0
    0.1980   65.3330   71.7640 O   0  0  0  0  0  1  0  0  0  0  0  0
    3.2265   59.0489   72.6033 H   0  0  0  0  0  0  0  0  0  0  0  0
   -1.9130   60.9044   74.7059 H   0  0  0  0  0  0  0  0  0  0  0  0
   -1.9402   61.8595   73.1848 H   0  0  0  0  0  0  0  0  0  0  0  0
   -2.5049   60.1543   73.1848 H   0  0  0  0  0  0  0  0  0  0  0  0
    3.1350   63.3279   70.6362 H   0  0  0  0  0  0  0  0  0  0  0  0
    3.8508   57.6903   74.5613 H   0  0  0  0  0  0  0  0  0  0  0  0
    2.8142   58.5700   75.7376 H   0  0  0  0  0  0  0  0  0  0  0  0
    3.9313   56.5135   76.7088 H   0  0  0  0  0  0  0  0  0  0  0  0
    2.1287   56.4706   76.7868 H   0  0  0  0  0  0  0  0  0  0  0  0
    3.8802   55.0693   74.8286 H   0  0  0  0  0  0  0  0  0  0  0  0
    2.8807   54.3894   76.0467 H   0  0  0  0  0  0  0  0  0  0  0  0
    2.0150   54.1427   73.7030 H   0  0  0  0  0  0  0  0  0  0  0  0
    2.6391   56.2615   72.7750 H   0  0  0  0  0  0  0  0  0  0  0  0
    0.8392   56.2078   72.8619 H   0  0  0  0  0  0  0  0  0  0  0  0
    0.7503   54.7838   76.2113 H   0  0  0  0  0  0  0  0  0  0  0  0
   -0.1907   55.5109   74.8649 H   0  0  0  0  0  0  0  0  0  0  0  0
    0.1631   53.7498   74.8649 H   0  0  0  0  0  0  0  0  0  0  0  0
    3.6866   60.1340   70.5406 H   0  0  0  0  0  0  0  0  0  0  0  0
    4.9215   61.6168   73.1317 H   0  0  0  0  0  0  0  0  0  0  0  0
    5.8788   60.4838   72.6602 H   0  0  0  0  0  0  0  0  0  0  0  0
    4.9616   63.0653   70.9809 H   0  0  0  0  0  0  0  0  0  0  0  0
    5.9260   62.1856   70.1330 H   0  0  0  0  0  0  0  0  0  0  0  0
  2  1  1  0
  3  2  2  0
  4  3  1  0
  5  4  2  0
  6  5  1  0
  7  2  1  0
  7  6  2  0
  8  7  1  0
  9  6  1  0
 10  9  2  0
 11  9  1  0
 12 11  2  0
 13 12  1  0
 13  5  1  0
 14  3  1  0
 15 14  1  0
 16 15  1  0
 17 16  1  0
 18 17  1  0
 19 18  1  0
 19 14  1  0
 20 18  1  0
 21 13  1  0
 22 21  1  0
 23 22  1  0
 23 21  1  0
 24 11  1  0
 25 24  2  0
 26 24  1  0
  4 27  1  0
  8 28  1  0
  8 29  1  0
  8 30  1  0
 12 31  1  0
 15 32  1  0
 15 33  1  0
 16 34  1  0
 16 35  1  0
 17 36  1  0
 17 37  1  0
 18 38  1  6
 19 39  1  0
 19 40  1  0
 20 41  1  0
 20 42  1  0
 20 43  1  0
 21 44  1  0
 22 45  1  0
 22 46  1  0
 23 47  1  0
 23 48  1  0
M  CHG  2  17   1  26  -1
M  END
>  <score>  (1) 
-8.575

$$$$
=
     RDKit          3D

 48 51  0  0  0  0  0  0  0  0999 V2000
    3.4090   59.0470   70.8260 F   0  0  0  0  0  0  0  0  0  0  0  0
    2.7650   60.1280   71.3070 C   0  0  0  0  0  0  0  0  0  0  0  0
    2.1360   60.0210   72.5660 C   0  0  0  0  0  0  0  0  0  0  0  0
    1.5110   61.1690   73.0640 C   0  0  0  0  0  0  0  0  0  0  0  0
    1.4820   62.3800   72.3450 C   0  0  0  0  0  0  0  0  0  0  0  0
    2.1190   62.4370   71.0780 C   0  0  0  0  0  0  0  0  0  0  0  0
    2.7610   61.3020   70.5450 C   0  0  0  0  0  0  0  0  0  0  0  0
    3.4410   61.2970   69.2040 C   0  0  0  0  0  0  0  0  0  0  0  0
    2.0930   63.7410   70.3400 C   0  0  0  0  0  0  0  0  0  0  0  0
    2.9010   63.9640   69.4460 O   0  0  0  0  0  0  0  0  0  0  0  0
    1.1060   64.7340   70.7850 C   0  0  0  0  0  0  0  0  0  0  0  0
    0.5620   64.5810   71.9960 C   0  0  0  0  0  0  0  0  0  0  0  0
    0.8150   63.5330   72.8590 N   0  0  0  0  0  0  0  0  0  0  0  0
    2.1620   58.7990   73.2680 N   0  0  0  0  0  0  0  0  0  0  0  0
    3.2530   58.7230   74.2630 C   0  0  0  0  0  0  0  0  0  0  0  0
    2.9450   57.6150   75.2840 C   0  0  0  0  0  0  0  0  0  0  0  0
    2.6590   56.3050   74.5810 N   0  0  0  0  0  4  0  0  0  0  0  0
    1.5900   56.3960   73.5030 C   0  0  2  0  0  0  0  0  0  0  0  0
    1.9080   57.5560   72.5230 C   0  0  0  0  0  0  0  0  0  0  0  0
    0.2190   56.5240   74.1570 C   0  0  0  0  0  0  0  0  0  0  0  0
    0.0860   63.5270   74.1410 C   0  0  0  0  0  0  0  0  0  0  0  0
    0.0130   64.7580   75.0110 C   0  0  0  0  0  0  0  0  0  0  0  0
    0.8070   63.5760   75.4650 C   0  0  0  0  0  0  0  0  0  0  0  0
    0.6560   65.8900   69.9230 C   0  0  0  0  0  0  0  0  0  0  0  0
    1.4200   66.8960   69.9280 O   0  0  0  0  0  0  0  0  0  0  0  0
   -0.3690   65.6660   69.2130 O   0  0  0  0  0  1  0  0  0  0  0  0
    1.0258   61.1247   74.0502 H   0  0  0  0  0  0  0  0  0  0  0  0
    4.5318   61.2890   69.3460 H   0  0  0  0  0  0  0  0  0  0  0  0
    3.1378   60.4011   68.6425 H   0  0  0  0  0  0  0  0  0  0  0  0
    3.1510   62.1973   68.6425 H   0  0  0  0  0  0  0  0  0  0  0  0
   -0.1453   65.3531   72.3330 H   0  0  0  0  0  0  0  0  0  0  0  0
    4.1999   58.4961   73.7512 H   0  0  0  0  0  0  0  0  0  0  0  0
    3.3382   59.6872   74.7855 H   0  0  0  0  0  0  0  0  0  0  0  0
    3.8113   57.4862   75.9496 H   0  0  0  0  0  0  0  0  0  0  0  0
    2.0575   57.9059   75.8652 H   0  0  0  0  0  0  0  0  0  0  0  0
    3.5315   55.9760   74.1436 H   0  0  0  0  0  0  0  0  0  0  0  0
    2.3023   55.6565   75.2974 H   0  0  0  0  0  0  0  0  0  0  0  0
    1.5799   55.4762   72.8998 H   0  0  0  0  0  0  0  0  0  0  0  0
    2.7997   57.2981   71.9327 H   0  0  0  0  0  0  0  0  0  0  0  0
    1.0459   57.7080   71.8569 H   0  0  0  0  0  0  0  0  0  0  0  0
    0.3322   56.5134   75.2511 H   0  0  0  0  0  0  0  0  0  0  0  0
   -0.2488   57.4697   73.8459 H   0  0  0  0  0  0  0  0  0  0  0  0
   -0.4158   55.6812   73.8459 H   0  0  0  0  0  0  0  0  0  0  0  0
   -0.6471   62.8508   73.6769 H   0  0  0  0  0  0  0  0  0  0  0  0
    0.5279   65.6798   74.7026 H   0  0  0  0  0  0  0  0  0  0  0  0
   -0.8031   65.3566   75.4418 H   0  0  0  0  0  0  0  0  0  0  0  0
    1.9054   63.6294   75.4904 H   0  0  0  0  0  0  0  0  0  0  0  0
    0.8153   62.9473   76.3676 H   0  0  0  0  0  0  0  0  0  0  0  0
  2  1  1  0
  3  2  2  0
  4  3  1  0
  5  4  2  0
  6  5  1  0
  7  2  1  0
  7  6  2  0
  8  7  1  0
  9  6  1  0
 10  9  2  0
 11  9  1  0
 12 11  2  0
 13 12  1  0
 13  5  1  0
 14  3  1  0
 15 14  1  0
 16 15  1  0
 17 16  1  0
 18 17  1  0
 19 18  1  0
 19 14  1  0
 20 18  1  0
 21 13  1  0
 22 21  1  0
 23 22  1  0
 23 21  1  0
 24 11  1  0
 25 24  2  0
 26 24  1  0
  4 27  1  0
  8 28  1  0
  8 29  1  0
  8 30  1  0
 12 31  1  0
 15 32  1  0
 15 33  1  0
 16 34  1  0
 16 35  1  0
 17 36  1  0
 17 37  1  0
 18 38  1  6
 19 39  1  0
 19 40  1  0
 20 41  1  0
 20 42  1  0
 20 43  1  0
 21 44  1  0
 22 45  1  0
 22 46  1  0
 23 47  1  0
 23 48  1  0
M  CHG  2  17   1  26  -1
M  END
>  <score>  (2) 
-8.547

$$$$
=
     RDKit          3D

 48 51  0  0  0  0  0  0  0  0999 V2000
   -1.2070   57.2720   74.6180 F   0  0  0  0  0  0  0  0  0  0  0  0
   -0.5950   58.3000   73.9990 C   0  0  0  0  0  0  0  0  0  0  0  0
   -1.2470   59.5520   73.9900 C   0  0  0  0  0  0  0  0  0  0  0  0
   -0.5730   60.6160   73.3800 C   0  0  0  0  0  0  0  0  0  0  0  0
    0.6910   60.4560   72.7780 C   0  0  0  0  0  0  0  0  0  0  0  0
    1.3030   59.1770   72.8020 C   0  0  0  0  0  0  0  0  0  0  0  0
    0.6550   58.0820   73.4100 C   0  0  0  0  0  0  0  0  0  0  0  0
    1.2470   56.7000   73.4560 C   0  0  0  0  0  0  0  0  0  0  0  0
    2.6560   59.0350   72.1730 C   0  0  0  0  0  0  0  0  0  0  0  0
    3.3800   58.0900   72.4640 O   0  0  0  0  0  0  0  0  0  0  0  0
    3.0750   60.1060   71.2590 C   0  0  0  0  0  0  0  0  0  0  0  0
    2.4250   61.2720   71.3150 C   0  0  0  0  0  0  0  0  0  0  0  0
    1.3500   61.5490   72.1360 N   0  0  0  0  0  0  0  0  0  0  0  0
   -2.5170   59.6930   74.5850 N   0  0  0  0  0  0  0  0  0  0  0  0
   -3.2380   60.9040   74.1350 C   0  0  0  0  0  0  0  0  0  0  0  0
   -4.7380   60.7530   74.4350 C   0  0  0  0  0  0  0  0  0  0  0  0
   -4.9600   60.4080   75.8930 N   0  0  0  0  0  4  0  0  0  0  0  0
   -4.1600   59.2100   76.3800 C   0  0  2  0  0  0  0  0  0  0  0  0
   -2.6620   59.3750   76.0150 C   0  0  0  0  0  0  0  0  0  0  0  0
   -4.7740   57.9300   75.8230 C   0  0  0  0  0  0  0  0  0  0  0  0
    0.7470   62.8900   72.0250 C   0  0  0  0  0  0  0  0  0  0  0  0
    0.1190   63.3670   70.7380 C   0  0  0  0  0  0  0  0  0  0  0  0
    1.3930   63.9870   71.2150 C   0  0  0  0  0  0  0  0  0  0  0  0
    4.1760   59.9310   70.2390 C   0  0  0  0  0  0  0  0  0  0  0  0
    5.2800   60.4680   70.5390 O   0  0  0  0  0  0  0  0  0  0  0  0
    3.8920   59.1750   69.2640 O   0  0  0  0  0  1  0  0  0  0  0  0
   -1.0452   61.6094   73.3701 H   0  0  0  0  0  0  0  0  0  0  0  0
    1.3788   56.3923   74.5038 H   0  0  0  0  0  0  0  0  0  0  0  0
    0.5720   55.9949   72.9489 H   0  0  0  0  0  0  0  0  0  0  0  0
    2.2231   56.7022   72.9489 H   0  0  0  0  0  0  0  0  0  0  0  0
    2.7751   62.0774   70.6526 H   0  0  0  0  0  0  0  0  0  0  0  0
   -2.8450   61.7829   74.6671 H   0  0  0  0  0  0  0  0  0  0  0  0
   -3.0935   61.0337   73.0523 H   0  0  0  0  0  0  0  0  0  0  0  0
   -5.2492   61.6997   74.2060 H   0  0  0  0  0  0  0  0  0  0  0  0
   -5.1430   59.9407   73.8136 H   0  0  0  0  0  0  0  0  0  0  0  0
   -4.6962   61.2251   76.4619 H   0  0  0  0  0  0  0  0  0  0  0  0
   -5.9546   60.1582   75.9894 H   0  0  0  0  0  0  0  0  0  0  0  0
   -4.2045   59.1446   77.4772 H   0  0  0  0  0  0  0  0  0  0  0  0
   -2.2302   60.1905   76.6138 H   0  0  0  0  0  0  0  0  0  0  0  0
   -2.1359   58.4326   76.2273 H   0  0  0  0  0  0  0  0  0  0  0  0
   -5.0855   57.2807   76.6545 H   0  0  0  0  0  0  0  0  0  0  0  0
   -5.6495   58.1815   75.2064 H   0  0  0  0  0  0  0  0  0  0  0  0
   -4.0299   57.4046   75.2064 H   0  0  0  0  0  0  0  0  0  0  0  0
    0.4130   62.7840   73.0677 H   0  0  0  0  0  0  0  0  0  0  0  0
    0.1232   62.7167   69.8508 H   0  0  0  0  0  0  0  0  0  0  0  0
   -0.8719   63.7506   70.4535 H   0  0  0  0  0  0  0  0  0  0  0  0
    2.3331   63.7922   70.6781 H   0  0  0  0  0  0  0  0  0  0  0  0
    1.7246   65.0145   71.4256 H   0  0  0  0  0  0  0  0  0  0  0  0
  2  1  1  0
  3  2  2  0
  4  3  1  0
  5  4  2  0
  6  5  1  0
  7  2  1  0
  7  6  2  0
  8  7  1  0
  9  6  1  0
 10  9  2  0
 11  9  1  0
 12 11  2  0
 13 12  1  0
 13  5  1  0
 14  3  1  0
 15 14  1  0
 16 15  1  0
 17 16  1  0
 18 17  1  0
 19 18  1  0
 19 14  1  0
 20 18  1  0
 21 13  1  0
 22 21  1  0
 23 22  1  0
 23 21  1  0
 24 11  1  0
 25 24  2  0
 26 24  1  0
  4 27  1  0
  8 28  1  0
  8 29  1  0
  8 30  1  0
 12 31  1  0
 15 32  1  0
 15 33  1  0
 16 34  1  0
 16 35  1  0
 17 36  1  0
 17 37  1  0
 18 38  1  1
 19 39  1  0
 19 40  1  0
 20 41  1  0
 20 42  1  0
 20 43  1  0
 21 44  1  0
 22 45  1  0
 22 46  1  0
 23 47  1  0
 23 48  1  0
M  CHG  2  17   1  26  -1
M  END
>  <score>  (3) 
-8.062

$$$$
=
     RDKit          3D

 48 51  0  0  0  0  0  0  0  0999 V2000
    3.7090   58.0470   71.9760 F   0  0  0  0  0  0  0  0  0  0  0  0
    3.2040   59.2390   72.3500 C   0  0  0  0  0  0  0  0  0  0  0  0
    2.8580   59.4170   73.7070 C   0  0  0  0  0  0  0  0  0  0  0  0
    2.3760   60.6770   74.0800 C   0  0  0  0  0  0  0  0  0  0  0  0
    2.2180   61.7250   73.1520 C   0  0  0  0  0  0  0  0  0  0  0  0
    2.5690   61.4960   71.7970 C   0  0  0  0  0  0  0  0  0  0  0  0
    3.0600   60.2410   71.3840 C   0  0  0  0  0  0  0  0  0  0  0  0
    3.4370   59.9340   69.9610 C   0  0  0  0  0  0  0  0  0  0  0  0
    2.4120   62.6310   70.8310 C   0  0  0  0  0  0  0  0  0  0  0  0
    3.0130   62.6260   69.7640 O   0  0  0  0  0  0  0  0  0  0  0  0
    1.5630   63.7510   71.2600 C   0  0  0  0  0  0  0  0  0  0  0  0
    1.2880   63.8690   72.5620 C   0  0  0  0  0  0  0  0  0  0  0  0
    1.6990   62.9950   73.5480 N   0  0  0  0  0  0  0  0  0  0  0  0
    3.0090   58.3560   74.6210 N   0  0  0  0  0  0  0  0  0  0  0  0
    1.9250   57.3530   74.5330 C   0  0  0  0  0  0  0  0  0  0  0  0
    2.3820   56.0390   75.1860 C   0  0  0  0  0  0  0  0  0  0  0  0
    2.8790   56.2870   76.5960 N   0  0  0  0  0  4  0  0  0  0  0  0
    3.9390   57.3730   76.7020 C   0  0  2  0  0  0  0  0  0  0  0  0
    3.4630   58.6650   75.9870 C   0  0  0  0  0  0  0  0  0  0  0  0
    5.2620   56.8440   76.1610 C   0  0  0  0  0  0  0  0  0  0  0  0
    1.2610   63.2830   74.9270 C   0  0  0  0  0  0  0  0  0  0  0  0
   -0.1900   63.1850   75.3300 C   0  0  0  0  0  0  0  0  0  0  0  0
    0.4730   64.5230   75.2680 C   0  0  0  0  0  0  0  0  0  0  0  0
    0.9600   64.7430   70.2930 C   0  0  0  0  0  0  0  0  0  0  0  0
    1.7130   65.7060   69.9700 O   0  0  0  0  0  0  0  0  0  0  0  0
   -0.1780   64.4290   69.8370 O   0  0  0  0  0  1  0  0  0  0  0  0
    2.1118   60.8548   75.1329 H   0  0  0  0  0  0  0  0  0  0  0  0
    4.2899   59.2395   69.9493 H   0  0  0  0  0  0  0  0  0  0  0  0
    2.5813   59.4725   69.4464 H   0  0  0  0  0  0  0  0  0  0  0  0
    3.7156   60.8654   69.4464 H   0  0  0  0  0  0  0  0  0  0  0  0
    0.6843   64.7340   72.8739 H   0  0  0  0  0  0  0  0  0  0  0  0
    1.0339   57.7307   75.0557 H   0  0  0  0  0  0  0  0  0  0  0  0
    1.6827   57.1698   73.4758 H   0  0  0  0  0  0  0  0  0  0  0  0
    1.5346   55.3385   75.2197 H   0  0  0  0  0  0  0  0  0  0  0  0
    3.2038   55.6148   74.5905 H   0  0  0  0  0  0  0  0  0  0  0  0
    2.0751   56.5625   77.1780 H   0  0  0  0  0  0  0  0  0  0  0  0
    3.3197   55.4115   76.9126 H   0  0  0  0  0  0  0  0  0  0  0  0
    4.1003   57.6446   77.7557 H   0  0  0  0  0  0  0  0  0  0  0  0
    2.6312   59.1081   76.5542 H   0  0  0  0  0  0  0  0  0  0  0  0
    4.3024   59.3738   75.9331 H   0  0  0  0  0  0  0  0  0  0  0  0
    5.9221   56.5801   77.0004 H   0  0  0  0  0  0  0  0  0  0  0  0
    5.0759   55.9511   75.5461 H   0  0  0  0  0  0  0  0  0  0  0  0
    5.7428   57.6190   75.5461 H   0  0  0  0  0  0  0  0  0  0  0  0
    2.2034   62.8369   75.2776 H   0  0  0  0  0  0  0  0  0  0  0  0
   -0.9504   62.9137   74.5829 H   0  0  0  0  0  0  0  0  0  0  0  0
   -0.7460   62.6292   76.0994 H   0  0  0  0  0  0  0  0  0  0  0  0
    0.1996   65.2351   74.4754 H   0  0  0  0  0  0  0  0  0  0  0  0
    0.6052   65.3567   75.9732 H   0  0  0  0  0  0  0  0  0  0  0  0
  2  1  1  0
  3  2  2  0
  4  3  1  0
  5  4  2  0
  6  5  1  0
  7  2  1  0
  7  6  2  0
  8  7  1  0
  9  6  1  0
 10  9  2  0
 11  9  1  0
 12 11  2  0
 13 12  1  0
 13  5  1  0
 14  3  1  0
 15 14  1  0
 16 15  1  0
 17 16  1  0
 18 17  1  0
 19 18  1  0
 19 14  1  0
 20 18  1  0
 21 13  1  0
 22 21  1  0
 23 22  1  0
 23 21  1  0
 24 11  1  0
 25 24  2  0
 26 24  1  0
  4 27  1  0
  8 28  1  0
  8 29  1  0
  8 30  1  0
 12 31  1  0
 15 32  1  0
 15 33  1  0
 16 34  1  0
 16 35  1  0
 17 36  1  0
 17 37  1  0
 18 38  1  1
 19 39  1  0
 19 40  1  0
 20 41  1  0
 20 42  1  0
 20 43  1  0
 21 44  1  0
 22 45  1  0
 22 46  1  0
 23 47  1  0
 23 48  1  0
M  CHG  2  17   1  26  -1
M  END
>  <score>  (4) 
-7.781

$$$$
=
     RDKit          3D

 48 51  0  0  0  0  0  0  0  0999 V2000
    1.0410   62.5000   76.2200 F   0  0  0  0  0  0  0  0  0  0  0  0
    1.2400   62.5900   74.8910 C   0  0  0  0  0  0  0  0  0  0  0  0
    1.9560   61.5520   74.2560 C   0  0  0  0  0  0  0  0  0  0  0  0
    2.1130   61.6450   72.8680 C   0  0  0  0  0  0  0  0  0  0  0  0
    1.6040   62.7280   72.1260 C   0  0  0  0  0  0  0  0  0  0  0  0
    0.9000   63.7530   72.8090 C   0  0  0  0  0  0  0  0  0  0  0  0
    0.7190   63.6930   74.2060 C   0  0  0  0  0  0  0  0  0  0  0  0
   -0.0060   64.7540   74.9870 C   0  0  0  0  0  0  0  0  0  0  0  0
    0.3490   64.8860   71.9970 C   0  0  0  0  0  0  0  0  0  0  0  0
   -0.5490   65.5910   72.4430 O   0  0  0  0  0  0  0  0  0  0  0  0
    0.8930   65.0550   70.6430 C   0  0  0  0  0  0  0  0  0  0  0  0
    1.5470   64.0260   70.0950 C   0  0  0  0  0  0  0  0  0  0  0  0
    1.7980   62.8180   70.7140 N   0  0  0  0  0  0  0  0  0  0  0  0
    2.4720   60.4810   75.0130 N   0  0  0  0  0  0  0  0  0  0  0  0
    3.2750   59.5340   74.2090 C   0  0  0  0  0  0  0  0  0  0  0  0
    4.1680   58.6950   75.1380 C   0  0  0  0  0  0  0  0  0  0  0  0
    3.3400   58.0370   76.2220 N   0  0  0  0  0  4  0  0  0  0  0  0
    2.4540   58.9970   77.0010 C   0  0  2  0  0  0  0  0  0  0  0  0
    1.6070   59.8610   76.0300 C   0  0  0  0  0  0  0  0  0  0  0  0
    3.3140   59.8280   77.9460 C   0  0  0  0  0  0  0  0  0  0  0  0
    2.5680   61.8180   69.9510 C   0  0  0  0  0  0  0  0  0  0  0  0
    4.0770   61.8140   69.9560 C   0  0  0  0  0  0  0  0  0  0  0  0
    3.3420   62.1900   68.7090 C   0  0  0  0  0  0  0  0  0  0  0  0
    0.7810   66.3460   69.8660 C   0  0  0  0  0  0  0  0  0  0  0  0
    1.7420   67.1520   70.0190 O   0  0  0  0  0  0  0  0  0  0  0  0
   -0.2030   66.4130   69.0720 O   0  0  0  0  0  1  0  0  0  0  0  0
    2.6521   60.8451   72.3393 H   0  0  0  0  0  0  0  0  0  0  0  0
    0.1211   64.5680   76.0637 H   0  0  0  0  0  0  0  0  0  0  0  0
    0.4068   65.7418   74.7343 H   0  0  0  0  0  0  0  0  0  0  0  0
   -1.0763   64.7283   74.7343 H   0  0  0  0  0  0  0  0  0  0  0  0
    1.9154   64.1522   69.0663 H   0  0  0  0  0  0  0  0  0  0  0  0
    2.6024   58.8681   73.6485 H   0  0  0  0  0  0  0  0  0  0  0  0
    3.9068   60.0967   73.5060 H   0  0  0  0  0  0  0  0  0  0  0  0
    4.6741   57.9172   74.5474 H   0  0  0  0  0  0  0  0  0  0  0  0
    4.9090   59.3567   75.6103 H   0  0  0  0  0  0  0  0  0  0  0  0
    2.7376   57.3269   75.7818 H   0  0  0  0  0  0  0  0  0  0  0  0
    4.0047   57.6341   76.8978 H   0  0  0  0  0  0  0  0  0  0  0  0
    1.7377   58.4355   77.6187 H   0  0  0  0  0  0  0  0  0  0  0  0
    0.8615   59.2232   75.5326 H   0  0  0  0  0  0  0  0  0  0  0  0
    1.1024   60.6532   76.6025 H   0  0  0  0  0  0  0  0  0  0  0  0
    3.0585   59.5811   78.9870 H   0  0  0  0  0  0  0  0  0  0  0  0
    4.3762   59.6054   77.7665 H   0  0  0  0  0  0  0  0  0  0  0  0
    3.1280   60.8972   77.7665 H   0  0  0  0  0  0  0  0  0  0  0  0
    1.7821   61.0866   70.1905 H   0  0  0  0  0  0  0  0  0  0  0  0
    4.6262   62.5808   70.5220 H   0  0  0  0  0  0  0  0  0  0  0  0
    4.8500   61.0729   70.2074 H   0  0  0  0  0  0  0  0  0  0  0  0
    3.3512   63.2329   68.3593 H   0  0  0  0  0  0  0  0  0  0  0  0
    3.3520   61.8392   67.6665 H   0  0  0  0  0  0  0  0  0  0  0  0
  2  1  1  0
  3  2  2  0
  4  3  1  0
  5  4  2  0
  6  5  1  0
  7  2  1  0
  7  6  2  0
  8  7  1  0
  9  6  1  0
 10  9  2  0
 11  9  1  0
 12 11  2  0
 13 12  1  0
 13  5  1  0
 14  3  1  0
 15 14  1  0
 16 15  1  0
 17 16  1  0
 18 17  1  0
 19 18  1  0
 19 14  1  0
 20 18  1  0
 21 13  1  0
 22 21  1  0
 23 22  1  0
 23 21  1  0
 24 11  1  0
 25 24  2  0
 26 24  1  0
  4 27  1  0
  8 28  1  0
  8 29  1  0
  8 30  1  0
 12 31  1  0
 15 32  1  0
 15 33  1  0
 16 34  1  0
 16 35  1  0
 17 36  1  0
 17 37  1  0
 18 38  1  1
 19 39  1  0
 19 40  1  0
 20 41  1  0
 20 42  1  0
 20 43  1  0
 21 44  1  0
 22 45  1  0
 22 46  1  0
 23 47  1  0
 23 48  1  0
M  CHG  2  17   1  26  -1
M  END
>  <score>  (5) 
-7.725

$$$$
=
     RDKit          3D

 48 51  0  0  0  0  0  0  0  0999 V2000
    1.9300   56.0290   72.6900 F   0  0  0  0  0  0  0  0  0  0  0  0
    1.9140   57.3760   72.7020 C   0  0  0  0  0  0  0  0  0  0  0  0
    1.1270   58.0210   73.6790 C   0  0  0  0  0  0  0  0  0  0  0  0
    1.1600   59.4200   73.7000 C   0  0  0  0  0  0  0  0  0  0  0  0
    1.9220   60.1660   72.7800 C   0  0  0  0  0  0  0  0  0  0  0  0
    2.6890   59.4740   71.8080 C   0  0  0  0  0  0  0  0  0  0  0  0
    2.6830   58.0650   71.7580 C   0  0  0  0  0  0  0  0  0  0  0  0
    3.4650   57.2760   70.7440 C   0  0  0  0  0  0  0  0  0  0  0  0
    3.5080   60.2880   70.8520 C   0  0  0  0  0  0  0  0  0  0  0  0
    4.4440   59.7780   70.2460 O   0  0  0  0  0  0  0  0  0  0  0  0
    3.1690   61.7120   70.7370 C   0  0  0  0  0  0  0  0  0  0  0  0
    2.4340   62.2640   71.7080 C   0  0  0  0  0  0  0  0  0  0  0  0
    1.9200   61.5940   72.8000 N   0  0  0  0  0  0  0  0  0  0  0  0
    0.3590   57.2620   74.5850 N   0  0  0  0  0  0  0  0  0  0  0  0
    1.1540   56.7180   75.7080 C   0  0  0  0  0  0  0  0  0  0  0  0
    0.2160   56.3270   76.8620 C   0  0  0  0  0  0  0  0  0  0  0  0
   -0.8750   55.3980   76.3720 N   0  0  0  0  0  4  0  0  0  0  0  0
   -1.6450   55.9200   75.1680 C   0  0  2  0  0  0  0  0  0  0  0  0
   -0.6650   56.3530   74.0460 C   0  0  0  0  0  0  0  0  0  0  0  0
   -2.5800   57.0400   75.6100 C   0  0  0  0  0  0  0  0  0  0  0  0
    1.1030   62.3770   73.7450 C   0  0  0  0  0  0  0  0  0  0  0  0
   -0.3690   62.6120   73.5070 C   0  0  0  0  0  0  0  0  0  0  0  0
    0.5900   63.7540   73.4010 C   0  0  0  0  0  0  0  0  0  0  0  0
    3.5790   62.5630   69.5580 C   0  0  0  0  0  0  0  0  0  0  0  0
    4.6220   63.2560   69.7300 O   0  0  0  0  0  0  0  0  0  0  0  0
    2.8970   62.3910   68.5060 O   0  0  0  0  0  1  0  0  0  0  0  0
    0.5714   59.9545   74.4601 H   0  0  0  0  0  0  0  0  0  0  0  0
    4.1478   56.5871   71.2628 H   0  0  0  0  0  0  0  0  0  0  0  0
    2.7716   56.6997   70.1138 H   0  0  0  0  0  0  0  0  0  0  0  0
    4.0475   57.9642   70.1138 H   0  0  0  0  0  0  0  0  0  0  0  0
    2.2214   63.3405   71.6303 H   0  0  0  0  0  0  0  0  0  0  0  0
    1.7069   55.8297   75.3686 H   0  0  0  0  0  0  0  0  0  0  0  0
    1.8639   57.4823   76.0571 H   0  0  0  0  0  0  0  0  0  0  0  0
    0.7985   55.8191   77.6448 H   0  0  0  0  0  0  0  0  0  0  0  0
   -0.2495   57.2388   77.2645 H   0  0  0  0  0  0  0  0  0  0  0  0
   -0.4424   54.4996   76.1139 H   0  0  0  0  0  0  0  0  0  0  0  0
   -1.5542   55.3078   77.1411 H   0  0  0  0  0  0  0  0  0  0  0  0
   -2.2696   55.1212   74.7416 H   0  0  0  0  0  0  0  0  0  0  0  0
   -0.1749   55.4612   73.6282 H   0  0  0  0  0  0  0  0  0  0  0  0
   -1.2296   56.8759   73.2600 H   0  0  0  0  0  0  0  0  0  0  0  0
   -2.6122   57.0786   76.7089 H   0  0  0  0  0  0  0  0  0  0  0  0
   -2.2118   58.0004   75.2200 H   0  0  0  0  0  0  0  0  0  0  0  0
   -3.5907   56.8492   75.2200 H   0  0  0  0  0  0  0  0  0  0  0  0
    1.7069   61.9508   74.5597 H   0  0  0  0  0  0  0  0  0  0  0  0
   -0.8496   62.2126   72.6017 H   0  0  0  0  0  0  0  0  0  0  0  0
   -1.2880   62.4211   74.0805 H   0  0  0  0  0  0  0  0  0  0  0  0
    0.8139   64.1936   72.4178 H   0  0  0  0  0  0  0  0  0  0  0  0
    0.6664   64.7486   73.8645 H   0  0  0  0  0  0  0  0  0  0  0  0
  2  1  1  0
  3  2  2  0
  4  3  1  0
  5  4  2  0
  6  5  1  0
  7  2  1  0
  7  6  2  0
  8  7  1  0
  9  6  1  0
 10  9  2  0
 11  9  1  0
 12 11  2  0
 13 12  1  0
 13  5  1  0
 14  3  1  0
 15 14  1  0
 16 15  1  0
 17 16  1  0
 18 17  1  0
 19 18  1  0
 19 14  1  0
 20 18  1  0
 21 13  1  0
 22 21  1  0
 23 22  1  0
 23 21  1  0
 24 11  1  0
 25 24  2  0
 26 24  1  0
  4 27  1  0
  8 28  1  0
  8 29  1  0
  8 30  1  0
 12 31  1  0
 15 32  1  0
 15 33  1  0
 16 34  1  0
 16 35  1  0
 17 36  1  0
 17 37  1  0
 18 38  1  6
 19 39  1  0
 19 40  1  0
 20 41  1  0
 20 42  1  0
 20 43  1  0
 21 44  1  0
 22 45  1  0
 22 46  1  0
 23 47  1  0
 23 48  1  0
M  CHG  2  17   1  26  -1
M  END
>  <score>  (6) 
-7.684

$$$$
=
     RDKit          3D

 48 51  0  0  0  0  0  0  0  0999 V2000
    0.4440   61.9570   71.9300 F   0  0  0  0  0  0  0  0  0  0  0  0
    0.5110   60.7810   72.5840 C   0  0  0  0  0  0  0  0  0  0  0  0
    1.7160   60.0490   72.5100 C   0  0  0  0  0  0  0  0  0  0  0  0
    1.7780   58.8520   73.2320 C   0  0  0  0  0  0  0  0  0  0  0  0
    0.6880   58.3740   73.9870 C   0  0  0  0  0  0  0  0  0  0  0  0
   -0.5060   59.1390   74.0230 C   0  0  0  0  0  0  0  0  0  0  0  0
   -0.6040   60.3520   73.3100 C   0  0  0  0  0  0  0  0  0  0  0  0
   -1.8460   61.1990   73.2990 C   0  0  0  0  0  0  0  0  0  0  0  0
   -1.6450   58.6220   74.8490 C   0  0  0  0  0  0  0  0  0  0  0  0
   -2.5400   59.3750   75.2120 O   0  0  0  0  0  0  0  0  0  0  0  0
   -1.5890   57.2070   75.2400 C   0  0  0  0  0  0  0  0  0  0  0  0
   -0.4110   56.5790   75.1610 C   0  0  0  0  0  0  0  0  0  0  0  0
    0.7620   57.1360   74.6950 N   0  0  0  0  0  0  0  0  0  0  0  0
    2.7930   60.5320   71.7390 N   0  0  0  0  0  0  0  0  0  0  0  0
    3.3090   59.5380   70.7730 C   0  0  0  0  0  0  0  0  0  0  0  0
    4.1230   60.2530   69.6820 C   0  0  0  0  0  0  0  0  0  0  0  0
    5.1950   61.1270   70.3010 N   0  0  0  0  0  4  0  0  0  0  0  0
    4.6790   62.0980   71.3520 C   0  0  2  0  0  0  0  0  0  0  0  0
    3.8200   61.3490   72.4050 C   0  0  0  0  0  0  0  0  0  0  0  0
    3.9270   63.2340   70.6670 C   0  0  0  0  0  0  0  0  0  0  0  0
    1.9510   56.2650   74.6550 C   0  0  0  0  0  0  0  0  0  0  0  0
    1.9880   55.0210   73.8000 C   0  0  0  0  0  0  0  0  0  0  0  0
    1.9540   54.8950   75.2900 C   0  0  0  0  0  0  0  0  0  0  0  0
   -2.8040   56.4290   75.6860 C   0  0  0  0  0  0  0  0  0  0  0  0
   -2.9450   55.2940   75.1480 O   0  0  0  0  0  0  0  0  0  0  0  0
   -3.4670   56.9570   76.6260 O   0  0  0  0  0  1  0  0  0  0  0  0
    2.7079   58.2648   73.2096 H   0  0  0  0  0  0  0  0  0  0  0  0
   -2.1552   61.4099   74.3334 H   0  0  0  0  0  0  0  0  0  0  0  0
   -1.6398   62.1455   72.7778 H   0  0  0  0  0  0  0  0  0  0  0  0
   -2.6518   60.6614   72.7778 H   0  0  0  0  0  0  0  0  0  0  0  0
   -0.3742   55.5317   75.4952 H   0  0  0  0  0  0  0  0  0  0  0  0
    3.9538   58.8179   71.2980 H   0  0  0  0  0  0  0  0  0  0  0  0
    2.4646   59.0067   70.3095 H   0  0  0  0  0  0  0  0  0  0  0  0
    4.5988   59.5012   69.0352 H   0  0  0  0  0  0  0  0  0  0  0  0
    3.4448   60.8881   69.0932 H   0  0  0  0  0  0  0  0  0  0  0  0
    5.8953   60.5147   70.7432 H   0  0  0  0  0  0  0  0  0  0  0  0
    5.5878   61.6976   69.5388 H   0  0  0  0  0  0  0  0  0  0  0  0
    5.5207   62.5454   71.9011 H   0  0  0  0  0  0  0  0  0  0  0  0
    4.4702   60.6958   73.0054 H   0  0  0  0  0  0  0  0  0  0  0  0
    3.3251   62.0870   73.0533 H   0  0  0  0  0  0  0  0  0  0  0  0
    3.4890   63.8956   71.4288 H   0  0  0  0  0  0  0  0  0  0  0  0
    4.6237   63.8087   70.0390 H   0  0  0  0  0  0  0  0  0  0  0  0
    3.1258   62.8172   70.0390 H   0  0  0  0  0  0  0  0  0  0  0  0
    2.5697   57.1696   74.7491 H   0  0  0  0  0  0  0  0  0  0  0  0
    1.1075   54.7374   73.2047 H   0  0  0  0  0  0  0  0  0  0  0  0
    2.6484   54.6456   73.0044 H   0  0  0  0  0  0  0  0  0  0  0  0
    1.0486   54.5189   75.7888 H   0  0  0  0  0  0  0  0  0  0  0  0
    2.5791   54.3889   76.0404 H   0  0  0  0  0  0  0  0  0  0  0  0
  2  1  1  0
  3  2  2  0
  4  3  1  0
  5  4  2  0
  6  5  1  0
  7  2  1  0
  7  6  2  0
  8  7  1  0
  9  6  1  0
 10  9  2  0
 11  9  1  0
 12 11  2  0
 13 12  1  0
 13  5  1  0
 14  3  1  0
 15 14  1  0
 16 15  1  0
 17 16  1  0
 18 17  1  0
 19 18  1  0
 19 14  1  0
 20 18  1  0
 21 13  1  0
 22 21  1  0
 23 22  1  0
 23 21  1  0
 24 11  1  0
 25 24  2  0
 26 24  1  0
  4 27  1  0
  8 28  1  0
  8 29  1  0
  8 30  1  0
 12 31  1  0
 15 32  1  0
 15 33  1  0
 16 34  1  0
 16 35  1  0
 17 36  1  0
 17 37  1  0
 18 38  1  1
 19 39  1  0
 19 40  1  0
 20 41  1  0
 20 42  1  0
 20 43  1  0
 21 44  1  0
 22 45  1  0
 22 46  1  0
 23 47  1  0
 23 48  1  0
M  CHG  2  17   1  26  -1
M  END
>  <score>  (7) 
-7.602

$$$$
=
     RDKit          3D

 48 51  0  0  0  0  0  0  0  0999 V2000
   -0.0920   64.7050   73.8370 F   0  0  0  0  0  0  0  0  0  0  0  0
    0.3440   63.4510   73.6090 C   0  0  0  0  0  0  0  0  0  0  0  0
    0.0210   62.4540   74.5560 C   0  0  0  0  0  0  0  0  0  0  0  0
    0.4480   61.1510   74.2770 C   0  0  0  0  0  0  0  0  0  0  0  0
    1.1860   60.8350   73.1190 C   0  0  0  0  0  0  0  0  0  0  0  0
    1.4970   61.8720   72.2030 C   0  0  0  0  0  0  0  0  0  0  0  0
    1.0810   63.1960   72.4480 C   0  0  0  0  0  0  0  0  0  0  0  0
    1.3910   64.3390   71.5210 C   0  0  0  0  0  0  0  0  0  0  0  0
    2.2650   61.5090   70.9680 C   0  0  0  0  0  0  0  0  0  0  0  0
    2.2540   62.2470   69.9900 O   0  0  0  0  0  0  0  0  0  0  0  0
    2.9620   60.2150   70.9800 C   0  0  0  0  0  0  0  0  0  0  0  0
    2.5940   59.3100   71.8920 C   0  0  0  0  0  0  0  0  0  0  0  0
    1.6350   59.5030   72.8670 N   0  0  0  0  0  0  0  0  0  0  0  0
   -0.7060   62.7880   75.7160 N   0  0  0  0  0  0  0  0  0  0  0  0
    0.0510   62.5560   76.9650 C   0  0  0  0  0  0  0  0  0  0  0  0
   -0.5860   63.3550   78.1120 C   0  0  0  0  0  0  0  0  0  0  0  0
   -2.0650   63.0470   78.2210 N   0  0  0  0  0  4  0  0  0  0  0  0
   -2.8350   63.2100   76.9200 C   0  0  2  0  0  0  0  0  0  0  0  0
   -2.1330   62.4320   75.7760 C   0  0  0  0  0  0  0  0  0  0  0  0
   -3.0080   64.6940   76.6160 C   0  0  0  0  0  0  0  0  0  0  0  0
    1.3970   58.3900   73.8040 C   0  0  0  0  0  0  0  0  0  0  0  0
    1.2490   56.9680   73.3170 C   0  0  0  0  0  0  0  0  0  0  0  0
    0.0640   57.6860   73.8790 C   0  0  0  0  0  0  0  0  0  0  0  0
    4.0940   59.8830   70.0370 C   0  0  0  0  0  0  0  0  0  0  0  0
    5.2060   60.4140   70.3200 O   0  0  0  0  0  0  0  0  0  0  0  0
    3.8200   59.0250   69.1470 O   0  0  0  0  0  1  0  0  0  0  0  0
    0.1993   60.3468   74.9851 H   0  0  0  0  0  0  0  0  0  0  0  0
    1.6339   65.2346   72.1117 H   0  0  0  0  0  0  0  0  0  0  0  0
    2.2497   64.0741   70.8867 H   0  0  0  0  0  0  0  0  0  0  0  0
    0.5161   64.5443   70.8867 H   0  0  0  0  0  0  0  0  0  0  0  0
    3.0959   58.3316   71.8638 H   0  0  0  0  0  0  0  0  0  0  0  0
    0.0312   61.4840   77.2109 H   0  0  0  0  0  0  0  0  0  0  0  0
    1.0918   62.8838   76.8266 H   0  0  0  0  0  0  0  0  0  0  0  0
   -0.0907   63.0877   79.0571 H   0  0  0  0  0  0  0  0  0  0  0  0
   -0.4621   64.4286   77.9071 H   0  0  0  0  0  0  0  0  0  0  0  0
   -2.1692   62.0725   78.5377 H   0  0  0  0  0  0  0  0  0  0  0  0
   -2.4602   63.7278   78.8852 H   0  0  0  0  0  0  0  0  0  0  0  0
   -3.8411   62.7760   77.0166 H   0  0  0  0  0  0  0  0  0  0  0  0
   -2.2300   61.3517   75.9592 H   0  0  0  0  0  0  0  0  0  0  0  0
   -2.6080   62.6965   74.8198 H   0  0  0  0  0  0  0  0  0  0  0  0
   -3.0735   65.2563   77.5592 H   0  0  0  0  0  0  0  0  0  0  0  0
   -2.1455   65.0522   76.0348 H   0  0  0  0  0  0  0  0  0  0  0  0
   -3.9297   64.8442   76.0348 H   0  0  0  0  0  0  0  0  0  0  0  0
    2.0472   58.9079   74.5245 H   0  0  0  0  0  0  0  0  0  0  0  0
    1.2982   56.7483   72.2403 H   0  0  0  0  0  0  0  0  0  0  0  0
    1.7552   56.0161   73.5355 H   0  0  0  0  0  0  0  0  0  0  0  0
   -0.7574   57.9934   73.2150 H   0  0  0  0  0  0  0  0  0  0  0  0
   -0.6599   57.4790   74.6809 H   0  0  0  0  0  0  0  0  0  0  0  0
  2  1  1  0
  3  2  2  0
  4  3  1  0
  5  4  2  0
  6  5  1  0
  7  2  1  0
  7  6  2  0
  8  7  1  0
  9  6  1  0
 10  9  2  0
 11  9  1  0
 12 11  2  0
 13 12  1  0
 13  5  1  0
 14  3  1  0
 15 14  1  0
 16 15  1  0
 17 16  1  0
 18 17  1  0
 19 18  1  0
 19 14  1  0
 20 18  1  0
 21 13  1  0
 22 21  1  0
 23 22  1  0
 23 21  1  0
 24 11  1  0
 25 24  2  0
 26 24  1  0
  4 27  1  0
  8 28  1  0
  8 29  1  0
  8 30  1  0
 12 31  1  0
 15 32  1  0
 15 33  1  0
 16 34  1  0
 16 35  1  0
 17 36  1  0
 17 37  1  0
 18 38  1  1
 19 39  1  0
 19 40  1  0
 20 41  1  0
 20 42  1  0
 20 43  1  0
 21 44  1  0
 22 45  1  0
 22 46  1  0
 23 47  1  0
 23 48  1  0
M  CHG  2  17   1  26  -1
M  END
>  <score>  (8) 
-7.352

$$$$
=
     RDKit          3D

 48 51  0  0  0  0  0  0  0  0999 V2000
    3.6690   58.4440   71.5590 F   0  0  0  0  0  0  0  0  0  0  0  0
    2.5160   58.7940   72.1630 C   0  0  0  0  0  0  0  0  0  0  0  0
    2.1440   60.1560   72.1440 C   0  0  0  0  0  0  0  0  0  0  0  0
    0.9220   60.4890   72.7390 C   0  0  0  0  0  0  0  0  0  0  0  0
    0.0990   59.5250   73.3540 C   0  0  0  0  0  0  0  0  0  0  0  0
    0.5200   58.1700   73.3580 C   0  0  0  0  0  0  0  0  0  0  0  0
    1.7440   57.7960   72.7650 C   0  0  0  0  0  0  0  0  0  0  0  0
    2.2490   56.3800   72.7490 C   0  0  0  0  0  0  0  0  0  0  0  0
   -0.3800   57.1580   73.9990 C   0  0  0  0  0  0  0  0  0  0  0  0
   -0.2680   55.9680   73.7310 O   0  0  0  0  0  0  0  0  0  0  0  0
   -1.4220   57.6760   74.8970 C   0  0  0  0  0  0  0  0  0  0  0  0
   -1.7370   58.9720   74.8140 C   0  0  0  0  0  0  0  0  0  0  0  0
   -1.1310   59.8900   73.9800 N   0  0  0  0  0  0  0  0  0  0  0  0
    2.9840   61.1110   71.5370 N   0  0  0  0  0  0  0  0  0  0  0  0
    4.2510   61.3210   72.2710 C   0  0  0  0  0  0  0  0  0  0  0  0
    5.2820   61.9840   71.3430 C   0  0  0  0  0  0  0  0  0  0  0  0
    4.7110   63.2430   70.7240 N   0  0  0  0  0  4  0  0  0  0  0  0
    3.3700   63.0480   70.0340 C   0  0  2  0  0  0  0  0  0  0  0  0
    2.3740   62.3310   70.9830 C   0  0  0  0  0  0  0  0  0  0  0  0
    3.5790   62.3080   68.7180 C   0  0  0  0  0  0  0  0  0  0  0  0
   -1.6010   61.2850   74.0620 C   0  0  0  0  0  0  0  0  0  0  0  0
   -1.2570   62.1650   75.2400 C   0  0  0  0  0  0  0  0  0  0  0  0
   -2.6670   61.7090   75.0420 C   0  0  0  0  0  0  0  0  0  0  0  0
   -2.1180   56.8190   75.9280 C   0  0  0  0  0  0  0  0  0  0  0  0
   -3.1800   56.2580   75.5360 O   0  0  0  0  0  0  0  0  0  0  0  0
   -1.4940   56.6760   77.0210 O   0  0  0  0  0  1  0  0  0  0  0  0
    0.5930   61.5386   72.7261 H   0  0  0  0  0  0  0  0  0  0  0  0
    2.3759   56.0243   73.7821 H   0  0  0  0  0  0  0  0  0  0  0  0
    1.5244   55.7382   72.2266 H   0  0  0  0  0  0  0  0  0  0  0  0
    3.2163   56.3416   72.2266 H   0  0  0  0  0  0  0  0  0  0  0  0
   -2.5458   59.3374   75.4638 H   0  0  0  0  0  0  0  0  0  0  0  0
    4.0677   61.9719   73.1386 H   0  0  0  0  0  0  0  0  0  0  0  0
    4.6394   60.3506   72.6137 H   0  0  0  0  0  0  0  0  0  0  0  0
    6.1789   62.2422   71.9252 H   0  0  0  0  0  0  0  0  0  0  0  0
    5.5399   61.2792   70.5388 H   0  0  0  0  0  0  0  0  0  0  0  0
    4.5914   63.9435   71.4696 H   0  0  0  0  0  0  0  0  0  0  0  0
    5.3763   63.5422   69.9968 H   0  0  0  0  0  0  0  0  0  0  0  0
    2.9214   64.0232   69.7935 H   0  0  0  0  0  0  0  0  0  0  0  0
    2.1058   63.0088   71.8068 H   0  0  0  0  0  0  0  0  0  0  0  0
    1.4740   62.0544   70.4142 H   0  0  0  0  0  0  0  0  0  0  0  0
    3.8727   61.2683   68.9246 H   0  0  0  0  0  0  0  0  0  0  0  0
    2.6433   62.3167   68.1398 H   0  0  0  0  0  0  0  0  0  0  0  0
    4.3719   62.8050   68.1398 H   0  0  0  0  0  0  0  0  0  0  0  0
   -1.4740   61.3504   72.9713 H   0  0  0  0  0  0  0  0  0  0  0  0
   -0.6608   61.7613   76.0716 H   0  0  0  0  0  0  0  0  0  0  0  0
   -0.7671   63.1423   75.3619 H   0  0  0  0  0  0  0  0  0  0  0  0
   -3.1067   60.9705   75.7285 H   0  0  0  0  0  0  0  0  0  0  0  0
   -3.6409   62.2135   74.9586 H   0  0  0  0  0  0  0  0  0  0  0  0
  2  1  1  0
  3  2  2  0
  4  3  1  0
  5  4  2  0
  6  5  1  0
  7  2  1  0
  7  6  2  0
  8  7  1  0
  9  6  1  0
 10  9  2  0
 11  9  1  0
 12 11  2  0
 13 12  1  0
 13  5  1  0
 14  3  1  0
 15 14  1  0
 16 15  1  0
 17 16  1  0
 18 17  1  0
 19 18  1  0
 19 14  1  0
 20 18  1  0
 21 13  1  0
 22 21  1  0
 23 22  1  0
 23 21  1  0
 24 11  1  0
 25 24  2  0
 26 24  1  0
  4 27  1  0
  8 28  1  0
  8 29  1  0
  8 30  1  0
 12 31  1  0
 15 32  1  0
 15 33  1  0
 16 34  1  0
 16 35  1  0
 17 36  1  0
 17 37  1  0
 18 38  1  6
 19 39  1  0
 19 40  1  0
 20 41  1  0
 20 42  1  0
 20 43  1  0
 21 44  1  0
 22 45  1  0
 22 46  1  0
 23 47  1  0
 23 48  1  0
M  CHG  2  17   1  26  -1
M  END
>  <score>  (9) 
-7.333

$$$$
