=
     RDKit          3D

 33 34  0  0  0  0  0  0  0  0999 V2000
    4.3380   69.2470   64.4840 N   0  0  0  0  0  0  0  0  0  0  0  0
    5.4550   69.3140   63.6920 C   0  0  0  0  0  0  0  0  0  0  0  0
    5.1660   69.1650   62.4140 N   0  0  0  0  0  0  0  0  0  0  0  0
    3.8010   68.9880   62.3930 C   0  0  0  0  0  0  0  0  0  0  0  0
    3.2660   69.0290   63.6650 C   0  0  0  0  0  0  0  0  0  0  0  0
    1.9740   68.8990   64.0010 N   0  0  0  0  0  0  0  0  0  0  0  0
    1.1890   68.7060   62.9250 C   0  0  0  0  0  0  0  0  0  0  0  0
   -0.1710   68.6100   63.1620 N   0  0  0  0  0  0  0  0  0  0  0  0
    1.5740   68.6520   61.6400 N   0  0  0  0  0  0  0  0  0  0  0  0
    2.8860   68.7860   61.3670 C   0  0  0  0  0  0  0  0  0  0  0  0
    3.2650   68.7270   60.0480 O   0  0  0  0  0  0  0  0  0  0  0  0
    4.3080   69.3430   65.9270 C   0  0  0  0  0  0  0  0  0  0  0  0
    5.4800   70.1310   66.5170 C   0  0  0  0  0  0  0  0  0  0  0  0
    5.4930   70.2560   68.0570 C   0  0  0  0  0  0  0  0  0  0  0  0
    4.0540   70.3390   68.5930 C   0  0  0  0  0  0  0  0  0  0  0  0
    4.0290   70.9830   69.8620 O   0  0  0  0  0  0  0  0  0  0  0  0
    6.3060   71.4690   68.5250 C   0  0  0  0  0  0  0  0  0  0  0  0
    5.7020   72.6680   68.0490 O   0  0  0  0  0  0  0  0  0  0  0  0
    6.4729   69.4734   64.0773 H   0  0  0  0  0  0  0  0  0  0  0  0
   -0.8214   68.4622   62.3771 H   0  0  0  0  0  0  0  0  0  0  0  0
   -0.5329   68.6864   64.1233 H   0  0  0  0  0  0  0  0  0  0  0  0
    4.2195   68.8208   59.8026 H   0  0  0  0  0  0  0  0  0  0  0  0
    3.3721   69.8398   66.2224 H   0  0  0  0  0  0  0  0  0  0  0  0
    4.3813   68.3176   66.3184 H   0  0  0  0  0  0  0  0  0  0  0  0
    6.4114   69.6327   66.2101 H   0  0  0  0  0  0  0  0  0  0  0  0
    5.3766   71.1566   66.1329 H   0  0  0  0  0  0  0  0  0  0  0  0
    5.9804   69.3563   68.4608 H   0  0  0  0  0  0  0  0  0  0  0  0
    3.4368   70.9113   67.8848 H   0  0  0  0  0  0  0  0  0  0  0  0
    3.6576   69.3190   68.7048 H   0  0  0  0  0  0  0  0  0  0  0  0
    4.0555   70.3007   70.5789 H   0  0  0  0  0  0  0  0  0  0  0  0
    6.3355   71.4866   69.6245 H   0  0  0  0  0  0  0  0  0  0  0  0
    7.3291   71.3954   68.1277 H   0  0  0  0  0  0  0  0  0  0  0  0
    5.4217   73.2243   68.8185 H   0  0  0  0  0  0  0  0  0  0  0  0
  2  1  1  0
  3  2  2  0
  4  3  1  0
  5  4  2  0
  5  1  1  0
  6  5  1  0
  7  6  2  0
  8  7  1  0
  9  7  1  0
 10  9  2  0
 10  4  1  0
 11 10  1  0
 12  1  1  0
 13 12  1  0
 14 13  1  0
 15 14  1  0
 16 15  1  0
 17 14  1  0
 18 17  1  0
  2 19  1  0
  8 20  1  0
  8 21  1  0
 11 22  1  0
 12 23  1  0
 12 24  1  0
 13 25  1  0
 13 26  1  0
 14 27  1  0
 15 28  1  0
 15 29  1  0
 16 30  1  0
 17 31  1  0
 17 32  1  0
 18 33  1  0
M  END
>  <score>  (1) 
-8.032

$$$$
=
     RDKit          3D

 33 34  0  0  0  0  0  0  0  0999 V2000
    1.3230   68.1900   65.2030 N   0  0  0  0  0  0  0  0  0  0  0  0
    2.0490   67.4200   66.0750 C   0  0  0  0  0  0  0  0  0  0  0  0
    1.3040   66.9470   67.0550 N   0  0  0  0  0  0  0  0  0  0  0  0
    0.0470   67.4460   66.7990 C   0  0  0  0  0  0  0  0  0  0  0  0
    0.0350   68.2240   65.6580 C   0  0  0  0  0  0  0  0  0  0  0  0
   -1.0220   68.8510   65.1210 N   0  0  0  0  0  0  0  0  0  0  0  0
   -2.1450   68.6530   65.8360 C   0  0  0  0  0  0  0  0  0  0  0  0
   -3.3030   69.2200   65.3360 N   0  0  0  0  0  0  0  0  0  0  0  0
   -2.2750   67.9190   66.9530 N   0  0  0  0  0  0  0  0  0  0  0  0
   -1.1760   67.3160   67.4450 C   0  0  0  0  0  0  0  0  0  0  0  0
   -1.3250   66.5690   68.5880 O   0  0  0  0  0  0  0  0  0  0  0  0
    1.8390   68.8780   64.0400 C   0  0  0  0  0  0  0  0  0  0  0  0
    3.3670   68.9470   63.9930 C   0  0  0  0  0  0  0  0  0  0  0  0
    4.0000   68.7900   62.5920 C   0  0  0  0  0  0  0  0  0  0  0  0
    2.8990   68.6900   61.5220 C   0  0  0  0  0  0  0  0  0  0  0  0
    3.4440   68.8910   60.2230 O   0  0  0  0  0  0  0  0  0  0  0  0
    4.9270   67.5710   62.5160 C   0  0  0  0  0  0  0  0  0  0  0  0
    4.2450   66.4830   61.8990 O   0  0  0  0  0  0  0  0  0  0  0  0
    3.1256   67.2204   65.9695 H   0  0  0  0  0  0  0  0  0  0  0  0
   -4.1934   69.1021   65.8401 H   0  0  0  0  0  0  0  0  0  0  0  0
   -3.2751   69.7602   64.4595 H   0  0  0  0  0  0  0  0  0  0  0  0
   -0.5431   66.1086   68.9839 H   0  0  0  0  0  0  0  0  0  0  0  0
    1.4874   68.3512   63.1406 H   0  0  0  0  0  0  0  0  0  0  0  0
    1.4721   69.9138   64.0904 H   0  0  0  0  0  0  0  0  0  0  0  0
    3.6742   69.9235   64.3956 H   0  0  0  0  0  0  0  0  0  0  0  0
    3.7251   68.0901   64.5826 H   0  0  0  0  0  0  0  0  0  0  0  0
    4.6132   69.6832   62.4017 H   0  0  0  0  0  0  0  0  0  0  0  0
    2.4375   67.6927   61.5702 H   0  0  0  0  0  0  0  0  0  0  0  0
    2.1452   69.4675   61.7148 H   0  0  0  0  0  0  0  0  0  0  0  0
    4.3698   69.2325   60.3028 H   0  0  0  0  0  0  0  0  0  0  0  0
    5.8180   67.8264   61.9237 H   0  0  0  0  0  0  0  0  0  0  0  0
    5.2285   67.2804   63.5332 H   0  0  0  0  0  0  0  0  0  0  0  0
    3.8723   65.8885   62.5974 H   0  0  0  0  0  0  0  0  0  0  0  0
  2  1  1  0
  3  2  2  0
  4  3  1  0
  5  4  2  0
  5  1  1  0
  6  5  1  0
  7  6  2  0
  8  7  1  0
  9  7  1  0
 10  9  2  0
 10  4  1  0
 11 10  1  0
 12  1  1  0
 13 12  1  0
 14 13  1  0
 15 14  1  0
 16 15  1  0
 17 14  1  0
 18 17  1  0
  2 19  1  0
  8 20  1  0
  8 21  1  0
 11 22  1  0
 12 23  1  0
 12 24  1  0
 13 25  1  0
 13 26  1  0
 14 27  1  0
 15 28  1  0
 15 29  1  0
 16 30  1  0
 17 31  1  0
 17 32  1  0
 18 33  1  0
M  END
>  <score>  (2) 
-7.817

$$$$
=
     RDKit          3D

 33 34  0  0  0  0  0  0  0  0999 V2000
    0.9600   68.1330   65.6520 N   0  0  0  0  0  0  0  0  0  0  0  0
    0.1040   68.7620   64.7850 C   0  0  0  0  0  0  0  0  0  0  0  0
   -1.1450   68.7220   65.2070 N   0  0  0  0  0  0  0  0  0  0  0  0
   -1.0810   68.0280   66.3940 C   0  0  0  0  0  0  0  0  0  0  0  0
    0.2130   67.6470   66.6880 C   0  0  0  0  0  0  0  0  0  0  0  0
    0.6280   66.9670   67.7670 N   0  0  0  0  0  0  0  0  0  0  0  0
   -0.3890   66.6580   68.5920 C   0  0  0  0  0  0  0  0  0  0  0  0
   -0.0570   65.9970   69.7610 N   0  0  0  0  0  0  0  0  0  0  0  0
   -1.6850   66.9710   68.4330 N   0  0  0  0  0  0  0  0  0  0  0  0
   -2.0400   67.6530   67.3270 C   0  0  0  0  0  0  0  0  0  0  0  0
   -3.3690   67.9640   67.1770 O   0  0  0  0  0  0  0  0  0  0  0  0
    2.3870   67.9720   65.4750 C   0  0  0  0  0  0  0  0  0  0  0  0
    3.2080   69.1610   65.9790 C   0  0  0  0  0  0  0  0  0  0  0  0
    4.7140   69.1270   65.6330 C   0  0  0  0  0  0  0  0  0  0  0  0
    5.5010   70.0210   66.6060 C   0  0  0  0  0  0  0  0  0  0  0  0
    6.3790   70.8850   65.8920 O   0  0  0  0  0  0  0  0  0  0  0  0
    4.9770   69.5560   64.1840 C   0  0  0  0  0  0  0  0  0  0  0  0
    6.0960   68.8410   63.6660 O   0  0  0  0  0  0  0  0  0  0  0  0
    0.4214   69.2432   63.8481 H   0  0  0  0  0  0  0  0  0  0  0  0
   -0.7937   65.7347   70.4313 H   0  0  0  0  0  0  0  0  0  0  0  0
    0.9269   65.7672   69.9611 H   0  0  0  0  0  0  0  0  0  0  0  0
   -3.6732   68.4644   66.3788 H   0  0  0  0  0  0  0  0  0  0  0  0
    2.7055   67.0730   66.0230 H   0  0  0  0  0  0  0  0  0  0  0  0
    2.5694   67.8912   64.3932 H   0  0  0  0  0  0  0  0  0  0  0  0
    2.7811   70.0762   65.5430 H   0  0  0  0  0  0  0  0  0  0  0  0
    3.1504   69.1228   67.0768 H   0  0  0  0  0  0  0  0  0  0  0  0
    5.0570   68.0870   65.7368 H   0  0  0  0  0  0  0  0  0  0  0  0
    4.7946   70.6271   67.1922 H   0  0  0  0  0  0  0  0  0  0  0  0
    6.0972   69.3811   67.2732 H   0  0  0  0  0  0  0  0  0  0  0  0
    6.9161   71.4136   66.5340 H   0  0  0  0  0  0  0  0  0  0  0  0
    4.0893   69.3389   63.5717 H   0  0  0  0  0  0  0  0  0  0  0  0
    5.1902   70.6348   64.1569 H   0  0  0  0  0  0  0  0  0  0  0  0
    6.6409   68.4928   64.4156 H   0  0  0  0  0  0  0  0  0  0  0  0
  2  1  1  0
  3  2  2  0
  4  3  1  0
  5  4  2  0
  5  1  1  0
  6  5  1  0
  7  6  2  0
  8  7  1  0
  9  7  1  0
 10  9  2  0
 10  4  1  0
 11 10  1  0
 12  1  1  0
 13 12  1  0
 14 13  1  0
 15 14  1  0
 16 15  1  0
 17 14  1  0
 18 17  1  0
  2 19  1  0
  8 20  1  0
  8 21  1  0
 11 22  1  0
 12 23  1  0
 12 24  1  0
 13 25  1  0
 13 26  1  0
 14 27  1  0
 15 28  1  0
 15 29  1  0
 16 30  1  0
 17 31  1  0
 17 32  1  0
 18 33  1  0
M  END
>  <score>  (3) 
-7.528

$$$$
=
     RDKit          3D

 33 34  0  0  0  0  0  0  0  0999 V2000
    2.7810   68.7540   65.5570 N   0  0  0  0  0  0  0  0  0  0  0  0
    1.7140   68.7040   66.4170 C   0  0  0  0  0  0  0  0  0  0  0  0
    0.5620   68.6990   65.7760 N   0  0  0  0  0  0  0  0  0  0  0  0
    0.9110   68.7580   64.4470 C   0  0  0  0  0  0  0  0  0  0  0  0
    2.2820   68.7980   64.2860 C   0  0  0  0  0  0  0  0  0  0  0  0
    2.9570   68.8500   63.1280 N   0  0  0  0  0  0  0  0  0  0  0  0
    2.1340   68.8680   62.0630 C   0  0  0  0  0  0  0  0  0  0  0  0
    2.7350   68.8720   60.8180 N   0  0  0  0  0  0  0  0  0  0  0  0
    0.7910   68.8260   62.0760 N   0  0  0  0  0  0  0  0  0  0  0  0
    0.1720   68.7780   63.2710 C   0  0  0  0  0  0  0  0  0  0  0  0
   -1.2010   68.7370   63.2680 O   0  0  0  0  0  0  0  0  0  0  0  0
    4.1770   68.8000   65.9320 C   0  0  0  0  0  0  0  0  0  0  0  0
    4.6260   70.1600   66.4740 C   0  0  0  0  0  0  0  0  0  0  0  0
    4.8580   70.2260   68.0000 C   0  0  0  0  0  0  0  0  0  0  0  0
    3.6000   70.7630   68.7040 C   0  0  0  0  0  0  0  0  0  0  0  0
    3.0000   69.7470   69.5000 O   0  0  0  0  0  0  0  0  0  0  0  0
    6.0760   71.0890   68.3560 C   0  0  0  0  0  0  0  0  0  0  0  0
    5.7950   72.4580   68.0780 O   0  0  0  0  0  0  0  0  0  0  0  0
    1.8082   68.6719   67.5125 H   0  0  0  0  0  0  0  0  0  0  0  0
    2.1556   68.8855   59.9665 H   0  0  0  0  0  0  0  0  0  0  0  0
    3.7621   68.8614   60.7419 H   0  0  0  0  0  0  0  0  0  0  0  0
   -1.6970   68.7010   64.1240 H   0  0  0  0  0  0  0  0  0  0  0  0
    4.3527   68.0416   66.7092 H   0  0  0  0  0  0  0  0  0  0  0  0
    4.7607   68.6099   65.0192 H   0  0  0  0  0  0  0  0  0  0  0  0
    5.5695   70.4281   65.9762 H   0  0  0  0  0  0  0  0  0  0  0  0
    3.7999   70.8554   66.2645 H   0  0  0  0  0  0  0  0  0  0  0  0
    5.0630   69.2038   68.3508 H   0  0  0  0  0  0  0  0  0  0  0  0
    3.8797   71.6094   69.3485 H   0  0  0  0  0  0  0  0  0  0  0  0
    2.8779   71.0887   67.9408 H   0  0  0  0  0  0  0  0  0  0  0  0
    3.1263   69.9609   70.4583 H   0  0  0  0  0  0  0  0  0  0  0  0
    6.3057   70.9732   69.4255 H   0  0  0  0  0  0  0  0  0  0  0  0
    6.9385   70.7658   67.7547 H   0  0  0  0  0  0  0  0  0  0  0  0
    5.6933   72.9534   68.9291 H   0  0  0  0  0  0  0  0  0  0  0  0
  2  1  1  0
  3  2  2  0
  4  3  1  0
  5  4  2  0
  5  1  1  0
  6  5  1  0
  7  6  2  0
  8  7  1  0
  9  7  1  0
 10  9  2  0
 10  4  1  0
 11 10  1  0
 12  1  1  0
 13 12  1  0
 14 13  1  0
 15 14  1  0
 16 15  1  0
 17 14  1  0
 18 17  1  0
  2 19  1  0
  8 20  1  0
  8 21  1  0
 11 22  1  0
 12 23  1  0
 12 24  1  0
 13 25  1  0
 13 26  1  0
 14 27  1  0
 15 28  1  0
 15 29  1  0
 16 30  1  0
 17 31  1  0
 17 32  1  0
 18 33  1  0
M  END
>  <score>  (4) 
-7.518

$$$$
=
     RDKit          3D

 33 34  0  0  0  0  0  0  0  0999 V2000
    1.8250   67.6260   65.0710 N   0  0  0  0  0  0  0  0  0  0  0  0
    1.9920   68.7820   64.3530 C   0  0  0  0  0  0  0  0  0  0  0  0
    2.8870   68.6450   63.3940 N   0  0  0  0  0  0  0  0  0  0  0  0
    3.3150   67.3420   63.5130 C   0  0  0  0  0  0  0  0  0  0  0  0
    2.6750   66.6920   64.5500 C   0  0  0  0  0  0  0  0  0  0  0  0
    2.8500   65.4190   64.9320 N   0  0  0  0  0  0  0  0  0  0  0  0
    3.7660   64.7840   64.1780 C   0  0  0  0  0  0  0  0  0  0  0  0
    3.9830   63.4480   64.4630 N   0  0  0  0  0  0  0  0  0  0  0  0
    4.4540   65.2910   63.1420 N   0  0  0  0  0  0  0  0  0  0  0  0
    4.2360   66.5780   62.8080 C   0  0  0  0  0  0  0  0  0  0  0  0
    4.9480   67.0820   61.7460 O   0  0  0  0  0  0  0  0  0  0  0  0
    0.9450   67.4460   66.2040 C   0  0  0  0  0  0  0  0  0  0  0  0
    0.2600   68.7350   66.6650 C   0  0  0  0  0  0  0  0  0  0  0  0
   -1.2750   68.6570   66.8190 C   0  0  0  0  0  0  0  0  0  0  0  0
   -1.6760   67.3190   67.4610 C   0  0  0  0  0  0  0  0  0  0  0  0
   -3.0670   67.3050   67.7620 O   0  0  0  0  0  0  0  0  0  0  0  0
   -1.9940   68.8400   65.4750 C   0  0  0  0  0  0  0  0  0  0  0  0
   -3.2870   69.3970   65.6920 O   0  0  0  0  0  0  0  0  0  0  0  0
    1.4438   69.7144   64.5533 H   0  0  0  0  0  0  0  0  0  0  0  0
    4.6727   62.9107   63.9185 H   0  0  0  0  0  0  0  0  0  0  0  0
    3.4549   62.9905   65.2198 H   0  0  0  0  0  0  0  0  0  0  0  0
    4.8195   68.0228   61.4658 H   0  0  0  0  0  0  0  0  0  0  0  0
    0.1668   66.7197   65.9268 H   0  0  0  0  0  0  0  0  0  0  0  0
    1.5676   67.0970   67.0410 H   0  0  0  0  0  0  0  0  0  0  0  0
    0.6843   69.0133   67.6410 H   0  0  0  0  0  0  0  0  0  0  0  0
    0.4456   69.4745   65.8721 H   0  0  0  0  0  0  0  0  0  0  0  0
   -1.5867   69.4825   67.4759 H   0  0  0  0  0  0  0  0  0  0  0  0
   -1.4490   66.5003   66.7623 H   0  0  0  0  0  0  0  0  0  0  0  0
   -1.1096   67.1899   68.3951 H   0  0  0  0  0  0  0  0  0  0  0  0
   -3.1921   67.3037   68.7441 H   0  0  0  0  0  0  0  0  0  0  0  0
   -1.4074   69.5165   64.8360 H   0  0  0  0  0  0  0  0  0  0  0  0
   -2.0976   67.8621   64.9821 H   0  0  0  0  0  0  0  0  0  0  0  0
   -3.4559   69.4698   66.6648 H   0  0  0  0  0  0  0  0  0  0  0  0
  2  1  1  0
  3  2  2  0
  4  3  1  0
  5  4  2  0
  5  1  1  0
  6  5  1  0
  7  6  2  0
  8  7  1  0
  9  7  1  0
 10  9  2  0
 10  4  1  0
 11 10  1  0
 12  1  1  0
 13 12  1  0
 14 13  1  0
 15 14  1  0
 16 15  1  0
 17 14  1  0
 18 17  1  0
  2 19  1  0
  8 20  1  0
  8 21  1  0
 11 22  1  0
 12 23  1  0
 12 24  1  0
 13 25  1  0
 13 26  1  0
 14 27  1  0
 15 28  1  0
 15 29  1  0
 16 30  1  0
 17 31  1  0
 17 32  1  0
 18 33  1  0
M  END
>  <score>  (5) 
-7.489

$$$$
=
     RDKit          3D

 33 34  0  0  0  0  0  0  0  0999 V2000
    3.4340   68.3760   62.9110 N   0  0  0  0  0  0  0  0  0  0  0  0
    3.9060   68.6240   61.6470 C   0  0  0  0  0  0  0  0  0  0  0  0
    2.9570   69.0550   60.8400 N   0  0  0  0  0  0  0  0  0  0  0  0
    1.8260   69.0750   61.6230 C   0  0  0  0  0  0  0  0  0  0  0  0
    2.0950   68.6530   62.9100 C   0  0  0  0  0  0  0  0  0  0  0  0
    1.2250   68.5590   63.9270 N   0  0  0  0  0  0  0  0  0  0  0  0
   -0.0170   68.9280   63.5650 C   0  0  0  0  0  0  0  0  0  0  0  0
   -0.9790   68.9140   64.5590 N   0  0  0  0  0  0  0  0  0  0  0  0
   -0.4140   69.3630   62.3580 N   0  0  0  0  0  0  0  0  0  0  0  0
    0.5060   69.4320   61.3770 C   0  0  0  0  0  0  0  0  0  0  0  0
    0.0850   69.8780   60.1480 O   0  0  0  0  0  0  0  0  0  0  0  0
    4.2040   67.8690   64.0250 C   0  0  0  0  0  0  0  0  0  0  0  0
    4.6950   66.4330   63.8320 C   0  0  0  0  0  0  0  0  0  0  0  0
    3.6320   65.3300   64.0370 C   0  0  0  0  0  0  0  0  0  0  0  0
    2.7240   65.6850   65.2270 C   0  0  0  0  0  0  0  0  0  0  0  0
    1.3710   65.8110   64.8040 O   0  0  0  0  0  0  0  0  0  0  0  0
    4.2700   63.9520   64.2470 C   0  0  0  0  0  0  0  0  0  0  0  0
    5.4640   63.8510   63.4760 O   0  0  0  0  0  0  0  0  0  0  0  0
    4.9532   68.4801   61.3427 H   0  0  0  0  0  0  0  0  0  0  0  0
   -1.9482   69.1866   64.3416 H   0  0  0  0  0  0  0  0  0  0  0  0
   -0.7261   68.6309   65.5165 H   0  0  0  0  0  0  0  0  0  0  0  0
    0.7284   69.9443   59.3985 H   0  0  0  0  0  0  0  0  0  0  0  0
    5.0799   68.5193   64.1660 H   0  0  0  0  0  0  0  0  0  0  0  0
    3.5379   67.8654   64.9004 H   0  0  0  0  0  0  0  0  0  0  0  0
    5.0826   66.3429   62.8065 H   0  0  0  0  0  0  0  0  0  0  0  0
    5.4540   66.2675   64.6108 H   0  0  0  0  0  0  0  0  0  0  0  0
    3.0265   65.2763   63.1202 H   0  0  0  0  0  0  0  0  0  0  0  0
    2.7935   64.8904   65.9845 H   0  0  0  0  0  0  0  0  0  0  0  0
    3.0540   66.6448   65.6512 H   0  0  0  0  0  0  0  0  0  0  0  0
    0.7810   65.8659   65.5971 H   0  0  0  0  0  0  0  0  0  0  0  0
    4.5106   63.8194   65.3121 H   0  0  0  0  0  0  0  0  0  0  0  0
    3.5636   63.1719   63.9270 H   0  0  0  0  0  0  0  0  0  0  0  0
    6.2438   63.7850   64.0824 H   0  0  0  0  0  0  0  0  0  0  0  0
  2  1  1  0
  3  2  2  0
  4  3  1  0
  5  4  2  0
  5  1  1  0
  6  5  1  0
  7  6  2  0
  8  7  1  0
  9  7  1  0
 10  9  2  0
 10  4  1  0
 11 10  1  0
 12  1  1  0
 13 12  1  0
 14 13  1  0
 15 14  1  0
 16 15  1  0
 17 14  1  0
 18 17  1  0
  2 19  1  0
  8 20  1  0
  8 21  1  0
 11 22  1  0
 12 23  1  0
 12 24  1  0
 13 25  1  0
 13 26  1  0
 14 27  1  0
 15 28  1  0
 15 29  1  0
 16 30  1  0
 17 31  1  0
 17 32  1  0
 18 33  1  0
M  END
>  <score>  (6) 
-7.476

$$$$
=
     RDKit          3D

 33 34  0  0  0  0  0  0  0  0999 V2000
    2.1030   68.9280   66.2900 N   0  0  0  0  0  0  0  0  0  0  0  0
    2.0140   68.6250   64.9560 C   0  0  0  0  0  0  0  0  0  0  0  0
    3.1330   68.8910   64.3120 N   0  0  0  0  0  0  0  0  0  0  0  0
    3.9710   69.3940   65.2800 C   0  0  0  0  0  0  0  0  0  0  0  0
    3.3540   69.4320   66.5140 C   0  0  0  0  0  0  0  0  0  0  0  0
    3.8860   69.8570   67.6700 N   0  0  0  0  0  0  0  0  0  0  0  0
    5.1550   70.2780   67.5180 C   0  0  0  0  0  0  0  0  0  0  0  0
    5.8100   70.6910   68.6640 N   0  0  0  0  0  0  0  0  0  0  0  0
    5.8750   70.2890   66.3840 N   0  0  0  0  0  0  0  0  0  0  0  0
    5.2830   69.8530   65.2560 C   0  0  0  0  0  0  0  0  0  0  0  0
    6.0310   69.8710   64.1040 O   0  0  0  0  0  0  0  0  0  0  0  0
    1.0490   68.7840   67.2700 C   0  0  0  0  0  0  0  0  0  0  0  0
    0.2770   67.4670   67.1560 C   0  0  0  0  0  0  0  0  0  0  0  0
   -1.1660   67.5850   66.6160 C   0  0  0  0  0  0  0  0  0  0  0  0
   -1.4500   69.0310   66.1750 C   0  0  0  0  0  0  0  0  0  0  0  0
   -2.3860   69.0530   65.1030 O   0  0  0  0  0  0  0  0  0  0  0  0
   -2.2030   67.1310   67.6520 C   0  0  0  0  0  0  0  0  0  0  0  0
   -3.3660   67.9500   67.5620 O   0  0  0  0  0  0  0  0  0  0  0  0
    1.1144   68.2088   64.4790 H   0  0  0  0  0  0  0  0  0  0  0  0
    6.7832   71.0238   68.6094 H   0  0  0  0  0  0  0  0  0  0  0  0
    5.3246   70.6658   69.5721 H   0  0  0  0  0  0  0  0  0  0  0  0
    5.6351   69.5592   63.2518 H   0  0  0  0  0  0  0  0  0  0  0  0
    1.4978   68.8375   68.2728 H   0  0  0  0  0  0  0  0  0  0  0  0
    0.3286   69.5951   67.0881 H   0  0  0  0  0  0  0  0  0  0  0  0
    0.8377   66.8030   66.4817 H   0  0  0  0  0  0  0  0  0  0  0  0
    0.1843   67.0821   68.1823 H   0  0  0  0  0  0  0  0  0  0  0  0
   -1.2525   66.9162   65.7469 H   0  0  0  0  0  0  0  0  0  0  0  0
   -1.8613   69.5942   67.0257 H   0  0  0  0  0  0  0  0  0  0  0  0
   -0.5097   69.4891   65.8343 H   0  0  0  0  0  0  0  0  0  0  0  0
   -3.3058   69.0746   65.4684 H   0  0  0  0  0  0  0  0  0  0  0  0
   -2.4781   66.0837   67.4586 H   0  0  0  0  0  0  0  0  0  0  0  0
   -1.7725   67.2211   68.6603 H   0  0  0  0  0  0  0  0  0  0  0  0
   -3.6835   68.1736   68.4727 H   0  0  0  0  0  0  0  0  0  0  0  0
  2  1  1  0
  3  2  2  0
  4  3  1  0
  5  4  2  0
  5  1  1  0
  6  5  1  0
  7  6  2  0
  8  7  1  0
  9  7  1  0
 10  9  2  0
 10  4  1  0
 11 10  1  0
 12  1  1  0
 13 12  1  0
 14 13  1  0
 15 14  1  0
 16 15  1  0
 17 14  1  0
 18 17  1  0
  2 19  1  0
  8 20  1  0
  8 21  1  0
 11 22  1  0
 12 23  1  0
 12 24  1  0
 13 25  1  0
 13 26  1  0
 14 27  1  0
 15 28  1  0
 15 29  1  0
 16 30  1  0
 17 31  1  0
 17 32  1  0
 18 33  1  0
M  END
>  <score>  (7) 
-7.464

$$$$
=
     RDKit          3D

 33 34  0  0  0  0  0  0  0  0999 V2000
    3.0950   68.9670   65.2310 N   0  0  0  0  0  0  0  0  0  0  0  0
    4.0920   68.8440   64.2970 C   0  0  0  0  0  0  0  0  0  0  0  0
    5.2600   69.2380   64.7650 N   0  0  0  0  0  0  0  0  0  0  0  0
    4.9930   69.6380   66.0540 C   0  0  0  0  0  0  0  0  0  0  0  0
    3.6560   69.4850   66.3650 C   0  0  0  0  0  0  0  0  0  0  0  0
    3.0620   69.7700   67.5330 N   0  0  0  0  0  0  0  0  0  0  0  0
    3.9300   70.2570   68.4370 C   0  0  0  0  0  0  0  0  0  0  0  0
    3.4230   70.5360   69.6930 N   0  0  0  0  0  0  0  0  0  0  0  0
    5.2500   70.4490   68.2720 N   0  0  0  0  0  0  0  0  0  0  0  0
    5.7870   70.1470   67.0750 C   0  0  0  0  0  0  0  0  0  0  0  0
    7.1370   70.3490   66.9210 O   0  0  0  0  0  0  0  0  0  0  0  0
    1.6980   68.6510   65.0330 C   0  0  0  0  0  0  0  0  0  0  0  0
    1.2250   67.4290   65.8230 C   0  0  0  0  0  0  0  0  0  0  0  0
   -0.2060   67.5200   66.4010 C   0  0  0  0  0  0  0  0  0  0  0  0
   -0.9010   68.7950   65.8940 C   0  0  0  0  0  0  0  0  0  0  0  0
   -1.4410   69.5370   66.9820 O   0  0  0  0  0  0  0  0  0  0  0  0
   -0.2060   67.4870   67.9350 C   0  0  0  0  0  0  0  0  0  0  0  0
    0.8040   68.3590   68.4360 O   0  0  0  0  0  0  0  0  0  0  0  0
    3.9355   68.4617   63.2775 H   0  0  0  0  0  0  0  0  0  0  0  0
    4.0414   70.9112   70.4263 H   0  0  0  0  0  0  0  0  0  0  0  0
    2.4270   70.3686   69.8952 H   0  0  0  0  0  0  0  0  0  0  0  0
    7.5734   70.1403   66.0572 H   0  0  0  0  0  0  0  0  0  0  0  0
    1.0983   69.5190   65.3443 H   0  0  0  0  0  0  0  0  0  0  0  0
    1.5706   68.4130   63.9666 H   0  0  0  0  0  0  0  0  0  0  0  0
    1.2647   66.5571   65.1535 H   0  0  0  0  0  0  0  0  0  0  0  0
    1.8960   67.3540   66.6914 H   0  0  0  0  0  0  0  0  0  0  0  0
   -0.7639   66.6385   66.0521 H   0  0  0  0  0  0  0  0  0  0  0  0
   -0.1686   69.4179   65.3596 H   0  0  0  0  0  0  0  0  0  0  0  0
   -1.7206   68.5079   65.2188 H   0  0  0  0  0  0  0  0  0  0  0  0
   -1.1464   69.1322   67.8360 H   0  0  0  0  0  0  0  0  0  0  0  0
   -1.1882   67.8135   68.3074 H   0  0  0  0  0  0  0  0  0  0  0  0
   -0.0028   66.4613   68.2765 H   0  0  0  0  0  0  0  0  0  0  0  0
    0.7895   68.3465   69.4258 H   0  0  0  0  0  0  0  0  0  0  0  0
  2  1  1  0
  3  2  2  0
  4  3  1  0
  5  4  2  0
  5  1  1  0
  6  5  1  0
  7  6  2  0
  8  7  1  0
  9  7  1  0
 10  9  2  0
 10  4  1  0
 11 10  1  0
 12  1  1  0
 13 12  1  0
 14 13  1  0
 15 14  1  0
 16 15  1  0
 17 14  1  0
 18 17  1  0
  2 19  1  0
  8 20  1  0
  8 21  1  0
 11 22  1  0
 12 23  1  0
 12 24  1  0
 13 25  1  0
 13 26  1  0
 14 27  1  0
 15 28  1  0
 15 29  1  0
 16 30  1  0
 17 31  1  0
 17 32  1  0
 18 33  1  0
M  END
>  <score>  (8) 
-7.449

$$$$
=
     RDKit          3D

 33 34  0  0  0  0  0  0  0  0999 V2000
    0.7060   68.0360   65.2110 N   0  0  0  0  0  0  0  0  0  0  0  0
   -0.1540   68.7410   64.4080 C   0  0  0  0  0  0  0  0  0  0  0  0
   -1.3580   68.8370   64.9360 N   0  0  0  0  0  0  0  0  0  0  0  0
   -1.2630   68.1530   66.1260 C   0  0  0  0  0  0  0  0  0  0  0  0
    0.0050   67.6430   66.3170 C   0  0  0  0  0  0  0  0  0  0  0  0
    0.4400   66.9350   67.3700 N   0  0  0  0  0  0  0  0  0  0  0  0
   -0.5270   66.7440   68.2850 C   0  0  0  0  0  0  0  0  0  0  0  0
   -0.1640   66.0660   69.4350 N   0  0  0  0  0  0  0  0  0  0  0  0
   -1.7930   67.1880   68.2310 N   0  0  0  0  0  0  0  0  0  0  0  0
   -2.1710   67.8910   67.1450 C   0  0  0  0  0  0  0  0  0  0  0  0
   -3.4690   68.3370   67.1040 O   0  0  0  0  0  0  0  0  0  0  0  0
    2.0870   67.7260   64.9160 C   0  0  0  0  0  0  0  0  0  0  0  0
    2.8670   68.8970   64.3130 C   0  0  0  0  0  0  0  0  0  0  0  0
    3.6770   68.5730   63.0380 C   0  0  0  0  0  0  0  0  0  0  0  0
    2.7530   68.5740   61.8090 C   0  0  0  0  0  0  0  0  0  0  0  0
    3.4870   68.8880   60.6310 O   0  0  0  0  0  0  0  0  0  0  0  0
    4.4100   67.2300   63.1520 C   0  0  0  0  0  0  0  0  0  0  0  0
    5.1910   67.0060   61.9810 O   0  0  0  0  0  0  0  0  0  0  0  0
    0.1279   69.1752   63.4375 H   0  0  0  0  0  0  0  0  0  0  0  0
   -0.8624   65.8902   70.1713 H   0  0  0  0  0  0  0  0  0  0  0  0
    0.8047   65.7371   69.5549 H   0  0  0  0  0  0  0  0  0  0  0  0
   -3.7893   68.8573   66.3250 H   0  0  0  0  0  0  0  0  0  0  0  0
    2.5821   67.4240   65.8507 H   0  0  0  0  0  0  0  0  0  0  0  0
    2.0819   66.9230   64.1642 H   0  0  0  0  0  0  0  0  0  0  0  0
    2.1473   69.6908   64.0642 H   0  0  0  0  0  0  0  0  0  0  0  0
    3.6063   69.1896   65.0731 H   0  0  0  0  0  0  0  0  0  0  0  0
    4.4399   69.3565   62.9198 H   0  0  0  0  0  0  0  0  0  0  0  0
    2.2988   67.5784   61.6974 H   0  0  0  0  0  0  0  0  0  0  0  0
    1.9716   69.3346   61.9533 H   0  0  0  0  0  0  0  0  0  0  0  0
    4.3676   69.2647   60.8815 H   0  0  0  0  0  0  0  0  0  0  0  0
    5.0688   67.2470   64.0327 H   0  0  0  0  0  0  0  0  0  0  0  0
    3.6721   66.4210   63.2570 H   0  0  0  0  0  0  0  0  0  0  0  0
    6.1090   66.7427   62.2420 H   0  0  0  0  0  0  0  0  0  0  0  0
  2  1  1  0
  3  2  2  0
  4  3  1  0
  5  4  2  0
  5  1  1  0
  6  5  1  0
  7  6  2  0
  8  7  1  0
  9  7  1  0
 10  9  2  0
 10  4  1  0
 11 10  1  0
 12  1  1  0
 13 12  1  0
 14 13  1  0
 15 14  1  0
 16 15  1  0
 17 14  1  0
 18 17  1  0
  2 19  1  0
  8 20  1  0
  8 21  1  0
 11 22  1  0
 12 23  1  0
 12 24  1  0
 13 25  1  0
 13 26  1  0
 14 27  1  0
 15 28  1  0
 15 29  1  0
 16 30  1  0
 17 31  1  0
 17 32  1  0
 18 33  1  0
M  END
>  <score>  (9) 
-7.412

$$$$
