=
     RDKit          3D

 56 59  0  0  0  0  0  0  0  0999 V2000
    1.1980   62.7970   73.7950 C   0  0  0  0  0  0  0  0  0  0  0  0
    0.4080   63.8660   73.3620 C   0  0  0  0  0  0  0  0  0  0  0  0
    0.7190   64.4220   72.1370 C   0  0  0  0  0  0  0  0  0  0  0  0
    1.7580   63.9790   71.3350 C   0  0  0  0  0  0  0  0  0  0  0  0
    2.5520   62.9240   71.7460 C   0  0  0  0  0  0  0  0  0  0  0  0
    2.2730   62.3240   72.9850 C   0  0  0  0  0  0  0  0  0  0  0  0
    1.8110   64.7800   70.1220 C   0  0  0  0  0  0  0  0  0  0  0  0
    0.8290   65.6980   70.1440 C   0  0  0  0  0  0  0  0  0  0  0  0
    0.0880   65.5270   71.4290 C   0  0  0  0  0  0  0  0  0  0  0  0
   -0.8590   66.1930   71.7930 O   0  0  0  0  0  0  0  0  0  0  0  0
    0.4220   66.7940   69.2040 C   0  0  1  0  0  0  0  0  0  0  0  0
    1.4860   67.2140   68.1790 C   0  0  0  0  0  0  0  0  0  0  0  0
    0.9120   67.6750   66.8380 C   0  0  0  0  0  0  0  0  0  0  0  0
   -0.3800   68.4730   66.9870 N   0  0  1  0  0  4  0  0  0  0  0  0
   -1.4530   67.6830   67.7740 C   0  0  0  0  0  0  0  0  0  0  0  0
   -0.8850   66.4610   68.4880 C   0  0  0  0  0  0  0  0  0  0  0  0
   -0.1000   69.8050   67.6910 C   0  0  0  0  0  0  0  0  0  0  0  0
   -0.9770   68.7700   65.5750 C   0  0  0  0  0  0  0  0  0  0  0  0
   -0.0140   68.8100   64.4140 C   0  0  0  0  0  0  0  0  0  0  0  0
    1.3580   68.5890   64.6130 C   0  0  0  0  0  0  0  0  0  0  0  0
    2.2450   68.6170   63.5350 C   0  0  0  0  0  0  0  0  0  0  0  0
    1.7750   68.8750   62.2510 C   0  0  0  0  0  0  0  0  0  0  0  0
    0.4200   69.1140   62.0400 C   0  0  0  0  0  0  0  0  0  0  0  0
   -0.4700   69.0870   63.1150 C   0  0  0  0  0  0  0  0  0  0  0  0
    0.8520   62.9220   76.1590 C   0  0  0  0  0  0  0  0  0  0  0  0
    1.0160   62.1380   74.9850 O   0  0  0  0  0  0  0  0  0  0  0  0
    2.9840   61.2700   73.5060 O   0  0  0  0  0  0  0  0  0  0  0  0
    4.2410   60.9580   72.9240 C   0  0  0  0  0  0  0  0  0  0  0  0
   -0.4250   64.2476   73.9707 H   0  0  0  0  0  0  0  0  0  0  0  0
    3.3808   62.5639   71.1187 H   0  0  0  0  0  0  0  0  0  0  0  0
    2.5428   64.6539   69.3105 H   0  0  0  0  0  0  0  0  0  0  0  0
    0.2825   67.6649   69.8613 H   0  0  0  0  0  0  0  0  0  0  0  0
    2.0711   68.0412   68.6073 H   0  0  0  0  0  0  0  0  0  0  0  0
    2.0981   66.3235   67.9733 H   0  0  0  0  0  0  0  0  0  0  0  0
    1.6588   68.3072   66.3354 H   0  0  0  0  0  0  0  0  0  0  0  0
    0.6773   66.7738   66.2525 H   0  0  0  0  0  0  0  0  0  0  0  0
   -1.9010   68.3512   68.5242 H   0  0  0  0  0  0  0  0  0  0  0  0
   -2.1979   67.3248   67.0482 H   0  0  0  0  0  0  0  0  0  0  0  0
   -1.6178   66.1052   69.2272 H   0  0  0  0  0  0  0  0  0  0  0  0
   -0.6809   65.6838   67.7368 H   0  0  0  0  0  0  0  0  0  0  0  0
   -0.1310   69.6575   68.7806 H   0  0  0  0  0  0  0  0  0  0  0  0
    0.8949   70.1721   67.3989 H   0  0  0  0  0  0  0  0  0  0  0  0
   -0.8629   70.5416   67.3989 H   0  0  0  0  0  0  0  0  0  0  0  0
   -1.7224   67.9901   65.3601 H   0  0  0  0  0  0  0  0  0  0  0  0
   -1.3785   69.7917   65.6459 H   0  0  0  0  0  0  0  0  0  0  0  0
    1.7374   68.3921   65.6266 H   0  0  0  0  0  0  0  0  0  0  0  0
    3.3170   68.4348   63.7011 H   0  0  0  0  0  0  0  0  0  0  0  0
    2.4746   68.8901   61.4022 H   0  0  0  0  0  0  0  0  0  0  0  0
    0.0504   69.3243   61.0255 H   0  0  0  0  0  0  0  0  0  0  0  0
   -1.5384   69.2845   62.9430 H   0  0  0  0  0  0  0  0  0  0  0  0
    0.9851   62.2857   77.0464 H   0  0  0  0  0  0  0  0  0  0  0  0
    1.6011   63.7274   76.1696 H   0  0  0  0  0  0  0  0  0  0  0  0
   -0.1571   63.3596   76.1696 H   0  0  0  0  0  0  0  0  0  0  0  0
    4.9782   60.7750   73.7197 H   0  0  0  0  0  0  0  0  0  0  0  0
    4.1430   60.0569   72.3007 H   0  0  0  0  0  0  0  0  0  0  0  0
    4.5757   61.8003   72.3007 H   0  0  0  0  0  0  0  0  0  0  0  0
  2  1  2  0
  3  2  1  0
  4  3  2  0
  5  4  1  0
  6  5  2  0
  6  1  1  0
  7  4  1  0
  8  7  2  0
  9  3  1  0
  9  8  1  0
 10  9  2  0
 11  8  1  0
 12 11  1  0
 13 12  1  0
 14 13  1  0
 15 14  1  0
 16 15  1  0
 16 11  1  0
 14 17  1  1
 18 14  1  0
 19 18  1  0
 20 19  2  0
 21 20  1  0
 22 21  2  0
 23 22  1  0
 24 23  2  0
 24 19  1  0
 26 25  1  0
 26  1  1  0
 27  6  1  0
 28 27  1  0
  2 29  1  0
  5 30  1  0
  7 31  1  0
 11 32  1  1
 12 33  1  0
 12 34  1  0
 13 35  1  0
 13 36  1  0
 15 37  1  0
 15 38  1  0
 16 39  1  0
 16 40  1  0
 17 41  1  0
 17 42  1  0
 17 43  1  0
 18 44  1  0
 18 45  1  0
 20 46  1  0
 21 47  1  0
 22 48  1  0
 23 49  1  0
 24 50  1  0
 25 51  1  0
 25 52  1  0
 25 53  1  0
 28 54  1  0
 28 55  1  0
 28 56  1  0
M  CHG  1  14   1
M  END
>  <score>  (1) 
-9.337

$$$$
=
     RDKit          3D

 56 59  0  0  0  0  0  0  0  0999 V2000
   -5.2860   58.8260   75.4180 C   0  0  0  0  0  0  0  0  0  0  0  0
   -4.0220   58.2410   75.5270 C   0  0  0  0  0  0  0  0  0  0  0  0
   -2.9580   58.9410   74.9930 C   0  0  0  0  0  0  0  0  0  0  0  0
   -3.0840   60.1710   74.3680 C   0  0  0  0  0  0  0  0  0  0  0  0
   -4.3260   60.7660   74.2500 C   0  0  0  0  0  0  0  0  0  0  0  0
   -5.4410   60.0920   74.7780 C   0  0  0  0  0  0  0  0  0  0  0  0
   -1.7760   60.6250   73.9230 C   0  0  0  0  0  0  0  0  0  0  0  0
   -0.8420   59.7210   74.2650 C   0  0  0  0  0  0  0  0  0  0  0  0
   -1.5430   58.5960   74.9540 C   0  0  0  0  0  0  0  0  0  0  0  0
   -1.0140   57.5970   75.3930 O   0  0  0  0  0  0  0  0  0  0  0  0
    0.6390   59.6360   74.0460 C   0  0  1  0  0  0  0  0  0  0  0  0
    1.1190   58.4210   73.2360 C   0  0  0  0  0  0  0  0  0  0  0  0
    2.3570   58.6930   72.3800 C   0  0  0  0  0  0  0  0  0  0  0  0
    3.3610   59.6170   73.0620 N   0  0  1  0  0  4  0  0  0  0  0  0
    2.7110   60.9560   73.4850 C   0  0  0  0  0  0  0  0  0  0  0  0
    1.1880   60.9210   73.4280 C   0  0  0  0  0  0  0  0  0  0  0  0
    3.9650   58.9260   74.2900 C   0  0  0  0  0  0  0  0  0  0  0  0
    4.5130   59.9640   72.0670 C   0  0  0  0  0  0  0  0  0  0  0  0
    4.2400   61.0410   71.0460 C   0  0  0  0  0  0  0  0  0  0  0  0
    3.3600   60.8100   69.9770 C   0  0  0  0  0  0  0  0  0  0  0  0
    3.1020   61.8120   69.0400 C   0  0  0  0  0  0  0  0  0  0  0  0
    3.7270   63.0510   69.1520 C   0  0  0  0  0  0  0  0  0  0  0  0
    4.6160   63.2900   70.1960 C   0  0  0  0  0  0  0  0  0  0  0  0
    4.8760   62.2900   71.1360 C   0  0  0  0  0  0  0  0  0  0  0  0
   -6.4430   57.7900   77.2390 C   0  0  0  0  0  0  0  0  0  0  0  0
   -6.4410   58.2580   75.8970 O   0  0  0  0  0  0  0  0  0  0  0  0
   -6.7260   60.5740   74.7270 O   0  0  0  0  0  0  0  0  0  0  0  0
   -7.2940   60.8280   73.4510 C   0  0  0  0  0  0  0  0  0  0  0  0
   -3.8805   57.2661   76.0164 H   0  0  0  0  0  0  0  0  0  0  0  0
   -4.4391   61.7421   73.7555 H   0  0  0  0  0  0  0  0  0  0  0  0
   -1.5806   61.5658   73.3876 H   0  0  0  0  0  0  0  0  0  0  0  0
    1.0464   59.4977   75.0584 H   0  0  0  0  0  0  0  0  0  0  0  0
    1.3562   57.6087   73.9388 H   0  0  0  0  0  0  0  0  0  0  0  0
    0.3053   58.1586   72.5439 H   0  0  0  0  0  0  0  0  0  0  0  0
    2.8522   57.7346   72.1651 H   0  0  0  0  0  0  0  0  0  0  0  0
    2.0186   59.1949   71.4615 H   0  0  0  0  0  0  0  0  0  0  0  0
    3.0183   61.1849   74.5161 H   0  0  0  0  0  0  0  0  0  0  0  0
    3.0500   61.7257   72.7760 H   0  0  0  0  0  0  0  0  0  0  0  0
    0.7887   61.7838   73.9813 H   0  0  0  0  0  0  0  0  0  0  0  0
    0.8790   60.9586   72.3730 H   0  0  0  0  0  0  0  0  0  0  0  0
    3.5627   59.3862   75.2046 H   0  0  0  0  0  0  0  0  0  0  0  0
    3.7066   57.8569   74.2733 H   0  0  0  0  0  0  0  0  0  0  0  0
    5.0590   59.0391   74.2733 H   0  0  0  0  0  0  0  0  0  0  0  0
    5.3799   60.2850   72.6631 H   0  0  0  0  0  0  0  0  0  0  0  0
    4.6659   59.0472   71.4787 H   0  0  0  0  0  0  0  0  0  0  0  0
    2.8693   59.8306   69.8768 H   0  0  0  0  0  0  0  0  0  0  0  0
    2.4036   61.6223   68.2116 H   0  0  0  0  0  0  0  0  0  0  0  0
    3.5183   63.8410   68.4155 H   0  0  0  0  0  0  0  0  0  0  0  0
    5.1142   64.2670   70.2809 H   0  0  0  0  0  0  0  0  0  0  0  0
    5.5854   62.4825   71.9543 H   0  0  0  0  0  0  0  0  0  0  0  0
   -6.4393   58.6485   77.9267 H   0  0  0  0  0  0  0  0  0  0  0  0
   -7.3437   57.1835   77.4145 H   0  0  0  0  0  0  0  0  0  0  0  0
   -5.5475   57.1758   77.4145 H   0  0  0  0  0  0  0  0  0  0  0  0
   -8.2917   61.2741   73.5760 H   0  0  0  0  0  0  0  0  0  0  0  0
   -6.6486   61.5232   72.8942 H   0  0  0  0  0  0  0  0  0  0  0  0
   -7.3819   59.8834   72.8942 H   0  0  0  0  0  0  0  0  0  0  0  0
  2  1  2  0
  3  2  1  0
  4  3  2  0
  5  4  1  0
  6  5  2  0
  6  1  1  0
  7  4  1  0
  8  7  2  0
  9  3  1  0
  9  8  1  0
 10  9  2  0
 11  8  1  0
 12 11  1  0
 13 12  1  0
 14 13  1  0
 15 14  1  0
 16 15  1  0
 16 11  1  0
 14 17  1  1
 18 14  1  0
 19 18  1  0
 20 19  2  0
 21 20  1  0
 22 21  2  0
 23 22  1  0
 24 23  2  0
 24 19  1  0
 26 25  1  0
 26  1  1  0
 27  6  1  0
 28 27  1  0
  2 29  1  0
  5 30  1  0
  7 31  1  0
 11 32  1  1
 12 33  1  0
 12 34  1  0
 13 35  1  0
 13 36  1  0
 15 37  1  0
 15 38  1  0
 16 39  1  0
 16 40  1  0
 17 41  1  0
 17 42  1  0
 17 43  1  0
 18 44  1  0
 18 45  1  0
 20 46  1  0
 21 47  1  0
 22 48  1  0
 23 49  1  0
 24 50  1  0
 25 51  1  0
 25 52  1  0
 25 53  1  0
 28 54  1  0
 28 55  1  0
 28 56  1  0
M  CHG  1  14   1
M  END
>  <score>  (2) 
-9.325

$$$$
=
     RDKit          3D

 56 59  0  0  0  0  0  0  0  0999 V2000
    1.8060   62.2810   73.3140 C   0  0  0  0  0  0  0  0  0  0  0  0
    2.0650   62.8400   72.0590 C   0  0  0  0  0  0  0  0  0  0  0  0
    1.3390   63.9610   71.7090 C   0  0  0  0  0  0  0  0  0  0  0  0
    0.3850   64.5440   72.5270 C   0  0  0  0  0  0  0  0  0  0  0  0
    0.1140   64.0050   73.7710 C   0  0  0  0  0  0  0  0  0  0  0  0
    0.8280   62.8640   74.1730 C   0  0  0  0  0  0  0  0  0  0  0  0
   -0.1880   65.7000   71.8560 C   0  0  0  0  0  0  0  0  0  0  0  0
    0.3900   65.8580   70.6530 C   0  0  0  0  0  0  0  0  0  0  0  0
    1.3840   64.7560   70.4900 C   0  0  0  0  0  0  0  0  0  0  0  0
    2.0890   64.5780   69.5180 O   0  0  0  0  0  0  0  0  0  0  0  0
    0.1870   66.8340   69.5330 C   0  0  1  0  0  0  0  0  0  0  0  0
    1.4480   67.5790   69.0690 C   0  0  0  0  0  0  0  0  0  0  0  0
    1.4590   67.9160   67.5770 C   0  0  0  0  0  0  0  0  0  0  0  0
    0.0840   68.3120   67.0460 N   0  0  1  0  0  4  0  0  0  0  0  0
   -0.9740   67.2200   67.3300 C   0  0  0  0  0  0  0  0  0  0  0  0
   -0.4980   66.1780   68.3350 C   0  0  0  0  0  0  0  0  0  0  0  0
   -0.3610   69.6380   67.6720 C   0  0  0  0  0  0  0  0  0  0  0  0
    0.1540   68.4880   65.4960 C   0  0  0  0  0  0  0  0  0  0  0  0
    1.4250   68.0540   64.8090 C   0  0  0  0  0  0  0  0  0  0  0  0
    2.2520   68.9930   64.1720 C   0  0  0  0  0  0  0  0  0  0  0  0
    3.4320   68.5890   63.5450 C   0  0  0  0  0  0  0  0  0  0  0  0
    3.7950   67.2450   63.5400 C   0  0  0  0  0  0  0  0  0  0  0  0
    2.9770   66.3010   64.1520 C   0  0  0  0  0  0  0  0  0  0  0  0
    1.7960   66.7000   64.7800 C   0  0  0  0  0  0  0  0  0  0  0  0
    2.3750   59.9720   73.0440 C   0  0  0  0  0  0  0  0  0  0  0  0
    2.4430   61.1700   73.8070 O   0  0  0  0  0  0  0  0  0  0  0  0
    0.6540   62.2350   75.3810 O   0  0  0  0  0  0  0  0  0  0  0  0
    0.8260   63.0000   76.5650 C   0  0  0  0  0  0  0  0  0  0  0  0
    2.8141   62.4059   71.3804 H   0  0  0  0  0  0  0  0  0  0  0  0
   -0.6417   64.4582   74.4294 H   0  0  0  0  0  0  0  0  0  0  0  0
   -0.9752   66.3470   72.2703 H   0  0  0  0  0  0  0  0  0  0  0  0
   -0.4680   67.6019   69.9703 H   0  0  0  0  0  0  0  0  0  0  0  0
    1.5229   68.5185   69.6362 H   0  0  0  0  0  0  0  0  0  0  0  0
    2.2992   66.9059   69.2491 H   0  0  0  0  0  0  0  0  0  0  0  0
    2.1532   68.7531   67.4116 H   0  0  0  0  0  0  0  0  0  0  0  0
    1.7725   67.0104   67.0370 H   0  0  0  0  0  0  0  0  0  0  0  0
   -1.8787   67.7032   67.7277 H   0  0  0  0  0  0  0  0  0  0  0  0
   -1.1709   66.6977   66.3822 H   0  0  0  0  0  0  0  0  0  0  0  0
   -1.3643   65.6004   68.6897 H   0  0  0  0  0  0  0  0  0  0  0  0
    0.2297   65.5214   67.8358 H   0  0  0  0  0  0  0  0  0  0  0  0
   -0.3327   69.5536   68.7684 H   0  0  0  0  0  0  0  0  0  0  0  0
    0.3166   70.4419   67.3485 H   0  0  0  0  0  0  0  0  0  0  0  0
   -1.3864   69.8704   67.3485 H   0  0  0  0  0  0  0  0  0  0  0  0
   -0.6726   67.9081   65.0596 H   0  0  0  0  0  0  0  0  0  0  0  0
    0.0998   69.5743   65.3315 H   0  0  0  0  0  0  0  0  0  0  0  0
    1.9678   70.0556   64.1670 H   0  0  0  0  0  0  0  0  0  0  0  0
    4.0759   69.3336   63.0542 H   0  0  0  0  0  0  0  0  0  0  0  0
    4.7290   66.9295   63.0519 H   0  0  0  0  0  0  0  0  0  0  0  0
    3.2612   65.2384   64.1411 H   0  0  0  0  0  0  0  0  0  0  0  0
    1.1504   65.9474   65.2562 H   0  0  0  0  0  0  0  0  0  0  0  0
    2.3259   59.1075   73.7224 H   0  0  0  0  0  0  0  0  0  0  0  0
    1.4765   59.9918   72.4097 H   0  0  0  0  0  0  0  0  0  0  0  0
    3.2699   59.8900   72.4097 H   0  0  0  0  0  0  0  0  0  0  0  0
    0.6807   62.3539   77.4433 H   0  0  0  0  0  0  0  0  0  0  0  0
    1.8415   63.4223   76.5844 H   0  0  0  0  0  0  0  0  0  0  0  0
    0.0890   63.8163   76.5844 H   0  0  0  0  0  0  0  0  0  0  0  0
  2  1  2  0
  3  2  1  0
  4  3  2  0
  5  4  1  0
  6  5  2  0
  6  1  1  0
  7  4  1  0
  8  7  2  0
  9  3  1  0
  9  8  1  0
 10  9  2  0
 11  8  1  0
 12 11  1  0
 13 12  1  0
 14 13  1  0
 15 14  1  0
 16 15  1  0
 16 11  1  0
 14 17  1  1
 18 14  1  0
 19 18  1  0
 20 19  2  0
 21 20  1  0
 22 21  2  0
 23 22  1  0
 24 23  2  0
 24 19  1  0
 26 25  1  0
 26  1  1  0
 27  6  1  0
 28 27  1  0
  2 29  1  0
  5 30  1  0
  7 31  1  0
 11 32  1  1
 12 33  1  0
 12 34  1  0
 13 35  1  0
 13 36  1  0
 15 37  1  0
 15 38  1  0
 16 39  1  0
 16 40  1  0
 17 41  1  0
 17 42  1  0
 17 43  1  0
 18 44  1  0
 18 45  1  0
 20 46  1  0
 21 47  1  0
 22 48  1  0
 23 49  1  0
 24 50  1  0
 25 51  1  0
 25 52  1  0
 25 53  1  0
 28 54  1  0
 28 55  1  0
 28 56  1  0
M  CHG  1  14   1
M  END
>  <score>  (3) 
-9.162

$$$$
=
     RDKit          3D

 56 59  0  0  0  0  0  0  0  0999 V2000
   -4.8180   62.4200   76.1640 C   0  0  0  0  0  0  0  0  0  0  0  0
   -3.4390   62.5190   76.3730 C   0  0  0  0  0  0  0  0  0  0  0  0
   -2.6240   61.7710   75.5470 C   0  0  0  0  0  0  0  0  0  0  0  0
   -3.1000   60.9450   74.5410 C   0  0  0  0  0  0  0  0  0  0  0  0
   -4.4600   60.8330   74.3200 C   0  0  0  0  0  0  0  0  0  0  0  0
   -5.3310   61.5760   75.1350 C   0  0  0  0  0  0  0  0  0  0  0  0
   -1.9810   60.3070   73.8670 C   0  0  0  0  0  0  0  0  0  0  0  0
   -0.8250   60.7220   74.4150 C   0  0  0  0  0  0  0  0  0  0  0  0
   -1.1720   61.6670   75.5190 C   0  0  0  0  0  0  0  0  0  0  0  0
   -0.3770   62.2320   76.2410 O   0  0  0  0  0  0  0  0  0  0  0  0
    0.6140   60.3880   74.1610 C   0  0  1  0  0  0  0  0  0  0  0  0
    0.8620   59.1000   73.3630 C   0  0  0  0  0  0  0  0  0  0  0  0
    2.1050   59.1490   72.4710 C   0  0  0  0  0  0  0  0  0  0  0  0
    3.2680   59.9010   73.1120 N   0  0  1  0  0  4  0  0  0  0  0  0
    2.8610   61.3360   73.5260 C   0  0  0  0  0  0  0  0  0  0  0  0
    1.3530   61.5540   73.5070 C   0  0  0  0  0  0  0  0  0  0  0  0
    3.7810   59.1360   74.3360 C   0  0  0  0  0  0  0  0  0  0  0  0
    4.4330   60.0370   72.0820 C   0  0  0  0  0  0  0  0  0  0  0  0
    4.3120   61.1250   71.0430 C   0  0  0  0  0  0  0  0  0  0  0  0
    4.9930   62.3430   71.1990 C   0  0  0  0  0  0  0  0  0  0  0  0
    4.8870   63.3440   70.2310 C   0  0  0  0  0  0  0  0  0  0  0  0
    4.0940   63.1450   69.1050 C   0  0  0  0  0  0  0  0  0  0  0  0
    3.3990   61.9500   68.9450 C   0  0  0  0  0  0  0  0  0  0  0  0
    3.5020   60.9460   69.9100 C   0  0  0  0  0  0  0  0  0  0  0  0
   -5.7920   64.5150   76.7890 C   0  0  0  0  0  0  0  0  0  0  0  0
   -5.7580   63.0980   76.9000 O   0  0  0  0  0  0  0  0  0  0  0  0
   -6.6990   61.5540   75.0180 O   0  0  0  0  0  0  0  0  0  0  0  0
   -7.2670   60.8180   73.9440 C   0  0  0  0  0  0  0  0  0  0  0  0
   -3.0221   63.1641   77.1604 H   0  0  0  0  0  0  0  0  0  0  0  0
   -4.8505   60.1790   73.5264 H   0  0  0  0  0  0  0  0  0  0  0  0
   -2.0668   59.5929   73.0347 H   0  0  0  0  0  0  0  0  0  0  0  0
    1.0201   60.1980   75.1655 H   0  0  0  0  0  0  0  0  0  0  0  0
    0.9797   58.2696   74.0747 H   0  0  0  0  0  0  0  0  0  0  0  0
   -0.0028   58.9676   72.6962 H   0  0  0  0  0  0  0  0  0  0  0  0
    2.4269   58.1183   72.2610 H   0  0  0  0  0  0  0  0  0  0  0  0
    1.8304   59.6879   71.5522 H   0  0  0  0  0  0  0  0  0  0  0  0
    3.2301   61.5253   74.5448 H   0  0  0  0  0  0  0  0  0  0  0  0
    3.3036   62.0283   72.7947 H   0  0  0  0  0  0  0  0  0  0  0  0
    1.1180   62.4789   74.0541 H   0  0  0  0  0  0  0  0  0  0  0  0
    1.0265   61.6272   72.4591 H   0  0  0  0  0  0  0  0  0  0  0  0
    3.4423   59.6411   75.2526 H   0  0  0  0  0  0  0  0  0  0  0  0
    3.3886   58.1085   74.3172 H   0  0  0  0  0  0  0  0  0  0  0  0
    4.8805   59.1090   74.3172 H   0  0  0  0  0  0  0  0  0  0  0  0
    5.3566   60.2230   72.6498 H   0  0  0  0  0  0  0  0  0  0  0  0
    4.4176   59.0969   71.5110 H   0  0  0  0  0  0  0  0  0  0  0  0
    5.6149   62.5100   72.0908 H   0  0  0  0  0  0  0  0  0  0  0  0
    5.4313   64.2913   70.3588 H   0  0  0  0  0  0  0  0  0  0  0  0
    4.0165   63.9326   68.3410 H   0  0  0  0  0  0  0  0  0  0  0  0
    2.7678   61.7962   68.0574 H   0  0  0  0  0  0  0  0  0  0  0  0
    2.9439   60.0069   69.7815 H   0  0  0  0  0  0  0  0  0  0  0  0
   -5.8027   64.9614   77.7943 H   0  0  0  0  0  0  0  0  0  0  0  0
   -4.9019   64.8615   76.2434 H   0  0  0  0  0  0  0  0  0  0  0  0
   -6.6977   64.8184   76.2434 H   0  0  0  0  0  0  0  0  0  0  0  0
   -7.8927   60.0073   74.3455 H   0  0  0  0  0  0  0  0  0  0  0  0
   -7.8851   61.4871   73.3274 H   0  0  0  0  0  0  0  0  0  0  0  0
   -6.4631   60.3897   73.3274 H   0  0  0  0  0  0  0  0  0  0  0  0
  2  1  2  0
  3  2  1  0
  4  3  2  0
  5  4  1  0
  6  5  2  0
  6  1  1  0
  7  4  1  0
  8  7  2  0
  9  3  1  0
  9  8  1  0
 10  9  2  0
 11  8  1  0
 12 11  1  0
 13 12  1  0
 14 13  1  0
 15 14  1  0
 16 15  1  0
 16 11  1  0
 14 17  1  1
 18 14  1  0
 19 18  1  0
 20 19  2  0
 21 20  1  0
 22 21  2  0
 23 22  1  0
 24 23  2  0
 24 19  1  0
 26 25  1  0
 26  1  1  0
 27  6  1  0
 28 27  1  0
  2 29  1  0
  5 30  1  0
  7 31  1  0
 11 32  1  1
 12 33  1  0
 12 34  1  0
 13 35  1  0
 13 36  1  0
 15 37  1  0
 15 38  1  0
 16 39  1  0
 16 40  1  0
 17 41  1  0
 17 42  1  0
 17 43  1  0
 18 44  1  0
 18 45  1  0
 20 46  1  0
 21 47  1  0
 22 48  1  0
 23 49  1  0
 24 50  1  0
 25 51  1  0
 25 52  1  0
 25 53  1  0
 28 54  1  0
 28 55  1  0
 28 56  1  0
M  CHG  1  14   1
M  END
>  <score>  (4) 
-8.761

$$$$
=
     RDKit          3D

 56 59  0  0  0  0  0  0  0  0999 V2000
    0.7500   63.4520   70.6180 C   0  0  0  0  0  0  0  0  0  0  0  0
   -0.0850   62.9020   71.5940 C   0  0  0  0  0  0  0  0  0  0  0  0
    0.3540   61.7540   72.2230 C   0  0  0  0  0  0  0  0  0  0  0  0
    1.5600   61.1340   71.9350 C   0  0  0  0  0  0  0  0  0  0  0  0
    2.4000   61.6620   70.9720 C   0  0  0  0  0  0  0  0  0  0  0  0
    1.9960   62.8310   70.3050 C   0  0  0  0  0  0  0  0  0  0  0  0
    1.7110   59.9550   72.7730 C   0  0  0  0  0  0  0  0  0  0  0  0
    0.6420   59.8310   73.5780 C   0  0  0  0  0  0  0  0  0  0  0  0
   -0.2830   60.9610   73.2660 C   0  0  0  0  0  0  0  0  0  0  0  0
   -1.3560   61.1640   73.7960 O   0  0  0  0  0  0  0  0  0  0  0  0
    0.2370   58.8170   74.6060 C   0  0  1  0  0  0  0  0  0  0  0  0
   -0.8840   57.8560   74.1800 C   0  0  0  0  0  0  0  0  0  0  0  0
   -0.7690   56.4570   74.7890 C   0  0  0  0  0  0  0  0  0  0  0  0
   -0.2660   56.4740   76.2290 N   0  0  1  0  0  4  0  0  0  0  0  0
    1.0870   57.2130   76.3540 C   0  0  0  0  0  0  0  0  0  0  0  0
    1.4390   58.0200   75.1100 C   0  0  0  0  0  0  0  0  0  0  0  0
   -1.3030   57.1370   77.1430 C   0  0  0  0  0  0  0  0  0  0  0  0
   -0.0330   55.0100   76.7190 C   0  0  0  0  0  0  0  0  0  0  0  0
   -0.4770   53.8970   75.8000 C   0  0  0  0  0  0  0  0  0  0  0  0
   -1.7500   53.3210   75.9350 C   0  0  0  0  0  0  0  0  0  0  0  0
   -2.1600   52.2990   75.0770 C   0  0  0  0  0  0  0  0  0  0  0  0
   -1.3030   51.8340   74.0840 C   0  0  0  0  0  0  0  0  0  0  0  0
   -0.0310   52.3830   73.9490 C   0  0  0  0  0  0  0  0  0  0  0  0
    0.3840   53.4060   74.8050 C   0  0  0  0  0  0  0  0  0  0  0  0
    0.4180   65.8210   70.6100 C   0  0  0  0  0  0  0  0  0  0  0  0
    0.4570   64.5880   69.9050 O   0  0  0  0  0  0  0  0  0  0  0  0
    2.7380   63.4550   69.3320 O   0  0  0  0  0  0  0  0  0  0  0  0
    3.7680   62.7120   68.6970 C   0  0  0  0  0  0  0  0  0  0  0  0
   -1.0501   63.3635   71.8501 H   0  0  0  0  0  0  0  0  0  0  0  0
    3.3595   61.1795   70.7342 H   0  0  0  0  0  0  0  0  0  0  0  0
    2.5702   59.2685   72.7512 H   0  0  0  0  0  0  0  0  0  0  0  0
   -0.1847   59.4235   75.4211 H   0  0  0  0  0  0  0  0  0  0  0  0
   -1.8469   58.2894   74.4882 H   0  0  0  0  0  0  0  0  0  0  0  0
   -0.8033   57.7361   73.0895 H   0  0  0  0  0  0  0  0  0  0  0  0
   -1.7617   55.9836   74.7699 H   0  0  0  0  0  0  0  0  0  0  0  0
   -0.0356   55.8966   74.1906 H   0  0  0  0  0  0  0  0  0  0  0  0
    1.0349   57.8976   77.2134 H   0  0  0  0  0  0  0  0  0  0  0  0
    1.8688   56.4504   76.4850 H   0  0  0  0  0  0  0  0  0  0  0  0
    2.2542   58.7171   75.3541 H   0  0  0  0  0  0  0  0  0  0  0  0
    1.7480   57.3209   74.3190 H   0  0  0  0  0  0  0  0  0  0  0  0
   -1.0301   56.9625   78.1942 H   0  0  0  0  0  0  0  0  0  0  0  0
   -1.3277   58.2188   76.9453 H   0  0  0  0  0  0  0  0  0  0  0  0
   -2.2953   56.7054   76.9453 H   0  0  0  0  0  0  0  0  0  0  0  0
    1.0463   54.8863   76.8915 H   0  0  0  0  0  0  0  0  0  0  0  0
   -0.6626   54.9067   77.6151 H   0  0  0  0  0  0  0  0  0  0  0  0
   -2.4297   53.6777   76.7229 H   0  0  0  0  0  0  0  0  0  0  0  0
   -3.1628   51.8602   75.1861 H   0  0  0  0  0  0  0  0  0  0  0  0
   -1.6308   51.0325   73.4057 H   0  0  0  0  0  0  0  0  0  0  0  0
    0.6480   52.0110   73.1676 H   0  0  0  0  0  0  0  0  0  0  0  0
    1.3933   53.8304   74.6989 H   0  0  0  0  0  0  0  0  0  0  0  0
    0.4242   65.6249   71.6924 H   0  0  0  0  0  0  0  0  0  0  0  0
    1.2975   66.4247   70.3417 H   0  0  0  0  0  0  0  0  0  0  0  0
   -0.4979   66.3680   70.3417 H   0  0  0  0  0  0  0  0  0  0  0  0
    4.4101   62.2488   69.4606 H   0  0  0  0  0  0  0  0  0  0  0  0
    3.3205   61.9274   68.0692 H   0  0  0  0  0  0  0  0  0  0  0  0
    4.3713   63.3842   68.0692 H   0  0  0  0  0  0  0  0  0  0  0  0
  2  1  2  0
  3  2  1  0
  4  3  2  0
  5  4  1  0
  6  5  2  0
  6  1  1  0
  7  4  1  0
  8  7  2  0
  9  3  1  0
  9  8  1  0
 10  9  2  0
 11  8  1  0
 12 11  1  0
 13 12  1  0
 14 13  1  0
 15 14  1  0
 16 15  1  0
 16 11  1  0
 14 17  1  1
 18 14  1  0
 19 18  1  0
 20 19  2  0
 21 20  1  0
 22 21  2  0
 23 22  1  0
 24 23  2  0
 24 19  1  0
 26 25  1  0
 26  1  1  0
 27  6  1  0
 28 27  1  0
  2 29  1  0
  5 30  1  0
  7 31  1  0
 11 32  1  1
 12 33  1  0
 12 34  1  0
 13 35  1  0
 13 36  1  0
 15 37  1  0
 15 38  1  0
 16 39  1  0
 16 40  1  0
 17 41  1  0
 17 42  1  0
 17 43  1  0
 18 44  1  0
 18 45  1  0
 20 46  1  0
 21 47  1  0
 22 48  1  0
 23 49  1  0
 24 50  1  0
 25 51  1  0
 25 52  1  0
 25 53  1  0
 28 54  1  0
 28 55  1  0
 28 56  1  0
M  CHG  1  14   1
M  END
>  <score>  (5) 
-8.753

$$$$
=
     RDKit          3D

 56 59  0  0  0  0  0  0  0  0999 V2000
    2.3570   62.6920   70.0560 C   0  0  0  0  0  0  0  0  0  0  0  0
    2.8730   61.4340   70.3810 C   0  0  0  0  0  0  0  0  0  0  0  0
    2.2350   60.7350   71.3870 C   0  0  0  0  0  0  0  0  0  0  0  0
    1.1310   61.2140   72.0740 C   0  0  0  0  0  0  0  0  0  0  0  0
    0.6070   62.4560   71.7680 C   0  0  0  0  0  0  0  0  0  0  0  0
    1.2220   63.2060   70.7500 C   0  0  0  0  0  0  0  0  0  0  0  0
    0.7130   60.2330   73.0630 C   0  0  0  0  0  0  0  0  0  0  0  0
    1.5150   59.1560   73.0010 C   0  0  0  0  0  0  0  0  0  0  0  0
    2.5330   59.4210   71.9400 C   0  0  0  0  0  0  0  0  0  0  0  0
    3.4260   58.6680   71.6140 O   0  0  0  0  0  0  0  0  0  0  0  0
    1.5840   57.8770   73.7790 C   0  0  1  0  0  0  0  0  0  0  0  0
    2.1980   57.9890   75.1830 C   0  0  0  0  0  0  0  0  0  0  0  0
    1.6030   57.0160   76.2030 C   0  0  0  0  0  0  0  0  0  0  0  0
    1.2820   55.6500   75.6030 N   0  0  1  0  0  4  0  0  0  0  0  0
    0.3410   55.7690   74.3810 C   0  0  0  0  0  0  0  0  0  0  0  0
    0.2190   57.1970   73.8620 C   0  0  0  0  0  0  0  0  0  0  0  0
    2.5740   54.9360   75.1930 C   0  0  0  0  0  0  0  0  0  0  0  0
    0.5420   54.7750   76.6640 C   0  0  0  0  0  0  0  0  0  0  0  0
   -0.5880   53.9040   76.1730 C   0  0  0  0  0  0  0  0  0  0  0  0
   -1.9200   54.3370   76.2660 C   0  0  0  0  0  0  0  0  0  0  0  0
   -2.9620   53.5330   75.8010 C   0  0  0  0  0  0  0  0  0  0  0  0
   -2.6880   52.2850   75.2490 C   0  0  0  0  0  0  0  0  0  0  0  0
   -1.3740   51.8340   75.1660 C   0  0  0  0  0  0  0  0  0  0  0  0
   -0.3290   52.6350   75.6290 C   0  0  0  0  0  0  0  0  0  0  0  0
    3.7850   62.9350   68.1510 C   0  0  0  0  0  0  0  0  0  0  0  0
    2.8770   63.5080   69.0820 O   0  0  0  0  0  0  0  0  0  0  0  0
    0.7990   64.4500   70.3500 O   0  0  0  0  0  0  0  0  0  0  0  0
    0.1920   65.2930   71.3180 C   0  0  0  0  0  0  0  0  0  0  0  0
    3.7479   61.0194   69.8589 H   0  0  0  0  0  0  0  0  0  0  0  0
   -0.2684   62.8475   72.3069 H   0  0  0  0  0  0  0  0  0  0  0  0
   -0.1318   60.3541   73.7570 H   0  0  0  0  0  0  0  0  0  0  0  0
    2.2819   57.2554   73.1989 H   0  0  0  0  0  0  0  0  0  0  0  0
    3.2772   57.7910   75.1051 H   0  0  0  0  0  0  0  0  0  0  0  0
    1.9780   59.0038   75.5460 H   0  0  0  0  0  0  0  0  0  0  0  0
    2.3259   56.8791   77.0207 H   0  0  0  0  0  0  0  0  0  0  0  0
    0.6577   57.4499   76.5609 H   0  0  0  0  0  0  0  0  0  0  0  0
    0.7335   55.1343   73.5728 H   0  0  0  0  0  0  0  0  0  0  0  0
   -0.6606   55.4488   74.7038 H   0  0  0  0  0  0  0  0  0  0  0  0
   -0.2323   57.1762   72.8591 H   0  0  0  0  0  0  0  0  0  0  0  0
   -0.4105   57.7673   74.5609 H   0  0  0  0  0  0  0  0  0  0  0  0
    3.1261   54.6309   76.0941 H   0  0  0  0  0  0  0  0  0  0  0  0
    2.3273   54.0461   74.5952 H   0  0  0  0  0  0  0  0  0  0  0  0
    3.1962   55.6183   74.5952 H   0  0  0  0  0  0  0  0  0  0  0  0
    1.2899   54.1158   77.1289 H   0  0  0  0  0  0  0  0  0  0  0  0
    0.0680   55.4966   77.3456 H   0  0  0  0  0  0  0  0  0  0  0  0
   -2.1446   55.3184   76.7092 H   0  0  0  0  0  0  0  0  0  0  0  0
   -4.0014   53.8863   75.8709 H   0  0  0  0  0  0  0  0  0  0  0  0
   -3.5101   51.6551   74.8783 H   0  0  0  0  0  0  0  0  0  0  0  0
   -1.1588   50.8451   74.7350 H   0  0  0  0  0  0  0  0  0  0  0  0
    0.7066   52.2694   75.5674 H   0  0  0  0  0  0  0  0  0  0  0  0
    4.5939   62.4246   68.6943 H   0  0  0  0  0  0  0  0  0  0  0  0
    3.2527   62.2089   67.5190 H   0  0  0  0  0  0  0  0  0  0  0  0
    4.2113   63.7280   67.5190 H   0  0  0  0  0  0  0  0  0  0  0  0
    0.4484   64.9369   72.3267 H   0  0  0  0  0  0  0  0  0  0  0  0
    0.5575   66.3224   71.1886 H   0  0  0  0  0  0  0  0  0  0  0  0
   -0.9002   65.2728   71.1886 H   0  0  0  0  0  0  0  0  0  0  0  0
  2  1  2  0
  3  2  1  0
  4  3  2  0
  5  4  1  0
  6  5  2  0
  6  1  1  0
  7  4  1  0
  8  7  2  0
  9  3  1  0
  9  8  1  0
 10  9  2  0
 11  8  1  0
 12 11  1  0
 13 12  1  0
 14 13  1  0
 15 14  1  0
 16 15  1  0
 16 11  1  0
 14 17  1  6
 18 14  1  0
 19 18  1  0
 20 19  2  0
 21 20  1  0
 22 21  2  0
 23 22  1  0
 24 23  2  0
 24 19  1  0
 26 25  1  0
 26  1  1  0
 27  6  1  0
 28 27  1  0
  2 29  1  0
  5 30  1  0
  7 31  1  0
 11 32  1  6
 12 33  1  0
 12 34  1  0
 13 35  1  0
 13 36  1  0
 15 37  1  0
 15 38  1  0
 16 39  1  0
 16 40  1  0
 17 41  1  0
 17 42  1  0
 17 43  1  0
 18 44  1  0
 18 45  1  0
 20 46  1  0
 21 47  1  0
 22 48  1  0
 23 49  1  0
 24 50  1  0
 25 51  1  0
 25 52  1  0
 25 53  1  0
 28 54  1  0
 28 55  1  0
 28 56  1  0
M  CHG  1  14   1
M  END
>  <score>  (6) 
-8.542

$$$$
=
     RDKit          3D

 56 59  0  0  0  0  0  0  0  0999 V2000
    2.3990   59.8450   72.0200 C   0  0  0  0  0  0  0  0  0  0  0  0
    1.4740   59.2840   72.9050 C   0  0  0  0  0  0  0  0  0  0  0  0
    0.3350   60.0180   73.1710 C   0  0  0  0  0  0  0  0  0  0  0  0
    0.0720   61.2580   72.6120 C   0  0  0  0  0  0  0  0  0  0  0  0
    0.9750   61.8300   71.7350 C   0  0  0  0  0  0  0  0  0  0  0  0
    2.1500   61.1210   71.4330 C   0  0  0  0  0  0  0  0  0  0  0  0
   -1.2050   61.7510   73.1030 C   0  0  0  0  0  0  0  0  0  0  0  0
   -1.7480   60.8490   73.9390 C   0  0  0  0  0  0  0  0  0  0  0  0
   -0.7940   59.7030   74.0360 C   0  0  0  0  0  0  0  0  0  0  0  0
   -0.9530   58.7070   74.7100 O   0  0  0  0  0  0  0  0  0  0  0  0
   -3.0070   60.8250   74.7520 C   0  0  1  0  0  0  0  0  0  0  0  0
   -3.3360   62.1260   75.5000 C   0  0  0  0  0  0  0  0  0  0  0  0
   -4.8340   62.4000   75.6450 C   0  0  0  0  0  0  0  0  0  0  0  0
   -5.6490   61.1340   75.8950 N   0  0  1  0  0  4  0  0  0  0  0  0
   -5.4130   60.0750   74.7920 C   0  0  0  0  0  0  0  0  0  0  0  0
   -4.2080   60.3910   73.9130 C   0  0  0  0  0  0  0  0  0  0  0  0
   -5.2960   60.5410   77.2630 C   0  0  0  0  0  0  0  0  0  0  0  0
   -7.1710   61.4800   75.8760 C   0  0  0  0  0  0  0  0  0  0  0  0
   -7.6890   62.2480   74.6850 C   0  0  0  0  0  0  0  0  0  0  0  0
   -7.7060   63.6510   74.6890 C   0  0  0  0  0  0  0  0  0  0  0  0
   -8.1770   64.3580   73.5810 C   0  0  0  0  0  0  0  0  0  0  0  0
   -8.6450   63.6740   72.4630 C   0  0  0  0  0  0  0  0  0  0  0  0
   -8.6510   62.2820   72.4510 C   0  0  0  0  0  0  0  0  0  0  0  0
   -8.1800   61.5710   73.5570 C   0  0  0  0  0  0  0  0  0  0  0  0
    3.5050   58.1070   70.8030 C   0  0  0  0  0  0  0  0  0  0  0  0
    3.5770   59.2420   71.6550 O   0  0  0  0  0  0  0  0  0  0  0  0
    3.1240   61.5770   70.5780 O   0  0  0  0  0  0  0  0  0  0  0  0
    2.8370   61.5980   69.1880 C   0  0  0  0  0  0  0  0  0  0  0  0
    1.6457   58.3015   73.3690 H   0  0  0  0  0  0  0  0  0  0  0  0
    0.7787   62.8145   71.2854 H   0  0  0  0  0  0  0  0  0  0  0  0
   -1.6581   62.7159   72.8315 H   0  0  0  0  0  0  0  0  0  0  0  0
   -2.8002   60.0779   75.5324 H   0  0  0  0  0  0  0  0  0  0  0  0
   -2.8964   62.0666   76.5066 H   0  0  0  0  0  0  0  0  0  0  0  0
   -2.9186   62.9501   74.9028 H   0  0  0  0  0  0  0  0  0  0  0  0
   -4.9847   63.0869   76.4908 H   0  0  0  0  0  0  0  0  0  0  0  0
   -5.1829   62.8347   74.6967 H   0  0  0  0  0  0  0  0  0  0  0  0
   -5.2507   59.0987   75.2720 H   0  0  0  0  0  0  0  0  0  0  0  0
   -6.3018   60.0703   74.1438 H   0  0  0  0  0  0  0  0  0  0  0  0
   -3.9380   59.4925   73.3388 H   0  0  0  0  0  0  0  0  0  0  0  0
   -4.4773   61.2175   73.2389 H   0  0  0  0  0  0  0  0  0  0  0  0
   -5.6852   61.1947   78.0575 H   0  0  0  0  0  0  0  0  0  0  0  0
   -5.7465   59.5419   77.3568 H   0  0  0  0  0  0  0  0  0  0  0  0
   -4.2030   60.4607   77.3568 H   0  0  0  0  0  0  0  0  0  0  0  0
   -7.7265   60.5318   75.9254 H   0  0  0  0  0  0  0  0  0  0  0  0
   -7.3194   62.1528   76.7335 H   0  0  0  0  0  0  0  0  0  0  0  0
   -7.3453   64.1984   75.5723 H   0  0  0  0  0  0  0  0  0  0  0  0
   -8.1782   65.4579   73.5918 H   0  0  0  0  0  0  0  0  0  0  0  0
   -9.0101   64.2332   71.5889 H   0  0  0  0  0  0  0  0  0  0  0  0
   -9.0270   61.7416   71.5697 H   0  0  0  0  0  0  0  0  0  0  0  0
   -8.1938   60.4712   73.5444 H   0  0  0  0  0  0  0  0  0  0  0  0
    3.4471   57.1936   71.4132 H   0  0  0  0  0  0  0  0  0  0  0  0
    2.6098   58.1813   70.1682 H   0  0  0  0  0  0  0  0  0  0  0  0
    4.4024   58.0676   70.1682 H   0  0  0  0  0  0  0  0  0  0  0  0
    1.7500   61.6775   69.0392 H   0  0  0  0  0  0  0  0  0  0  0  0
    3.3348   62.4621   68.7238 H   0  0  0  0  0  0  0  0  0  0  0  0
    3.2037   60.6706   68.7238 H   0  0  0  0  0  0  0  0  0  0  0  0
  2  1  2  0
  3  2  1  0
  4  3  2  0
  5  4  1  0
  6  5  2  0
  6  1  1  0
  7  4  1  0
  8  7  2  0
  9  3  1  0
  9  8  1  0
 10  9  2  0
 11  8  1  0
 12 11  1  0
 13 12  1  0
 14 13  1  0
 15 14  1  0
 16 15  1  0
 16 11  1  0
 14 17  1  1
 18 14  1  0
 19 18  1  0
 20 19  2  0
 21 20  1  0
 22 21  2  0
 23 22  1  0
 24 23  2  0
 24 19  1  0
 26 25  1  0
 26  1  1  0
 27  6  1  0
 28 27  1  0
  2 29  1  0
  5 30  1  0
  7 31  1  0
 11 32  1  1
 12 33  1  0
 12 34  1  0
 13 35  1  0
 13 36  1  0
 15 37  1  0
 15 38  1  0
 16 39  1  0
 16 40  1  0
 17 41  1  0
 17 42  1  0
 17 43  1  0
 18 44  1  0
 18 45  1  0
 20 46  1  0
 21 47  1  0
 22 48  1  0
 23 49  1  0
 24 50  1  0
 25 51  1  0
 25 52  1  0
 25 53  1  0
 28 54  1  0
 28 55  1  0
 28 56  1  0
M  CHG  1  14   1
M  END
>  <score>  (7) 
-8.381

$$$$
=
     RDKit          3D

 56 59  0  0  0  0  0  0  0  0999 V2000
    1.9530   62.8980   70.4230 C   0  0  0  0  0  0  0  0  0  0  0  0
    2.2480   61.7470   71.1600 C   0  0  0  0  0  0  0  0  0  0  0  0
    1.2570   61.2630   71.9900 C   0  0  0  0  0  0  0  0  0  0  0  0
    0.0100   61.8530   72.1240 C   0  0  0  0  0  0  0  0  0  0  0  0
   -0.3000   62.9920   71.4050 C   0  0  0  0  0  0  0  0  0  0  0  0
    0.6770   63.5230   70.5460 C   0  0  0  0  0  0  0  0  0  0  0  0
   -0.7860   61.0930   73.0750 C   0  0  0  0  0  0  0  0  0  0  0  0
   -0.0770   60.0440   73.5240 C   0  0  0  0  0  0  0  0  0  0  0  0
    1.2640   60.1000   72.8680 C   0  0  0  0  0  0  0  0  0  0  0  0
    2.1700   59.3130   73.0440 O   0  0  0  0  0  0  0  0  0  0  0  0
   -0.3600   58.9580   74.5180 C   0  0  1  0  0  0  0  0  0  0  0  0
   -1.7640   58.9830   75.1410 C   0  0  0  0  0  0  0  0  0  0  0  0
   -2.3200   57.5980   75.4800 C   0  0  0  0  0  0  0  0  0  0  0  0
   -1.2540   56.6420   76.0070 N   0  0  1  0  0  4  0  0  0  0  0  0
   -0.0710   56.5050   75.0190 C   0  0  0  0  0  0  0  0  0  0  0  0
   -0.0770   57.5750   73.9340 C   0  0  0  0  0  0  0  0  0  0  0  0
   -0.7390   57.1230   77.3670 C   0  0  0  0  0  0  0  0  0  0  0  0
   -1.8700   55.2180   76.1800 C   0  0  0  0  0  0  0  0  0  0  0  0
   -0.9710   54.0390   75.8990 C   0  0  0  0  0  0  0  0  0  0  0  0
   -0.0600   53.5850   76.8650 C   0  0  0  0  0  0  0  0  0  0  0  0
    0.7630   52.4880   76.6050 C   0  0  0  0  0  0  0  0  0  0  0  0
    0.6930   51.8380   75.3760 C   0  0  0  0  0  0  0  0  0  0  0  0
   -0.1930   52.2870   74.4020 C   0  0  0  0  0  0  0  0  0  0  0  0
   -1.0190   53.3830   74.6570 C   0  0  0  0  0  0  0  0  0  0  0  0
    3.4850   62.6820   68.5980 C   0  0  0  0  0  0  0  0  0  0  0  0
    2.8300   63.5020   69.5560 O   0  0  0  0  0  0  0  0  0  0  0  0
    0.4950   64.6470   69.7770 O   0  0  0  0  0  0  0  0  0  0  0  0
    0.7320   65.9120   70.3750 C   0  0  0  0  0  0  0  0  0  0  0  0
    3.2260   61.2495   71.0819 H   0  0  0  0  0  0  0  0  0  0  0  0
   -1.2858   63.4703   71.5027 H   0  0  0  0  0  0  0  0  0  0  0  0
   -1.8135   61.3399   73.3805 H   0  0  0  0  0  0  0  0  0  0  0  0
    0.3361   59.1702   75.3429 H   0  0  0  0  0  0  0  0  0  0  0  0
   -1.7207   59.5745   76.0674 H   0  0  0  0  0  0  0  0  0  0  0  0
   -2.4376   59.4209   74.3896 H   0  0  0  0  0  0  0  0  0  0  0  0
   -3.0999   57.7113   76.2474 H   0  0  0  0  0  0  0  0  0  0  0  0
   -2.7194   57.1664   74.5503 H   0  0  0  0  0  0  0  0  0  0  0  0
    0.8693   56.5838   75.5844 H   0  0  0  0  0  0  0  0  0  0  0  0
   -0.1687   55.5293   74.5206 H   0  0  0  0  0  0  0  0  0  0  0  0
    0.9056   57.5893   73.4397 H   0  0  0  0  0  0  0  0  0  0  0  0
   -0.8724   57.3336   73.2135 H   0  0  0  0  0  0  0  0  0  0  0  0
   -1.2887   56.6096   78.1697 H   0  0  0  0  0  0  0  0  0  0  0  0
    0.3338   56.8960   77.4540 H   0  0  0  0  0  0  0  0  0  0  0  0
   -0.8923   58.2088   77.4540 H   0  0  0  0  0  0  0  0  0  0  0  0
   -2.2146   55.1307   77.2210 H   0  0  0  0  0  0  0  0  0  0  0  0
   -2.6627   55.1577   75.4198 H   0  0  0  0  0  0  0  0  0  0  0  0
    0.0061   54.0982   77.8357 H   0  0  0  0  0  0  0  0  0  0  0  0
    1.4681   52.1365   77.3726 H   0  0  0  0  0  0  0  0  0  0  0  0
    1.3379   50.9698   75.1751 H   0  0  0  0  0  0  0  0  0  0  0  0
   -0.2428   51.7771   73.4286 H   0  0  0  0  0  0  0  0  0  0  0  0
   -1.7129   53.7360   73.8798 H   0  0  0  0  0  0  0  0  0  0  0  0
    4.0904   61.9241   69.1168 H   0  0  0  0  0  0  0  0  0  0  0  0
    2.7341   62.1830   67.9678 H   0  0  0  0  0  0  0  0  0  0  0  0
    4.1376   63.3041   67.9678 H   0  0  0  0  0  0  0  0  0  0  0  0
    0.7128   65.8093   71.4700 H   0  0  0  0  0  0  0  0  0  0  0  0
    1.7163   66.2882   70.0592 H   0  0  0  0  0  0  0  0  0  0  0  0
   -0.0493   66.6190   70.0592 H   0  0  0  0  0  0  0  0  0  0  0  0
  2  1  2  0
  3  2  1  0
  4  3  2  0
  5  4  1  0
  6  5  2  0
  6  1  1  0
  7  4  1  0
  8  7  2  0
  9  3  1  0
  9  8  1  0
 10  9  2  0
 11  8  1  0
 12 11  1  0
 13 12  1  0
 14 13  1  0
 15 14  1  0
 16 15  1  0
 16 11  1  0
 14 17  1  1
 18 14  1  0
 19 18  1  0
 20 19  2  0
 21 20  1  0
 22 21  2  0
 23 22  1  0
 24 23  2  0
 24 19  1  0
 26 25  1  0
 26  1  1  0
 27  6  1  0
 28 27  1  0
  2 29  1  0
  5 30  1  0
  7 31  1  0
 11 32  1  1
 12 33  1  0
 12 34  1  0
 13 35  1  0
 13 36  1  0
 15 37  1  0
 15 38  1  0
 16 39  1  0
 16 40  1  0
 17 41  1  0
 17 42  1  0
 17 43  1  0
 18 44  1  0
 18 45  1  0
 20 46  1  0
 21 47  1  0
 22 48  1  0
 23 49  1  0
 24 50  1  0
 25 51  1  0
 25 52  1  0
 25 53  1  0
 28 54  1  0
 28 55  1  0
 28 56  1  0
M  CHG  1  14   1
M  END
>  <score>  (8) 
-8.281

$$$$
=
     RDKit          3D

 56 59  0  0  0  0  0  0  0  0999 V2000
    0.7870   68.1220   67.3700 C   0  0  0  0  0  0  0  0  0  0  0  0
    1.5710   67.4900   68.3400 C   0  0  0  0  0  0  0  0  0  0  0  0
    0.9510   66.5390   69.1260 C   0  0  0  0  0  0  0  0  0  0  0  0
   -0.3850   66.1920   69.0010 C   0  0  0  0  0  0  0  0  0  0  0  0
   -1.1760   66.8060   68.0490 C   0  0  0  0  0  0  0  0  0  0  0  0
   -0.5900   67.7810   67.2230 C   0  0  0  0  0  0  0  0  0  0  0  0
   -0.7130   65.1660   69.9790 C   0  0  0  0  0  0  0  0  0  0  0  0
    0.3810   64.8600   70.6980 C   0  0  0  0  0  0  0  0  0  0  0  0
    1.4950   65.7230   70.2020 C   0  0  0  0  0  0  0  0  0  0  0  0
    2.6310   65.7230   70.6270 O   0  0  0  0  0  0  0  0  0  0  0  0
    0.6340   63.9210   71.8390 C   0  0  1  0  0  0  0  0  0  0  0  0
   -0.3480   62.7460   71.9580 C   0  0  0  0  0  0  0  0  0  0  0  0
    0.2770   61.4660   72.5190 C   0  0  0  0  0  0  0  0  0  0  0  0
    1.3020   61.7360   73.6170 N   0  0  1  0  0  4  0  0  0  0  0  0
    2.4150   62.6980   73.1370 C   0  0  0  0  0  0  0  0  0  0  0  0
    2.0700   63.3990   71.8280 C   0  0  0  0  0  0  0  0  0  0  0  0
    0.6100   62.3240   74.8520 C   0  0  0  0  0  0  0  0  0  0  0  0
    1.9980   60.3990   74.0220 C   0  0  0  0  0  0  0  0  0  0  0  0
    2.4400   59.4860   72.9060 C   0  0  0  0  0  0  0  0  0  0  0  0
    1.9370   58.1790   72.8060 C   0  0  0  0  0  0  0  0  0  0  0  0
    2.3410   57.3400   71.7660 C   0  0  0  0  0  0  0  0  0  0  0  0
    3.2560   57.7920   70.8200 C   0  0  0  0  0  0  0  0  0  0  0  0
    3.7770   59.0790   70.9150 C   0  0  0  0  0  0  0  0  0  0  0  0
    3.3760   59.9210   71.9540 C   0  0  0  0  0  0  0  0  0  0  0  0
    2.5950   68.9720   66.0530 C   0  0  0  0  0  0  0  0  0  0  0  0
    1.2550   69.0860   66.5120 O   0  0  0  0  0  0  0  0  0  0  0  0
   -1.2650   68.4620   66.2400 O   0  0  0  0  0  0  0  0  0  0  0  0
   -2.6850   68.4510   66.2730 C   0  0  0  0  0  0  0  0  0  0  0  0
    2.6343   67.7393   68.4711 H   0  0  0  0  0  0  0  0  0  0  0  0
   -2.2375   66.5387   67.9401 H   0  0  0  0  0  0  0  0  0  0  0  0
   -1.7054   64.7099   70.1102 H   0  0  0  0  0  0  0  0  0  0  0  0
    0.4639   64.5414   72.7313 H   0  0  0  0  0  0  0  0  0  0  0  0
   -1.1709   63.0489   72.6222 H   0  0  0  0  0  0  0  0  0  0  0  0
   -0.6899   62.5128   70.9388 H   0  0  0  0  0  0  0  0  0  0  0  0
   -0.5244   60.8371   72.9342 H   0  0  0  0  0  0  0  0  0  0  0  0
    0.8034   60.9665   71.6923 H   0  0  0  0  0  0  0  0  0  0  0  0
    2.5770   63.4617   73.9119 H   0  0  0  0  0  0  0  0  0  0  0  0
    3.3183   62.0955   72.9605 H   0  0  0  0  0  0  0  0  0  0  0  0
    2.7577   64.2452   71.6827 H   0  0  0  0  0  0  0  0  0  0  0  0
    2.1687   62.6719   71.0085 H   0  0  0  0  0  0  0  0  0  0  0  0
    1.0812   61.9236   75.7618 H   0  0  0  0  0  0  0  0  0  0  0  0
    0.7077   63.4196   74.8402 H   0  0  0  0  0  0  0  0  0  0  0  0
   -0.4555   62.0507   74.8402 H   0  0  0  0  0  0  0  0  0  0  0  0
    2.8900   60.6559   74.6122 H   0  0  0  0  0  0  0  0  0  0  0  0
    1.2274   59.8313   74.5641 H   0  0  0  0  0  0  0  0  0  0  0  0
    1.2182   57.8129   73.5538 H   0  0  0  0  0  0  0  0  0  0  0  0
    1.9354   56.3200   71.6942 H   0  0  0  0  0  0  0  0  0  0  0  0
    3.5675   57.1320   69.9970 H   0  0  0  0  0  0  0  0  0  0  0  0
    4.5055   59.4332   70.1708 H   0  0  0  0  0  0  0  0  0  0  0  0
    3.7972   60.9345   72.0275 H   0  0  0  0  0  0  0  0  0  0  0  0
    3.2745   68.9142   66.9161 H   0  0  0  0  0  0  0  0  0  0  0  0
    2.6977   68.0619   65.4438 H   0  0  0  0  0  0  0  0  0  0  0  0
    2.8500   69.8517   65.4438 H   0  0  0  0  0  0  0  0  0  0  0  0
   -3.0275   68.4483   67.3183 H   0  0  0  0  0  0  0  0  0  0  0  0
   -3.0706   69.3462   65.7631 H   0  0  0  0  0  0  0  0  0  0  0  0
   -3.0566   67.5499   65.7631 H   0  0  0  0  0  0  0  0  0  0  0  0
  2  1  2  0
  3  2  1  0
  4  3  2  0
  5  4  1  0
  6  5  2  0
  6  1  1  0
  7  4  1  0
  8  7  2  0
  9  3  1  0
  9  8  1  0
 10  9  2  0
 11  8  1  0
 12 11  1  0
 13 12  1  0
 14 13  1  0
 15 14  1  0
 16 15  1  0
 16 11  1  0
 14 17  1  1
 18 14  1  0
 19 18  1  0
 20 19  2  0
 21 20  1  0
 22 21  2  0
 23 22  1  0
 24 23  2  0
 24 19  1  0
 26 25  1  0
 26  1  1  0
 27  6  1  0
 28 27  1  0
  2 29  1  0
  5 30  1  0
  7 31  1  0
 11 32  1  1
 12 33  1  0
 12 34  1  0
 13 35  1  0
 13 36  1  0
 15 37  1  0
 15 38  1  0
 16 39  1  0
 16 40  1  0
 17 41  1  0
 17 42  1  0
 17 43  1  0
 18 44  1  0
 18 45  1  0
 20 46  1  0
 21 47  1  0
 22 48  1  0
 23 49  1  0
 24 50  1  0
 25 51  1  0
 25 52  1  0
 25 53  1  0
 28 54  1  0
 28 55  1  0
 28 56  1  0
M  CHG  1  14   1
M  END
>  <score>  (9) 
-8.174

$$$$
