=
     RDKit          3D

 84 84  0  0  0  0  0  0  0  0999 V2000
    3.0280   68.2200   66.5200 C   0  0  1  0  0  0  0  0  0  0  0  0
    1.7600   68.3140   67.4270 C   0  0  0  0  0  0  0  0  0  0  0  0
    1.2740   69.3990   67.7720 O   0  0  0  0  0  0  0  0  0  0  0  0
    1.0630   67.1460   67.6420 N   0  0  0  0  0  0  0  0  0  0  0  0
   -0.0450   67.1030   68.6060 C   0  0  2  0  0  0  0  0  0  0  0  0
    0.4150   66.3020   69.8420 C   0  0  0  0  0  0  0  0  0  0  0  0
   -0.0710   66.4520   70.9570 O   0  0  0  0  0  0  0  0  0  0  0  0
    1.3610   65.3840   69.5130 O   0  0  0  0  0  0  0  0  0  0  0  0
    1.7190   64.4350   70.5400 C   0  0  0  0  0  0  0  0  0  0  0  0
    0.6880   63.3140   70.4920 C   0  0  0  0  0  0  0  0  0  0  0  0
    3.1190   63.8950   70.2680 C   0  0  0  0  0  0  0  0  0  0  0  0
   -1.3050   66.5310   67.9480 C   0  0  0  0  0  0  0  0  0  0  0  0
   -2.3800   67.5520   67.5790 C   0  0  0  0  0  0  0  0  0  0  0  0
   -1.9170   68.7000   66.2800 S   0  0  0  0  0  6  0  0  0  0  0  0
   -1.5240   69.9750   66.8520 O   0  0  0  0  0  0  0  0  0  0  0  0
   -0.9550   68.0670   65.3840 O   0  0  0  0  0  0  0  0  0  0  0  0
   -3.4320   68.9400   65.3770 C   0  0  0  0  0  0  0  0  0  0  0  0
    2.9600   67.5680   65.2500 O   0  0  0  0  0  0  0  0  0  0  0  0
    2.8110   66.1580   65.1230 C   0  0  0  0  0  0  0  0  0  0  0  0
    3.7400   65.4710   64.0790 C   0  0  1  0  0  0  0  0  0  0  0  0
    4.6960   66.5140   63.5090 N   0  0  0  0  0  4  0  0  0  0  0  0
    4.5110   67.0500   62.1220 C   0  0  0  0  0  0  0  0  0  0  0  0
    4.0830   68.5600   62.1310 C   0  0  1  0  0  0  0  0  0  0  0  0
    5.1800   69.4400   61.5750 N   0  0  0  0  0  4  0  0  0  0  0  0
    2.7860   68.8230   61.3410 C   0  0  0  0  0  0  0  0  0  0  0  0
    1.3220   68.7670   62.4250 S   0  0  0  0  0  0  0  0  0  0  0  0
    4.5150   64.2240   64.5880 C   0  0  1  0  0  0  0  0  0  0  0  0
    3.8640   63.6770   65.8720 C   0  0  0  0  0  0  0  0  0  0  0  0
    5.9770   62.6010   63.2170 C   0  0  0  0  0  0  0  0  0  0  0  0
    4.5700   63.1040   63.5160 C   0  0  0  0  0  0  0  0  0  0  0  0
    3.6100   69.6250   66.2360 C   0  0  0  0  0  0  0  0  0  0  0  0
    4.7260   70.0540   67.1570 C   0  0  0  0  0  0  0  0  0  0  0  0
    4.4470   70.4150   68.4840 C   0  0  0  0  0  0  0  0  0  0  0  0
    5.4780   70.7790   69.3510 C   0  0  0  0  0  0  0  0  0  0  0  0
    6.7950   70.8020   68.8980 C   0  0  0  0  0  0  0  0  0  0  0  0
    7.0810   70.4720   67.5750 C   0  0  0  0  0  0  0  0  0  0  0  0
    6.0520   70.1050   66.7070 C   0  0  0  0  0  0  0  0  0  0  0  0
    3.6470   67.5639   67.1496 H   0  0  0  0  0  0  0  0  0  0  0  0
    1.3207   66.2948   67.1224 H   0  0  0  0  0  0  0  0  0  0  0  0
   -0.3148   68.1158   68.9398 H   0  0  0  0  0  0  0  0  0  0  0  0
    1.7261   64.9022   71.5358 H   0  0  0  0  0  0  0  0  0  0  0  0
    0.4178   63.0202   71.5170 H   0  0  0  0  0  0  0  0  0  0  0  0
   -0.2101   63.6643   69.9622 H   0  0  0  0  0  0  0  0  0  0  0  0
    1.1120   62.4483   69.9622 H   0  0  0  0  0  0  0  0  0  0  0  0
    3.6282   63.6986   71.2231 H   0  0  0  0  0  0  0  0  0  0  0  0
    3.0461   62.9605   69.6924 H   0  0  0  0  0  0  0  0  0  0  0  0
    3.6925   64.6364   69.6924 H   0  0  0  0  0  0  0  0  0  0  0  0
   -1.0000   66.0131   67.0267 H   0  0  0  0  0  0  0  0  0  0  0  0
   -1.7630   65.8709   68.6993 H   0  0  0  0  0  0  0  0  0  0  0  0
   -3.2735   67.0028   67.2472 H   0  0  0  0  0  0  0  0  0  0  0  0
   -2.5518   68.1587   68.4803 H   0  0  0  0  0  0  0  0  0  0  0  0
   -4.2637   69.0718   66.0847 H   0  0  0  0  0  0  0  0  0  0  0  0
   -3.3437   69.8354   64.7441 H   0  0  0  0  0  0  0  0  0  0  0  0
   -3.6248   68.0612   64.7441 H   0  0  0  0  0  0  0  0  0  0  0  0
    3.0152   65.7070   66.1053 H   0  0  0  0  0  0  0  0  0  0  0  0
    1.7845   65.9968   64.7621 H   0  0  0  0  0  0  0  0  0  0  0  0
    3.0785   65.0677   63.2982 H   0  0  0  0  0  0  0  0  0  0  0  0
    4.6589   67.3241   64.1440 H   0  0  0  0  0  0  0  0  0  0  0  0
    5.5826   65.9948   63.4362 H   0  0  0  0  0  0  0  0  0  0  0  0
    5.4594   66.9523   61.5734 H   0  0  0  0  0  0  0  0  0  0  0  0
    3.7111   66.4716   61.6366 H   0  0  0  0  0  0  0  0  0  0  0  0
    3.8966   68.8095   63.1860 H   0  0  0  0  0  0  0  0  0  0  0  0
    5.7076   69.8632   62.3519 H   0  0  0  0  0  0  0  0  0  0  0  0
    5.8160   68.8721   60.9972 H   0  0  0  0  0  0  0  0  0  0  0  0
    4.7636   70.1841   60.9972 H   0  0  0  0  0  0  0  0  0  0  0  0
    2.8472   69.8170   60.8738 H   0  0  0  0  0  0  0  0  0  0  0  0
    2.6811   68.0378   60.5778 H   0  0  0  0  0  0  0  0  0  0  0  0
    1.7229   68.7823   63.7350 H   0  0  0  0  0  0  0  0  0  0  0  0
    5.5454   64.5434   64.8029 H   0  0  0  0  0  0  0  0  0  0  0  0
    4.3710   64.1030   66.7503 H   0  0  0  0  0  0  0  0  0  0  0  0
    2.8002   63.9563   65.8914 H   0  0  0  0  0  0  0  0  0  0  0  0
    3.9558   62.5810   65.8914 H   0  0  0  0  0  0  0  0  0  0  0  0
    6.5072   62.4115   64.1620 H   0  0  0  0  0  0  0  0  0  0  0  0
    5.9174   61.6685   62.6366 H   0  0  0  0  0  0  0  0  0  0  0  0
    6.5221   63.3599   62.6366 H   0  0  0  0  0  0  0  0  0  0  0  0
    3.9674   62.2551   63.8714 H   0  0  0  0  0  0  0  0  0  0  0  0
    4.1819   63.5375   62.5825 H   0  0  0  0  0  0  0  0  0  0  0  0
    3.9965   69.6319   65.2061 H   0  0  0  0  0  0  0  0  0  0  0  0
    2.7871   70.3363   66.4000 H   0  0  0  0  0  0  0  0  0  0  0  0
    3.4074   70.4110   68.8436 H   0  0  0  0  0  0  0  0  0  0  0  0
    5.2505   71.0480   70.3931 H   0  0  0  0  0  0  0  0  0  0  0  0
    7.6084   71.0804   69.5842 H   0  0  0  0  0  0  0  0  0  0  0  0
    8.1197   70.5008   67.2141 H   0  0  0  0  0  0  0  0  0  0  0  0
    6.2835   69.8538   65.6614 H   0  0  0  0  0  0  0  0  0  0  0  0
  2  1  1  0
  3  2  2  0
  4  2  1  0
  5  4  1  0
  6  5  1  0
  7  6  2  0
  8  6  1  0
  9  8  1  0
 10  9  1  0
 11  9  1  0
 12  5  1  0
 13 12  1  0
 14 13  1  0
 15 14  2  0
 16 14  2  0
 17 14  1  0
 18  1  1  0
 19 18  1  0
 20 19  1  0
 21 20  1  0
 22 21  1  0
 23 22  1  0
 24 23  1  0
 25 23  1  0
 26 25  1  0
 27 20  1  0
 28 27  1  0
 30 27  1  0
 30 29  1  0
 31  1  1  0
 32 31  1  0
 33 32  2  0
 34 33  1  0
 35 34  2  0
 36 35  1  0
 37 32  1  0
 37 36  2  0
  1 38  1  1
  4 39  1  0
  5 40  1  1
  9 41  1  0
 10 42  1  0
 10 43  1  0
 10 44  1  0
 11 45  1  0
 11 46  1  0
 11 47  1  0
 12 48  1  0
 12 49  1  0
 13 50  1  0
 13 51  1  0
 17 52  1  0
 17 53  1  0
 17 54  1  0
 19 55  1  0
 19 56  1  0
 20 57  1  6
 21 58  1  0
 21 59  1  0
 22 60  1  0
 22 61  1  0
 23 62  1  1
 24 63  1  0
 24 64  1  0
 24 65  1  0
 25 66  1  0
 25 67  1  0
 26 68  1  0
 27 69  1  1
 28 70  1  0
 28 71  1  0
 28 72  1  0
 29 73  1  0
 29 74  1  0
 29 75  1  0
 30 76  1  0
 30 77  1  0
 31 78  1  0
 31 79  1  0
 33 80  1  0
 34 81  1  0
 35 82  1  0
 36 83  1  0
 37 84  1  0
M  CHG  2  21   1  24   1
M  END
>  <score>  (1) 
-8.91

$$$$
=
     RDKit          3D

 84 84  0  0  0  0  0  0  0  0999 V2000
    1.0560   67.6040   69.0090 C   0  0  1  0  0  0  0  0  0  0  0  0
    1.0150   66.3770   69.9730 C   0  0  0  0  0  0  0  0  0  0  0  0
    0.2570   66.3280   70.9500 O   0  0  0  0  0  0  0  0  0  0  0  0
    1.6900   65.2470   69.5680 N   0  0  0  0  0  0  0  0  0  0  0  0
    1.8440   64.1010   70.4750 C   0  0  2  0  0  0  0  0  0  0  0  0
    2.9510   63.1820   69.9180 C   0  0  0  0  0  0  0  0  0  0  0  0
    3.1870   63.0640   68.7210 O   0  0  0  0  0  0  0  0  0  0  0  0
    3.6510   62.5890   70.9190 O   0  0  0  0  0  0  0  0  0  0  0  0
    4.2880   61.3320   70.6010 C   0  0  0  0  0  0  0  0  0  0  0  0
    5.4730   61.1800   71.5460 C   0  0  0  0  0  0  0  0  0  0  0  0
    3.2920   60.1940   70.7930 C   0  0  0  0  0  0  0  0  0  0  0  0
    0.5030   63.3860   70.6670 C   0  0  0  0  0  0  0  0  0  0  0  0
    0.4320   62.4170   71.8450 C   0  0  0  0  0  0  0  0  0  0  0  0
    0.5610   63.1830   73.4630 S   0  0  0  0  0  6  0  0  0  0  0  0
    1.9410   63.1810   73.9110 O   0  0  0  0  0  0  0  0  0  0  0  0
   -0.1150   64.4770   73.4490 O   0  0  0  0  0  0  0  0  0  0  0  0
   -0.3680   62.0900   74.5160 C   0  0  0  0  0  0  0  0  0  0  0  0
    2.2120   68.4440   68.9590 O   0  0  0  0  0  0  0  0  0  0  0  0
    2.3730   69.4600   67.9740 C   0  0  0  0  0  0  0  0  0  0  0  0
    3.7560   69.4940   67.2580 C   0  0  1  0  0  0  0  0  0  0  0  0
    3.5280   69.5500   65.7510 N   0  0  0  0  0  4  0  0  0  0  0  0
    3.7400   68.3390   64.8950 C   0  0  0  0  0  0  0  0  0  0  0  0
    4.4290   68.7000   63.5320 C   0  0  1  0  0  0  0  0  0  0  0  0
    5.6510   69.5620   63.7520 N   0  0  0  0  0  4  0  0  0  0  0  0
    4.8380   67.4570   62.7160 C   0  0  0  0  0  0  0  0  0  0  0  0
    4.2490   65.9220   63.5010 S   0  0  0  0  0  0  0  0  0  0  0  0
    4.7220   70.6200   67.7180 C   0  0  1  0  0  0  0  0  0  0  0  0
    4.5050   70.9350   69.2090 C   0  0  0  0  0  0  0  0  0  0  0  0
    7.1670   70.8040   68.5170 C   0  0  0  0  0  0  0  0  0  0  0  0
    6.2060   70.2380   67.4780 C   0  0  0  0  0  0  0  0  0  0  0  0
    0.7950   67.1690   67.5480 C   0  0  0  0  0  0  0  0  0  0  0  0
   -0.5310   67.6090   66.9770 C   0  0  0  0  0  0  0  0  0  0  0  0
   -1.7300   67.1140   67.5100 C   0  0  0  0  0  0  0  0  0  0  0  0
   -2.9600   67.5430   67.0090 C   0  0  0  0  0  0  0  0  0  0  0  0
   -3.0040   68.4600   65.9610 C   0  0  0  0  0  0  0  0  0  0  0  0
   -1.8200   68.9380   65.4050 C   0  0  0  0  0  0  0  0  0  0  0  0
   -0.5890   68.5120   65.9060 C   0  0  0  0  0  0  0  0  0  0  0  0
    0.2703   68.2186   69.4727 H   0  0  0  0  0  0  0  0  0  0  0  0
    2.0908   65.2046   68.6201 H   0  0  0  0  0  0  0  0  0  0  0  0
    2.1527   64.4331   71.4772 H   0  0  0  0  0  0  0  0  0  0  0  0
    4.6301   61.3062   69.5559 H   0  0  0  0  0  0  0  0  0  0  0  0
    5.1201   61.2253   72.5869 H   0  0  0  0  0  0  0  0  0  0  0  0
    5.9631   60.2116   71.3668 H   0  0  0  0  0  0  0  0  0  0  0  0
    6.1916   61.9933   71.3668 H   0  0  0  0  0  0  0  0  0  0  0  0
    3.1385   60.0186   71.8680 H   0  0  0  0  0  0  0  0  0  0  0  0
    2.3336   60.4627   70.3248 H   0  0  0  0  0  0  0  0  0  0  0  0
    3.6853   59.2796   70.3248 H   0  0  0  0  0  0  0  0  0  0  0  0
   -0.2713   64.1535   70.8136 H   0  0  0  0  0  0  0  0  0  0  0  0
    0.3583   62.7729   69.7653 H   0  0  0  0  0  0  0  0  0  0  0  0
   -0.5305   61.8869   71.7938 H   0  0  0  0  0  0  0  0  0  0  0  0
    1.3020   61.7507   71.7490 H   0  0  0  0  0  0  0  0  0  0  0  0
   -0.1620   62.3324   75.5690 H   0  0  0  0  0  0  0  0  0  0  0  0
   -1.4425   62.2126   74.3150 H   0  0  0  0  0  0  0  0  0  0  0  0
   -0.0738   61.0493   74.3150 H   0  0  0  0  0  0  0  0  0  0  0  0
    1.5988   69.3124   67.2067 H   0  0  0  0  0  0  0  0  0  0  0  0
    2.2909   70.4155   68.5128 H   0  0  0  0  0  0  0  0  0  0  0  0
    4.2754   68.5689   67.5485 H   0  0  0  0  0  0  0  0  0  0  0  0
    2.5490   69.8388   65.6131 H   0  0  0  0  0  0  0  0  0  0  0  0
    4.2719   70.1870   65.4320 H   0  0  0  0  0  0  0  0  0  0  0  0
    4.3780   67.6265   65.4384 H   0  0  0  0  0  0  0  0  0  0  0  0
    2.7556   67.9007   64.6741 H   0  0  0  0  0  0  0  0  0  0  0  0
    3.6740   69.2541   62.9551 H   0  0  0  0  0  0  0  0  0  0  0  0
    5.8131   69.6763   64.7627 H   0  0  0  0  0  0  0  0  0  0  0  0
    6.4711   69.1113   63.3216 H   0  0  0  0  0  0  0  0  0  0  0  0
    5.5016   70.4858   63.3216 H   0  0  0  0  0  0  0  0  0  0  0  0
    4.4045   67.5324   61.7078 H   0  0  0  0  0  0  0  0  0  0  0  0
    5.9363   67.4212   62.6674 H   0  0  0  0  0  0  0  0  0  0  0  0
    4.3007   66.0568   64.8634 H   0  0  0  0  0  0  0  0  0  0  0  0
    4.4964   71.5122   67.1154 H   0  0  0  0  0  0  0  0  0  0  0  0
    5.0232   70.1828   69.8219 H   0  0  0  0  0  0  0  0  0  0  0  0
    4.9080   71.9332   69.4353 H   0  0  0  0  0  0  0  0  0  0  0  0
    3.4287   70.9141   69.4353 H   0  0  0  0  0  0  0  0  0  0  0  0
    6.7890   70.5814   69.5258 H   0  0  0  0  0  0  0  0  0  0  0  0
    8.1585   70.3456   68.3875 H   0  0  0  0  0  0  0  0  0  0  0  0
    7.2469   71.8934   68.3875 H   0  0  0  0  0  0  0  0  0  0  0  0
    6.2876   69.1411   67.4924 H   0  0  0  0  0  0  0  0  0  0  0  0
    6.4937   70.6711   66.5086 H   0  0  0  0  0  0  0  0  0  0  0  0
    1.5935   67.5898   66.9192 H   0  0  0  0  0  0  0  0  0  0  0  0
    0.7765   66.0692   67.5541 H   0  0  0  0  0  0  0  0  0  0  0  0
   -1.7008   66.3813   68.3300 H   0  0  0  0  0  0  0  0  0  0  0  0
   -3.8948   67.1571   67.4416 H   0  0  0  0  0  0  0  0  0  0  0  0
   -3.9733   68.8062   65.5730 H   0  0  0  0  0  0  0  0  0  0  0  0
   -1.8551   69.6526   64.5695 H   0  0  0  0  0  0  0  0  0  0  0  0
    0.3425   68.8874   65.4573 H   0  0  0  0  0  0  0  0  0  0  0  0
  2  1  1  0
  3  2  2  0
  4  2  1  0
  5  4  1  0
  6  5  1  0
  7  6  2  0
  8  6  1  0
  9  8  1  0
 10  9  1  0
 11  9  1  0
 12  5  1  0
 13 12  1  0
 14 13  1  0
 15 14  2  0
 16 14  2  0
 17 14  1  0
 18  1  1  0
 19 18  1  0
 20 19  1  0
 21 20  1  0
 22 21  1  0
 23 22  1  0
 24 23  1  0
 25 23  1  0
 26 25  1  0
 27 20  1  0
 28 27  1  0
 30 27  1  0
 30 29  1  0
 31  1  1  0
 32 31  1  0
 33 32  2  0
 34 33  1  0
 35 34  2  0
 36 35  1  0
 37 32  1  0
 37 36  2  0
  1 38  1  1
  4 39  1  0
  5 40  1  1
  9 41  1  0
 10 42  1  0
 10 43  1  0
 10 44  1  0
 11 45  1  0
 11 46  1  0
 11 47  1  0
 12 48  1  0
 12 49  1  0
 13 50  1  0
 13 51  1  0
 17 52  1  0
 17 53  1  0
 17 54  1  0
 19 55  1  0
 19 56  1  0
 20 57  1  6
 21 58  1  0
 21 59  1  0
 22 60  1  0
 22 61  1  0
 23 62  1  6
 24 63  1  0
 24 64  1  0
 24 65  1  0
 25 66  1  0
 25 67  1  0
 26 68  1  0
 27 69  1  6
 28 70  1  0
 28 71  1  0
 28 72  1  0
 29 73  1  0
 29 74  1  0
 29 75  1  0
 30 76  1  0
 30 77  1  0
 31 78  1  0
 31 79  1  0
 33 80  1  0
 34 81  1  0
 35 82  1  0
 36 83  1  0
 37 84  1  0
M  CHG  2  21   1  24   1
M  END
>  <score>  (2) 
-8.262

$$$$
=
     RDKit          3D

 84 84  0  0  0  0  0  0  0  0999 V2000
    1.3230   67.7480   67.8120 C   0  0  1  0  0  0  0  0  0  0  0  0
    1.5020   66.9970   69.1680 C   0  0  0  0  0  0  0  0  0  0  0  0
    1.5040   67.5890   70.2560 O   0  0  0  0  0  0  0  0  0  0  0  0
    1.4280   65.6220   69.1310 N   0  0  0  0  0  0  0  0  0  0  0  0
    1.7430   64.8240   70.3240 C   0  0  2  0  0  0  0  0  0  0  0  0
    2.7590   63.7330   69.9260 C   0  0  0  0  0  0  0  0  0  0  0  0
    3.0310   63.4600   68.7630 O   0  0  0  0  0  0  0  0  0  0  0  0
    3.3430   63.1790   71.0210 O   0  0  0  0  0  0  0  0  0  0  0  0
    3.9140   61.8640   70.8480 C   0  0  0  0  0  0  0  0  0  0  0  0
    5.0840   61.7540   71.8170 C   0  0  0  0  0  0  0  0  0  0  0  0
    2.8580   60.8060   71.1500 C   0  0  0  0  0  0  0  0  0  0  0  0
    0.4610   64.2600   70.9440 C   0  0  0  0  0  0  0  0  0  0  0  0
    0.2290   64.6060   72.4140 C   0  0  0  0  0  0  0  0  0  0  0  0
    0.2620   63.2050   73.5340 S   0  0  0  0  0  6  0  0  0  0  0  0
    1.6290   62.8790   73.8920 O   0  0  0  0  0  0  0  0  0  0  0  0
   -0.6610   63.4380   74.6410 O   0  0  0  0  0  0  0  0  0  0  0  0
   -0.3880   61.8710   72.5500 C   0  0  0  0  0  0  0  0  0  0  0  0
    0.0950   67.6460   67.0870 O   0  0  0  0  0  0  0  0  0  0  0  0
   -0.0220   68.0470   65.7250 C   0  0  0  0  0  0  0  0  0  0  0  0
    1.2990   68.0360   64.9010 C   0  0  1  0  0  0  0  0  0  0  0  0
    1.5980   66.6040   64.4680 N   0  0  0  0  0  4  0  0  0  0  0  0
    2.7380   65.8410   65.0690 C   0  0  0  0  0  0  0  0  0  0  0  0
    3.4510   64.9250   64.0130 C   0  0  1  0  0  0  0  0  0  0  0  0
    4.3930   65.7280   63.1440 N   0  0  0  0  0  4  0  0  0  0  0  0
    4.2350   63.7630   64.6540 C   0  0  0  0  0  0  0  0  0  0  0  0
    5.3280   62.9500   63.4440 S   0  0  0  0  0  0  0  0  0  0  0  0
    1.3410   69.0050   63.6870 C   0  0  1  0  0  0  0  0  0  0  0  0
    2.4710   68.6050   62.7220 C   0  0  0  0  0  0  0  0  0  0  0  0
    0.0420   69.7740   61.5960 C   0  0  0  0  0  0  0  0  0  0  0  0
   -0.0100   69.0280   62.9240 C   0  0  0  0  0  0  0  0  0  0  0  0
    1.5810   69.2640   67.9800 C   0  0  0  0  0  0  0  0  0  0  0  0
    3.0220   69.6880   67.8350 C   0  0  0  0  0  0  0  0  0  0  0  0
    3.6830   70.3220   68.8970 C   0  0  0  0  0  0  0  0  0  0  0  0
    5.0250   70.6850   68.7820 C   0  0  0  0  0  0  0  0  0  0  0  0
    5.7170   70.4330   67.5990 C   0  0  0  0  0  0  0  0  0  0  0  0
    5.0630   69.8300   66.5260 C   0  0  0  0  0  0  0  0  0  0  0  0
    3.7220   69.4630   66.6410 C   0  0  0  0  0  0  0  0  0  0  0  0
    2.0627   67.2006   67.2093 H   0  0  0  0  0  0  0  0  0  0  0  0
    1.1494   65.1491   68.2594 H   0  0  0  0  0  0  0  0  0  0  0  0
    2.2038   65.4481   71.1039 H   0  0  0  0  0  0  0  0  0  0  0  0
    4.2600   61.7074   69.8156 H   0  0  0  0  0  0  0  0  0  0  0  0
    4.7088   61.7893   72.8504 H   0  0  0  0  0  0  0  0  0  0  0  0
    5.6100   60.8024   71.6502 H   0  0  0  0  0  0  0  0  0  0  0  0
    5.7782   62.5908   71.6502 H   0  0  0  0  0  0  0  0  0  0  0  0
    2.7492   60.6970   72.2392 H   0  0  0  0  0  0  0  0  0  0  0  0
    1.8959   61.1134   70.7143 H   0  0  0  0  0  0  0  0  0  0  0  0
    3.1672   59.8445   70.7143 H   0  0  0  0  0  0  0  0  0  0  0  0
   -0.3920   64.6465   70.3670 H   0  0  0  0  0  0  0  0  0  0  0  0
    0.5655   63.1656   70.9061 H   0  0  0  0  0  0  0  0  0  0  0  0
    1.0125   65.3119   72.7267 H   0  0  0  0  0  0  0  0  0  0  0  0
   -0.7856   65.0264   72.4756 H   0  0  0  0  0  0  0  0  0  0  0  0
   -0.7729   61.0811   73.2117 H   0  0  0  0  0  0  0  0  0  0  0  0
   -1.2037   62.2473   71.9152 H   0  0  0  0  0  0  0  0  0  0  0  0
    0.4111   61.4605   71.9152 H   0  0  0  0  0  0  0  0  0  0  0  0
   -0.7329   67.3672   65.2326 H   0  0  0  0  0  0  0  0  0  0  0  0
   -0.3511   69.0963   65.7491 H   0  0  0  0  0  0  0  0  0  0  0  0
    2.0814   68.4213   65.5714 H   0  0  0  0  0  0  0  0  0  0  0  0
    0.7464   66.0565   64.6574 H   0  0  0  0  0  0  0  0  0  0  0  0
    1.8931   66.7195   63.4879 H   0  0  0  0  0  0  0  0  0  0  0  0
    3.4707   66.5555   65.4723 H   0  0  0  0  0  0  0  0  0  0  0  0
    2.3348   65.1954   65.8631 H   0  0  0  0  0  0  0  0  0  0  0  0
    2.6446   64.4953   63.4006 H   0  0  0  0  0  0  0  0  0  0  0  0
    5.0315   66.2723   63.7415 H   0  0  0  0  0  0  0  0  0  0  0  0
    4.9401   65.0893   62.5493 H   0  0  0  0  0  0  0  0  0  0  0  0
    3.8490   66.3693   62.5493 H   0  0  0  0  0  0  0  0  0  0  0  0
    4.8457   64.1562   65.4801 H   0  0  0  0  0  0  0  0  0  0  0  0
    3.5125   63.0195   65.0217 H   0  0  0  0  0  0  0  0  0  0  0  0
    6.2902   62.2343   64.1064 H   0  0  0  0  0  0  0  0  0  0  0  0
    1.5309   70.0149   64.0794 H   0  0  0  0  0  0  0  0  0  0  0  0
    3.3533   68.2927   63.2999 H   0  0  0  0  0  0  0  0  0  0  0  0
    2.1340   67.7715   62.0881 H   0  0  0  0  0  0  0  0  0  0  0  0
    2.7334   69.4649   62.0881 H   0  0  0  0  0  0  0  0  0  0  0  0
    0.1173   70.8550   61.7854 H   0  0  0  0  0  0  0  0  0  0  0  0
    0.9191   69.4403   61.0221 H   0  0  0  0  0  0  0  0  0  0  0  0
   -0.8729   69.5652   61.0221 H   0  0  0  0  0  0  0  0  0  0  0  0
   -0.3133   67.9894   62.7259 H   0  0  0  0  0  0  0  0  0  0  0  0
   -0.7277   69.5638   63.5627 H   0  0  0  0  0  0  0  0  0  0  0  0
    0.9909   69.7964   67.2195 H   0  0  0  0  0  0  0  0  0  0  0  0
    1.2912   69.5116   69.0118 H   0  0  0  0  0  0  0  0  0  0  0  0
    3.1385   70.5349   69.8288 H   0  0  0  0  0  0  0  0  0  0  0  0
    5.5373   71.1705   69.6257 H   0  0  0  0  0  0  0  0  0  0  0  0
    6.7781   70.7096   67.5121 H   0  0  0  0  0  0  0  0  0  0  0  0
    5.6050   69.6432   65.5872 H   0  0  0  0  0  0  0  0  0  0  0  0
    3.2097   68.9934   65.7883 H   0  0  0  0  0  0  0  0  0  0  0  0
  2  1  1  0
  3  2  2  0
  4  2  1  0
  5  4  1  0
  6  5  1  0
  7  6  2  0
  8  6  1  0
  9  8  1  0
 10  9  1  0
 11  9  1  0
 12  5  1  0
 13 12  1  0
 14 13  1  0
 15 14  2  0
 16 14  2  0
 17 14  1  0
 18  1  1  0
 19 18  1  0
 20 19  1  0
 21 20  1  0
 22 21  1  0
 23 22  1  0
 24 23  1  0
 25 23  1  0
 26 25  1  0
 27 20  1  0
 28 27  1  0
 30 27  1  0
 30 29  1  0
 31  1  1  0
 32 31  1  0
 33 32  2  0
 34 33  1  0
 35 34  2  0
 36 35  1  0
 37 32  1  0
 37 36  2  0
  1 38  1  6
  4 39  1  0
  5 40  1  1
  9 41  1  0
 10 42  1  0
 10 43  1  0
 10 44  1  0
 11 45  1  0
 11 46  1  0
 11 47  1  0
 12 48  1  0
 12 49  1  0
 13 50  1  0
 13 51  1  0
 17 52  1  0
 17 53  1  0
 17 54  1  0
 19 55  1  0
 19 56  1  0
 20 57  1  1
 21 58  1  0
 21 59  1  0
 22 60  1  0
 22 61  1  0
 23 62  1  6
 24 63  1  0
 24 64  1  0
 24 65  1  0
 25 66  1  0
 25 67  1  0
 26 68  1  0
 27 69  1  1
 28 70  1  0
 28 71  1  0
 28 72  1  0
 29 73  1  0
 29 74  1  0
 29 75  1  0
 30 76  1  0
 30 77  1  0
 31 78  1  0
 31 79  1  0
 33 80  1  0
 34 81  1  0
 35 82  1  0
 36 83  1  0
 37 84  1  0
M  CHG  2  21   1  24   1
M  END
>  <score>  (3) 
-8.2

$$$$
=
     RDKit          3D

 84 84  0  0  0  0  0  0  0  0999 V2000
    1.1780   65.1700   70.5960 C   0  0  1  0  0  0  0  0  0  0  0  0
    0.6440   66.2510   69.6040 C   0  0  0  0  0  0  0  0  0  0  0  0
   -0.5490   66.5790   69.5640 O   0  0  0  0  0  0  0  0  0  0  0  0
    1.5870   66.9960   68.9310 N   0  0  0  0  0  0  0  0  0  0  0  0
    1.1860   67.9220   67.8630 C   0  0  2  0  0  0  0  0  0  0  0  0
    0.9370   67.1050   66.5770 C   0  0  0  0  0  0  0  0  0  0  0  0
    1.8390   66.6040   65.9160 O   0  0  0  0  0  0  0  0  0  0  0  0
   -0.3910   66.9690   66.3270 O   0  0  0  0  0  0  0  0  0  0  0  0
   -1.2140   68.1270   66.5810 C   0  0  0  0  0  0  0  0  0  0  0  0
   -1.3110   68.9040   65.2740 C   0  0  0  0  0  0  0  0  0  0  0  0
   -2.5940   67.6780   67.0480 C   0  0  0  0  0  0  0  0  0  0  0  0
    2.2350   69.0240   67.6870 C   0  0  0  0  0  0  0  0  0  0  0  0
    2.5490   69.8450   68.9370 C   0  0  0  0  0  0  0  0  0  0  0  0
    4.1490   70.6560   68.9250 S   0  0  0  0  0  6  0  0  0  0  0  0
    3.9880   72.0840   68.7200 O   0  0  0  0  0  0  0  0  0  0  0  0
    4.9130   70.2510   70.1010 O   0  0  0  0  0  0  0  0  0  0  0  0
    4.9500   69.9750   67.4890 C   0  0  0  0  0  0  0  0  0  0  0  0
    0.5200   64.9500   71.8460 O   0  0  0  0  0  0  0  0  0  0  0  0
    0.0670   63.6620   72.2530 C   0  0  0  0  0  0  0  0  0  0  0  0
    0.5680   63.1780   73.6450 C   0  0  1  0  0  0  0  0  0  0  0  0
   -0.5910   63.2420   74.6350 N   0  0  0  0  0  4  0  0  0  0  0  0
   -0.4820   64.0450   75.8960 C   0  0  0  0  0  0  0  0  0  0  0  0
    0.7950   63.6620   76.7230 C   0  0  1  0  0  0  0  0  0  0  0  0
    1.8580   64.7320   76.6090 N   0  0  0  0  0  4  0  0  0  0  0  0
    0.4960   63.4170   78.2150 C   0  0  0  0  0  0  0  0  0  0  0  0
   -0.7110   62.0710   78.4400 S   0  0  0  0  0  0  0  0  0  0  0  0
    1.2420   61.7780   73.6670 C   0  0  1  0  0  0  0  0  0  0  0  0
    0.6750   60.8950   72.5400 C   0  0  0  0  0  0  0  0  0  0  0  0
    3.4930   60.5310   73.5130 C   0  0  0  0  0  0  0  0  0  0  0  0
    2.7830   61.8790   73.5220 C   0  0  0  0  0  0  0  0  0  0  0  0
    1.2530   63.7830   69.9160 C   0  0  0  0  0  0  0  0  0  0  0  0
    2.5790   63.0760   70.0480 C   0  0  0  0  0  0  0  0  0  0  0  0
    3.6940   63.7540   70.5640 C   0  0  0  0  0  0  0  0  0  0  0  0
    4.9130   63.0950   70.7220 C   0  0  0  0  0  0  0  0  0  0  0  0
    5.0370   61.7580   70.3520 C   0  0  0  0  0  0  0  0  0  0  0  0
    3.9450   61.0810   69.8120 C   0  0  0  0  0  0  0  0  0  0  0  0
    2.7230   61.7380   69.6560 C   0  0  0  0  0  0  0  0  0  0  0  0
    2.1439   65.6292   70.8532 H   0  0  0  0  0  0  0  0  0  0  0  0
    2.5824   66.9031   69.1787 H   0  0  0  0  0  0  0  0  0  0  0  0
    0.2503   68.4388   68.1227 H   0  0  0  0  0  0  0  0  0  0  0  0
   -0.7825   68.7623   67.3685 H   0  0  0  0  0  0  0  0  0  0  0  0
   -1.4446   69.9738   65.4925 H   0  0  0  0  0  0  0  0  0  0  0  0
   -0.3880   68.7609   64.6930 H   0  0  0  0  0  0  0  0  0  0  0  0
   -2.1705   68.5383   64.6930 H   0  0  0  0  0  0  0  0  0  0  0  0
   -2.6238   67.6683   68.1476 H   0  0  0  0  0  0  0  0  0  0  0  0
   -3.3549   68.3749   66.6667 H   0  0  0  0  0  0  0  0  0  0  0  0
   -2.7991   66.6668   66.6667 H   0  0  0  0  0  0  0  0  0  0  0  0
    3.1691   68.5509   67.3498 H   0  0  0  0  0  0  0  0  0  0  0  0
    1.8073   69.7324   66.9623 H   0  0  0  0  0  0  0  0  0  0  0  0
    1.7743   70.6189   69.0411 H   0  0  0  0  0  0  0  0  0  0  0  0
    2.5695   69.1341   69.7762 H   0  0  0  0  0  0  0  0  0  0  0  0
    5.7525   69.2927   67.8058 H   0  0  0  0  0  0  0  0  0  0  0  0
    4.2145   69.4214   66.8868 H   0  0  0  0  0  0  0  0  0  0  0  0
    5.3780   70.7900   66.8868 H   0  0  0  0  0  0  0  0  0  0  0  0
   -1.0325   63.6831   72.2783 H   0  0  0  0  0  0  0  0  0  0  0  0
    0.4834   62.9534   71.5219 H   0  0  0  0  0  0  0  0  0  0  0  0
    1.3783   63.8635   73.9342 H   0  0  0  0  0  0  0  0  0  0  0  0
   -1.3987   63.6169   74.1173 H   0  0  0  0  0  0  0  0  0  0  0  0
   -0.6454   62.2748   74.9849 H   0  0  0  0  0  0  0  0  0  0  0  0
   -0.4301   65.1123   75.6349 H   0  0  0  0  0  0  0  0  0  0  0  0
   -1.3662   63.8314   76.5145 H   0  0  0  0  0  0  0  0  0  0  0  0
    1.1581   62.7191   76.2881 H   0  0  0  0  0  0  0  0  0  0  0  0
    2.1509   65.0268   77.5515 H   0  0  0  0  0  0  0  0  0  0  0  0
    2.6701   64.3562   76.0990 H   0  0  0  0  0  0  0  0  0  0  0  0
    1.4769   65.5416   76.0990 H   0  0  0  0  0  0  0  0  0  0  0  0
    1.4313   63.1482   78.7278 H   0  0  0  0  0  0  0  0  0  0  0  0
    0.0692   64.3384   78.6380 H   0  0  0  0  0  0  0  0  0  0  0  0
   -0.9070   61.8524   79.7782 H   0  0  0  0  0  0  0  0  0  0  0  0
    1.0194   61.3216   74.6428 H   0  0  0  0  0  0  0  0  0  0  0  0
    0.1299   60.0461   72.9784 H   0  0  0  0  0  0  0  0  0  0  0  0
   -0.0107   61.4894   71.9183 H   0  0  0  0  0  0  0  0  0  0  0  0
    1.5008   60.5188   71.9183 H   0  0  0  0  0  0  0  0  0  0  0  0
    3.6667   60.2012   74.5479 H   0  0  0  0  0  0  0  0  0  0  0  0
    2.8678   59.7907   72.9923 H   0  0  0  0  0  0  0  0  0  0  0  0
    4.4571   60.6278   72.9923 H   0  0  0  0  0  0  0  0  0  0  0  0
    3.0087   62.3954   72.5773 H   0  0  0  0  0  0  0  0  0  0  0  0
    3.1508   62.4272   74.4019 H   0  0  0  0  0  0  0  0  0  0  0  0
    0.4791   63.1420   70.3634 H   0  0  0  0  0  0  0  0  0  0  0  0
    1.1067   63.9611   68.8404 H   0  0  0  0  0  0  0  0  0  0  0  0
    3.6059   64.8136   70.8461 H   0  0  0  0  0  0  0  0  0  0  0  0
    5.7776   63.6319   71.1394 H   0  0  0  0  0  0  0  0  0  0  0  0
    5.9963   61.2367   70.4859 H   0  0  0  0  0  0  0  0  0  0  0  0
    4.0460   60.0285   69.5086 H   0  0  0  0  0  0  0  0  0  0  0  0
    1.8665   61.2013   69.2220 H   0  0  0  0  0  0  0  0  0  0  0  0
  2  1  1  0
  3  2  2  0
  4  2  1  0
  5  4  1  0
  6  5  1  0
  7  6  2  0
  8  6  1  0
  9  8  1  0
 10  9  1  0
 11  9  1  0
 12  5  1  0
 13 12  1  0
 14 13  1  0
 15 14  2  0
 16 14  2  0
 17 14  1  0
 18  1  1  0
 19 18  1  0
 20 19  1  0
 21 20  1  0
 22 21  1  0
 23 22  1  0
 24 23  1  0
 25 23  1  0
 26 25  1  0
 27 20  1  0
 28 27  1  0
 30 27  1  0
 30 29  1  0
 31  1  1  0
 32 31  1  0
 33 32  2  0
 34 33  1  0
 35 34  2  0
 36 35  1  0
 37 32  1  0
 37 36  2  0
  1 38  1  1
  4 39  1  0
  5 40  1  1
  9 41  1  0
 10 42  1  0
 10 43  1  0
 10 44  1  0
 11 45  1  0
 11 46  1  0
 11 47  1  0
 12 48  1  0
 12 49  1  0
 13 50  1  0
 13 51  1  0
 17 52  1  0
 17 53  1  0
 17 54  1  0
 19 55  1  0
 19 56  1  0
 20 57  1  1
 21 58  1  0
 21 59  1  0
 22 60  1  0
 22 61  1  0
 23 62  1  6
 24 63  1  0
 24 64  1  0
 24 65  1  0
 25 66  1  0
 25 67  1  0
 26 68  1  0
 27 69  1  1
 28 70  1  0
 28 71  1  0
 28 72  1  0
 29 73  1  0
 29 74  1  0
 29 75  1  0
 30 76  1  0
 30 77  1  0
 31 78  1  0
 31 79  1  0
 33 80  1  0
 34 81  1  0
 35 82  1  0
 36 83  1  0
 37 84  1  0
M  CHG  2  21   1  24   1
M  END
>  <score>  (4) 
-7.583

$$$$
=
     RDKit          3D

 84 84  0  0  0  0  0  0  0  0999 V2000
    1.0980   64.7450   70.5610 C   0  0  1  0  0  0  0  0  0  0  0  0
    0.4280   64.2610   71.8850 C   0  0  0  0  0  0  0  0  0  0  0  0
   -0.0270   65.0500   72.7230 O   0  0  0  0  0  0  0  0  0  0  0  0
    0.1530   62.9150   71.9860 N   0  0  0  0  0  0  0  0  0  0  0  0
   -0.3260   62.3410   73.2510 C   0  0  2  0  0  0  0  0  0  0  0  0
    0.8790   61.7350   73.9990 C   0  0  0  0  0  0  0  0  0  0  0  0
    1.0600   61.8730   75.2030 O   0  0  0  0  0  0  0  0  0  0  0  0
    1.6530   60.9890   73.1680 O   0  0  0  0  0  0  0  0  0  0  0  0
    2.1670   59.7520   73.7070 C   0  0  0  0  0  0  0  0  0  0  0  0
    1.6090   58.6240   72.8480 C   0  0  0  0  0  0  0  0  0  0  0  0
    3.6910   59.7690   73.6570 C   0  0  0  0  0  0  0  0  0  0  0  0
   -1.4480   61.3310   72.9900 C   0  0  0  0  0  0  0  0  0  0  0  0
   -1.7860   60.4020   74.1550 C   0  0  0  0  0  0  0  0  0  0  0  0
   -2.9940   61.0510   75.3120 S   0  0  0  0  0  6  0  0  0  0  0  0
   -2.8510   60.4040   76.6030 O   0  0  0  0  0  0  0  0  0  0  0  0
   -2.9450   62.5100   75.3070 O   0  0  0  0  0  0  0  0  0  0  0  0
   -4.5520   60.5520   74.6100 C   0  0  0  0  0  0  0  0  0  0  0  0
    0.8530   66.0650   70.0690 O   0  0  0  0  0  0  0  0  0  0  0  0
   -0.2860   66.3850   69.2770 C   0  0  0  0  0  0  0  0  0  0  0  0
   -0.0260   67.3320   68.0680 C   0  0  1  0  0  0  0  0  0  0  0  0
    1.2960   66.9410   67.4130 N   0  0  0  0  0  4  0  0  0  0  0  0
    2.0170   67.8950   66.5110 C   0  0  0  0  0  0  0  0  0  0  0  0
    2.3970   67.2300   65.1410 C   0  0  1  0  0  0  0  0  0  0  0  0
    1.1650   66.9610   64.3070 N   0  0  0  0  0  4  0  0  0  0  0  0
    3.3830   68.0770   64.3130 C   0  0  0  0  0  0  0  0  0  0  0  0
    2.7390   68.4030   62.6400 S   0  0  0  0  0  0  0  0  0  0  0  0
   -1.1670   67.4070   67.0170 C   0  0  1  0  0  0  0  0  0  0  0  0
   -2.4770   66.8530   67.6090 C   0  0  0  0  0  0  0  0  0  0  0  0
   -2.5380   68.9990   65.5220 C   0  0  0  0  0  0  0  0  0  0  0  0
   -1.3960   68.8590   66.5200 C   0  0  0  0  0  0  0  0  0  0  0  0
    2.6360   64.6090   70.6360 C   0  0  0  0  0  0  0  0  0  0  0  0
    3.1700   63.2220   70.3720 C   0  0  0  0  0  0  0  0  0  0  0  0
    2.4610   62.3370   69.5470 C   0  0  0  0  0  0  0  0  0  0  0  0
    2.9660   61.0660   69.2710 C   0  0  0  0  0  0  0  0  0  0  0  0
    4.1770   60.6600   69.8280 C   0  0  0  0  0  0  0  0  0  0  0  0
    4.8770   61.5210   70.6720 C   0  0  0  0  0  0  0  0  0  0  0  0
    4.3750   62.7930   70.9470 C   0  0  0  0  0  0  0  0  0  0  0  0
    0.5926   64.0720   69.8527 H   0  0  0  0  0  0  0  0  0  0  0  0
    0.2844   62.3048   71.1666 H   0  0  0  0  0  0  0  0  0  0  0  0
   -0.7665   63.1182   73.8928 H   0  0  0  0  0  0  0  0  0  0  0  0
    1.8671   59.6140   74.7563 H   0  0  0  0  0  0  0  0  0  0  0  0
    1.2155   57.8285   73.4979 H   0  0  0  0  0  0  0  0  0  0  0  0
    0.7993   59.0128   72.2130 H   0  0  0  0  0  0  0  0  0  0  0  0
    2.4094   58.2163   72.2130 H   0  0  0  0  0  0  0  0  0  0  0  0
    4.0914   59.7735   74.6815 H   0  0  0  0  0  0  0  0  0  0  0  0
    4.0505   58.8748   73.1267 H   0  0  0  0  0  0  0  0  0  0  0  0
    4.0304   60.6710   73.1267 H   0  0  0  0  0  0  0  0  0  0  0  0
   -2.3569   61.8944   72.7321 H   0  0  0  0  0  0  0  0  0  0  0  0
   -1.0835   60.6793   72.1822 H   0  0  0  0  0  0  0  0  0  0  0  0
   -2.1805   59.4628   73.7399 H   0  0  0  0  0  0  0  0  0  0  0  0
   -0.8541   60.2687   74.7240 H   0  0  0  0  0  0  0  0  0  0  0  0
   -5.2624   60.3245   75.4185 H   0  0  0  0  0  0  0  0  0  0  0  0
   -4.9521   61.3669   73.9889 H   0  0  0  0  0  0  0  0  0  0  0  0
   -4.4042   59.6562   73.9889 H   0  0  0  0  0  0  0  0  0  0  0  0
   -0.7003   65.4441   68.8858 H   0  0  0  0  0  0  0  0  0  0  0  0
   -0.9695   66.9317   69.9434 H   0  0  0  0  0  0  0  0  0  0  0  0
    0.0183   68.3511   68.4798 H   0  0  0  0  0  0  0  0  0  0  0  0
    1.9464   66.7118   68.1781 H   0  0  0  0  0  0  0  0  0  0  0  0
    1.0180   66.1852   66.7708 H   0  0  0  0  0  0  0  0  0  0  0  0
    1.3677   68.7617   66.3178 H   0  0  0  0  0  0  0  0  0  0  0  0
    2.9475   68.2009   67.0116 H   0  0  0  0  0  0  0  0  0  0  0  0
    2.8938   66.2829   65.3983 H   0  0  0  0  0  0  0  0  0  0  0  0
    0.3619   66.7856   64.9276 H   0  0  0  0  0  0  0  0  0  0  0  0
    0.9675   67.7787   63.7126 H   0  0  0  0  0  0  0  0  0  0  0  0
    1.3263   66.1354   63.7126 H   0  0  0  0  0  0  0  0  0  0  0  0
    3.5488   69.0360   64.8256 H   0  0  0  0  0  0  0  0  0  0  0  0
    4.3248   67.5167   64.2179 H   0  0  0  0  0  0  0  0  0  0  0  0
    1.5195   69.0203   62.7324 H   0  0  0  0  0  0  0  0  0  0  0  0
   -0.8612   66.7938   66.1565 H   0  0  0  0  0  0  0  0  0  0  0  0
   -2.4217   66.8764   68.7074 H   0  0  0  0  0  0  0  0  0  0  0  0
   -3.3221   67.4707   67.2712 H   0  0  0  0  0  0  0  0  0  0  0  0
   -2.6225   65.8163   67.2712 H   0  0  0  0  0  0  0  0  0  0  0  0
   -3.4874   69.1154   66.0652 H   0  0  0  0  0  0  0  0  0  0  0  0
   -2.3664   69.8828   64.8900 H   0  0  0  0  0  0  0  0  0  0  0  0
   -2.5850   68.0999   64.8900 H   0  0  0  0  0  0  0  0  0  0  0  0
   -1.6188   69.4919   67.3917 H   0  0  0  0  0  0  0  0  0  0  0  0
   -0.4776   69.1654   65.9979 H   0  0  0  0  0  0  0  0  0  0  0  0
    3.0750   65.2904   69.8923 H   0  0  0  0  0  0  0  0  0  0  0  0
    2.9148   64.8525   71.6718 H   0  0  0  0  0  0  0  0  0  0  0  0
    1.4987   62.6474   69.1139 H   0  0  0  0  0  0  0  0  0  0  0  0
    2.4076   60.3838   68.6131 H   0  0  0  0  0  0  0  0  0  0  0  0
    4.5801   59.6617   69.6021 H   0  0  0  0  0  0  0  0  0  0  0  0
    5.8269   61.1966   71.1219 H   0  0  0  0  0  0  0  0  0  0  0  0
    4.9284   63.4646   71.6199 H   0  0  0  0  0  0  0  0  0  0  0  0
  2  1  1  0
  3  2  2  0
  4  2  1  0
  5  4  1  0
  6  5  1  0
  7  6  2  0
  8  6  1  0
  9  8  1  0
 10  9  1  0
 11  9  1  0
 12  5  1  0
 13 12  1  0
 14 13  1  0
 15 14  2  0
 16 14  2  0
 17 14  1  0
 18  1  1  0
 19 18  1  0
 20 19  1  0
 21 20  1  0
 22 21  1  0
 23 22  1  0
 24 23  1  0
 25 23  1  0
 26 25  1  0
 27 20  1  0
 28 27  1  0
 30 27  1  0
 30 29  1  0
 31  1  1  0
 32 31  1  0
 33 32  2  0
 34 33  1  0
 35 34  2  0
 36 35  1  0
 37 32  1  0
 37 36  2  0
  1 38  1  6
  4 39  1  0
  5 40  1  1
  9 41  1  0
 10 42  1  0
 10 43  1  0
 10 44  1  0
 11 45  1  0
 11 46  1  0
 11 47  1  0
 12 48  1  0
 12 49  1  0
 13 50  1  0
 13 51  1  0
 17 52  1  0
 17 53  1  0
 17 54  1  0
 19 55  1  0
 19 56  1  0
 20 57  1  1
 21 58  1  0
 21 59  1  0
 22 60  1  0
 22 61  1  0
 23 62  1  1
 24 63  1  0
 24 64  1  0
 24 65  1  0
 25 66  1  0
 25 67  1  0
 26 68  1  0
 27 69  1  6
 28 70  1  0
 28 71  1  0
 28 72  1  0
 29 73  1  0
 29 74  1  0
 29 75  1  0
 30 76  1  0
 30 77  1  0
 31 78  1  0
 31 79  1  0
 33 80  1  0
 34 81  1  0
 35 82  1  0
 36 83  1  0
 37 84  1  0
M  CHG  2  21   1  24   1
M  END
>  <score>  (5) 
-7.369

$$$$
=
     RDKit          3D

 84 84  0  0  0  0  0  0  0  0999 V2000
    1.4130   65.0290   70.3020 C   0  0  1  0  0  0  0  0  0  0  0  0
    0.7090   65.8680   69.1890 C   0  0  0  0  0  0  0  0  0  0  0  0
   -0.5170   65.8490   69.0220 O   0  0  0  0  0  0  0  0  0  0  0  0
    1.4780   66.8100   68.5420 N   0  0  0  0  0  0  0  0  0  0  0  0
    0.9520   67.5330   67.3760 C   0  0  2  0  0  0  0  0  0  0  0  0
    2.0060   67.4760   66.2510 C   0  0  0  0  0  0  0  0  0  0  0  0
    2.3110   66.4420   65.6670 O   0  0  0  0  0  0  0  0  0  0  0  0
    2.4860   68.7130   65.9600 O   0  0  0  0  0  0  0  0  0  0  0  0
    3.8980   68.8020   65.6680 C   0  0  0  0  0  0  0  0  0  0  0  0
    4.0260   69.2550   64.2190 C   0  0  0  0  0  0  0  0  0  0  0  0
    4.5510   69.8070   66.6100 C   0  0  0  0  0  0  0  0  0  0  0  0
    0.5570   68.9610   67.7650 C   0  0  0  0  0  0  0  0  0  0  0  0
   -0.7850   69.4480   67.2220 C   0  0  0  0  0  0  0  0  0  0  0  0
   -1.9320   68.1450   66.7660 S   0  0  0  0  0  6  0  0  0  0  0  0
   -1.2220   67.0480   66.1350 O   0  0  0  0  0  0  0  0  0  0  0  0
   -2.7690   67.8040   67.9120 O   0  0  0  0  0  0  0  0  0  0  0  0
   -2.9680   68.9140   65.5400 C   0  0  0  0  0  0  0  0  0  0  0  0
    0.9380   65.0770   71.6500 O   0  0  0  0  0  0  0  0  0  0  0  0
    0.0490   64.0990   72.1800 C   0  0  0  0  0  0  0  0  0  0  0  0
    0.4680   63.4730   73.5430 C   0  0  1  0  0  0  0  0  0  0  0  0
   -0.1980   64.2570   74.6700 N   0  0  0  0  0  4  0  0  0  0  0  0
   -0.2820   63.6900   76.0550 C   0  0  0  0  0  0  0  0  0  0  0  0
   -1.7060   63.8920   76.6830 C   0  0  1  0  0  0  0  0  0  0  0  0
   -2.2840   65.2350   76.2990 N   0  0  0  0  0  4  0  0  0  0  0  0
   -2.7040   62.7880   76.2820 C   0  0  0  0  0  0  0  0  0  0  0  0
   -4.3270   63.0370   77.0730 S   0  0  0  0  0  0  0  0  0  0  0  0
    0.2010   61.9500   73.6910 C   0  0  1  0  0  0  0  0  0  0  0  0
   -1.0550   61.5470   72.8970 C   0  0  0  0  0  0  0  0  0  0  0  0
    2.7590   61.6200   73.7050 C   0  0  0  0  0  0  0  0  0  0  0  0
    1.4110   61.1050   73.2120 C   0  0  0  0  0  0  0  0  0  0  0  0
    1.4470   63.5290   69.9270 C   0  0  0  0  0  0  0  0  0  0  0  0
    2.7670   62.8390   70.1680 C   0  0  0  0  0  0  0  0  0  0  0  0
    3.8620   63.5610   70.6660 C   0  0  0  0  0  0  0  0  0  0  0  0
    5.0740   62.9220   70.9240 C   0  0  0  0  0  0  0  0  0  0  0  0
    5.2110   61.5580   70.6740 C   0  0  0  0  0  0  0  0  0  0  0  0
    4.1390   60.8350   70.1540 C   0  0  0  0  0  0  0  0  0  0  0  0
    2.9240   61.4730   69.8970 C   0  0  0  0  0  0  0  0  0  0  0  0
    2.3871   65.5398   70.3182 H   0  0  0  0  0  0  0  0  0  0  0  0
    2.4307   67.0095   68.8787 H   0  0  0  0  0  0  0  0  0  0  0  0
    0.0321   67.0595   67.0023 H   0  0  0  0  0  0  0  0  0  0  0  0
    4.4010   67.8340   65.8097 H   0  0  0  0  0  0  0  0  0  0  0  0
    4.3250   70.3132   64.1907 H   0  0  0  0  0  0  0  0  0  0  0  0
    4.7870   68.6452   63.7101 H   0  0  0  0  0  0  0  0  0  0  0  0
    3.0584   69.1336   63.7101 H   0  0  0  0  0  0  0  0  0  0  0  0
    4.3589   69.5113   67.6520 H   0  0  0  0  0  0  0  0  0  0  0  0
    5.6358   69.8281   66.4289 H   0  0  0  0  0  0  0  0  0  0  0  0
    4.1295   70.8068   66.4289 H   0  0  0  0  0  0  0  0  0  0  0  0
    0.5164   69.0132   68.8630 H   0  0  0  0  0  0  0  0  0  0  0  0
    1.3179   69.6157   67.3152 H   0  0  0  0  0  0  0  0  0  0  0  0
   -1.2619   70.0682   67.9952 H   0  0  0  0  0  0  0  0  0  0  0  0
   -0.5620   70.0008   66.2975 H   0  0  0  0  0  0  0  0  0  0  0  0
   -3.7551   69.4982   66.0392 H   0  0  0  0  0  0  0  0  0  0  0  0
   -2.3593   69.5807   64.9115 H   0  0  0  0  0  0  0  0  0  0  0  0
   -3.4299   68.1383   64.9115 H   0  0  0  0  0  0  0  0  0  0  0  0
   -0.9343   64.5735   72.3141 H   0  0  0  0  0  0  0  0  0  0  0  0
    0.0496   63.2702   71.4568 H   0  0  0  0  0  0  0  0  0  0  0  0
    1.5638   63.5538   73.5947 H   0  0  0  0  0  0  0  0  0  0  0  0
    0.3115   65.1487   74.7482 H   0  0  0  0  0  0  0  0  0  0  0  0
   -1.1845   64.2867   74.3753 H   0  0  0  0  0  0  0  0  0  0  0  0
   -0.0611   62.6132   76.0128 H   0  0  0  0  0  0  0  0  0  0  0  0
    0.4476   64.2192   76.6856 H   0  0  0  0  0  0  0  0  0  0  0  0
   -1.5601   63.8403   77.7721 H   0  0  0  0  0  0  0  0  0  0  0  0
   -2.5128   65.7666   77.1510 H   0  0  0  0  0  0  0  0  0  0  0  0
   -1.5940   65.7592   75.7422 H   0  0  0  0  0  0  0  0  0  0  0  0
   -3.1390   65.0943   75.7422 H   0  0  0  0  0  0  0  0  0  0  0  0
   -2.8327   62.8018   75.1896 H   0  0  0  0  0  0  0  0  0  0  0  0
   -2.3015   61.8204   76.6162 H   0  0  0  0  0  0  0  0  0  0  0  0
   -4.1796   63.0144   78.4349 H   0  0  0  0  0  0  0  0  0  0  0  0
    0.0429   61.7475   74.7606 H   0  0  0  0  0  0  0  0  0  0  0  0
   -1.8634   61.2876   73.5964 H   0  0  0  0  0  0  0  0  0  0  0  0
   -1.3739   62.3879   72.2636 H   0  0  0  0  0  0  0  0  0  0  0  0
   -0.8251   60.6775   72.2636 H   0  0  0  0  0  0  0  0  0  0  0  0
    2.7699   61.6242   74.8049 H   0  0  0  0  0  0  0  0  0  0  0  0
    3.5603   60.9647   73.3328 H   0  0  0  0  0  0  0  0  0  0  0  0
    2.9192   62.6427   73.3328 H   0  0  0  0  0  0  0  0  0  0  0  0
    1.2798   60.0752   73.5757 H   0  0  0  0  0  0  0  0  0  0  0  0
    1.4283   61.1665   72.1139 H   0  0  0  0  0  0  0  0  0  0  0  0
    0.6787   63.0118   70.5205 H   0  0  0  0  0  0  0  0  0  0  0  0
    1.2692   63.4801   68.8426 H   0  0  0  0  0  0  0  0  0  0  0  0
    3.7635   64.6402   70.8545 H   0  0  0  0  0  0  0  0  0  0  0  0
    5.9229   63.4951   71.3253 H   0  0  0  0  0  0  0  0  0  0  0  0
    6.1644   61.0524   70.8869 H   0  0  0  0  0  0  0  0  0  0  0  0
    4.2503   59.7606   69.9458 H   0  0  0  0  0  0  0  0  0  0  0  0
    2.0838   60.8993   69.4787 H   0  0  0  0  0  0  0  0  0  0  0  0
  2  1  1  0
  3  2  2  0
  4  2  1  0
  5  4  1  0
  6  5  1  0
  7  6  2  0
  8  6  1  0
  9  8  1  0
 10  9  1  0
 11  9  1  0
 12  5  1  0
 13 12  1  0
 14 13  1  0
 15 14  2  0
 16 14  2  0
 17 14  1  0
 18  1  1  0
 19 18  1  0
 20 19  1  0
 21 20  1  0
 22 21  1  0
 23 22  1  0
 24 23  1  0
 25 23  1  0
 26 25  1  0
 27 20  1  0
 28 27  1  0
 30 27  1  0
 30 29  1  0
 31  1  1  0
 32 31  1  0
 33 32  2  0
 34 33  1  0
 35 34  2  0
 36 35  1  0
 37 32  1  0
 37 36  2  0
  1 38  1  1
  4 39  1  0
  5 40  1  6
  9 41  1  0
 10 42  1  0
 10 43  1  0
 10 44  1  0
 11 45  1  0
 11 46  1  0
 11 47  1  0
 12 48  1  0
 12 49  1  0
 13 50  1  0
 13 51  1  0
 17 52  1  0
 17 53  1  0
 17 54  1  0
 19 55  1  0
 19 56  1  0
 20 57  1  1
 21 58  1  0
 21 59  1  0
 22 60  1  0
 22 61  1  0
 23 62  1  1
 24 63  1  0
 24 64  1  0
 24 65  1  0
 25 66  1  0
 25 67  1  0
 26 68  1  0
 27 69  1  1
 28 70  1  0
 28 71  1  0
 28 72  1  0
 29 73  1  0
 29 74  1  0
 29 75  1  0
 30 76  1  0
 30 77  1  0
 31 78  1  0
 31 79  1  0
 33 80  1  0
 34 81  1  0
 35 82  1  0
 36 83  1  0
 37 84  1  0
M  CHG  2  21   1  24   1
M  END
>  <score>  (6) 
-7.293

$$$$
=
     RDKit          3D

 84 84  0  0  0  0  0  0  0  0999 V2000
    1.0940   64.5950   70.3610 C   0  0  1  0  0  0  0  0  0  0  0  0
    0.4640   63.7910   71.5410 C   0  0  0  0  0  0  0  0  0  0  0  0
   -0.4360   62.9590   71.3680 O   0  0  0  0  0  0  0  0  0  0  0  0
    1.1030   63.8720   72.7590 N   0  0  0  0  0  0  0  0  0  0  0  0
    0.4990   63.2830   73.9610 C   0  0  2  0  0  0  0  0  0  0  0  0
   -0.0560   64.4250   74.8380 C   0  0  0  0  0  0  0  0  0  0  0  0
   -0.3340   65.5350   74.3980 O   0  0  0  0  0  0  0  0  0  0  0  0
   -0.2500   64.0160   76.1190 O   0  0  0  0  0  0  0  0  0  0  0  0
   -1.5250   63.4070   76.4130 C   0  0  0  0  0  0  0  0  0  0  0  0
   -1.2740   62.3200   77.4500 C   0  0  0  0  0  0  0  0  0  0  0  0
   -2.4810   64.4640   76.9550 C   0  0  0  0  0  0  0  0  0  0  0  0
    1.5130   62.3970   74.6920 C   0  0  0  0  0  0  0  0  0  0  0  0
    1.1440   60.9190   74.8010 C   0  0  0  0  0  0  0  0  0  0  0  0
    1.7540   59.8880   73.4650 S   0  0  0  0  0  6  0  0  0  0  0  0
    1.1050   58.5900   73.4940 O   0  0  0  0  0  0  0  0  0  0  0  0
    1.6810   60.6220   72.2050 O   0  0  0  0  0  0  0  0  0  0  0  0
    3.4720   59.6590   73.8680 C   0  0  0  0  0  0  0  0  0  0  0  0
    0.7430   65.9660   70.1520 O   0  0  0  0  0  0  0  0  0  0  0  0
   -0.3490   66.3560   69.3260 C   0  0  0  0  0  0  0  0  0  0  0  0
   -0.0210   67.4040   68.2230 C   0  0  1  0  0  0  0  0  0  0  0  0
    1.4150   67.1920   67.7530 N   0  0  0  0  0  4  0  0  0  0  0  0
    1.8440   67.6100   66.3800 C   0  0  0  0  0  0  0  0  0  0  0  0
    2.4790   69.0450   66.3780 C   0  0  1  0  0  0  0  0  0  0  0  0
    2.7540   69.5200   67.7870 N   0  0  0  0  0  4  0  0  0  0  0  0
    3.7840   69.1260   65.5620 C   0  0  0  0  0  0  0  0  0  0  0  0
    5.1250   69.8960   66.5260 S   0  0  0  0  0  0  0  0  0  0  0  0
   -1.0010   67.4390   67.0180 C   0  0  1  0  0  0  0  0  0  0  0  0
   -2.3160   66.7220   67.3770 C   0  0  0  0  0  0  0  0  0  0  0  0
   -2.5380   69.0170   65.6770 C   0  0  0  0  0  0  0  0  0  0  0  0
   -1.3090   68.8920   66.5690 C   0  0  0  0  0  0  0  0  0  0  0  0
    2.6380   64.5690   70.4360 C   0  0  0  0  0  0  0  0  0  0  0  0
    3.2640   63.2040   70.2840 C   0  0  0  0  0  0  0  0  0  0  0  0
    2.7840   62.3110   69.3150 C   0  0  0  0  0  0  0  0  0  0  0  0
    3.3810   61.0610   69.1460 C   0  0  0  0  0  0  0  0  0  0  0  0
    4.4520   60.6840   69.9530 C   0  0  0  0  0  0  0  0  0  0  0  0
    4.9190   61.5520   70.9380 C   0  0  0  0  0  0  0  0  0  0  0  0
    4.3260   62.8040   71.1070 C   0  0  0  0  0  0  0  0  0  0  0  0
    0.6462   64.0489   69.5176 H   0  0  0  0  0  0  0  0  0  0  0  0
    2.0128   64.3501   72.8271 H   0  0  0  0  0  0  0  0  0  0  0  0
   -0.3389   62.6220   73.6945 H   0  0  0  0  0  0  0  0  0  0  0  0
   -1.9812   62.9722   75.5114 H   0  0  0  0  0  0  0  0  0  0  0  0
   -1.3724   62.7463   78.4592 H   0  0  0  0  0  0  0  0  0  0  0  0
   -2.0093   61.5123   77.3198 H   0  0  0  0  0  0  0  0  0  0  0  0
   -0.2590   61.9164   77.3198 H   0  0  0  0  0  0  0  0  0  0  0  0
   -2.4636   64.4448   78.0547 H   0  0  0  0  0  0  0  0  0  0  0  0
   -2.1684   65.4573   76.6007 H   0  0  0  0  0  0  0  0  0  0  0  0
   -3.5006   64.2524   76.6007 H   0  0  0  0  0  0  0  0  0  0  0  0
    2.4712   62.4675   74.1565 H   0  0  0  0  0  0  0  0  0  0  0  0
    1.5504   62.7736   75.7249 H   0  0  0  0  0  0  0  0  0  0  0  0
    1.5548   60.5329   75.7456 H   0  0  0  0  0  0  0  0  0  0  0  0
    0.0462   60.8705   74.7518 H   0  0  0  0  0  0  0  0  0  0  0  0
    3.5932   59.6428   74.9612 H   0  0  0  0  0  0  0  0  0  0  0  0
    3.8238   58.7060   73.4460 H   0  0  0  0  0  0  0  0  0  0  0  0
    4.0611   60.4866   73.4460 H   0  0  0  0  0  0  0  0  0  0  0  0
   -0.7367   65.4538   68.8303 H   0  0  0  0  0  0  0  0  0  0  0  0
   -1.0727   66.8429   69.9962 H   0  0  0  0  0  0  0  0  0  0  0  0
   -0.1456   68.3913   68.6918 H   0  0  0  0  0  0  0  0  0  0  0  0
    2.0186   67.6989   68.4160 H   0  0  0  0  0  0  0  0  0  0  0  0
    1.4925   66.1657   67.7133 H   0  0  0  0  0  0  0  0  0  0  0  0
    2.5877   66.8913   66.0054 H   0  0  0  0  0  0  0  0  0  0  0  0
    0.9529   67.6301   65.7353 H   0  0  0  0  0  0  0  0  0  0  0  0
    1.7356   69.6977   65.8971 H   0  0  0  0  0  0  0  0  0  0  0  0
    2.3631   68.8448   68.4594 H   0  0  0  0  0  0  0  0  0  0  0  0
    3.7709   69.5980   67.9307 H   0  0  0  0  0  0  0  0  0  0  0  0
    2.3153   70.4408   67.9307 H   0  0  0  0  0  0  0  0  0  0  0  0
    4.0891   68.1094   65.2733 H   0  0  0  0  0  0  0  0  0  0  0  0
    3.5978   69.7455   64.6723 H   0  0  0  0  0  0  0  0  0  0  0  0
    4.8685   69.7487   67.8637 H   0  0  0  0  0  0  0  0  0  0  0  0
   -0.5112   66.9180   66.1821 H   0  0  0  0  0  0  0  0  0  0  0  0
   -2.4168   66.6670   68.4710 H   0  0  0  0  0  0  0  0  0  0  0  0
   -3.1651   67.2820   66.9582 H   0  0  0  0  0  0  0  0  0  0  0  0
   -2.3052   65.7049   66.9582 H   0  0  0  0  0  0  0  0  0  0  0  0
   -3.4377   69.1085   66.3032 H   0  0  0  0  0  0  0  0  0  0  0  0
   -2.4409   69.9099   65.0419 H   0  0  0  0  0  0  0  0  0  0  0  0
   -2.6226   68.1228   65.0419 H   0  0  0  0  0  0  0  0  0  0  0  0
   -1.4701   69.5052   67.4679 H   0  0  0  0  0  0  0  0  0  0  0  0
   -0.4479   69.2309   65.9742 H   0  0  0  0  0  0  0  0  0  0  0  0
    3.0289   65.2141   69.6353 H   0  0  0  0  0  0  0  0  0  0  0  0
    2.9013   64.9157   71.4462 H   0  0  0  0  0  0  0  0  0  0  0  0
    1.9304   62.5981   68.6833 H   0  0  0  0  0  0  0  0  0  0  0  0
    3.0054   60.3726   68.3746 H   0  0  0  0  0  0  0  0  0  0  0  0
    4.9284   59.7025   69.8129 H   0  0  0  0  0  0  0  0  0  0  0  0
    5.7567   61.2498   71.5837 H   0  0  0  0  0  0  0  0  0  0  0  0
    4.6944   63.4816   71.8913 H   0  0  0  0  0  0  0  0  0  0  0  0
  2  1  1  0
  3  2  2  0
  4  2  1  0
  5  4  1  0
  6  5  1  0
  7  6  2  0
  8  6  1  0
  9  8  1  0
 10  9  1  0
 11  9  1  0
 12  5  1  0
 13 12  1  0
 14 13  1  0
 15 14  2  0
 16 14  2  0
 17 14  1  0
 18  1  1  0
 19 18  1  0
 20 19  1  0
 21 20  1  0
 22 21  1  0
 23 22  1  0
 24 23  1  0
 25 23  1  0
 26 25  1  0
 27 20  1  0
 28 27  1  0
 30 27  1  0
 30 29  1  0
 31  1  1  0
 32 31  1  0
 33 32  2  0
 34 33  1  0
 35 34  2  0
 36 35  1  0
 37 32  1  0
 37 36  2  0
  1 38  1  6
  4 39  1  0
  5 40  1  6
  9 41  1  0
 10 42  1  0
 10 43  1  0
 10 44  1  0
 11 45  1  0
 11 46  1  0
 11 47  1  0
 12 48  1  0
 12 49  1  0
 13 50  1  0
 13 51  1  0
 17 52  1  0
 17 53  1  0
 17 54  1  0
 19 55  1  0
 19 56  1  0
 20 57  1  1
 21 58  1  0
 21 59  1  0
 22 60  1  0
 22 61  1  0
 23 62  1  6
 24 63  1  0
 24 64  1  0
 24 65  1  0
 25 66  1  0
 25 67  1  0
 26 68  1  0
 27 69  1  6
 28 70  1  0
 28 71  1  0
 28 72  1  0
 29 73  1  0
 29 74  1  0
 29 75  1  0
 30 76  1  0
 30 77  1  0
 31 78  1  0
 31 79  1  0
 33 80  1  0
 34 81  1  0
 35 82  1  0
 36 83  1  0
 37 84  1  0
M  CHG  2  21   1  24   1
M  END
>  <score>  (7) 
-7.278

$$$$
=
     RDKit          3D

 84 84  0  0  0  0  0  0  0  0999 V2000
    1.5350   64.5000   70.6310 C   0  0  1  0  0  0  0  0  0  0  0  0
    0.8670   65.8380   70.1840 C   0  0  0  0  0  0  0  0  0  0  0  0
    0.1940   66.5320   70.9570 O   0  0  0  0  0  0  0  0  0  0  0  0
    1.2440   66.3400   68.9580 N   0  0  0  0  0  0  0  0  0  0  0  0
    0.5550   67.5030   68.3820 C   0  0  2  0  0  0  0  0  0  0  0  0
   -0.7580   67.0200   67.7320 C   0  0  0  0  0  0  0  0  0  0  0  0
   -1.6500   66.4580   68.3570 O   0  0  0  0  0  0  0  0  0  0  0  0
   -0.8120   67.3580   66.4170 O   0  0  0  0  0  0  0  0  0  0  0  0
   -1.5280   68.5690   66.0940 C   0  0  0  0  0  0  0  0  0  0  0  0
   -1.1790   68.9240   64.6540 C   0  0  0  0  0  0  0  0  0  0  0  0
   -3.0270   68.3310   66.2460 C   0  0  0  0  0  0  0  0  0  0  0  0
    1.4770   68.2440   67.4080 C   0  0  0  0  0  0  0  0  0  0  0  0
    2.1570   67.3750   66.3500 C   0  0  0  0  0  0  0  0  0  0  0  0
    3.1120   68.2810   65.1300 S   0  0  0  0  0  6  0  0  0  0  0  0
    4.0240   67.3870   64.4420 O   0  0  0  0  0  0  0  0  0  0  0  0
    2.2150   69.0670   64.2900 O   0  0  0  0  0  0  0  0  0  0  0  0
    4.0760   69.4100   66.1120 C   0  0  0  0  0  0  0  0  0  0  0  0
    0.7350   63.4240   71.1270 O   0  0  0  0  0  0  0  0  0  0  0  0
    0.5870   63.1620   72.5180 C   0  0  0  0  0  0  0  0  0  0  0  0
    1.8980   62.8160   73.2840 C   0  0  1  0  0  0  0  0  0  0  0  0
    1.7620   63.2830   74.7300 N   0  0  0  0  0  4  0  0  0  0  0  0
    0.4940   63.9160   75.2170 C   0  0  0  0  0  0  0  0  0  0  0  0
   -0.2800   62.9820   76.2130 C   0  0  1  0  0  0  0  0  0  0  0  0
   -1.0320   61.9000   75.4710 N   0  0  0  0  0  4  0  0  0  0  0  0
    0.6390   62.3210   77.2580 C   0  0  0  0  0  0  0  0  0  0  0  0
    1.3080   63.5490   78.4270 S   0  0  0  0  0  0  0  0  0  0  0  0
    2.3390   61.3270   73.2190 C   0  0  1  0  0  0  0  0  0  0  0  0
    2.7740   60.8370   74.6130 C   0  0  0  0  0  0  0  0  0  0  0  0
    1.5370   58.9280   72.7190 C   0  0  0  0  0  0  0  0  0  0  0  0
    1.2070   60.4150   72.6780 C   0  0  0  0  0  0  0  0  0  0  0  0
    2.3820   63.8940   69.4860 C   0  0  0  0  0  0  0  0  0  0  0  0
    3.2910   62.7600   69.8930 C   0  0  0  0  0  0  0  0  0  0  0  0
    4.4120   63.0070   70.6990 C   0  0  0  0  0  0  0  0  0  0  0  0
    5.2360   61.9580   71.1070 C   0  0  0  0  0  0  0  0  0  0  0  0
    4.9580   60.6540   70.7030 C   0  0  0  0  0  0  0  0  0  0  0  0
    3.8630   60.4000   69.8800 C   0  0  0  0  0  0  0  0  0  0  0  0
    3.0350   61.4470   69.4730 C   0  0  0  0  0  0  0  0  0  0  0  0
    2.0990   64.8675   71.5009 H   0  0  0  0  0  0  0  0  0  0  0  0
    2.0159   65.8961   68.4403 H   0  0  0  0  0  0  0  0  0  0  0  0
    0.2970   68.2328   69.1635 H   0  0  0  0  0  0  0  0  0  0  0  0
   -1.2493   69.3935   66.7667 H   0  0  0  0  0  0  0  0  0  0  0  0
   -0.4079   69.7084   64.6463 H   0  0  0  0  0  0  0  0  0  0  0  0
   -0.7981   68.0303   64.1380 H   0  0  0  0  0  0  0  0  0  0  0  0
   -2.0791   69.2896   64.1380 H   0  0  0  0  0  0  0  0  0  0  0  0
   -3.2853   68.2900   67.3145 H   0  0  0  0  0  0  0  0  0  0  0  0
   -3.5792   69.1527   65.7666 H   0  0  0  0  0  0  0  0  0  0  0  0
   -3.2975   67.3787   65.7666 H   0  0  0  0  0  0  0  0  0  0  0  0
    0.8771   69.0044   66.8866 H   0  0  0  0  0  0  0  0  0  0  0  0
    2.2891   68.6612   68.0215 H   0  0  0  0  0  0  0  0  0  0  0  0
    2.8338   66.6768   66.8643 H   0  0  0  0  0  0  0  0  0  0  0  0
    1.3497   66.8710   65.7985 H   0  0  0  0  0  0  0  0  0  0  0  0
    3.9030   69.2074   67.1793 H   0  0  0  0  0  0  0  0  0  0  0  0
    5.1434   69.2769   65.8818 H   0  0  0  0  0  0  0  0  0  0  0  0
    3.7773   70.4433   65.8818 H   0  0  0  0  0  0  0  0  0  0  0  0
    0.1486   64.0561   72.9854 H   0  0  0  0  0  0  0  0  0  0  0  0
   -0.0464   62.2654   72.5882 H   0  0  0  0  0  0  0  0  0  0  0  0
    2.7067   63.3529   72.7666 H   0  0  0  0  0  0  0  0  0  0  0  0
    1.9233   62.4557   75.3220 H   0  0  0  0  0  0  0  0  0  0  0  0
    2.4389   64.0574   74.7842 H   0  0  0  0  0  0  0  0  0  0  0  0
    0.7404   64.8571   75.7303 H   0  0  0  0  0  0  0  0  0  0  0  0
   -0.1532   64.0976   74.3463 H   0  0  0  0  0  0  0  0  0  0  0  0
   -0.9857   63.6366   76.7455 H   0  0  0  0  0  0  0  0  0  0  0  0
   -1.4747   61.2631   76.1487 H   0  0  0  0  0  0  0  0  0  0  0  0
   -1.7573   62.3299   74.8795 H   0  0  0  0  0  0  0  0  0  0  0  0
   -0.3762   61.3700   74.8795 H   0  0  0  0  0  0  0  0  0  0  0  0
    0.0620   61.5707   77.8184 H   0  0  0  0  0  0  0  0  0  0  0  0
    1.4817   61.8509   76.7299 H   0  0  0  0  0  0  0  0  0  0  0  0
    1.0793   63.1292   79.7109 H   0  0  0  0  0  0  0  0  0  0  0  0
    3.1892   61.2667   72.5236 H   0  0  0  0  0  0  0  0  0  0  0  0
    2.2544   61.4223   75.3860 H   0  0  0  0  0  0  0  0  0  0  0  0
    2.5174   59.7731   74.7243 H   0  0  0  0  0  0  0  0  0  0  0  0
    3.8608   60.9657   74.7243 H   0  0  0  0  0  0  0  0  0  0  0  0
    1.6104   58.5974   73.7656 H   0  0  0  0  0  0  0  0  0  0  0  0
    0.7426   58.3620   72.2105 H   0  0  0  0  0  0  0  0  0  0  0  0
    2.4962   58.7511   72.2105 H   0  0  0  0  0  0  0  0  0  0  0  0
    0.3053   60.5861   73.2843 H   0  0  0  0  0  0  0  0  0  0  0  0
    1.0625   60.6801   71.6203 H   0  0  0  0  0  0  0  0  0  0  0  0
    1.6934   63.5187   68.7146 H   0  0  0  0  0  0  0  0  0  0  0  0
    3.0395   64.7013   69.1311 H   0  0  0  0  0  0  0  0  0  0  0  0
    4.6432   64.0359   71.0118 H   0  0  0  0  0  0  0  0  0  0  0  0
    6.1063   62.1606   71.7485 H   0  0  0  0  0  0  0  0  0  0  0  0
    5.6023   59.8259   71.0334 H   0  0  0  0  0  0  0  0  0  0  0  0
    3.6507   59.3722   69.5504 H   0  0  0  0  0  0  0  0  0  0  0  0
    2.1756   61.2408   68.8182 H   0  0  0  0  0  0  0  0  0  0  0  0
  2  1  1  0
  3  2  2  0
  4  2  1  0
  5  4  1  0
  6  5  1  0
  7  6  2  0
  8  6  1  0
  9  8  1  0
 10  9  1  0
 11  9  1  0
 12  5  1  0
 13 12  1  0
 14 13  1  0
 15 14  2  0
 16 14  2  0
 17 14  1  0
 18  1  1  0
 19 18  1  0
 20 19  1  0
 21 20  1  0
 22 21  1  0
 23 22  1  0
 24 23  1  0
 25 23  1  0
 26 25  1  0
 27 20  1  0
 28 27  1  0
 30 27  1  0
 30 29  1  0
 31  1  1  0
 32 31  1  0
 33 32  2  0
 34 33  1  0
 35 34  2  0
 36 35  1  0
 37 32  1  0
 37 36  2  0
  1 38  1  1
  4 39  1  0
  5 40  1  1
  9 41  1  0
 10 42  1  0
 10 43  1  0
 10 44  1  0
 11 45  1  0
 11 46  1  0
 11 47  1  0
 12 48  1  0
 12 49  1  0
 13 50  1  0
 13 51  1  0
 17 52  1  0
 17 53  1  0
 17 54  1  0
 19 55  1  0
 19 56  1  0
 20 57  1  6
 21 58  1  0
 21 59  1  0
 22 60  1  0
 22 61  1  0
 23 62  1  1
 24 63  1  0
 24 64  1  0
 24 65  1  0
 25 66  1  0
 25 67  1  0
 26 68  1  0
 27 69  1  6
 28 70  1  0
 28 71  1  0
 28 72  1  0
 29 73  1  0
 29 74  1  0
 29 75  1  0
 30 76  1  0
 30 77  1  0
 31 78  1  0
 31 79  1  0
 33 80  1  0
 34 81  1  0
 35 82  1  0
 36 83  1  0
 37 84  1  0
M  CHG  2  21   1  24   1
M  END
>  <score>  (8) 
-7.262

$$$$
=
     RDKit          3D

 84 84  0  0  0  0  0  0  0  0999 V2000
    0.6090   67.2060   68.0520 C   0  0  1  0  0  0  0  0  0  0  0  0
    1.3470   66.6520   69.3110 C   0  0  0  0  0  0  0  0  0  0  0  0
    1.8970   67.3950   70.1350 O   0  0  0  0  0  0  0  0  0  0  0  0
    1.1700   65.3160   69.5970 N   0  0  0  0  0  0  0  0  0  0  0  0
    1.9480   64.6700   70.6630 C   0  0  2  0  0  0  0  0  0  0  0  0
    2.7870   63.5370   70.0360 C   0  0  0  0  0  0  0  0  0  0  0  0
    3.0100   63.4530   68.8330 O   0  0  0  0  0  0  0  0  0  0  0  0
    3.2850   62.7050   70.9870 O   0  0  0  0  0  0  0  0  0  0  0  0
    4.1670   61.6590   70.5280 C   0  0  0  0  0  0  0  0  0  0  0  0
    5.3070   61.5620   71.5350 C   0  0  0  0  0  0  0  0  0  0  0  0
    3.4000   60.3440   70.4500 C   0  0  0  0  0  0  0  0  0  0  0  0
    1.0230   64.1890   71.7850 C   0  0  0  0  0  0  0  0  0  0  0  0
   -0.0070   63.1330   71.3870 C   0  0  0  0  0  0  0  0  0  0  0  0
   -0.3490   61.8990   72.6450 S   0  0  0  0  0  6  0  0  0  0  0  0
   -1.7770   61.6620   72.7410 O   0  0  0  0  0  0  0  0  0  0  0  0
    0.4920   60.7270   72.4240 O   0  0  0  0  0  0  0  0  0  0  0  0
    0.1870   62.6820   74.1510 C   0  0  0  0  0  0  0  0  0  0  0  0
    1.0370   66.8310   66.7410 O   0  0  0  0  0  0  0  0  0  0  0  0
    2.3070   67.2050   66.2170 C   0  0  0  0  0  0  0  0  0  0  0  0
    2.3190   68.4770   65.3170 C   0  0  1  0  0  0  0  0  0  0  0  0
    3.5480   69.3110   65.6610 N   0  0  0  0  0  4  0  0  0  0  0  0
    3.7460   69.8560   67.0430 C   0  0  0  0  0  0  0  0  0  0  0  0
    5.2670   70.0090   67.4000 C   0  0  1  0  0  0  0  0  0  0  0  0
    6.0650   70.4550   66.1950 N   0  0  0  0  0  4  0  0  0  0  0  0
    5.5180   70.9960   68.5560 C   0  0  0  0  0  0  0  0  0  0  0  0
    7.2770   71.0310   69.0310 S   0  0  0  0  0  0  0  0  0  0  0  0
    2.2320   68.2170   63.7880 C   0  0  1  0  0  0  0  0  0  0  0  0
    1.0540   68.9990   63.1780 C   0  0  0  0  0  0  0  0  0  0  0  0
    4.3770   67.4190   62.6000 C   0  0  0  0  0  0  0  0  0  0  0  0
    3.5460   68.6090   63.0630 C   0  0  0  0  0  0  0  0  0  0  0  0
   -0.9010   66.8740   68.1060 C   0  0  0  0  0  0  0  0  0  0  0  0
   -1.7590   67.6330   67.1220 C   0  0  0  0  0  0  0  0  0  0  0  0
   -3.1570   67.5730   67.2100 C   0  0  0  0  0  0  0  0  0  0  0  0
   -3.9550   68.3000   66.3260 C   0  0  0  0  0  0  0  0  0  0  0  0
   -3.3650   69.0800   65.3340 C   0  0  0  0  0  0  0  0  0  0  0  0
   -1.9770   69.1260   65.2190 C   0  0  0  0  0  0  0  0  0  0  0  0
   -1.1770   68.4020   66.1050 C   0  0  0  0  0  0  0  0  0  0  0  0
    0.8697   68.2702   68.1490 H   0  0  0  0  0  0  0  0  0  0  0  0
    0.4862   64.7651   69.0587 H   0  0  0  0  0  0  0  0  0  0  0  0
    2.6404   65.3847   71.1318 H   0  0  0  0  0  0  0  0  0  0  0  0
    4.5631   61.8769   69.5252 H   0  0  0  0  0  0  0  0  0  0  0  0
    4.8985   61.5968   72.5558 H   0  0  0  0  0  0  0  0  0  0  0  0
    5.8465   60.6147   71.3880 H   0  0  0  0  0  0  0  0  0  0  0  0
    5.9988   62.4045   71.3880 H   0  0  0  0  0  0  0  0  0  0  0  0
    3.1888   59.9819   71.4670 H   0  0  0  0  0  0  0  0  0  0  0  0
    2.4531   60.5031   69.9134 H   0  0  0  0  0  0  0  0  0  0  0  0
    4.0047   59.5981   69.9134 H   0  0  0  0  0  0  0  0  0  0  0  0
    1.6510   63.7650   72.5824 H   0  0  0  0  0  0  0  0  0  0  0  0
    0.4437   65.0712   72.0952 H   0  0  0  0  0  0  0  0  0  0  0  0
   -0.9493   63.6477   71.1482 H   0  0  0  0  0  0  0  0  0  0  0  0
    0.4219   62.5907   70.5314 H   0  0  0  0  0  0  0  0  0  0  0  0
   -0.1982   62.1192   75.0141 H   0  0  0  0  0  0  0  0  0  0  0  0
    1.2864   62.6980   74.1848 H   0  0  0  0  0  0  0  0  0  0  0  0
   -0.1959   63.7127   74.1848 H   0  0  0  0  0  0  0  0  0  0  0  0
    2.9830   67.3853   67.0659 H   0  0  0  0  0  0  0  0  0  0  0  0
    2.6191   66.3747   65.5665 H   0  0  0  0  0  0  0  0  0  0  0  0
    1.3911   69.0227   65.5433 H   0  0  0  0  0  0  0  0  0  0  0  0
    4.3683   68.7222   65.4576 H   0  0  0  0  0  0  0  0  0  0  0  0
    3.4100   70.1625   65.0982 H   0  0  0  0  0  0  0  0  0  0  0  0
    3.2644   70.8428   67.1084 H   0  0  0  0  0  0  0  0  0  0  0  0
    3.2982   69.1480   67.7559 H   0  0  0  0  0  0  0  0  0  0  0  0
    5.5982   69.0119   67.7257 H   0  0  0  0  0  0  0  0  0  0  0  0
    6.9215   70.9337   66.5084 H   0  0  0  0  0  0  0  0  0  0  0  0
    6.3188   69.6334   65.6280 H   0  0  0  0  0  0  0  0  0  0  0  0
    5.4982   71.1016   65.6280 H   0  0  0  0  0  0  0  0  0  0  0  0
    5.2130   72.0040   68.2384 H   0  0  0  0  0  0  0  0  0  0  0  0
    4.9312   70.6663   69.4260 H   0  0  0  0  0  0  0  0  0  0  0  0
    7.3812   71.0331   70.3970 H   0  0  0  0  0  0  0  0  0  0  0  0
    2.0713   67.1379   63.6476 H   0  0  0  0  0  0  0  0  0  0  0  0
    0.4312   69.4124   63.9850 H   0  0  0  0  0  0  0  0  0  0  0  0
    1.4414   69.8199   62.5566 H   0  0  0  0  0  0  0  0  0  0  0  0
    0.4479   68.3233   62.5566 H   0  0  0  0  0  0  0  0  0  0  0  0
    4.7575   66.8742   63.4766 H   0  0  0  0  0  0  0  0  0  0  0  0
    3.7504   66.7476   61.9945 H   0  0  0  0  0  0  0  0  0  0  0  0
    5.2231   67.7760   61.9945 H   0  0  0  0  0  0  0  0  0  0  0  0
    3.2874   69.2142   62.1816 H   0  0  0  0  0  0  0  0  0  0  0  0
    4.1586   69.1610   63.7910 H   0  0  0  0  0  0  0  0  0  0  0  0
   -1.0211   65.7992   67.9048 H   0  0  0  0  0  0  0  0  0  0  0  0
   -1.2450   67.1732   69.1071 H   0  0  0  0  0  0  0  0  0  0  0  0
   -3.6286   66.9476   67.9823 H   0  0  0  0  0  0  0  0  0  0  0  0
   -5.0508   68.2572   66.4125 H   0  0  0  0  0  0  0  0  0  0  0  0
   -3.9942   69.6591   64.6421 H   0  0  0  0  0  0  0  0  0  0  0  0
   -1.5111   69.7335   64.4292 H   0  0  0  0  0  0  0  0  0  0  0  0
   -0.0821   68.4353   66.0042 H   0  0  0  0  0  0  0  0  0  0  0  0
  2  1  1  0
  3  2  2  0
  4  2  1  0
  5  4  1  0
  6  5  1  0
  7  6  2  0
  8  6  1  0
  9  8  1  0
 10  9  1  0
 11  9  1  0
 12  5  1  0
 13 12  1  0
 14 13  1  0
 15 14  2  0
 16 14  2  0
 17 14  1  0
 18  1  1  0
 19 18  1  0
 20 19  1  0
 21 20  1  0
 22 21  1  0
 23 22  1  0
 24 23  1  0
 25 23  1  0
 26 25  1  0
 27 20  1  0
 28 27  1  0
 30 27  1  0
 30 29  1  0
 31  1  1  0
 32 31  1  0
 33 32  2  0
 34 33  1  0
 35 34  2  0
 36 35  1  0
 37 32  1  0
 37 36  2  0
  1 38  1  6
  4 39  1  0
  5 40  1  1
  9 41  1  0
 10 42  1  0
 10 43  1  0
 10 44  1  0
 11 45  1  0
 11 46  1  0
 11 47  1  0
 12 48  1  0
 12 49  1  0
 13 50  1  0
 13 51  1  0
 17 52  1  0
 17 53  1  0
 17 54  1  0
 19 55  1  0
 19 56  1  0
 20 57  1  1
 21 58  1  0
 21 59  1  0
 22 60  1  0
 22 61  1  0
 23 62  1  1
 24 63  1  0
 24 64  1  0
 24 65  1  0
 25 66  1  0
 25 67  1  0
 26 68  1  0
 27 69  1  1
 28 70  1  0
 28 71  1  0
 28 72  1  0
 29 73  1  0
 29 74  1  0
 29 75  1  0
 30 76  1  0
 30 77  1  0
 31 78  1  0
 31 79  1  0
 33 80  1  0
 34 81  1  0
 35 82  1  0
 36 83  1  0
 37 84  1  0
M  CHG  2  21   1  24   1
M  END
>  <score>  (9) 
-7.259

$$$$
