=
     RDKit          3D

 38 39  0  0  0  0  0  0  0  0999 V2000
    2.0930   68.8490   66.0710 N   0  0  0  0  0  0  0  0  0  0  0  0
    3.0120   69.4630   66.9530 C   0  0  0  0  0  0  0  0  0  0  0  0
    4.3430   69.6340   66.5720 C   0  0  0  0  0  0  0  0  0  0  0  0
    5.2510   70.2260   67.4490 C   0  0  0  0  0  0  0  0  0  0  0  0
    4.8170   70.6310   68.6990 C   0  0  0  0  0  0  0  0  0  0  0  0
    3.4940   70.4060   69.0240 C   0  0  0  0  0  0  0  0  0  0  0  0
    2.5970   69.8150   68.1960 N   0  0  0  0  0  0  0  0  0  0  0  0
    2.6090   68.7260   64.6980 C   0  0  0  0  0  0  0  0  0  0  0  0
    2.6190   67.2480   64.2450 C   0  0  0  0  0  0  0  0  0  0  0  0
    4.1600   65.3000   63.8550 C   0  0  0  0  0  0  0  0  0  0  0  0
    3.9570   66.7810   63.6920 N   0  0  0  0  0  4  0  0  0  0  0  0
    4.2420   67.2620   62.3030 C   0  0  0  0  0  0  0  0  0  0  0  0
    1.5050   67.6110   66.6330 C   0  0  0  0  0  0  0  0  0  0  0  0
    0.0070   67.6450   66.8170 C   0  0  0  0  0  0  0  0  0  0  0  0
   -0.7650   66.9140   67.7000 C   0  0  0  0  0  0  0  0  0  0  0  0
   -2.1520   67.2260   67.5920 C   0  0  0  0  0  0  0  0  0  0  0  0
   -2.3920   68.1870   66.6350 C   0  0  0  0  0  0  0  0  0  0  0  0
   -0.9540   68.7070   65.8730 S   0  0  0  0  0  0  0  0  0  0  0  0
    4.6767   69.3013   65.5781 H   0  0  0  0  0  0  0  0  0  0  0  0
    6.3000   70.3694   67.1507 H   0  0  0  0  0  0  0  0  0  0  0  0
    5.5027   71.1157   69.4096 H   0  0  0  0  0  0  0  0  0  0  0  0
    3.1456   70.7263   70.0170 H   0  0  0  0  0  0  0  0  0  0  0  0
    1.9680   69.3070   64.0186 H   0  0  0  0  0  0  0  0  0  0  0  0
    3.6399   69.1090   64.6734 H   0  0  0  0  0  0  0  0  0  0  0  0
    2.3635   66.6189   65.1104 H   0  0  0  0  0  0  0  0  0  0  0  0
    1.8879   67.1599   63.4278 H   0  0  0  0  0  0  0  0  0  0  0  0
    4.1942   65.0503   64.9257 H   0  0  0  0  0  0  0  0  0  0  0  0
    3.3273   64.7612   63.3793 H   0  0  0  0  0  0  0  0  0  0  0  0
    5.1070   65.0051   63.3793 H   0  0  0  0  0  0  0  0  0  0  0  0
    4.6694   67.2395   64.2778 H   0  0  0  0  0  0  0  0  0  0  0  0
    4.8022   68.2075   62.3501 H   0  0  0  0  0  0  0  0  0  0  0  0
    4.8393   66.5081   61.7692 H   0  0  0  0  0  0  0  0  0  0  0  0
    3.2939   67.4238   61.7692 H   0  0  0  0  0  0  0  0  0  0  0  0
    1.7471   66.7794   65.9549 H   0  0  0  0  0  0  0  0  0  0  0  0
    1.9365   67.4934   67.6380 H   0  0  0  0  0  0  0  0  0  0  0  0
   -0.3561   66.1758   68.4055 H   0  0  0  0  0  0  0  0  0  0  0  0
   -2.9376   66.7549   68.2010 H   0  0  0  0  0  0  0  0  0  0  0  0
   -3.3920   68.5742   66.3901 H   0  0  0  0  0  0  0  0  0  0  0  0
  2  1  1  0
  3  2  2  0
  4  3  1  0
  5  4  2  0
  6  5  1  0
  7  6  2  0
  7  2  1  0
  8  1  1  0
  9  8  1  0
 11 10  1  0
 11  9  1  0
 12 11  1  0
 13  1  1  0
 14 13  1  0
 15 14  2  0
 16 15  1  0
 17 16  2  0
 18 17  1  0
 18 14  1  0
  3 19  1  0
  4 20  1  0
  5 21  1  0
  6 22  1  0
  8 23  1  0
  8 24  1  0
  9 25  1  0
  9 26  1  0
 10 27  1  0
 10 28  1  0
 10 29  1  0
 11 30  1  0
 12 31  1  0
 12 32  1  0
 12 33  1  0
 13 34  1  0
 13 35  1  0
 15 36  1  0
 16 37  1  0
 17 38  1  0
M  CHG  1  11   1
M  END
>  <score>  (1) 
-7.636

$$$$
=
     RDKit          3D

 38 39  0  0  0  0  0  0  0  0999 V2000
    2.4610   68.6970   66.6410 N   0  0  0  0  0  0  0  0  0  0  0  0
    3.4440   69.4890   67.2800 C   0  0  0  0  0  0  0  0  0  0  0  0
    4.6740   69.7130   66.6600 C   0  0  0  0  0  0  0  0  0  0  0  0
    5.6480   70.4810   67.2980 C   0  0  0  0  0  0  0  0  0  0  0  0
    5.3810   71.0070   68.5510 C   0  0  0  0  0  0  0  0  0  0  0  0
    4.1550   70.7210   69.1190 C   0  0  0  0  0  0  0  0  0  0  0  0
    3.2000   69.9620   68.5270 N   0  0  0  0  0  0  0  0  0  0  0  0
    1.0900   69.0370   67.0560 C   0  0  0  0  0  0  0  0  0  0  0  0
    0.2770   67.7600   67.3620 C   0  0  0  0  0  0  0  0  0  0  0  0
   -2.1800   67.2220   67.3660 C   0  0  0  0  0  0  0  0  0  0  0  0
   -0.9940   67.6250   66.5350 N   0  0  0  0  0  4  0  0  0  0  0  0
   -1.2710   68.8000   65.6500 C   0  0  0  0  0  0  0  0  0  0  0  0
    2.6680   68.6060   65.1770 C   0  0  0  0  0  0  0  0  0  0  0  0
    3.1350   67.2570   64.6840 C   0  0  0  0  0  0  0  0  0  0  0  0
    2.6640   66.0060   65.0340 C   0  0  0  0  0  0  0  0  0  0  0  0
    3.3470   64.9590   64.3500 C   0  0  0  0  0  0  0  0  0  0  0  0
    4.3140   65.4450   63.4980 C   0  0  0  0  0  0  0  0  0  0  0  0
    4.3950   67.1510   63.5250 S   0  0  0  0  0  0  0  0  0  0  0  0
    4.8755   69.2836   65.6675 H   0  0  0  0  0  0  0  0  0  0  0  0
    6.6170   70.6667   66.8116 H   0  0  0  0  0  0  0  0  0  0  0  0
    6.1197   71.6309   69.0756 H   0  0  0  0  0  0  0  0  0  0  0  0
    3.9396   71.1353   70.1150 H   0  0  0  0  0  0  0  0  0  0  0  0
    1.1315   69.6632   67.9594 H   0  0  0  0  0  0  0  0  0  0  0  0
    0.5978   69.5802   66.2358 H   0  0  0  0  0  0  0  0  0  0  0  0
    0.9151   66.8868   67.1614 H   0  0  0  0  0  0  0  0  0  0  0  0
   -0.0328   67.8235   68.4156 H   0  0  0  0  0  0  0  0  0  0  0  0
   -1.9264   67.3082   68.4329 H   0  0  0  0  0  0  0  0  0  0  0  0
   -3.0297   67.8819   67.1366 H   0  0  0  0  0  0  0  0  0  0  0  0
   -2.4518   66.1811   67.1366 H   0  0  0  0  0  0  0  0  0  0  0  0
   -0.8150   66.8459   65.8855 H   0  0  0  0  0  0  0  0  0  0  0  0
   -1.4795   69.6846   66.2696 H   0  0  0  0  0  0  0  0  0  0  0  0
   -0.3943   68.9955   65.0150 H   0  0  0  0  0  0  0  0  0  0  0  0
   -2.1427   68.5833   65.0150 H   0  0  0  0  0  0  0  0  0  0  0  0
    1.7139   68.8394   64.6817 H   0  0  0  0  0  0  0  0  0  0  0  0
    3.4702   69.3183   64.9337 H   0  0  0  0  0  0  0  0  0  0  0  0
    1.8537   65.8374   65.7585 H   0  0  0  0  0  0  0  0  0  0  0  0
    3.1280   63.8897   64.4862 H   0  0  0  0  0  0  0  0  0  0  0  0
    4.9585   64.8090   62.8734 H   0  0  0  0  0  0  0  0  0  0  0  0
  2  1  1  0
  3  2  2  0
  4  3  1  0
  5  4  2  0
  6  5  1  0
  7  6  2  0
  7  2  1  0
  8  1  1  0
  9  8  1  0
 11 10  1  0
 11  9  1  0
 12 11  1  0
 13  1  1  0
 14 13  1  0
 15 14  2  0
 16 15  1  0
 17 16  2  0
 18 17  1  0
 18 14  1  0
  3 19  1  0
  4 20  1  0
  5 21  1  0
  6 22  1  0
  8 23  1  0
  8 24  1  0
  9 25  1  0
  9 26  1  0
 10 27  1  0
 10 28  1  0
 10 29  1  0
 11 30  1  0
 12 31  1  0
 12 32  1  0
 12 33  1  0
 13 34  1  0
 13 35  1  0
 15 36  1  0
 16 37  1  0
 17 38  1  0
M  CHG  1  11   1
M  END
>  <score>  (2) 
-7.633

$$$$
=
     RDKit          3D

 38 39  0  0  0  0  0  0  0  0999 V2000
    4.1700   69.1300   65.3720 N   0  0  0  0  0  0  0  0  0  0  0  0
    4.7200   69.7560   66.5150 C   0  0  0  0  0  0  0  0  0  0  0  0
    6.0870   70.0330   66.5730 C   0  0  0  0  0  0  0  0  0  0  0  0
    6.6290   70.6370   67.7070 C   0  0  0  0  0  0  0  0  0  0  0  0
    5.7990   70.9480   68.7710 C   0  0  0  0  0  0  0  0  0  0  0  0
    4.4630   70.6190   68.6590 C   0  0  0  0  0  0  0  0  0  0  0  0
    3.9150   70.0160   67.5750 N   0  0  0  0  0  0  0  0  0  0  0  0
    5.1950   68.6670   64.4220 C   0  0  0  0  0  0  0  0  0  0  0  0
    4.9720   69.2930   63.0260 C   0  0  0  0  0  0  0  0  0  0  0  0
    4.5630   66.8750   62.4710 C   0  0  0  0  0  0  0  0  0  0  0  0
    4.6580   68.2780   61.9380 N   0  0  0  0  0  4  0  0  0  0  0  0
    3.4980   68.6540   61.0700 C   0  0  0  0  0  0  0  0  0  0  0  0
    3.1350   68.1270   65.7150 C   0  0  0  0  0  0  0  0  0  0  0  0
    1.7490   68.4450   65.2070 C   0  0  0  0  0  0  0  0  0  0  0  0
    1.3590   68.7560   63.9190 C   0  0  0  0  0  0  0  0  0  0  0  0
   -0.0440   68.9860   63.8190 C   0  0  0  0  0  0  0  0  0  0  0  0
   -0.6790   68.8390   65.0320 C   0  0  0  0  0  0  0  0  0  0  0  0
    0.4120   68.4270   66.2810 S   0  0  0  0  0  0  0  0  0  0  0  0
    6.7368   69.7747   65.7239 H   0  0  0  0  0  0  0  0  0  0  0  0
    7.7042   70.8640   67.7558 H   0  0  0  0  0  0  0  0  0  0  0  0
    6.1905   71.4399   69.6736 H   0  0  0  0  0  0  0  0  0  0  0  0
    3.8006   70.8615   69.5030 H   0  0  0  0  0  0  0  0  0  0  0  0
    6.1887   68.9581   64.7933 H   0  0  0  0  0  0  0  0  0  0  0  0
    5.1251   67.5728   64.3332 H   0  0  0  0  0  0  0  0  0  0  0  0
    4.1315   69.9994   63.0935 H   0  0  0  0  0  0  0  0  0  0  0  0
    5.9147   69.7837   62.7421 H   0  0  0  0  0  0  0  0  0  0  0  0
    4.5647   66.8997   63.5707 H   0  0  0  0  0  0  0  0  0  0  0  0
    3.6313   66.4102   62.1161 H   0  0  0  0  0  0  0  0  0  0  0  0
    5.4235   66.2889   62.1161 H   0  0  0  0  0  0  0  0  0  0  0  0
    5.4717   68.2964   61.3068 H   0  0  0  0  0  0  0  0  0  0  0  0
    2.6417   68.9315   61.7023 H   0  0  0  0  0  0  0  0  0  0  0  0
    3.7768   69.5078   60.4349 H   0  0  0  0  0  0  0  0  0  0  0  0
    3.2230   67.7990   60.4349 H   0  0  0  0  0  0  0  0  0  0  0  0
    3.4416   67.1602   65.2892 H   0  0  0  0  0  0  0  0  0  0  0  0
    3.0666   68.1170   66.8128 H   0  0  0  0  0  0  0  0  0  0  0  0
    2.0523   68.8190   63.0673 H   0  0  0  0  0  0  0  0  0  0  0  0
   -0.5588   69.2498   62.8834 H   0  0  0  0  0  0  0  0  0  0  0  0
   -1.7610   68.9712   65.1796 H   0  0  0  0  0  0  0  0  0  0  0  0
  2  1  1  0
  3  2  2  0
  4  3  1  0
  5  4  2  0
  6  5  1  0
  7  6  2  0
  7  2  1  0
  8  1  1  0
  9  8  1  0
 11 10  1  0
 11  9  1  0
 12 11  1  0
 13  1  1  0
 14 13  1  0
 15 14  2  0
 16 15  1  0
 17 16  2  0
 18 17  1  0
 18 14  1  0
  3 19  1  0
  4 20  1  0
  5 21  1  0
  6 22  1  0
  8 23  1  0
  8 24  1  0
  9 25  1  0
  9 26  1  0
 10 27  1  0
 10 28  1  0
 10 29  1  0
 11 30  1  0
 12 31  1  0
 12 32  1  0
 12 33  1  0
 13 34  1  0
 13 35  1  0
 15 36  1  0
 16 37  1  0
 17 38  1  0
M  CHG  1  11   1
M  END
>  <score>  (3) 
-7.606

$$$$
=
     RDKit          3D

 38 39  0  0  0  0  0  0  0  0999 V2000
    2.4490   68.7340   65.9980 N   0  0  0  0  0  0  0  0  0  0  0  0
    3.2220   69.4350   66.9530 C   0  0  0  0  0  0  0  0  0  0  0  0
    4.5700   69.7000   66.7060 C   0  0  0  0  0  0  0  0  0  0  0  0
    5.3340   70.3780   67.6540 C   0  0  0  0  0  0  0  0  0  0  0  0
    4.7420   70.7740   68.8420 C   0  0  0  0  0  0  0  0  0  0  0  0
    3.4130   70.4530   69.0350 C   0  0  0  0  0  0  0  0  0  0  0  0
    2.6540   69.7800   68.1360 N   0  0  0  0  0  0  0  0  0  0  0  0
    3.2340   68.2950   64.8330 C   0  0  0  0  0  0  0  0  0  0  0  0
    2.4800   68.5920   63.5180 C   0  0  0  0  0  0  0  0  0  0  0  0
    3.2650   68.8080   61.1380 C   0  0  0  0  0  0  0  0  0  0  0  0
    3.0550   67.8790   62.3030 N   0  0  0  0  0  4  0  0  0  0  0  0
    4.2560   67.0370   62.6030 C   0  0  0  0  0  0  0  0  0  0  0  0
    1.5980   67.6880   66.6120 C   0  0  0  0  0  0  0  0  0  0  0  0
    0.1130   67.9540   66.5420 C   0  0  0  0  0  0  0  0  0  0  0  0
   -0.5700   68.7750   65.6660 C   0  0  0  0  0  0  0  0  0  0  0  0
   -1.9760   68.7650   65.8980 C   0  0  0  0  0  0  0  0  0  0  0  0
   -2.3200   67.9330   66.9400 C   0  0  0  0  0  0  0  0  0  0  0  0
   -0.9550   67.1720   67.6320 S   0  0  0  0  0  0  0  0  0  0  0  0
    5.0299   69.3732   65.7617 H   0  0  0  0  0  0  0  0  0  0  0  0
    6.3948   70.5961   67.4611 H   0  0  0  0  0  0  0  0  0  0  0  0
    5.3109   71.3251   69.6053 H   0  0  0  0  0  0  0  0  0  0  0  0
    2.9401   70.7632   69.9785 H   0  0  0  0  0  0  0  0  0  0  0  0
    4.1961   68.8283   64.8251 H   0  0  0  0  0  0  0  0  0  0  0  0
    3.3975   67.2098   64.9075 H   0  0  0  0  0  0  0  0  0  0  0  0
    1.4330   68.2778   63.6406 H   0  0  0  0  0  0  0  0  0  0  0  0
    2.5779   69.6715   63.3307 H   0  0  0  0  0  0  0  0  0  0  0  0
    3.4932   69.8175   61.5105 H   0  0  0  0  0  0  0  0  0  0  0  0
    4.1037   68.4448   60.5259 H   0  0  0  0  0  0  0  0  0  0  0  0
    2.3516   68.8408   60.5259 H   0  0  0  0  0  0  0  0  0  0  0  0
    2.3305   67.2063   62.0143 H   0  0  0  0  0  0  0  0  0  0  0  0
    4.3800   66.9501   63.6925 H   0  0  0  0  0  0  0  0  0  0  0  0
    4.1196   66.0357   62.1684 H   0  0  0  0  0  0  0  0  0  0  0  0
    5.1508   67.5065   62.1684 H   0  0  0  0  0  0  0  0  0  0  0  0
    1.7995   66.7375   66.0964 H   0  0  0  0  0  0  0  0  0  0  0  0
    1.8576   67.6673   67.6807 H   0  0  0  0  0  0  0  0  0  0  0  0
   -0.0837   69.3693   64.8784 H   0  0  0  0  0  0  0  0  0  0  0  0
   -2.7003   69.3520   65.3142 H   0  0  0  0  0  0  0  0  0  0  0  0
   -3.3523   67.7765   67.2864 H   0  0  0  0  0  0  0  0  0  0  0  0
  2  1  1  0
  3  2  2  0
  4  3  1  0
  5  4  2  0
  6  5  1  0
  7  6  2  0
  7  2  1  0
  8  1  1  0
  9  8  1  0
 11 10  1  0
 11  9  1  0
 12 11  1  0
 13  1  1  0
 14 13  1  0
 15 14  2  0
 16 15  1  0
 17 16  2  0
 18 17  1  0
 18 14  1  0
  3 19  1  0
  4 20  1  0
  5 21  1  0
  6 22  1  0
  8 23  1  0
  8 24  1  0
  9 25  1  0
  9 26  1  0
 10 27  1  0
 10 28  1  0
 10 29  1  0
 11 30  1  0
 12 31  1  0
 12 32  1  0
 12 33  1  0
 13 34  1  0
 13 35  1  0
 15 36  1  0
 16 37  1  0
 17 38  1  0
M  CHG  1  11   1
M  END
>  <score>  (4) 
-7.544

$$$$
=
     RDKit          3D

 38 39  0  0  0  0  0  0  0  0999 V2000
    2.1420   67.6710   65.1550 N   0  0  0  0  0  0  0  0  0  0  0  0
    2.9120   66.5640   64.7310 C   0  0  0  0  0  0  0  0  0  0  0  0
    3.7660   66.6830   63.6320 C   0  0  0  0  0  0  0  0  0  0  0  0
    4.5130   65.5870   63.2060 C   0  0  0  0  0  0  0  0  0  0  0  0
    4.3910   64.3820   63.8770 C   0  0  0  0  0  0  0  0  0  0  0  0
    3.5060   64.3250   64.9360 C   0  0  0  0  0  0  0  0  0  0  0  0
    2.7550   65.3720   65.3580 N   0  0  0  0  0  0  0  0  0  0  0  0
    1.6570   67.5370   66.5390 C   0  0  0  0  0  0  0  0  0  0  0  0
    0.1550   67.8910   66.6310 C   0  0  0  0  0  0  0  0  0  0  0  0
   -0.1830   66.7440   68.8430 C   0  0  0  0  0  0  0  0  0  0  0  0
   -0.6670   66.8880   67.4270 N   0  0  0  0  0  4  0  0  0  0  0  0
   -2.1460   67.1020   67.3320 C   0  0  0  0  0  0  0  0  0  0  0  0
    2.7870   68.9670   64.8400 C   0  0  0  0  0  0  0  0  0  0  0  0
    3.8730   69.3860   65.8010 C   0  0  0  0  0  0  0  0  0  0  0  0
    5.2310   69.4930   65.5670 C   0  0  0  0  0  0  0  0  0  0  0  0
    5.9460   69.9320   66.7180 C   0  0  0  0  0  0  0  0  0  0  0  0
    5.1120   70.1500   67.7920 C   0  0  0  0  0  0  0  0  0  0  0  0
    3.4780   69.8260   67.4110 S   0  0  0  0  0  0  0  0  0  0  0  0
    3.8488   67.6435   63.1022 H   0  0  0  0  0  0  0  0  0  0  0  0
    5.1925   65.6779   62.3458 H   0  0  0  0  0  0  0  0  0  0  0  0
    4.9780   63.5013   63.5774 H   0  0  0  0  0  0  0  0  0  0  0  0
    3.4040   63.3693   65.4710 H   0  0  0  0  0  0  0  0  0  0  0  0
    1.8042   66.4996   66.8739 H   0  0  0  0  0  0  0  0  0  0  0  0
    2.2224   68.2299   67.1794 H   0  0  0  0  0  0  0  0  0  0  0  0
    0.0601   68.8758   67.1117 H   0  0  0  0  0  0  0  0  0  0  0  0
   -0.2385   67.8829   65.6038 H   0  0  0  0  0  0  0  0  0  0  0  0
   -1.0012   66.9874   69.5367 H   0  0  0  0  0  0  0  0  0  0  0  0
    0.1471   65.7087   69.0142 H   0  0  0  0  0  0  0  0  0  0  0  0
    0.6593   67.4304   69.0142 H   0  0  0  0  0  0  0  0  0  0  0  0
   -0.5055   65.9793   66.9698 H   0  0  0  0  0  0  0  0  0  0  0  0
   -2.5733   67.1638   68.3437 H   0  0  0  0  0  0  0  0  0  0  0  0
   -2.3470   68.0386   66.7912 H   0  0  0  0  0  0  0  0  0  0  0  0
   -2.6042   66.2608   66.7912 H   0  0  0  0  0  0  0  0  0  0  0  0
    3.2292   68.8935   63.8355 H   0  0  0  0  0  0  0  0  0  0  0  0
    1.9983   69.7303   64.9135 H   0  0  0  0  0  0  0  0  0  0  0  0
    5.7058   69.2650   64.6013 H   0  0  0  0  0  0  0  0  0  0  0  0
    7.0357   70.0795   66.7458 H   0  0  0  0  0  0  0  0  0  0  0  0
    5.4570   70.4923   68.7788 H   0  0  0  0  0  0  0  0  0  0  0  0
  2  1  1  0
  3  2  2  0
  4  3  1  0
  5  4  2  0
  6  5  1  0
  7  6  2  0
  7  2  1  0
  8  1  1  0
  9  8  1  0
 11 10  1  0
 11  9  1  0
 12 11  1  0
 13  1  1  0
 14 13  1  0
 15 14  2  0
 16 15  1  0
 17 16  2  0
 18 17  1  0
 18 14  1  0
  3 19  1  0
  4 20  1  0
  5 21  1  0
  6 22  1  0
  8 23  1  0
  8 24  1  0
  9 25  1  0
  9 26  1  0
 10 27  1  0
 10 28  1  0
 10 29  1  0
 11 30  1  0
 12 31  1  0
 12 32  1  0
 12 33  1  0
 13 34  1  0
 13 35  1  0
 15 36  1  0
 16 37  1  0
 17 38  1  0
M  CHG  1  11   1
M  END
>  <score>  (5) 
-7.046

$$$$
=
     RDKit          3D

 38 39  0  0  0  0  0  0  0  0999 V2000
    2.3700   68.5950   65.9140 N   0  0  0  0  0  0  0  0  0  0  0  0
    1.9080   68.6810   64.5810 C   0  0  0  0  0  0  0  0  0  0  0  0
    2.8160   68.6530   63.5210 C   0  0  0  0  0  0  0  0  0  0  0  0
    2.3590   68.7530   62.2070 C   0  0  0  0  0  0  0  0  0  0  0  0
    1.0020   68.8880   61.9710 C   0  0  0  0  0  0  0  0  0  0  0  0
    0.1620   68.9390   63.0660 C   0  0  0  0  0  0  0  0  0  0  0  0
    0.5830   68.8630   64.3530 N   0  0  0  0  0  0  0  0  0  0  0  0
    3.7340   69.1240   66.0850 C   0  0  0  0  0  0  0  0  0  0  0  0
    3.8700   69.8640   67.4350 C   0  0  0  0  0  0  0  0  0  0  0  0
    6.2350   70.1580   66.6300 C   0  0  0  0  0  0  0  0  0  0  0  0
    5.3060   70.1970   67.8120 N   0  0  0  0  0  4  0  0  0  0  0  0
    5.4470   71.4460   68.6260 C   0  0  0  0  0  0  0  0  0  0  0  0
    1.3770   69.0940   66.8940 C   0  0  0  0  0  0  0  0  0  0  0  0
    0.7900   68.0370   67.7980 C   0  0  0  0  0  0  0  0  0  0  0  0
    1.3460   67.4710   68.9290 C   0  0  0  0  0  0  0  0  0  0  0  0
    0.4860   66.5080   69.5320 C   0  0  0  0  0  0  0  0  0  0  0  0
   -0.6990   66.3730   68.8440 C   0  0  0  0  0  0  0  0  0  0  0  0
   -0.7720   67.4020   67.4820 S   0  0  0  0  0  0  0  0  0  0  0  0
    3.8927   68.5520   63.7222 H   0  0  0  0  0  0  0  0  0  0  0  0
    3.0693   68.7249   61.3676 H   0  0  0  0  0  0  0  0  0  0  0  0
    0.6062   68.9524   60.9467 H   0  0  0  0  0  0  0  0  0  0  0  0
   -0.9171   69.0482   62.8827 H   0  0  0  0  0  0  0  0  0  0  0  0
    4.4505   68.2898   66.0571 H   0  0  0  0  0  0  0  0  0  0  0  0
    3.9415   69.8342   65.2710 H   0  0  0  0  0  0  0  0  0  0  0  0
    3.3009   70.8034   67.3742 H   0  0  0  0  0  0  0  0  0  0  0  0
    3.4842   69.1868   68.2113 H   0  0  0  0  0  0  0  0  0  0  0  0
    7.2759   70.1143   66.9830 H   0  0  0  0  0  0  0  0  0  0  0  0
    6.0166   69.2682   66.0212 H   0  0  0  0  0  0  0  0  0  0  0  0
    6.0920   71.0629   66.0212 H   0  0  0  0  0  0  0  0  0  0  0  0
    5.6043   69.4391   68.4425 H   0  0  0  0  0  0  0  0  0  0  0  0
    5.4183   71.1916   69.6958 H   0  0  0  0  0  0  0  0  0  0  0  0
    6.4056   71.9312   68.3901 H   0  0  0  0  0  0  0  0  0  0  0  0
    4.6207   72.1327   68.3901 H   0  0  0  0  0  0  0  0  0  0  0  0
    1.8692   69.8486   67.5252 H   0  0  0  0  0  0  0  0  0  0  0  0
    0.5392   69.4974   66.3063 H   0  0  0  0  0  0  0  0  0  0  0  0
    2.3400   67.7340   69.3198 H   0  0  0  0  0  0  0  0  0  0  0  0
    0.7388   65.9399   70.4394 H   0  0  0  0  0  0  0  0  0  0  0  0
   -1.5044   65.6834   69.1369 H   0  0  0  0  0  0  0  0  0  0  0  0
  2  1  1  0
  3  2  2  0
  4  3  1  0
  5  4  2  0
  6  5  1  0
  7  6  2  0
  7  2  1  0
  8  1  1  0
  9  8  1  0
 11 10  1  0
 11  9  1  0
 12 11  1  0
 13  1  1  0
 14 13  1  0
 15 14  2  0
 16 15  1  0
 17 16  2  0
 18 17  1  0
 18 14  1  0
  3 19  1  0
  4 20  1  0
  5 21  1  0
  6 22  1  0
  8 23  1  0
  8 24  1  0
  9 25  1  0
  9 26  1  0
 10 27  1  0
 10 28  1  0
 10 29  1  0
 11 30  1  0
 12 31  1  0
 12 32  1  0
 12 33  1  0
 13 34  1  0
 13 35  1  0
 15 36  1  0
 16 37  1  0
 17 38  1  0
M  CHG  1  11   1
M  END
>  <score>  (6) 
-6.637

$$$$
=
     RDKit          3D

 38 39  0  0  0  0  0  0  0  0999 V2000
    2.0140   68.4480   65.5650 N   0  0  0  0  0  0  0  0  0  0  0  0
    2.8300   69.1230   66.5030 C   0  0  0  0  0  0  0  0  0  0  0  0
    4.1510   69.4390   66.1820 C   0  0  0  0  0  0  0  0  0  0  0  0
    4.9580   70.0910   67.1130 C   0  0  0  0  0  0  0  0  0  0  0  0
    4.4370   70.4100   68.3560 C   0  0  0  0  0  0  0  0  0  0  0  0
    3.1320   70.0410   68.6180 C   0  0  0  0  0  0  0  0  0  0  0  0
    2.3330   69.3910   67.7360 N   0  0  0  0  0  0  0  0  0  0  0  0
    2.1880   68.9430   64.1900 C   0  0  0  0  0  0  0  0  0  0  0  0
    0.8550   68.8800   63.4110 C   0  0  0  0  0  0  0  0  0  0  0  0
    0.1510   69.8540   61.2010 C   0  0  0  0  0  0  0  0  0  0  0  0
    1.0250   68.8490   61.8990 N   0  0  0  0  0  4  0  0  0  0  0  0
    2.4520   68.8990   61.4460 C   0  0  0  0  0  0  0  0  0  0  0  0
    2.0760   66.9750   65.7130 C   0  0  0  0  0  0  0  0  0  0  0  0
    3.0570   66.2850   64.7970 C   0  0  0  0  0  0  0  0  0  0  0  0
    3.8790   66.8490   63.8400 C   0  0  0  0  0  0  0  0  0  0  0  0
    4.6810   65.8760   63.1750 C   0  0  0  0  0  0  0  0  0  0  0  0
    4.4480   64.6040   63.6470 C   0  0  0  0  0  0  0  0  0  0  0  0
    3.2700   64.5850   64.8840 S   0  0  0  0  0  0  0  0  0  0  0  0
    4.5554   69.1735   65.1941 H   0  0  0  0  0  0  0  0  0  0  0  0
    5.9976   70.3494   66.8631 H   0  0  0  0  0  0  0  0  0  0  0  0
    5.0412   70.9386   69.1080 H   0  0  0  0  0  0  0  0  0  0  0  0
    2.7144   70.2902   69.6047 H   0  0  0  0  0  0  0  0  0  0  0  0
    2.5371   69.9856   64.2236 H   0  0  0  0  0  0  0  0  0  0  0  0
    2.9260   68.3083   63.6776 H   0  0  0  0  0  0  0  0  0  0  0  0
    0.3173   67.9707   63.7177 H   0  0  0  0  0  0  0  0  0  0  0  0
    0.3012   69.7996   63.6511 H   0  0  0  0  0  0  0  0  0  0  0  0
   -0.3780   70.4623   61.9494 H   0  0  0  0  0  0  0  0  0  0  0  0
    0.7735   70.5068   60.5715 H   0  0  0  0  0  0  0  0  0  0  0  0
   -0.5819   69.3281   60.5715 H   0  0  0  0  0  0  0  0  0  0  0  0
    0.6908   67.9196   61.6069 H   0  0  0  0  0  0  0  0  0  0  0  0
    3.1147   68.9222   62.3237 H   0  0  0  0  0  0  0  0  0  0  0  0
    2.6760   68.0082   60.8409 H   0  0  0  0  0  0  0  0  0  0  0  0
    2.6131   69.8033   60.8409 H   0  0  0  0  0  0  0  0  0  0  0  0
    2.3597   66.7475   66.7511 H   0  0  0  0  0  0  0  0  0  0  0  0
    1.0801   66.5954   65.4406 H   0  0  0  0  0  0  0  0  0  0  0  0
    3.9108   67.9257   63.6169 H   0  0  0  0  0  0  0  0  0  0  0  0
    5.4013   66.1137   62.3784 H   0  0  0  0  0  0  0  0  0  0  0  0
    4.9600   63.7056   63.2718 H   0  0  0  0  0  0  0  0  0  0  0  0
  2  1  1  0
  3  2  2  0
  4  3  1  0
  5  4  2  0
  6  5  1  0
  7  6  2  0
  7  2  1  0
  8  1  1  0
  9  8  1  0
 11 10  1  0
 11  9  1  0
 12 11  1  0
 13  1  1  0
 14 13  1  0
 15 14  2  0
 16 15  1  0
 17 16  2  0
 18 17  1  0
 18 14  1  0
  3 19  1  0
  4 20  1  0
  5 21  1  0
  6 22  1  0
  8 23  1  0
  8 24  1  0
  9 25  1  0
  9 26  1  0
 10 27  1  0
 10 28  1  0
 10 29  1  0
 11 30  1  0
 12 31  1  0
 12 32  1  0
 12 33  1  0
 13 34  1  0
 13 35  1  0
 15 36  1  0
 16 37  1  0
 17 38  1  0
M  CHG  1  11   1
M  END
>  <score>  (7) 
-6.444

$$$$
=
     RDKit          3D

 38 39  0  0  0  0  0  0  0  0999 V2000
    3.1210   68.0260   65.5460 N   0  0  0  0  0  0  0  0  0  0  0  0
    3.5660   68.3150   64.2350 C   0  0  0  0  0  0  0  0  0  0  0  0
    2.6410   68.4770   63.2010 C   0  0  0  0  0  0  0  0  0  0  0  0
    3.0820   68.7470   61.9060 C   0  0  0  0  0  0  0  0  0  0  0  0
    4.4410   68.8420   61.6600 C   0  0  0  0  0  0  0  0  0  0  0  0
    5.3010   68.6420   62.7220 C   0  0  0  0  0  0  0  0  0  0  0  0
    4.8980   68.3600   63.9860 N   0  0  0  0  0  0  0  0  0  0  0  0
    2.9930   69.2280   66.3870 C   0  0  0  0  0  0  0  0  0  0  0  0
    4.3830   69.7980   66.7460 C   0  0  0  0  0  0  0  0  0  0  0  0
    5.5820   71.2170   68.4420 C   0  0  0  0  0  0  0  0  0  0  0  0
    4.5430   70.1540   68.2170 N   0  0  0  0  0  4  0  0  0  0  0  0
    3.2510   70.4410   68.9170 C   0  0  0  0  0  0  0  0  0  0  0  0
    1.9490   67.1210   65.5630 C   0  0  0  0  0  0  0  0  0  0  0  0
    0.6590   67.7600   66.0210 C   0  0  0  0  0  0  0  0  0  0  0  0
   -0.2070   68.5570   65.2980 C   0  0  0  0  0  0  0  0  0  0  0  0
   -1.3340   68.9680   66.0680 C   0  0  0  0  0  0  0  0  0  0  0  0
   -1.2930   68.4690   67.3500 C   0  0  0  0  0  0  0  0  0  0  0  0
    0.0960   67.5120   67.6220 S   0  0  0  0  0  0  0  0  0  0  0  0
    1.5641   68.3915   63.4084 H   0  0  0  0  0  0  0  0  0  0  0  0
    2.3581   68.8830   61.0890 H   0  0  0  0  0  0  0  0  0  0  0  0
    4.8227   69.0689   60.6536 H   0  0  0  0  0  0  0  0  0  0  0  0
    6.3817   68.7161   62.5305 H   0  0  0  0  0  0  0  0  0  0  0  0
    2.4207   69.9915   65.8398 H   0  0  0  0  0  0  0  0  0  0  0  0
    2.4740   68.9534   67.3172 H   0  0  0  0  0  0  0  0  0  0  0  0
    5.1430   69.0461   66.4871 H   0  0  0  0  0  0  0  0  0  0  0  0
    4.5015   70.7319   66.1770 H   0  0  0  0  0  0  0  0  0  0  0  0
    5.7269   71.3653   69.5223 H   0  0  0  0  0  0  0  0  0  0  0  0
    6.5320   70.9040   67.9842 H   0  0  0  0  0  0  0  0  0  0  0  0
    5.2474   72.1596   67.9842 H   0  0  0  0  0  0  0  0  0  0  0  0
    4.8994   69.2985   68.6665 H   0  0  0  0  0  0  0  0  0  0  0  0
    3.4079   70.4061   70.0052 H   0  0  0  0  0  0  0  0  0  0  0  0
    2.8927   71.4406   68.6301 H   0  0  0  0  0  0  0  0  0  0  0  0
    2.5032   69.6871   68.6301 H   0  0  0  0  0  0  0  0  0  0  0  0
    1.7976   66.7386   64.5428 H   0  0  0  0  0  0  0  0  0  0  0  0
    2.1790   66.3318   66.2939 H   0  0  0  0  0  0  0  0  0  0  0  0
   -0.0454   68.8420   64.2479 H   0  0  0  0  0  0  0  0  0  0  0  0
   -2.1412   69.6084   65.6830 H   0  0  0  0  0  0  0  0  0  0  0  0
   -2.0639   68.6635   68.1102 H   0  0  0  0  0  0  0  0  0  0  0  0
  2  1  1  0
  3  2  2  0
  4  3  1  0
  5  4  2  0
  6  5  1  0
  7  6  2  0
  7  2  1  0
  8  1  1  0
  9  8  1  0
 11 10  1  0
 11  9  1  0
 12 11  1  0
 13  1  1  0
 14 13  1  0
 15 14  2  0
 16 15  1  0
 17 16  2  0
 18 17  1  0
 18 14  1  0
  3 19  1  0
  4 20  1  0
  5 21  1  0
  6 22  1  0
  8 23  1  0
  8 24  1  0
  9 25  1  0
  9 26  1  0
 10 27  1  0
 10 28  1  0
 10 29  1  0
 11 30  1  0
 12 31  1  0
 12 32  1  0
 12 33  1  0
 13 34  1  0
 13 35  1  0
 15 36  1  0
 16 37  1  0
 17 38  1  0
M  CHG  1  11   1
M  END
>  <score>  (8) 
-6.127

$$$$
=
     RDKit          3D

 38 39  0  0  0  0  0  0  0  0999 V2000
    1.4340   64.5670   70.9320 N   0  0  0  0  0  0  0  0  0  0  0  0
    2.3470   63.6050   70.4400 C   0  0  0  0  0  0  0  0  0  0  0  0
    3.6710   63.6060   70.8800 C   0  0  0  0  0  0  0  0  0  0  0  0
    4.5730   62.6660   70.3830 C   0  0  0  0  0  0  0  0  0  0  0  0
    4.1410   61.7440   69.4450 C   0  0  0  0  0  0  0  0  0  0  0  0
    2.8250   61.8180   69.0310 C   0  0  0  0  0  0  0  0  0  0  0  0
    1.9340   62.7330   69.4860 N   0  0  0  0  0  0  0  0  0  0  0  0
    1.4230   65.8070   70.1400 C   0  0  0  0  0  0  0  0  0  0  0  0
   -0.0150   66.1690   69.7060 C   0  0  0  0  0  0  0  0  0  0  0  0
   -1.5430   66.8770   67.8380 C   0  0  0  0  0  0  0  0  0  0  0  0
   -0.1180   66.6760   68.2750 N   0  0  0  0  0  4  0  0  0  0  0  0
    0.7560   67.8560   67.9840 C   0  0  0  0  0  0  0  0  0  0  0  0
    0.0990   63.9910   71.2150 C   0  0  0  0  0  0  0  0  0  0  0  0
    0.0570   63.0160   72.3670 C   0  0  0  0  0  0  0  0  0  0  0  0
   -0.3620   61.6990   72.3610 C   0  0  0  0  0  0  0  0  0  0  0  0
   -0.2450   61.0880   73.6430 C   0  0  0  0  0  0  0  0  0  0  0  0
    0.2620   61.9570   74.5840 C   0  0  0  0  0  0  0  0  0  0  0  0
    0.5940   63.4970   73.9230 S   0  0  0  0  0  0  0  0  0  0  0  0
    4.0036   64.3491   71.6197 H   0  0  0  0  0  0  0  0  0  0  0  0
    5.6160   62.6571   70.7323 H   0  0  0  0  0  0  0  0  0  0  0  0
    4.8219   60.9791   69.0433 H   0  0  0  0  0  0  0  0  0  0  0  0
    2.4780   61.0881   68.2847 H   0  0  0  0  0  0  0  0  0  0  0  0
    1.8332   66.6268   70.7481 H   0  0  0  0  0  0  0  0  0  0  0  0
    2.0352   65.6548   69.2388 H   0  0  0  0  0  0  0  0  0  0  0  0
   -0.6420   65.2702   69.8010 H   0  0  0  0  0  0  0  0  0  0  0  0
   -0.3492   66.9881   70.3598 H   0  0  0  0  0  0  0  0  0  0  0  0
   -2.1888   66.9681   68.7238 H   0  0  0  0  0  0  0  0  0  0  0  0
   -1.6158   67.7943   67.2353 H   0  0  0  0  0  0  0  0  0  0  0  0
   -1.8667   66.0156   67.2353 H   0  0  0  0  0  0  0  0  0  0  0  0
    0.2626   65.9190   67.6893 H   0  0  0  0  0  0  0  0  0  0  0  0
    1.0901   68.3070   68.9300 H   0  0  0  0  0  0  0  0  0  0  0  0
    1.6318   67.5295   67.4041 H   0  0  0  0  0  0  0  0  0  0  0  0
    0.1883   68.5986   67.4041 H   0  0  0  0  0  0  0  0  0  0  0  0
   -0.5886   64.8187   71.4430 H   0  0  0  0  0  0  0  0  0  0  0  0
   -0.1866   63.4210   70.3186 H   0  0  0  0  0  0  0  0  0  0  0  0
   -0.7425   61.1813   71.4681 H   0  0  0  0  0  0  0  0  0  0  0  0
   -0.5262   60.0461   73.8560 H   0  0  0  0  0  0  0  0  0  0  0  0
    0.4330   61.6906   75.6375 H   0  0  0  0  0  0  0  0  0  0  0  0
  2  1  1  0
  3  2  2  0
  4  3  1  0
  5  4  2  0
  6  5  1  0
  7  6  2  0
  7  2  1  0
  8  1  1  0
  9  8  1  0
 11 10  1  0
 11  9  1  0
 12 11  1  0
 13  1  1  0
 14 13  1  0
 15 14  2  0
 16 15  1  0
 17 16  2  0
 18 17  1  0
 18 14  1  0
  3 19  1  0
  4 20  1  0
  5 21  1  0
  6 22  1  0
  8 23  1  0
  8 24  1  0
  9 25  1  0
  9 26  1  0
 10 27  1  0
 10 28  1  0
 10 29  1  0
 11 30  1  0
 12 31  1  0
 12 32  1  0
 12 33  1  0
 13 34  1  0
 13 35  1  0
 15 36  1  0
 16 37  1  0
 17 38  1  0
M  CHG  1  11   1
M  END
>  <score>  (9) 
-6.086

$$$$
