=
     RDKit          3D

 94 97  0  0  0  0  0  0  0  0999 V2000
   -5.2090   66.3500   75.4490 C   0  0  0  0  0  0  0  0  0  0  0  0
   -4.8460   65.4960   76.6630 C   0  0  2  0  0  0  0  0  0  0  0  0
   -3.3810   65.6420   77.1320 C   0  0  0  0  0  0  0  0  0  0  0  0
   -2.3740   66.0110   76.0750 C   0  0  0  0  0  0  0  0  0  0  0  0
   -1.4940   65.1690   75.5100 C   0  0  0  0  0  0  0  0  0  0  0  0
   -0.5300   65.6330   74.5360 C   0  0  0  0  0  0  0  0  0  0  0  0
    0.3950   64.9200   73.8750 C   0  0  0  0  0  0  0  0  0  0  0  0
    0.6860   63.5060   73.9220 C   0  0  0  0  0  0  0  0  0  0  0  0
    0.9010   62.7830   75.0320 C   0  0  0  0  0  0  0  0  0  0  0  0
    1.3200   61.3960   75.0370 C   0  0  0  0  0  0  0  0  0  0  0  0
    0.9510   60.4740   74.1330 C   0  0  0  0  0  0  0  0  0  0  0  0
    1.4340   59.0430   74.1260 C   0  0  1  0  0  0  0  0  0  0  0  0
    0.2160   58.0970   74.2140 C   0  0  0  0  0  0  0  0  0  0  0  0
    0.4480   56.5700   74.3740 C   0  0  2  0  0  0  0  0  0  0  0  0
   -0.7940   55.8830   74.1130 O   0  0  0  0  0  0  0  0  0  0  0  0
   -1.6500   55.5780   75.2020 C   0  0  2  0  0  0  0  0  0  0  0  0
   -2.4150   56.8210   75.6920 C   0  0  0  0  0  0  0  0  0  0  0  0
   -3.8000   56.5610   76.3090 C   0  0  2  0  0  0  0  0  0  0  0  0
   -4.2890   57.7370   77.1640 C   0  0  0  0  0  0  0  0  0  0  0  0
   -4.4130   59.0220   76.4080 C   0  0  2  0  0  0  0  0  0  0  0  0
   -5.6320   59.8950   76.5970 C   0  0  1  0  0  0  0  0  0  0  0  0
   -5.4790   61.3530   76.5530 C   0  0  0  0  0  0  0  0  0  0  0  0
   -6.4930   62.2200   76.4070 C   0  0  0  0  0  0  0  0  0  0  0  0
   -6.3690   63.6870   76.4760 C   0  0  0  0  0  0  0  0  0  0  0  0
   -7.3460   64.4050   76.6330 O   0  0  0  0  0  0  0  0  0  0  0  0
   -5.0800   64.0960   76.3870 O   0  0  0  0  0  0  0  0  0  0  0  0
   -5.4630   59.0640   75.4380 O   0  0  0  0  0  0  0  0  0  0  0  0
   -0.9280   54.8370   76.3290 C   0  0  0  0  0  0  0  0  0  0  0  0
    0.5780   54.7440   76.1170 C   0  0  1  0  0  0  0  0  0  0  0  0
    1.1300   56.0860   75.6690 C   0  0  1  0  0  0  0  0  0  0  0  0
    2.6300   55.9410   75.4230 C   0  0  0  0  0  0  0  0  0  0  0  0
    3.4420   56.8180   75.8590 O   0  0  0  0  0  0  0  0  0  0  0  0
    2.9910   54.8190   74.9590 O   0  0  0  0  0  1  0  0  0  0  0  0
   -3.7900   55.4040   77.1420 O   0  0  0  0  0  0  0  0  0  0  0  0
   -2.6050   54.6740   74.6450 O   0  0  0  0  0  0  0  0  0  0  0  0
    1.1550   54.3790   77.3740 O   0  0  0  0  0  0  0  0  0  0  0  0
    2.1580   58.9210   72.8830 O   0  0  0  0  0  0  0  0  0  0  0  0
    2.7390   60.1640   72.4730 C   0  0  2  0  0  0  0  0  0  0  0  0
    2.0420   60.8030   71.3880 O   0  0  0  0  0  0  0  0  0  0  0  0
    2.6460   62.0730   71.0430 C   0  0  2  0  0  0  0  0  0  0  0  0
    1.8720   62.6450   69.8610 C   0  0  0  0  0  0  0  0  0  0  0  0
    4.1720   61.9740   70.7130 C   0  0  2  0  0  0  0  0  0  0  0  0
    4.8530   61.1470   71.8100 C   0  0  1  0  0  0  0  0  0  0  0  0
    4.1230   59.8300   71.9330 C   0  0  2  0  0  0  0  0  0  0  0  0
    6.2840   60.8560   71.5380 N   0  0  0  0  0  4  0  0  0  0  0  0
    4.0800   59.1610   70.6500 O   0  0  0  0  0  0  0  0  0  0  0  0
    4.8070   63.2560   70.6200 O   0  0  0  0  0  0  0  0  0  0  0  0
   -5.6184   67.3132   75.7875 H   0  0  0  0  0  0  0  0  0  0  0  0
   -4.3084   66.5271   74.8428 H   0  0  0  0  0  0  0  0  0  0  0  0
   -5.9615   65.8244   74.8428 H   0  0  0  0  0  0  0  0  0  0  0  0
   -5.4950   65.8683   77.4694 H   0  0  0  0  0  0  0  0  0  0  0  0
   -3.3538   66.4220   77.9072 H   0  0  0  0  0  0  0  0  0  0  0  0
   -3.0848   64.6421   77.4818 H   0  0  0  0  0  0  0  0  0  0  0  0
   -2.3580   67.0578   75.7376 H   0  0  0  0  0  0  0  0  0  0  0  0
   -1.5062   64.1061   75.7930 H   0  0  0  0  0  0  0  0  0  0  0  0
   -0.5590   66.7087   74.3079 H   0  0  0  0  0  0  0  0  0  0  0  0
    1.0300   65.5027   73.1915 H   0  0  0  0  0  0  0  0  0  0  0  0
    0.7359   62.9735   72.9608 H   0  0  0  0  0  0  0  0  0  0  0  0
    0.7489   63.2765   76.0032 H   0  0  0  0  0  0  0  0  0  0  0  0
    1.9932   61.0728   75.8447 H   0  0  0  0  0  0  0  0  0  0  0  0
    0.2492   60.7820   73.3439 H   0  0  0  0  0  0  0  0  0  0  0  0
    2.0792   58.7766   74.9761 H   0  0  0  0  0  0  0  0  0  0  0  0
   -0.3812   58.4229   75.0784 H   0  0  0  0  0  0  0  0  0  0  0  0
   -0.2542   58.1860   73.2236 H   0  0  0  0  0  0  0  0  0  0  0  0
    1.2114   56.3099   73.6260 H   0  0  0  0  0  0  0  0  0  0  0  0
   -1.7958   57.3190   76.4527 H   0  0  0  0  0  0  0  0  0  0  0  0
   -2.5999   57.4284   74.7938 H   0  0  0  0  0  0  0  0  0  0  0  0
   -4.4786   56.4179   75.4552 H   0  0  0  0  0  0  0  0  0  0  0  0
   -5.2762   57.4799   77.5754 H   0  0  0  0  0  0  0  0  0  0  0  0
   -3.5352   57.8981   77.9487 H   0  0  0  0  0  0  0  0  0  0  0  0
   -3.3296   59.2092   76.4436 H   0  0  0  0  0  0  0  0  0  0  0  0
   -6.4301   60.0209   77.3435 H   0  0  0  0  0  0  0  0  0  0  0  0
   -4.4630   61.7643   76.6461 H   0  0  0  0  0  0  0  0  0  0  0  0
   -7.4941   61.8035   76.2215 H   0  0  0  0  0  0  0  0  0  0  0  0
   -1.1160   55.3684   77.2736 H   0  0  0  0  0  0  0  0  0  0  0  0
   -1.3197   53.8093   76.3484 H   0  0  0  0  0  0  0  0  0  0  0  0
    0.8162   54.0028   75.3399 H   0  0  0  0  0  0  0  0  0  0  0  0
    0.9331   56.8277   76.4571 H   0  0  0  0  0  0  0  0  0  0  0  0
   -3.7924   55.6815   78.0923 H   0  0  0  0  0  0  0  0  0  0  0  0
   -3.0901   54.2148   75.3758 H   0  0  0  0  0  0  0  0  0  0  0  0
    0.5950   54.7333   78.1095 H   0  0  0  0  0  0  0  0  0  0  0  0
    2.7191   60.8418   73.3392 H   0  0  0  0  0  0  0  0  0  0  0  0
    2.5868   62.7350   71.9195 H   0  0  0  0  0  0  0  0  0  0  0  0
    1.0390   63.2606   70.2315 H   0  0  0  0  0  0  0  0  0  0  0  0
    2.5430   63.2659   69.2493 H   0  0  0  0  0  0  0  0  0  0  0  0
    1.4754   61.8213   69.2493 H   0  0  0  0  0  0  0  0  0  0  0  0
    4.2731   61.4957   69.7276 H   0  0  0  0  0  0  0  0  0  0  0  0
    4.8123   61.7438   72.7331 H   0  0  0  0  0  0  0  0  0  0  0  0
    4.6294   59.1307   72.6146 H   0  0  0  0  0  0  0  0  0  0  0  0
    6.7890   60.7533   72.4298 H   0  0  0  0  0  0  0  0  0  0  0  0
    6.3600   59.9823   70.9978 H   0  0  0  0  0  0  0  0  0  0  0  0
    6.6952   61.6306   70.9978 H   0  0  0  0  0  0  0  0  0  0  0  0
    4.0171   58.1829   70.7898 H   0  0  0  0  0  0  0  0  0  0  0  0
    4.9800   63.6053   71.5300 H   0  0  0  0  0  0  0  0  0  0  0  0
  2  1  1  0
  3  2  1  0
  4  3  1  0
  5  4  2  0
  6  5  1  0
  7  6  2  0
  8  7  1  0
  9  8  2  0
 10  9  1  0
 11 10  2  0
 12 11  1  0
 13 12  1  0
 14 13  1  0
 15 14  1  0
 16 15  1  0
 17 16  1  0
 18 17  1  0
 19 18  1  0
 20 19  1  0
 21 20  1  0
 22 21  1  0
 23 22  2  0
 24 23  1  0
 25 24  2  0
 26 24  1  0
 26  2  1  0
 27 21  1  0
 27 20  1  0
 28 16  1  0
 29 28  1  0
 30 29  1  0
 30 14  1  0
 31 30  1  0
 32 31  2  0
 33 31  1  0
 34 18  1  0
 16 35  1  6
 36 29  1  0
 37 12  1  0
 38 37  1  0
 39 38  1  0
 40 39  1  0
 41 40  1  0
 42 40  1  0
 43 42  1  0
 44 43  1  0
 44 38  1  0
 45 43  1  0
 46 44  1  0
 47 42  1  0
  1 48  1  0
  1 49  1  0
  1 50  1  0
  2 51  1  1
  3 52  1  0
  3 53  1  0
  4 54  1  0
  5 55  1  0
  6 56  1  0
  7 57  1  0
  8 58  1  0
  9 59  1  0
 10 60  1  0
 11 61  1  0
 12 62  1  1
 13 63  1  0
 13 64  1  0
 14 65  1  6
 17 66  1  0
 17 67  1  0
 18 68  1  6
 19 69  1  0
 19 70  1  0
 20 71  1  6
 21 72  1  1
 22 73  1  0
 23 74  1  0
 28 75  1  0
 28 76  1  0
 29 77  1  6
 30 78  1  1
 34 79  1  0
 35 80  1  0
 36 81  1  0
 38 82  1  1
 40 83  1  1
 41 84  1  0
 41 85  1  0
 41 86  1  0
 42 87  1  6
 43 88  1  1
 44 89  1  1
 45 90  1  0
 45 91  1  0
 45 92  1  0
 46 93  1  0
 47 94  1  0
M  CHG  2  33  -1  45   1
M  END
>  <score>  (1) 
-8.59

$$$$
=
     RDKit          3D

 94 97  0  0  0  0  0  0  0  0999 V2000
    1.3090   53.3300   76.0170 C   0  0  0  0  0  0  0  0  0  0  0  0
   -0.0660   53.3140   75.3520 C   0  0  2  0  0  0  0  0  0  0  0  0
   -0.1460   54.1130   74.0310 C   0  0  0  0  0  0  0  0  0  0  0  0
    0.8020   55.2740   73.8930 C   0  0  0  0  0  0  0  0  0  0  0  0
    0.4710   56.5690   74.0150 C   0  0  0  0  0  0  0  0  0  0  0  0
    1.4490   57.6170   73.8140 C   0  0  0  0  0  0  0  0  0  0  0  0
    1.2810   58.9440   73.9150 C   0  0  0  0  0  0  0  0  0  0  0  0
    0.1050   59.7060   74.2650 C   0  0  0  0  0  0  0  0  0  0  0  0
   -1.1100   59.5800   73.7100 C   0  0  0  0  0  0  0  0  0  0  0  0
   -2.2340   60.4500   73.9920 C   0  0  0  0  0  0  0  0  0  0  0  0
   -2.4940   61.0150   75.1820 C   0  0  0  0  0  0  0  0  0  0  0  0
   -3.6440   61.9570   75.4470 C   0  0  1  0  0  0  0  0  0  0  0  0
   -4.5260   61.3750   76.5740 C   0  0  0  0  0  0  0  0  0  0  0  0
   -5.8620   62.0800   76.9370 C   0  0  2  0  0  0  0  0  0  0  0  0
   -6.3340   61.5570   78.1970 O   0  0  0  0  0  0  0  0  0  0  0  0
   -7.2410   60.4670   78.1890 C   0  0  2  0  0  0  0  0  0  0  0  0
   -6.5330   59.1360   77.8780 C   0  0  0  0  0  0  0  0  0  0  0  0
   -7.1590   57.8770   78.5000 C   0  0  2  0  0  0  0  0  0  0  0  0
   -6.7010   56.5900   77.8020 C   0  0  0  0  0  0  0  0  0  0  0  0
   -5.2210   56.3750   77.8460 C   0  0  2  0  0  0  0  0  0  0  0  0
   -4.6660   55.0080   78.1730 C   0  0  1  0  0  0  0  0  0  0  0  0
   -3.4360   54.5610   77.5110 C   0  0  0  0  0  0  0  0  0  0  0  0
   -2.6870   53.5250   77.9200 C   0  0  0  0  0  0  0  0  0  0  0  0
   -1.5140   52.9920   77.2020 C   0  0  0  0  0  0  0  0  0  0  0  0
   -1.0580   51.8870   77.4540 O   0  0  0  0  0  0  0  0  0  0  0  0
   -1.0700   53.8440   76.2470 O   0  0  0  0  0  0  0  0  0  0  0  0
   -4.6830   56.0740   79.1360 O   0  0  0  0  0  0  0  0  0  0  0  0
   -8.4580   60.7210   77.2970 C   0  0  0  0  0  0  0  0  0  0  0  0
   -8.3470   62.0020   76.4800 C   0  0  1  0  0  0  0  0  0  0  0  0
   -6.9640   62.1110   75.8600 C   0  0  1  0  0  0  0  0  0  0  0  0
   -6.8760   63.4270   75.0900 C   0  0  0  0  0  0  0  0  0  0  0  0
   -7.5810   63.6110   74.0470 O   0  0  0  0  0  0  0  0  0  0  0  0
   -6.2360   64.3500   75.6770 O   0  0  0  0  0  1  0  0  0  0  0  0
   -8.5840   57.9150   78.4310 O   0  0  0  0  0  0  0  0  0  0  0  0
   -7.7110   60.4030   79.5360 O   0  0  0  0  0  0  0  0  0  0  0  0
   -9.3350   61.9270   75.4490 O   0  0  0  0  0  0  0  0  0  0  0  0
   -3.0060   63.1990   75.8120 O   0  0  0  0  0  0  0  0  0  0  0  0
   -1.7310   62.9890   76.4290 C   0  0  2  0  0  0  0  0  0  0  0  0
   -1.6370   63.5120   77.7670 O   0  0  0  0  0  0  0  0  0  0  0  0
   -0.3440   63.2360   78.3560 C   0  0  2  0  0  0  0  0  0  0  0  0
   -0.3260   63.8670   79.7440 C   0  0  0  0  0  0  0  0  0  0  0  0
    0.8600   63.7460   77.4980 C   0  0  2  0  0  0  0  0  0  0  0  0
    0.6410   63.3050   76.0460 C   0  0  1  0  0  0  0  0  0  0  0  0
   -0.7240   63.7810   75.6070 C   0  0  2  0  0  0  0  0  0  0  0  0
    1.6460   63.8520   75.0980 N   0  0  0  0  0  4  0  0  0  0  0  0
   -0.8410   65.2110   75.7990 O   0  0  0  0  0  0  0  0  0  0  0  0
    2.1240   63.2510   77.9600 O   0  0  0  0  0  0  0  0  0  0  0  0
    1.1876   53.3286   77.1103 H   0  0  0  0  0  0  0  0  0  0  0  0
    1.8753   52.4384   75.7098 H   0  0  0  0  0  0  0  0  0  0  0  0
    1.8544   54.2346   75.7098 H   0  0  0  0  0  0  0  0  0  0  0  0
   -0.2483   52.2554   75.1152 H   0  0  0  0  0  0  0  0  0  0  0  0
    0.0567   53.4154   73.2050 H   0  0  0  0  0  0  0  0  0  0  0  0
   -1.1533   54.5548   74.0171 H   0  0  0  0  0  0  0  0  0  0  0  0
    1.8546   55.0416   73.6737 H   0  0  0  0  0  0  0  0  0  0  0  0
   -0.5637   56.8392   74.2728 H   0  0  0  0  0  0  0  0  0  0  0  0
    2.4611   57.2818   73.5434 H   0  0  0  0  0  0  0  0  0  0  0  0
    2.1768   59.5443   73.6978 H   0  0  0  0  0  0  0  0  0  0  0  0
    0.2157   60.4587   75.0595 H   0  0  0  0  0  0  0  0  0  0  0  0
   -1.2633   58.7607   72.9922 H   0  0  0  0  0  0  0  0  0  0  0  0
   -2.9287   60.6644   73.1665 H   0  0  0  0  0  0  0  0  0  0  0  0
   -1.8238   60.7754   76.0207 H   0  0  0  0  0  0  0  0  0  0  0  0
   -4.3165   62.1058   74.5894 H   0  0  0  0  0  0  0  0  0  0  0  0
   -4.7760   60.3435   76.2851 H   0  0  0  0  0  0  0  0  0  0  0  0
   -3.9112   61.5027   77.4772 H   0  0  0  0  0  0  0  0  0  0  0  0
   -5.6174   63.1495   77.0171 H   0  0  0  0  0  0  0  0  0  0  0  0
   -6.5282   59.0048   76.7859 H   0  0  0  0  0  0  0  0  0  0  0  0
   -5.5321   59.2213   78.3262 H   0  0  0  0  0  0  0  0  0  0  0  0
   -6.8214   57.8694   79.5469 H   0  0  0  0  0  0  0  0  0  0  0  0
   -7.1906   55.7359   78.2927 H   0  0  0  0  0  0  0  0  0  0  0  0
   -6.9807   56.6825   76.7422 H   0  0  0  0  0  0  0  0  0  0  0  0
   -5.0384   57.0970   77.0364 H   0  0  0  0  0  0  0  0  0  0  0  0
   -5.0224   53.9673   78.1710 H   0  0  0  0  0  0  0  0  0  0  0  0
   -3.1048   55.1123   76.6186 H   0  0  0  0  0  0  0  0  0  0  0  0
   -2.9698   53.0356   78.8637 H   0  0  0  0  0  0  0  0  0  0  0  0
   -8.5669   59.8732   76.6046 H   0  0  0  0  0  0  0  0  0  0  0  0
   -9.3305   60.8297   77.9580 H   0  0  0  0  0  0  0  0  0  0  0  0
   -8.5043   62.8849   77.1170 H   0  0  0  0  0  0  0  0  0  0  0  0
   -6.8108   61.2533   75.1885 H   0  0  0  0  0  0  0  0  0  0  0  0
   -8.9586   57.9250   79.3473 H   0  0  0  0  0  0  0  0  0  0  0  0
   -6.9473   60.5070   80.1573 H   0  0  0  0  0  0  0  0  0  0  0  0
  -10.2341   61.8588   75.8578 H   0  0  0  0  0  0  0  0  0  0  0  0
   -1.5587   61.9035   76.4727 H   0  0  0  0  0  0  0  0  0  0  0  0
   -0.2131   62.1451   78.4091 H   0  0  0  0  0  0  0  0  0  0  0  0
   -0.3486   63.0751   80.5071 H   0  0  0  0  0  0  0  0  0  0  0  0
    0.5896   64.4650   79.8631 H   0  0  0  0  0  0  0  0  0  0  0  0
   -1.2060   64.5162   79.8631 H   0  0  0  0  0  0  0  0  0  0  0  0
    0.8957   64.8420   77.5851 H   0  0  0  0  0  0  0  0  0  0  0  0
    0.7361   62.2093   76.0252 H   0  0  0  0  0  0  0  0  0  0  0  0
   -0.9033   63.6113   74.5351 H   0  0  0  0  0  0  0  0  0  0  0  0
    2.4224   64.2746   75.6267 H   0  0  0  0  0  0  0  0  0  0  0  0
    2.0082   63.0916   74.5051 H   0  0  0  0  0  0  0  0  0  0  0  0
    1.2041   64.5690   74.5051 H   0  0  0  0  0  0  0  0  0  0  0  0
   -0.8576   65.4136   76.7679 H   0  0  0  0  0  0  0  0  0  0  0  0
    2.1349   63.2467   78.9499 H   0  0  0  0  0  0  0  0  0  0  0  0
  2  1  1  0
  3  2  1  0
  4  3  1  0
  5  4  2  0
  6  5  1  0
  7  6  2  0
  8  7  1  0
  9  8  2  0
 10  9  1  0
 11 10  2  0
 12 11  1  0
 13 12  1  0
 14 13  1  0
 15 14  1  0
 16 15  1  0
 17 16  1  0
 18 17  1  0
 19 18  1  0
 20 19  1  0
 21 20  1  0
 22 21  1  0
 23 22  2  0
 24 23  1  0
 25 24  2  0
 26 24  1  0
 26  2  1  0
 27 21  1  0
 27 20  1  0
 28 16  1  0
 29 28  1  0
 30 29  1  0
 30 14  1  0
 31 30  1  0
 32 31  2  0
 33 31  1  0
 34 18  1  0
 16 35  1  1
 36 29  1  0
 37 12  1  0
 38 37  1  0
 39 38  1  0
 40 39  1  0
 41 40  1  0
 42 40  1  0
 43 42  1  0
 44 43  1  0
 44 38  1  0
 45 43  1  0
 46 44  1  0
 47 42  1  0
  1 48  1  0
  1 49  1  0
  1 50  1  0
  2 51  1  6
  3 52  1  0
  3 53  1  0
  4 54  1  0
  5 55  1  0
  6 56  1  0
  7 57  1  0
  8 58  1  0
  9 59  1  0
 10 60  1  0
 11 61  1  0
 12 62  1  6
 13 63  1  0
 13 64  1  0
 14 65  1  1
 17 66  1  0
 17 67  1  0
 18 68  1  1
 19 69  1  0
 19 70  1  0
 20 71  1  6
 21 72  1  1
 22 73  1  0
 23 74  1  0
 28 75  1  0
 28 76  1  0
 29 77  1  1
 30 78  1  6
 34 79  1  0
 35 80  1  0
 36 81  1  0
 38 82  1  1
 40 83  1  1
 41 84  1  0
 41 85  1  0
 41 86  1  0
 42 87  1  6
 43 88  1  1
 44 89  1  6
 45 90  1  0
 45 91  1  0
 45 92  1  0
 46 93  1  0
 47 94  1  0
M  CHG  2  33  -1  45   1
M  END
>  <score>  (2) 
-7.384

$$$$
=
     RDKit          3D

 94 97  0  0  0  0  0  0  0  0999 V2000
    3.9930   62.6980   70.6880 C   0  0  0  0  0  0  0  0  0  0  0  0
    2.8070   61.8180   70.2980 C   0  0  2  0  0  0  0  0  0  0  0  0
    1.4310   62.5140   70.4090 C   0  0  0  0  0  0  0  0  0  0  0  0
    1.3180   63.6120   71.4340 C   0  0  0  0  0  0  0  0  0  0  0  0
    0.7070   63.5060   72.6250 C   0  0  0  0  0  0  0  0  0  0  0  0
    0.6090   64.6380   73.5210 C   0  0  0  0  0  0  0  0  0  0  0  0
    0.0490   64.6890   74.7390 C   0  0  0  0  0  0  0  0  0  0  0  0
   -0.5890   63.6490   75.5120 C   0  0  0  0  0  0  0  0  0  0  0  0
   -1.5660   62.8360   75.0830 C   0  0  0  0  0  0  0  0  0  0  0  0
   -2.2750   61.8930   75.9230 C   0  0  0  0  0  0  0  0  0  0  0  0
   -1.7350   61.2140   76.9490 C   0  0  0  0  0  0  0  0  0  0  0  0
   -2.5000   60.2700   77.8440 C   0  0  1  0  0  0  0  0  0  0  0  0
   -1.8430   58.8730   77.7860 C   0  0  0  0  0  0  0  0  0  0  0  0
   -2.5280   57.6780   78.5040 C   0  0  2  0  0  0  0  0  0  0  0  0
   -1.5900   56.5840   78.5810 O   0  0  0  0  0  0  0  0  0  0  0  0
   -1.5960   55.6030   77.5570 C   0  0  2  0  0  0  0  0  0  0  0  0
   -0.9260   56.1160   76.2690 C   0  0  0  0  0  0  0  0  0  0  0  0
   -0.2430   55.0520   75.3930 C   0  0  2  0  0  0  0  0  0  0  0  0
   -0.0100   55.5380   73.9580 C   0  0  0  0  0  0  0  0  0  0  0  0
    0.8530   56.7570   73.8660 C   0  0  2  0  0  0  0  0  0  0  0  0
    1.9470   56.8320   72.8270 C   0  0  1  0  0  0  0  0  0  0  0  0
    2.2450   58.1230   72.1970 C   0  0  0  0  0  0  0  0  0  0  0  0
    3.3610   58.3890   71.5000 C   0  0  0  0  0  0  0  0  0  0  0  0
    3.6220   59.6410   70.7660 C   0  0  0  0  0  0  0  0  0  0  0  0
    4.5010   59.7140   69.9200 O   0  0  0  0  0  0  0  0  0  0  0  0
    2.7640   60.6290   71.1190 O   0  0  0  0  0  0  0  0  0  0  0  0
    2.2270   56.5630   74.2100 O   0  0  0  0  0  0  0  0  0  0  0  0
   -2.9890   55.0150   77.3130 C   0  0  0  0  0  0  0  0  0  0  0  0
   -4.0850   55.7300   78.0930 C   0  0  1  0  0  0  0  0  0  0  0  0
   -3.9110   57.2350   77.9860 C   0  0  1  0  0  0  0  0  0  0  0  0
   -4.9980   57.9140   78.8160 C   0  0  0  0  0  0  0  0  0  0  0  0
   -6.1590   58.0970   78.3290 O   0  0  0  0  0  0  0  0  0  0  0  0
   -4.7180   58.0710   80.0410 O   0  0  0  0  0  1  0  0  0  0  0  0
   -1.0240   53.8600   75.3180 O   0  0  0  0  0  0  0  0  0  0  0  0
   -0.7810   54.5540   78.0810 O   0  0  0  0  0  0  0  0  0  0  0  0
   -5.3320   55.3450   77.5060 O   0  0  0  0  0  0  0  0  0  0  0  0
   -2.4200   60.8780   79.1510 O   0  0  0  0  0  0  0  0  0  0  0  0
   -3.6730   61.4360   79.5620 C   0  0  2  0  0  0  0  0  0  0  0  0
   -4.7310   61.2660   78.6010 O   0  0  0  0  0  0  0  0  0  0  0  0
   -5.9820   61.8110   79.0860 C   0  0  2  0  0  0  0  0  0  0  0  0
   -7.0210   61.6270   77.9860 C   0  0  0  0  0  0  0  0  0  0  0  0
   -5.8880   63.3120   79.5160 C   0  0  2  0  0  0  0  0  0  0  0  0
   -4.6540   63.4850   80.4100 C   0  0  1  0  0  0  0  0  0  0  0  0
   -3.4550   62.9400   79.6700 C   0  0  2  0  0  0  0  0  0  0  0  0
   -4.3700   64.8980   80.7700 N   0  0  0  0  0  4  0  0  0  0  0  0
   -3.3270   63.5840   78.3810 O   0  0  0  0  0  0  0  0  0  0  0  0
   -7.0520   63.7640   80.2210 O   0  0  0  0  0  0  0  0  0  0  0  0
    4.0650   62.7515   71.7843 H   0  0  0  0  0  0  0  0  0  0  0  0
    4.9192   62.2669   70.2803 H   0  0  0  0  0  0  0  0  0  0  0  0
    3.8488   63.7094   70.2803 H   0  0  0  0  0  0  0  0  0  0  0  0
    2.9767   61.5767   69.2383 H   0  0  0  0  0  0  0  0  0  0  0  0
    1.1948   62.9478   69.4261 H   0  0  0  0  0  0  0  0  0  0  0  0
    0.7328   61.7312   70.7403 H   0  0  0  0  0  0  0  0  0  0  0  0
    1.7742   64.5818   71.1861 H   0  0  0  0  0  0  0  0  0  0  0  0
    0.2730   62.5408   72.9251 H   0  0  0  0  0  0  0  0  0  0  0  0
    1.0504   65.5774   73.1566 H   0  0  0  0  0  0  0  0  0  0  0  0
    0.0806   65.6757   75.2242 H   0  0  0  0  0  0  0  0  0  0  0  0
   -0.2422   63.5110   76.5467 H   0  0  0  0  0  0  0  0  0  0  0  0
   -1.8478   62.8892   74.0210 H   0  0  0  0  0  0  0  0  0  0  0  0
   -3.3388   61.7190   75.7039 H   0  0  0  0  0  0  0  0  0  0  0  0
   -0.6629   61.3558   77.1502 H   0  0  0  0  0  0  0  0  0  0  0  0
   -3.5497   60.1187   77.5520 H   0  0  0  0  0  0  0  0  0  0  0  0
   -1.7585   58.6025   76.7231 H   0  0  0  0  0  0  0  0  0  0  0  0
   -0.9028   59.0051   78.3415 H   0  0  0  0  0  0  0  0  0  0  0  0
   -2.7890   58.0494   79.5060 H   0  0  0  0  0  0  0  0  0  0  0  0
   -1.6995   56.6070   75.6601 H   0  0  0  0  0  0  0  0  0  0  0  0
   -0.1205   56.7873   76.6015 H   0  0  0  0  0  0  0  0  0  0  0  0
    0.7247   54.8520   75.8763 H   0  0  0  0  0  0  0  0  0  0  0  0
    0.4725   54.7279   73.3915 H   0  0  0  0  0  0  0  0  0  0  0  0
   -0.9938   55.8102   73.5482 H   0  0  0  0  0  0  0  0  0  0  0  0
    0.0288   57.4266   74.1528 H   0  0  0  0  0  0  0  0  0  0  0  0
    2.2000   56.3332   71.8798 H   0  0  0  0  0  0  0  0  0  0  0  0
    1.5031   58.9282   72.3031 H   0  0  0  0  0  0  0  0  0  0  0  0
    4.1407   57.6134   71.4744 H   0  0  0  0  0  0  0  0  0  0  0  0
   -3.2175   55.0900   76.2396 H   0  0  0  0  0  0  0  0  0  0  0  0
   -2.9690   53.9707   77.6581 H   0  0  0  0  0  0  0  0  0  0  0  0
   -4.0448   55.4590   79.1583 H   0  0  0  0  0  0  0  0  0  0  0  0
   -3.9896   57.5235   76.9274 H   0  0  0  0  0  0  0  0  0  0  0  0
   -1.2315   53.5433   76.2327 H   0  0  0  0  0  0  0  0  0  0  0  0
   -0.8028   54.5821   79.0704 H   0  0  0  0  0  0  0  0  0  0  0  0
   -5.9854   55.1433   78.2219 H   0  0  0  0  0  0  0  0  0  0  0  0
   -3.9711   60.9312   80.4927 H   0  0  0  0  0  0  0  0  0  0  0  0
   -6.2655   61.2697   80.0007 H   0  0  0  0  0  0  0  0  0  0  0  0
   -8.0079   61.4522   78.4393 H   0  0  0  0  0  0  0  0  0  0  0  0
   -7.0591   62.5324   77.3624 H   0  0  0  0  0  0  0  0  0  0  0  0
   -6.7458   60.7636   77.3624 H   0  0  0  0  0  0  0  0  0  0  0  0
   -5.8112   63.9195   78.6022 H   0  0  0  0  0  0  0  0  0  0  0  0
   -4.8573   62.9460   81.3471 H   0  0  0  0  0  0  0  0  0  0  0  0
   -2.5102   63.1419   80.1959 H   0  0  0  0  0  0  0  0  0  0  0  0
   -4.3507   64.9938   81.7953 H   0  0  0  0  0  0  0  0  0  0  0  0
   -3.4567   65.1742   80.3821 H   0  0  0  0  0  0  0  0  0  0  0  0
   -5.1057   65.5056   80.3821 H   0  0  0  0  0  0  0  0  0  0  0  0
   -3.1357   64.5466   78.5106 H   0  0  0  0  0  0  0  0  0  0  0  0
   -6.8921   63.7019   81.1960 H   0  0  0  0  0  0  0  0  0  0  0  0
  2  1  1  0
  3  2  1  0
  4  3  1  0
  5  4  2  0
  6  5  1  0
  7  6  2  0
  8  7  1  0
  9  8  2  0
 10  9  1  0
 11 10  2  0
 12 11  1  0
 13 12  1  0
 14 13  1  0
 15 14  1  0
 16 15  1  0
 17 16  1  0
 18 17  1  0
 19 18  1  0
 20 19  1  0
 21 20  1  0
 22 21  1  0
 23 22  2  0
 24 23  1  0
 25 24  2  0
 26 24  1  0
 26  2  1  0
 27 21  1  0
 27 20  1  0
 28 16  1  0
 29 28  1  0
 30 29  1  0
 30 14  1  0
 31 30  1  0
 32 31  2  0
 33 31  1  0
 34 18  1  0
 16 35  1  1
 36 29  1  0
 37 12  1  0
 38 37  1  0
 39 38  1  0
 40 39  1  0
 41 40  1  0
 42 40  1  0
 43 42  1  0
 44 43  1  0
 44 38  1  0
 45 43  1  0
 46 44  1  0
 47 42  1  0
  1 48  1  0
  1 49  1  0
  1 50  1  0
  2 51  1  6
  3 52  1  0
  3 53  1  0
  4 54  1  0
  5 55  1  0
  6 56  1  0
  7 57  1  0
  8 58  1  0
  9 59  1  0
 10 60  1  0
 11 61  1  0
 12 62  1  6
 13 63  1  0
 13 64  1  0
 14 65  1  1
 17 66  1  0
 17 67  1  0
 18 68  1  1
 19 69  1  0
 19 70  1  0
 20 71  1  1
 21 72  1  6
 22 73  1  0
 23 74  1  0
 28 75  1  0
 28 76  1  0
 29 77  1  1
 30 78  1  6
 34 79  1  0
 35 80  1  0
 36 81  1  0
 38 82  1  1
 40 83  1  1
 41 84  1  0
 41 85  1  0
 41 86  1  0
 42 87  1  6
 43 88  1  1
 44 89  1  1
 45 90  1  0
 45 91  1  0
 45 92  1  0
 46 93  1  0
 47 94  1  0
M  CHG  2  33  -1  45   1
M  END
>  <score>  (3) 
-7.296

$$$$
=
     RDKit          3D

 94 97  0  0  0  0  0  0  0  0999 V2000
    3.7910   58.7420   71.8970 C   0  0  0  0  0  0  0  0  0  0  0  0
    3.8100   59.3080   73.3160 C   0  0  2  0  0  0  0  0  0  0  0  0
    3.4540   58.2850   74.4170 C   0  0  0  0  0  0  0  0  0  0  0  0
    2.5430   57.1560   74.0120 C   0  0  0  0  0  0  0  0  0  0  0  0
    1.2390   57.0590   74.3180 C   0  0  0  0  0  0  0  0  0  0  0  0
    0.4580   55.9070   73.9230 C   0  0  0  0  0  0  0  0  0  0  0  0
   -0.8450   55.6710   74.1360 C   0  0  0  0  0  0  0  0  0  0  0  0
   -1.8410   56.4870   74.7900 C   0  0  0  0  0  0  0  0  0  0  0  0
   -1.7290   57.0430   76.0060 C   0  0  0  0  0  0  0  0  0  0  0  0
   -2.7980   57.7450   76.6870 C   0  0  0  0  0  0  0  0  0  0  0  0
   -3.7330   58.4990   76.0870 C   0  0  0  0  0  0  0  0  0  0  0  0
   -4.8670   59.1870   76.8080 C   0  0  1  0  0  0  0  0  0  0  0  0
   -4.7950   60.7050   76.5340 C   0  0  0  0  0  0  0  0  0  0  0  0
   -5.7650   61.6620   77.2820 C   0  0  2  0  0  0  0  0  0  0  0  0
   -5.7290   62.9530   76.6390 O   0  0  0  0  0  0  0  0  0  0  0  0
   -4.8340   63.9380   77.1280 C   0  0  2  0  0  0  0  0  0  0  0  0
   -3.3840   63.6580   76.6950 C   0  0  0  0  0  0  0  0  0  0  0  0
   -2.4820   64.8920   76.5190 C   0  0  2  0  0  0  0  0  0  0  0  0
   -0.9910   64.5350   76.5400 C   0  0  0  0  0  0  0  0  0  0  0  0
   -0.5860   63.5760   75.4640 C   0  0  2  0  0  0  0  0  0  0  0  0
    0.6790   63.8180   74.6740 C   0  0  1  0  0  0  0  0  0  0  0  0
    1.4830   62.6680   74.2450 C   0  0  0  0  0  0  0  0  0  0  0  0
    2.4400   62.7190   73.3060 C   0  0  0  0  0  0  0  0  0  0  0  0
    3.3320   61.6010   72.9460 C   0  0  0  0  0  0  0  0  0  0  0  0
    4.3610   61.7840   72.3120 O   0  0  0  0  0  0  0  0  0  0  0  0
    2.8900   60.4170   73.4330 O   0  0  0  0  0  0  0  0  0  0  0  0
   -0.6220   64.0970   74.1330 O   0  0  0  0  0  0  0  0  0  0  0  0
   -4.9760   64.1640   78.6350 C   0  0  0  0  0  0  0  0  0  0  0  0
   -5.9130   63.1680   79.3060 C   0  0  1  0  0  0  0  0  0  0  0  0
   -5.6230   61.7600   78.8130 C   0  0  1  0  0  0  0  0  0  0  0  0
   -6.6110   60.7990   79.4710 C   0  0  0  0  0  0  0  0  0  0  0  0
   -6.3780   60.3310   80.6310 O   0  0  0  0  0  0  0  0  0  0  0  0
   -7.7260   60.6890   78.8810 O   0  0  0  0  0  1  0  0  0  0  0  0
   -2.7040   65.8510   77.5520 O   0  0  0  0  0  0  0  0  0  0  0  0
   -5.2560   65.1380   76.4800 O   0  0  0  0  0  0  0  0  0  0  0  0
   -5.6690   63.2480   80.7130 O   0  0  0  0  0  0  0  0  0  0  0  0
   -6.0550   58.5700   76.2670 O   0  0  0  0  0  0  0  0  0  0  0  0
   -6.7530   57.7940   77.2480 C   0  0  2  0  0  0  0  0  0  0  0  0
   -6.2160   56.4720   77.4360 O   0  0  0  0  0  0  0  0  0  0  0  0
   -6.9330   55.7490   78.4650 C   0  0  2  0  0  0  0  0  0  0  0  0
   -6.3250   54.3530   78.5550 C   0  0  0  0  0  0  0  0  0  0  0  0
   -8.4760   55.6690   78.2190 C   0  0  2  0  0  0  0  0  0  0  0  0
   -8.9830   57.0710   77.8630 C   0  0  1  0  0  0  0  0  0  0  0  0
   -8.1620   57.5920   76.7070 C   0  0  2  0  0  0  0  0  0  0  0  0
  -10.4140   57.1050   77.4640 N   0  0  0  0  0  4  0  0  0  0  0  0
   -8.2120   56.6630   75.5990 O   0  0  0  0  0  0  0  0  0  0  0  0
   -9.1970   55.1760   79.3560 O   0  0  0  0  0  0  0  0  0  0  0  0
    3.7541   57.6435   71.9409 H   0  0  0  0  0  0  0  0  0  0  0  0
    2.9050   59.1176   71.3642 H   0  0  0  0  0  0  0  0  0  0  0  0
    4.7002   59.0574   71.3642 H   0  0  0  0  0  0  0  0  0  0  0  0
    4.8518   59.6228   73.4759 H   0  0  0  0  0  0  0  0  0  0  0  0
    4.3937   57.8432   74.7800 H   0  0  0  0  0  0  0  0  0  0  0  0
    2.8957   58.8537   75.1752 H   0  0  0  0  0  0  0  0  0  0  0  0
    2.9826   56.3429   73.4157 H   0  0  0  0  0  0  0  0  0  0  0  0
    0.7552   57.8714   74.8800 H   0  0  0  0  0  0  0  0  0  0  0  0
    1.0035   55.1231   73.3773 H   0  0  0  0  0  0  0  0  0  0  0  0
   -1.2116   54.7070   73.7535 H   0  0  0  0  0  0  0  0  0  0  0  0
   -2.7767   56.6693   74.2412 H   0  0  0  0  0  0  0  0  0  0  0  0
   -0.7603   56.9603   76.5206 H   0  0  0  0  0  0  0  0  0  0  0  0
   -2.8475   57.6530   77.7820 H   0  0  0  0  0  0  0  0  0  0  0  0
   -3.6684   58.6239   74.9960 H   0  0  0  0  0  0  0  0  0  0  0  0
   -4.8404   59.0807   77.9025 H   0  0  0  0  0  0  0  0  0  0  0  0
   -3.7728   61.0272   76.7814 H   0  0  0  0  0  0  0  0  0  0  0  0
   -5.1030   60.7937   75.4817 H   0  0  0  0  0  0  0  0  0  0  0  0
   -6.7601   61.2018   77.1923 H   0  0  0  0  0  0  0  0  0  0  0  0
   -2.9243   63.0111   77.4567 H   0  0  0  0  0  0  0  0  0  0  0  0
   -3.4558   63.1988   75.6980 H   0  0  0  0  0  0  0  0  0  0  0  0
   -2.7478   65.3101   75.5369 H   0  0  0  0  0  0  0  0  0  0  0  0
   -0.4105   65.4611   76.4161 H   0  0  0  0  0  0  0  0  0  0  0  0
   -0.7926   64.0405   77.5023 H   0  0  0  0  0  0  0  0  0  0  0  0
   -0.9884   62.7102   76.0103 H   0  0  0  0  0  0  0  0  0  0  0  0
    1.6059   64.3994   74.7874 H   0  0  0  0  0  0  0  0  0  0  0  0
    1.2879   61.6981   74.7259 H   0  0  0  0  0  0  0  0  0  0  0  0
    2.5692   63.6670   72.7632 H   0  0  0  0  0  0  0  0  0  0  0  0
   -3.9818   64.0745   79.0971 H   0  0  0  0  0  0  0  0  0  0  0  0
   -5.4087   65.1655   78.7758 H   0  0  0  0  0  0  0  0  0  0  0  0
   -6.9621   63.4008   79.0709 H   0  0  0  0  0  0  0  0  0  0  0  0
   -4.5877   61.4999   79.0785 H   0  0  0  0  0  0  0  0  0  0  0  0
   -2.6029   65.4145   78.4348 H   0  0  0  0  0  0  0  0  0  0  0  0
   -5.4941   65.8151   77.1619 H   0  0  0  0  0  0  0  0  0  0  0  0
   -6.4852   62.9804   81.2052 H   0  0  0  0  0  0  0  0  0  0  0  0
   -6.6847   58.3305   78.2059 H   0  0  0  0  0  0  0  0  0  0  0  0
   -6.8248   56.2962   79.4131 H   0  0  0  0  0  0  0  0  0  0  0  0
   -6.2033   54.0735   79.6119 H   0  0  0  0  0  0  0  0  0  0  0  0
   -6.9901   53.6307   78.0590 H   0  0  0  0  0  0  0  0  0  0  0  0
   -5.3432   54.3480   78.0590 H   0  0  0  0  0  0  0  0  0  0  0  0
   -8.6505   54.9579   77.3981 H   0  0  0  0  0  0  0  0  0  0  0  0
   -8.8828   57.6884   78.7679 H   0  0  0  0  0  0  0  0  0  0  0  0
   -8.5486   58.5431   76.3121 H   0  0  0  0  0  0  0  0  0  0  0  0
  -11.0053   57.1190   78.3072 H   0  0  0  0  0  0  0  0  0  0  0  0
  -10.5943   57.9505   76.9041 H   0  0  0  0  0  0  0  0  0  0  0  0
  -10.6343   56.2690   76.9041 H   0  0  0  0  0  0  0  0  0  0  0  0
   -8.2618   55.7373   75.9465 H   0  0  0  0  0  0  0  0  0  0  0  0
   -8.7519   55.4803   80.1863 H   0  0  0  0  0  0  0  0  0  0  0  0
  2  1  1  0
  3  2  1  0
  4  3  1  0
  5  4  2  0
  6  5  1  0
  7  6  2  0
  8  7  1  0
  9  8  2  0
 10  9  1  0
 11 10  2  0
 12 11  1  0
 13 12  1  0
 14 13  1  0
 15 14  1  0
 16 15  1  0
 17 16  1  0
 18 17  1  0
 19 18  1  0
 20 19  1  0
 21 20  1  0
 22 21  1  0
 23 22  2  0
 24 23  1  0
 25 24  2  0
 26 24  1  0
 26  2  1  0
 27 21  1  0
 27 20  1  0
 28 16  1  0
 29 28  1  0
 30 29  1  0
 30 14  1  0
 31 30  1  0
 32 31  2  0
 33 31  1  0
 34 18  1  0
 16 35  1  6
 36 29  1  0
 37 12  1  0
 38 37  1  0
 39 38  1  0
 40 39  1  0
 41 40  1  0
 42 40  1  0
 43 42  1  0
 44 43  1  0
 44 38  1  0
 45 43  1  0
 46 44  1  0
 47 42  1  0
  1 48  1  0
  1 49  1  0
  1 50  1  0
  2 51  1  1
  3 52  1  0
  3 53  1  0
  4 54  1  0
  5 55  1  0
  6 56  1  0
  7 57  1  0
  8 58  1  0
  9 59  1  0
 10 60  1  0
 11 61  1  0
 12 62  1  1
 13 63  1  0
 13 64  1  0
 14 65  1  1
 17 66  1  0
 17 67  1  0
 18 68  1  6
 19 69  1  0
 19 70  1  0
 20 71  1  6
 21 72  1  1
 22 73  1  0
 23 74  1  0
 28 75  1  0
 28 76  1  0
 29 77  1  1
 30 78  1  6
 34 79  1  0
 35 80  1  0
 36 81  1  0
 38 82  1  1
 40 83  1  1
 41 84  1  0
 41 85  1  0
 41 86  1  0
 42 87  1  6
 43 88  1  1
 44 89  1  6
 45 90  1  0
 45 91  1  0
 45 92  1  0
 46 93  1  0
 47 94  1  0
M  CHG  2  33  -1  45   1
M  END
>  <score>  (4) 
-7.279

$$$$
=
     RDKit          3D

 94 97  0  0  0  0  0  0  0  0999 V2000
    3.6560   59.1410   70.1400 C   0  0  0  0  0  0  0  0  0  0  0  0
    3.9460   59.8550   71.4600 C   0  0  2  0  0  0  0  0  0  0  0  0
    3.8910   58.9420   72.7050 C   0  0  0  0  0  0  0  0  0  0  0  0
    2.9780   57.7470   72.6190 C   0  0  0  0  0  0  0  0  0  0  0  0
    1.7770   57.6400   73.2090 C   0  0  0  0  0  0  0  0  0  0  0  0
    0.9950   56.4270   73.1060 C   0  0  0  0  0  0  0  0  0  0  0  0
   -0.2180   56.1710   73.6200 C   0  0  0  0  0  0  0  0  0  0  0  0
   -1.0950   57.0180   74.3940 C   0  0  0  0  0  0  0  0  0  0  0  0
   -0.7570   57.7030   75.4970 C   0  0  0  0  0  0  0  0  0  0  0  0
   -1.6930   58.4370   76.3240 C   0  0  0  0  0  0  0  0  0  0  0  0
   -2.7750   59.0920   75.8730 C   0  0  0  0  0  0  0  0  0  0  0  0
   -3.7660   59.8130   76.7540 C   0  0  1  0  0  0  0  0  0  0  0  0
   -3.8380   61.2960   76.3260 C   0  0  0  0  0  0  0  0  0  0  0  0
   -4.6770   62.2930   77.1720 C   0  0  2  0  0  0  0  0  0  0  0  0
   -4.8520   63.5100   76.4160 O   0  0  0  0  0  0  0  0  0  0  0  0
   -3.9290   64.5700   76.6020 C   0  0  2  0  0  0  0  0  0  0  0  0
   -2.5910   64.2950   75.8920 C   0  0  0  0  0  0  0  0  0  0  0  0
   -1.8180   65.5330   75.4060 C   0  0  2  0  0  0  0  0  0  0  0  0
   -0.3390   65.2290   75.1360 C   0  0  0  0  0  0  0  0  0  0  0  0
   -0.1200   64.1770   74.0950 C   0  0  2  0  0  0  0  0  0  0  0  0
    0.9320   64.3760   73.0280 C   0  0  1  0  0  0  0  0  0  0  0  0
    1.6880   63.2150   72.5470 C   0  0  0  0  0  0  0  0  0  0  0  0
    2.4180   63.1970   71.4210 C   0  0  0  0  0  0  0  0  0  0  0  0
    3.2740   62.0790   70.9850 C   0  0  0  0  0  0  0  0  0  0  0  0
    4.1320   62.2270   70.1270 O   0  0  0  0  0  0  0  0  0  0  0  0
    3.0120   60.9380   71.6680 O   0  0  0  0  0  0  0  0  0  0  0  0
   -0.4680   64.5530   72.7600 O   0  0  0  0  0  0  0  0  0  0  0  0
   -3.7580   64.9500   78.0750 C   0  0  0  0  0  0  0  0  0  0  0  0
   -4.4740   63.9990   79.0260 C   0  0  1  0  0  0  0  0  0  0  0  0
   -4.2180   62.5580   78.6200 C   0  0  1  0  0  0  0  0  0  0  0  0
   -4.9880   61.6390   79.5660 C   0  0  0  0  0  0  0  0  0  0  0  0
   -4.4210   61.1570   80.5980 O   0  0  0  0  0  0  0  0  0  0  0  0
   -6.2360   61.5800   79.3590 O   0  0  0  0  0  1  0  0  0  0  0  0
   -1.8670   66.5870   76.3660 O   0  0  0  0  0  0  0  0  0  0  0  0
   -4.5460   65.6800   75.9490 O   0  0  0  0  0  0  0  0  0  0  0  0
   -3.9400   64.2350   80.3320 O   0  0  0  0  0  0  0  0  0  0  0  0
   -5.0050   59.1030   76.5470 O   0  0  0  0  0  0  0  0  0  0  0  0
   -6.0570   59.9720   76.1110 C   0  0  2  0  0  0  0  0  0  0  0  0
   -7.2770   59.8330   76.8620 O   0  0  0  0  0  0  0  0  0  0  0  0
   -8.2900   60.7620   76.4060 C   0  0  2  0  0  0  0  0  0  0  0  0
   -9.5500   60.5060   77.2240 C   0  0  0  0  0  0  0  0  0  0  0  0
   -8.5920   60.6610   74.8740 C   0  0  2  0  0  0  0  0  0  0  0  0
   -7.2590   60.6480   74.1170 C   0  0  1  0  0  0  0  0  0  0  0  0
   -6.4000   59.5460   74.6890 C   0  0  2  0  0  0  0  0  0  0  0  0
   -7.4030   60.4100   72.6570 N   0  0  0  0  0  4  0  0  0  0  0  0
   -7.1050   58.2820   74.6350 O   0  0  0  0  0  0  0  0  0  0  0  0
   -9.4020   61.7410   74.3930 O   0  0  0  0  0  0  0  0  0  0  0  0
    3.2494   58.1399   70.3462 H   0  0  0  0  0  0  0  0  0  0  0  0
    2.9228   59.7226   69.5619 H   0  0  0  0  0  0  0  0  0  0  0  0
    4.5871   59.0466   69.5619 H   0  0  0  0  0  0  0  0  0  0  0  0
    4.9784   60.2207   71.3579 H   0  0  0  0  0  0  0  0  0  0  0  0
    4.9095   58.5721   72.8941 H   0  0  0  0  0  0  0  0  0  0  0  0
    3.4775   59.5686   73.5090 H   0  0  0  0  0  0  0  0  0  0  0  0
    3.3245   56.8901   72.0227 H   0  0  0  0  0  0  0  0  0  0  0  0
    1.3797   58.4909   73.7818 H   0  0  0  0  0  0  0  0  0  0  0  0
    1.4542   55.6086   72.5320 H   0  0  0  0  0  0  0  0  0  0  0  0
   -0.6037   55.1602   73.4211 H   0  0  0  0  0  0  0  0  0  0  0  0
   -2.1350   57.1099   74.0476 H   0  0  0  0  0  0  0  0  0  0  0  0
    0.3023   57.7076   75.7934 H   0  0  0  0  0  0  0  0  0  0  0  0
   -1.5023   58.4595   77.4071 H   0  0  0  0  0  0  0  0  0  0  0  0
   -2.9511   59.1039   74.7873 H   0  0  0  0  0  0  0  0  0  0  0  0
   -3.5016   59.8236   77.8217 H   0  0  0  0  0  0  0  0  0  0  0  0
   -2.8059   61.6763   76.3126 H   0  0  0  0  0  0  0  0  0  0  0  0
   -4.3676   61.2630   75.3624 H   0  0  0  0  0  0  0  0  0  0  0  0
   -5.6403   61.7911   77.3458 H   0  0  0  0  0  0  0  0  0  0  0  0
   -1.9439   63.7484   76.5937 H   0  0  0  0  0  0  0  0  0  0  0  0
   -2.8481   63.7307   74.9835 H   0  0  0  0  0  0  0  0  0  0  0  0
   -2.3100   65.8370   74.4703 H   0  0  0  0  0  0  0  0  0  0  0  0
    0.1502   66.1556   74.8012 H   0  0  0  0  0  0  0  0  0  0  0  0
    0.0861   64.8446   76.0749 H   0  0  0  0  0  0  0  0  0  0  0  0
   -0.3477   63.3609   74.7966 H   0  0  0  0  0  0  0  0  0  0  0  0
    1.8280   64.9966   72.8796 H   0  0  0  0  0  0  0  0  0  0  0  0
    1.6544   62.2960   73.1505 H   0  0  0  0  0  0  0  0  0  0  0  0
    2.3742   64.0851   70.7735 H   0  0  0  0  0  0  0  0  0  0  0  0
   -2.6847   64.9431   78.3157 H   0  0  0  0  0  0  0  0  0  0  0  0
   -4.2048   65.9461   78.2102 H   0  0  0  0  0  0  0  0  0  0  0  0
   -5.5603   64.1704   79.0030 H   0  0  0  0  0  0  0  0  0  0  0  0
   -3.1370   62.3629   78.6783 H   0  0  0  0  0  0  0  0  0  0  0  0
   -1.8492   66.2034   77.2785 H   0  0  0  0  0  0  0  0  0  0  0  0
   -4.8959   66.3096   76.6282 H   0  0  0  0  0  0  0  0  0  0  0  0
   -4.5962   63.9450   81.0142 H   0  0  0  0  0  0  0  0  0  0  0  0
   -5.7008   61.0066   76.2239 H   0  0  0  0  0  0  0  0  0  0  0  0
   -7.9150   61.7853   76.5552 H   0  0  0  0  0  0  0  0  0  0  0  0
   -9.3076   60.5552   78.2958 H   0  0  0  0  0  0  0  0  0  0  0  0
  -10.3048   61.2691   76.9833 H   0  0  0  0  0  0  0  0  0  0  0  0
   -9.9471   59.5088   76.9833 H   0  0  0  0  0  0  0  0  0  0  0  0
   -9.1607   59.7351   74.7029 H   0  0  0  0  0  0  0  0  0  0  0  0
   -6.8098   61.6444   74.2410 H   0  0  0  0  0  0  0  0  0  0  0  0
   -5.4752   59.3937   74.1132 H   0  0  0  0  0  0  0  0  0  0  0  0
   -7.9301   59.5389   72.5015 H   0  0  0  0  0  0  0  0  0  0  0  0
   -7.9089   61.1985   72.2289 H   0  0  0  0  0  0  0  0  0  0  0  0
   -6.4698   60.3278   72.2289 H   0  0  0  0  0  0  0  0  0  0  0  0
   -7.2826   57.9636   75.5554 H   0  0  0  0  0  0  0  0  0  0  0  0
   -9.7765   62.2403   75.1615 H   0  0  0  0  0  0  0  0  0  0  0  0
  2  1  1  0
  3  2  1  0
  4  3  1  0
  5  4  2  0
  6  5  1  0
  7  6  2  0
  8  7  1  0
  9  8  2  0
 10  9  1  0
 11 10  2  0
 12 11  1  0
 13 12  1  0
 14 13  1  0
 15 14  1  0
 16 15  1  0
 17 16  1  0
 18 17  1  0
 19 18  1  0
 20 19  1  0
 21 20  1  0
 22 21  1  0
 23 22  2  0
 24 23  1  0
 25 24  2  0
 26 24  1  0
 26  2  1  0
 27 21  1  0
 27 20  1  0
 28 16  1  0
 29 28  1  0
 30 29  1  0
 30 14  1  0
 31 30  1  0
 32 31  2  0
 33 31  1  0
 34 18  1  0
 16 35  1  6
 36 29  1  0
 37 12  1  0
 38 37  1  0
 39 38  1  0
 40 39  1  0
 41 40  1  0
 42 40  1  0
 43 42  1  0
 44 43  1  0
 44 38  1  0
 45 43  1  0
 46 44  1  0
 47 42  1  0
  1 48  1  0
  1 49  1  0
  1 50  1  0
  2 51  1  6
  3 52  1  0
  3 53  1  0
  4 54  1  0
  5 55  1  0
  6 56  1  0
  7 57  1  0
  8 58  1  0
  9 59  1  0
 10 60  1  0
 11 61  1  0
 12 62  1  1
 13 63  1  0
 13 64  1  0
 14 65  1  1
 17 66  1  0
 17 67  1  0
 18 68  1  6
 19 69  1  0
 19 70  1  0
 20 71  1  1
 21 72  1  1
 22 73  1  0
 23 74  1  0
 28 75  1  0
 28 76  1  0
 29 77  1  1
 30 78  1  6
 34 79  1  0
 35 80  1  0
 36 81  1  0
 38 82  1  6
 40 83  1  6
 41 84  1  0
 41 85  1  0
 41 86  1  0
 42 87  1  1
 43 88  1  6
 44 89  1  6
 45 90  1  0
 45 91  1  0
 45 92  1  0
 46 93  1  0
 47 94  1  0
M  CHG  2  33  -1  45   1
M  END
>  <score>  (5) 
-7.207

$$$$
=
     RDKit          3D

 94 97  0  0  0  0  0  0  0  0999 V2000
    2.7750   56.0930   75.3360 C   0  0  0  0  0  0  0  0  0  0  0  0
    1.4660   55.5030   74.8140 C   0  0  2  0  0  0  0  0  0  0  0  0
    0.9040   56.2070   73.5580 C   0  0  0  0  0  0  0  0  0  0  0  0
    1.2550   57.6630   73.3950 C   0  0  0  0  0  0  0  0  0  0  0  0
    0.4280   58.6950   73.6270 C   0  0  0  0  0  0  0  0  0  0  0  0
    0.8450   60.0600   73.3920 C   0  0  0  0  0  0  0  0  0  0  0  0
    0.1480   61.1900   73.5890 C   0  0  0  0  0  0  0  0  0  0  0  0
   -1.1890   61.3780   74.1020 C   0  0  0  0  0  0  0  0  0  0  0  0
   -2.2950   60.7550   73.6650 C   0  0  0  0  0  0  0  0  0  0  0  0
   -3.6380   61.0640   74.1120 C   0  0  0  0  0  0  0  0  0  0  0  0
   -3.9700   61.4510   75.3540 C   0  0  0  0  0  0  0  0  0  0  0  0
   -5.3690   61.8140   75.7900 C   0  0  1  0  0  0  0  0  0  0  0  0
   -5.7870   60.9000   76.9630 C   0  0  0  0  0  0  0  0  0  0  0  0
   -7.2430   60.9690   77.5010 C   0  0  2  0  0  0  0  0  0  0  0  0
   -7.3010   60.2800   78.7690 O   0  0  0  0  0  0  0  0  0  0  0  0
   -7.6610   58.9090   78.7880 C   0  0  2  0  0  0  0  0  0  0  0  0
   -6.5020   58.0070   78.3260 C   0  0  0  0  0  0  0  0  0  0  0  0
   -6.4640   56.5940   78.9320 C   0  0  2  0  0  0  0  0  0  0  0  0
   -5.5940   55.6300   78.1150 C   0  0  0  0  0  0  0  0  0  0  0  0
   -4.1660   56.0620   77.9960 C   0  0  2  0  0  0  0  0  0  0  0  0
   -3.0540   55.0550   78.1830 C   0  0  1  0  0  0  0  0  0  0  0  0
   -1.8370   55.1790   77.3740 C   0  0  0  0  0  0  0  0  0  0  0  0
   -0.6800   54.5540   77.6430 C   0  0  0  0  0  0  0  0  0  0  0  0
    0.5150   54.5770   76.7780 C   0  0  0  0  0  0  0  0  0  0  0  0
    1.4180   53.7650   76.9160 O   0  0  0  0  0  0  0  0  0  0  0  0
    0.4450   55.5480   75.8360 O   0  0  0  0  0  0  0  0  0  0  0  0
   -3.4040   56.0030   79.2050 O   0  0  0  0  0  0  0  0  0  0  0  0
   -8.9680   58.6330   78.0400 C   0  0  0  0  0  0  0  0  0  0  0  0
   -9.5000   59.8510   77.2950 C   0  0  1  0  0  0  0  0  0  0  0  0
   -8.3740   60.5420   76.5450 C   0  0  1  0  0  0  0  0  0  0  0  0
   -8.9370   61.7800   75.8510 C   0  0  0  0  0  0  0  0  0  0  0  0
   -9.1590   61.7710   74.5980 O   0  0  0  0  0  0  0  0  0  0  0  0
   -9.3450   62.6930   76.6290 O   0  0  0  0  0  1  0  0  0  0  0  0
   -7.7700   56.0250   79.0100 O   0  0  0  0  0  0  0  0  0  0  0  0
   -7.8990   58.6360   80.1690 O   0  0  0  0  0  0  0  0  0  0  0  0
  -10.4790   59.3760   76.3660 O   0  0  0  0  0  0  0  0  0  0  0  0
   -5.2740   63.2050   76.1620 O   0  0  0  0  0  0  0  0  0  0  0  0
   -6.4720   63.9280   75.8570 C   0  0  2  0  0  0  0  0  0  0  0  0
   -6.6260   64.2400   74.4610 O   0  0  0  0  0  0  0  0  0  0  0  0
   -7.8710   64.9320   74.2050 C   0  0  2  0  0  0  0  0  0  0  0  0
   -7.9180   65.2600   72.7170 C   0  0  0  0  0  0  0  0  0  0  0  0
   -8.0590   66.2260   75.0650 C   0  0  2  0  0  0  0  0  0  0  0  0
   -7.7290   65.8910   76.5240 C   0  0  1  0  0  0  0  0  0  0  0  0
   -6.3530   65.2700   76.5670 C   0  0  2  0  0  0  0  0  0  0  0  0
   -7.7300   67.0730   77.4240 N   0  0  0  0  0  4  0  0  0  0  0  0
   -5.3870   66.1510   75.9460 O   0  0  0  0  0  0  0  0  0  0  0  0
   -9.3880   66.7580   74.9880 O   0  0  0  0  0  0  0  0  0  0  0  0
    2.7661   56.0890   76.4360 H   0  0  0  0  0  0  0  0  0  0  0  0
    3.6198   55.4886   74.9739 H   0  0  0  0  0  0  0  0  0  0  0  0
    2.8816   57.1262   74.9739 H   0  0  0  0  0  0  0  0  0  0  0  0
    1.7185   54.4695   74.5343 H   0  0  0  0  0  0  0  0  0  0  0  0
    1.2825   55.6703   72.6755 H   0  0  0  0  0  0  0  0  0  0  0  0
   -0.1898   56.1802   73.6717 H   0  0  0  0  0  0  0  0  0  0  0  0
    2.2746   57.9006   73.0575 H   0  0  0  0  0  0  0  0  0  0  0  0
   -0.5868   58.4985   74.0033 H   0  0  0  0  0  0  0  0  0  0  0  0
    1.8652   60.1886   73.0013 H   0  0  0  0  0  0  0  0  0  0  0  0
    0.6766   62.1158   73.3179 H   0  0  0  0  0  0  0  0  0  0  0  0
   -1.3122   62.0968   74.9255 H   0  0  0  0  0  0  0  0  0  0  0  0
   -2.1734   59.9569   72.9179 H   0  0  0  0  0  0  0  0  0  0  0  0
   -4.4501   60.9744   73.3754 H   0  0  0  0  0  0  0  0  0  0  0  0
   -3.1682   61.5074   76.1049 H   0  0  0  0  0  0  0  0  0  0  0  0
   -6.1370   61.6738   75.0151 H   0  0  0  0  0  0  0  0  0  0  0  0
   -5.6137   59.8632   76.6391 H   0  0  0  0  0  0  0  0  0  0  0  0
   -5.1811   61.2649   77.8055 H   0  0  0  0  0  0  0  0  0  0  0  0
   -7.4619   62.0404   77.6199 H   0  0  0  0  0  0  0  0  0  0  0  0
   -6.5719   57.9027   77.2332 H   0  0  0  0  0  0  0  0  0  0  0  0
   -5.5837   58.5032   78.6732 H   0  0  0  0  0  0  0  0  0  0  0  0
   -6.0341   56.7189   79.9368 H   0  0  0  0  0  0  0  0  0  0  0  0
   -5.6190   54.6433   78.6006 H   0  0  0  0  0  0  0  0  0  0  0  0
   -6.0089   55.6072   77.0965 H   0  0  0  0  0  0  0  0  0  0  0  0
   -4.3995   56.8023   77.2167 H   0  0  0  0  0  0  0  0  0  0  0  0
   -2.9383   53.9615   78.1553 H   0  0  0  0  0  0  0  0  0  0  0  0
   -1.8750   55.8281   76.4868 H   0  0  0  0  0  0  0  0  0  0  0  0
   -0.6180   53.9809   78.5799 H   0  0  0  0  0  0  0  0  0  0  0  0
   -8.7912   57.8273   77.3122 H   0  0  0  0  0  0  0  0  0  0  0  0
   -9.7220   58.3528   78.7903 H   0  0  0  0  0  0  0  0  0  0  0  0
   -9.9359   60.5771   77.9970 H   0  0  0  0  0  0  0  0  0  0  0  0
   -7.9554   59.8375   75.8111 H   0  0  0  0  0  0  0  0  0  0  0  0
   -8.0253   55.9138   79.9600 H   0  0  0  0  0  0  0  0  0  0  0  0
   -7.3607   59.2534   80.7250 H   0  0  0  0  0  0  0  0  0  0  0  0
  -11.2501   59.0019   76.8616 H   0  0  0  0  0  0  0  0  0  0  0  0
   -7.3233   63.3027   76.1639 H   0  0  0  0  0  0  0  0  0  0  0  0
   -8.7012   64.2721   74.4972 H   0  0  0  0  0  0  0  0  0  0  0  0
   -8.0729   66.3410   72.5845 H   0  0  0  0  0  0  0  0  0  0  0  0
   -6.9684   64.9653   72.2464 H   0  0  0  0  0  0  0  0  0  0  0  0
   -8.7466   64.7105   72.2464 H   0  0  0  0  0  0  0  0  0  0  0  0
   -7.3828   66.9967   74.6666 H   0  0  0  0  0  0  0  0  0  0  0  0
   -8.5145   65.2097   76.8828 H   0  0  0  0  0  0  0  0  0  0  0  0
   -5.9947   65.1156   77.5955 H   0  0  0  0  0  0  0  0  0  0  0  0
   -7.7297   66.7579   78.4046 H   0  0  0  0  0  0  0  0  0  0  0  0
   -6.8895   67.6410   77.2457 H   0  0  0  0  0  0  0  0  0  0  0  0
   -8.5715   67.6396   77.2457 H   0  0  0  0  0  0  0  0  0  0  0  0
   -4.8709   66.6217   76.6475 H   0  0  0  0  0  0  0  0  0  0  0  0
   -9.7405   66.8991   75.9023 H   0  0  0  0  0  0  0  0  0  0  0  0
  2  1  1  0
  3  2  1  0
  4  3  1  0
  5  4  2  0
  6  5  1  0
  7  6  2  0
  8  7  1  0
  9  8  2  0
 10  9  1  0
 11 10  2  0
 12 11  1  0
 13 12  1  0
 14 13  1  0
 15 14  1  0
 16 15  1  0
 17 16  1  0
 18 17  1  0
 19 18  1  0
 20 19  1  0
 21 20  1  0
 22 21  1  0
 23 22  2  0
 24 23  1  0
 25 24  2  0
 26 24  1  0
 26  2  1  0
 27 21  1  0
 27 20  1  0
 28 16  1  0
 29 28  1  0
 30 29  1  0
 30 14  1  0
 31 30  1  0
 32 31  2  0
 33 31  1  0
 34 18  1  0
 16 35  1  1
 36 29  1  0
 37 12  1  0
 38 37  1  0
 39 38  1  0
 40 39  1  0
 41 40  1  0
 42 40  1  0
 43 42  1  0
 44 43  1  0
 44 38  1  0
 45 43  1  0
 46 44  1  0
 47 42  1  0
  1 48  1  0
  1 49  1  0
  1 50  1  0
  2 51  1  6
  3 52  1  0
  3 53  1  0
  4 54  1  0
  5 55  1  0
  6 56  1  0
  7 57  1  0
  8 58  1  0
  9 59  1  0
 10 60  1  0
 11 61  1  0
 12 62  1  6
 13 63  1  0
 13 64  1  0
 14 65  1  1
 17 66  1  0
 17 67  1  0
 18 68  1  1
 19 69  1  0
 19 70  1  0
 20 71  1  6
 21 72  1  1
 22 73  1  0
 23 74  1  0
 28 75  1  0
 28 76  1  0
 29 77  1  1
 30 78  1  6
 34 79  1  0
 35 80  1  0
 36 81  1  0
 38 82  1  1
 40 83  1  6
 41 84  1  0
 41 85  1  0
 41 86  1  0
 42 87  1  6
 43 88  1  1
 44 89  1  1
 45 90  1  0
 45 91  1  0
 45 92  1  0
 46 93  1  0
 47 94  1  0
M  CHG  2  33  -1  45   1
M  END
>  <score>  (6) 
-7.103

$$$$
=
     RDKit          3D

 94 97  0  0  0  0  0  0  0  0999 V2000
   -6.9200   64.3390   79.4020 C   0  0  0  0  0  0  0  0  0  0  0  0
   -6.1580   63.3420   80.2730 C   0  0  2  0  0  0  0  0  0  0  0  0
   -4.6460   63.6330   80.4060 C   0  0  0  0  0  0  0  0  0  0  0  0
   -4.0000   64.3530   79.2510 C   0  0  0  0  0  0  0  0  0  0  0  0
   -3.2140   63.7870   78.3210 C   0  0  0  0  0  0  0  0  0  0  0  0
   -2.5980   64.5770   77.2770 C   0  0  0  0  0  0  0  0  0  0  0  0
   -1.8080   64.1620   76.2750 C   0  0  0  0  0  0  0  0  0  0  0  0
   -1.3630   62.8300   75.9350 C   0  0  0  0  0  0  0  0  0  0  0  0
   -0.7850   61.9560   76.7720 C   0  0  0  0  0  0  0  0  0  0  0  0
   -0.2310   60.6790   76.3680 C   0  0  0  0  0  0  0  0  0  0  0  0
   -0.7220   59.8970   75.3930 C   0  0  0  0  0  0  0  0  0  0  0  0
   -0.1040   58.5920   74.9530 C   0  0  1  0  0  0  0  0  0  0  0  0
   -1.1450   57.4610   75.1100 C   0  0  0  0  0  0  0  0  0  0  0  0
   -0.7140   55.9890   74.8650 C   0  0  2  0  0  0  0  0  0  0  0  0
   -1.8980   55.1710   74.7570 O   0  0  0  0  0  0  0  0  0  0  0  0
   -2.3980   54.5320   75.9200 C   0  0  2  0  0  0  0  0  0  0  0  0
   -3.1370   55.5190   76.8420 C   0  0  0  0  0  0  0  0  0  0  0  0
   -4.2730   54.9260   77.6930 C   0  0  2  0  0  0  0  0  0  0  0  0
   -4.6440   55.8230   78.8800 C   0  0  0  0  0  0  0  0  0  0  0  0
   -5.1030   57.1900   78.4810 C   0  0  2  0  0  0  0  0  0  0  0  0
   -6.3170   57.8020   79.1420 C   0  0  1  0  0  0  0  0  0  0  0  0
   -6.3400   59.2480   79.3910 C   0  0  0  0  0  0  0  0  0  0  0  0
   -7.4460   59.9500   79.6850 C   0  0  0  0  0  0  0  0  0  0  0  0
   -7.4690   61.3780   80.0500 C   0  0  0  0  0  0  0  0  0  0  0  0
   -8.4420   61.8850   80.5890 O   0  0  0  0  0  0  0  0  0  0  0  0
   -6.3020   62.0000   79.7540 O   0  0  0  0  0  0  0  0  0  0  0  0
   -6.3700   57.2440   77.8200 O   0  0  0  0  0  0  0  0  0  0  0  0
   -1.3270   53.7180   76.6510 C   0  0  0  0  0  0  0  0  0  0  0  0
    0.0700   53.9130   76.0750 C   0  0  1  0  0  0  0  0  0  0  0  0
    0.3340   55.3870   75.8220 C   0  0  1  0  0  0  0  0  0  0  0  0
    1.7220   55.5370   75.2040 C   0  0  0  0  0  0  0  0  0  0  0  0
    1.8850   55.4080   73.9480 O   0  0  0  0  0  0  0  0  0  0  0  0
    2.6110   55.9920   75.9840 O   0  0  0  0  0  1  0  0  0  0  0  0
   -3.9170   53.6480   78.2200 O   0  0  0  0  0  0  0  0  0  0  0  0
   -3.3610   53.6060   75.4160 O   0  0  0  0  0  0  0  0  0  0  0  0
    0.9950   53.4160   77.0470 O   0  0  0  0  0  0  0  0  0  0  0  0
    0.2740   58.8250   73.5800 O   0  0  0  0  0  0  0  0  0  0  0  0
    1.4560   59.6270   73.4760 C   0  0  2  0  0  0  0  0  0  0  0  0
    1.7150   60.1160   72.1470 O   0  0  0  0  0  0  0  0  0  0  0  0
    2.8960   60.9520   72.1090 C   0  0  2  0  0  0  0  0  0  0  0  0
    3.1120   61.3780   70.6610 C   0  0  0  0  0  0  0  0  0  0  0  0
    4.1760   60.2590   72.6820 C   0  0  2  0  0  0  0  0  0  0  0  0
    3.8180   59.6110   74.0240 C   0  0  1  0  0  0  0  0  0  0  0  0
    2.6250   58.7100   73.8110 C   0  0  2  0  0  0  0  0  0  0  0  0
    4.9140   58.7950   74.6050 N   0  0  0  0  0  4  0  0  0  0  0  0
    2.9040   57.7490   72.7640 O   0  0  0  0  0  0  0  0  0  0  0  0
    5.2670   61.1710   72.8700 O   0  0  0  0  0  0  0  0  0  0  0  0
   -7.4620   65.0482   80.0449 H   0  0  0  0  0  0  0  0  0  0  0  0
   -6.2098   64.8888   78.7669 H   0  0  0  0  0  0  0  0  0  0  0  0
   -7.6370   63.7980   78.7669 H   0  0  0  0  0  0  0  0  0  0  0  0
   -6.6079   63.4451   81.2715 H   0  0  0  0  0  0  0  0  0  0  0  0
   -4.5010   64.2472   81.3069 H   0  0  0  0  0  0  0  0  0  0  0  0
   -4.1602   62.6469   80.4451 H   0  0  0  0  0  0  0  0  0  0  0  0
   -4.1880   65.4332   79.1621 H   0  0  0  0  0  0  0  0  0  0  0  0
   -3.0350   62.7021   78.3535 H   0  0  0  0  0  0  0  0  0  0  0  0
   -2.8039   65.6571   77.3089 H   0  0  0  0  0  0  0  0  0  0  0  0
   -1.4429   64.9585   75.6099 H   0  0  0  0  0  0  0  0  0  0  0  0
   -1.5118   62.5032   74.8953 H   0  0  0  0  0  0  0  0  0  0  0  0
   -0.7275   62.2264   77.8367 H   0  0  0  0  0  0  0  0  0  0  0  0
    0.6620   60.3223   76.9022 H   0  0  0  0  0  0  0  0  0  0  0  0
   -1.6365   60.2299   74.8803 H   0  0  0  0  0  0  0  0  0  0  0  0
    0.7682   58.2797   75.5461 H   0  0  0  0  0  0  0  0  0  0  0  0
   -1.5253   57.5163   76.1407 H   0  0  0  0  0  0  0  0  0  0  0  0
   -1.8661   57.6581   74.3030 H   0  0  0  0  0  0  0  0  0  0  0  0
   -0.1521   56.0019   73.9194 H   0  0  0  0  0  0  0  0  0  0  0  0
   -2.3969   55.9577   77.5274 H   0  0  0  0  0  0  0  0  0  0  0  0
   -3.6176   56.2472   76.1721 H   0  0  0  0  0  0  0  0  0  0  0  0
   -5.1330   54.8393   77.0127 H   0  0  0  0  0  0  0  0  0  0  0  0
   -5.4532   55.3358   79.4437 H   0  0  0  0  0  0  0  0  0  0  0  0
   -3.7324   55.9531   79.4817 H   0  0  0  0  0  0  0  0  0  0  0  0
   -4.0758   57.5401   78.3014 H   0  0  0  0  0  0  0  0  0  0  0  0
   -6.8990   57.6532   80.0635 H   0  0  0  0  0  0  0  0  0  0  0  0
   -5.3866   59.7936   79.3328 H   0  0  0  0  0  0  0  0  0  0  0  0
   -8.4087   59.4189   79.6509 H   0  0  0  0  0  0  0  0  0  0  0  0
   -1.3156   54.0237   77.7076 H   0  0  0  0  0  0  0  0  0  0  0  0
   -1.5851   52.6553   76.5319 H   0  0  0  0  0  0  0  0  0  0  0  0
    0.1738   53.3809   75.1179 H   0  0  0  0  0  0  0  0  0  0  0  0
    0.2721   55.9243   76.7799 H   0  0  0  0  0  0  0  0  0  0  0  0
   -3.9272   53.6845   79.2093 H   0  0  0  0  0  0  0  0  0  0  0  0
   -3.8210   53.1636   76.1728 H   0  0  0  0  0  0  0  0  0  0  0  0
    0.6498   53.6015   77.9561 H   0  0  0  0  0  0  0  0  0  0  0  0
    1.3273   60.4939   74.1407 H   0  0  0  0  0  0  0  0  0  0  0  0
    2.7272   61.8209   72.7621 H   0  0  0  0  0  0  0  0  0  0  0  0
    3.6093   62.3589   70.6377 H   0  0  0  0  0  0  0  0  0  0  0  0
    3.7423   60.6351   70.1503 H   0  0  0  0  0  0  0  0  0  0  0  0
    2.1402   61.4474   70.1503 H   0  0  0  0  0  0  0  0  0  0  0  0
    4.5090   59.5088   71.9497 H   0  0  0  0  0  0  0  0  0  0  0  0
    3.6126   60.4285   74.7307 H   0  0  0  0  0  0  0  0  0  0  0  0
    2.3854   58.1140   74.7040 H   0  0  0  0  0  0  0  0  0  0  0  0
    4.8626   58.8332   75.6330 H   0  0  0  0  0  0  0  0  0  0  0  0
    4.8176   57.8183   74.2925 H   0  0  0  0  0  0  0  0  0  0  0  0
    5.8221   59.1674   74.2925 H   0  0  0  0  0  0  0  0  0  0  0  0
    3.1557   56.8820   73.1703 H   0  0  0  0  0  0  0  0  0  0  0  0
    5.4241   61.3024   73.8386 H   0  0  0  0  0  0  0  0  0  0  0  0
  2  1  1  0
  3  2  1  0
  4  3  1  0
  5  4  2  0
  6  5  1  0
  7  6  2  0
  8  7  1  0
  9  8  2  0
 10  9  1  0
 11 10  2  0
 12 11  1  0
 13 12  1  0
 14 13  1  0
 15 14  1  0
 16 15  1  0
 17 16  1  0
 18 17  1  0
 19 18  1  0
 20 19  1  0
 21 20  1  0
 22 21  1  0
 23 22  2  0
 24 23  1  0
 25 24  2  0
 26 24  1  0
 26  2  1  0
 27 21  1  0
 27 20  1  0
 28 16  1  0
 29 28  1  0
 30 29  1  0
 30 14  1  0
 31 30  1  0
 32 31  2  0
 33 31  1  0
 34 18  1  0
 16 35  1  6
 36 29  1  0
 37 12  1  0
 38 37  1  0
 39 38  1  0
 40 39  1  0
 41 40  1  0
 42 40  1  0
 43 42  1  0
 44 43  1  0
 44 38  1  0
 45 43  1  0
 46 44  1  0
 47 42  1  0
  1 48  1  0
  1 49  1  0
  1 50  1  0
  2 51  1  1
  3 52  1  0
  3 53  1  0
  4 54  1  0
  5 55  1  0
  6 56  1  0
  7 57  1  0
  8 58  1  0
  9 59  1  0
 10 60  1  0
 11 61  1  0
 12 62  1  1
 13 63  1  0
 13 64  1  0
 14 65  1  6
 17 66  1  0
 17 67  1  0
 18 68  1  6
 19 69  1  0
 19 70  1  0
 20 71  1  6
 21 72  1  1
 22 73  1  0
 23 74  1  0
 28 75  1  0
 28 76  1  0
 29 77  1  6
 30 78  1  1
 34 79  1  0
 35 80  1  0
 36 81  1  0
 38 82  1  1
 40 83  1  1
 41 84  1  0
 41 85  1  0
 41 86  1  0
 42 87  1  6
 43 88  1  1
 44 89  1  1
 45 90  1  0
 45 91  1  0
 45 92  1  0
 46 93  1  0
 47 94  1  0
M  CHG  2  33  -1  45   1
M  END
>  <score>  (7) 
-7.0

$$$$
=
     RDKit          3D

 94 97  0  0  0  0  0  0  0  0999 V2000
    2.7150   55.2030   75.5530 C   0  0  0  0  0  0  0  0  0  0  0  0
    1.3660   54.7940   74.9630 C   0  0  2  0  0  0  0  0  0  0  0  0
    0.9980   55.5160   73.6480 C   0  0  0  0  0  0  0  0  0  0  0  0
    1.5780   56.8930   73.4560 C   0  0  0  0  0  0  0  0  0  0  0  0
    0.9060   58.0470   73.5940 C   0  0  0  0  0  0  0  0  0  0  0  0
    1.5420   59.3210   73.3380 C   0  0  0  0  0  0  0  0  0  0  0  0
    1.0170   60.5520   73.4450 C   0  0  0  0  0  0  0  0  0  0  0  0
   -0.3050   60.9630   73.8580 C   0  0  0  0  0  0  0  0  0  0  0  0
   -1.4640   60.4950   73.3700 C   0  0  0  0  0  0  0  0  0  0  0  0
   -2.7690   61.0240   73.7110 C   0  0  0  0  0  0  0  0  0  0  0  0
   -3.1140   61.5140   74.9130 C   0  0  0  0  0  0  0  0  0  0  0  0
   -4.4650   62.1040   75.2380 C   0  0  1  0  0  0  0  0  0  0  0  0
   -5.0910   61.3190   76.4130 C   0  0  0  0  0  0  0  0  0  0  0  0
   -6.5490   61.6320   76.8470 C   0  0  2  0  0  0  0  0  0  0  0  0
   -6.7910   61.0190   78.1320 O   0  0  0  0  0  0  0  0  0  0  0  0
   -7.3580   59.7210   78.1760 C   0  0  2  0  0  0  0  0  0  0  0  0
   -6.3250   58.6340   77.8280 C   0  0  0  0  0  0  0  0  0  0  0  0
   -6.5430   57.2600   78.4860 C   0  0  2  0  0  0  0  0  0  0  0  0
   -5.7820   56.1400   77.7660 C   0  0  0  0  0  0  0  0  0  0  0  0
   -4.3010   56.3440   77.7290 C   0  0  2  0  0  0  0  0  0  0  0  0
   -3.3710   55.1910   78.0290 C   0  0  1  0  0  0  0  0  0  0  0  0
   -2.1010   55.0920   77.3010 C   0  0  0  0  0  0  0  0  0  0  0  0
   -1.0730   54.3120   77.6710 C   0  0  0  0  0  0  0  0  0  0  0  0
    0.1620   54.1140   76.8900 C   0  0  0  0  0  0  0  0  0  0  0  0
    0.9200   53.1830   77.1190 O   0  0  0  0  0  0  0  0  0  0  0  0
    0.3020   55.0400   75.9110 O   0  0  0  0  0  0  0  0  0  0  0  0
   -3.6340   56.2270   78.9890 O   0  0  0  0  0  0  0  0  0  0  0  0
   -8.6430   59.6110   77.3500 C   0  0  0  0  0  0  0  0  0  0  0  0
   -8.9340   60.8590   76.5270 C   0  0  1  0  0  0  0  0  0  0  0  0
   -7.6710   61.3370   75.8320 C   0  0  1  0  0  0  0  0  0  0  0  0
   -7.9920   62.6130   75.0560 C   0  0  0  0  0  0  0  0  0  0  0  0
   -8.6970   62.5630   73.9980 O   0  0  0  0  0  0  0  0  0  0  0  0
   -7.6940   63.6910   75.6500 O   0  0  0  0  0  1  0  0  0  0  0  0
   -7.9240   56.9000   78.4940 O   0  0  0  0  0  0  0  0  0  0  0  0
   -7.7220   59.5510   79.5460 O   0  0  0  0  0  0  0  0  0  0  0  0
   -9.9150   60.4950   75.5500 O   0  0  0  0  0  0  0  0  0  0  0  0
   -4.1800   63.4810   75.5660 O   0  0  0  0  0  0  0  0  0  0  0  0
   -3.9320   63.6610   76.9650 C   0  0  2  0  0  0  0  0  0  0  0  0
   -4.6630   64.7550   77.5500 O   0  0  0  0  0  0  0  0  0  0  0  0
   -4.4070   64.8640   78.9710 C   0  0  2  0  0  0  0  0  0  0  0  0
   -5.1820   66.0720   79.4860 C   0  0  0  0  0  0  0  0  0  0  0  0
   -2.8880   64.9850   79.3290 C   0  0  2  0  0  0  0  0  0  0  0  0
   -2.1220   63.9030   78.5590 C   0  0  1  0  0  0  0  0  0  0  0  0
   -2.4620   64.0350   77.0930 C   0  0  2  0  0  0  0  0  0  0  0  0
   -0.6460   64.0010   78.7000 N   0  0  0  0  0  4  0  0  0  0  0  0
   -2.1800   65.3780   76.6320 O   0  0  0  0  0  0  0  0  0  0  0  0
   -2.6330   64.8410   80.7320 O   0  0  0  0  0  0  0  0  0  0  0  0
    2.6555   55.1850   76.6512 H   0  0  0  0  0  0  0  0  0  0  0  0
    3.4909   54.4997   75.2162 H   0  0  0  0  0  0  0  0  0  0  0  0
    2.9697   56.2187   75.2162 H   0  0  0  0  0  0  0  0  0  0  0  0
    1.4740   53.7227   74.7378 H   0  0  0  0  0  0  0  0  0  0  0  0
    1.3429   54.8880   72.8133 H   0  0  0  0  0  0  0  0  0  0  0  0
   -0.0917   55.6605   73.6886 H   0  0  0  0  0  0  0  0  0  0  0  0
    2.6407   56.9584   73.1797 H   0  0  0  0  0  0  0  0  0  0  0  0
   -0.1481   58.0234   73.9076 H   0  0  0  0  0  0  0  0  0  0  0  0
    2.5921   59.2751   73.0136 H   0  0  0  0  0  0  0  0  0  0  0  0
    1.6977   61.3735   73.1772 H   0  0  0  0  0  0  0  0  0  0  0  0
   -0.3671   61.7297   74.6444 H   0  0  0  0  0  0  0  0  0  0  0  0
   -1.4204   59.6530   72.6635 H   0  0  0  0  0  0  0  0  0  0  0  0
   -3.5374   61.0243   72.9239 H   0  0  0  0  0  0  0  0  0  0  0  0
   -2.3614   61.4833   75.7147 H   0  0  0  0  0  0  0  0  0  0  0  0
   -5.1953   62.0457   74.4175 H   0  0  0  0  0  0  0  0  0  0  0  0
   -5.0594   60.2539   76.1400 H   0  0  0  0  0  0  0  0  0  0  0  0
   -4.4897   61.6272   77.2810 H   0  0  0  0  0  0  0  0  0  0  0  0
   -6.6071   62.7286   76.9115 H   0  0  0  0  0  0  0  0  0  0  0  0
   -6.3413   58.4912   76.7374 H   0  0  0  0  0  0  0  0  0  0  0  0
   -5.3650   59.0012   78.2199 H   0  0  0  0  0  0  0  0  0  0  0  0
   -6.1630   57.3634   79.5131 H   0  0  0  0  0  0  0  0  0  0  0  0
   -5.9887   55.1918   78.2838 H   0  0  0  0  0  0  0  0  0  0  0  0
   -6.1309   56.1347   76.7228 H   0  0  0  0  0  0  0  0  0  0  0  0
   -4.3688   57.0733   76.9083 H   0  0  0  0  0  0  0  0  0  0  0  0
   -3.4231   54.0924   78.0495 H   0  0  0  0  0  0  0  0  0  0  0  0
   -1.9833   55.6979   76.3905 H   0  0  0  0  0  0  0  0  0  0  0  0
   -1.1584   53.7800   78.6300 H   0  0  0  0  0  0  0  0  0  0  0  0
   -8.5469   58.7551   76.6657 H   0  0  0  0  0  0  0  0  0  0  0  0
   -9.4765   59.4827   78.0563 H   0  0  0  0  0  0  0  0  0  0  0  0
   -9.2963   61.6739   77.1709 H   0  0  0  0  0  0  0  0  0  0  0  0
   -7.3214   60.5439   75.1547 H   0  0  0  0  0  0  0  0  0  0  0  0
   -8.2383   56.8181   79.4292 H   0  0  0  0  0  0  0  0  0  0  0  0
   -6.9946   59.8907   80.1253 H   0  0  0  0  0  0  0  0  0  0  0  0
  -10.7384   60.1895   76.0070 H   0  0  0  0  0  0  0  0  0  0  0  0
   -4.2319   62.7348   77.4771 H   0  0  0  0  0  0  0  0  0  0  0  0
   -4.7408   63.9350   79.4563 H   0  0  0  0  0  0  0  0  0  0  0  0
   -5.1792   66.0677   80.5860 H   0  0  0  0  0  0  0  0  0  0  0  0
   -4.7070   66.9949   79.1218 H   0  0  0  0  0  0  0  0  0  0  0  0
   -6.2189   66.0249   79.1218 H   0  0  0  0  0  0  0  0  0  0  0  0
   -2.5536   65.9940   79.0459 H   0  0  0  0  0  0  0  0  0  0  0  0
   -2.4252   62.9332   78.9804 H   0  0  0  0  0  0  0  0  0  0  0  0
   -1.8536   63.3722   76.4601 H   0  0  0  0  0  0  0  0  0  0  0  0
   -0.3969   64.0175   79.6993 H   0  0  0  0  0  0  0  0  0  0  0  0
   -0.2033   63.1876   78.2492 H   0  0  0  0  0  0  0  0  0  0  0  0
   -0.3147   64.8658   78.2492 H   0  0  0  0  0  0  0  0  0  0  0  0
   -2.0546   65.9750   77.4117 H   0  0  0  0  0  0  0  0  0  0  0  0
   -3.3699   65.2571   81.2457 H   0  0  0  0  0  0  0  0  0  0  0  0
  2  1  1  0
  3  2  1  0
  4  3  1  0
  5  4  2  0
  6  5  1  0
  7  6  2  0
  8  7  1  0
  9  8  2  0
 10  9  1  0
 11 10  2  0
 12 11  1  0
 13 12  1  0
 14 13  1  0
 15 14  1  0
 16 15  1  0
 17 16  1  0
 18 17  1  0
 19 18  1  0
 20 19  1  0
 21 20  1  0
 22 21  1  0
 23 22  2  0
 24 23  1  0
 25 24  2  0
 26 24  1  0
 26  2  1  0
 27 21  1  0
 27 20  1  0
 28 16  1  0
 29 28  1  0
 30 29  1  0
 30 14  1  0
 31 30  1  0
 32 31  2  0
 33 31  1  0
 34 18  1  0
 16 35  1  1
 36 29  1  0
 37 12  1  0
 38 37  1  0
 39 38  1  0
 40 39  1  0
 41 40  1  0
 42 40  1  0
 43 42  1  0
 44 43  1  0
 44 38  1  0
 45 43  1  0
 46 44  1  0
 47 42  1  0
  1 48  1  0
  1 49  1  0
  1 50  1  0
  2 51  1  6
  3 52  1  0
  3 53  1  0
  4 54  1  0
  5 55  1  0
  6 56  1  0
  7 57  1  0
  8 58  1  0
  9 59  1  0
 10 60  1  0
 11 61  1  0
 12 62  1  6
 13 63  1  0
 13 64  1  0
 14 65  1  1
 17 66  1  0
 17 67  1  0
 18 68  1  1
 19 69  1  0
 19 70  1  0
 20 71  1  6
 21 72  1  1
 22 73  1  0
 23 74  1  0
 28 75  1  0
 28 76  1  0
 29 77  1  1
 30 78  1  6
 34 79  1  0
 35 80  1  0
 36 81  1  0
 38 82  1  1
 40 83  1  1
 41 84  1  0
 41 85  1  0
 41 86  1  0
 42 87  1  6
 43 88  1  1
 44 89  1  6
 45 90  1  0
 45 91  1  0
 45 92  1  0
 46 93  1  0
 47 94  1  0
M  CHG  2  33  -1  45   1
M  END
>  <score>  (8) 
-6.955

$$$$
=
     RDKit          3D

 94 97  0  0  0  0  0  0  0  0999 V2000
   -8.4310   63.4730   78.4450 C   0  0  0  0  0  0  0  0  0  0  0  0
   -8.0210   62.1650   79.1210 C   0  0  2  0  0  0  0  0  0  0  0  0
   -6.9500   62.3230   80.2220 C   0  0  0  0  0  0  0  0  0  0  0  0
   -6.0020   63.4840   80.0710 C   0  0  0  0  0  0  0  0  0  0  0  0
   -4.7270   63.4000   79.6600 C   0  0  0  0  0  0  0  0  0  0  0  0
   -3.8800   64.5720   79.5960 C   0  0  0  0  0  0  0  0  0  0  0  0
   -2.6020   64.6550   79.1940 C   0  0  0  0  0  0  0  0  0  0  0  0
   -1.7170   63.6280   78.6980 C   0  0  0  0  0  0  0  0  0  0  0  0
   -1.4690   62.4490   79.2890 C   0  0  0  0  0  0  0  0  0  0  0  0
   -0.4750   61.4980   78.8330 C   0  0  0  0  0  0  0  0  0  0  0  0
   -0.1500   61.2750   77.5500 C   0  0  0  0  0  0  0  0  0  0  0  0
    0.9210   60.3130   77.0950 C   0  0  1  0  0  0  0  0  0  0  0  0
    0.2930   59.2660   76.1490 C   0  0  0  0  0  0  0  0  0  0  0  0
    1.1530   58.0700   75.6570 C   0  0  2  0  0  0  0  0  0  0  0  0
    0.4690   57.4270   74.5600 O   0  0  0  0  0  0  0  0  0  0  0  0
   -0.3860   56.3300   74.8350 C   0  0  2  0  0  0  0  0  0  0  0  0
   -1.7290   56.7880   75.4340 C   0  0  0  0  0  0  0  0  0  0  0  0
   -2.9430   55.8940   75.1300 C   0  0  2  0  0  0  0  0  0  0  0  0
   -4.1070   56.1400   76.0980 C   0  0  0  0  0  0  0  0  0  0  0  0
   -4.6200   57.5450   76.0790 C   0  0  2  0  0  0  0  0  0  0  0  0
   -6.1080   57.8060   76.0660 C   0  0  1  0  0  0  0  0  0  0  0  0
   -6.6350   58.9670   76.7920 C   0  0  0  0  0  0  0  0  0  0  0  0
   -7.8650   59.4760   76.6200 C   0  0  0  0  0  0  0  0  0  0  0  0
   -8.4490   60.5670   77.4210 C   0  0  0  0  0  0  0  0  0  0  0  0
   -9.6520   60.7860   77.4230 O   0  0  0  0  0  0  0  0  0  0  0  0
   -7.5130   61.2260   78.1450 O   0  0  0  0  0  0  0  0  0  0  0  0
   -5.3030   57.9330   74.8840 O   0  0  0  0  0  0  0  0  0  0  0  0
    0.3000   55.2430   75.6670 C   0  0  0  0  0  0  0  0  0  0  0  0
    1.6810   55.6510   76.1630 C   0  0  1  0  0  0  0  0  0  0  0  0
    1.6450   57.0650   76.7170 C   0  0  1  0  0  0  0  0  0  0  0  0
    3.0540   57.4530   77.1600 C   0  0  0  0  0  0  0  0  0  0  0  0
    3.7510   58.2560   76.4620 O   0  0  0  0  0  0  0  0  0  0  0  0
    3.3650   57.0930   78.3340 O   0  0  0  0  0  1  0  0  0  0  0  0
   -2.6040   54.5100   75.2140 O   0  0  0  0  0  0  0  0  0  0  0  0
   -0.6530   55.7720   73.5490 O   0  0  0  0  0  0  0  0  0  0  0  0
    2.0380   54.7340   77.2020 O   0  0  0  0  0  0  0  0  0  0  0  0
    1.8970   61.1530   76.4420 O   0  0  0  0  0  0  0  0  0  0  0  0
    1.7800   61.1040   75.0150 C   0  0  2  0  0  0  0  0  0  0  0  0
    3.0440   61.0960   74.3270 O   0  0  0  0  0  0  0  0  0  0  0  0
    2.8670   61.0040   72.8930 C   0  0  2  0  0  0  0  0  0  0  0  0
    4.2510   61.0510   72.2540 C   0  0  0  0  0  0  0  0  0  0  0  0
    1.9440   62.1190   72.3010 C   0  0  2  0  0  0  0  0  0  0  0  0
    0.6770   62.2070   73.1600 C   0  0  1  0  0  0  0  0  0  0  0  0
    1.0940   62.3980   74.5990 C   0  0  2  0  0  0  0  0  0  0  0  0
   -0.2210   63.3300   72.7870 N   0  0  0  0  0  4  0  0  0  0  0  0
    1.9540   63.5560   74.7220 O   0  0  0  0  0  0  0  0  0  0  0  0
    1.5770   61.8730   70.9360 O   0  0  0  0  0  0  0  0  0  0  0  0
   -8.6666   64.2245   79.2130 H   0  0  0  0  0  0  0  0  0  0  0  0
   -7.6037   63.8366   77.8178 H   0  0  0  0  0  0  0  0  0  0  0  0
   -9.3178   63.2993   77.8178 H   0  0  0  0  0  0  0  0  0  0  0  0
   -8.9412   61.7989   79.5997 H   0  0  0  0  0  0  0  0  0  0  0  0
   -7.4723   62.4399   81.1830 H   0  0  0  0  0  0  0  0  0  0  0  0
   -6.3229   61.4220   80.1518 H   0  0  0  0  0  0  0  0  0  0  0  0
   -6.3869   64.4844   80.3183 H   0  0  0  0  0  0  0  0  0  0  0  0
   -4.3181   62.4220   79.3663 H   0  0  0  0  0  0  0  0  0  0  0  0
   -4.3433   65.5162   79.9183 H   0  0  0  0  0  0  0  0  0  0  0  0
   -2.1609   65.6610   79.2514 H   0  0  0  0  0  0  0  0  0  0  0  0
   -1.1987   63.8303   77.7491 H   0  0  0  0  0  0  0  0  0  0  0  0
   -2.0597   62.1868   80.1791 H   0  0  0  0  0  0  0  0  0  0  0  0
    0.0550   60.9127   79.5989 H   0  0  0  0  0  0  0  0  0  0  0  0
   -0.7015   61.8309   76.7775 H   0  0  0  0  0  0  0  0  0  0  0  0
    1.3891   59.7374   77.9071 H   0  0  0  0  0  0  0  0  0  0  0  0
   -0.5763   58.8416   76.6727 H   0  0  0  0  0  0  0  0  0  0  0  0
    0.0904   59.8353   75.2298 H   0  0  0  0  0  0  0  0  0  0  0  0
    2.1058   58.5103   75.3278 H   0  0  0  0  0  0  0  0  0  0  0  0
   -1.6113   56.8356   76.5267 H   0  0  0  0  0  0  0  0  0  0  0  0
   -1.9489   57.7570   74.9622 H   0  0  0  0  0  0  0  0  0  0  0  0
   -3.2517   56.1566   74.1074 H   0  0  0  0  0  0  0  0  0  0  0  0
   -4.9325   55.4655   75.8266 H   0  0  0  0  0  0  0  0  0  0  0  0
   -3.7260   55.9513   77.1125 H   0  0  0  0  0  0  0  0  0  0  0  0
   -3.7878   57.9131   76.6971 H   0  0  0  0  0  0  0  0  0  0  0  0
   -7.0286   57.2574   76.3142 H   0  0  0  0  0  0  0  0  0  0  0  0
   -5.9773   59.4534   77.5274 H   0  0  0  0  0  0  0  0  0  0  0  0
   -8.4850   59.0459   75.8196 H   0  0  0  0  0  0  0  0  0  0  0  0
   -0.3324   55.0181   76.5385 H   0  0  0  0  0  0  0  0  0  0  0  0
    0.4317   54.3664   75.0157 H   0  0  0  0  0  0  0  0  0  0  0  0
    2.4122   55.6272   75.3415 H   0  0  0  0  0  0  0  0  0  0  0  0
    0.9464   57.0925   77.5662 H   0  0  0  0  0  0  0  0  0  0  0  0
   -2.5387   54.2434   76.1652 H   0  0  0  0  0  0  0  0  0  0  0  0
   -1.0778   54.8842   73.6562 H   0  0  0  0  0  0  0  0  0  0  0  0
    1.8745   55.1541   78.0834 H   0  0  0  0  0  0  0  0  0  0  0  0
    1.2436   60.1789   74.7572 H   0  0  0  0  0  0  0  0  0  0  0  0
    2.3523   60.0585   72.6671 H   0  0  0  0  0  0  0  0  0  0  0  0
    5.0180   61.0770   73.0420 H   0  0  0  0  0  0  0  0  0  0  0  0
    4.3971   60.1573   71.6295 H   0  0  0  0  0  0  0  0  0  0  0  0
    4.3361   61.9526   71.6295 H   0  0  0  0  0  0  0  0  0  0  0  0
    2.5063   63.0643   72.3154 H   0  0  0  0  0  0  0  0  0  0  0  0
    0.1147   61.2752   73.0003 H   0  0  0  0  0  0  0  0  0  0  0  0
    0.2380   62.5945   75.2613 H   0  0  0  0  0  0  0  0  0  0  0  0
   -0.5808   63.7800   73.6408 H   0  0  0  0  0  0  0  0  0  0  0  0
    0.3044   64.0196   72.2308 H   0  0  0  0  0  0  0  0  0  0  0  0
   -1.0092   62.9691   72.2308 H   0  0  0  0  0  0  0  0  0  0  0  0
    2.1028   63.7563   75.6800 H   0  0  0  0  0  0  0  0  0  0  0  0
    0.7549   61.3220   70.9095 H   0  0  0  0  0  0  0  0  0  0  0  0
  2  1  1  0
  3  2  1  0
  4  3  1  0
  5  4  2  0
  6  5  1  0
  7  6  2  0
  8  7  1  0
  9  8  2  0
 10  9  1  0
 11 10  2  0
 12 11  1  0
 13 12  1  0
 14 13  1  0
 15 14  1  0
 16 15  1  0
 17 16  1  0
 18 17  1  0
 19 18  1  0
 20 19  1  0
 21 20  1  0
 22 21  1  0
 23 22  2  0
 24 23  1  0
 25 24  2  0
 26 24  1  0
 26  2  1  0
 27 21  1  0
 27 20  1  0
 28 16  1  0
 29 28  1  0
 30 29  1  0
 30 14  1  0
 31 30  1  0
 32 31  2  0
 33 31  1  0
 34 18  1  0
 16 35  1  6
 36 29  1  0
 37 12  1  0
 38 37  1  0
 39 38  1  0
 40 39  1  0
 41 40  1  0
 42 40  1  0
 43 42  1  0
 44 43  1  0
 44 38  1  0
 45 43  1  0
 46 44  1  0
 47 42  1  0
  1 48  1  0
  1 49  1  0
  1 50  1  0
  2 51  1  1
  3 52  1  0
  3 53  1  0
  4 54  1  0
  5 55  1  0
  6 56  1  0
  7 57  1  0
  8 58  1  0
  9 59  1  0
 10 60  1  0
 11 61  1  0
 12 62  1  1
 13 63  1  0
 13 64  1  0
 14 65  1  6
 17 66  1  0
 17 67  1  0
 18 68  1  6
 19 69  1  0
 19 70  1  0
 20 71  1  1
 21 72  1  6
 22 73  1  0
 23 74  1  0
 28 75  1  0
 28 76  1  0
 29 77  1  6
 30 78  1  1
 34 79  1  0
 35 80  1  0
 36 81  1  0
 38 82  1  1
 40 83  1  1
 41 84  1  0
 41 85  1  0
 41 86  1  0
 42 87  1  6
 43 88  1  1
 44 89  1  1
 45 90  1  0
 45 91  1  0
 45 92  1  0
 46 93  1  0
 47 94  1  0
M  CHG  2  33  -1  45   1
M  END
>  <score>  (9) 
-6.728

$$$$
