=
     RDKit          3D

 28 29  0  0  0  0  0  0  0  0999 V2000
    1.4820   67.2250   68.9680 O   0  0  0  0  0  0  0  0  0  0  0  0
    1.4390   67.8930   67.9540 C   0  0  0  0  0  0  0  0  0  0  0  0
    1.2630   67.3730   66.5410 C   0  0  0  0  0  0  0  0  0  0  0  0
    1.8640   66.4470   66.0330 O   0  0  0  0  0  0  0  0  0  0  0  0
    0.0570   68.4170   65.8440 S   0  0  0  0  0  0  0  0  0  0  0  0
    0.7110   68.6860   64.2120 C   0  0  0  0  0  0  0  0  0  0  0  0
    2.0570   68.4320   63.9220 C   0  0  0  0  0  0  0  0  0  0  0  0
    2.5480   68.6270   62.6290 C   0  0  0  0  0  0  0  0  0  0  0  0
    1.6970   69.0670   61.6180 C   0  0  0  0  0  0  0  0  0  0  0  0
    0.3530   69.3120   61.8970 C   0  0  0  0  0  0  0  0  0  0  0  0
   -0.1390   69.1190   63.1900 C   0  0  0  0  0  0  0  0  0  0  0  0
    1.5230   69.6220   67.7700 S   0  0  0  0  0  0  0  0  0  0  0  0
    3.2810   69.8940   67.7050 C   0  0  0  0  0  0  0  0  0  0  0  0
    3.9350   70.4480   68.8090 C   0  0  0  0  0  0  0  0  0  0  0  0
    5.3100   70.6900   68.7660 C   0  0  0  0  0  0  0  0  0  0  0  0
    6.0360   70.3850   67.6150 C   0  0  0  0  0  0  0  0  0  0  0  0
    5.3880   69.8420   66.5080 C   0  0  0  0  0  0  0  0  0  0  0  0
    4.0130   69.6000   66.5500 C   0  0  0  0  0  0  0  0  0  0  0  0
    2.7307   68.0773   64.7159 H   0  0  0  0  0  0  0  0  0  0  0  0
    3.6081   68.4328   62.4089 H   0  0  0  0  0  0  0  0  0  0  0  0
    2.0849   69.2211   60.6003 H   0  0  0  0  0  0  0  0  0  0  0  0
   -0.3201   69.6574   61.0985 H   0  0  0  0  0  0  0  0  0  0  0  0
   -1.2009   69.3087   63.4052 H   0  0  0  0  0  0  0  0  0  0  0  0
    3.3640   70.6947   69.7163 H   0  0  0  0  0  0  0  0  0  0  0  0
    5.8202   71.1211   69.6400 H   0  0  0  0  0  0  0  0  0  0  0  0
    7.1193   70.5731   67.5814 H   0  0  0  0  0  0  0  0  0  0  0  0
    5.9600   69.6034   65.5992 H   0  0  0  0  0  0  0  0  0  0  0  0
    3.5040   69.1767   65.6715 H   0  0  0  0  0  0  0  0  0  0  0  0
  2  1  2  0
  3  2  1  0
  4  3  2  0
  5  3  1  0
  6  5  1  0
  7  6  2  0
  8  7  1  0
  9  8  2  0
 10  9  1  0
 11 10  2  0
 11  6  1  0
 12  2  1  0
 13 12  1  0
 14 13  2  0
 15 14  1  0
 16 15  2  0
 17 16  1  0
 18 17  2  0
 18 13  1  0
  7 19  1  0
  8 20  1  0
  9 21  1  0
 10 22  1  0
 11 23  1  0
 14 24  1  0
 15 25  1  0
 16 26  1  0
 17 27  1  0
 18 28  1  0
M  END
>  <score>  (1) 
-8.426

$$$$
=
     RDKit          3D

 28 29  0  0  0  0  0  0  0  0999 V2000
    2.2060   66.0950   65.5770 O   0  0  0  0  0  0  0  0  0  0  0  0
    1.6640   67.1260   65.9240 C   0  0  0  0  0  0  0  0  0  0  0  0
    1.4470   67.5920   67.3510 C   0  0  0  0  0  0  0  0  0  0  0  0
    1.3550   66.8840   68.3340 O   0  0  0  0  0  0  0  0  0  0  0  0
    1.3310   69.3240   67.2260 S   0  0  0  0  0  0  0  0  0  0  0  0
    2.9350   69.8360   67.8010 C   0  0  0  0  0  0  0  0  0  0  0  0
    3.1260   70.2680   69.1190 C   0  0  0  0  0  0  0  0  0  0  0  0
    4.3970   70.6450   69.5600 C   0  0  0  0  0  0  0  0  0  0  0  0
    5.4840   70.5820   68.6910 C   0  0  0  0  0  0  0  0  0  0  0  0
    5.3040   70.1420   67.3810 C   0  0  0  0  0  0  0  0  0  0  0  0
    4.0330   69.7670   66.9380 C   0  0  0  0  0  0  0  0  0  0  0  0
    1.0010   68.4050   64.9470 S   0  0  0  0  0  0  0  0  0  0  0  0
    2.2870   68.6390   63.7380 C   0  0  0  0  0  0  0  0  0  0  0  0
    1.9810   68.5360   62.3770 C   0  0  0  0  0  0  0  0  0  0  0  0
    2.9820   68.6930   61.4160 C   0  0  0  0  0  0  0  0  0  0  0  0
    4.2950   68.9470   61.8110 C   0  0  0  0  0  0  0  0  0  0  0  0
    4.6080   69.0410   63.1650 C   0  0  0  0  0  0  0  0  0  0  0  0
    3.6080   68.8840   64.1280 C   0  0  0  0  0  0  0  0  0  0  0  0
    2.2715   70.3108   69.8104 H   0  0  0  0  0  0  0  0  0  0  0  0
    4.5395   70.9918   70.5941 H   0  0  0  0  0  0  0  0  0  0  0  0
    6.4843   70.8795   69.0388 H   0  0  0  0  0  0  0  0  0  0  0  0
    6.1628   70.0899   66.6956 H   0  0  0  0  0  0  0  0  0  0  0  0
    3.8954   69.4156   65.9048 H   0  0  0  0  0  0  0  0  0  0  0  0
    0.9472   68.3304   62.0623 H   0  0  0  0  0  0  0  0  0  0  0  0
    2.7346   68.6163   60.3469 H   0  0  0  0  0  0  0  0  0  0  0  0
    5.0830   69.0730   61.0539 H   0  0  0  0  0  0  0  0  0  0  0  0
    5.6442   69.2392   63.4766 H   0  0  0  0  0  0  0  0  0  0  0  0
    3.8602   68.9533   65.1965 H   0  0  0  0  0  0  0  0  0  0  0  0
  2  1  2  0
  3  2  1  0
  4  3  2  0
  5  3  1  0
  6  5  1  0
  7  6  2  0
  8  7  1  0
  9  8  2  0
 10  9  1  0
 11 10  2  0
 11  6  1  0
 12  2  1  0
 13 12  1  0
 14 13  2  0
 15 14  1  0
 16 15  2  0
 17 16  1  0
 18 17  2  0
 18 13  1  0
  7 19  1  0
  8 20  1  0
  9 21  1  0
 10 22  1  0
 11 23  1  0
 14 24  1  0
 15 25  1  0
 16 26  1  0
 17 27  1  0
 18 28  1  0
M  END
>  <score>  (2) 
-8.397

$$$$
=
     RDKit          3D

 28 29  0  0  0  0  0  0  0  0999 V2000
    1.5760   66.7230   67.8060 O   0  0  0  0  0  0  0  0  0  0  0  0
    1.3720   67.6400   67.0360 C   0  0  0  0  0  0  0  0  0  0  0  0
    1.1510   67.5250   65.5390 C   0  0  0  0  0  0  0  0  0  0  0  0
    0.2840   68.0810   64.8950 O   0  0  0  0  0  0  0  0  0  0  0  0
    2.3790   66.4140   65.0050 S   0  0  0  0  0  0  0  0  0  0  0  0
    3.3810   67.4550   63.9660 C   0  0  0  0  0  0  0  0  0  0  0  0
    4.7220   67.7090   64.2770 C   0  0  0  0  0  0  0  0  0  0  0  0
    5.5000   68.5090   63.4380 C   0  0  0  0  0  0  0  0  0  0  0  0
    4.9460   69.0510   62.2800 C   0  0  0  0  0  0  0  0  0  0  0  0
    3.6150   68.7930   61.9580 C   0  0  0  0  0  0  0  0  0  0  0  0
    2.8350   67.9940   62.7980 C   0  0  0  0  0  0  0  0  0  0  0  0
    1.2280   69.3430   67.3630 S   0  0  0  0  0  0  0  0  0  0  0  0
    2.9080   69.7780   67.7620 C   0  0  0  0  0  0  0  0  0  0  0  0
    3.2040   70.3000   69.0250 C   0  0  0  0  0  0  0  0  0  0  0  0
    4.5130   70.6690   69.3460 C   0  0  0  0  0  0  0  0  0  0  0  0
    5.5290   70.5230   68.4030 C   0  0  0  0  0  0  0  0  0  0  0  0
    5.2390   70.0120   67.1400 C   0  0  0  0  0  0  0  0  0  0  0  0
    3.9310   69.6440   66.8170 C   0  0  0  0  0  0  0  0  0  0  0  0
    5.1647   67.2764   65.1863 H   0  0  0  0  0  0  0  0  0  0  0  0
    6.5511   68.7116   63.6913 H   0  0  0  0  0  0  0  0  0  0  0  0
    5.5592   69.6824   61.6202 H   0  0  0  0  0  0  0  0  0  0  0  0
    3.1783   69.2184   61.0424 H   0  0  0  0  0  0  0  0  0  0  0  0
    1.7860   67.7883   62.5386 H   0  0  0  0  0  0  0  0  0  0  0  0
    2.4029   70.4207   69.7691 H   0  0  0  0  0  0  0  0  0  0  0  0
    4.7416   71.0746   70.3426 H   0  0  0  0  0  0  0  0  0  0  0  0
    6.5599   70.8113   68.6562 H   0  0  0  0  0  0  0  0  0  0  0  0
    6.0412   69.8982   66.3961 H   0  0  0  0  0  0  0  0  0  0  0  0
    3.7044   69.2475   65.8163 H   0  0  0  0  0  0  0  0  0  0  0  0
  2  1  2  0
  3  2  1  0
  4  3  2  0
  5  3  1  0
  6  5  1  0
  7  6  2  0
  8  7  1  0
  9  8  2  0
 10  9  1  0
 11 10  2  0
 11  6  1  0
 12  2  1  0
 13 12  1  0
 14 13  2  0
 15 14  1  0
 16 15  2  0
 17 16  1  0
 18 17  2  0
 18 13  1  0
  7 19  1  0
  8 20  1  0
  9 21  1  0
 10 22  1  0
 11 23  1  0
 14 24  1  0
 15 25  1  0
 16 26  1  0
 17 27  1  0
 18 28  1  0
M  END
>  <score>  (3) 
-8.389

$$$$
=
     RDKit          3D

 28 29  0  0  0  0  0  0  0  0999 V2000
    4.8860   67.0230   64.2450 O   0  0  0  0  0  0  0  0  0  0  0  0
    3.7960   67.4510   64.5710 C   0  0  0  0  0  0  0  0  0  0  0  0
    2.5820   66.6250   64.9500 C   0  0  0  0  0  0  0  0  0  0  0  0
    2.5490   65.4190   65.0980 O   0  0  0  0  0  0  0  0  0  0  0  0
    1.2930   67.7860   65.0800 S   0  0  0  0  0  0  0  0  0  0  0  0
    0.5900   67.3710   66.6600 C   0  0  0  0  0  0  0  0  0  0  0  0
    1.3880   67.2860   67.8070 C   0  0  0  0  0  0  0  0  0  0  0  0
    0.8150   66.9810   69.0430 C   0  0  0  0  0  0  0  0  0  0  0  0
   -0.5580   66.7690   69.1430 C   0  0  0  0  0  0  0  0  0  0  0  0
   -1.3610   66.8630   68.0080 C   0  0  0  0  0  0  0  0  0  0  0  0
   -0.7890   67.1660   66.7700 C   0  0  0  0  0  0  0  0  0  0  0  0
    3.2680   69.1000   64.7480 S   0  0  0  0  0  0  0  0  0  0  0  0
    4.2700   69.6550   66.1110 C   0  0  0  0  0  0  0  0  0  0  0  0
    3.6790   69.8610   67.3620 C   0  0  0  0  0  0  0  0  0  0  0  0
    4.4450   70.3200   68.4360 C   0  0  0  0  0  0  0  0  0  0  0  0
    5.8040   70.5810   68.2620 C   0  0  0  0  0  0  0  0  0  0  0  0
    6.3960   70.3880   67.0160 C   0  0  0  0  0  0  0  0  0  0  0  0
    5.6310   69.9300   65.9410 C   0  0  0  0  0  0  0  0  0  0  0  0
    2.4716   67.4603   67.7341 H   0  0  0  0  0  0  0  0  0  0  0  0
    1.4487   66.9080   69.9391 H   0  0  0  0  0  0  0  0  0  0  0  0
   -1.0081   66.5275   70.1172 H   0  0  0  0  0  0  0  0  0  0  0  0
   -2.4458   66.6985   68.0869 H   0  0  0  0  0  0  0  0  0  0  0  0
   -1.4266   67.2437   65.8770 H   0  0  0  0  0  0  0  0  0  0  0  0
    2.6063   69.6606   67.5005 H   0  0  0  0  0  0  0  0  0  0  0  0
    3.9765   70.4756   69.4190 H   0  0  0  0  0  0  0  0  0  0  0  0
    6.4082   70.9392   69.1086 H   0  0  0  0  0  0  0  0  0  0  0  0
    7.4673   70.5966   66.8785 H   0  0  0  0  0  0  0  0  0  0  0  0
    6.1005   69.7850   64.9569 H   0  0  0  0  0  0  0  0  0  0  0  0
  2  1  2  0
  3  2  1  0
  4  3  2  0
  5  3  1  0
  6  5  1  0
  7  6  2  0
  8  7  1  0
  9  8  2  0
 10  9  1  0
 11 10  2  0
 11  6  1  0
 12  2  1  0
 13 12  1  0
 14 13  2  0
 15 14  1  0
 16 15  2  0
 17 16  1  0
 18 17  2  0
 18 13  1  0
  7 19  1  0
  8 20  1  0
  9 21  1  0
 10 22  1  0
 11 23  1  0
 14 24  1  0
 15 25  1  0
 16 26  1  0
 17 27  1  0
 18 28  1  0
M  END
>  <score>  (4) 
-8.268

$$$$
=
     RDKit          3D

 28 29  0  0  0  0  0  0  0  0999 V2000
   -0.8250   66.4600   68.4370 O   0  0  0  0  0  0  0  0  0  0  0  0
    0.3290   66.8350   68.4980 C   0  0  0  0  0  0  0  0  0  0  0  0
    1.1470   67.4160   67.3610 C   0  0  0  0  0  0  0  0  0  0  0  0
    1.7310   66.7900   66.4990 O   0  0  0  0  0  0  0  0  0  0  0  0
    1.0740   69.1370   67.6130 S   0  0  0  0  0  0  0  0  0  0  0  0
    2.7980   69.5780   67.5970 C   0  0  0  0  0  0  0  0  0  0  0  0
    3.5800   69.3950   66.4500 C   0  0  0  0  0  0  0  0  0  0  0  0
    4.9260   69.7680   66.4490 C   0  0  0  0  0  0  0  0  0  0  0  0
    5.4940   70.3350   67.5870 C   0  0  0  0  0  0  0  0  0  0  0  0
    4.7190   70.5310   68.7290 C   0  0  0  0  0  0  0  0  0  0  0  0
    3.3730   70.1560   68.7320 C   0  0  0  0  0  0  0  0  0  0  0  0
    1.4040   66.8730   69.8660 S   0  0  0  0  0  0  0  0  0  0  0  0
    1.3600   65.1780   70.4080 C   0  0  0  0  0  0  0  0  0  0  0  0
    0.2280   64.6950   71.0710 C   0  0  0  0  0  0  0  0  0  0  0  0
    0.1860   63.3740   71.5240 C   0  0  0  0  0  0  0  0  0  0  0  0
    1.2800   62.5330   71.3210 C   0  0  0  0  0  0  0  0  0  0  0  0
    2.4150   63.0110   70.6710 C   0  0  0  0  0  0  0  0  0  0  0  0
    2.4580   64.3320   70.2180 C   0  0  0  0  0  0  0  0  0  0  0  0
    3.1325   68.9558   65.5462 H   0  0  0  0  0  0  0  0  0  0  0  0
    5.5381   69.6137   65.5482 H   0  0  0  0  0  0  0  0  0  0  0  0
    6.5542   70.6282   67.5848 H   0  0  0  0  0  0  0  0  0  0  0  0
    5.1669   70.9807   69.6274 H   0  0  0  0  0  0  0  0  0  0  0  0
    2.7625   70.3166   69.6328 H   0  0  0  0  0  0  0  0  0  0  0  0
   -0.6338   65.3582   71.2368 H   0  0  0  0  0  0  0  0  0  0  0  0
   -0.7093   62.9975   72.0404 H   0  0  0  0  0  0  0  0  0  0  0  0
    1.2462   61.4919   71.6744 H   0  0  0  0  0  0  0  0  0  0  0  0
    3.2785   62.3479   70.5141 H   0  0  0  0  0  0  0  0  0  0  0  0
    3.3583   64.7082   69.7102 H   0  0  0  0  0  0  0  0  0  0  0  0
  2  1  2  0
  3  2  1  0
  4  3  2  0
  5  3  1  0
  6  5  1  0
  7  6  2  0
  8  7  1  0
  9  8  2  0
 10  9  1  0
 11 10  2  0
 11  6  1  0
 12  2  1  0
 13 12  1  0
 14 13  2  0
 15 14  1  0
 16 15  2  0
 17 16  1  0
 18 17  2  0
 18 13  1  0
  7 19  1  0
  8 20  1  0
  9 21  1  0
 10 22  1  0
 11 23  1  0
 14 24  1  0
 15 25  1  0
 16 26  1  0
 17 27  1  0
 18 28  1  0
M  END
>  <score>  (5) 
-8.142

$$$$
=
     RDKit          3D

 28 29  0  0  0  0  0  0  0  0999 V2000
    1.3910   70.5320   68.3370 O   0  0  0  0  0  0  0  0  0  0  0  0
    1.8960   69.5360   67.8580 C   0  0  0  0  0  0  0  0  0  0  0  0
    1.6180   68.1020   68.2650 C   0  0  0  0  0  0  0  0  0  0  0  0
    1.6980   67.6420   69.3860 O   0  0  0  0  0  0  0  0  0  0  0  0
    1.2070   67.3030   66.7740 S   0  0  0  0  0  0  0  0  0  0  0  0
   -0.5190   67.7050   66.6120 C   0  0  0  0  0  0  0  0  0  0  0  0
   -0.9580   68.6370   65.6650 C   0  0  0  0  0  0  0  0  0  0  0  0
   -2.3190   68.9230   65.5360 C   0  0  0  0  0  0  0  0  0  0  0  0
   -3.2480   68.2730   66.3450 C   0  0  0  0  0  0  0  0  0  0  0  0
   -2.8200   67.3360   67.2830 C   0  0  0  0  0  0  0  0  0  0  0  0
   -1.4590   67.0500   67.4140 C   0  0  0  0  0  0  0  0  0  0  0  0
    3.0480   69.4000   66.5600 S   0  0  0  0  0  0  0  0  0  0  0  0
    4.5400   69.9820   67.3370 C   0  0  0  0  0  0  0  0  0  0  0  0
    5.7410   69.9700   66.6210 C   0  0  0  0  0  0  0  0  0  0  0  0
    6.9250   70.4000   67.2230 C   0  0  0  0  0  0  0  0  0  0  0  0
    6.9150   70.8370   68.5470 C   0  0  0  0  0  0  0  0  0  0  0  0
    5.7240   70.8420   69.2690 C   0  0  0  0  0  0  0  0  0  0  0  0
    4.5390   70.4120   68.6680 C   0  0  0  0  0  0  0  0  0  0  0  0
   -0.2278   69.1467   65.0192 H   0  0  0  0  0  0  0  0  0  0  0  0
   -2.6575   69.6621   64.7950 H   0  0  0  0  0  0  0  0  0  0  0  0
   -4.3196   68.4995   66.2433 H   0  0  0  0  0  0  0  0  0  0  0  0
   -3.5539   66.8213   67.9205 H   0  0  0  0  0  0  0  0  0  0  0  0
   -1.1249   66.3057   68.1518 H   0  0  0  0  0  0  0  0  0  0  0  0
    5.7530   69.6200   65.5782 H   0  0  0  0  0  0  0  0  0  0  0  0
    7.8657   70.3940   66.6528 H   0  0  0  0  0  0  0  0  0  0  0  0
    7.8473   71.1777   69.0211 H   0  0  0  0  0  0  0  0  0  0  0  0
    5.7167   71.1851   70.3141 H   0  0  0  0  0  0  0  0  0  0  0  0
    3.6015   70.4115   69.2434 H   0  0  0  0  0  0  0  0  0  0  0  0
  2  1  2  0
  3  2  1  0
  4  3  2  0
  5  3  1  0
  6  5  1  0
  7  6  2  0
  8  7  1  0
  9  8  2  0
 10  9  1  0
 11 10  2  0
 11  6  1  0
 12  2  1  0
 13 12  1  0
 14 13  2  0
 15 14  1  0
 16 15  2  0
 17 16  1  0
 18 17  2  0
 18 13  1  0
  7 19  1  0
  8 20  1  0
  9 21  1  0
 10 22  1  0
 11 23  1  0
 14 24  1  0
 15 25  1  0
 16 26  1  0
 17 27  1  0
 18 28  1  0
M  END
>  <score>  (6) 
-8.061

$$$$
=
     RDKit          3D

 28 29  0  0  0  0  0  0  0  0999 V2000
    1.4410   67.0550   67.5260 O   0  0  0  0  0  0  0  0  0  0  0  0
    1.6600   67.5970   66.4610 C   0  0  0  0  0  0  0  0  0  0  0  0
    2.3210   68.9470   66.2570 C   0  0  0  0  0  0  0  0  0  0  0  0
    2.7090   69.4070   65.2020 O   0  0  0  0  0  0  0  0  0  0  0  0
    2.4130   69.6280   67.8560 S   0  0  0  0  0  0  0  0  0  0  0  0
    4.1450   70.0180   67.9830 C   0  0  0  0  0  0  0  0  0  0  0  0
    5.0090   69.8300   66.8980 C   0  0  0  0  0  0  0  0  0  0  0  0
    6.3610   70.1640   67.0090 C   0  0  0  0  0  0  0  0  0  0  0  0
    6.8530   70.6970   68.1980 C   0  0  0  0  0  0  0  0  0  0  0  0
    5.9960   70.8970   69.2790 C   0  0  0  0  0  0  0  0  0  0  0  0
    4.6440   70.5620   69.1700 C   0  0  0  0  0  0  0  0  0  0  0  0
    1.3430   67.0250   64.8480 S   0  0  0  0  0  0  0  0  0  0  0  0
    2.7650   65.9970   64.5430 C   0  0  0  0  0  0  0  0  0  0  0  0
    3.8070   66.4810   63.7470 C   0  0  0  0  0  0  0  0  0  0  0  0
    4.9190   65.6790   63.4780 C   0  0  0  0  0  0  0  0  0  0  0  0
    4.9900   64.3870   63.9980 C   0  0  0  0  0  0  0  0  0  0  0  0
    3.9490   63.8960   64.7830 C   0  0  0  0  0  0  0  0  0  0  0  0
    2.8370   64.6960   65.0530 C   0  0  0  0  0  0  0  0  0  0  0  0
    4.6221   69.4178   65.9544 H   0  0  0  0  0  0  0  0  0  0  0  0
    7.0377   70.0058   66.1564 H   0  0  0  0  0  0  0  0  0  0  0  0
    7.9176   70.9601   68.2840 H   0  0  0  0  0  0  0  0  0  0  0  0
    6.3842   71.3186   70.2179 H   0  0  0  0  0  0  0  0  0  0  0  0
    3.9688   70.7272   70.0226 H   0  0  0  0  0  0  0  0  0  0  0  0
    3.7513   67.4976   63.3306 H   0  0  0  0  0  0  0  0  0  0  0  0
    5.7389   66.0669   62.8557 H   0  0  0  0  0  0  0  0  0  0  0  0
    5.8667   63.7564   63.7887 H   0  0  0  0  0  0  0  0  0  0  0  0
    4.0033   62.8759   65.1910 H   0  0  0  0  0  0  0  0  0  0  0  0
    2.0149   64.3022   65.6686 H   0  0  0  0  0  0  0  0  0  0  0  0
  2  1  2  0
  3  2  1  0
  4  3  2  0
  5  3  1  0
  6  5  1  0
  7  6  2  0
  8  7  1  0
  9  8  2  0
 10  9  1  0
 11 10  2  0
 11  6  1  0
 12  2  1  0
 13 12  1  0
 14 13  2  0
 15 14  1  0
 16 15  2  0
 17 16  1  0
 18 17  2  0
 18 13  1  0
  7 19  1  0
  8 20  1  0
  9 21  1  0
 10 22  1  0
 11 23  1  0
 14 24  1  0
 15 25  1  0
 16 26  1  0
 17 27  1  0
 18 28  1  0
M  END
>  <score>  (7) 
-7.815

$$$$
=
     RDKit          3D

 28 29  0  0  0  0  0  0  0  0999 V2000
    2.2760   66.1360   65.7610 O   0  0  0  0  0  0  0  0  0  0  0  0
    2.6370   67.1870   65.2710 C   0  0  0  0  0  0  0  0  0  0  0  0
    2.7430   68.5220   65.9830 C   0  0  0  0  0  0  0  0  0  0  0  0
    1.9590   68.9690   66.7970 O   0  0  0  0  0  0  0  0  0  0  0  0
    4.1910   69.2400   65.3400 S   0  0  0  0  0  0  0  0  0  0  0  0
    4.9670   69.8710   66.8120 C   0  0  0  0  0  0  0  0  0  0  0  0
    6.3430   70.1230   66.8520 C   0  0  0  0  0  0  0  0  0  0  0  0
    6.9310   70.6390   68.0090 C   0  0  0  0  0  0  0  0  0  0  0  0
    6.1470   70.9160   69.1270 C   0  0  0  0  0  0  0  0  0  0  0  0
    4.7740   70.6780   69.0900 C   0  0  0  0  0  0  0  0  0  0  0  0
    4.1850   70.1600   67.9340 C   0  0  0  0  0  0  0  0  0  0  0  0
    3.1760   67.5190   63.6500 S   0  0  0  0  0  0  0  0  0  0  0  0
    1.7710   68.3750   62.9700 C   0  0  0  0  0  0  0  0  0  0  0  0
    1.9070   69.0810   61.7710 C   0  0  0  0  0  0  0  0  0  0  0  0
    0.8220   69.7780   61.2350 C   0  0  0  0  0  0  0  0  0  0  0  0
   -0.4040   69.7770   61.9010 C   0  0  0  0  0  0  0  0  0  0  0  0
   -0.5440   69.0840   63.1010 C   0  0  0  0  0  0  0  0  0  0  0  0
    0.5410   68.3870   63.6370 C   0  0  0  0  0  0  0  0  0  0  0  0
    6.9640   69.9138   65.9685 H   0  0  0  0  0  0  0  0  0  0  0  0
    8.0144   70.8270   68.0376 H   0  0  0  0  0  0  0  0  0  0  0  0
    6.6110   71.3221   70.0379 H   0  0  0  0  0  0  0  0  0  0  0  0
    4.1540   70.8982   69.9715 H   0  0  0  0  0  0  0  0  0  0  0  0
    3.1004   69.9786   67.9066 H   0  0  0  0  0  0  0  0  0  0  0  0
    2.8741   69.0875   61.2468 H   0  0  0  0  0  0  0  0  0  0  0  0
    0.9339   70.3273   60.2886 H   0  0  0  0  0  0  0  0  0  0  0  0
   -1.2600   70.3235   61.4784 H   0  0  0  0  0  0  0  0  0  0  0  0
   -1.5101   69.0857   63.6270 H   0  0  0  0  0  0  0  0  0  0  0  0
    0.4282   67.8451   64.5876 H   0  0  0  0  0  0  0  0  0  0  0  0
  2  1  2  0
  3  2  1  0
  4  3  2  0
  5  3  1  0
  6  5  1  0
  7  6  2  0
  8  7  1  0
  9  8  2  0
 10  9  1  0
 11 10  2  0
 11  6  1  0
 12  2  1  0
 13 12  1  0
 14 13  2  0
 15 14  1  0
 16 15  2  0
 17 16  1  0
 18 17  2  0
 18 13  1  0
  7 19  1  0
  8 20  1  0
  9 21  1  0
 10 22  1  0
 11 23  1  0
 14 24  1  0
 15 25  1  0
 16 26  1  0
 17 27  1  0
 18 28  1  0
M  END
>  <score>  (8) 
-7.767

$$$$
=
     RDKit          3D

 28 29  0  0  0  0  0  0  0  0999 V2000
    4.3650   59.4760   73.6540 O   0  0  0  0  0  0  0  0  0  0  0  0
    3.5440   59.0930   72.8450 C   0  0  0  0  0  0  0  0  0  0  0  0
    2.1090   58.6960   73.1370 C   0  0  0  0  0  0  0  0  0  0  0  0
    1.4870   57.8000   72.6030 O   0  0  0  0  0  0  0  0  0  0  0  0
    1.5890   59.8240   74.3560 S   0  0  0  0  0  0  0  0  0  0  0  0
    1.1570   61.2430   73.3730 C   0  0  0  0  0  0  0  0  0  0  0  0
   -0.0430   61.2850   72.6530 C   0  0  0  0  0  0  0  0  0  0  0  0
   -0.3770   62.4160   71.9050 C   0  0  0  0  0  0  0  0  0  0  0  0
    0.4800   63.5140   71.8800 C   0  0  0  0  0  0  0  0  0  0  0  0
    1.6710   63.4840   72.6040 C   0  0  0  0  0  0  0  0  0  0  0  0
    2.0070   62.3530   73.3510 C   0  0  0  0  0  0  0  0  0  0  0  0
    3.6990   58.9050   71.1210 S   0  0  0  0  0  0  0  0  0  0  0  0
    3.8350   60.5980   70.5850 C   0  0  0  0  0  0  0  0  0  0  0  0
    4.8380   61.4120   71.1190 C   0  0  0  0  0  0  0  0  0  0  0  0
    4.9440   62.7490   70.7270 C   0  0  0  0  0  0  0  0  0  0  0  0
    4.0420   63.2780   69.8050 C   0  0  0  0  0  0  0  0  0  0  0  0
    3.0350   62.4750   69.2760 C   0  0  0  0  0  0  0  0  0  0  0  0
    2.9270   61.1380   69.6670 C   0  0  0  0  0  0  0  0  0  0  0  0
   -0.7260   60.4230   72.6766 H   0  0  0  0  0  0  0  0  0  0  0  0
   -1.3175   62.4399   71.3351 H   0  0  0  0  0  0  0  0  0  0  0  0
    0.2172   64.4040   71.2894 H   0  0  0  0  0  0  0  0  0  0  0  0
    2.3466   64.3519   72.5868 H   0  0  0  0  0  0  0  0  0  0  0  0
    2.9452   62.3352   73.9250 H   0  0  0  0  0  0  0  0  0  0  0  0
    5.5471   60.9982   71.8511 H   0  0  0  0  0  0  0  0  0  0  0  0
    5.7388   63.3838   71.1457 H   0  0  0  0  0  0  0  0  0  0  0  0
    4.1259   64.3302   69.4953 H   0  0  0  0  0  0  0  0  0  0  0  0
    2.3234   62.8938   68.5492 H   0  0  0  0  0  0  0  0  0  0  0  0
    2.1262   60.5081   69.2522 H   0  0  0  0  0  0  0  0  0  0  0  0
  2  1  2  0
  3  2  1  0
  4  3  2  0
  5  3  1  0
  6  5  1  0
  7  6  2  0
  8  7  1  0
  9  8  2  0
 10  9  1  0
 11 10  2  0
 11  6  1  0
 12  2  1  0
 13 12  1  0
 14 13  2  0
 15 14  1  0
 16 15  2  0
 17 16  1  0
 18 17  2  0
 18 13  1  0
  7 19  1  0
  8 20  1  0
  9 21  1  0
 10 22  1  0
 11 23  1  0
 14 24  1  0
 15 25  1  0
 16 26  1  0
 17 27  1  0
 18 28  1  0
M  END
>  <score>  (9) 
-7.579

$$$$
