=
     RDKit          3D

 22 23  0  0  0  0  0  0  0  0999 V2000
    2.8520   69.4620   66.9630 N   0  0  0  0  0  0  0  0  0  0  0  0
    4.0470   69.9200   67.5450 C   0  0  0  0  0  0  0  0  0  0  0  0
    4.2710   70.3700   68.8320 C   0  0  0  0  0  0  0  0  0  0  0  0
    5.5690   70.7760   69.1720 C   0  0  0  0  0  0  0  0  0  0  0  0
    6.6150   70.7310   68.2300 C   0  0  0  0  0  0  0  0  0  0  0  0
    6.3830   70.2830   66.9300 C   0  0  0  0  0  0  0  0  0  0  0  0
    5.0950   69.8890   66.6230 C   0  0  0  0  0  0  0  0  0  0  0  0
    4.5530   69.3950   65.3580 C   0  0  0  0  0  0  0  0  0  0  0  0
    5.1560   69.2320   64.3230 O   0  0  0  0  0  0  0  0  0  0  0  0
    3.0500   69.1350   65.6260 C   0  0  0  0  0  0  0  0  0  0  0  0
    2.2510   68.7430   64.8030 O   0  0  0  0  0  0  0  0  0  0  0  0
    1.5760   69.3560   67.6400 C   0  0  0  0  0  0  0  0  0  0  0  0
   -0.8280   67.4740   67.2470 I   0  0  0  0  0  0  0  0  0  0  0  0
    1.1380   67.9200   67.9530 C   0  0  0  0  0  0  0  0  0  0  0  0
    3.4547   70.4086   69.5683 H   0  0  0  0  0  0  0  0  0  0  0  0
    5.7739   71.1356   70.1912 H   0  0  0  0  0  0  0  0  0  0  0  0
    7.6254   71.0526   68.5228 H   0  0  0  0  0  0  0  0  0  0  0  0
    7.1892   70.2450   66.1826 H   0  0  0  0  0  0  0  0  0  0  0  0
    1.6437   69.9088   68.5886 H   0  0  0  0  0  0  0  0  0  0  0  0
    0.8228   69.7695   66.9532 H   0  0  0  0  0  0  0  0  0  0  0  0
    1.1597   67.7768   69.0434 H   0  0  0  0  0  0  0  0  0  0  0  0
    1.8345   67.2436   67.4359 H   0  0  0  0  0  0  0  0  0  0  0  0
  2  1  1  0
  3  2  2  0
  4  3  1  0
  5  4  2  0
  6  5  1  0
  7  2  1  0
  7  6  2  0
  8  7  1  0
  9  8  2  0
 10  8  1  0
 10  1  1  0
 11 10  2  0
 12  1  1  0
 14 13  1  0
 14 12  1  0
  3 15  1  0
  4 16  1  0
  5 17  1  0
  6 18  1  0
 12 19  1  0
 12 20  1  0
 14 21  1  0
 14 22  1  0
M  END
>  <score>  (1) 
-7.826

$$$$
=
     RDKit          3D

 22 23  0  0  0  0  0  0  0  0999 V2000
    1.5390   68.7240   65.2240 N   0  0  0  0  0  0  0  0  0  0  0  0
    2.8750   69.0780   65.4780 C   0  0  0  0  0  0  0  0  0  0  0  0
    3.4580   69.4830   66.6640 C   0  0  0  0  0  0  0  0  0  0  0  0
    4.8270   69.7830   66.6560 C   0  0  0  0  0  0  0  0  0  0  0  0
    5.5880   69.6810   65.4760 C   0  0  0  0  0  0  0  0  0  0  0  0
    4.9940   69.2800   64.2790 C   0  0  0  0  0  0  0  0  0  0  0  0
    3.6440   68.9890   64.3160 C   0  0  0  0  0  0  0  0  0  0  0  0
    2.7570   68.5650   63.2340 C   0  0  0  0  0  0  0  0  0  0  0  0
    3.0580   68.3810   62.0770 O   0  0  0  0  0  0  0  0  0  0  0  0
    1.3590   68.4120   63.8810 C   0  0  0  0  0  0  0  0  0  0  0  0
    0.3460   68.0990   63.2920 O   0  0  0  0  0  0  0  0  0  0  0  0
    0.4760   68.6980   66.2080 C   0  0  0  0  0  0  0  0  0  0  0  0
   -1.9370   67.2160   67.4150 I   0  0  0  0  0  0  0  0  0  0  0  0
    0.0610   67.2930   66.6610 C   0  0  0  0  0  0  0  0  0  0  0  0
    2.8651   69.5673   67.5867 H   0  0  0  0  0  0  0  0  0  0  0  0
    5.3154   70.1038   67.5880 H   0  0  0  0  0  0  0  0  0  0  0  0
    6.6615   69.9198   65.4980 H   0  0  0  0  0  0  0  0  0  0  0  0
    5.5743   69.1992   63.3480 H   0  0  0  0  0  0  0  0  0  0  0  0
    0.8132   69.2582   67.0925 H   0  0  0  0  0  0  0  0  0  0  0  0
   -0.4065   69.1440   65.7261 H   0  0  0  0  0  0  0  0  0  0  0  0
    0.7481   66.9631   67.4541 H   0  0  0  0  0  0  0  0  0  0  0  0
    0.1060   66.6362   65.7798 H   0  0  0  0  0  0  0  0  0  0  0  0
  2  1  1  0
  3  2  2  0
  4  3  1  0
  5  4  2  0
  6  5  1  0
  7  2  1  0
  7  6  2  0
  8  7  1  0
  9  8  2  0
 10  8  1  0
 10  1  1  0
 11 10  2  0
 12  1  1  0
 14 13  1  0
 14 12  1  0
  3 15  1  0
  4 16  1  0
  5 17  1  0
  6 18  1  0
 12 19  1  0
 12 20  1  0
 14 21  1  0
 14 22  1  0
M  END
>  <score>  (2) 
-7.53

$$$$
=
     RDKit          3D

 22 23  0  0  0  0  0  0  0  0999 V2000
    3.1490   69.3190   66.3170 N   0  0  0  0  0  0  0  0  0  0  0  0
    4.4270   69.7430   66.7170 C   0  0  0  0  0  0  0  0  0  0  0  0
    5.6100   69.7360   66.0010 C   0  0  0  0  0  0  0  0  0  0  0  0
    6.7650   70.2180   66.6320 C   0  0  0  0  0  0  0  0  0  0  0  0
    6.7260   70.6930   67.9570 C   0  0  0  0  0  0  0  0  0  0  0  0
    5.5320   70.6910   68.6780 C   0  0  0  0  0  0  0  0  0  0  0  0
    4.4100   70.2110   68.0320 C   0  0  0  0  0  0  0  0  0  0  0  0
    3.0420   70.0740   68.5280 C   0  0  0  0  0  0  0  0  0  0  0  0
    2.6340   70.3710   69.6270 O   0  0  0  0  0  0  0  0  0  0  0  0
    2.2360   69.4620   67.3560 C   0  0  0  0  0  0  0  0  0  0  0  0
    1.0590   69.1720   67.3930 O   0  0  0  0  0  0  0  0  0  0  0  0
    2.8110   68.7870   65.0130 C   0  0  0  0  0  0  0  0  0  0  0  0
    4.1950   66.3980   63.6510 I   0  0  0  0  0  0  0  0  0  0  0  0
    2.7320   67.2570   64.9500 C   0  0  0  0  0  0  0  0  0  0  0  0
    5.6436   69.3631   64.9667 H   0  0  0  0  0  0  0  0  0  0  0  0
    7.7181   70.2253   66.0828 H   0  0  0  0  0  0  0  0  0  0  0  0
    7.6461   71.0693   68.4280 H   0  0  0  0  0  0  0  0  0  0  0  0
    5.4862   71.0555   69.7148 H   0  0  0  0  0  0  0  0  0  0  0  0
    1.8320   69.1937   64.7195 H   0  0  0  0  0  0  0  0  0  0  0  0
    3.6229   69.0860   64.3337 H   0  0  0  0  0  0  0  0  0  0  0  0
    1.7326   66.9722   64.5893 H   0  0  0  0  0  0  0  0  0  0  0  0
    2.9271   66.8755   65.9631 H   0  0  0  0  0  0  0  0  0  0  0  0
  2  1  1  0
  3  2  2  0
  4  3  1  0
  5  4  2  0
  6  5  1  0
  7  2  1  0
  7  6  2  0
  8  7  1  0
  9  8  2  0
 10  8  1  0
 10  1  1  0
 11 10  2  0
 12  1  1  0
 14 13  1  0
 14 12  1  0
  3 15  1  0
  4 16  1  0
  5 17  1  0
  6 18  1  0
 12 19  1  0
 12 20  1  0
 14 21  1  0
 14 22  1  0
M  END
>  <score>  (3) 
-7.455

$$$$
=
     RDKit          3D

 22 23  0  0  0  0  0  0  0  0999 V2000
    3.4690   68.9880   65.1800 N   0  0  0  0  0  0  0  0  0  0  0  0
    4.3010   69.5840   66.1440 C   0  0  0  0  0  0  0  0  0  0  0  0
    5.6250   69.9630   66.0340 C   0  0  0  0  0  0  0  0  0  0  0  0
    6.2380   70.5440   67.1530 C   0  0  0  0  0  0  0  0  0  0  0  0
    5.5300   70.7320   68.3560 C   0  0  0  0  0  0  0  0  0  0  0  0
    4.1960   70.3410   68.4630 C   0  0  0  0  0  0  0  0  0  0  0  0
    3.6170   69.7720   67.3460 C   0  0  0  0  0  0  0  0  0  0  0  0
    2.2600   69.2580   67.1640 C   0  0  0  0  0  0  0  0  0  0  0  0
    1.3720   69.2440   67.9850 O   0  0  0  0  0  0  0  0  0  0  0  0
    2.2090   68.7320   65.7090 C   0  0  0  0  0  0  0  0  0  0  0  0
    1.2490   68.2010   65.1910 O   0  0  0  0  0  0  0  0  0  0  0  0
    3.8570   68.6610   63.8230 C   0  0  0  0  0  0  0  0  0  0  0  0
    4.0410   65.5890   63.8590 I   0  0  0  0  0  0  0  0  0  0  0  0
    4.8970   67.5410   63.7100 C   0  0  0  0  0  0  0  0  0  0  0  0
    6.1813   69.8134   65.0969 H   0  0  0  0  0  0  0  0  0  0  0  0
    7.2902   70.8585   67.0904 H   0  0  0  0  0  0  0  0  0  0  0  0
    6.0341   71.1915   69.2190 H   0  0  0  0  0  0  0  0  0  0  0  0
    3.6299   70.4796   69.3959 H   0  0  0  0  0  0  0  0  0  0  0  0
    2.9561   68.3496   63.2740 H   0  0  0  0  0  0  0  0  0  0  0  0
    4.3251   69.5648   63.4058 H   0  0  0  0  0  0  0  0  0  0  0  0
    5.6333   67.6635   64.5180 H   0  0  0  0  0  0  0  0  0  0  0  0
    5.3610   67.6219   62.7159 H   0  0  0  0  0  0  0  0  0  0  0  0
  2  1  1  0
  3  2  2  0
  4  3  1  0
  5  4  2  0
  6  5  1  0
  7  2  1  0
  7  6  2  0
  8  7  1  0
  9  8  2  0
 10  8  1  0
 10  1  1  0
 11 10  2  0
 12  1  1  0
 14 13  1  0
 14 12  1  0
  3 15  1  0
  4 16  1  0
  5 17  1  0
  6 18  1  0
 12 19  1  0
 12 20  1  0
 14 21  1  0
 14 22  1  0
M  END
>  <score>  (4) 
-7.41

$$$$
=
     RDKit          3D

 22 23  0  0  0  0  0  0  0  0999 V2000
    2.7420   68.4620   64.9260 N   0  0  0  0  0  0  0  0  0  0  0  0
    3.5070   69.1210   65.9030 C   0  0  0  0  0  0  0  0  0  0  0  0
    3.2010   69.3670   67.2290 C   0  0  0  0  0  0  0  0  0  0  0  0
    4.1440   70.0520   68.0070 C   0  0  0  0  0  0  0  0  0  0  0  0
    5.3670   70.4830   67.4570 C   0  0  0  0  0  0  0  0  0  0  0  0
    5.6680   70.2390   66.1170 C   0  0  0  0  0  0  0  0  0  0  0  0
    4.7220   69.5620   65.3740 C   0  0  0  0  0  0  0  0  0  0  0  0
    4.7490   69.1810   63.9620 C   0  0  0  0  0  0  0  0  0  0  0  0
    5.6370   69.3930   63.1690 O   0  0  0  0  0  0  0  0  0  0  0  0
    3.4030   68.4610   63.7030 C   0  0  0  0  0  0  0  0  0  0  0  0
    3.0410   68.0210   62.6320 O   0  0  0  0  0  0  0  0  0  0  0  0
    1.4360   67.8740   65.1380 C   0  0  0  0  0  0  0  0  0  0  0  0
   -1.2910   68.7340   66.2800 I   0  0  0  0  0  0  0  0  0  0  0  0
    0.2590   68.8000   64.8100 C   0  0  0  0  0  0  0  0  0  0  0  0
    2.2453   69.0347   67.6604 H   0  0  0  0  0  0  0  0  0  0  0  0
    3.9254   70.2566   69.0655 H   0  0  0  0  0  0  0  0  0  0  0  0
    6.0912   71.0168   68.0899 H   0  0  0  0  0  0  0  0  0  0  0  0
    6.6174   70.5715   65.6720 H   0  0  0  0  0  0  0  0  0  0  0  0
    1.3556   66.9789   64.5038 H   0  0  0  0  0  0  0  0  0  0  0  0
    1.3659   67.6488   66.2124 H   0  0  0  0  0  0  0  0  0  0  0  0
   -0.1644   68.4987   63.8405 H   0  0  0  0  0  0  0  0  0  0  0  0
    0.6467   69.8291   64.7869 H   0  0  0  0  0  0  0  0  0  0  0  0
  2  1  1  0
  3  2  2  0
  4  3  1  0
  5  4  2  0
  6  5  1  0
  7  2  1  0
  7  6  2  0
  8  7  1  0
  9  8  2  0
 10  8  1  0
 10  1  1  0
 11 10  2  0
 12  1  1  0
 14 13  1  0
 14 12  1  0
  3 15  1  0
  4 16  1  0
  5 17  1  0
  6 18  1  0
 12 19  1  0
 12 20  1  0
 14 21  1  0
 14 22  1  0
M  END
>  <score>  (5) 
-7.386

$$$$
=
     RDKit          3D

 22 23  0  0  0  0  0  0  0  0999 V2000
    4.8380   69.7340   65.8300 N   0  0  0  0  0  0  0  0  0  0  0  0
    3.5590   69.4030   66.3100 C   0  0  0  0  0  0  0  0  0  0  0  0
    2.4850   68.8680   65.6250 C   0  0  0  0  0  0  0  0  0  0  0  0
    1.3030   68.6250   66.3390 C   0  0  0  0  0  0  0  0  0  0  0  0
    1.2080   68.9220   67.7130 C   0  0  0  0  0  0  0  0  0  0  0  0
    2.2930   69.4690   68.3980 C   0  0  0  0  0  0  0  0  0  0  0  0
    3.4450   69.6970   67.6700 C   0  0  0  0  0  0  0  0  0  0  0  0
    4.7190   70.2660   68.1050 C   0  0  0  0  0  0  0  0  0  0  0  0
    5.0030   70.6470   69.2170 O   0  0  0  0  0  0  0  0  0  0  0  0
    5.6150   70.2850   66.8430 C   0  0  0  0  0  0  0  0  0  0  0  0
    6.7480   70.7170   66.7960 O   0  0  0  0  0  0  0  0  0  0  0  0
    5.2970   69.5520   64.4690 C   0  0  0  0  0  0  0  0  0  0  0  0
    4.4630   67.3300   62.5070 I   0  0  0  0  0  0  0  0  0  0  0  0
    5.6520   68.1050   64.1040 C   0  0  0  0  0  0  0  0  0  0  0  0
    2.5552   68.6395   64.5513 H   0  0  0  0  0  0  0  0  0  0  0  0
    0.4351   68.1952   65.8175 H   0  0  0  0  0  0  0  0  0  0  0  0
    0.2696   68.7207   68.2505 H   0  0  0  0  0  0  0  0  0  0  0  0
    2.2341   69.7082   69.4701 H   0  0  0  0  0  0  0  0  0  0  0  0
    4.5012   69.8920   63.7900 H   0  0  0  0  0  0  0  0  0  0  0  0
    6.2247   70.1351   64.3718 H   0  0  0  0  0  0  0  0  0  0  0  0
    5.5016   67.4728   64.9915 H   0  0  0  0  0  0  0  0  0  0  0  0
    6.6992   68.0984   63.7673 H   0  0  0  0  0  0  0  0  0  0  0  0
  2  1  1  0
  3  2  2  0
  4  3  1  0
  5  4  2  0
  6  5  1  0
  7  2  1  0
  7  6  2  0
  8  7  1  0
  9  8  2  0
 10  8  1  0
 10  1  1  0
 11 10  2  0
 12  1  1  0
 14 13  1  0
 14 12  1  0
  3 15  1  0
  4 16  1  0
  5 17  1  0
  6 18  1  0
 12 19  1  0
 12 20  1  0
 14 21  1  0
 14 22  1  0
M  END
>  <score>  (6) 
-6.93

$$$$
=
     RDKit          3D

 22 23  0  0  0  0  0  0  0  0999 V2000
    3.7940   68.8470   64.7810 N   0  0  0  0  0  0  0  0  0  0  0  0
    3.3240   69.0610   66.0880 C   0  0  0  0  0  0  0  0  0  0  0  0
    2.1600   68.6050   66.6790 C   0  0  0  0  0  0  0  0  0  0  0  0
    1.9160   68.9610   68.0130 C   0  0  0  0  0  0  0  0  0  0  0  0
    2.8260   69.7620   68.7310 C   0  0  0  0  0  0  0  0  0  0  0  0
    3.9950   70.2250   68.1280 C   0  0  0  0  0  0  0  0  0  0  0  0
    4.2100   69.8590   66.8130 C   0  0  0  0  0  0  0  0  0  0  0  0
    5.3210   70.2000   65.9260 C   0  0  0  0  0  0  0  0  0  0  0  0
    6.2840   70.8800   66.1950 O   0  0  0  0  0  0  0  0  0  0  0  0
    4.9960   69.5150   64.5760 C   0  0  0  0  0  0  0  0  0  0  0  0
    5.6750   69.5900   63.5730 O   0  0  0  0  0  0  0  0  0  0  0  0
    3.1260   68.0580   63.7670 C   0  0  0  0  0  0  0  0  0  0  0  0
    4.1510   65.1660   64.0150 I   0  0  0  0  0  0  0  0  0  0  0  0
    4.0320   67.0600   63.0350 C   0  0  0  0  0  0  0  0  0  0  0  0
    1.4470   67.9817   66.1194 H   0  0  0  0  0  0  0  0  0  0  0  0
    0.9986   68.6090   68.5074 H   0  0  0  0  0  0  0  0  0  0  0  0
    2.6122   70.0247   69.7775 H   0  0  0  0  0  0  0  0  0  0  0  0
    4.7137   70.8533   68.6746 H   0  0  0  0  0  0  0  0  0  0  0  0
    2.3145   67.4942   64.2503 H   0  0  0  0  0  0  0  0  0  0  0  0
    2.7656   68.7672   63.0073 H   0  0  0  0  0  0  0  0  0  0  0  0
    5.0441   67.4863   62.9721 H   0  0  0  0  0  0  0  0  0  0  0  0
    3.5959   66.8886   62.0398 H   0  0  0  0  0  0  0  0  0  0  0  0
  2  1  1  0
  3  2  2  0
  4  3  1  0
  5  4  2  0
  6  5  1  0
  7  2  1  0
  7  6  2  0
  8  7  1  0
  9  8  2  0
 10  8  1  0
 10  1  1  0
 11 10  2  0
 12  1  1  0
 14 13  1  0
 14 12  1  0
  3 15  1  0
  4 16  1  0
  5 17  1  0
  6 18  1  0
 12 19  1  0
 12 20  1  0
 14 21  1  0
 14 22  1  0
M  END
>  <score>  (7) 
-6.893

$$$$
=
     RDKit          3D

 22 23  0  0  0  0  0  0  0  0999 V2000
    2.2090   68.4640   66.0660 N   0  0  0  0  0  0  0  0  0  0  0  0
    3.1400   68.6540   65.0310 C   0  0  0  0  0  0  0  0  0  0  0  0
    3.1120   68.1730   63.7360 C   0  0  0  0  0  0  0  0  0  0  0  0
    4.1740   68.5090   62.8850 C   0  0  0  0  0  0  0  0  0  0  0  0
    5.2430   69.3090   63.3350 C   0  0  0  0  0  0  0  0  0  0  0  0
    5.2710   69.7850   64.6450 C   0  0  0  0  0  0  0  0  0  0  0  0
    4.2110   69.4400   65.4610 C   0  0  0  0  0  0  0  0  0  0  0  0
    3.9750   69.7730   66.8650 C   0  0  0  0  0  0  0  0  0  0  0  0
    4.6850   70.4380   67.5840 O   0  0  0  0  0  0  0  0  0  0  0  0
    2.6340   69.0910   67.2320 C   0  0  0  0  0  0  0  0  0  0  0  0
    2.1140   69.1150   68.3270 O   0  0  0  0  0  0  0  0  0  0  0  0
    0.9790   67.7070   65.9590 C   0  0  0  0  0  0  0  0  0  0  0  0
   -1.9090   67.8190   67.0200 I   0  0  0  0  0  0  0  0  0  0  0  0
   -0.2880   68.5630   65.8430 C   0  0  0  0  0  0  0  0  0  0  0  0
    2.2807   67.5449   63.3832 H   0  0  0  0  0  0  0  0  0  0  0  0
    4.1728   68.1418   61.8481 H   0  0  0  0  0  0  0  0  0  0  0  0
    6.0631   69.5603   62.6463 H   0  0  0  0  0  0  0  0  0  0  0  0
    6.1001   70.4075   65.0125 H   0  0  0  0  0  0  0  0  0  0  0  0
    1.0452   67.0689   65.0654 H   0  0  0  0  0  0  0  0  0  0  0  0
    0.8835   67.1328   66.8924 H   0  0  0  0  0  0  0  0  0  0  0  0
   -0.6012   68.5844   64.7888 H   0  0  0  0  0  0  0  0  0  0  0  0
   -0.0422   69.5672   66.2189 H   0  0  0  0  0  0  0  0  0  0  0  0
  2  1  1  0
  3  2  2  0
  4  3  1  0
  5  4  2  0
  6  5  1  0
  7  2  1  0
  7  6  2  0
  8  7  1  0
  9  8  2  0
 10  8  1  0
 10  1  1  0
 11 10  2  0
 12  1  1  0
 14 13  1  0
 14 12  1  0
  3 15  1  0
  4 16  1  0
  5 17  1  0
  6 18  1  0
 12 19  1  0
 12 20  1  0
 14 21  1  0
 14 22  1  0
M  END
>  <score>  (8) 
-6.862

$$$$
=
     RDKit          3D

 22 23  0  0  0  0  0  0  0  0999 V2000
    2.5150   60.2760   72.0460 N   0  0  0  0  0  0  0  0  0  0  0  0
    2.7200   61.4380   71.2830 C   0  0  0  0  0  0  0  0  0  0  0  0
    2.3920   62.7460   71.5850 C   0  0  0  0  0  0  0  0  0  0  0  0
    2.7060   63.7380   70.6460 C   0  0  0  0  0  0  0  0  0  0  0  0
    3.3330   63.4140   69.4270 C   0  0  0  0  0  0  0  0  0  0  0  0
    3.6540   62.0920   69.1230 C   0  0  0  0  0  0  0  0  0  0  0  0
    3.3340   61.1350   70.0670 C   0  0  0  0  0  0  0  0  0  0  0  0
    3.5320   59.6870   70.0230 C   0  0  0  0  0  0  0  0  0  0  0  0
    4.0330   59.0480   69.1270 O   0  0  0  0  0  0  0  0  0  0  0  0
    2.9590   59.1520   71.3580 C   0  0  0  0  0  0  0  0  0  0  0  0
    2.9160   57.9840   71.6820 O   0  0  0  0  0  0  0  0  0  0  0  0
    1.9100   60.2310   73.3610 C   0  0  0  0  0  0  0  0  0  0  0  0
   -0.9670   61.3260   73.3640 I   0  0  0  0  0  0  0  0  0  0  0  0
    0.4590   59.7350   73.3780 C   0  0  0  0  0  0  0  0  0  0  0  0
    1.8989   63.0012   72.5346 H   0  0  0  0  0  0  0  0  0  0  0  0
    2.4586   64.7873   70.8647 H   0  0  0  0  0  0  0  0  0  0  0  0
    3.5716   64.2117   68.7082 H   0  0  0  0  0  0  0  0  0  0  0  0
    4.1404   61.8226   68.1739 H   0  0  0  0  0  0  0  0  0  0  0  0
    2.5100   59.5590   73.9922 H   0  0  0  0  0  0  0  0  0  0  0  0
    1.8905   61.2666   73.7315 H   0  0  0  0  0  0  0  0  0  0  0  0
    0.3046   59.1338   74.2862 H   0  0  0  0  0  0  0  0  0  0  0  0
    0.3023   59.1445   72.4633 H   0  0  0  0  0  0  0  0  0  0  0  0
  2  1  1  0
  3  2  2  0
  4  3  1  0
  5  4  2  0
  6  5  1  0
  7  2  1  0
  7  6  2  0
  8  7  1  0
  9  8  2  0
 10  8  1  0
 10  1  1  0
 11 10  2  0
 12  1  1  0
 14 13  1  0
 14 12  1  0
  3 15  1  0
  4 16  1  0
  5 17  1  0
  6 18  1  0
 12 19  1  0
 12 20  1  0
 14 21  1  0
 14 22  1  0
M  END
>  <score>  (9) 
-6.518

$$$$
