=
     RDKit          3D

 58 61  0  0  0  0  0  0  0  0999 V2000
    0.6010   65.3090   70.8130 C   0  0  0  0  0  0  0  0  0  0  0  0
   -0.1170   66.0420   71.4880 O   0  0  0  0  0  0  0  0  0  0  0  0
    0.9650   65.6780   69.5190 N   0  0  0  0  0  0  0  0  0  0  0  0
    0.3480   66.8450   68.8920 C   0  0  0  0  0  0  0  0  0  0  0  0
    1.2820   67.5350   67.8780 C   0  0  0  0  0  0  0  0  0  0  0  0
    0.9470   67.1600   66.4470 C   0  0  0  0  0  0  0  0  0  0  0  0
   -0.4640   67.5850   66.1030 N   0  0  0  0  0  4  0  0  0  0  0  0
   -1.4400   67.5160   67.2620 C   0  0  0  0  0  0  0  0  0  0  0  0
   -0.9930   66.4580   68.2560 C   0  0  0  0  0  0  0  0  0  0  0  0
   -0.5100   68.9250   65.3840 C   0  0  0  0  0  0  0  0  0  0  0  0
    0.2830   68.9260   64.1050 C   0  0  0  0  0  0  0  0  0  0  0  0
    1.6560   68.6410   64.1160 C   0  0  0  0  0  0  0  0  0  0  0  0
    2.3930   68.6760   62.9320 C   0  0  0  0  0  0  0  0  0  0  0  0
    1.7690   68.9960   61.7290 C   0  0  0  0  0  0  0  0  0  0  0  0
    0.4050   69.2750   61.7050 C   0  0  0  0  0  0  0  0  0  0  0  0
   -0.3380   69.2420   62.8850 C   0  0  0  0  0  0  0  0  0  0  0  0
    2.3450   62.0850   71.6930 C   0  0  0  0  0  0  0  0  0  0  0  0
    1.1070   61.7210   72.1780 C   0  0  0  0  0  0  0  0  0  0  0  0
   -0.0420   62.9590   71.9960 S   0  0  0  0  0  0  0  0  0  0  0  0
    1.0900   64.0060   71.2440 C   0  0  0  0  0  0  0  0  0  0  0  0
    2.3630   63.4380   71.1700 C   0  0  0  0  0  0  0  0  0  0  0  0
    3.5800   64.1410   70.6490 C   0  0  0  0  0  0  0  0  0  0  0  0
    3.7070   60.9910   71.7490 S   0  0  0  0  0  6  0  0  0  0  0  0
    4.6060   61.5400   72.7400 O   0  0  0  0  0  0  0  0  0  0  0  0
    4.0720   60.8200   70.3580 O   0  0  0  0  0  0  0  0  0  0  0  0
    1.3400   55.6390   73.9950 Cl  0  0  0  0  0  0  0  0  0  0  0  0
    2.0120   57.0960   73.3790 C   0  0  0  0  0  0  0  0  0  0  0  0
    2.1890   57.2480   72.0020 C   0  0  0  0  0  0  0  0  0  0  0  0
    2.7200   58.4370   71.4970 C   0  0  0  0  0  0  0  0  0  0  0  0
    3.0620   59.4660   72.3800 C   0  0  0  0  0  0  0  0  0  0  0  0
    2.9020   59.3100   73.7610 C   0  0  0  0  0  0  0  0  0  0  0  0
    2.3720   58.1180   74.2590 C   0  0  0  0  0  0  0  0  0  0  0  0
    1.6684   65.1285   69.0051 H   0  0  0  0  0  0  0  0  0  0  0  0
    0.1591   67.5862   69.6825 H   0  0  0  0  0  0  0  0  0  0  0  0
    1.1851   68.6249   67.9911 H   0  0  0  0  0  0  0  0  0  0  0  0
    2.3101   67.2024   68.0836 H   0  0  0  0  0  0  0  0  0  0  0  0
    1.6517   67.6613   65.7672 H   0  0  0  0  0  0  0  0  0  0  0  0
    1.0257   66.0682   66.3381 H   0  0  0  0  0  0  0  0  0  0  0  0
   -0.7962   66.8732   65.4368 H   0  0  0  0  0  0  0  0  0  0  0  0
   -1.4790   68.4940   67.7640 H   0  0  0  0  0  0  0  0  0  0  0  0
   -2.4370   67.2530   66.8790 H   0  0  0  0  0  0  0  0  0  0  0  0
   -1.7525   66.3604   69.0457 H   0  0  0  0  0  0  0  0  0  0  0  0
   -0.8703   65.5026   67.7249 H   0  0  0  0  0  0  0  0  0  0  0  0
   -1.5580   69.1620   65.1483 H   0  0  0  0  0  0  0  0  0  0  0  0
   -0.0632   69.6758   66.0523 H   0  0  0  0  0  0  0  0  0  0  0  0
    2.1546   68.3885   65.0634 H   0  0  0  0  0  0  0  0  0  0  0  0
    3.4695   68.4503   62.9488 H   0  0  0  0  0  0  0  0  0  0  0  0
    2.3535   69.0284   60.7977 H   0  0  0  0  0  0  0  0  0  0  0  0
   -0.0878   69.5220   60.7531 H   0  0  0  0  0  0  0  0  0  0  0  0
   -1.4150   69.4644   62.8603 H   0  0  0  0  0  0  0  0  0  0  0  0
    0.8885   60.7424   72.6304 H   0  0  0  0  0  0  0  0  0  0  0  0
    4.1898   64.4933   71.4940 H   0  0  0  0  0  0  0  0  0  0  0  0
    4.1709   63.4451   70.0353 H   0  0  0  0  0  0  0  0  0  0  0  0
    3.2724   65.0005   70.0353 H   0  0  0  0  0  0  0  0  0  0  0  0
    1.9109   56.4335   71.3170 H   0  0  0  0  0  0  0  0  0  0  0  0
    2.8679   58.5629   70.4143 H   0  0  0  0  0  0  0  0  0  0  0  0
    3.1910   60.1189   74.4482 H   0  0  0  0  0  0  0  0  0  0  0  0
    2.2384   57.9846   75.3427 H   0  0  0  0  0  0  0  0  0  0  0  0
  2  1  2  0
  3  1  1  0
  4  3  1  0
  5  4  1  0
  6  5  1  0
  7  6  1  0
  8  7  1  0
  9  8  1  0
  9  4  1  0
 10  7  1  0
 11 10  1  0
 12 11  2  0
 13 12  1  0
 14 13  2  0
 15 14  1  0
 16 15  2  0
 16 11  1  0
 18 17  2  0
 19 18  1  0
 20  1  1  0
 20 19  1  0
 21 20  2  0
 21 17  1  0
 22 21  1  0
 23 17  1  0
 24 23  2  0
 25 23  2  0
 27 26  1  0
 28 27  2  0
 29 28  1  0
 30 29  2  0
 30 23  1  0
 31 30  1  0
 32 31  2  0
 32 27  1  0
  3 33  1  0
  4 34  1  0
  5 35  1  0
  5 36  1  0
  6 37  1  0
  6 38  1  0
  7 39  1  0
  8 40  1  0
  8 41  1  0
  9 42  1  0
  9 43  1  0
 10 44  1  0
 10 45  1  0
 12 46  1  0
 13 47  1  0
 14 48  1  0
 15 49  1  0
 16 50  1  0
 18 51  1  0
 22 52  1  0
 22 53  1  0
 22 54  1  0
 28 55  1  0
 29 56  1  0
 31 57  1  0
 32 58  1  0
M  CHG  1   7   1
M  END
>  <score>  (1) 
-10.562

$$$$
=
     RDKit          3D

 58 61  0  0  0  0  0  0  0  0999 V2000
    0.3300   64.1320   72.0860 C   0  0  0  0  0  0  0  0  0  0  0  0
   -0.2720   64.8950   72.8370 O   0  0  0  0  0  0  0  0  0  0  0  0
    0.7820   64.5770   70.8450 N   0  0  0  0  0  0  0  0  0  0  0  0
    0.3830   65.8930   70.3520 C   0  0  0  0  0  0  0  0  0  0  0  0
    1.5870   66.7510   69.9120 C   0  0  0  0  0  0  0  0  0  0  0  0
    1.7690   66.7470   68.4060 C   0  0  0  0  0  0  0  0  0  0  0  0
    0.5480   67.3220   67.7220 N   0  0  0  0  0  4  0  0  0  0  0  0
   -0.7620   67.0340   68.4310 C   0  0  0  0  0  0  0  0  0  0  0  0
   -0.6500   65.7460   69.2270 C   0  0  0  0  0  0  0  0  0  0  0  0
    0.7110   68.7940   67.3790 C   0  0  0  0  0  0  0  0  0  0  0  0
    2.1340   69.1630   67.0560 C   0  0  0  0  0  0  0  0  0  0  0  0
    2.9560   69.7530   68.0280 C   0  0  0  0  0  0  0  0  0  0  0  0
    4.2650   70.1230   67.7150 C   0  0  0  0  0  0  0  0  0  0  0  0
    4.7640   69.9080   66.4330 C   0  0  0  0  0  0  0  0  0  0  0  0
    3.9590   69.3180   65.4620 C   0  0  0  0  0  0  0  0  0  0  0  0
    2.6500   68.9460   65.7680 C   0  0  0  0  0  0  0  0  0  0  0  0
    1.5070   60.5940   72.6410 C   0  0  0  0  0  0  0  0  0  0  0  0
    0.1910   60.3670   72.9800 C   0  0  0  0  0  0  0  0  0  0  0  0
   -0.7480   61.7800   72.8870 S   0  0  0  0  0  0  0  0  0  0  0  0
    0.5860   62.7250   72.3690 C   0  0  0  0  0  0  0  0  0  0  0  0
    1.7660   61.9830   72.3100 C   0  0  0  0  0  0  0  0  0  0  0  0
    3.1150   62.5490   71.9800 C   0  0  0  0  0  0  0  0  0  0  0  0
    2.6880   59.3050   72.6440 S   0  0  0  0  0  6  0  0  0  0  0  0
    3.8180   59.8150   73.3880 O   0  0  0  0  0  0  0  0  0  0  0  0
    2.7710   58.9070   71.2540 O   0  0  0  0  0  0  0  0  0  0  0  0
    0.0280   54.7370   76.0130 Cl  0  0  0  0  0  0  0  0  0  0  0  0
    0.7780   55.9750   75.0850 C   0  0  0  0  0  0  0  0  0  0  0  0
    0.6390   55.9770   73.6960 C   0  0  0  0  0  0  0  0  0  0  0  0
    1.2330   56.9910   72.9400 C   0  0  0  0  0  0  0  0  0  0  0  0
    1.9560   57.9970   73.5890 C   0  0  0  0  0  0  0  0  0  0  0  0
    2.1110   57.9870   74.9790 C   0  0  0  0  0  0  0  0  0  0  0  0
    1.5150   56.9700   75.7280 C   0  0  0  0  0  0  0  0  0  0  0  0
    1.3971   63.9783   70.2757 H   0  0  0  0  0  0  0  0  0  0  0  0
   -0.0842   66.4338   71.1882 H   0  0  0  0  0  0  0  0  0  0  0  0
    1.4265   67.7863   70.2474 H   0  0  0  0  0  0  0  0  0  0  0  0
    2.4930   66.3215   70.3644 H   0  0  0  0  0  0  0  0  0  0  0  0
    2.6487   67.3541   68.1463 H   0  0  0  0  0  0  0  0  0  0  0  0
    1.9102   65.7098   68.0680 H   0  0  0  0  0  0  0  0  0  0  0  0
    0.4828   66.8101   66.8306 H   0  0  0  0  0  0  0  0  0  0  0  0
   -0.9972   67.8644   69.1131 H   0  0  0  0  0  0  0  0  0  0  0  0
   -1.5614   66.9275   67.6829 H   0  0  0  0  0  0  0  0  0  0  0  0
   -1.6299   65.5059   69.6654 H   0  0  0  0  0  0  0  0  0  0  0  0
   -0.3264   64.9398   68.5523 H   0  0  0  0  0  0  0  0  0  0  0  0
    0.0816   69.0234   66.5065 H   0  0  0  0  0  0  0  0  0  0  0  0
    0.4103   69.3755   68.2630 H   0  0  0  0  0  0  0  0  0  0  0  0
    2.5667   69.9249   69.0423 H   0  0  0  0  0  0  0  0  0  0  0  0
    4.9034   70.5852   68.4824 H   0  0  0  0  0  0  0  0  0  0  0  0
    5.7944   70.2043   66.1872 H   0  0  0  0  0  0  0  0  0  0  0  0
    4.3564   69.1448   64.4510 H   0  0  0  0  0  0  0  0  0  0  0  0
    2.0188   68.4804   64.9968 H   0  0  0  0  0  0  0  0  0  0  0  0
   -0.2058   59.3848   73.2765 H   0  0  0  0  0  0  0  0  0  0  0  0
    3.6553   62.7757   72.9110 H   0  0  0  0  0  0  0  0  0  0  0  0
    3.6871   61.8150   71.3935 H   0  0  0  0  0  0  0  0  0  0  0  0
    2.9921   63.4714   71.3935 H   0  0  0  0  0  0  0  0  0  0  0  0
    0.0636   55.1827   73.1981 H   0  0  0  0  0  0  0  0  0  0  0  0
    1.1329   56.9979   71.8446 H   0  0  0  0  0  0  0  0  0  0  0  0
    2.6970   58.7730   75.4777 H   0  0  0  0  0  0  0  0  0  0  0  0
    1.6264   56.9535   76.8222 H   0  0  0  0  0  0  0  0  0  0  0  0
  2  1  2  0
  3  1  1  0
  4  3  1  0
  5  4  1  0
  6  5  1  0
  7  6  1  0
  8  7  1  0
  9  8  1  0
  9  4  1  0
 10  7  1  0
 11 10  1  0
 12 11  2  0
 13 12  1  0
 14 13  2  0
 15 14  1  0
 16 15  2  0
 16 11  1  0
 18 17  2  0
 19 18  1  0
 20  1  1  0
 20 19  1  0
 21 20  2  0
 21 17  1  0
 22 21  1  0
 23 17  1  0
 24 23  2  0
 25 23  2  0
 27 26  1  0
 28 27  2  0
 29 28  1  0
 30 29  2  0
 30 23  1  0
 31 30  1  0
 32 31  2  0
 32 27  1  0
  3 33  1  0
  4 34  1  0
  5 35  1  0
  5 36  1  0
  6 37  1  0
  6 38  1  0
  7 39  1  0
  8 40  1  0
  8 41  1  0
  9 42  1  0
  9 43  1  0
 10 44  1  0
 10 45  1  0
 12 46  1  0
 13 47  1  0
 14 48  1  0
 15 49  1  0
 16 50  1  0
 18 51  1  0
 22 52  1  0
 22 53  1  0
 22 54  1  0
 28 55  1  0
 29 56  1  0
 31 57  1  0
 32 58  1  0
M  CHG  1   7   1
M  END
>  <score>  (2) 
-9.947

$$$$
=
     RDKit          3D

 58 61  0  0  0  0  0  0  0  0999 V2000
    0.3930   65.3620   71.1070 C   0  0  0  0  0  0  0  0  0  0  0  0
   -0.3040   66.1740   71.7110 O   0  0  0  0  0  0  0  0  0  0  0  0
    0.8460   65.6440   69.8190 N   0  0  0  0  0  0  0  0  0  0  0  0
    0.3450   66.8190   69.1100 C   0  0  0  0  0  0  0  0  0  0  0  0
    1.4090   67.4550   68.1920 C   0  0  0  0  0  0  0  0  0  0  0  0
    1.2170   67.0620   66.7400 C   0  0  0  0  0  0  0  0  0  0  0  0
   -0.1320   67.5300   66.2370 N   0  0  0  0  0  4  0  0  0  0  0  0
   -1.2300   67.5190   67.2840 C   0  0  0  0  0  0  0  0  0  0  0  0
   -0.9330   66.4670   68.3380 C   0  0  0  0  0  0  0  0  0  0  0  0
   -0.0500   68.8560   65.4960 C   0  0  0  0  0  0  0  0  0  0  0  0
    0.9780   68.8450   64.3970 C   0  0  0  0  0  0  0  0  0  0  0  0
    0.5830   68.7940   63.0520 C   0  0  0  0  0  0  0  0  0  0  0  0
    1.5400   68.7520   62.0370 C   0  0  0  0  0  0  0  0  0  0  0  0
    2.8960   68.7590   62.3540 C   0  0  0  0  0  0  0  0  0  0  0  0
    3.3000   68.8150   63.6850 C   0  0  0  0  0  0  0  0  0  0  0  0
    2.3480   68.8580   64.7050 C   0  0  0  0  0  0  0  0  0  0  0  0
    1.2260   62.1720   72.9340 C   0  0  0  0  0  0  0  0  0  0  0  0
    1.6440   61.7450   71.6920 C   0  0  0  0  0  0  0  0  0  0  0  0
    1.4140   62.9290   70.4960 S   0  0  0  0  0  0  0  0  0  0  0  0
    0.7670   64.0510   71.6210 C   0  0  0  0  0  0  0  0  0  0  0  0
    0.6770   63.5150   72.9060 C   0  0  0  0  0  0  0  0  0  0  0  0
    0.0700   64.2180   74.0830 C   0  0  0  0  0  0  0  0  0  0  0  0
    1.3590   61.1490   74.3450 S   0  0  0  0  0  6  0  0  0  0  0  0
    1.6530   62.0420   75.4450 O   0  0  0  0  0  0  0  0  0  0  0  0
    2.2530   60.0910   73.9240 O   0  0  0  0  0  0  0  0  0  0  0  0
   -4.3710   58.7420   75.1660 Cl  0  0  0  0  0  0  0  0  0  0  0  0
   -2.8040   59.4180   74.9600 C   0  0  0  0  0  0  0  0  0  0  0  0
   -1.7360   58.9340   75.7190 C   0  0  0  0  0  0  0  0  0  0  0  0
   -0.4580   59.4690   75.5430 C   0  0  0  0  0  0  0  0  0  0  0  0
   -0.2630   60.4830   74.6000 C   0  0  0  0  0  0  0  0  0  0  0  0
   -1.3340   60.9830   73.8510 C   0  0  0  0  0  0  0  0  0  0  0  0
   -2.6090   60.4430   74.0330 C   0  0  0  0  0  0  0  0  0  0  0  0
    1.5336   65.0242   69.3675 H   0  0  0  0  0  0  0  0  0  0  0  0
    0.0998   67.5824   69.8631 H   0  0  0  0  0  0  0  0  0  0  0  0
    1.3409   68.5497   68.2753 H   0  0  0  0  0  0  0  0  0  0  0  0
    2.3959   67.0912   68.5141 H   0  0  0  0  0  0  0  0  0  0  0  0
    2.0096   67.5232   66.1325 H   0  0  0  0  0  0  0  0  0  0  0  0
    1.2658   65.9661   66.6590 H   0  0  0  0  0  0  0  0  0  0  0  0
   -0.4161   66.8172   65.5499 H   0  0  0  0  0  0  0  0  0  0  0  0
   -1.2869   68.5079   67.7624 H   0  0  0  0  0  0  0  0  0  0  0  0
   -2.1887   67.2831   66.7989 H   0  0  0  0  0  0  0  0  0  0  0  0
   -1.7766   66.4127   69.0418 H   0  0  0  0  0  0  0  0  0  0  0  0
   -0.7892   65.4972   67.8392 H   0  0  0  0  0  0  0  0  0  0  0  0
   -1.0339   69.0742   65.0552 H   0  0  0  0  0  0  0  0  0  0  0  0
    0.2497   69.6249   66.2233 H   0  0  0  0  0  0  0  0  0  0  0  0
   -0.4867   68.7871   62.7959 H   0  0  0  0  0  0  0  0  0  0  0  0
    1.2225   68.7133   60.9845 H   0  0  0  0  0  0  0  0  0  0  0  0
    3.6482   68.7203   61.5523 H   0  0  0  0  0  0  0  0  0  0  0  0
    4.3715   68.8254   63.9334 H   0  0  0  0  0  0  0  0  0  0  0  0
    2.6725   68.9023   65.7551 H   0  0  0  0  0  0  0  0  0  0  0  0
    2.0765   60.7524   71.4978 H   0  0  0  0  0  0  0  0  0  0  0  0
    0.4536   63.7737   75.0133 H   0  0  0  0  0  0  0  0  0  0  0  0
    0.3353   65.2850   74.0496 H   0  0  0  0  0  0  0  0  0  0  0  0
   -1.0243   64.1111   74.0496 H   0  0  0  0  0  0  0  0  0  0  0  0
   -1.9013   58.1327   76.4542 H   0  0  0  0  0  0  0  0  0  0  0  0
    0.3871   59.0963   76.1404 H   0  0  0  0  0  0  0  0  0  0  0  0
   -1.1731   61.7940   73.1255 H   0  0  0  0  0  0  0  0  0  0  0  0
   -3.4579   60.8248   73.4469 H   0  0  0  0  0  0  0  0  0  0  0  0
  2  1  2  0
  3  1  1  0
  4  3  1  0
  5  4  1  0
  6  5  1  0
  7  6  1  0
  8  7  1  0
  9  8  1  0
  9  4  1  0
 10  7  1  0
 11 10  1  0
 12 11  2  0
 13 12  1  0
 14 13  2  0
 15 14  1  0
 16 15  2  0
 16 11  1  0
 18 17  2  0
 19 18  1  0
 20  1  1  0
 20 19  1  0
 21 20  2  0
 21 17  1  0
 22 21  1  0
 23 17  1  0
 24 23  2  0
 25 23  2  0
 27 26  1  0
 28 27  2  0
 29 28  1  0
 30 29  2  0
 30 23  1  0
 31 30  1  0
 32 31  2  0
 32 27  1  0
  3 33  1  0
  4 34  1  0
  5 35  1  0
  5 36  1  0
  6 37  1  0
  6 38  1  0
  7 39  1  0
  8 40  1  0
  8 41  1  0
  9 42  1  0
  9 43  1  0
 10 44  1  0
 10 45  1  0
 12 46  1  0
 13 47  1  0
 14 48  1  0
 15 49  1  0
 16 50  1  0
 18 51  1  0
 22 52  1  0
 22 53  1  0
 22 54  1  0
 28 55  1  0
 29 56  1  0
 31 57  1  0
 32 58  1  0
M  CHG  1   7   1
M  END
>  <score>  (3) 
-9.21

$$$$
=
     RDKit          3D

 58 61  0  0  0  0  0  0  0  0999 V2000
    2.4200   60.9610   71.2850 C   0  0  0  0  0  0  0  0  0  0  0  0
    2.8700   60.7030   70.1710 O   0  0  0  0  0  0  0  0  0  0  0  0
    1.6270   62.0900   71.4800 N   0  0  0  0  0  0  0  0  0  0  0  0
    1.4780   63.0710   70.4080 C   0  0  0  0  0  0  0  0  0  0  0  0
    0.0730   63.7050   70.3760 C   0  0  0  0  0  0  0  0  0  0  0  0
    0.0530   65.0800   71.0170 C   0  0  0  0  0  0  0  0  0  0  0  0
    0.9760   66.0230   70.2770 N   0  0  0  0  0  4  0  0  0  0  0  0
    2.2110   65.3630   69.6930 C   0  0  0  0  0  0  0  0  0  0  0  0
    2.5780   64.1360   70.5070 C   0  0  0  0  0  0  0  0  0  0  0  0
    0.2390   66.8810   69.2590 C   0  0  0  0  0  0  0  0  0  0  0  0
    1.1700   67.6950   68.4010 C   0  0  0  0  0  0  0  0  0  0  0  0
    1.9030   68.7550   68.9520 C   0  0  0  0  0  0  0  0  0  0  0  0
    2.7400   69.5290   68.1450 C   0  0  0  0  0  0  0  0  0  0  0  0
    2.8510   69.2510   66.7850 C   0  0  0  0  0  0  0  0  0  0  0  0
    2.1320   68.1970   66.2280 C   0  0  0  0  0  0  0  0  0  0  0  0
    1.2940   67.4200   67.0290 C   0  0  0  0  0  0  0  0  0  0  0  0
    2.5770   58.9470   74.4680 C   0  0  0  0  0  0  0  0  0  0  0  0
    3.9390   59.0550   74.2940 C   0  0  0  0  0  0  0  0  0  0  0  0
    4.3400   59.9160   72.8850 S   0  0  0  0  0  0  0  0  0  0  0  0
    2.6930   60.1820   72.4860 C   0  0  0  0  0  0  0  0  0  0  0  0
    1.8260   59.5760   73.3970 C   0  0  0  0  0  0  0  0  0  0  0  0
    0.3330   59.5530   73.2680 C   0  0  0  0  0  0  0  0  0  0  0  0
    1.8940   58.1160   75.8450 S   0  0  0  0  0  6  0  0  0  0  0  0
    0.7300   58.8870   76.2270 O   0  0  0  0  0  0  0  0  0  0  0  0
    3.0270   57.9080   76.7230 O   0  0  0  0  0  0  0  0  0  0  0  0
   -0.0790   52.5510   73.7390 Cl  0  0  0  0  0  0  0  0  0  0  0  0
    0.4650   54.0850   74.2930 C   0  0  0  0  0  0  0  0  0  0  0  0
   -0.4490   55.1300   74.4400 C   0  0  0  0  0  0  0  0  0  0  0  0
   -0.0150   56.3740   74.9060 C   0  0  0  0  0  0  0  0  0  0  0  0
    1.3350   56.5530   75.2250 C   0  0  0  0  0  0  0  0  0  0  0  0
    2.2560   55.5130   75.0610 C   0  0  0  0  0  0  0  0  0  0  0  0
    1.8140   54.2730   74.5950 C   0  0  0  0  0  0  0  0  0  0  0  0
    1.1461   62.2328   72.3796 H   0  0  0  0  0  0  0  0  0  0  0  0
    1.5915   62.5380   69.4525 H   0  0  0  0  0  0  0  0  0  0  0  0
   -0.2509   63.7970   69.3288 H   0  0  0  0  0  0  0  0  0  0  0  0
   -0.6054   63.0547   70.9477 H   0  0  0  0  0  0  0  0  0  0  0  0
   -0.9718   65.4786   70.9868 H   0  0  0  0  0  0  0  0  0  0  0  0
    0.3951   64.9919   72.0587 H   0  0  0  0  0  0  0  0  0  0  0  0
    1.3364   66.6586   71.0029 H   0  0  0  0  0  0  0  0  0  0  0  0
    2.0073   65.0635   68.6544 H   0  0  0  0  0  0  0  0  0  0  0  0
    3.0478   66.0765   69.7183 H   0  0  0  0  0  0  0  0  0  0  0  0
    3.5209   63.7179   70.1249 H   0  0  0  0  0  0  0  0  0  0  0  0
    2.6908   64.4312   71.5606 H   0  0  0  0  0  0  0  0  0  0  0  0
   -0.3541   66.2223   68.6075 H   0  0  0  0  0  0  0  0  0  0  0  0
   -0.3979   67.5836   69.8164 H   0  0  0  0  0  0  0  0  0  0  0  0
    1.8186   68.9785   70.0257 H   0  0  0  0  0  0  0  0  0  0  0  0
    3.3123   70.3593   68.5844 H   0  0  0  0  0  0  0  0  0  0  0  0
    3.5073   69.8646   66.1504 H   0  0  0  0  0  0  0  0  0  0  0  0
    2.2246   67.9762   65.1544 H   0  0  0  0  0  0  0  0  0  0  0  0
    0.7280   66.5884   66.5840 H   0  0  0  0  0  0  0  0  0  0  0  0
    4.6814   58.6327   74.9871 H   0  0  0  0  0  0  0  0  0  0  0  0
   -0.1215   59.5460   74.2697 H   0  0  0  0  0  0  0  0  0  0  0  0
   -0.0015   60.4461   72.7198 H   0  0  0  0  0  0  0  0  0  0  0  0
    0.0262   58.6500   72.7198 H   0  0  0  0  0  0  0  0  0  0  0  0
   -1.5088   54.9745   74.1895 H   0  0  0  0  0  0  0  0  0  0  0  0
   -0.7278   57.2039   75.0207 H   0  0  0  0  0  0  0  0  0  0  0  0
    3.3188   55.6705   75.2970 H   0  0  0  0  0  0  0  0  0  0  0  0
    2.5280   53.4462   74.4663 H   0  0  0  0  0  0  0  0  0  0  0  0
  2  1  2  0
  3  1  1  0
  4  3  1  0
  5  4  1  0
  6  5  1  0
  7  6  1  0
  8  7  1  0
  9  8  1  0
  9  4  1  0
 10  7  1  0
 11 10  1  0
 12 11  2  0
 13 12  1  0
 14 13  2  0
 15 14  1  0
 16 15  2  0
 16 11  1  0
 18 17  2  0
 19 18  1  0
 20  1  1  0
 20 19  1  0
 21 20  2  0
 21 17  1  0
 22 21  1  0
 23 17  1  0
 24 23  2  0
 25 23  2  0
 27 26  1  0
 28 27  2  0
 29 28  1  0
 30 29  2  0
 30 23  1  0
 31 30  1  0
 32 31  2  0
 32 27  1  0
  3 33  1  0
  4 34  1  0
  5 35  1  0
  5 36  1  0
  6 37  1  0
  6 38  1  0
  7 39  1  0
  8 40  1  0
  8 41  1  0
  9 42  1  0
  9 43  1  0
 10 44  1  0
 10 45  1  0
 12 46  1  0
 13 47  1  0
 14 48  1  0
 15 49  1  0
 16 50  1  0
 18 51  1  0
 22 52  1  0
 22 53  1  0
 22 54  1  0
 28 55  1  0
 29 56  1  0
 31 57  1  0
 32 58  1  0
M  CHG  1   7   1
M  END
>  <score>  (4) 
-8.998

$$$$
=
     RDKit          3D

 58 61  0  0  0  0  0  0  0  0999 V2000
    2.6920   60.8710   72.9700 C   0  0  0  0  0  0  0  0  0  0  0  0
    3.4670   61.5180   73.6700 O   0  0  0  0  0  0  0  0  0  0  0  0
    1.8440   61.5210   72.0740 N   0  0  0  0  0  0  0  0  0  0  0  0
    1.7380   62.9780   72.0950 C   0  0  0  0  0  0  0  0  0  0  0  0
    2.6530   63.6520   71.0520 C   0  0  0  0  0  0  0  0  0  0  0  0
    1.8890   64.0710   69.8110 C   0  0  0  0  0  0  0  0  0  0  0  0
    0.8120   65.0740   70.1630 N   0  0  0  0  0  4  0  0  0  0  0  0
    0.1870   64.8690   71.5300 C   0  0  0  0  0  0  0  0  0  0  0  0
    0.2750   63.4060   71.9270 C   0  0  0  0  0  0  0  0  0  0  0  0
    1.2570   66.5110   69.9380 C   0  0  0  0  0  0  0  0  0  0  0  0
    0.5580   67.1620   68.7760 C   0  0  0  0  0  0  0  0  0  0  0  0
   -0.7340   66.7610   68.4060 C   0  0  0  0  0  0  0  0  0  0  0  0
   -1.3670   67.3450   67.3070 C   0  0  0  0  0  0  0  0  0  0  0  0
   -0.7170   68.3310   66.5700 C   0  0  0  0  0  0  0  0  0  0  0  0
    0.5640   68.7420   66.9310 C   0  0  0  0  0  0  0  0  0  0  0  0
    1.2010   68.1620   68.0290 C   0  0  0  0  0  0  0  0  0  0  0  0
    2.2580   57.1920   73.6660 C   0  0  0  0  0  0  0  0  0  0  0  0
    2.4560   57.0630   72.3080 C   0  0  0  0  0  0  0  0  0  0  0  0
    2.6810   58.5660   71.5480 S   0  0  0  0  0  0  0  0  0  0  0  0
    2.5390   59.4230   73.0270 C   0  0  0  0  0  0  0  0  0  0  0  0
    2.2700   58.5760   74.1030 C   0  0  0  0  0  0  0  0  0  0  0  0
    2.0030   59.0350   75.5050 C   0  0  0  0  0  0  0  0  0  0  0  0
    2.0090   55.7980   74.6900 S   0  0  0  0  0  6  0  0  0  0  0  0
    2.9260   55.9610   75.7980 O   0  0  0  0  0  0  0  0  0  0  0  0
    2.0690   54.6780   73.7730 O   0  0  0  0  0  0  0  0  0  0  0  0
   -3.8410   56.2750   76.8900 Cl  0  0  0  0  0  0  0  0  0  0  0  0
   -2.2340   56.1700   76.2870 C   0  0  0  0  0  0  0  0  0  0  0  0
   -1.1610   56.1540   77.1800 C   0  0  0  0  0  0  0  0  0  0  0  0
    0.1450   56.0510   76.6950 C   0  0  0  0  0  0  0  0  0  0  0  0
    0.3600   55.9590   75.3160 C   0  0  0  0  0  0  0  0  0  0  0  0
   -0.7130   55.9930   74.4180 C   0  0  0  0  0  0  0  0  0  0  0  0
   -2.0150   56.0960   74.9110 C   0  0  0  0  0  0  0  0  0  0  0  0
    1.2925   60.9741   71.3975 H   0  0  0  0  0  0  0  0  0  0  0  0
    2.0920   63.3234   73.0776 H   0  0  0  0  0  0  0  0  0  0  0  0
    3.1108   64.5438   71.5050 H   0  0  0  0  0  0  0  0  0  0  0  0
    3.4178   62.9217   70.7492 H   0  0  0  0  0  0  0  0  0  0  0  0
    2.5870   64.5267   69.0932 H   0  0  0  0  0  0  0  0  0  0  0  0
    1.4154   63.1821   69.3686 H   0  0  0  0  0  0  0  0  0  0  0  0
    0.0514   64.8855   69.4945 H   0  0  0  0  0  0  0  0  0  0  0  0
    0.7229   65.4804   72.2710 H   0  0  0  0  0  0  0  0  0  0  0  0
   -0.8703   65.1701   71.4925 H   0  0  0  0  0  0  0  0  0  0  0  0
   -0.2565   63.2573   72.8785 H   0  0  0  0  0  0  0  0  0  0  0  0
   -0.1836   62.7960   71.1348 H   0  0  0  0  0  0  0  0  0  0  0  0
    1.0428   67.0918   70.8473 H   0  0  0  0  0  0  0  0  0  0  0  0
    2.3329   66.4929   69.7096 H   0  0  0  0  0  0  0  0  0  0  0  0
   -1.2516   65.9819   68.9849 H   0  0  0  0  0  0  0  0  0  0  0  0
   -2.3806   67.0256   67.0232 H   0  0  0  0  0  0  0  0  0  0  0  0
   -1.2156   68.7861   65.7015 H   0  0  0  0  0  0  0  0  0  0  0  0
    1.0741   69.5245   66.3501 H   0  0  0  0  0  0  0  0  0  0  0  0
    2.2124   68.4901   68.3108 H   0  0  0  0  0  0  0  0  0  0  0  0
    2.4671   56.0992   71.7780 H   0  0  0  0  0  0  0  0  0  0  0  0
    2.4254   58.3089   76.2152 H   0  0  0  0  0  0  0  0  0  0  0  0
    2.4702   60.0180   75.6642 H   0  0  0  0  0  0  0  0  0  0  0  0
    0.9175   59.1148   75.6642 H   0  0  0  0  0  0  0  0  0  0  0  0
   -1.3435   56.2223   78.2626 H   0  0  0  0  0  0  0  0  0  0  0  0
    0.9965   56.0423   77.3913 H   0  0  0  0  0  0  0  0  0  0  0  0
   -0.5322   55.9391   73.3343 H   0  0  0  0  0  0  0  0  0  0  0  0
   -2.8670   56.1188   74.2157 H   0  0  0  0  0  0  0  0  0  0  0  0
  2  1  2  0
  3  1  1  0
  4  3  1  0
  5  4  1  0
  6  5  1  0
  7  6  1  0
  8  7  1  0
  9  8  1  0
  9  4  1  0
 10  7  1  0
 11 10  1  0
 12 11  2  0
 13 12  1  0
 14 13  2  0
 15 14  1  0
 16 15  2  0
 16 11  1  0
 18 17  2  0
 19 18  1  0
 20  1  1  0
 20 19  1  0
 21 20  2  0
 21 17  1  0
 22 21  1  0
 23 17  1  0
 24 23  2  0
 25 23  2  0
 27 26  1  0
 28 27  2  0
 29 28  1  0
 30 29  2  0
 30 23  1  0
 31 30  1  0
 32 31  2  0
 32 27  1  0
  3 33  1  0
  4 34  1  0
  5 35  1  0
  5 36  1  0
  6 37  1  0
  6 38  1  0
  7 39  1  0
  8 40  1  0
  8 41  1  0
  9 42  1  0
  9 43  1  0
 10 44  1  0
 10 45  1  0
 12 46  1  0
 13 47  1  0
 14 48  1  0
 15 49  1  0
 16 50  1  0
 18 51  1  0
 22 52  1  0
 22 53  1  0
 22 54  1  0
 28 55  1  0
 29 56  1  0
 31 57  1  0
 32 58  1  0
M  CHG  1   7   1
M  END
>  <score>  (5) 
-8.92

$$$$
=
     RDKit          3D

 58 61  0  0  0  0  0  0  0  0999 V2000
   -3.5140   61.6040   75.5750 C   0  0  0  0  0  0  0  0  0  0  0  0
   -3.1050   61.0360   76.5840 O   0  0  0  0  0  0  0  0  0  0  0  0
   -2.6600   61.8220   74.4950 N   0  0  0  0  0  0  0  0  0  0  0  0
   -1.2320   61.5450   74.6260 C   0  0  0  0  0  0  0  0  0  0  0  0
   -0.6210   60.9620   73.3350 C   0  0  0  0  0  0  0  0  0  0  0  0
    0.1230   62.0130   72.5330 C   0  0  0  0  0  0  0  0  0  0  0  0
    1.2680   62.5850   73.3400 N   0  0  0  0  0  4  0  0  0  0  0  0
    1.0030   62.6700   74.8310 C   0  0  0  0  0  0  0  0  0  0  0  0
   -0.4870   62.8040   75.0880 C   0  0  0  0  0  0  0  0  0  0  0  0
    2.5960   61.9170   73.0220 C   0  0  0  0  0  0  0  0  0  0  0  0
    2.9740   62.0320   71.5700 C   0  0  0  0  0  0  0  0  0  0  0  0
    3.1690   63.2900   70.9820 C   0  0  0  0  0  0  0  0  0  0  0  0
    3.4860   63.3940   69.6270 C   0  0  0  0  0  0  0  0  0  0  0  0
    3.6120   62.2460   68.8490 C   0  0  0  0  0  0  0  0  0  0  0  0
    3.4270   60.9920   69.4230 C   0  0  0  0  0  0  0  0  0  0  0  0
    3.1090   60.8810   70.7780 C   0  0  0  0  0  0  0  0  0  0  0  0
   -7.1060   62.5170   74.8880 C   0  0  0  0  0  0  0  0  0  0  0  0
   -6.7640   63.7080   75.4920 C   0  0  0  0  0  0  0  0  0  0  0  0
   -5.1460   63.7220   76.0090 S   0  0  0  0  0  0  0  0  0  0  0  0
   -4.8610   62.1380   75.4160 C   0  0  0  0  0  0  0  0  0  0  0  0
   -6.0090   61.5680   74.8630 C   0  0  0  0  0  0  0  0  0  0  0  0
   -6.0990   60.1640   74.3460 C   0  0  0  0  0  0  0  0  0  0  0  0
   -8.7120   62.2410   74.2560 S   0  0  0  0  0  6  0  0  0  0  0  0
   -9.5600   62.0560   75.4140 O   0  0  0  0  0  0  0  0  0  0  0  0
   -8.5170   61.2210   73.2470 O   0  0  0  0  0  0  0  0  0  0  0  0
  -10.3080   67.6660   71.5510 Cl  0  0  0  0  0  0  0  0  0  0  0  0
   -9.8880   66.1660   72.2780 C   0  0  0  0  0  0  0  0  0  0  0  0
   -8.9700   65.3250   71.6480 C   0  0  0  0  0  0  0  0  0  0  0  0
   -8.6130   64.1130   72.2440 C   0  0  0  0  0  0  0  0  0  0  0  0
   -9.1790   63.7610   73.4740 C   0  0  0  0  0  0  0  0  0  0  0  0
  -10.1130   64.5940   74.0990 C   0  0  0  0  0  0  0  0  0  0  0  0
  -10.4650   65.8030   73.4970 C   0  0  0  0  0  0  0  0  0  0  0  0
   -3.0360   62.1784   73.6048 H   0  0  0  0  0  0  0  0  0  0  0  0
   -1.1139   60.7674   75.3950 H   0  0  0  0  0  0  0  0  0  0  0  0
    0.0806   60.1591   73.6053 H   0  0  0  0  0  0  0  0  0  0  0  0
   -1.4434   60.5792   72.7128 H   0  0  0  0  0  0  0  0  0  0  0  0
    0.5207   61.5538   71.6159 H   0  0  0  0  0  0  0  0  0  0  0  0
   -0.5738   62.8256   72.2796 H   0  0  0  0  0  0  0  0  0  0  0  0
    1.3424   63.5646   73.0306 H   0  0  0  0  0  0  0  0  0  0  0  0
    1.3761   61.7578   75.3196 H   0  0  0  0  0  0  0  0  0  0  0  0
    1.5199   63.5509   75.2394 H   0  0  0  0  0  0  0  0  0  0  0  0
   -0.6561   62.9488   76.1652 H   0  0  0  0  0  0  0  0  0  0  0  0
   -0.8673   63.6676   74.5227 H   0  0  0  0  0  0  0  0  0  0  0  0
    3.3819   62.3911   73.6283 H   0  0  0  0  0  0  0  0  0  0  0  0
    2.4919   60.8466   73.2532 H   0  0  0  0  0  0  0  0  0  0  0  0
    3.0715   64.2000   71.5923 H   0  0  0  0  0  0  0  0  0  0  0  0
    3.6366   64.3844   69.1727 H   0  0  0  0  0  0  0  0  0  0  0  0
    3.8579   62.3305   67.7802 H   0  0  0  0  0  0  0  0  0  0  0  0
    3.5315   60.0861   68.8079 H   0  0  0  0  0  0  0  0  0  0  0  0
    2.9636   59.8873   71.2268 H   0  0  0  0  0  0  0  0  0  0  0  0
   -7.4581   64.5511   75.6238 H   0  0  0  0  0  0  0  0  0  0  0  0
   -6.1439   59.4636   75.1930 H   0  0  0  0  0  0  0  0  0  0  0  0
   -7.0059   60.0565   73.7328 H   0  0  0  0  0  0  0  0  0  0  0  0
   -5.2133   59.9416   73.7328 H   0  0  0  0  0  0  0  0  0  0  0  0
   -8.5281   65.6159   70.6836 H   0  0  0  0  0  0  0  0  0  0  0  0
   -7.8940   63.4421   71.7511 H   0  0  0  0  0  0  0  0  0  0  0  0
  -10.5662   64.2987   75.0568 H   0  0  0  0  0  0  0  0  0  0  0  0
  -11.1950   66.4682   73.9814 H   0  0  0  0  0  0  0  0  0  0  0  0
  2  1  2  0
  3  1  1  0
  4  3  1  0
  5  4  1  0
  6  5  1  0
  7  6  1  0
  8  7  1  0
  9  8  1  0
  9  4  1  0
 10  7  1  0
 11 10  1  0
 12 11  2  0
 13 12  1  0
 14 13  2  0
 15 14  1  0
 16 15  2  0
 16 11  1  0
 18 17  2  0
 19 18  1  0
 20  1  1  0
 20 19  1  0
 21 20  2  0
 21 17  1  0
 22 21  1  0
 23 17  1  0
 24 23  2  0
 25 23  2  0
 27 26  1  0
 28 27  2  0
 29 28  1  0
 30 29  2  0
 30 23  1  0
 31 30  1  0
 32 31  2  0
 32 27  1  0
  3 33  1  0
  4 34  1  0
  5 35  1  0
  5 36  1  0
  6 37  1  0
  6 38  1  0
  7 39  1  0
  8 40  1  0
  8 41  1  0
  9 42  1  0
  9 43  1  0
 10 44  1  0
 10 45  1  0
 12 46  1  0
 13 47  1  0
 14 48  1  0
 15 49  1  0
 16 50  1  0
 18 51  1  0
 22 52  1  0
 22 53  1  0
 22 54  1  0
 28 55  1  0
 29 56  1  0
 31 57  1  0
 32 58  1  0
M  CHG  1   7   1
M  END
>  <score>  (6) 
-8.841

$$$$
=
     RDKit          3D

 58 61  0  0  0  0  0  0  0  0999 V2000
   -0.7350   62.1460   74.3950 C   0  0  0  0  0  0  0  0  0  0  0  0
   -0.5460   63.0960   73.6400 O   0  0  0  0  0  0  0  0  0  0  0  0
    0.0560   61.0020   74.2980 N   0  0  0  0  0  0  0  0  0  0  0  0
    0.9870   60.8510   73.1830 C   0  0  0  0  0  0  0  0  0  0  0  0
    2.2970   61.6380   73.3940 C   0  0  0  0  0  0  0  0  0  0  0  0
    3.4290   60.7450   73.8640 C   0  0  0  0  0  0  0  0  0  0  0  0
    3.7230   59.6750   72.8360 N   0  0  0  0  0  4  0  0  0  0  0  0
    2.5070   59.1910   72.0700 C   0  0  0  0  0  0  0  0  0  0  0  0
    1.2570   59.3650   72.9140 C   0  0  0  0  0  0  0  0  0  0  0  0
    4.8760   60.0490   71.9180 C   0  0  0  0  0  0  0  0  0  0  0  0
    4.5140   61.1340   70.9400 C   0  0  0  0  0  0  0  0  0  0  0  0
    3.7450   60.8420   69.8040 C   0  0  0  0  0  0  0  0  0  0  0  0
    3.4390   61.8440   68.8820 C   0  0  0  0  0  0  0  0  0  0  0  0
    3.8980   63.1430   69.0850 C   0  0  0  0  0  0  0  0  0  0  0  0
    4.6570   63.4460   70.2110 C   0  0  0  0  0  0  0  0  0  0  0  0
    4.9670   62.4480   71.1370 C   0  0  0  0  0  0  0  0  0  0  0  0
   -3.7460   61.6880   76.6160 C   0  0  0  0  0  0  0  0  0  0  0  0
   -3.0530   62.5150   77.4740 C   0  0  0  0  0  0  0  0  0  0  0  0
   -1.5420   62.9700   76.8450 S   0  0  0  0  0  0  0  0  0  0  0  0
   -1.7900   62.0840   75.3980 C   0  0  0  0  0  0  0  0  0  0  0  0
   -3.0050   61.3970   75.4030 C   0  0  0  0  0  0  0  0  0  0  0  0
   -3.4630   60.4660   74.3210 C   0  0  0  0  0  0  0  0  0  0  0  0
   -5.3350   61.0810   77.0160 S   0  0  0  0  0  6  0  0  0  0  0  0
   -5.7100   61.7510   78.2420 O   0  0  0  0  0  0  0  0  0  0  0  0
   -5.1950   59.6440   76.9110 O   0  0  0  0  0  0  0  0  0  0  0  0
   -9.0290   63.1700   72.4020 Cl  0  0  0  0  0  0  0  0  0  0  0  0
   -8.0370   62.5940   73.6820 C   0  0  0  0  0  0  0  0  0  0  0  0
   -7.8480   61.2200   73.8460 C   0  0  0  0  0  0  0  0  0  0  0  0
   -7.0290   60.7490   74.8750 C   0  0  0  0  0  0  0  0  0  0  0  0
   -6.4010   61.6650   75.7260 C   0  0  0  0  0  0  0  0  0  0  0  0
   -6.6030   63.0410   75.5750 C   0  0  0  0  0  0  0  0  0  0  0  0
   -7.4240   63.5040   74.5450 C   0  0  0  0  0  0  0  0  0  0  0  0
   -0.0162   60.2636   75.0125 H   0  0  0  0  0  0  0  0  0  0  0  0
    0.5108   61.2872   72.2925 H   0  0  0  0  0  0  0  0  0  0  0  0
    2.5867   62.1066   72.4419 H   0  0  0  0  0  0  0  0  0  0  0  0
    2.1165   62.3943   74.1721 H   0  0  0  0  0  0  0  0  0  0  0  0
    4.3309   61.3554   74.0189 H   0  0  0  0  0  0  0  0  0  0  0  0
    3.1318   60.2607   74.8059 H   0  0  0  0  0  0  0  0  0  0  0  0
    4.0286   58.8604   73.3874 H   0  0  0  0  0  0  0  0  0  0  0  0
    2.4046   59.7745   71.1432 H   0  0  0  0  0  0  0  0  0  0  0  0
    2.6336   58.1253   71.8286 H   0  0  0  0  0  0  0  0  0  0  0  0
    0.3978   58.9327   72.3802 H   0  0  0  0  0  0  0  0  0  0  0  0
    1.4056   58.8527   73.8760 H   0  0  0  0  0  0  0  0  0  0  0  0
    5.7174   60.3980   72.5347 H   0  0  0  0  0  0  0  0  0  0  0  0
    5.1404   59.1535   71.3365 H   0  0  0  0  0  0  0  0  0  0  0  0
    3.3809   59.8172   69.6388 H   0  0  0  0  0  0  0  0  0  0  0  0
    2.8346   61.6074   67.9939 H   0  0  0  0  0  0  0  0  0  0  0  0
    3.6603   63.9302   68.3544 H   0  0  0  0  0  0  0  0  0  0  0  0
    5.0136   64.4740   70.3721 H   0  0  0  0  0  0  0  0  0  0  0  0
    5.5688   62.6925   72.0247 H   0  0  0  0  0  0  0  0  0  0  0  0
   -3.4342   62.8423   78.4525 H   0  0  0  0  0  0  0  0  0  0  0  0
   -3.9054   59.5666   74.7742 H   0  0  0  0  0  0  0  0  0  0  0  0
   -4.2157   60.9706   73.6974 H   0  0  0  0  0  0  0  0  0  0  0  0
   -2.6039   60.1777   73.6974 H   0  0  0  0  0  0  0  0  0  0  0  0
   -8.3428   60.5104   73.1666 H   0  0  0  0  0  0  0  0  0  0  0  0
   -6.8792   59.6683   75.0149 H   0  0  0  0  0  0  0  0  0  0  0  0
   -6.1195   63.7516   76.2614 H   0  0  0  0  0  0  0  0  0  0  0  0
   -7.5875   64.5838   74.4138 H   0  0  0  0  0  0  0  0  0  0  0  0
  2  1  2  0
  3  1  1  0
  4  3  1  0
  5  4  1  0
  6  5  1  0
  7  6  1  0
  8  7  1  0
  9  8  1  0
  9  4  1  0
 10  7  1  0
 11 10  1  0
 12 11  2  0
 13 12  1  0
 14 13  2  0
 15 14  1  0
 16 15  2  0
 16 11  1  0
 18 17  2  0
 19 18  1  0
 20  1  1  0
 20 19  1  0
 21 20  2  0
 21 17  1  0
 22 21  1  0
 23 17  1  0
 24 23  2  0
 25 23  2  0
 27 26  1  0
 28 27  2  0
 29 28  1  0
 30 29  2  0
 30 23  1  0
 31 30  1  0
 32 31  2  0
 32 27  1  0
  3 33  1  0
  4 34  1  0
  5 35  1  0
  5 36  1  0
  6 37  1  0
  6 38  1  0
  7 39  1  0
  8 40  1  0
  8 41  1  0
  9 42  1  0
  9 43  1  0
 10 44  1  0
 10 45  1  0
 12 46  1  0
 13 47  1  0
 14 48  1  0
 15 49  1  0
 16 50  1  0
 18 51  1  0
 22 52  1  0
 22 53  1  0
 22 54  1  0
 28 55  1  0
 29 56  1  0
 31 57  1  0
 32 58  1  0
M  CHG  1   7   1
M  END
>  <score>  (7) 
-8.697

$$$$
=
     RDKit          3D

 58 61  0  0  0  0  0  0  0  0999 V2000
   -3.2710   61.8090   75.2610 C   0  0  0  0  0  0  0  0  0  0  0  0
   -2.7510   62.6680   75.9680 O   0  0  0  0  0  0  0  0  0  0  0  0
   -2.5150   61.1320   74.3050 N   0  0  0  0  0  0  0  0  0  0  0  0
   -1.1520   61.5660   74.0120 C   0  0  0  0  0  0  0  0  0  0  0  0
   -0.0960   60.5150   74.4100 C   0  0  0  0  0  0  0  0  0  0  0  0
    0.3900   59.7150   73.2170 C   0  0  0  0  0  0  0  0  0  0  0  0
    1.0410   60.6240   72.1970 N   0  0  0  0  0  4  0  0  0  0  0  0
    0.4300   62.0100   72.1130 C   0  0  0  0  0  0  0  0  0  0  0  0
   -1.0280   61.9630   72.5350 C   0  0  0  0  0  0  0  0  0  0  0  0
    2.5550   60.6640   72.3340 C   0  0  0  0  0  0  0  0  0  0  0  0
    3.2160   61.4710   71.2500 C   0  0  0  0  0  0  0  0  0  0  0  0
    4.0310   62.5670   71.5730 C   0  0  0  0  0  0  0  0  0  0  0  0
    4.6160   63.3330   70.5640 C   0  0  0  0  0  0  0  0  0  0  0  0
    4.3940   63.0140   69.2270 C   0  0  0  0  0  0  0  0  0  0  0  0
    3.5920   61.9250   68.8940 C   0  0  0  0  0  0  0  0  0  0  0  0
    3.0040   61.1550   69.8980 C   0  0  0  0  0  0  0  0  0  0  0  0
   -7.0140   61.4140   75.4780 C   0  0  0  0  0  0  0  0  0  0  0  0
   -6.7350   60.0780   75.2850 C   0  0  0  0  0  0  0  0  0  0  0  0
   -5.0700   59.7910   75.1030 S   0  0  0  0  0  0  0  0  0  0  0  0
   -4.6830   61.4500   75.3000 C   0  0  0  0  0  0  0  0  0  0  0  0
   -5.8220   62.2410   75.4580 C   0  0  0  0  0  0  0  0  0  0  0  0
   -5.8130   63.7370   75.5600 C   0  0  0  0  0  0  0  0  0  0  0  0
   -8.6510   61.9830   75.7030 S   0  0  0  0  0  6  0  0  0  0  0  0
   -8.6450   62.6940   76.9640 O   0  0  0  0  0  0  0  0  0  0  0  0
   -9.4630   60.8090   75.4610 O   0  0  0  0  0  0  0  0  0  0  0  0
   -9.5300   66.2090   71.1580 Cl  0  0  0  0  0  0  0  0  0  0  0  0
   -9.3120   65.0400   72.3990 C   0  0  0  0  0  0  0  0  0  0  0  0
   -8.8090   63.7780   72.0800 C   0  0  0  0  0  0  0  0  0  0  0  0
   -8.6150   62.8310   73.0880 C   0  0  0  0  0  0  0  0  0  0  0  0
   -8.9220   63.1650   74.4110 C   0  0  0  0  0  0  0  0  0  0  0  0
   -9.4420   64.4230   74.7320 C   0  0  0  0  0  0  0  0  0  0  0  0
   -9.6340   65.3640   73.7180 C   0  0  0  0  0  0  0  0  0  0  0  0
   -2.9177   60.3261   73.8057 H   0  0  0  0  0  0  0  0  0  0  0  0
   -0.9456   62.4513   74.6314 H   0  0  0  0  0  0  0  0  0  0  0  0
    0.7628   61.0298   74.8655 H   0  0  0  0  0  0  0  0  0  0  0  0
   -0.5640   59.8160   75.1188 H   0  0  0  0  0  0  0  0  0  0  0  0
    1.1232   58.9686   73.5565 H   0  0  0  0  0  0  0  0  0  0  0  0
   -0.4715   59.2160   72.7493 H   0  0  0  0  0  0  0  0  0  0  0  0
    0.8322   60.1884   71.2873 H   0  0  0  0  0  0  0  0  0  0  0  0
    0.9799   62.6912   72.7790 H   0  0  0  0  0  0  0  0  0  0  0  0
    0.4935   62.3696   71.0754 H   0  0  0  0  0  0  0  0  0  0  0  0
   -1.4785   62.9558   72.3888 H   0  0  0  0  0  0  0  0  0  0  0  0
   -1.5498   61.2134   71.9220 H   0  0  0  0  0  0  0  0  0  0  0  0
    2.8084   61.1087   73.3077 H   0  0  0  0  0  0  0  0  0  0  0  0
    2.9232   59.6309   72.2498 H   0  0  0  0  0  0  0  0  0  0  0  0
    4.2096   62.8236   72.6276 H   0  0  0  0  0  0  0  0  0  0  0  0
    5.2537   64.1904   70.8253 H   0  0  0  0  0  0  0  0  0  0  0  0
    4.8522   63.6223   68.4333 H   0  0  0  0  0  0  0  0  0  0  0  0
    3.4218   61.6715   67.8372 H   0  0  0  0  0  0  0  0  0  0  0  0
    2.3713   60.2962   69.6294 H   0  0  0  0  0  0  0  0  0  0  0  0
   -7.5011   59.2893   75.2526 H   0  0  0  0  0  0  0  0  0  0  0  0
   -5.8112   64.0323   76.6196 H   0  0  0  0  0  0  0  0  0  0  0  0
   -4.9125   64.1327   75.0676 H   0  0  0  0  0  0  0  0  0  0  0  0
   -6.7087   64.1435   75.0676 H   0  0  0  0  0  0  0  0  0  0  0  0
   -8.5657   63.5295   71.0364 H   0  0  0  0  0  0  0  0  0  0  0  0
   -8.2245   61.8321   72.8438 H   0  0  0  0  0  0  0  0  0  0  0  0
   -9.6974   64.6690   75.7733 H   0  0  0  0  0  0  0  0  0  0  0  0
  -10.0381   66.3584   73.9583 H   0  0  0  0  0  0  0  0  0  0  0  0
  2  1  2  0
  3  1  1  0
  4  3  1  0
  5  4  1  0
  6  5  1  0
  7  6  1  0
  8  7  1  0
  9  8  1  0
  9  4  1  0
 10  7  1  0
 11 10  1  0
 12 11  2  0
 13 12  1  0
 14 13  2  0
 15 14  1  0
 16 15  2  0
 16 11  1  0
 18 17  2  0
 19 18  1  0
 20  1  1  0
 20 19  1  0
 21 20  2  0
 21 17  1  0
 22 21  1  0
 23 17  1  0
 24 23  2  0
 25 23  2  0
 27 26  1  0
 28 27  2  0
 29 28  1  0
 30 29  2  0
 30 23  1  0
 31 30  1  0
 32 31  2  0
 32 27  1  0
  3 33  1  0
  4 34  1  0
  5 35  1  0
  5 36  1  0
  6 37  1  0
  6 38  1  0
  7 39  1  0
  8 40  1  0
  8 41  1  0
  9 42  1  0
  9 43  1  0
 10 44  1  0
 10 45  1  0
 12 46  1  0
 13 47  1  0
 14 48  1  0
 15 49  1  0
 16 50  1  0
 18 51  1  0
 22 52  1  0
 22 53  1  0
 22 54  1  0
 28 55  1  0
 29 56  1  0
 31 57  1  0
 32 58  1  0
M  CHG  1   7   1
M  END
>  <score>  (8) 
-8.663

$$$$
=
     RDKit          3D

 58 61  0  0  0  0  0  0  0  0999 V2000
    0.2600   58.9800   74.8780 C   0  0  0  0  0  0  0  0  0  0  0  0
    0.2870   58.3480   75.9310 O   0  0  0  0  0  0  0  0  0  0  0  0
   -0.8290   59.7960   74.5740 N   0  0  0  0  0  0  0  0  0  0  0  0
   -2.0230   59.7610   75.4150 C   0  0  0  0  0  0  0  0  0  0  0  0
   -2.8660   61.0470   75.2980 C   0  0  0  0  0  0  0  0  0  0  0  0
   -4.0620   60.8640   74.3820 C   0  0  0  0  0  0  0  0  0  0  0  0
   -4.9790   59.7850   74.9170 N   0  0  0  0  0  4  0  0  0  0  0  0
   -4.2670   58.6580   75.6380 C   0  0  0  0  0  0  0  0  0  0  0  0
   -2.8530   58.5090   75.1050 C   0  0  0  0  0  0  0  0  0  0  0  0
   -6.1370   60.3520   75.7240 C   0  0  0  0  0  0  0  0  0  0  0  0
   -6.9730   61.3250   74.9380 C   0  0  0  0  0  0  0  0  0  0  0  0
   -7.1820   62.6300   75.4090 C   0  0  0  0  0  0  0  0  0  0  0  0
   -7.9850   63.5190   74.6940 C   0  0  0  0  0  0  0  0  0  0  0  0
   -8.5860   63.1150   73.5040 C   0  0  0  0  0  0  0  0  0  0  0  0
   -8.3820   61.8240   73.0230 C   0  0  0  0  0  0  0  0  0  0  0  0
   -7.5790   60.9310   73.7340 C   0  0  0  0  0  0  0  0  0  0  0  0
    3.0120   59.3460   72.3280 C   0  0  0  0  0  0  0  0  0  0  0  0
    2.6910   58.0440   72.0130 C   0  0  0  0  0  0  0  0  0  0  0  0
    1.4420   57.4370   72.9930 S   0  0  0  0  0  0  0  0  0  0  0  0
    1.2900   58.9150   73.8490 C   0  0  0  0  0  0  0  0  0  0  0  0
    2.2210   59.8650   73.4280 C   0  0  0  0  0  0  0  0  0  0  0  0
    2.3960   61.2200   74.0470 C   0  0  0  0  0  0  0  0  0  0  0  0
    4.2590   60.2150   71.4650 S   0  0  0  0  0  6  0  0  0  0  0  0
    4.4880   59.4620   70.2510 O   0  0  0  0  0  0  0  0  0  0  0  0
    5.2840   60.4340   72.4640 O   0  0  0  0  0  0  0  0  0  0  0  0
    1.6400   65.7090   69.9680 Cl  0  0  0  0  0  0  0  0  0  0  0  0
    2.3660   64.2000   70.3540 C   0  0  0  0  0  0  0  0  0  0  0  0
    3.7230   64.1480   70.6800 C   0  0  0  0  0  0  0  0  0  0  0  0
    4.3120   62.9260   71.0110 C   0  0  0  0  0  0  0  0  0  0  0  0
    3.5310   61.7660   71.0170 C   0  0  0  0  0  0  0  0  0  0  0  0
    2.1750   61.8120   70.6740 C   0  0  0  0  0  0  0  0  0  0  0  0
    1.5930   63.0380   70.3440 C   0  0  0  0  0  0  0  0  0  0  0  0
   -0.7916   60.4227   73.7575 H   0  0  0  0  0  0  0  0  0  0  0  0
   -1.6911   59.7100   76.4625 H   0  0  0  0  0  0  0  0  0  0  0  0
   -3.2255   61.3278   76.2990 H   0  0  0  0  0  0  0  0  0  0  0  0
   -2.2273   61.8329   74.8684 H   0  0  0  0  0  0  0  0  0  0  0  0
   -4.6170   61.8116   74.3175 H   0  0  0  0  0  0  0  0  0  0  0  0
   -3.7046   60.5654   73.3854 H   0  0  0  0  0  0  0  0  0  0  0  0
   -5.3830   59.3454   74.0777 H   0  0  0  0  0  0  0  0  0  0  0  0
   -4.2285   58.8816   76.7143 H   0  0  0  0  0  0  0  0  0  0  0  0
   -4.8159   57.7196   75.4702 H   0  0  0  0  0  0  0  0  0  0  0  0
   -2.3792   57.6355   75.5768 H   0  0  0  0  0  0  0  0  0  0  0  0
   -2.8981   58.3753   74.0141 H   0  0  0  0  0  0  0  0  0  0  0  0
   -6.7788   59.5203   76.0501 H   0  0  0  0  0  0  0  0  0  0  0  0
   -5.7100   60.8968   76.5789 H   0  0  0  0  0  0  0  0  0  0  0  0
   -6.7097   62.9543   76.3480 H   0  0  0  0  0  0  0  0  0  0  0  0
   -8.1438   64.5403   75.0704 H   0  0  0  0  0  0  0  0  0  0  0  0
   -9.2221   63.8161   72.9438 H   0  0  0  0  0  0  0  0  0  0  0  0
   -8.8545   61.5077   72.0813 H   0  0  0  0  0  0  0  0  0  0  0  0
   -7.4199   59.9129   73.3492 H   0  0  0  0  0  0  0  0  0  0  0  0
    3.1855   57.4645   71.2195 H   0  0  0  0  0  0  0  0  0  0  0  0
    2.3840   61.1268   75.1430 H   0  0  0  0  0  0  0  0  0  0  0  0
    3.3569   61.6484   73.7260 H   0  0  0  0  0  0  0  0  0  0  0  0
    1.5754   61.8785   73.7260 H   0  0  0  0  0  0  0  0  0  0  0  0
    4.3265   65.0677   70.6760 H   0  0  0  0  0  0  0  0  0  0  0  0
    5.3811   62.8762   71.2649 H   0  0  0  0  0  0  0  0  0  0  0  0
    1.5732   60.8913   70.6644 H   0  0  0  0  0  0  0  0  0  0  0  0
    0.5271   63.0877   70.0767 H   0  0  0  0  0  0  0  0  0  0  0  0
  2  1  2  0
  3  1  1  0
  4  3  1  0
  5  4  1  0
  6  5  1  0
  7  6  1  0
  8  7  1  0
  9  8  1  0
  9  4  1  0
 10  7  1  0
 11 10  1  0
 12 11  2  0
 13 12  1  0
 14 13  2  0
 15 14  1  0
 16 15  2  0
 16 11  1  0
 18 17  2  0
 19 18  1  0
 20  1  1  0
 20 19  1  0
 21 20  2  0
 21 17  1  0
 22 21  1  0
 23 17  1  0
 24 23  2  0
 25 23  2  0
 27 26  1  0
 28 27  2  0
 29 28  1  0
 30 29  2  0
 30 23  1  0
 31 30  1  0
 32 31  2  0
 32 27  1  0
  3 33  1  0
  4 34  1  0
  5 35  1  0
  5 36  1  0
  6 37  1  0
  6 38  1  0
  7 39  1  0
  8 40  1  0
  8 41  1  0
  9 42  1  0
  9 43  1  0
 10 44  1  0
 10 45  1  0
 12 46  1  0
 13 47  1  0
 14 48  1  0
 15 49  1  0
 16 50  1  0
 18 51  1  0
 22 52  1  0
 22 53  1  0
 22 54  1  0
 28 55  1  0
 29 56  1  0
 31 57  1  0
 32 58  1  0
M  CHG  1   7   1
M  END
>  <score>  (9) 
-8.563

$$$$
