=
     RDKit          3D

 45 45  0  0  0  0  0  0  0  0999 V2000
    2.2540   68.0740   63.8080 O   0  0  0  0  0  0  0  0  0  0  0  0
    5.2850   69.8850   66.0380 C   0  0  0  0  0  0  0  0  0  0  0  0
    4.0690   69.5930   66.6680 C   0  0  0  0  0  0  0  0  0  0  0  0
    3.0280   68.9810   65.9620 C   0  0  0  0  0  0  0  0  0  0  0  0
    3.1930   68.6520   64.6170 C   0  0  0  0  0  0  0  0  0  0  0  0
    4.4090   68.9290   63.9890 C   0  0  0  0  0  0  0  0  0  0  0  0
    5.4480   69.5410   64.6930 C   0  0  0  0  0  0  0  0  0  0  0  0
    6.4150   70.5250   66.8050 C   0  0  0  0  0  0  0  0  0  0  0  0
    5.9940   70.9400   68.2160 C   0  0  0  0  0  0  0  0  0  0  0  0
    7.6610   70.7970   69.9080 C   0  0  0  0  0  0  0  0  0  0  0  0
    7.0600   71.5990   68.9010 O   0  0  0  0  0  0  0  0  0  0  0  0
    2.1950   68.5200   62.4500 C   0  0  0  0  0  0  0  0  0  0  0  0
    0.7230   68.7420   62.0550 C   0  0  2  0  0  0  0  0  0  0  0  0
    0.6490   69.5060   60.8450 O   0  0  0  0  0  0  0  0  0  0  0  0
   -0.1190   69.5020   63.1020 C   0  0  0  0  0  0  0  0  0  0  0  0
   -0.9780   68.6370   63.9730 N   0  0  0  0  0  4  0  0  0  0  0  0
   -0.9250   68.8490   65.4560 C   0  0  0  0  0  0  0  0  0  0  0  0
   -2.3580   68.9690   65.9590 C   0  0  0  0  0  0  0  0  0  0  0  0
   -0.2010   67.6830   66.1170 C   0  0  0  0  0  0  0  0  0  0  0  0
    3.9310   69.8476   67.7292 H   0  0  0  0  0  0  0  0  0  0  0  0
    2.0773   68.7588   66.4688 H   0  0  0  0  0  0  0  0  0  0  0  0
    4.5496   68.6629   62.9310 H   0  0  0  0  0  0  0  0  0  0  0  0
    6.4007   69.7538   64.1860 H   0  0  0  0  0  0  0  0  0  0  0  0
    7.2441   69.8060   66.8798 H   0  0  0  0  0  0  0  0  0  0  0  0
    6.7195   71.4325   66.2630 H   0  0  0  0  0  0  0  0  0  0  0  0
    5.1349   71.6236   68.1475 H   0  0  0  0  0  0  0  0  0  0  0  0
    5.7255   70.0343   68.7796 H   0  0  0  0  0  0  0  0  0  0  0  0
    7.3753   71.1783   70.8995 H   0  0  0  0  0  0  0  0  0  0  0  0
    7.3178   69.7573   69.8021 H   0  0  0  0  0  0  0  0  0  0  0  0
    8.7552   70.8345   69.8021 H   0  0  0  0  0  0  0  0  0  0  0  0
    2.7500   69.4643   62.3481 H   0  0  0  0  0  0  0  0  0  0  0  0
    2.6447   67.7622   61.7916 H   0  0  0  0  0  0  0  0  0  0  0  0
    0.3103   67.7277   61.9511 H   0  0  0  0  0  0  0  0  0  0  0  0
    0.5560   70.4664   61.0663 H   0  0  0  0  0  0  0  0  0  0  0  0
    0.5692   70.0632   63.7512 H   0  0  0  0  0  0  0  0  0  0  0  0
   -0.8069   70.1459   62.5344 H   0  0  0  0  0  0  0  0  0  0  0  0
   -1.9544   68.7817   63.6787 H   0  0  0  0  0  0  0  0  0  0  0  0
   -0.6030   67.6873   63.8379 H   0  0  0  0  0  0  0  0  0  0  0  0
   -0.3706   69.7658   65.7054 H   0  0  0  0  0  0  0  0  0  0  0  0
   -2.3617   68.9693   67.0590 H   0  0  0  0  0  0  0  0  0  0  0  0
   -2.7986   69.9072   65.5906 H   0  0  0  0  0  0  0  0  0  0  0  0
   -2.9485   68.1172   65.5906 H   0  0  0  0  0  0  0  0  0  0  0  0
   -0.2641   67.7847   67.2105 H   0  0  0  0  0  0  0  0  0  0  0  0
   -0.6711   66.7374   65.8089 H   0  0  0  0  0  0  0  0  0  0  0  0
    0.8550   67.6850   65.8089 H   0  0  0  0  0  0  0  0  0  0  0  0
  3  2  2  0
  4  3  1  0
  5  1  1  0
  5  4  2  0
  6  5  1  0
  7  6  2  0
  7  2  1  0
  8  2  1  0
  9  8  1  0
 11 10  1  0
 11  9  1  0
 12  1  1  0
 13 12  1  0
 14 13  1  0
 15 13  1  0
 16 15  1  0
 17 16  1  0
 18 17  1  0
 19 17  1  0
  3 20  1  0
  4 21  1  0
  6 22  1  0
  7 23  1  0
  8 24  1  0
  8 25  1  0
  9 26  1  0
  9 27  1  0
 10 28  1  0
 10 29  1  0
 10 30  1  0
 12 31  1  0
 12 32  1  0
 13 33  1  6
 14 34  1  0
 15 35  1  0
 15 36  1  0
 16 37  1  0
 16 38  1  0
 17 39  1  0
 18 40  1  0
 18 41  1  0
 18 42  1  0
 19 43  1  0
 19 44  1  0
 19 45  1  0
M  CHG  1  16   1
M  END
>  <score>  (1) 
-7.654

$$$$
=
     RDKit          3D

 45 45  0  0  0  0  0  0  0  0999 V2000
    1.7930   68.2540   64.7690 O   0  0  0  0  0  0  0  0  0  0  0  0
    5.2750   70.0050   66.2680 C   0  0  0  0  0  0  0  0  0  0  0  0
    5.2140   69.6880   64.9060 C   0  0  0  0  0  0  0  0  0  0  0  0
    4.0660   69.1060   64.3590 C   0  0  0  0  0  0  0  0  0  0  0  0
    2.9640   68.8370   65.1700 C   0  0  0  0  0  0  0  0  0  0  0  0
    3.0150   69.1650   66.5260 C   0  0  0  0  0  0  0  0  0  0  0  0
    4.1610   69.7450   67.0730 C   0  0  0  0  0  0  0  0  0  0  0  0
    6.5040   70.6540   66.8540 C   0  0  0  0  0  0  0  0  0  0  0  0
    6.1960   71.4200   68.1420 C   0  0  0  0  0  0  0  0  0  0  0  0
    7.1830   70.6470   70.1650 C   0  0  0  0  0  0  0  0  0  0  0  0
    7.3320   71.4570   69.0070 O   0  0  0  0  0  0  0  0  0  0  0  0
    0.8980   69.0510   63.9870 C   0  0  0  0  0  0  0  0  0  0  0  0
   -0.5350   68.5160   64.1600 C   0  0  2  0  0  0  0  0  0  0  0  0
   -1.3740   69.0110   63.1080 O   0  0  0  0  0  0  0  0  0  0  0  0
   -1.2190   68.9160   65.4850 C   0  0  0  0  0  0  0  0  0  0  0  0
   -0.4100   68.6550   66.7180 N   0  0  0  0  0  4  0  0  0  0  0  0
   -0.4800   67.2920   67.3370 C   0  0  0  0  0  0  0  0  0  0  0  0
    0.4370   67.2870   68.5540 C   0  0  0  0  0  0  0  0  0  0  0  0
   -1.9190   66.9770   67.7270 C   0  0  0  0  0  0  0  0  0  0  0  0
    6.0782   69.8989   64.2590 H   0  0  0  0  0  0  0  0  0  0  0  0
    4.0323   68.8601   63.2874 H   0  0  0  0  0  0  0  0  0  0  0  0
    2.1450   68.9648   67.1687 H   0  0  0  0  0  0  0  0  0  0  0  0
    4.1881   69.9989   68.1429 H   0  0  0  0  0  0  0  0  0  0  0  0
    7.2456   69.8724   67.0757 H   0  0  0  0  0  0  0  0  0  0  0  0
    6.8888   71.3743   66.1171 H   0  0  0  0  0  0  0  0  0  0  0  0
    5.9066   72.4499   67.8861 H   0  0  0  0  0  0  0  0  0  0  0  0
    5.3771   70.9048   68.6655 H   0  0  0  0  0  0  0  0  0  0  0  0
    7.2975   71.2692   71.0649 H   0  0  0  0  0  0  0  0  0  0  0  0
    6.1848   70.1849   70.1633 H   0  0  0  0  0  0  0  0  0  0  0  0
    7.9514   69.8599   70.1633 H   0  0  0  0  0  0  0  0  0  0  0  0
    0.9442   70.0965   64.3257 H   0  0  0  0  0  0  0  0  0  0  0  0
    1.1869   69.0006   62.9268 H   0  0  0  0  0  0  0  0  0  0  0  0
   -0.4231   67.4218   64.1461 H   0  0  0  0  0  0  0  0  0  0  0  0
   -2.1570   69.4729   63.5000 H   0  0  0  0  0  0  0  0  0  0  0  0
   -1.4403   69.9927   65.4435 H   0  0  0  0  0  0  0  0  0  0  0  0
   -2.1186   68.2885   65.5686 H   0  0  0  0  0  0  0  0  0  0  0  0
    0.5762   68.8313   66.4789 H   0  0  0  0  0  0  0  0  0  0  0  0
   -0.8197   69.2785   67.4281 H   0  0  0  0  0  0  0  0  0  0  0  0
   -0.1527   66.5180   66.6272 H   0  0  0  0  0  0  0  0  0  0  0  0
   -0.1706   67.2903   69.4709 H   0  0  0  0  0  0  0  0  0  0  0  0
    1.0669   66.3854   68.5348 H   0  0  0  0  0  0  0  0  0  0  0  0
    1.0767   68.1817   68.5348 H   0  0  0  0  0  0  0  0  0  0  0  0
   -2.0060   66.9580   68.8234 H   0  0  0  0  0  0  0  0  0  0  0  0
   -2.5870   67.7502   67.3196 H   0  0  0  0  0  0  0  0  0  0  0  0
   -2.2028   65.9955   67.3196 H   0  0  0  0  0  0  0  0  0  0  0  0
  3  2  2  0
  4  3  1  0
  5  1  1  0
  5  4  2  0
  6  5  1  0
  7  6  2  0
  7  2  1  0
  8  2  1  0
  9  8  1  0
 11 10  1  0
 11  9  1  0
 12  1  1  0
 13 12  1  0
 14 13  1  0
 15 13  1  0
 16 15  1  0
 17 16  1  0
 18 17  1  0
 19 17  1  0
  3 20  1  0
  4 21  1  0
  6 22  1  0
  7 23  1  0
  8 24  1  0
  8 25  1  0
  9 26  1  0
  9 27  1  0
 10 28  1  0
 10 29  1  0
 10 30  1  0
 12 31  1  0
 12 32  1  0
 13 33  1  6
 14 34  1  0
 15 35  1  0
 15 36  1  0
 16 37  1  0
 16 38  1  0
 17 39  1  0
 18 40  1  0
 18 41  1  0
 18 42  1  0
 19 43  1  0
 19 44  1  0
 19 45  1  0
M  CHG  1  16   1
M  END
>  <score>  (2) 
-7.596

$$$$
=
     RDKit          3D

 45 45  0  0  0  0  0  0  0  0999 V2000
   -0.3150   68.4000   65.5130 O   0  0  0  0  0  0  0  0  0  0  0  0
    3.7690   69.2710   65.4540 C   0  0  0  0  0  0  0  0  0  0  0  0
    3.0960   69.2820   66.6820 C   0  0  0  0  0  0  0  0  0  0  0  0
    1.7300   68.9900   66.7510 C   0  0  0  0  0  0  0  0  0  0  0  0
    1.0210   68.6820   65.5900 C   0  0  0  0  0  0  0  0  0  0  0  0
    1.6910   68.6550   64.3650 C   0  0  0  0  0  0  0  0  0  0  0  0
    3.0550   68.9480   64.2960 C   0  0  0  0  0  0  0  0  0  0  0  0
    5.2470   69.5630   65.3830 C   0  0  0  0  0  0  0  0  0  0  0  0
    5.8500   69.8320   66.7640 C   0  0  0  0  0  0  0  0  0  0  0  0
    5.8850   71.5980   68.3580 C   0  0  0  0  0  0  0  0  0  0  0  0
    6.0150   71.2320   66.9920 O   0  0  0  0  0  0  0  0  0  0  0  0
   -1.1270   68.7660   66.6330 C   0  0  0  0  0  0  0  0  0  0  0  0
   -2.1700   67.6620   66.8820 C   0  0  2  0  0  0  0  0  0  0  0  0
   -3.4520   68.2470   67.1440 O   0  0  0  0  0  0  0  0  0  0  0  0
   -1.8610   66.7380   68.0800 C   0  0  0  0  0  0  0  0  0  0  0  0
   -0.4070   66.4570   68.3030 N   0  0  0  0  0  4  0  0  0  0  0  0
    0.0780   66.3040   69.7130 C   0  0  0  0  0  0  0  0  0  0  0  0
    0.0290   64.8220   70.0630 C   0  0  0  0  0  0  0  0  0  0  0  0
    1.4930   66.8550   69.8340 C   0  0  0  0  0  0  0  0  0  0  0  0
    3.6479   69.5230   67.6025 H   0  0  0  0  0  0  0  0  0  0  0  0
    1.2140   69.0033   67.7224 H   0  0  0  0  0  0  0  0  0  0  0  0
    1.1403   68.4010   63.4473 H   0  0  0  0  0  0  0  0  0  0  0  0
    3.5707   68.9245   63.3246 H   0  0  0  0  0  0  0  0  0  0  0  0
    5.7580   68.6977   64.9357 H   0  0  0  0  0  0  0  0  0  0  0  0
    5.3836   70.4679   64.7727 H   0  0  0  0  0  0  0  0  0  0  0  0
    5.1814   69.4195   67.5339 H   0  0  0  0  0  0  0  0  0  0  0  0
    6.8389   69.3526   66.8115 H   0  0  0  0  0  0  0  0  0  0  0  0
    6.1853   70.7525   68.9943 H   0  0  0  0  0  0  0  0  0  0  0  0
    6.5308   72.4631   68.5689 H   0  0  0  0  0  0  0  0  0  0  0  0
    4.8381   71.8619   68.5689 H   0  0  0  0  0  0  0  0  0  0  0  0
   -0.4936   68.8820   67.5248 H   0  0  0  0  0  0  0  0  0  0  0  0
   -1.6377   69.7177   66.4248 H   0  0  0  0  0  0  0  0  0  0  0  0
   -2.1509   67.0552   65.9647 H   0  0  0  0  0  0  0  0  0  0  0  0
   -3.5919   68.3109   68.1220 H   0  0  0  0  0  0  0  0  0  0  0  0
   -2.2604   67.2121   68.9887 H   0  0  0  0  0  0  0  0  0  0  0  0
   -2.3300   65.7697   67.8509 H   0  0  0  0  0  0  0  0  0  0  0  0
   -0.1859   65.5815   67.8076 H   0  0  0  0  0  0  0  0  0  0  0  0
    0.0713   67.3021   67.9595 H   0  0  0  0  0  0  0  0  0  0  0  0
   -0.5568   66.8677   70.4125 H   0  0  0  0  0  0  0  0  0  0  0  0
    0.0251   64.7035   71.1566 H   0  0  0  0  0  0  0  0  0  0  0  0
   -0.8844   64.3760   69.6426 H   0  0  0  0  0  0  0  0  0  0  0  0
    0.9109   64.3166   69.6426 H   0  0  0  0  0  0  0  0  0  0  0  0
    1.7568   66.9577   70.8969 H   0  0  0  0  0  0  0  0  0  0  0  0
    2.1979   66.1656   69.3462 H   0  0  0  0  0  0  0  0  0  0  0  0
    1.5461   67.8395   69.3462 H   0  0  0  0  0  0  0  0  0  0  0  0
  3  2  2  0
  4  3  1  0
  5  1  1  0
  5  4  2  0
  6  5  1  0
  7  6  2  0
  7  2  1  0
  8  2  1  0
  9  8  1  0
 11 10  1  0
 11  9  1  0
 12  1  1  0
 13 12  1  0
 14 13  1  0
 15 13  1  0
 16 15  1  0
 17 16  1  0
 18 17  1  0
 19 17  1  0
  3 20  1  0
  4 21  1  0
  6 22  1  0
  7 23  1  0
  8 24  1  0
  8 25  1  0
  9 26  1  0
  9 27  1  0
 10 28  1  0
 10 29  1  0
 10 30  1  0
 12 31  1  0
 12 32  1  0
 13 33  1  6
 14 34  1  0
 15 35  1  0
 15 36  1  0
 16 37  1  0
 16 38  1  0
 17 39  1  0
 18 40  1  0
 18 41  1  0
 18 42  1  0
 19 43  1  0
 19 44  1  0
 19 45  1  0
M  CHG  1  16   1
M  END
>  <score>  (3) 
-7.507

$$$$
=
     RDKit          3D

 45 45  0  0  0  0  0  0  0  0999 V2000
    0.9350   69.4610   67.5370 O   0  0  0  0  0  0  0  0  0  0  0  0
    5.0580   70.1210   67.5910 C   0  0  0  0  0  0  0  0  0  0  0  0
    4.4800   69.5690   66.4410 C   0  0  0  0  0  0  0  0  0  0  0  0
    3.1020   69.3360   66.3760 C   0  0  0  0  0  0  0  0  0  0  0  0
    2.2870   69.6560   67.4610 C   0  0  0  0  0  0  0  0  0  0  0  0
    2.8570   70.2190   68.6030 C   0  0  0  0  0  0  0  0  0  0  0  0
    4.2320   70.4510   68.6700 C   0  0  0  0  0  0  0  0  0  0  0  0
    6.5400   70.3930   67.6530 C   0  0  0  0  0  0  0  0  0  0  0  0
    6.8520   71.7590   68.2680 C   0  0  0  0  0  0  0  0  0  0  0  0
    7.4510   70.6560   70.2900 C   0  0  0  0  0  0  0  0  0  0  0  0
    7.8000   71.6430   69.3300 O   0  0  0  0  0  0  0  0  0  0  0  0
    0.4810   68.1430   67.8650 C   0  0  0  0  0  0  0  0  0  0  0  0
   -0.5320   67.6800   66.8010 C   0  0  2  0  0  0  0  0  0  0  0  0
    0.0120   66.5890   66.0480 O   0  0  0  0  0  0  0  0  0  0  0  0
   -0.9300   68.7620   65.7730 C   0  0  0  0  0  0  0  0  0  0  0  0
   -0.6440   68.4130   64.3450 N   0  0  0  0  0  4  0  0  0  0  0  0
    0.4460   69.1610   63.6380 C   0  0  0  0  0  0  0  0  0  0  0  0
    1.6250   68.2110   63.4660 C   0  0  0  0  0  0  0  0  0  0  0  0
   -0.0630   69.6610   62.2920 C   0  0  0  0  0  0  0  0  0  0  0  0
    5.1160   69.3160   65.5799 H   0  0  0  0  0  0  0  0  0  0  0  0
    2.6610   68.8997   65.4676 H   0  0  0  0  0  0  0  0  0  0  0  0
    2.2174   70.4825   69.4583 H   0  0  0  0  0  0  0  0  0  0  0  0
    4.6681   70.8959   69.5766 H   0  0  0  0  0  0  0  0  0  0  0  0
    7.0182   69.6124   68.2629 H   0  0  0  0  0  0  0  0  0  0  0  0
    6.9271   70.3900   66.6234 H   0  0  0  0  0  0  0  0  0  0  0  0
    7.2644   72.4173   67.4892 H   0  0  0  0  0  0  0  0  0  0  0  0
    5.9206   72.1779   68.6767 H   0  0  0  0  0  0  0  0  0  0  0  0
    7.5946   71.0621   71.3022 H   0  0  0  0  0  0  0  0  0  0  0  0
    6.3973   70.3702   70.1556 H   0  0  0  0  0  0  0  0  0  0  0  0
    8.0908   69.7714   70.1556 H   0  0  0  0  0  0  0  0  0  0  0  0
    1.3371   67.4525   67.8838 H   0  0  0  0  0  0  0  0  0  0  0  0
    0.0012   68.1517   68.8548 H   0  0  0  0  0  0  0  0  0  0  0  0
   -1.4283   67.4045   67.3761 H   0  0  0  0  0  0  0  0  0  0  0  0
    0.3562   65.8988   66.6687 H   0  0  0  0  0  0  0  0  0  0  0  0
   -2.0105   68.9441   65.8701 H   0  0  0  0  0  0  0  0  0  0  0  0
   -0.3162   69.6454   66.0028 H   0  0  0  0  0  0  0  0  0  0  0  0
   -0.3955   67.4138   64.3186 H   0  0  0  0  0  0  0  0  0  0  0  0
   -1.5028   68.6761   63.8409 H   0  0  0  0  0  0  0  0  0  0  0  0
    0.7640   70.0395   64.2186 H   0  0  0  0  0  0  0  0  0  0  0  0
    1.9998   67.9090   64.4551 H   0  0  0  0  0  0  0  0  0  0  0  0
    1.2996   67.3198   62.9094 H   0  0  0  0  0  0  0  0  0  0  0  0
    2.4266   68.7185   62.9094 H   0  0  0  0  0  0  0  0  0  0  0  0
   -0.8392   70.4235   62.4538 H   0  0  0  0  0  0  0  0  0  0  0  0
    0.7707   70.1010   61.7252 H   0  0  0  0  0  0  0  0  0  0  0  0
   -0.4881   68.8196   61.7252 H   0  0  0  0  0  0  0  0  0  0  0  0
  3  2  2  0
  4  3  1  0
  5  1  1  0
  5  4  2  0
  6  5  1  0
  7  6  2  0
  7  2  1  0
  8  2  1  0
  9  8  1  0
 11 10  1  0
 11  9  1  0
 12  1  1  0
 13 12  1  0
 14 13  1  0
 15 13  1  0
 16 15  1  0
 17 16  1  0
 18 17  1  0
 19 17  1  0
  3 20  1  0
  4 21  1  0
  6 22  1  0
  7 23  1  0
  8 24  1  0
  8 25  1  0
  9 26  1  0
  9 27  1  0
 10 28  1  0
 10 29  1  0
 10 30  1  0
 12 31  1  0
 12 32  1  0
 13 33  1  1
 14 34  1  0
 15 35  1  0
 15 36  1  0
 16 37  1  0
 16 38  1  0
 17 39  1  0
 18 40  1  0
 18 41  1  0
 18 42  1  0
 19 43  1  0
 19 44  1  0
 19 45  1  0
M  CHG  1  16   1
M  END
>  <score>  (4) 
-7.465

$$$$
=
     RDKit          3D

 45 45  0  0  0  0  0  0  0  0999 V2000
    3.1090   68.0600   64.2410 O   0  0  0  0  0  0  0  0  0  0  0  0
    4.5860   70.1560   67.5370 C   0  0  0  0  0  0  0  0  0  0  0  0
    3.2730   69.6700   67.5820 C   0  0  0  0  0  0  0  0  0  0  0  0
    2.7390   68.9570   66.5040 C   0  0  0  0  0  0  0  0  0  0  0  0
    3.5140   68.7210   65.3690 C   0  0  0  0  0  0  0  0  0  0  0  0
    4.8270   69.1910   65.3260 C   0  0  0  0  0  0  0  0  0  0  0  0
    5.3610   69.9040   66.4010 C   0  0  0  0  0  0  0  0  0  0  0  0
    5.1700   70.9060   68.7090 C   0  0  0  0  0  0  0  0  0  0  0  0
    6.3790   71.7530   68.3080 C   0  0  0  0  0  0  0  0  0  0  0  0
    7.2110   70.5980   70.2150 C   0  0  0  0  0  0  0  0  0  0  0  0
    7.5150   71.4500   69.1190 O   0  0  0  0  0  0  0  0  0  0  0  0
    3.1550   68.7830   63.0070 C   0  0  0  0  0  0  0  0  0  0  0  0
    4.2610   68.1890   62.1160 C   0  0  2  0  0  0  0  0  0  0  0  0
    3.6970   67.6980   60.8930 O   0  0  0  0  0  0  0  0  0  0  0  0
    5.0320   67.0070   62.7430 C   0  0  0  0  0  0  0  0  0  0  0  0
    4.2680   65.7220   62.8190 N   0  0  0  0  0  4  0  0  0  0  0  0
    4.4740   64.8440   64.0160 C   0  0  0  0  0  0  0  0  0  0  0  0
    3.1280   64.6840   64.7130 C   0  0  0  0  0  0  0  0  0  0  0  0
    5.0340   63.4970   63.5770 C   0  0  0  0  0  0  0  0  0  0  0  0
    2.6557   69.8510   68.4743 H   0  0  0  0  0  0  0  0  0  0  0  0
    1.7061   68.5818   66.5514 H   0  0  0  0  0  0  0  0  0  0  0  0
    5.4465   68.9982   64.4378 H   0  0  0  0  0  0  0  0  0  0  0  0
    6.3974   70.2696   66.3539 H   0  0  0  0  0  0  0  0  0  0  0  0
    4.3969   71.5675   69.1271 H   0  0  0  0  0  0  0  0  0  0  0  0
    5.5067   70.1659   69.4498 H   0  0  0  0  0  0  0  0  0  0  0  0
    6.6256   71.5503   67.2553 H   0  0  0  0  0  0  0  0  0  0  0  0
    6.1233   72.8134   68.4498 H   0  0  0  0  0  0  0  0  0  0  0  0
    7.4014   71.1315   71.1579 H   0  0  0  0  0  0  0  0  0  0  0  0
    6.1523   70.3033   70.1677 H   0  0  0  0  0  0  0  0  0  0  0  0
    7.8441   69.6997   70.1677 H   0  0  0  0  0  0  0  0  0  0  0  0
    2.1850   68.6997   62.4949 H   0  0  0  0  0  0  0  0  0  0  0  0
    3.3694   69.8433   63.2065 H   0  0  0  0  0  0  0  0  0  0  0  0
    4.9658   69.0198   61.9645 H   0  0  0  0  0  0  0  0  0  0  0  0
    2.9666   67.0621   61.0984 H   0  0  0  0  0  0  0  0  0  0  0  0
    5.9358   66.8315   62.1410 H   0  0  0  0  0  0  0  0  0  0  0  0
    5.2484   67.2977   63.7816 H   0  0  0  0  0  0  0  0  0  0  0  0
    3.2665   65.9599   62.7838 H   0  0  0  0  0  0  0  0  0  0  0  0
    4.6267   65.1654   62.0301 H   0  0  0  0  0  0  0  0  0  0  0  0
    5.1976   65.2910   64.7136 H   0  0  0  0  0  0  0  0  0  0  0  0
    3.2751   64.7015   65.8030 H   0  0  0  0  0  0  0  0  0  0  0  0
    2.4627   65.5094   64.4195 H   0  0  0  0  0  0  0  0  0  0  0  0
    2.6747   63.7257   64.4195 H   0  0  0  0  0  0  0  0  0  0  0  0
    5.2835   62.8968   64.4644 H   0  0  0  0  0  0  0  0  0  0  0  0
    4.2821   62.9660   62.9748 H   0  0  0  0  0  0  0  0  0  0  0  0
    5.9408   63.6556   62.9748 H   0  0  0  0  0  0  0  0  0  0  0  0
  3  2  2  0
  4  3  1  0
  5  1  1  0
  5  4  2  0
  6  5  1  0
  7  6  2  0
  7  2  1  0
  8  2  1  0
  9  8  1  0
 11 10  1  0
 11  9  1  0
 12  1  1  0
 13 12  1  0
 14 13  1  0
 15 13  1  0
 16 15  1  0
 17 16  1  0
 18 17  1  0
 19 17  1  0
  3 20  1  0
  4 21  1  0
  6 22  1  0
  7 23  1  0
  8 24  1  0
  8 25  1  0
  9 26  1  0
  9 27  1  0
 10 28  1  0
 10 29  1  0
 10 30  1  0
 12 31  1  0
 12 32  1  0
 13 33  1  6
 14 34  1  0
 15 35  1  0
 15 36  1  0
 16 37  1  0
 16 38  1  0
 17 39  1  0
 18 40  1  0
 18 41  1  0
 18 42  1  0
 19 43  1  0
 19 44  1  0
 19 45  1  0
M  CHG  1  16   1
M  END
>  <score>  (5) 
-7.445

$$$$
=
     RDKit          3D

 45 45  0  0  0  0  0  0  0  0999 V2000
   -1.0290   68.6000   64.7480 O   0  0  0  0  0  0  0  0  0  0  0  0
    2.7530   68.7380   62.9820 C   0  0  0  0  0  0  0  0  0  0  0  0
    2.6630   68.7130   64.3790 C   0  0  0  0  0  0  0  0  0  0  0  0
    1.4170   68.6600   65.0140 C   0  0  0  0  0  0  0  0  0  0  0  0
    0.2470   68.6300   64.2570 C   0  0  0  0  0  0  0  0  0  0  0  0
    0.3320   68.6400   62.8630 C   0  0  0  0  0  0  0  0  0  0  0  0
    1.5750   68.6940   62.2290 C   0  0  0  0  0  0  0  0  0  0  0  0
    4.0960   68.7720   62.2970 C   0  0  0  0  0  0  0  0  0  0  0  0
    4.9390   67.5350   62.6160 C   0  0  0  0  0  0  0  0  0  0  0  0
    4.2560   65.3810   63.3620 C   0  0  0  0  0  0  0  0  0  0  0  0
    4.2310   66.3330   62.3080 O   0  0  0  0  0  0  0  0  0  0  0  0
   -1.1950   68.8120   66.1540 C   0  0  0  0  0  0  0  0  0  0  0  0
   -2.0910   67.6990   66.7290 C   0  0  2  0  0  0  0  0  0  0  0  0
   -3.2830   68.2670   67.2850 O   0  0  0  0  0  0  0  0  0  0  0  0
   -1.4420   66.8630   67.8530 C   0  0  0  0  0  0  0  0  0  0  0  0
    0.0560   66.8410   67.8410 N   0  0  0  0  0  4  0  0  0  0  0  0
    0.7820   67.4050   69.0250 C   0  0  0  0  0  0  0  0  0  0  0  0
    1.3640   66.2380   69.8130 C   0  0  0  0  0  0  0  0  0  0  0  0
    1.8750   68.3550   68.5540 C   0  0  0  0  0  0  0  0  0  0  0  0
    3.5815   68.7353   64.9839 H   0  0  0  0  0  0  0  0  0  0  0  0
    1.3609   68.6420   66.1124 H   0  0  0  0  0  0  0  0  0  0  0  0
   -0.5873   68.6051   62.2599 H   0  0  0  0  0  0  0  0  0  0  0  0
    1.6281   68.7020   61.1303 H   0  0  0  0  0  0  0  0  0  0  0  0
    3.9379   68.8222   61.2096 H   0  0  0  0  0  0  0  0  0  0  0  0
    4.6399   69.6551   62.6636 H   0  0  0  0  0  0  0  0  0  0  0  0
    5.8642   67.5685   62.0220 H   0  0  0  0  0  0  0  0  0  0  0  0
    5.1681   67.5380   63.6919 H   0  0  0  0  0  0  0  0  0  0  0  0
    4.2423   65.9045   64.3293 H   0  0  0  0  0  0  0  0  0  0  0  0
    3.3747   64.7271   63.2864 H   0  0  0  0  0  0  0  0  0  0  0  0
    5.1704   64.7742   63.2864 H   0  0  0  0  0  0  0  0  0  0  0  0
   -0.2129   68.7868   66.6488 H   0  0  0  0  0  0  0  0  0  0  0  0
   -1.6633   69.7920   66.3283 H   0  0  0  0  0  0  0  0  0  0  0  0
   -2.2867   67.0345   65.8745 H   0  0  0  0  0  0  0  0  0  0  0  0
   -3.2306   68.2420   68.2733 H   0  0  0  0  0  0  0  0  0  0  0  0
   -1.7695   67.2764   68.8183 H   0  0  0  0  0  0  0  0  0  0  0  0
   -1.7661   65.8245   67.6902 H   0  0  0  0  0  0  0  0  0  0  0  0
    0.3463   65.8574   67.7448 H   0  0  0  0  0  0  0  0  0  0  0  0
    0.3142   67.4641   67.0626 H   0  0  0  0  0  0  0  0  0  0  0  0
    0.1003   67.9792   69.6697 H   0  0  0  0  0  0  0  0  0  0  0  0
    1.2647   66.4371   70.8903 H   0  0  0  0  0  0  0  0  0  0  0  0
    0.8200   65.3163   69.5588 H   0  0  0  0  0  0  0  0  0  0  0  0
    2.4275   66.1180   69.5588 H   0  0  0  0  0  0  0  0  0  0  0  0
    2.3803   68.7942   69.4268 H   0  0  0  0  0  0  0  0  0  0  0  0
    2.6063   67.8007   67.9475 H   0  0  0  0  0  0  0  0  0  0  0  0
    1.4279   69.1564   67.9475 H   0  0  0  0  0  0  0  0  0  0  0  0
  3  2  2  0
  4  3  1  0
  5  1  1  0
  5  4  2  0
  6  5  1  0
  7  6  2  0
  7  2  1  0
  8  2  1  0
  9  8  1  0
 11 10  1  0
 11  9  1  0
 12  1  1  0
 13 12  1  0
 14 13  1  0
 15 13  1  0
 16 15  1  0
 17 16  1  0
 18 17  1  0
 19 17  1  0
  3 20  1  0
  4 21  1  0
  6 22  1  0
  7 23  1  0
  8 24  1  0
  8 25  1  0
  9 26  1  0
  9 27  1  0
 10 28  1  0
 10 29  1  0
 10 30  1  0
 12 31  1  0
 12 32  1  0
 13 33  1  6
 14 34  1  0
 15 35  1  0
 15 36  1  0
 16 37  1  0
 16 38  1  0
 17 39  1  0
 18 40  1  0
 18 41  1  0
 18 42  1  0
 19 43  1  0
 19 44  1  0
 19 45  1  0
M  CHG  1  16   1
M  END
>  <score>  (6) 
-7.28

$$$$
=
     RDKit          3D

 45 45  0  0  0  0  0  0  0  0999 V2000
    0.9050   69.0620   67.2790 O   0  0  0  0  0  0  0  0  0  0  0  0
    4.9660   70.0320   67.3600 C   0  0  0  0  0  0  0  0  0  0  0  0
    4.4310   69.4730   66.1930 C   0  0  0  0  0  0  0  0  0  0  0  0
    3.0750   69.1390   66.1180 C   0  0  0  0  0  0  0  0  0  0  0  0
    2.2380   69.3610   67.2110 C   0  0  0  0  0  0  0  0  0  0  0  0
    2.7640   69.9310   68.3720 C   0  0  0  0  0  0  0  0  0  0  0  0
    4.1180   70.2640   68.4480 C   0  0  0  0  0  0  0  0  0  0  0  0
    6.4230   70.4140   67.4330 C   0  0  0  0  0  0  0  0  0  0  0  0
    6.6900   71.4730   68.5050 C   0  0  0  0  0  0  0  0  0  0  0  0
    7.1380   70.3920   70.5770 C   0  0  0  0  0  0  0  0  0  0  0  0
    7.6830   71.0320   69.4310 O   0  0  0  0  0  0  0  0  0  0  0  0
    0.3470   68.3110   66.1960 C   0  0  0  0  0  0  0  0  0  0  0  0
   -0.6660   67.2960   66.7560 C   0  0  2  0  0  0  0  0  0  0  0  0
   -1.9730   67.5660   66.2330 O   0  0  0  0  0  0  0  0  0  0  0  0
   -0.8040   67.3010   68.2940 C   0  0  0  0  0  0  0  0  0  0  0  0
   -0.6230   65.9660   68.9500 N   0  0  0  0  0  4  0  0  0  0  0  0
    0.2400   65.8890   70.1730 C   0  0  0  0  0  0  0  0  0  0  0  0
    0.6040   64.4250   70.3920 C   0  0  0  0  0  0  0  0  0  0  0  0
    1.4840   66.7460   69.9800 C   0  0  0  0  0  0  0  0  0  0  0  0
    5.0841   69.2947   65.3260 H   0  0  0  0  0  0  0  0  0  0  0  0
    2.6679   68.7003   65.1950 H   0  0  0  0  0  0  0  0  0  0  0  0
    2.1066   70.1192   69.2336 H   0  0  0  0  0  0  0  0  0  0  0  0
    4.5201   70.7114   69.3689 H   0  0  0  0  0  0  0  0  0  0  0  0
    7.0133   69.5159   67.6674 H   0  0  0  0  0  0  0  0  0  0  0  0
    6.7099   70.8389   66.4598 H   0  0  0  0  0  0  0  0  0  0  0  0
    7.0380   72.3961   68.0185 H   0  0  0  0  0  0  0  0  0  0  0  0
    5.7555   71.6534   69.0564 H   0  0  0  0  0  0  0  0  0  0  0  0
    7.5396   70.8636   71.4861 H   0  0  0  0  0  0  0  0  0  0  0  0
    6.0425   70.4909   70.5660 H   0  0  0  0  0  0  0  0  0  0  0  0
    7.4101   69.3262   70.5660 H   0  0  0  0  0  0  0  0  0  0  0  0
   -0.1618   68.9928   65.4987 H   0  0  0  0  0  0  0  0  0  0  0  0
    1.1483   67.7789   65.6624 H   0  0  0  0  0  0  0  0  0  0  0  0
   -0.2710   66.3166   66.4482 H   0  0  0  0  0  0  0  0  0  0  0  0
   -2.6074   67.6971   66.9816 H   0  0  0  0  0  0  0  0  0  0  0  0
   -0.0475   67.9873   68.7023 H   0  0  0  0  0  0  0  0  0  0  0  0
   -1.8370   67.6119   68.5091 H   0  0  0  0  0  0  0  0  0  0  0  0
   -1.5587   65.6264   69.2146 H   0  0  0  0  0  0  0  0  0  0  0  0
   -0.1220   65.4026   68.2482 H   0  0  0  0  0  0  0  0  0  0  0  0
   -0.2909   66.2721   71.0570 H   0  0  0  0  0  0  0  0  0  0  0  0
    0.6556   64.2175   71.4710 H   0  0  0  0  0  0  0  0  0  0  0  0
   -0.1621   63.7838   69.9315 H   0  0  0  0  0  0  0  0  0  0  0  0
    1.5811   64.2173   69.9315 H   0  0  0  0  0  0  0  0  0  0  0  0
    1.8917   67.0269   70.9623 H   0  0  0  0  0  0  0  0  0  0  0  0
    2.2389   66.1754   69.4192 H   0  0  0  0  0  0  0  0  0  0  0  0
    1.2199   67.6547   69.4192 H   0  0  0  0  0  0  0  0  0  0  0  0
  3  2  2  0
  4  3  1  0
  5  1  1  0
  5  4  2  0
  6  5  1  0
  7  6  2  0
  7  2  1  0
  8  2  1  0
  9  8  1  0
 11 10  1  0
 11  9  1  0
 12  1  1  0
 13 12  1  0
 14 13  1  0
 15 13  1  0
 16 15  1  0
 17 16  1  0
 18 17  1  0
 19 17  1  0
  3 20  1  0
  4 21  1  0
  6 22  1  0
  7 23  1  0
  8 24  1  0
  8 25  1  0
  9 26  1  0
  9 27  1  0
 10 28  1  0
 10 29  1  0
 10 30  1  0
 12 31  1  0
 12 32  1  0
 13 33  1  6
 14 34  1  0
 15 35  1  0
 15 36  1  0
 16 37  1  0
 16 38  1  0
 17 39  1  0
 18 40  1  0
 18 41  1  0
 18 42  1  0
 19 43  1  0
 19 44  1  0
 19 45  1  0
M  CHG  1  16   1
M  END
>  <score>  (7) 
-7.242

$$$$
=
     RDKit          3D

 45 45  0  0  0  0  0  0  0  0999 V2000
    4.6850   68.9240   65.1830 O   0  0  0  0  0  0  0  0  0  0  0  0
    0.8710   68.9490   66.8830 C   0  0  0  0  0  0  0  0  0  0  0  0
    1.9500   69.4160   67.6440 C   0  0  0  0  0  0  0  0  0  0  0  0
    3.2440   69.4320   67.1130 C   0  0  0  0  0  0  0  0  0  0  0  0
    3.4730   68.9820   65.8130 C   0  0  0  0  0  0  0  0  0  0  0  0
    2.3980   68.5300   65.0460 C   0  0  0  0  0  0  0  0  0  0  0  0
    1.1060   68.5120   65.5750 C   0  0  0  0  0  0  0  0  0  0  0  0
   -0.5280   68.9530   67.4460 C   0  0  0  0  0  0  0  0  0  0  0  0
   -1.5900   69.1260   66.3580 C   0  0  0  0  0  0  0  0  0  0  0  0
   -2.3220   67.1370   67.4400 C   0  0  0  0  0  0  0  0  0  0  0  0
   -2.6100   68.1330   66.4680 O   0  0  0  0  0  0  0  0  0  0  0  0
    4.7680   69.4860   63.8690 C   0  0  0  0  0  0  0  0  0  0  0  0
    5.5340   68.5130   62.9530 C   0  0  2  0  0  0  0  0  0  0  0  0
    5.7670   69.1220   61.6770 O   0  0  0  0  0  0  0  0  0  0  0  0
    4.8060   67.1810   62.6730 C   0  0  0  0  0  0  0  0  0  0  0  0
    4.8810   66.1740   63.7800 N   0  0  0  0  0  4  0  0  0  0  0  0
    4.0210   64.9500   63.6840 C   0  0  0  0  0  0  0  0  0  0  0  0
    4.9110   63.7370   63.9260 C   0  0  0  0  0  0  0  0  0  0  0  0
    2.8980   65.0270   64.7100 C   0  0  0  0  0  0  0  0  0  0  0  0
    1.7781   69.7739   68.6698 H   0  0  0  0  0  0  0  0  0  0  0  0
    4.0827   69.8003   67.7221 H   0  0  0  0  0  0  0  0  0  0  0  0
    2.5702   68.1850   64.0158 H   0  0  0  0  0  0  0  0  0  0  0  0
    0.2681   68.1522   64.9598 H   0  0  0  0  0  0  0  0  0  0  0  0
   -0.7039   67.9986   67.9638 H   0  0  0  0  0  0  0  0  0  0  0  0
   -0.6110   69.8052   68.1366 H   0  0  0  0  0  0  0  0  0  0  0  0
   -2.0467   70.1217   66.4578 H   0  0  0  0  0  0  0  0  0  0  0  0
   -1.1039   69.0181   65.3772 H   0  0  0  0  0  0  0  0  0  0  0  0
   -2.4447   67.5614   68.4474 H   0  0  0  0  0  0  0  0  0  0  0  0
   -3.0120   66.2898   67.3125 H   0  0  0  0  0  0  0  0  0  0  0  0
   -1.2864   66.7888   67.3125 H   0  0  0  0  0  0  0  0  0  0  0  0
    3.7547   69.6456   63.4718 H   0  0  0  0  0  0  0  0  0  0  0  0
    5.2963   70.4499   63.9106 H   0  0  0  0  0  0  0  0  0  0  0  0
    6.4610   68.2902   63.5016 H   0  0  0  0  0  0  0  0  0  0  0  0
    6.1177   70.0385   61.8079 H   0  0  0  0  0  0  0  0  0  0  0  0
    3.7453   67.4045   62.4862 H   0  0  0  0  0  0  0  0  0  0  0  0
    5.3152   66.7277   61.8097 H   0  0  0  0  0  0  0  0  0  0  0  0
    5.8590   65.8562   63.8379 H   0  0  0  0  0  0  0  0  0  0  0  0
    4.5210   66.6746   64.6050 H   0  0  0  0  0  0  0  0  0  0  0  0
    3.5551   64.8712   62.6906 H   0  0  0  0  0  0  0  0  0  0  0  0
    5.0277   63.5779   65.0082 H   0  0  0  0  0  0  0  0  0  0  0  0
    4.4497   62.8474   63.4723 H   0  0  0  0  0  0  0  0  0  0  0  0
    5.8980   63.9100   63.4723 H   0  0  0  0  0  0  0  0  0  0  0  0
    3.3246   64.9977   65.7235 H   0  0  0  0  0  0  0  0  0  0  0  0
    2.3406   65.9655   64.5738 H   0  0  0  0  0  0  0  0  0  0  0  0
    2.2177   64.1734   64.5738 H   0  0  0  0  0  0  0  0  0  0  0  0
  3  2  2  0
  4  3  1  0
  5  1  1  0
  5  4  2  0
  6  5  1  0
  7  6  2  0
  7  2  1  0
  8  2  1  0
  9  8  1  0
 11 10  1  0
 11  9  1  0
 12  1  1  0
 13 12  1  0
 14 13  1  0
 15 13  1  0
 16 15  1  0
 17 16  1  0
 18 17  1  0
 19 17  1  0
  3 20  1  0
  4 21  1  0
  6 22  1  0
  7 23  1  0
  8 24  1  0
  8 25  1  0
  9 26  1  0
  9 27  1  0
 10 28  1  0
 10 29  1  0
 10 30  1  0
 12 31  1  0
 12 32  1  0
 13 33  1  1
 14 34  1  0
 15 35  1  0
 15 36  1  0
 16 37  1  0
 16 38  1  0
 17 39  1  0
 18 40  1  0
 18 41  1  0
 18 42  1  0
 19 43  1  0
 19 44  1  0
 19 45  1  0
M  CHG  1  16   1
M  END
>  <score>  (8) 
-6.914

$$$$
=
     RDKit          3D

 45 45  0  0  0  0  0  0  0  0999 V2000
    5.2030   68.3250   63.4240 O   0  0  0  0  0  0  0  0  0  0  0  0
    4.3380   69.8960   67.1950 C   0  0  0  0  0  0  0  0  0  0  0  0
    3.3270   69.2230   66.4980 C   0  0  0  0  0  0  0  0  0  0  0  0
    3.5730   68.6750   65.2350 C   0  0  0  0  0  0  0  0  0  0  0  0
    4.8360   68.7930   64.6550 C   0  0  0  0  0  0  0  0  0  0  0  0
    5.8510   69.4500   65.3530 C   0  0  0  0  0  0  0  0  0  0  0  0
    5.6050   69.9990   66.6130 C   0  0  0  0  0  0  0  0  0  0  0  0
    4.0790   70.4670   68.5670 C   0  0  0  0  0  0  0  0  0  0  0  0
    5.2310   71.3490   69.0530 C   0  0  0  0  0  0  0  0  0  0  0  0
    7.5150   70.9080   69.5510 C   0  0  0  0  0  0  0  0  0  0  0  0
    6.1580   70.6020   69.8400 O   0  0  0  0  0  0  0  0  0  0  0  0
    4.2600   67.5040   62.7270 C   0  0  0  0  0  0  0  0  0  0  0  0
    3.7930   68.2400   61.4580 C   0  0  2  0  0  0  0  0  0  0  0  0
    4.6480   69.3600   61.1960 O   0  0  0  0  0  0  0  0  0  0  0  0
    2.3550   68.7970   61.5260 C   0  0  0  0  0  0  0  0  0  0  0  0
    1.5010   68.2140   62.6090 N   0  0  0  0  0  4  0  0  0  0  0  0
    0.0780   68.6730   62.7150 C   0  0  0  0  0  0  0  0  0  0  0  0
   -0.2150   68.9450   64.1850 C   0  0  0  0  0  0  0  0  0  0  0  0
   -0.1240   69.9230   61.8690 C   0  0  0  0  0  0  0  0  0  0  0  0
    2.3285   69.1243   66.9488 H   0  0  0  0  0  0  0  0  0  0  0  0
    2.7691   68.1501   64.6982 H   0  0  0  0  0  0  0  0  0  0  0  0
    6.8527   69.5358   64.9067 H   0  0  0  0  0  0  0  0  0  0  0  0
    6.4132   70.5159   67.1512 H   0  0  0  0  0  0  0  0  0  0  0  0
    3.1607   71.0715   68.5315 H   0  0  0  0  0  0  0  0  0  0  0  0
    3.9781   69.6262   69.2691 H   0  0  0  0  0  0  0  0  0  0  0  0
    5.7557   71.7663   68.1809 H   0  0  0  0  0  0  0  0  0  0  0  0
    4.8139   72.1532   69.6770 H   0  0  0  0  0  0  0  0  0  0  0  0
    8.0710   71.0334   70.4918 H   0  0  0  0  0  0  0  0  0  0  0  0
    7.9599   70.0876   68.9687 H   0  0  0  0  0  0  0  0  0  0  0  0
    7.5647   71.8399   68.9687 H   0  0  0  0  0  0  0  0  0  0  0  0
    4.7360   66.5527   62.4470 H   0  0  0  0  0  0  0  0  0  0  0  0
    3.3958   67.2992   63.3760 H   0  0  0  0  0  0  0  0  0  0  0  0
    3.8295   67.4750   60.6685 H   0  0  0  0  0  0  0  0  0  0  0  0
    4.9484   69.7535   62.0533 H   0  0  0  0  0  0  0  0  0  0  0  0
    2.4171   69.8832   61.6880 H   0  0  0  0  0  0  0  0  0  0  0  0
    1.8743   68.5240   60.5750 H   0  0  0  0  0  0  0  0  0  0  0  0
    1.4829   67.1939   62.4675 H   0  0  0  0  0  0  0  0  0  0  0  0
    1.9394   68.5399   63.4822 H   0  0  0  0  0  0  0  0  0  0  0  0
   -0.6140   67.9047   62.3396 H   0  0  0  0  0  0  0  0  0  0  0  0
    0.4479   68.3296   64.8110 H   0  0  0  0  0  0  0  0  0  0  0  0
   -0.0412   70.0091   64.4027 H   0  0  0  0  0  0  0  0  0  0  0  0
   -1.2633   68.6927   64.4027 H   0  0  0  0  0  0  0  0  0  0  0  0
   -0.2646   70.7927   62.5276 H   0  0  0  0  0  0  0  0  0  0  0  0
    0.7600   70.0829   61.2341 H   0  0  0  0  0  0  0  0  0  0  0  0
   -1.0133   69.7963   61.2341 H   0  0  0  0  0  0  0  0  0  0  0  0
  3  2  2  0
  4  3  1  0
  5  1  1  0
  5  4  2  0
  6  5  1  0
  7  6  2  0
  7  2  1  0
  8  2  1  0
  9  8  1  0
 11 10  1  0
 11  9  1  0
 12  1  1  0
 13 12  1  0
 14 13  1  0
 15 13  1  0
 16 15  1  0
 17 16  1  0
 18 17  1  0
 19 17  1  0
  3 20  1  0
  4 21  1  0
  6 22  1  0
  7 23  1  0
  8 24  1  0
  8 25  1  0
  9 26  1  0
  9 27  1  0
 10 28  1  0
 10 29  1  0
 10 30  1  0
 12 31  1  0
 12 32  1  0
 13 33  1  6
 14 34  1  0
 15 35  1  0
 15 36  1  0
 16 37  1  0
 16 38  1  0
 17 39  1  0
 18 40  1  0
 18 41  1  0
 18 42  1  0
 19 43  1  0
 19 44  1  0
 19 45  1  0
M  CHG  1  16   1
M  END
>  <score>  (9) 
-6.912

$$$$
