=
     RDKit          3D

 21 21  0  0  0  0  0  0  0  0999 V2000
    2.8500   66.7980   64.7440 C   0  0  0  0  0  0  0  0  0  0  0  0
    3.6920   67.6550   63.8010 C   0  0  2  0  0  0  0  0  0  0  0  0
    2.8040   68.5920   62.9530 C   0  0  0  0  0  0  0  0  0  0  0  0
    3.3590   68.4610   61.5630 C   0  0  0  0  0  0  0  0  0  0  0  0
    2.9830   69.0920   60.5890 O   0  0  0  0  0  0  0  0  0  0  0  0
    4.2890   67.4770   61.5490 N   0  0  0  0  0  0  0  0  0  0  0  0
    4.3440   66.8040   62.7250 C   0  0  0  0  0  0  0  0  0  0  0  0
    4.8450   65.7020   62.8750 O   0  0  0  0  0  0  0  0  0  0  0  0
    4.7660   68.4880   64.5410 C   0  0  0  0  0  0  0  0  0  0  0  0
    4.2330   69.4200   65.6230 C   0  0  0  0  0  0  0  0  0  0  0  0
    3.0966   67.0490   65.7862 H   0  0  0  0  0  0  0  0  0  0  0  0
    1.7828   66.9933   64.5625 H   0  0  0  0  0  0  0  0  0  0  0  0
    3.0641   65.7344   64.5625 H   0  0  0  0  0  0  0  0  0  0  0  0
    1.7528   68.2698   62.9860 H   0  0  0  0  0  0  0  0  0  0  0  0
    2.8159   69.6299   63.3171 H   0  0  0  0  0  0  0  0  0  0  0  0
    4.8866   67.2639   60.7376 H   0  0  0  0  0  0  0  0  0  0  0  0
    5.4736   67.7896   65.0117 H   0  0  0  0  0  0  0  0  0  0  0  0
    5.2275   69.1354   63.7808 H   0  0  0  0  0  0  0  0  0  0  0  0
    4.4703   69.0051   66.6138 H   0  0  0  0  0  0  0  0  0  0  0  0
    4.7017   70.4096   65.5180 H   0  0  0  0  0  0  0  0  0  0  0  0
    3.1424   69.5178   65.5180 H   0  0  0  0  0  0  0  0  0  0  0  0
  2  1  1  1
  3  2  1  0
  4  3  1  0
  5  4  2  0
  6  4  1  0
  7  6  1  0
  7  2  1  0
  8  7  2  0
  9  2  1  0
 10  9  1  0
  1 11  1  0
  1 12  1  0
  1 13  1  0
  3 14  1  0
  3 15  1  0
  6 16  1  0
  9 17  1  0
  9 18  1  0
 10 19  1  0
 10 20  1  0
 10 21  1  0
M  END
>  <score>  (1) 
-6.275

$$$$
=
     RDKit          3D

 21 21  0  0  0  0  0  0  0  0999 V2000
    1.8790   68.6700   63.3760 C   0  0  0  0  0  0  0  0  0  0  0  0
    2.8930   67.8220   64.1430 C   0  0  2  0  0  0  0  0  0  0  0  0
    3.9700   67.2470   63.1990 C   0  0  0  0  0  0  0  0  0  0  0  0
    4.0960   65.8110   63.6210 C   0  0  0  0  0  0  0  0  0  0  0  0
    4.8950   65.0070   63.1690 O   0  0  0  0  0  0  0  0  0  0  0  0
    3.1290   65.5300   64.5270 N   0  0  0  0  0  0  0  0  0  0  0  0
    2.2520   66.5540   64.6770 C   0  0  0  0  0  0  0  0  0  0  0  0
    1.1410   66.4520   65.1700 O   0  0  0  0  0  0  0  0  0  0  0  0
    3.5740   68.5970   65.2970 C   0  0  0  0  0  0  0  0  0  0  0  0
    4.7770   69.4410   64.8910 C   0  0  0  0  0  0  0  0  0  0  0  0
    1.2364   69.2074   64.0890 H   0  0  0  0  0  0  0  0  0  0  0  0
    2.4115   69.3955   62.7435 H   0  0  0  0  0  0  0  0  0  0  0  0
    1.2592   68.0175   62.7435 H   0  0  0  0  0  0  0  0  0  0  0  0
    3.6485   67.3191   62.1495 H   0  0  0  0  0  0  0  0  0  0  0  0
    4.9234   67.7919   63.2636 H   0  0  0  0  0  0  0  0  0  0  0  0
    3.0667   64.6407   65.0429 H   0  0  0  0  0  0  0  0  0  0  0  0
    2.8251   69.2658   65.7462 H   0  0  0  0  0  0  0  0  0  0  0  0
    3.9563   67.8353   65.9924 H   0  0  0  0  0  0  0  0  0  0  0  0
    5.2924   69.8026   65.7930 H   0  0  0  0  0  0  0  0  0  0  0  0
    5.4691   68.8294   64.2935 H   0  0  0  0  0  0  0  0  0  0  0  0
    4.4375   70.2999   64.2935 H   0  0  0  0  0  0  0  0  0  0  0  0
  2  1  1  6
  3  2  1  0
  4  3  1  0
  5  4  2  0
  6  4  1  0
  7  6  1  0
  7  2  1  0
  8  7  2  0
  9  2  1  0
 10  9  1  0
  1 11  1  0
  1 12  1  0
  1 13  1  0
  3 14  1  0
  3 15  1  0
  6 16  1  0
  9 17  1  0
  9 18  1  0
 10 19  1  0
 10 20  1  0
 10 21  1  0
M  END
>  <score>  (2) 
-5.841

$$$$
=
     RDKit          3D

 21 21  0  0  0  0  0  0  0  0999 V2000
    2.6330   68.6250   63.1960 C   0  0  0  0  0  0  0  0  0  0  0  0
    3.8900   68.4600   64.0500 C   0  0  2  0  0  0  0  0  0  0  0  0
    3.7240   69.1380   65.4270 C   0  0  0  0  0  0  0  0  0  0  0  0
    5.0140   69.8810   65.6250 C   0  0  0  0  0  0  0  0  0  0  0  0
    5.3260   70.5030   66.6270 O   0  0  0  0  0  0  0  0  0  0  0  0
    5.7430   69.8150   64.4850 N   0  0  0  0  0  0  0  0  0  0  0  0
    5.0530   69.2420   63.4670 C   0  0  0  0  0  0  0  0  0  0  0  0
    5.3410   69.3450   62.2860 O   0  0  0  0  0  0  0  0  0  0  0  0
    4.2930   66.9790   64.2450 C   0  0  0  0  0  0  0  0  0  0  0  0
    4.3280   66.1420   62.9720 C   0  0  0  0  0  0  0  0  0  0  0  0
    1.7570   68.7400   63.8513 H   0  0  0  0  0  0  0  0  0  0  0  0
    2.7356   69.5174   62.5611 H   0  0  0  0  0  0  0  0  0  0  0  0
    2.5018   67.7364   62.5611 H   0  0  0  0  0  0  0  0  0  0  0  0
    2.8704   69.8317   65.4207 H   0  0  0  0  0  0  0  0  0  0  0  0
    3.5236   68.4162   66.2325 H   0  0  0  0  0  0  0  0  0  0  0  0
    6.7098   70.1601   64.4008 H   0  0  0  0  0  0  0  0  0  0  0  0
    5.2966   66.9560   64.6948 H   0  0  0  0  0  0  0  0  0  0  0  0
    3.5150   66.5328   64.8819 H   0  0  0  0  0  0  0  0  0  0  0  0
    4.3726   65.0750   63.2358 H   0  0  0  0  0  0  0  0  0  0  0  0
    3.4210   66.3359   62.3806 H   0  0  0  0  0  0  0  0  0  0  0  0
    5.2157   66.4109   62.3806 H   0  0  0  0  0  0  0  0  0  0  0  0
  2  1  1  6
  3  2  1  0
  4  3  1  0
  5  4  2  0
  6  4  1  0
  7  6  1  0
  7  2  1  0
  8  7  2  0
  9  2  1  0
 10  9  1  0
  1 11  1  0
  1 12  1  0
  1 13  1  0
  3 14  1  0
  3 15  1  0
  6 16  1  0
  9 17  1  0
  9 18  1  0
 10 19  1  0
 10 20  1  0
 10 21  1  0
M  END
>  <score>  (3) 
-5.738

$$$$
=
     RDKit          3D

 21 21  0  0  0  0  0  0  0  0999 V2000
    4.1100   69.0930   64.9210 C   0  0  0  0  0  0  0  0  0  0  0  0
    3.7120   68.2210   63.7320 C   0  0  2  0  0  0  0  0  0  0  0  0
    3.5170   66.7500   64.1570 C   0  0  0  0  0  0  0  0  0  0  0  0
    4.2300   65.9640   63.0930 C   0  0  0  0  0  0  0  0  0  0  0  0
    4.2620   64.7480   63.0130 O   0  0  0  0  0  0  0  0  0  0  0  0
    4.8940   66.8210   62.2820 N   0  0  0  0  0  0  0  0  0  0  0  0
    4.8540   68.0980   62.7380 C   0  0  0  0  0  0  0  0  0  0  0  0
    5.6130   68.9870   62.3900 O   0  0  0  0  0  0  0  0  0  0  0  0
    2.4380   68.7270   63.0140 C   0  0  0  0  0  0  0  0  0  0  0  0
    1.1400   68.5490   63.7940 C   0  0  0  0  0  0  0  0  0  0  0  0
    3.8703   68.5678   65.8574 H   0  0  0  0  0  0  0  0  0  0  0  0
    5.1902   69.2967   64.8810 H   0  0  0  0  0  0  0  0  0  0  0  0
    3.5561   70.0425   64.8810 H   0  0  0  0  0  0  0  0  0  0  0  0
    3.9650   66.5661   65.1447 H   0  0  0  0  0  0  0  0  0  0  0  0
    2.4561   66.4734   64.2470 H   0  0  0  0  0  0  0  0  0  0  0  0
    5.3749   66.5358   61.4170 H   0  0  0  0  0  0  0  0  0  0  0  0
    2.5668   69.7998   62.8077 H   0  0  0  0  0  0  0  0  0  0  0  0
    2.3353   68.1146   62.1060 H   0  0  0  0  0  0  0  0  0  0  0  0
    1.3535   68.5783   64.8727 H   0  0  0  0  0  0  0  0  0  0  0  0
    0.4430   69.3600   63.5360 H   0  0  0  0  0  0  0  0  0  0  0  0
    0.6871   67.5803   63.5360 H   0  0  0  0  0  0  0  0  0  0  0  0
  2  1  1  1
  3  2  1  0
  4  3  1  0
  5  4  2  0
  6  4  1  0
  7  6  1  0
  7  2  1  0
  8  7  2  0
  9  2  1  0
 10  9  1  0
  1 11  1  0
  1 12  1  0
  1 13  1  0
  3 14  1  0
  3 15  1  0
  6 16  1  0
  9 17  1  0
  9 18  1  0
 10 19  1  0
 10 20  1  0
 10 21  1  0
M  END
>  <score>  (4) 
-5.731

$$$$
=
     RDKit          3D

 21 21  0  0  0  0  0  0  0  0999 V2000
    3.4750   69.0830   65.2140 C   0  0  0  0  0  0  0  0  0  0  0  0
    3.0900   68.2440   63.9970 C   0  0  2  0  0  0  0  0  0  0  0  0
    3.8920   68.6700   62.7480 C   0  0  0  0  0  0  0  0  0  0  0  0
    2.8610   68.7380   61.6580 C   0  0  0  0  0  0  0  0  0  0  0  0
    3.0870   68.9760   60.4830 O   0  0  0  0  0  0  0  0  0  0  0  0
    1.6310   68.5700   62.2010 N   0  0  0  0  0  0  0  0  0  0  0  0
    1.6680   68.5410   63.5560 C   0  0  0  0  0  0  0  0  0  0  0  0
    0.7040   68.7200   64.2830 O   0  0  0  0  0  0  0  0  0  0  0  0
    3.2650   66.7250   64.2330 C   0  0  0  0  0  0  0  0  0  0  0  0
    4.4830   66.0990   63.5640 C   0  0  0  0  0  0  0  0  0  0  0  0
    3.2228   68.5334   66.1329 H   0  0  0  0  0  0  0  0  0  0  0  0
    4.5560   69.2853   65.1928 H   0  0  0  0  0  0  0  0  0  0  0  0
    2.9234   70.0345   65.1928 H   0  0  0  0  0  0  0  0  0  0  0  0
    4.3629   69.6521   62.9022 H   0  0  0  0  0  0  0  0  0  0  0  0
    4.7102   67.9733   62.5131 H   0  0  0  0  0  0  0  0  0  0  0  0
    0.7672   68.4752   61.6480 H   0  0  0  0  0  0  0  0  0  0  0  0
    3.3483   66.5567   65.3168 H   0  0  0  0  0  0  0  0  0  0  0  0
    2.3867   66.2430   63.7789 H   0  0  0  0  0  0  0  0  0  0  0  0
    5.1809   65.7403   64.3349 H   0  0  0  0  0  0  0  0  0  0  0  0
    4.1630   65.2536   62.9371 H   0  0  0  0  0  0  0  0  0  0  0  0
    4.9841   66.8513   62.9371 H   0  0  0  0  0  0  0  0  0  0  0  0
  2  1  1  1
  3  2  1  0
  4  3  1  0
  5  4  2  0
  6  4  1  0
  7  6  1  0
  7  2  1  0
  8  7  2  0
  9  2  1  0
 10  9  1  0
  1 11  1  0
  1 12  1  0
  1 13  1  0
  3 14  1  0
  3 15  1  0
  6 16  1  0
  9 17  1  0
  9 18  1  0
 10 19  1  0
 10 20  1  0
 10 21  1  0
M  END
>  <score>  (5) 
-5.547

$$$$
=
     RDKit          3D

 21 21  0  0  0  0  0  0  0  0999 V2000
    3.9600   66.5670   63.7820 C   0  0  0  0  0  0  0  0  0  0  0  0
    3.2060   67.8950   63.7380 C   0  0  2  0  0  0  0  0  0  0  0  0
    1.8630   67.8010   64.4920 C   0  0  0  0  0  0  0  0  0  0  0  0
    0.8800   68.4680   63.5720 C   0  0  0  0  0  0  0  0  0  0  0  0
   -0.2970   68.6690   63.8190 O   0  0  0  0  0  0  0  0  0  0  0  0
    1.4920   68.7400   62.3940 N   0  0  0  0  0  0  0  0  0  0  0  0
    2.7380   68.2110   62.3280 C   0  0  0  0  0  0  0  0  0  0  0  0
    3.3660   68.0330   61.2970 O   0  0  0  0  0  0  0  0  0  0  0  0
    4.0350   69.0750   64.2980 C   0  0  0  0  0  0  0  0  0  0  0  0
    3.8510   69.3490   65.7860 C   0  0  0  0  0  0  0  0  0  0  0  0
    4.1262   66.2743   64.8292 H   0  0  0  0  0  0  0  0  0  0  0  0
    3.3673   65.7918   63.2742 H   0  0  0  0  0  0  0  0  0  0  0  0
    4.9294   66.6787   63.2742 H   0  0  0  0  0  0  0  0  0  0  0  0
    1.5851   66.7509   64.6657 H   0  0  0  0  0  0  0  0  0  0  0  0
    1.9014   68.2742   65.4843 H   0  0  0  0  0  0  0  0  0  0  0  0
    1.0596   69.2864   61.6354 H   0  0  0  0  0  0  0  0  0  0  0  0
    5.0987   68.8578   64.1210 H   0  0  0  0  0  0  0  0  0  0  0  0
    3.6772   69.9744   63.7755 H   0  0  0  0  0  0  0  0  0  0  0  0
    4.3712   68.5744   66.3685 H   0  0  0  0  0  0  0  0  0  0  0  0
    4.2701   70.3359   66.0317 H   0  0  0  0  0  0  0  0  0  0  0  0
    2.7789   69.3345   66.0317 H   0  0  0  0  0  0  0  0  0  0  0  0
  2  1  1  6
  3  2  1  0
  4  3  1  0
  5  4  2  0
  6  4  1  0
  7  6  1  0
  7  2  1  0
  8  7  2  0
  9  2  1  0
 10  9  1  0
  1 11  1  0
  1 12  1  0
  1 13  1  0
  3 14  1  0
  3 15  1  0
  6 16  1  0
  9 17  1  0
  9 18  1  0
 10 19  1  0
 10 20  1  0
 10 21  1  0
M  END
>  <score>  (6) 
-5.504

$$$$
=
     RDKit          3D

 21 21  0  0  0  0  0  0  0  0999 V2000
    2.5880   62.2300   69.4380 C   0  0  0  0  0  0  0  0  0  0  0  0
    3.4000   61.2970   70.3360 C   0  0  2  0  0  0  0  0  0  0  0  0
    3.8410   60.0300   69.5720 C   0  0  0  0  0  0  0  0  0  0  0  0
    3.5500   58.9080   70.5280 C   0  0  0  0  0  0  0  0  0  0  0  0
    3.8140   57.7320   70.3410 O   0  0  0  0  0  0  0  0  0  0  0  0
    2.8770   59.4000   71.5950 N   0  0  0  0  0  0  0  0  0  0  0  0
    2.5330   60.7010   71.4310 C   0  0  0  0  0  0  0  0  0  0  0  0
    1.6720   61.2810   72.0730 O   0  0  0  0  0  0  0  0  0  0  0  0
    4.6380   61.9870   70.9570 C   0  0  0  0  0  0  0  0  0  0  0  0
    4.8360   63.4450   70.5590 C   0  0  0  0  0  0  0  0  0  0  0  0
    1.9932   62.9134   70.0618 H   0  0  0  0  0  0  0  0  0  0  0  0
    3.2707   62.8136   68.8030 H   0  0  0  0  0  0  0  0  0  0  0  0
    1.9157   61.6344   68.8030 H   0  0  0  0  0  0  0  0  0  0  0  0
    3.2628   59.9123   68.6437 H   0  0  0  0  0  0  0  0  0  0  0  0
    4.8981   60.0648   69.2699 H   0  0  0  0  0  0  0  0  0  0  0  0
    2.6521   58.8486   72.4354 H   0  0  0  0  0  0  0  0  0  0  0  0
    4.5385   61.9435   72.0516 H   0  0  0  0  0  0  0  0  0  0  0  0
    5.5145   61.4441   70.5736 H   0  0  0  0  0  0  0  0  0  0  0  0
    4.9201   64.0641   71.4644 H   0  0  0  0  0  0  0  0  0  0  0  0
    5.7554   63.5407   69.9627 H   0  0  0  0  0  0  0  0  0  0  0  0
    3.9754   63.7824   69.9627 H   0  0  0  0  0  0  0  0  0  0  0  0
  2  1  1  6
  3  2  1  0
  4  3  1  0
  5  4  2  0
  6  4  1  0
  7  6  1  0
  7  2  1  0
  8  7  2  0
  9  2  1  0
 10  9  1  0
  1 11  1  0
  1 12  1  0
  1 13  1  0
  3 14  1  0
  3 15  1  0
  6 16  1  0
  9 17  1  0
  9 18  1  0
 10 19  1  0
 10 20  1  0
 10 21  1  0
M  END
>  <score>  (7) 
-5.458

$$$$
=
     RDKit          3D

 21 21  0  0  0  0  0  0  0  0999 V2000
    5.0270   63.4950   70.5200 C   0  0  0  0  0  0  0  0  0  0  0  0
    3.9090   62.4550   70.5800 C   0  0  2  0  0  0  0  0  0  0  0  0
    4.4300   61.1030   71.1130 C   0  0  0  0  0  0  0  0  0  0  0  0
    3.8320   60.0890   70.1810 C   0  0  0  0  0  0  0  0  0  0  0  0
    3.9400   58.8780   70.2880 O   0  0  0  0  0  0  0  0  0  0  0  0
    3.2190   60.7330   69.1600 N   0  0  0  0  0  0  0  0  0  0  0  0
    3.4450   62.0700   69.1870 C   0  0  0  0  0  0  0  0  0  0  0  0
    3.2870   62.8230   68.2390 O   0  0  0  0  0  0  0  0  0  0  0  0
    2.7030   62.9180   71.4310 C   0  0  0  0  0  0  0  0  0  0  0  0
    1.9720   64.1490   70.9060 C   0  0  0  0  0  0  0  0  0  0  0  0
    5.3251   63.7723   71.5419 H   0  0  0  0  0  0  0  0  0  0  0  0
    5.8921   63.0731   69.9875 H   0  0  0  0  0  0  0  0  0  0  0  0
    4.6686   64.3883   69.9875 H   0  0  0  0  0  0  0  0  0  0  0  0
    5.5288   61.0662   71.0776 H   0  0  0  0  0  0  0  0  0  0  0  0
    4.1532   60.9274   72.1630 H   0  0  0  0  0  0  0  0  0  0  0  0
    2.6468   60.2617   68.4449 H   0  0  0  0  0  0  0  0  0  0  0  0
    1.9819   62.0887   71.4788 H   0  0  0  0  0  0  0  0  0  0  0  0
    3.1125   63.2015   72.4118 H   0  0  0  0  0  0  0  0  0  0  0  0
    1.6139   64.7520   71.7535 H   0  0  0  0  0  0  0  0  0  0  0  0
    2.6596   64.7501   70.2929 H   0  0  0  0  0  0  0  0  0  0  0  0
    1.1151   63.8329   70.2929 H   0  0  0  0  0  0  0  0  0  0  0  0
  2  1  1  6
  3  2  1  0
  4  3  1  0
  5  4  2  0
  6  4  1  0
  7  6  1  0
  7  2  1  0
  8  7  2  0
  9  2  1  0
 10  9  1  0
  1 11  1  0
  1 12  1  0
  1 13  1  0
  3 14  1  0
  3 15  1  0
  6 16  1  0
  9 17  1  0
  9 18  1  0
 10 19  1  0
 10 20  1  0
 10 21  1  0
M  END
>  <score>  (8) 
-5.411

$$$$
=
     RDKit          3D

 21 21  0  0  0  0  0  0  0  0999 V2000
    3.7950   60.2250   69.5040 C   0  0  0  0  0  0  0  0  0  0  0  0
    3.5270   61.5550   70.2080 C   0  0  2  0  0  0  0  0  0  0  0  0
    2.3120   61.4510   71.1550 C   0  0  0  0  0  0  0  0  0  0  0  0
    1.5210   62.6960   70.8710 C   0  0  0  0  0  0  0  0  0  0  0  0
    0.5090   63.0410   71.4580 O   0  0  0  0  0  0  0  0  0  0  0  0
    2.0660   63.3340   69.8080 N   0  0  0  0  0  0  0  0  0  0  0  0
    3.0520   62.6080   69.2230 C   0  0  0  0  0  0  0  0  0  0  0  0
    3.4770   62.7920   68.0950 O   0  0  0  0  0  0  0  0  0  0  0  0
    4.7540   62.0780   70.9930 C   0  0  0  0  0  0  0  0  0  0  0  0
    5.2000   61.2040   72.1590 C   0  0  0  0  0  0  0  0  0  0  0  0
    3.9536   59.4377   70.2557 H   0  0  0  0  0  0  0  0  0  0  0  0
    2.9317   59.9627   68.8748 H   0  0  0  0  0  0  0  0  0  0  0  0
    4.6926   60.3175   68.8748 H   0  0  0  0  0  0  0  0  0  0  0  0
    1.7188   60.5518   70.9324 H   0  0  0  0  0  0  0  0  0  0  0  0
    2.6054   61.3682   72.2119 H   0  0  0  0  0  0  0  0  0  0  0  0
    1.7665   64.2637   69.4810 H   0  0  0  0  0  0  0  0  0  0  0  0
    5.5961   62.1635   70.2904 H   0  0  0  0  0  0  0  0  0  0  0  0
    4.4481   63.0391   71.4320 H   0  0  0  0  0  0  0  0  0  0  0  0
    4.9466   61.7005   73.1073 H   0  0  0  0  0  0  0  0  0  0  0  0
    4.6876   60.2321   72.1057 H   0  0  0  0  0  0  0  0  0  0  0  0
    6.2877   61.0485   72.1057 H   0  0  0  0  0  0  0  0  0  0  0  0
  2  1  1  6
  3  2  1  0
  4  3  1  0
  5  4  2  0
  6  4  1  0
  7  6  1  0
  7  2  1  0
  8  7  2  0
  9  2  1  0
 10  9  1  0
  1 11  1  0
  1 12  1  0
  1 13  1  0
  3 14  1  0
  3 15  1  0
  6 16  1  0
  9 17  1  0
  9 18  1  0
 10 19  1  0
 10 20  1  0
 10 21  1  0
M  END
>  <score>  (9) 
-5.282

$$$$
