=
     RDKit          3D

 29 29  0  0  0  0  0  0  0  0999 V2000
    3.3250   68.8510   64.4200 C   0  0  1  0  0  0  0  0  0  0  0  0
    1.8180   68.6950   64.6420 C   0  0  0  0  0  0  0  0  0  0  0  0
    5.3630   70.4180   67.9240 C   0  0  0  0  0  0  0  0  0  0  0  0
    4.0200   70.0450   68.0000 C   0  0  0  0  0  0  0  0  0  0  0  0
    3.3530   69.5400   66.8810 C   0  0  0  0  0  0  0  0  0  0  0  0
    4.0200   69.4050   65.6540 C   0  0  0  0  0  0  0  0  0  0  0  0
    5.3730   69.7720   65.5900 C   0  0  0  0  0  0  0  0  0  0  0  0
    6.0380   70.2770   66.7130 C   0  0  0  0  0  0  0  0  0  0  0  0
    7.3080   70.8780   69.2110 C   0  0  0  0  0  0  0  0  0  0  0  0
    5.8900   70.8970   69.0920 O   0  0  0  0  0  0  0  0  0  0  0  0
    3.9210   67.5500   64.0530 N   0  0  0  0  0  0  0  0  0  0  0  0
    4.1480   67.2290   62.4440 S   0  0  0  0  0  6  0  0  0  0  0  0
    4.4080   65.8200   62.3120 O   0  0  0  0  0  0  0  0  0  0  0  0
    3.1620   67.9210   61.6580 O   0  0  0  0  0  0  0  0  0  0  0  0
    5.6040   68.0030   62.2360 N   0  0  0  0  0  0  0  0  0  0  0  0
    3.4686   69.5683   63.5985 H   0  0  0  0  0  0  0  0  0  0  0  0
    1.6067   68.6731   65.7213 H   0  0  0  0  0  0  0  0  0  0  0  0
    1.2899   69.5433   64.1821 H   0  0  0  0  0  0  0  0  0  0  0  0
    1.4748   67.7565   64.1821 H   0  0  0  0  0  0  0  0  0  0  0  0
    3.4802   70.1500   68.9527 H   0  0  0  0  0  0  0  0  0  0  0  0
    2.2962   69.2458   66.9626 H   0  0  0  0  0  0  0  0  0  0  0  0
    5.9196   69.6609   64.6419 H   0  0  0  0  0  0  0  0  0  0  0  0
    7.0974   70.5637   66.6396 H   0  0  0  0  0  0  0  0  0  0  0  0
    7.5866   70.8743   70.2751 H   0  0  0  0  0  0  0  0  0  0  0  0
    7.7047   69.9745   68.7249 H   0  0  0  0  0  0  0  0  0  0  0  0
    7.7287   71.7706   68.7249 H   0  0  0  0  0  0  0  0  0  0  0  0
    4.8424   67.4947   64.5100 H   0  0  0  0  0  0  0  0  0  0  0  0
    6.0121   68.2199   63.1565 H   0  0  0  0  0  0  0  0  0  0  0  0
    6.2459   67.3918   61.7113 H   0  0  0  0  0  0  0  0  0  0  0  0
  2  1  1  0
  4  3  2  0
  5  4  1  0
  6  1  1  0
  6  5  2  0
  7  6  1  0
  8  7  2  0
  8  3  1  0
 10  3  1  0
 10  9  1  0
 11  1  1  0
 12 11  1  0
 13 12  2  0
 14 12  2  0
 15 12  1  0
  1 16  1  6
  2 17  1  0
  2 18  1  0
  2 19  1  0
  4 20  1  0
  5 21  1  0
  7 22  1  0
  8 23  1  0
  9 24  1  0
  9 25  1  0
  9 26  1  0
 11 27  1  0
 15 28  1  0
 15 29  1  0
M  END
>  <score>  (1) 
-7.991

$$$$
=
     RDKit          3D

 29 29  0  0  0  0  0  0  0  0999 V2000
    3.2560   68.5950   65.3520 C   0  0  1  0  0  0  0  0  0  0  0  0
    3.4450   68.9790   63.8810 C   0  0  0  0  0  0  0  0  0  0  0  0
    5.8220   70.9150   67.9830 C   0  0  0  0  0  0  0  0  0  0  0  0
    6.2790   70.5210   66.7250 C   0  0  0  0  0  0  0  0  0  0  0  0
    5.4640   69.7740   65.8690 C   0  0  0  0  0  0  0  0  0  0  0  0
    4.1710   69.4000   66.2630 C   0  0  0  0  0  0  0  0  0  0  0  0
    3.7160   69.8110   67.5250 C   0  0  0  0  0  0  0  0  0  0  0  0
    4.5340   70.5590   68.3790 C   0  0  0  0  0  0  0  0  0  0  0  0
    7.5800   70.9080   69.5840 C   0  0  0  0  0  0  0  0  0  0  0  0
    6.7220   71.6400   68.7160 O   0  0  0  0  0  0  0  0  0  0  0  0
    1.8490   68.7960   65.7520 N   0  0  0  0  0  0  0  0  0  0  0  0
    0.9550   67.4560   66.1350 S   0  0  0  0  0  6  0  0  0  0  0  0
    1.1820   66.4730   65.1090 O   0  0  0  0  0  0  0  0  0  0  0  0
    1.0750   67.1670   67.5380 O   0  0  0  0  0  0  0  0  0  0  0  0
   -0.5610   68.0800   65.8680 N   0  0  0  0  0  0  0  0  0  0  0  0
    3.5207   67.5325   65.4570 H   0  0  0  0  0  0  0  0  0  0  0  0
    3.9300   69.9643   63.8187 H   0  0  0  0  0  0  0  0  0  0  0  0
    4.0762   68.2276   63.3841 H   0  0  0  0  0  0  0  0  0  0  0  0
    2.4645   69.0208   63.3841 H   0  0  0  0  0  0  0  0  0  0  0  0
    7.2927   70.8014   66.4028 H   0  0  0  0  0  0  0  0  0  0  0  0
    5.8399   69.4773   64.8787 H   0  0  0  0  0  0  0  0  0  0  0  0
    2.6999   69.5409   67.8483 H   0  0  0  0  0  0  0  0  0  0  0  0
    4.1592   70.8671   69.3662 H   0  0  0  0  0  0  0  0  0  0  0  0
    7.3199   71.1299   70.6295 H   0  0  0  0  0  0  0  0  0  0  0  0
    7.4587   69.8309   69.3967 H   0  0  0  0  0  0  0  0  0  0  0  0
    8.6246   71.1974   69.3967 H   0  0  0  0  0  0  0  0  0  0  0  0
    1.8496   69.4111   66.5782 H   0  0  0  0  0  0  0  0  0  0  0  0
   -1.0187   68.2684   66.7713 H   0  0  0  0  0  0  0  0  0  0  0  0
   -0.4821   68.9570   65.3336 H   0  0  0  0  0  0  0  0  0  0  0  0
  2  1  1  0
  4  3  2  0
  5  4  1  0
  6  1  1  0
  6  5  2  0
  7  6  1  0
  8  7  2  0
  8  3  1  0
 10  3  1  0
 10  9  1  0
 11  1  1  0
 12 11  1  0
 13 12  2  0
 14 12  2  0
 15 12  1  0
  1 16  1  6
  2 17  1  0
  2 18  1  0
  2 19  1  0
  4 20  1  0
  5 21  1  0
  7 22  1  0
  8 23  1  0
  9 24  1  0
  9 25  1  0
  9 26  1  0
 11 27  1  0
 15 28  1  0
 15 29  1  0
M  END
>  <score>  (2) 
-7.89

$$$$
=
     RDKit          3D

 29 29  0  0  0  0  0  0  0  0999 V2000
    1.2290   68.9080   67.6440 C   0  0  1  0  0  0  0  0  0  0  0  0
    1.1240   67.6250   68.4720 C   0  0  0  0  0  0  0  0  0  0  0  0
    5.2930   70.4480   67.6050 C   0  0  0  0  0  0  0  0  0  0  0  0
    4.4830   70.6340   68.7250 C   0  0  0  0  0  0  0  0  0  0  0  0
    3.1730   70.1450   68.7510 C   0  0  0  0  0  0  0  0  0  0  0  0
    2.6460   69.4610   67.6450 C   0  0  0  0  0  0  0  0  0  0  0  0
    3.4730   69.2680   66.5270 C   0  0  0  0  0  0  0  0  0  0  0  0
    4.7840   69.7600   66.5050 C   0  0  0  0  0  0  0  0  0  0  0  0
    7.1280   70.9950   69.0140 C   0  0  0  0  0  0  0  0  0  0  0  0
    6.5500   70.9780   67.7140 O   0  0  0  0  0  0  0  0  0  0  0  0
    0.7920   68.6540   66.2560 N   0  0  0  0  0  0  0  0  0  0  0  0
   -0.8160   68.3580   65.9930 S   0  0  0  0  0  6  0  0  0  0  0  0
   -1.1040   68.7020   64.6260 O   0  0  0  0  0  0  0  0  0  0  0  0
   -1.1890   67.1000   66.5810 O   0  0  0  0  0  0  0  0  0  0  0  0
   -1.4520   69.5720   66.9330 N   0  0  0  0  0  0  0  0  0  0  0  0
    0.5707   69.6585   68.1060 H   0  0  0  0  0  0  0  0  0  0  0  0
    1.1446   67.8768   69.5426 H   0  0  0  0  0  0  0  0  0  0  0  0
    0.1808   67.1113   68.2342 H   0  0  0  0  0  0  0  0  0  0  0  0
    1.9711   66.9648   68.2342 H   0  0  0  0  0  0  0  0  0  0  0  0
    4.8794   71.1720   69.5987 H   0  0  0  0  0  0  0  0  0  0  0  0
    2.5510   70.2978   69.6453 H   0  0  0  0  0  0  0  0  0  0  0  0
    3.0851   68.7217   65.6546 H   0  0  0  0  0  0  0  0  0  0  0  0
    5.4138   69.6030   65.6169 H   0  0  0  0  0  0  0  0  0  0  0  0
    6.3298   70.9715   69.7705 H   0  0  0  0  0  0  0  0  0  0  0  0
    7.7769   70.1156   69.1383 H   0  0  0  0  0  0  0  0  0  0  0  0
    7.7241   71.9111   69.1383 H   0  0  0  0  0  0  0  0  0  0  0  0
    1.0472   69.4811   65.6977 H   0  0  0  0  0  0  0  0  0  0  0  0
   -1.3285   69.3363   67.9280 H   0  0  0  0  0  0  0  0  0  0  0  0
   -0.9659   70.4563   66.7268 H   0  0  0  0  0  0  0  0  0  0  0  0
  2  1  1  0
  4  3  2  0
  5  4  1  0
  6  1  1  0
  6  5  2  0
  7  6  1  0
  8  7  2  0
  8  3  1  0
 10  3  1  0
 10  9  1  0
 11  1  1  0
 12 11  1  0
 13 12  2  0
 14 12  2  0
 15 12  1  0
  1 16  1  1
  2 17  1  0
  2 18  1  0
  2 19  1  0
  4 20  1  0
  5 21  1  0
  7 22  1  0
  8 23  1  0
  9 24  1  0
  9 25  1  0
  9 26  1  0
 11 27  1  0
 15 28  1  0
 15 29  1  0
M  END
>  <score>  (3) 
-7.553

$$$$
=
     RDKit          3D

 29 29  0  0  0  0  0  0  0  0999 V2000
    2.0430   68.3180   64.8270 C   0  0  1  0  0  0  0  0  0  0  0  0
    2.1570   68.2160   63.3030 C   0  0  0  0  0  0  0  0  0  0  0  0
    5.6050   70.1290   66.5360 C   0  0  0  0  0  0  0  0  0  0  0  0
    4.4710   69.9300   67.3250 C   0  0  0  0  0  0  0  0  0  0  0  0
    3.3190   69.3490   66.7870 C   0  0  0  0  0  0  0  0  0  0  0  0
    3.2780   68.9610   65.4400 C   0  0  0  0  0  0  0  0  0  0  0  0
    4.4270   69.1550   64.6580 C   0  0  0  0  0  0  0  0  0  0  0  0
    5.5790   69.7370   65.1990 C   0  0  0  0  0  0  0  0  0  0  0  0
    6.3670   71.3950   68.3990 C   0  0  0  0  0  0  0  0  0  0  0  0
    6.6600   70.7070   67.1880 O   0  0  0  0  0  0  0  0  0  0  0  0
    0.8410   69.0920   65.1950 N   0  0  0  0  0  0  0  0  0  0  0  0
   -0.3050   68.3450   66.1280 S   0  0  0  0  0  6  0  0  0  0  0  0
   -0.0890   66.9260   66.0300 O   0  0  0  0  0  0  0  0  0  0  0  0
   -0.4440   69.0320   67.3830 O   0  0  0  0  0  0  0  0  0  0  0  0
   -1.6430   68.6870   65.2050 N   0  0  0  0  0  0  0  0  0  0  0  0
    1.9594   67.2959   65.2250 H   0  0  0  0  0  0  0  0  0  0  0  0
    2.9533   67.5035   63.0417 H   0  0  0  0  0  0  0  0  0  0  0  0
    1.2009   67.8663   62.8864 H   0  0  0  0  0  0  0  0  0  0  0  0
    2.3987   69.2050   62.8864 H   0  0  0  0  0  0  0  0  0  0  0  0
    4.4839   70.2338   68.3821 H   0  0  0  0  0  0  0  0  0  0  0  0
    2.4369   69.1948   67.4258 H   0  0  0  0  0  0  0  0  0  0  0  0
    4.4221   68.8446   63.6027 H   0  0  0  0  0  0  0  0  0  0  0  0
    6.4668   69.8855   64.5668 H   0  0  0  0  0  0  0  0  0  0  0  0
    6.6373   70.7604   69.2559 H   0  0  0  0  0  0  0  0  0  0  0  0
    6.9450   72.3301   68.4385 H   0  0  0  0  0  0  0  0  0  0  0  0
    5.2923   71.6263   68.4385 H   0  0  0  0  0  0  0  0  0  0  0  0
    1.1587   69.9264   65.7086 H   0  0  0  0  0  0  0  0  0  0  0  0
   -2.4424   68.8913   65.8216 H   0  0  0  0  0  0  0  0  0  0  0  0
   -1.4499   69.5057   64.6105 H   0  0  0  0  0  0  0  0  0  0  0  0
  2  1  1  0
  4  3  2  0
  5  4  1  0
  6  1  1  0
  6  5  2  0
  7  6  1  0
  8  7  2  0
  8  3  1  0
 10  3  1  0
 10  9  1  0
 11  1  1  0
 12 11  1  0
 13 12  2  0
 14 12  2  0
 15 12  1  0
  1 16  1  1
  2 17  1  0
  2 18  1  0
  2 19  1  0
  4 20  1  0
  5 21  1  0
  7 22  1  0
  8 23  1  0
  9 24  1  0
  9 25  1  0
  9 26  1  0
 11 27  1  0
 15 28  1  0
 15 29  1  0
M  END
>  <score>  (4) 
-7.371

$$$$
=
     RDKit          3D

 29 29  0  0  0  0  0  0  0  0999 V2000
    2.0500   69.3900   67.6170 C   0  0  1  0  0  0  0  0  0  0  0  0
    2.6280   70.0040   68.8950 C   0  0  0  0  0  0  0  0  0  0  0  0
    5.0290   69.3180   64.4530 C   0  0  0  0  0  0  0  0  0  0  0  0
    3.7070   68.9610   64.1810 C   0  0  0  0  0  0  0  0  0  0  0  0
    2.7390   68.9790   65.1900 C   0  0  0  0  0  0  0  0  0  0  0  0
    3.0810   69.3510   66.4990 C   0  0  0  0  0  0  0  0  0  0  0  0
    4.4100   69.7200   66.7590 C   0  0  0  0  0  0  0  0  0  0  0  0
    5.3760   69.7010   65.7470 C   0  0  0  0  0  0  0  0  0  0  0  0
    5.2680   69.0460   62.1030 C   0  0  0  0  0  0  0  0  0  0  0  0
    5.8700   69.2540   63.3760 O   0  0  0  0  0  0  0  0  0  0  0  0
    1.5550   68.0260   67.8890 N   0  0  0  0  0  0  0  0  0  0  0  0
    0.0560   67.6190   67.3140 S   0  0  0  0  0  6  0  0  0  0  0  0
   -0.7750   68.7910   67.3940 O   0  0  0  0  0  0  0  0  0  0  0  0
    0.1820   66.8290   66.1200 O   0  0  0  0  0  0  0  0  0  0  0  0
   -0.4220   66.6130   68.5470 N   0  0  0  0  0  0  0  0  0  0  0  0
    1.2152   70.0261   67.2876 H   0  0  0  0  0  0  0  0  0  0  0  0
    2.1731   69.5207   69.7722 H   0  0  0  0  0  0  0  0  0  0  0  0
    3.7171   69.8506   68.9155 H   0  0  0  0  0  0  0  0  0  0  0  0
    2.4091   71.0818   68.9155 H   0  0  0  0  0  0  0  0  0  0  0  0
    3.4235   68.6621   63.1611 H   0  0  0  0  0  0  0  0  0  0  0  0
    1.7013   68.6993   64.9557 H   0  0  0  0  0  0  0  0  0  0  0  0
    4.6968   70.0292   67.7750 H   0  0  0  0  0  0  0  0  0  0  0  0
    6.4130   69.9894   65.9737 H   0  0  0  0  0  0  0  0  0  0  0  0
    4.2363   68.6895   62.2391 H   0  0  0  0  0  0  0  0  0  0  0  0
    5.2579   69.9928   61.5431 H   0  0  0  0  0  0  0  0  0  0  0  0
    5.8446   68.2950   61.5431 H   0  0  0  0  0  0  0  0  0  0  0  0
    2.2310   67.3663   67.4782 H   0  0  0  0  0  0  0  0  0  0  0  0
   -0.2115   67.0560   69.4527 H   0  0  0  0  0  0  0  0  0  0  0  0
   -1.4350   66.4406   68.4763 H   0  0  0  0  0  0  0  0  0  0  0  0
  2  1  1  0
  4  3  2  0
  5  4  1  0
  6  1  1  0
  6  5  2  0
  7  6  1  0
  8  7  2  0
  8  3  1  0
 10  3  1  0
 10  9  1  0
 11  1  1  0
 12 11  1  0
 13 12  2  0
 14 12  2  0
 15 12  1  0
  1 16  1  6
  2 17  1  0
  2 18  1  0
  2 19  1  0
  4 20  1  0
  5 21  1  0
  7 22  1  0
  8 23  1  0
  9 24  1  0
  9 25  1  0
  9 26  1  0
 11 27  1  0
 15 28  1  0
 15 29  1  0
M  END
>  <score>  (5) 
-7.349

$$$$
=
     RDKit          3D

 29 29  0  0  0  0  0  0  0  0999 V2000
    0.5970   68.0290   68.0840 C   0  0  1  0  0  0  0  0  0  0  0  0
    0.9730   66.9320   69.0850 C   0  0  0  0  0  0  0  0  0  0  0  0
    4.0410   69.3020   65.7590 C   0  0  0  0  0  0  0  0  0  0  0  0
    3.8370   69.8040   67.0450 C   0  0  0  0  0  0  0  0  0  0  0  0
    2.7340   69.4030   67.8040 C   0  0  0  0  0  0  0  0  0  0  0  0
    1.8030   68.4920   67.2820 C   0  0  0  0  0  0  0  0  0  0  0  0
    2.0230   67.9840   65.9920 C   0  0  0  0  0  0  0  0  0  0  0  0
    3.1290   68.3870   65.2360 C   0  0  0  0  0  0  0  0  0  0  0  0
    5.3060   69.4560   63.7520 C   0  0  0  0  0  0  0  0  0  0  0  0
    5.1580   69.7790   65.1300 O   0  0  0  0  0  0  0  0  0  0  0  0
   -0.4550   67.5420   67.1700 N   0  0  0  0  0  0  0  0  0  0  0  0
   -1.5380   68.6470   66.5790 S   0  0  0  0  0  6  0  0  0  0  0  0
   -1.2500   69.9140   67.1980 O   0  0  0  0  0  0  0  0  0  0  0  0
   -1.6850   68.4850   65.1580 O   0  0  0  0  0  0  0  0  0  0  0  0
   -2.9140   68.0650   67.3070 N   0  0  0  0  0  0  0  0  0  0  0  0
    0.2189   68.8891   68.6561 H   0  0  0  0  0  0  0  0  0  0  0  0
    0.8433   67.3105   70.1097 H   0  0  0  0  0  0  0  0  0  0  0  0
    0.3232   66.0577   68.9321 H   0  0  0  0  0  0  0  0  0  0  0  0
    2.0225   66.6401   68.9321 H   0  0  0  0  0  0  0  0  0  0  0  0
    4.5534   70.5244   67.4667 H   0  0  0  0  0  0  0  0  0  0  0  0
    2.5946   69.8047   68.8185 H   0  0  0  0  0  0  0  0  0  0  0  0
    1.3142   67.2572   65.5686 H   0  0  0  0  0  0  0  0  0  0  0  0
    3.2794   67.9802   64.2251 H   0  0  0  0  0  0  0  0  0  0  0  0
    5.7625   68.4598   63.6559 H   0  0  0  0  0  0  0  0  0  0  0  0
    4.3185   69.4551   63.2675 H   0  0  0  0  0  0  0  0  0  0  0  0
    5.9515   70.2034   63.2675 H   0  0  0  0  0  0  0  0  0  0  0  0
    0.0159   67.1110   66.3617 H   0  0  0  0  0  0  0  0  0  0  0  0
   -2.8065   68.1105   68.3304 H   0  0  0  0  0  0  0  0  0  0  0  0
   -3.7218   68.6365   67.0209 H   0  0  0  0  0  0  0  0  0  0  0  0
  2  1  1  0
  4  3  2  0
  5  4  1  0
  6  1  1  0
  6  5  2  0
  7  6  1  0
  8  7  2  0
  8  3  1  0
 10  3  1  0
 10  9  1  0
 11  1  1  0
 12 11  1  0
 13 12  2  0
 14 12  2  0
 15 12  1  0
  1 16  1  1
  2 17  1  0
  2 18  1  0
  2 19  1  0
  4 20  1  0
  5 21  1  0
  7 22  1  0
  8 23  1  0
  9 24  1  0
  9 25  1  0
  9 26  1  0
 11 27  1  0
 15 28  1  0
 15 29  1  0
M  END
>  <score>  (6) 
-7.169

$$$$
=
     RDKit          3D

 29 29  0  0  0  0  0  0  0  0999 V2000
    3.2730   67.9090   63.9190 C   0  0  1  0  0  0  0  0  0  0  0  0
    1.9470   68.4910   63.4220 C   0  0  0  0  0  0  0  0  0  0  0  0
    4.8740   70.1070   67.3100 C   0  0  0  0  0  0  0  0  0  0  0  0
    3.5410   69.6920   67.3080 C   0  0  0  0  0  0  0  0  0  0  0  0
    3.0130   68.9850   66.2230 C   0  0  0  0  0  0  0  0  0  0  0  0
    3.8140   68.6850   65.1110 C   0  0  0  0  0  0  0  0  0  0  0  0
    5.1560   69.0950   65.1280 C   0  0  0  0  0  0  0  0  0  0  0  0
    5.6810   69.8020   66.2160 C   0  0  0  0  0  0  0  0  0  0  0  0
    4.3380   70.8080   69.5170 C   0  0  0  0  0  0  0  0  0  0  0  0
    5.2570   70.7890   68.4320 O   0  0  0  0  0  0  0  0  0  0  0  0
    3.0990   66.4890   64.2840 N   0  0  0  0  0  0  0  0  0  0  0  0
    4.1870   65.3960   63.6810 S   0  0  0  0  0  6  0  0  0  0  0  0
    4.0790   65.4200   62.2460 O   0  0  0  0  0  0  0  0  0  0  0  0
    5.4400   65.5120   64.3740 O   0  0  0  0  0  0  0  0  0  0  0  0
    3.4470   63.9970   64.1890 N   0  0  0  0  0  0  0  0  0  0  0  0
    4.0023   67.9922   63.0998 H   0  0  0  0  0  0  0  0  0  0  0  0
    1.3212   68.7657   64.2839 H   0  0  0  0  0  0  0  0  0  0  0  0
    2.1445   69.3851   62.8125 H   0  0  0  0  0  0  0  0  0  0  0  0
    1.4226   67.7403   62.8125 H   0  0  0  0  0  0  0  0  0  0  0  0
    2.8984   69.9239   68.1701 H   0  0  0  0  0  0  0  0  0  0  0  0
    1.9617   68.6617   66.2416 H   0  0  0  0  0  0  0  0  0  0  0  0
    5.8056   68.8570   64.2728 H   0  0  0  0  0  0  0  0  0  0  0  0
    6.7346   70.1180   66.2073 H   0  0  0  0  0  0  0  0  0  0  0  0
    4.8922   70.7965   70.4671 H   0  0  0  0  0  0  0  0  0  0  0  0
    3.7240   71.7190   69.4616 H   0  0  0  0  0  0  0  0  0  0  0  0
    3.6869   69.9231   69.4616 H   0  0  0  0  0  0  0  0  0  0  0  0
    3.1409   66.4289   65.3114 H   0  0  0  0  0  0  0  0  0  0  0  0
    3.4329   63.9704   65.2186 H   0  0  0  0  0  0  0  0  0  0  0  0
    2.4814   63.9701   63.8316 H   0  0  0  0  0  0  0  0  0  0  0  0
  2  1  1  0
  4  3  2  0
  5  4  1  0
  6  1  1  0
  6  5  2  0
  7  6  1  0
  8  7  2  0
  8  3  1  0
 10  3  1  0
 10  9  1  0
 11  1  1  0
 12 11  1  0
 13 12  2  0
 14 12  2  0
 15 12  1  0
  1 16  1  6
  2 17  1  0
  2 18  1  0
  2 19  1  0
  4 20  1  0
  5 21  1  0
  7 22  1  0
  8 23  1  0
  9 24  1  0
  9 25  1  0
  9 26  1  0
 11 27  1  0
 15 28  1  0
 15 29  1  0
M  END
>  <score>  (7) 
-7.05

$$$$
=
     RDKit          3D

 29 29  0  0  0  0  0  0  0  0999 V2000
    1.2420   68.9490   67.1540 C   0  0  1  0  0  0  0  0  0  0  0  0
    2.0620   69.2550   68.4100 C   0  0  0  0  0  0  0  0  0  0  0  0
    3.6630   67.0690   64.0720 C   0  0  0  0  0  0  0  0  0  0  0  0
    2.7150   66.3230   64.7730 C   0  0  0  0  0  0  0  0  0  0  0  0
    1.9300   66.9150   65.7670 C   0  0  0  0  0  0  0  0  0  0  0  0
    2.0870   68.2720   66.0840 C   0  0  0  0  0  0  0  0  0  0  0  0
    3.0350   69.0170   65.3660 C   0  0  0  0  0  0  0  0  0  0  0  0
    3.8190   68.4210   64.3720 C   0  0  0  0  0  0  0  0  0  0  0  0
    4.9670   67.1180   62.0850 C   0  0  0  0  0  0  0  0  0  0  0  0
    4.3610   66.3650   63.1290 O   0  0  0  0  0  0  0  0  0  0  0  0
    0.0890   68.0930   67.4960 N   0  0  0  0  0  0  0  0  0  0  0  0
   -1.3810   68.4750   66.8370 S   0  0  0  0  0  6  0  0  0  0  0  0
   -1.2770   68.3080   65.4120 O   0  0  0  0  0  0  0  0  0  0  0  0
   -2.4390   67.8950   67.6190 O   0  0  0  0  0  0  0  0  0  0  0  0
   -1.3680   70.1120   67.1260 N   0  0  0  0  0  0  0  0  0  0  0  0
    0.8825   69.9063   66.7486 H   0  0  0  0  0  0  0  0  0  0  0  0
    1.4612   69.0308   69.3038 H   0  0  0  0  0  0  0  0  0  0  0  0
    2.9710   68.6356   68.4144 H   0  0  0  0  0  0  0  0  0  0  0  0
    2.3430   70.3185   68.4144 H   0  0  0  0  0  0  0  0  0  0  0  0
    2.5836   65.2559   64.5407 H   0  0  0  0  0  0  0  0  0  0  0  0
    1.1835   66.3117   66.3045 H   0  0  0  0  0  0  0  0  0  0  0  0
    3.1638   70.0866   65.5882 H   0  0  0  0  0  0  0  0  0  0  0  0
    4.5610   69.0217   63.8255 H   0  0  0  0  0  0  0  0  0  0  0  0
    5.6003   67.9049   62.5205 H   0  0  0  0  0  0  0  0  0  0  0  0
    5.5843   66.4525   61.4637 H   0  0  0  0  0  0  0  0  0  0  0  0
    4.1849   67.5787   61.4637 H   0  0  0  0  0  0  0  0  0  0  0  0
    0.3193   67.1344   67.1976 H   0  0  0  0  0  0  0  0  0  0  0  0
   -1.3667   70.2813   68.1420 H   0  0  0  0  0  0  0  0  0  0  0  0
   -0.5237   70.5278   66.7075 H   0  0  0  0  0  0  0  0  0  0  0  0
  2  1  1  0
  4  3  2  0
  5  4  1  0
  6  1  1  0
  6  5  2  0
  7  6  1  0
  8  7  2  0
  8  3  1  0
 10  3  1  0
 10  9  1  0
 11  1  1  0
 12 11  1  0
 13 12  2  0
 14 12  2  0
 15 12  1  0
  1 16  1  6
  2 17  1  0
  2 18  1  0
  2 19  1  0
  4 20  1  0
  5 21  1  0
  7 22  1  0
  8 23  1  0
  9 24  1  0
  9 25  1  0
  9 26  1  0
 11 27  1  0
 15 28  1  0
 15 29  1  0
M  END
>  <score>  (8) 
-6.465

$$$$
=
     RDKit          3D

 29 29  0  0  0  0  0  0  0  0999 V2000
    3.3980   62.2490   70.2830 C   0  0  1  0  0  0  0  0  0  0  0  0
    3.6290   63.0330   68.9880 C   0  0  0  0  0  0  0  0  0  0  0  0
    0.4850   64.2580   72.8070 C   0  0  0  0  0  0  0  0  0  0  0  0
    1.3720   63.3320   73.3580 C   0  0  0  0  0  0  0  0  0  0  0  0
    2.3140   62.6790   72.5570 C   0  0  0  0  0  0  0  0  0  0  0  0
    2.3790   62.9360   71.1800 C   0  0  0  0  0  0  0  0  0  0  0  0
    1.4910   63.8770   70.6370 C   0  0  0  0  0  0  0  0  0  0  0  0
    0.5500   64.5300   71.4420 C   0  0  0  0  0  0  0  0  0  0  0  0
    0.0030   64.7950   75.0720 C   0  0  0  0  0  0  0  0  0  0  0  0
   -0.3820   64.8210   73.7020 O   0  0  0  0  0  0  0  0  0  0  0  0
    2.9460   60.8780   69.9720 N   0  0  0  0  0  0  0  0  0  0  0  0
    3.6450   59.6270   70.8020 S   0  0  0  0  0  6  0  0  0  0  0  0
    5.0050   60.0000   71.0900 O   0  0  0  0  0  0  0  0  0  0  0  0
    2.7400   59.1310   71.8030 O   0  0  0  0  0  0  0  0  0  0  0  0
    3.7100   58.5130   69.5710 N   0  0  0  0  0  0  0  0  0  0  0  0
    4.3548   62.2083   70.8243 H   0  0  0  0  0  0  0  0  0  0  0  0
    3.9322   64.0620   69.2315 H   0  0  0  0  0  0  0  0  0  0  0  0
    4.4219   62.5462   68.4012 H   0  0  0  0  0  0  0  0  0  0  0  0
    2.6988   63.0539   68.4012 H   0  0  0  0  0  0  0  0  0  0  0  0
    1.3296   63.1132   74.4352 H   0  0  0  0  0  0  0  0  0  0  0  0
    3.0097   61.9578   73.0108 H   0  0  0  0  0  0  0  0  0  0  0  0
    1.5349   64.1052   69.5618 H   0  0  0  0  0  0  0  0  0  0  0  0
   -0.1406   65.2605   70.9953 H   0  0  0  0  0  0  0  0  0  0  0  0
   -0.8938   64.8556   75.7061 H   0  0  0  0  0  0  0  0  0  0  0  0
    0.5397   63.8586   75.2844 H   0  0  0  0  0  0  0  0  0  0  0  0
    0.6607   65.6508   75.2844 H   0  0  0  0  0  0  0  0  0  0  0  0
    1.9330   60.8397   70.1546 H   0  0  0  0  0  0  0  0  0  0  0  0
    3.7653   57.5645   69.9688 H   0  0  0  0  0  0  0  0  0  0  0  0
    2.8629   58.5929   68.9905 H   0  0  0  0  0  0  0  0  0  0  0  0
  2  1  1  0
  4  3  2  0
  5  4  1  0
  6  1  1  0
  6  5  2  0
  7  6  1  0
  8  7  2  0
  8  3  1  0
 10  3  1  0
 10  9  1  0
 11  1  1  0
 12 11  1  0
 13 12  2  0
 14 12  2  0
 15 12  1  0
  1 16  1  1
  2 17  1  0
  2 18  1  0
  2 19  1  0
  4 20  1  0
  5 21  1  0
  7 22  1  0
  8 23  1  0
  9 24  1  0
  9 25  1  0
  9 26  1  0
 11 27  1  0
 15 28  1  0
 15 29  1  0
M  END
>  <score>  (9) 
-6.338

$$$$
