=
     RDKit          3D

 32 34  0  0  0  0  0  0  0  0999 V2000
    3.9100   69.1070   64.5690 C   0  0  0  0  0  0  0  0  0  0  0  0
    2.6130   68.9650   65.0100 C   0  0  0  0  0  0  0  0  0  0  0  0
    2.1760   68.8470   66.1950 O   0  0  0  0  0  1  0  0  0  0  0  0
    1.5180   68.8720   64.0480 C   0  0  0  0  0  0  0  0  0  0  0  0
   -0.1750   69.1170   64.3870 S   0  0  0  0  0  0  0  0  0  0  0  0
   -0.6490   68.7560   62.7840 C   0  0  0  0  0  0  0  0  0  0  0  0
    0.4270   68.4850   61.9740 C   0  0  0  0  0  0  0  0  0  0  0  0
    1.6370   68.5700   62.7090 C   0  0  0  0  0  0  0  0  0  0  0  0
    3.2120   68.3960   62.0930 S   0  0  0  0  0  6  0  0  0  0  0  0
    3.1640   69.0780   60.8120 O   0  0  0  0  0  0  0  0  0  0  0  0
    3.5080   66.9800   62.1640 O   0  0  0  0  0  0  0  0  0  0  0  0
    4.1980   69.2650   63.1400 N   0  0  0  0  0  0  0  0  0  0  0  0
    5.5690   69.4630   62.6520 C   0  0  0  0  0  0  0  0  0  0  0  0
    6.1170   68.5080   65.4140 O   0  0  0  0  0  0  0  0  0  0  0  0
    5.0960   69.1750   65.5770 C   0  0  0  0  0  0  0  0  0  0  0  0
    4.8830   70.0250   66.6330 N   0  0  0  0  0  0  0  0  0  0  0  0
    5.7300   70.3210   67.6950 C   0  0  0  0  0  0  0  0  0  0  0  0
    5.1550   70.3260   68.9640 C   0  0  0  0  0  0  0  0  0  0  0  0
    5.9470   70.6150   70.0740 C   0  0  0  0  0  0  0  0  0  0  0  0
    7.2930   70.8920   69.8870 C   0  0  0  0  0  0  0  0  0  0  0  0
    7.7860   70.8680   68.5950 C   0  0  0  0  0  0  0  0  0  0  0  0
    7.0370   70.5920   67.5070 N   0  0  0  0  0  0  0  0  0  0  0  0
   -1.6942   68.7424   62.4413 H   0  0  0  0  0  0  0  0  0  0  0  0
    0.3595   68.2367   60.9045 H   0  0  0  0  0  0  0  0  0  0  0  0
    6.2523   69.5617   63.5083 H   0  0  0  0  0  0  0  0  0  0  0  0
    5.8691   68.5989   62.0411 H   0  0  0  0  0  0  0  0  0  0  0  0
    5.6124   70.3767   62.0411 H   0  0  0  0  0  0  0  0  0  0  0  0
    3.9736   70.5086   66.6398 H   0  0  0  0  0  0  0  0  0  0  0  0
    4.0850   70.1037   69.0889 H   0  0  0  0  0  0  0  0  0  0  0  0
    5.5107   70.6232   71.0837 H   0  0  0  0  0  0  0  0  0  0  0  0
    7.9481   71.1236   70.7397 H   0  0  0  0  0  0  0  0  0  0  0  0
    8.8535   71.0872   68.4452 H   0  0  0  0  0  0  0  0  0  0  0  0
  2  1  2  0
  3  2  1  0
  4  2  1  0
  5  4  1  0
  6  5  1  0
  7  6  2  0
  8  7  1  0
  8  4  2  0
  9  8  1  0
 10  9  2  0
 11  9  2  0
 12  9  1  0
 12  1  1  0
 13 12  1  0
 15  1  1  0
 15 14  2  0
 16 15  1  0
 17 16  1  0
 18 17  2  0
 19 18  1  0
 20 19  2  0
 21 20  1  0
 22 17  1  0
 22 21  2  0
  6 23  1  0
  7 24  1  0
 13 25  1  0
 13 26  1  0
 13 27  1  0
 16 28  1  0
 18 29  1  0
 19 30  1  0
 20 31  1  0
 21 32  1  0
M  CHG  1   3  -1
M  END
>  <score>  (1) 
-8.363

$$$$
=
     RDKit          3D

 32 34  0  0  0  0  0  0  0  0999 V2000
    2.7250   68.3420   66.0920 C   0  0  0  0  0  0  0  0  0  0  0  0
    3.0230   69.3060   67.0280 C   0  0  0  0  0  0  0  0  0  0  0  0
    2.2570   69.8870   67.8550 O   0  0  0  0  0  1  0  0  0  0  0  0
    4.3790   69.8400   67.1230 C   0  0  0  0  0  0  0  0  0  0  0  0
    5.0480   70.7160   68.4750 S   0  0  0  0  0  0  0  0  0  0  0  0
    6.5490   70.9680   67.6940 C   0  0  0  0  0  0  0  0  0  0  0  0
    6.5900   70.3870   66.4500 C   0  0  0  0  0  0  0  0  0  0  0  0
    5.3580   69.7460   66.1590 C   0  0  0  0  0  0  0  0  0  0  0  0
    4.9940   68.8300   64.7740 S   0  0  0  0  0  6  0  0  0  0  0  0
    6.2100   68.0760   64.5240 O   0  0  0  0  0  0  0  0  0  0  0  0
    4.4980   69.7760   63.7960 O   0  0  0  0  0  0  0  0  0  0  0  0
    3.7800   67.7700   65.2480 N   0  0  0  0  0  0  0  0  0  0  0  0
    3.4920   66.7080   64.2750 C   0  0  0  0  0  0  0  0  0  0  0  0
    1.0670   66.6390   65.5440 O   0  0  0  0  0  0  0  0  0  0  0  0
    1.2780   67.7810   65.9510 C   0  0  0  0  0  0  0  0  0  0  0  0
    0.2970   68.6710   66.3120 N   0  0  0  0  0  0  0  0  0  0  0  0
   -1.0820   68.4920   66.3120 C   0  0  0  0  0  0  0  0  0  0  0  0
   -1.5990   67.6630   67.3040 C   0  0  0  0  0  0  0  0  0  0  0  0
   -2.9730   67.4380   67.3620 C   0  0  0  0  0  0  0  0  0  0  0  0
   -3.7950   68.0470   66.4260 C   0  0  0  0  0  0  0  0  0  0  0  0
   -3.2030   68.8540   65.4710 C   0  0  0  0  0  0  0  0  0  0  0  0
   -1.8750   69.0840   65.3970 N   0  0  0  0  0  0  0  0  0  0  0  0
    7.3845   71.5301   68.1367 H   0  0  0  0  0  0  0  0  0  0  0  0
    7.4571   70.4148   65.7737 H   0  0  0  0  0  0  0  0  0  0  0  0
    3.2403   65.7799   64.8090 H   0  0  0  0  0  0  0  0  0  0  0  0
    2.6432   67.0095   63.6437 H   0  0  0  0  0  0  0  0  0  0  0  0
    4.3768   66.5393   63.6437 H   0  0  0  0  0  0  0  0  0  0  0  0
    0.6267   69.5953   66.6248 H   0  0  0  0  0  0  0  0  0  0  0  0
   -0.9283   67.1895   68.0360 H   0  0  0  0  0  0  0  0  0  0  0  0
   -3.3994   66.7866   68.1391 H   0  0  0  0  0  0  0  0  0  0  0  0
   -4.8841   67.8932   66.4423 H   0  0  0  0  0  0  0  0  0  0  0  0
   -3.8536   69.3373   64.7272 H   0  0  0  0  0  0  0  0  0  0  0  0
  2  1  2  0
  3  2  1  0
  4  2  1  0
  5  4  1  0
  6  5  1  0
  7  6  2  0
  8  7  1  0
  8  4  2  0
  9  8  1  0
 10  9  2  0
 11  9  2  0
 12  9  1  0
 12  1  1  0
 13 12  1  0
 15  1  1  0
 15 14  2  0
 16 15  1  0
 17 16  1  0
 18 17  2  0
 19 18  1  0
 20 19  2  0
 21 20  1  0
 22 17  1  0
 22 21  2  0
  6 23  1  0
  7 24  1  0
 13 25  1  0
 13 26  1  0
 13 27  1  0
 16 28  1  0
 18 29  1  0
 19 30  1  0
 20 31  1  0
 21 32  1  0
M  CHG  1   3  -1
M  END
>  <score>  (2) 
-8.285

$$$$
=
     RDKit          3D

 32 34  0  0  0  0  0  0  0  0999 V2000
    0.5170   67.4820   67.4120 C   0  0  0  0  0  0  0  0  0  0  0  0
    1.4240   67.8220   66.4330 C   0  0  0  0  0  0  0  0  0  0  0  0
    2.6900   67.8480   66.4870 O   0  0  0  0  0  1  0  0  0  0  0  0
    0.9550   68.2850   65.1300 C   0  0  0  0  0  0  0  0  0  0  0  0
    1.8950   68.3470   63.6610 S   0  0  0  0  0  0  0  0  0  0  0  0
    0.6160   69.0370   62.7580 C   0  0  0  0  0  0  0  0  0  0  0  0
   -0.5210   69.1980   63.5100 C   0  0  0  0  0  0  0  0  0  0  0  0
   -0.3070   68.7540   64.8390 C   0  0  0  0  0  0  0  0  0  0  0  0
   -1.4610   68.6880   66.0860 S   0  0  0  0  0  6  0  0  0  0  0  0
   -2.6690   68.2310   65.4200 O   0  0  0  0  0  0  0  0  0  0  0  0
   -1.4190   69.9840   66.7300 O   0  0  0  0  0  0  0  0  0  0  0  0
   -0.9220   67.4850   67.1280 N   0  0  0  0  0  0  0  0  0  0  0  0
   -1.9040   67.0830   68.1430 C   0  0  0  0  0  0  0  0  0  0  0  0
    1.6280   67.7670   69.5640 O   0  0  0  0  0  0  0  0  0  0  0  0
    0.9940   67.0180   68.8200 C   0  0  0  0  0  0  0  0  0  0  0  0
    0.6480   65.7260   69.1290 N   0  0  0  0  0  0  0  0  0  0  0  0
    0.9100   65.0110   70.2920 C   0  0  0  0  0  0  0  0  0  0  0  0
    2.0670   64.2350   70.2960 C   0  0  0  0  0  0  0  0  0  0  0  0
    2.3900   63.4920   71.4300 C   0  0  0  0  0  0  0  0  0  0  0  0
    1.5480   63.5420   72.5310 C   0  0  0  0  0  0  0  0  0  0  0  0
    0.4170   64.3350   72.4460 C   0  0  0  0  0  0  0  0  0  0  0  0
    0.0860   65.0620   71.3580 N   0  0  0  0  0  0  0  0  0  0  0  0
    0.6956   69.3189   61.6977 H   0  0  0  0  0  0  0  0  0  0  0  0
   -1.4671   69.6140   63.1334 H   0  0  0  0  0  0  0  0  0  0  0  0
   -1.4858   67.2542   69.1459 H   0  0  0  0  0  0  0  0  0  0  0  0
   -2.8212   67.6780   68.0217 H   0  0  0  0  0  0  0  0  0  0  0  0
   -2.1407   66.0156   68.0217 H   0  0  0  0  0  0  0  0  0  0  0  0
    0.1241   65.2184   68.4018 H   0  0  0  0  0  0  0  0  0  0  0  0
    2.7203   64.2089   69.4114 H   0  0  0  0  0  0  0  0  0  0  0  0
    3.3001   62.8745   71.4515 H   0  0  0  0  0  0  0  0  0  0  0  0
    1.7721   62.9694   73.4431 H   0  0  0  0  0  0  0  0  0  0  0  0
   -0.2526   64.3753   73.3178 H   0  0  0  0  0  0  0  0  0  0  0  0
  2  1  2  0
  3  2  1  0
  4  2  1  0
  5  4  1  0
  6  5  1  0
  7  6  2  0
  8  7  1  0
  8  4  2  0
  9  8  1  0
 10  9  2  0
 11  9  2  0
 12  9  1  0
 12  1  1  0
 13 12  1  0
 15  1  1  0
 15 14  2  0
 16 15  1  0
 17 16  1  0
 18 17  2  0
 19 18  1  0
 20 19  2  0
 21 20  1  0
 22 17  1  0
 22 21  2  0
  6 23  1  0
  7 24  1  0
 13 25  1  0
 13 26  1  0
 13 27  1  0
 16 28  1  0
 18 29  1  0
 19 30  1  0
 20 31  1  0
 21 32  1  0
M  CHG  1   3  -1
M  END
>  <score>  (3) 
-7.628

$$$$
=
     RDKit          3D

 32 34  0  0  0  0  0  0  0  0999 V2000
    1.7230   59.8440   72.5720 C   0  0  0  0  0  0  0  0  0  0  0  0
    2.8550   59.9510   71.7950 C   0  0  0  0  0  0  0  0  0  0  0  0
    3.8740   59.1980   71.7530 O   0  0  0  0  0  1  0  0  0  0  0  0
    3.0220   61.0920   70.9000 C   0  0  0  0  0  0  0  0  0  0  0  0
    4.1340   61.1940   69.5600 S   0  0  0  0  0  0  0  0  0  0  0  0
    3.6900   62.8040   69.1870 C   0  0  0  0  0  0  0  0  0  0  0  0
    2.7010   63.2730   70.0160 C   0  0  0  0  0  0  0  0  0  0  0  0
    2.3340   62.2830   70.9640 C   0  0  0  0  0  0  0  0  0  0  0  0
    1.0970   62.3990   72.1240 S   0  0  0  0  0  6  0  0  0  0  0  0
    0.0210   63.0770   71.4210 O   0  0  0  0  0  0  0  0  0  0  0  0
    1.7070   62.9990   73.2920 O   0  0  0  0  0  0  0  0  0  0  0  0
    0.6320   60.8160   72.4390 N   0  0  0  0  0  0  0  0  0  0  0  0
   -0.6030   60.6940   73.2250 C   0  0  0  0  0  0  0  0  0  0  0  0
    1.6110   58.8100   74.7780 O   0  0  0  0  0  0  0  0  0  0  0  0
    1.5380   58.6530   73.5590 C   0  0  0  0  0  0  0  0  0  0  0  0
    1.3000   57.4490   72.9430 N   0  0  0  0  0  0  0  0  0  0  0  0
    1.0860   56.2040   73.5230 C   0  0  0  0  0  0  0  0  0  0  0  0
   -0.2390   55.8630   73.7860 C   0  0  0  0  0  0  0  0  0  0  0  0
   -0.5260   54.6290   74.3680 C   0  0  0  0  0  0  0  0  0  0  0  0
    0.5190   53.7690   74.6720 C   0  0  0  0  0  0  0  0  0  0  0  0
    1.8060   54.1840   74.3800 C   0  0  0  0  0  0  0  0  0  0  0  0
    2.1050   55.3730   73.8180 N   0  0  0  0  0  0  0  0  0  0  0  0
    4.1440   63.3944   68.3775 H   0  0  0  0  0  0  0  0  0  0  0  0
    2.2552   64.2767   69.9539 H   0  0  0  0  0  0  0  0  0  0  0  0
   -0.3590   60.7181   74.2973 H   0  0  0  0  0  0  0  0  0  0  0  0
   -1.2757   61.5301   72.9831 H   0  0  0  0  0  0  0  0  0  0  0  0
   -1.0991   59.7425   72.9831 H   0  0  0  0  0  0  0  0  0  0  0  0
    1.2770   57.4714   71.9135 H   0  0  0  0  0  0  0  0  0  0  0  0
   -1.0516   56.5612   73.5367 H   0  0  0  0  0  0  0  0  0  0  0  0
   -1.5658   54.3416   74.5829 H   0  0  0  0  0  0  0  0  0  0  0  0
    0.3302   52.7874   75.1311 H   0  0  0  0  0  0  0  0  0  0  0  0
    2.6357   53.5030   74.6208 H   0  0  0  0  0  0  0  0  0  0  0  0
  2  1  2  0
  3  2  1  0
  4  2  1  0
  5  4  1  0
  6  5  1  0
  7  6  2  0
  8  7  1  0
  8  4  2  0
  9  8  1  0
 10  9  2  0
 11  9  2  0
 12  9  1  0
 12  1  1  0
 13 12  1  0
 15  1  1  0
 15 14  2  0
 16 15  1  0
 17 16  1  0
 18 17  2  0
 19 18  1  0
 20 19  2  0
 21 20  1  0
 22 17  1  0
 22 21  2  0
  6 23  1  0
  7 24  1  0
 13 25  1  0
 13 26  1  0
 13 27  1  0
 16 28  1  0
 18 29  1  0
 19 30  1  0
 20 31  1  0
 21 32  1  0
M  CHG  1   3  -1
M  END
>  <score>  (4) 
-7.593

$$$$
=
     RDKit          3D

 32 34  0  0  0  0  0  0  0  0999 V2000
    2.8840   60.7270   71.7860 C   0  0  0  0  0  0  0  0  0  0  0  0
    1.6740   61.3820   71.8350 C   0  0  0  0  0  0  0  0  0  0  0  0
    0.5340   60.9390   72.1700 O   0  0  0  0  0  1  0  0  0  0  0  0
    1.5790   62.7750   71.4070 C   0  0  0  0  0  0  0  0  0  0  0  0
    0.2830   63.8810   71.7850 S   0  0  0  0  0  0  0  0  0  0  0  0
    0.9670   65.1490   70.8610 C   0  0  0  0  0  0  0  0  0  0  0  0
    2.1650   64.7900   70.2950 C   0  0  0  0  0  0  0  0  0  0  0  0
    2.4930   63.4510   70.6290 C   0  0  0  0  0  0  0  0  0  0  0  0
    3.9190   62.6230   70.2180 S   0  0  0  0  0  6  0  0  0  0  0  0
    4.9620   63.6210   70.3790 O   0  0  0  0  0  0  0  0  0  0  0  0
    3.6660   62.0210   68.9250 O   0  0  0  0  0  0  0  0  0  0  0  0
    4.1050   61.4420   71.4000 N   0  0  0  0  0  0  0  0  0  0  0  0
    5.4130   60.7740   71.3840 C   0  0  0  0  0  0  0  0  0  0  0  0
    3.6430   58.4230   71.5330 O   0  0  0  0  0  0  0  0  0  0  0  0
    3.0030   59.2310   72.2060 C   0  0  0  0  0  0  0  0  0  0  0  0
    2.3350   58.9220   73.3650 N   0  0  0  0  0  0  0  0  0  0  0  0
    2.2430   57.6960   74.0140 C   0  0  0  0  0  0  0  0  0  0  0  0
    1.4120   56.7450   73.4260 C   0  0  0  0  0  0  0  0  0  0  0  0
    1.2740   55.4930   74.0250 C   0  0  0  0  0  0  0  0  0  0  0  0
    1.9680   55.2260   75.1950 C   0  0  0  0  0  0  0  0  0  0  0  0
    2.7710   56.2250   75.7150 C   0  0  0  0  0  0  0  0  0  0  0  0
    2.9190   57.4420   75.1520 N   0  0  0  0  0  0  0  0  0  0  0  0
    0.5006   66.1373   70.7352 H   0  0  0  0  0  0  0  0  0  0  0  0
    2.7846   65.4492   69.6693 H   0  0  0  0  0  0  0  0  0  0  0  0
    5.7496   60.6021   72.4170 H   0  0  0  0  0  0  0  0  0  0  0  0
    5.3260   59.8099   70.8615 H   0  0  0  0  0  0  0  0  0  0  0  0
    6.1430   61.4097   70.8615 H   0  0  0  0  0  0  0  0  0  0  0  0
    1.8352   59.7029   73.8136 H   0  0  0  0  0  0  0  0  0  0  0  0
    0.8698   56.9793   72.4980 H   0  0  0  0  0  0  0  0  0  0  0  0
    0.6237   54.7282   73.5754 H   0  0  0  0  0  0  0  0  0  0  0  0
    1.8827   54.2497   75.6945 H   0  0  0  0  0  0  0  0  0  0  0  0
    3.3221   56.0145   76.6434 H   0  0  0  0  0  0  0  0  0  0  0  0
  2  1  2  0
  3  2  1  0
  4  2  1  0
  5  4  1  0
  6  5  1  0
  7  6  2  0
  8  7  1  0
  8  4  2  0
  9  8  1  0
 10  9  2  0
 11  9  2  0
 12  9  1  0
 12  1  1  0
 13 12  1  0
 15  1  1  0
 15 14  2  0
 16 15  1  0
 17 16  1  0
 18 17  2  0
 19 18  1  0
 20 19  2  0
 21 20  1  0
 22 17  1  0
 22 21  2  0
  6 23  1  0
  7 24  1  0
 13 25  1  0
 13 26  1  0
 13 27  1  0
 16 28  1  0
 18 29  1  0
 19 30  1  0
 20 31  1  0
 21 32  1  0
M  CHG  1   3  -1
M  END
>  <score>  (5) 
-7.582

$$$$
=
     RDKit          3D

 32 34  0  0  0  0  0  0  0  0999 V2000
    3.0820   69.2820   66.0610 C   0  0  0  0  0  0  0  0  0  0  0  0
    2.0330   69.3280   66.9520 C   0  0  0  0  0  0  0  0  0  0  0  0
    2.0530   69.5130   68.2060 O   0  0  0  0  0  1  0  0  0  0  0  0
    0.6690   69.0850   66.4900 C   0  0  0  0  0  0  0  0  0  0  0  0
   -0.7950   69.5090   67.3370 S   0  0  0  0  0  0  0  0  0  0  0  0
   -1.8030   68.8190   66.1390 C   0  0  0  0  0  0  0  0  0  0  0  0
   -1.0830   68.3010   65.0910 C   0  0  0  0  0  0  0  0  0  0  0  0
    0.3080   68.4760   65.3080 C   0  0  0  0  0  0  0  0  0  0  0  0
    1.5610   68.0660   64.2360 S   0  0  0  0  0  6  0  0  0  0  0  0
    1.0410   68.4370   62.9310 O   0  0  0  0  0  0  0  0  0  0  0  0
    1.8970   66.6880   64.5310 O   0  0  0  0  0  0  0  0  0  0  0  0
    2.8360   69.0880   64.6280 N   0  0  0  0  0  0  0  0  0  0  0  0
    3.9360   69.0810   63.6550 C   0  0  0  0  0  0  0  0  0  0  0  0
    5.5060   69.0760   65.8930 O   0  0  0  0  0  0  0  0  0  0  0  0
    4.5490   69.5050   66.5370 C   0  0  0  0  0  0  0  0  0  0  0  0
    4.6530   70.2010   67.7160 N   0  0  0  0  0  0  0  0  0  0  0  0
    5.8020   70.5720   68.4070 C   0  0  0  0  0  0  0  0  0  0  0  0
    5.8500   70.2300   69.7560 C   0  0  0  0  0  0  0  0  0  0  0  0
    6.9720   70.5720   70.5090 C   0  0  0  0  0  0  0  0  0  0  0  0
    8.0160   71.2470   69.8950 C   0  0  0  0  0  0  0  0  0  0  0  0
    7.8890   71.5500   68.5510 C   0  0  0  0  0  0  0  0  0  0  0  0
    6.8120   71.2290   67.8040 N   0  0  0  0  0  0  0  0  0  0  0  0
   -2.9009   68.7934   66.2012 H   0  0  0  0  0  0  0  0  0  0  0  0
   -1.5233   67.8177   64.2064 H   0  0  0  0  0  0  0  0  0  0  0  0
    4.8977   69.0749   64.1889 H   0  0  0  0  0  0  0  0  0  0  0  0
    3.8614   68.1833   63.0237 H   0  0  0  0  0  0  0  0  0  0  0  0
    3.8728   69.9796   63.0237 H   0  0  0  0  0  0  0  0  0  0  0  0
    3.7617   70.4864   68.1461 H   0  0  0  0  0  0  0  0  0  0  0  0
    5.0101   69.6948   70.2231 H   0  0  0  0  0  0  0  0  0  0  0  0
    7.0284   70.3100   71.5758 H   0  0  0  0  0  0  0  0  0  0  0  0
    8.9165   71.5325   70.4585 H   0  0  0  0  0  0  0  0  0  0  0  0
    8.7162   72.0851   68.0617 H   0  0  0  0  0  0  0  0  0  0  0  0
  2  1  2  0
  3  2  1  0
  4  2  1  0
  5  4  1  0
  6  5  1  0
  7  6  2  0
  8  7  1  0
  8  4  2  0
  9  8  1  0
 10  9  2  0
 11  9  2  0
 12  9  1  0
 12  1  1  0
 13 12  1  0
 15  1  1  0
 15 14  2  0
 16 15  1  0
 17 16  1  0
 18 17  2  0
 19 18  1  0
 20 19  2  0
 21 20  1  0
 22 17  1  0
 22 21  2  0
  6 23  1  0
  7 24  1  0
 13 25  1  0
 13 26  1  0
 13 27  1  0
 16 28  1  0
 18 29  1  0
 19 30  1  0
 20 31  1  0
 21 32  1  0
M  CHG  1   3  -1
M  END
>  <score>  (6) 
-7.04

$$$$
=
     RDKit          3D

 32 34  0  0  0  0  0  0  0  0999 V2000
    1.8430   59.6510   73.6420 C   0  0  0  0  0  0  0  0  0  0  0  0
    0.9680   60.4800   72.9760 C   0  0  0  0  0  0  0  0  0  0  0  0
   -0.2810   60.3530   72.8010 O   0  0  0  0  0  1  0  0  0  0  0  0
    1.4640   61.6720   72.2940 C   0  0  0  0  0  0  0  0  0  0  0  0
    0.5070   63.0370   71.7810 S   0  0  0  0  0  0  0  0  0  0  0  0
    1.8460   63.8340   71.0730 C   0  0  0  0  0  0  0  0  0  0  0  0
    3.0130   63.1270   71.2340 C   0  0  0  0  0  0  0  0  0  0  0  0
    2.7710   61.9190   71.9370 C   0  0  0  0  0  0  0  0  0  0  0  0
    3.9350   60.7830   72.4300 S   0  0  0  0  0  6  0  0  0  0  0  0
    5.0530   61.5970   72.8750 O   0  0  0  0  0  0  0  0  0  0  0  0
    4.0870   59.8660   71.3190 O   0  0  0  0  0  0  0  0  0  0  0  0
    3.2620   60.0040   73.7590 N   0  0  0  0  0  0  0  0  0  0  0  0
    4.2040   59.1580   74.5030 C   0  0  0  0  0  0  0  0  0  0  0  0
    0.7810   58.3970   75.4430 O   0  0  0  0  0  0  0  0  0  0  0  0
    1.3410   58.3560   74.3480 C   0  0  0  0  0  0  0  0  0  0  0  0
    1.5890   57.2040   73.6440 N   0  0  0  0  0  0  0  0  0  0  0  0
    1.2700   55.8940   73.9830 C   0  0  0  0  0  0  0  0  0  0  0  0
   -0.0410   55.4920   73.7360 C   0  0  0  0  0  0  0  0  0  0  0  0
   -0.4290   54.1910   74.0520 C   0  0  0  0  0  0  0  0  0  0  0  0
    0.5020   53.3260   74.6070 C   0  0  0  0  0  0  0  0  0  0  0  0
    1.7820   53.8040   74.8220 C   0  0  0  0  0  0  0  0  0  0  0  0
    2.1790   55.0590   74.5240 N   0  0  0  0  0  0  0  0  0  0  0  0
    1.7799   64.7995   70.5501 H   0  0  0  0  0  0  0  0  0  0  0  0
    3.9981   63.4525   70.8685 H   0  0  0  0  0  0  0  0  0  0  0  0
    4.0483   59.2978   75.5829 H   0  0  0  0  0  0  0  0  0  0  0  0
    4.0345   58.1030   74.2417 H   0  0  0  0  0  0  0  0  0  0  0  0
    5.2348   59.4395   74.2417 H   0  0  0  0  0  0  0  0  0  0  0  0
    2.0763   57.3264   72.7449 H   0  0  0  0  0  0  0  0  0  0  0  0
   -0.7634   56.1950   73.2956 H   0  0  0  0  0  0  0  0  0  0  0  0
   -1.4594   53.8551   73.8637 H   0  0  0  0  0  0  0  0  0  0  0  0
    0.2311   52.2923   74.8680 H   0  0  0  0  0  0  0  0  0  0  0  0
    2.5216   53.1194   75.2628 H   0  0  0  0  0  0  0  0  0  0  0  0
  2  1  2  0
  3  2  1  0
  4  2  1  0
  5  4  1  0
  6  5  1  0
  7  6  2  0
  8  7  1  0
  8  4  2  0
  9  8  1  0
 10  9  2  0
 11  9  2  0
 12  9  1  0
 12  1  1  0
 13 12  1  0
 15  1  1  0
 15 14  2  0
 16 15  1  0
 17 16  1  0
 18 17  2  0
 19 18  1  0
 20 19  2  0
 21 20  1  0
 22 17  1  0
 22 21  2  0
  6 23  1  0
  7 24  1  0
 13 25  1  0
 13 26  1  0
 13 27  1  0
 16 28  1  0
 18 29  1  0
 19 30  1  0
 20 31  1  0
 21 32  1  0
M  CHG  1   3  -1
M  END
>  <score>  (7) 
-6.874

$$$$
=
     RDKit          3D

 32 34  0  0  0  0  0  0  0  0999 V2000
    1.9670   62.1200   71.7590 C   0  0  0  0  0  0  0  0  0  0  0  0
    1.4430   62.3430   73.0130 C   0  0  0  0  0  0  0  0  0  0  0  0
    0.6440   63.2490   73.3990 O   0  0  0  0  0  1  0  0  0  0  0  0
    1.8480   61.5030   74.1360 C   0  0  0  0  0  0  0  0  0  0  0  0
    1.0080   61.3430   75.6570 S   0  0  0  0  0  0  0  0  0  0  0  0
    2.1830   60.2810   76.3050 C   0  0  0  0  0  0  0  0  0  0  0  0
    3.1840   60.0050   75.4060 C   0  0  0  0  0  0  0  0  0  0  0  0
    2.9630   60.6960   74.1870 C   0  0  0  0  0  0  0  0  0  0  0  0
    3.8990   60.5830   72.7730 S   0  0  0  0  0  6  0  0  0  0  0  0
    4.2310   59.1710   72.6850 O   0  0  0  0  0  0  0  0  0  0  0  0
    4.9430   61.5780   72.9100 O   0  0  0  0  0  0  0  0  0  0  0  0
    2.8580   60.9800   71.5160 N   0  0  0  0  0  0  0  0  0  0  0  0
    3.3920   60.6970   70.1770 C   0  0  0  0  0  0  0  0  0  0  0  0
    1.5760   62.5950   69.4000 O   0  0  0  0  0  0  0  0  0  0  0  0
    1.5750   63.0250   70.5530 C   0  0  0  0  0  0  0  0  0  0  0  0
    1.2470   64.3110   70.9040 N   0  0  0  0  0  0  0  0  0  0  0  0
    0.8490   65.3600   70.0830 C   0  0  0  0  0  0  0  0  0  0  0  0
    1.7700   66.3910   69.9060 C   0  0  0  0  0  0  0  0  0  0  0  0
    1.4370   67.4750   69.0960 C   0  0  0  0  0  0  0  0  0  0  0  0
    0.1920   67.5020   68.4850 C   0  0  0  0  0  0  0  0  0  0  0  0
   -0.6640   66.4400   68.7120 C   0  0  0  0  0  0  0  0  0  0  0  0
   -0.3620   65.3810   69.4930 N   0  0  0  0  0  0  0  0  0  0  0  0
    2.1414   59.8674   77.3234 H   0  0  0  0  0  0  0  0  0  0  0  0
    4.0381   59.3406   75.6037 H   0  0  0  0  0  0  0  0  0  0  0  0
    4.3605   60.1837   70.2694 H   0  0  0  0  0  0  0  0  0  0  0  0
    2.6871   60.0541   69.6295 H   0  0  0  0  0  0  0  0  0  0  0  0
    3.5282   61.6413   69.6295 H   0  0  0  0  0  0  0  0  0  0  0  0
    1.3033   64.5275   71.9094 H   0  0  0  0  0  0  0  0  0  0  0  0
    2.7513   66.3494   70.4014 H   0  0  0  0  0  0  0  0  0  0  0  0
    2.1513   68.2975   68.9433 H   0  0  0  0  0  0  0  0  0  0  0  0
   -0.1051   68.3421   67.8400 H   0  0  0  0  0  0  0  0  0  0  0  0
   -1.6510   66.4592   68.2267 H   0  0  0  0  0  0  0  0  0  0  0  0
  2  1  2  0
  3  2  1  0
  4  2  1  0
  5  4  1  0
  6  5  1  0
  7  6  2  0
  8  7  1  0
  8  4  2  0
  9  8  1  0
 10  9  2  0
 11  9  2  0
 12  9  1  0
 12  1  1  0
 13 12  1  0
 15  1  1  0
 15 14  2  0
 16 15  1  0
 17 16  1  0
 18 17  2  0
 19 18  1  0
 20 19  2  0
 21 20  1  0
 22 17  1  0
 22 21  2  0
  6 23  1  0
  7 24  1  0
 13 25  1  0
 13 26  1  0
 13 27  1  0
 16 28  1  0
 18 29  1  0
 19 30  1  0
 20 31  1  0
 21 32  1  0
M  CHG  1   3  -1
M  END
>  <score>  (8) 
-6.847

$$$$
=
     RDKit          3D

 32 34  0  0  0  0  0  0  0  0999 V2000
    2.1980   60.2560   72.8300 C   0  0  0  0  0  0  0  0  0  0  0  0
    1.5700   61.2300   72.0870 C   0  0  0  0  0  0  0  0  0  0  0  0
    0.3510   61.5800   72.0890 O   0  0  0  0  0  1  0  0  0  0  0  0
    2.3190   61.9870   71.0880 C   0  0  0  0  0  0  0  0  0  0  0  0
    1.8400   63.5040   70.3730 S   0  0  0  0  0  0  0  0  0  0  0  0
    3.2110   63.5650   69.3500 C   0  0  0  0  0  0  0  0  0  0  0  0
    4.0500   62.4960   69.5440 C   0  0  0  0  0  0  0  0  0  0  0  0
    3.5300   61.6280   70.5380 C   0  0  0  0  0  0  0  0  0  0  0  0
    4.2770   60.2320   71.1570 S   0  0  0  0  0  6  0  0  0  0  0  0
    5.6770   60.6020   71.2650 O   0  0  0  0  0  0  0  0  0  0  0  0
    3.8650   59.1480   70.2880 O   0  0  0  0  0  0  0  0  0  0  0  0
    3.6420   60.0330   72.7000 N   0  0  0  0  0  0  0  0  0  0  0  0
    4.3400   59.0310   73.5150 C   0  0  0  0  0  0  0  0  0  0  0  0
    1.5710   59.5780   75.0880 O   0  0  0  0  0  0  0  0  0  0  0  0
    1.4100   59.4140   73.8780 C   0  0  0  0  0  0  0  0  0  0  0  0
    0.5510   58.4970   73.3260 N   0  0  0  0  0  0  0  0  0  0  0  0
   -0.2960   57.6020   73.9700 C   0  0  0  0  0  0  0  0  0  0  0  0
   -1.3430   58.1570   74.7010 C   0  0  0  0  0  0  0  0  0  0  0  0
   -2.2300   57.3170   75.3730 C   0  0  0  0  0  0  0  0  0  0  0  0
   -2.0460   55.9440   75.2980 C   0  0  0  0  0  0  0  0  0  0  0  0
   -0.9800   55.4740   74.5520 C   0  0  0  0  0  0  0  0  0  0  0  0
   -0.1100   56.2690   73.8950 N   0  0  0  0  0  0  0  0  0  0  0  0
    3.3980   64.3678   68.6216 H   0  0  0  0  0  0  0  0  0  0  0  0
    4.9945   62.3349   69.0036 H   0  0  0  0  0  0  0  0  0  0  0  0
    4.1852   59.2531   74.5812 H   0  0  0  0  0  0  0  0  0  0  0  0
    3.9419   58.0312   73.2872 H   0  0  0  0  0  0  0  0  0  0  0  0
    5.4158   59.0579   73.2872 H   0  0  0  0  0  0  0  0  0  0  0  0
    0.5311   58.4679   72.2966 H   0  0  0  0  0  0  0  0  0  0  0  0
   -1.4693   59.2487   74.7479 H   0  0  0  0  0  0  0  0  0  0  0  0
   -3.0640   57.7370   75.9545 H   0  0  0  0  0  0  0  0  0  0  0  0
   -2.7260   55.2512   75.8152 H   0  0  0  0  0  0  0  0  0  0  0  0
   -0.8326   54.3856   74.4907 H   0  0  0  0  0  0  0  0  0  0  0  0
  2  1  2  0
  3  2  1  0
  4  2  1  0
  5  4  1  0
  6  5  1  0
  7  6  2  0
  8  7  1  0
  8  4  2  0
  9  8  1  0
 10  9  2  0
 11  9  2  0
 12  9  1  0
 12  1  1  0
 13 12  1  0
 15  1  1  0
 15 14  2  0
 16 15  1  0
 17 16  1  0
 18 17  2  0
 19 18  1  0
 20 19  2  0
 21 20  1  0
 22 17  1  0
 22 21  2  0
  6 23  1  0
  7 24  1  0
 13 25  1  0
 13 26  1  0
 13 27  1  0
 16 28  1  0
 18 29  1  0
 19 30  1  0
 20 31  1  0
 21 32  1  0
M  CHG  1   3  -1
M  END
>  <score>  (9) 
-6.824

$$$$
