=
     RDKit          3D

 39 41  0  0  0  0  0  0  0  0999 V2000
    3.5800   68.8090   65.3150 C   0  0  0  0  0  0  0  0  0  0  0  0
    2.5290   69.0800   66.3370 C   0  0  0  0  0  0  0  0  0  0  0  0
    1.3480   68.8100   66.1450 O   0  0  0  0  0  0  0  0  0  0  0  0
    2.9140   69.6620   67.5360 O   0  0  0  0  0  0  0  0  0  0  0  0
    4.2420   70.0360   67.7830 C   0  0  0  0  0  0  0  0  0  0  0  0
    5.2250   69.8280   66.8260 C   0  0  0  0  0  0  0  0  0  0  0  0
    4.8470   69.2010   65.5590 C   0  0  0  0  0  0  0  0  0  0  0  0
    6.5320   70.2280   67.1300 C   0  0  0  0  0  0  0  0  0  0  0  0
    6.8290   70.8190   68.3630 C   0  0  0  0  0  0  0  0  0  0  0  0
    5.8220   71.0160   69.3060 C   0  0  0  0  0  0  0  0  0  0  0  0
    4.5170   70.6230   69.0180 C   0  0  0  0  0  0  0  0  0  0  0  0
    5.8890   69.0600   64.6640 O   0  0  0  0  0  0  0  0  0  0  0  0
    3.1720   68.0640   64.0390 C   0  0  2  0  0  0  0  0  0  0  0  0
    3.5090   66.5740   64.1070 C   0  0  0  0  0  0  0  0  0  0  0  0
    2.9250   65.7250   65.0600 C   0  0  0  0  0  0  0  0  0  0  0  0
    3.2530   64.3680   65.1000 C   0  0  0  0  0  0  0  0  0  0  0  0
    4.1730   63.8430   64.1970 C   0  0  0  0  0  0  0  0  0  0  0  0
    4.7740   64.6740   63.2560 C   0  0  0  0  0  0  0  0  0  0  0  0
    4.4480   66.0320   63.2120 C   0  0  0  0  0  0  0  0  0  0  0  0
    3.6430   68.6740   62.7010 C   0  0  0  0  0  0  0  0  0  0  0  0
    1.1040   68.7670   62.2910 C   0  0  0  0  0  0  0  0  0  0  0  0
    2.4960   68.8700   61.7250 C   0  0  0  0  0  0  0  0  0  0  0  0
    2.6810   69.0530   60.5220 O   0  0  0  0  0  0  0  0  0  0  0  0
    7.3334   70.0761   66.3920 H   0  0  0  0  0  0  0  0  0  0  0  0
    7.8600   71.1289   68.5886 H   0  0  0  0  0  0  0  0  0  0  0  0
    6.0570   71.4805   70.2750 H   0  0  0  0  0  0  0  0  0  0  0  0
    3.7141   70.7736   69.7547 H   0  0  0  0  0  0  0  0  0  0  0  0
    6.7968   69.3703   64.9083 H   0  0  0  0  0  0  0  0  0  0  0  0
    2.0797   68.1928   64.0247 H   0  0  0  0  0  0  0  0  0  0  0  0
    2.2021   66.1323   65.7822 H   0  0  0  0  0  0  0  0  0  0  0  0
    2.7828   63.7121   65.8475 H   0  0  0  0  0  0  0  0  0  0  0  0
    4.4248   62.7726   64.2270 H   0  0  0  0  0  0  0  0  0  0  0  0
    5.5062   64.2613   62.5464 H   0  0  0  0  0  0  0  0  0  0  0  0
    4.9311   66.6839   62.4693 H   0  0  0  0  0  0  0  0  0  0  0  0
    4.1087   69.6503   62.9011 H   0  0  0  0  0  0  0  0  0  0  0  0
    4.3593   67.9750   62.2446 H   0  0  0  0  0  0  0  0  0  0  0  0
    1.1538   68.7707   63.3899 H   0  0  0  0  0  0  0  0  0  0  0  0
    0.5045   69.6232   61.9482 H   0  0  0  0  0  0  0  0  0  0  0  0
    0.6371   67.8319   61.9482 H   0  0  0  0  0  0  0  0  0  0  0  0
  2  1  1  0
  3  2  2  0
  4  2  1  0
  5  4  1  0
  6  5  2  0
  7  1  2  0
  7  6  1  0
  8  6  1  0
  9  8  2  0
 10  9  1  0
 11  5  1  0
 11 10  2  0
 12  7  1  0
 13  1  1  0
 14 13  1  0
 15 14  2  0
 16 15  1  0
 17 16  2  0
 18 17  1  0
 19 18  2  0
 19 14  1  0
 20 13  1  0
 22 21  1  0
 22 20  1  0
 23 22  2  0
  8 24  1  0
  9 25  1  0
 10 26  1  0
 11 27  1  0
 12 28  1  0
 13 29  1  6
 15 30  1  0
 16 31  1  0
 17 32  1  0
 18 33  1  0
 19 34  1  0
 20 35  1  0
 20 36  1  0
 21 37  1  0
 21 38  1  0
 21 39  1  0
M  END
>  <score>  (1) 
-11.155

$$$$
=
     RDKit          3D

 39 41  0  0  0  0  0  0  0  0999 V2000
    3.9730   68.3270   64.8950 C   0  0  0  0  0  0  0  0  0  0  0  0
    5.3180   68.7650   64.4280 C   0  0  0  0  0  0  0  0  0  0  0  0
    5.8020   68.3700   63.3720 O   0  0  0  0  0  0  0  0  0  0  0  0
    6.0370   69.6430   65.2260 O   0  0  0  0  0  0  0  0  0  0  0  0
    5.5500   70.0830   66.4640 C   0  0  0  0  0  0  0  0  0  0  0  0
    4.3170   69.6520   66.9330 C   0  0  0  0  0  0  0  0  0  0  0  0
    3.5330   68.7370   66.1020 C   0  0  0  0  0  0  0  0  0  0  0  0
    3.8880   70.1230   68.1800 C   0  0  0  0  0  0  0  0  0  0  0  0
    4.6840   71.0000   68.9250 C   0  0  0  0  0  0  0  0  0  0  0  0
    5.9190   71.4170   68.4290 C   0  0  0  0  0  0  0  0  0  0  0  0
    6.3580   70.9570   67.1900 C   0  0  0  0  0  0  0  0  0  0  0  0
    2.3340   68.3480   66.6660 O   0  0  0  0  0  0  0  0  0  0  0  0
    3.1330   67.4470   63.9620 C   0  0  2  0  0  0  0  0  0  0  0  0
    1.9600   68.2110   63.3470 C   0  0  0  0  0  0  0  0  0  0  0  0
    0.7370   68.3570   64.0190 C   0  0  0  0  0  0  0  0  0  0  0  0
   -0.3180   69.0590   63.4310 C   0  0  0  0  0  0  0  0  0  0  0  0
   -0.1690   69.6160   62.1640 C   0  0  0  0  0  0  0  0  0  0  0  0
    1.0320   69.4660   61.4770 C   0  0  0  0  0  0  0  0  0  0  0  0
    2.0890   68.7660   62.0620 C   0  0  0  0  0  0  0  0  0  0  0  0
    2.6690   66.0860   64.5240 C   0  0  0  0  0  0  0  0  0  0  0  0
    3.8100   63.8620   65.1330 C   0  0  0  0  0  0  0  0  0  0  0  0
    3.5940   64.9520   64.1170 C   0  0  0  0  0  0  0  0  0  0  0  0
    4.1830   64.9400   63.0360 O   0  0  0  0  0  0  0  0  0  0  0  0
    2.9148   69.8001   68.5781 H   0  0  0  0  0  0  0  0  0  0  0  0
    4.3351   71.3612   69.9037 H   0  0  0  0  0  0  0  0  0  0  0  0
    6.5443   72.1070   69.0146 H   0  0  0  0  0  0  0  0  0  0  0  0
    7.3303   71.2793   66.7891 H   0  0  0  0  0  0  0  0  0  0  0  0
    2.0730   68.6886   67.5582 H   0  0  0  0  0  0  0  0  0  0  0  0
    3.8520   67.1813   63.1731 H   0  0  0  0  0  0  0  0  0  0  0  0
    0.6077   67.9147   65.0178 H   0  0  0  0  0  0  0  0  0  0  0  0
   -1.2696   69.1720   63.9710 H   0  0  0  0  0  0  0  0  0  0  0  0
   -0.9993   70.1739   61.7065 H   0  0  0  0  0  0  0  0  0  0  0  0
    1.1486   69.8991   60.4726 H   0  0  0  0  0  0  0  0  0  0  0  0
    3.0336   68.6475   61.5109 H   0  0  0  0  0  0  0  0  0  0  0  0
    2.6440   66.1461   65.6221 H   0  0  0  0  0  0  0  0  0  0  0  0
    1.6716   65.8727   64.1120 H   0  0  0  0  0  0  0  0  0  0  0  0
    3.7266   64.2830   66.1458 H   0  0  0  0  0  0  0  0  0  0  0  0
    3.0496   63.0787   64.9977 H   0  0  0  0  0  0  0  0  0  0  0  0
    4.8116   63.4279   64.9977 H   0  0  0  0  0  0  0  0  0  0  0  0
  2  1  1  0
  3  2  2  0
  4  2  1  0
  5  4  1  0
  6  5  2  0
  7  1  2  0
  7  6  1  0
  8  6  1  0
  9  8  2  0
 10  9  1  0
 11  5  1  0
 11 10  2  0
 12  7  1  0
 13  1  1  0
 14 13  1  0
 15 14  2  0
 16 15  1  0
 17 16  2  0
 18 17  1  0
 19 18  2  0
 19 14  1  0
 20 13  1  0
 22 21  1  0
 22 20  1  0
 23 22  2  0
  8 24  1  0
  9 25  1  0
 10 26  1  0
 11 27  1  0
 12 28  1  0
 13 29  1  6
 15 30  1  0
 16 31  1  0
 17 32  1  0
 18 33  1  0
 19 34  1  0
 20 35  1  0
 20 36  1  0
 21 37  1  0
 21 38  1  0
 21 39  1  0
M  END
>  <score>  (2) 
-10.387

$$$$
=
     RDKit          3D

 39 41  0  0  0  0  0  0  0  0999 V2000
    3.3770   68.4940   65.4080 C   0  0  0  0  0  0  0  0  0  0  0  0
    2.4720   68.7310   66.5680 C   0  0  0  0  0  0  0  0  0  0  0  0
    1.3210   68.3060   66.5940 O   0  0  0  0  0  0  0  0  0  0  0  0
    2.9600   69.4590   67.6430 O   0  0  0  0  0  0  0  0  0  0  0  0
    4.2490   70.0070   67.6390 C   0  0  0  0  0  0  0  0  0  0  0  0
    5.0890   69.8320   66.5490 C   0  0  0  0  0  0  0  0  0  0  0  0
    4.6040   69.0530   65.4090 C   0  0  0  0  0  0  0  0  0  0  0  0
    6.3640   70.4090   66.6040 C   0  0  0  0  0  0  0  0  0  0  0  0
    6.7700   71.1400   67.7250 C   0  0  0  0  0  0  0  0  0  0  0  0
    5.9050   71.3010   68.8070 C   0  0  0  0  0  0  0  0  0  0  0  0
    4.6340   70.7320   68.7670 C   0  0  0  0  0  0  0  0  0  0  0  0
    5.5040   68.9560   64.3660 O   0  0  0  0  0  0  0  0  0  0  0  0
    2.8770   67.5940   64.2720 C   0  0  2  0  0  0  0  0  0  0  0  0
    1.9190   68.3280   63.3320 C   0  0  0  0  0  0  0  0  0  0  0  0
    2.3100   68.7400   62.0490 C   0  0  0  0  0  0  0  0  0  0  0  0
    1.4140   69.4110   61.2130 C   0  0  0  0  0  0  0  0  0  0  0  0
    0.1210   69.6860   61.6500 C   0  0  0  0  0  0  0  0  0  0  0  0
   -0.2770   69.2990   62.9260 C   0  0  0  0  0  0  0  0  0  0  0  0
    0.6150   68.6270   63.7640 C   0  0  0  0  0  0  0  0  0  0  0  0
    2.3040   66.2190   64.6780 C   0  0  0  0  0  0  0  0  0  0  0  0
    4.4760   65.3510   63.6050 C   0  0  0  0  0  0  0  0  0  0  0  0
    3.3350   65.1100   64.5570 C   0  0  0  0  0  0  0  0  0  0  0  0
    3.2250   64.0430   65.1610 O   0  0  0  0  0  0  0  0  0  0  0  0
    7.0537   70.2858   65.7560 H   0  0  0  0  0  0  0  0  0  0  0  0
    7.7738   71.5890   67.7533 H   0  0  0  0  0  0  0  0  0  0  0  0
    6.2252   71.8752   69.6889 H   0  0  0  0  0  0  0  0  0  0  0  0
    3.9428   70.8528   69.6141 H   0  0  0  0  0  0  0  0  0  0  0  0
    6.3899   69.3925   64.4344 H   0  0  0  0  0  0  0  0  0  0  0  0
    3.8048   67.3503   63.7337 H   0  0  0  0  0  0  0  0  0  0  0  0
    3.3317   68.5327   61.6980 H   0  0  0  0  0  0  0  0  0  0  0  0
    1.7309   69.7229   60.2069 H   0  0  0  0  0  0  0  0  0  0  0  0
   -0.5849   70.2084   60.9876 H   0  0  0  0  0  0  0  0  0  0  0  0
   -1.2959   69.5228   63.2750 H   0  0  0  0  0  0  0  0  0  0  0  0
    0.2941   68.3284   64.7729 H   0  0  0  0  0  0  0  0  0  0  0  0
    1.9615   66.2721   65.7220 H   0  0  0  0  0  0  0  0  0  0  0  0
    1.4735   65.9842   63.9960 H   0  0  0  0  0  0  0  0  0  0  0  0
    5.3956   65.5452   64.1765 H   0  0  0  0  0  0  0  0  0  0  0  0
    4.6187   64.4632   62.9714 H   0  0  0  0  0  0  0  0  0  0  0  0
    4.2475   66.2207   62.9714 H   0  0  0  0  0  0  0  0  0  0  0  0
  2  1  1  0
  3  2  2  0
  4  2  1  0
  5  4  1  0
  6  5  2  0
  7  1  2  0
  7  6  1  0
  8  6  1  0
  9  8  2  0
 10  9  1  0
 11  5  1  0
 11 10  2  0
 12  7  1  0
 13  1  1  0
 14 13  1  0
 15 14  2  0
 16 15  1  0
 17 16  2  0
 18 17  1  0
 19 18  2  0
 19 14  1  0
 20 13  1  0
 22 21  1  0
 22 20  1  0
 23 22  2  0
  8 24  1  0
  9 25  1  0
 10 26  1  0
 11 27  1  0
 12 28  1  0
 13 29  1  6
 15 30  1  0
 16 31  1  0
 17 32  1  0
 18 33  1  0
 19 34  1  0
 20 35  1  0
 20 36  1  0
 21 37  1  0
 21 38  1  0
 21 39  1  0
M  END
>  <score>  (3) 
-10.082

$$$$
=
     RDKit          3D

 39 41  0  0  0  0  0  0  0  0999 V2000
    3.8190   68.4990   65.1190 C   0  0  0  0  0  0  0  0  0  0  0  0
    5.2230   68.9600   64.9290 C   0  0  0  0  0  0  0  0  0  0  0  0
    5.8900   68.6310   63.9530 O   0  0  0  0  0  0  0  0  0  0  0  0
    5.7810   69.7830   65.8960 O   0  0  0  0  0  0  0  0  0  0  0  0
    5.0780   70.1460   67.0520 C   0  0  0  0  0  0  0  0  0  0  0  0
    3.7840   69.6920   67.2650 C   0  0  0  0  0  0  0  0  0  0  0  0
    3.1680   68.8350   66.2520 C   0  0  0  0  0  0  0  0  0  0  0  0
    3.1360   70.0850   68.4430 C   0  0  0  0  0  0  0  0  0  0  0  0
    3.7810   70.9090   69.3710 C   0  0  0  0  0  0  0  0  0  0  0  0
    5.0810   71.3510   69.1320 C   0  0  0  0  0  0  0  0  0  0  0  0
    5.7380   70.9680   67.9650 C   0  0  0  0  0  0  0  0  0  0  0  0
    1.8900   68.4160   66.5660 O   0  0  0  0  0  0  0  0  0  0  0  0
    3.1660   67.6840   63.9970 C   0  0  2  0  0  0  0  0  0  0  0  0
    3.5460   66.2050   64.0610 C   0  0  0  0  0  0  0  0  0  0  0  0
    3.0210   65.3460   65.0390 C   0  0  0  0  0  0  0  0  0  0  0  0
    3.3890   63.9990   65.0740 C   0  0  0  0  0  0  0  0  0  0  0  0
    4.2900   63.4940   64.1410 C   0  0  0  0  0  0  0  0  0  0  0  0
    4.8330   64.3360   63.1740 C   0  0  0  0  0  0  0  0  0  0  0  0
    4.4670   65.6830   63.1350 C   0  0  0  0  0  0  0  0  0  0  0  0
    3.3220   68.2310   62.5620 C   0  0  0  0  0  0  0  0  0  0  0  0
    0.7990   68.6240   62.8790 C   0  0  0  0  0  0  0  0  0  0  0  0
    2.0220   68.8010   62.0200 C   0  0  0  0  0  0  0  0  0  0  0  0
    1.9500   69.3340   60.9120 O   0  0  0  0  0  0  0  0  0  0  0  0
    2.1096   69.7421   68.6402 H   0  0  0  0  0  0  0  0  0  0  0  0
    3.2606   71.2092   70.2924 H   0  0  0  0  0  0  0  0  0  0  0  0
    5.5864   72.0000   69.8623 H   0  0  0  0  0  0  0  0  0  0  0  0
    6.7645   71.3096   67.7661 H   0  0  0  0  0  0  0  0  0  0  0  0
    1.4707   68.7006   67.4165 H   0  0  0  0  0  0  0  0  0  0  0  0
    2.0932   67.7969   64.2124 H   0  0  0  0  0  0  0  0  0  0  0  0
    2.3133   65.7371   65.7847 H   0  0  0  0  0  0  0  0  0  0  0  0
    2.9652   63.3349   65.8417 H   0  0  0  0  0  0  0  0  0  0  0  0
    4.5727   62.4313   64.1675 H   0  0  0  0  0  0  0  0  0  0  0  0
    5.5506   63.9399   62.4405 H   0  0  0  0  0  0  0  0  0  0  0  0
    4.9039   66.3433   62.3714 H   0  0  0  0  0  0  0  0  0  0  0  0
    4.0825   69.0258   62.5667 H   0  0  0  0  0  0  0  0  0  0  0  0
    3.6205   67.3948   61.9127 H   0  0  0  0  0  0  0  0  0  0  0  0
    1.0869   68.6657   63.9398 H   0  0  0  0  0  0  0  0  0  0  0  0
    0.0795   69.4274   62.6625 H   0  0  0  0  0  0  0  0  0  0  0  0
    0.3368   67.6496   62.6625 H   0  0  0  0  0  0  0  0  0  0  0  0
  2  1  1  0
  3  2  2  0
  4  2  1  0
  5  4  1  0
  6  5  2  0
  7  1  2  0
  7  6  1  0
  8  6  1  0
  9  8  2  0
 10  9  1  0
 11  5  1  0
 11 10  2  0
 12  7  1  0
 13  1  1  0
 14 13  1  0
 15 14  2  0
 16 15  1  0
 17 16  2  0
 18 17  1  0
 19 18  2  0
 19 14  1  0
 20 13  1  0
 22 21  1  0
 22 20  1  0
 23 22  2  0
  8 24  1  0
  9 25  1  0
 10 26  1  0
 11 27  1  0
 12 28  1  0
 13 29  1  1
 15 30  1  0
 16 31  1  0
 17 32  1  0
 18 33  1  0
 19 34  1  0
 20 35  1  0
 20 36  1  0
 21 37  1  0
 21 38  1  0
 21 39  1  0
M  END
>  <score>  (4) 
-9.947

$$$$
=
     RDKit          3D

 39 41  0  0  0  0  0  0  0  0999 V2000
    1.6870   68.0690   65.4260 C   0  0  0  0  0  0  0  0  0  0  0  0
    0.9960   68.9020   64.4020 C   0  0  0  0  0  0  0  0  0  0  0  0
    1.6050   69.4500   63.4890 O   0  0  0  0  0  0  0  0  0  0  0  0
   -0.3790   69.0570   64.5000 O   0  0  0  0  0  0  0  0  0  0  0  0
   -1.1120   68.4930   65.5530 C   0  0  0  0  0  0  0  0  0  0  0  0
   -0.4780   67.7490   66.5380 C   0  0  0  0  0  0  0  0  0  0  0  0
    0.9700   67.5580   66.4480 C   0  0  0  0  0  0  0  0  0  0  0  0
   -1.2650   67.2160   67.5660 C   0  0  0  0  0  0  0  0  0  0  0  0
   -2.6470   67.4320   67.5940 C   0  0  0  0  0  0  0  0  0  0  0  0
   -3.2590   68.1840   66.5910 C   0  0  0  0  0  0  0  0  0  0  0  0
   -2.4880   68.7200   65.5610 C   0  0  0  0  0  0  0  0  0  0  0  0
    1.5100   66.8250   67.4860 O   0  0  0  0  0  0  0  0  0  0  0  0
    3.1870   67.8050   65.2530 C   0  0  2  0  0  0  0  0  0  0  0  0
    4.0440   68.8500   65.9680 C   0  0  0  0  0  0  0  0  0  0  0  0
    3.6560   69.4150   67.1930 C   0  0  0  0  0  0  0  0  0  0  0  0
    4.4570   70.3700   67.8220 C   0  0  0  0  0  0  0  0  0  0  0  0
    5.6520   70.7790   67.2350 C   0  0  0  0  0  0  0  0  0  0  0  0
    6.0440   70.2410   66.0120 C   0  0  0  0  0  0  0  0  0  0  0  0
    5.2450   69.2850   65.3800 C   0  0  0  0  0  0  0  0  0  0  0  0
    3.6880   67.5770   63.8110 C   0  0  0  0  0  0  0  0  0  0  0  0
    3.4380   65.1000   64.4640 C   0  0  0  0  0  0  0  0  0  0  0  0
    4.0620   66.1260   63.5560 C   0  0  0  0  0  0  0  0  0  0  0  0
    4.8730   65.7990   62.6890 O   0  0  0  0  0  0  0  0  0  0  0  0
   -0.7914   66.6207   68.3606 H   0  0  0  0  0  0  0  0  0  0  0  0
   -3.2523   67.0079   68.4087 H   0  0  0  0  0  0  0  0  0  0  0  0
   -4.3457   68.3533   66.6129 H   0  0  0  0  0  0  0  0  0  0  0  0
   -2.9589   69.3146   64.7644 H   0  0  0  0  0  0  0  0  0  0  0  0
    0.9240   66.4792   68.2051 H   0  0  0  0  0  0  0  0  0  0  0  0
    3.3160   66.8278   65.7413 H   0  0  0  0  0  0  0  0  0  0  0  0
    2.7115   69.1022   67.6621 H   0  0  0  0  0  0  0  0  0  0  0  0
    4.1433   70.8008   68.7843 H   0  0  0  0  0  0  0  0  0  0  0  0
    6.2850   71.5257   67.7367 H   0  0  0  0  0  0  0  0  0  0  0  0
    6.9835   70.5689   65.5431 H   0  0  0  0  0  0  0  0  0  0  0  0
    5.5588   68.8679   64.4117 H   0  0  0  0  0  0  0  0  0  0  0  0
    2.8917   67.8662   63.1094 H   0  0  0  0  0  0  0  0  0  0  0  0
    4.5906   68.1889   63.6663 H   0  0  0  0  0  0  0  0  0  0  0  0
    3.6111   65.3845   65.5124 H   0  0  0  0  0  0  0  0  0  0  0  0
    2.3561   65.0496   64.2715 H   0  0  0  0  0  0  0  0  0  0  0  0
    3.8909   64.1162   64.2715 H   0  0  0  0  0  0  0  0  0  0  0  0
  2  1  1  0
  3  2  2  0
  4  2  1  0
  5  4  1  0
  6  5  2  0
  7  1  2  0
  7  6  1  0
  8  6  1  0
  9  8  2  0
 10  9  1  0
 11  5  1  0
 11 10  2  0
 12  7  1  0
 13  1  1  0
 14 13  1  0
 15 14  2  0
 16 15  1  0
 17 16  2  0
 18 17  1  0
 19 18  2  0
 19 14  1  0
 20 13  1  0
 22 21  1  0
 22 20  1  0
 23 22  2  0
  8 24  1  0
  9 25  1  0
 10 26  1  0
 11 27  1  0
 12 28  1  0
 13 29  1  1
 15 30  1  0
 16 31  1  0
 17 32  1  0
 18 33  1  0
 19 34  1  0
 20 35  1  0
 20 36  1  0
 21 37  1  0
 21 38  1  0
 21 39  1  0
M  END
>  <score>  (5) 
-9.537

$$$$
=
     RDKit          3D

 39 41  0  0  0  0  0  0  0  0999 V2000
    1.9730   67.8110   66.5210 C   0  0  0  0  0  0  0  0  0  0  0  0
    2.6320   69.0960   66.8930 C   0  0  0  0  0  0  0  0  0  0  0  0
    2.2990   69.7350   67.8850 O   0  0  0  0  0  0  0  0  0  0  0  0
    3.6480   69.5720   66.0780 O   0  0  0  0  0  0  0  0  0  0  0  0
    4.0290   68.9040   64.9070 C   0  0  0  0  0  0  0  0  0  0  0  0
    3.3980   67.7290   64.5240 C   0  0  0  0  0  0  0  0  0  0  0  0
    2.3330   67.1980   65.3760 C   0  0  0  0  0  0  0  0  0  0  0  0
    3.8200   67.1120   63.3400 C   0  0  0  0  0  0  0  0  0  0  0  0
    4.8480   67.6700   62.5720 C   0  0  0  0  0  0  0  0  0  0  0  0
    5.4660   68.8510   62.9790 C   0  0  0  0  0  0  0  0  0  0  0  0
    5.0560   69.4760   64.1550 C   0  0  0  0  0  0  0  0  0  0  0  0
    1.7510   66.0400   64.8980 O   0  0  0  0  0  0  0  0  0  0  0  0
    0.9290   67.2290   67.4820 C   0  0  2  0  0  0  0  0  0  0  0  0
   -0.4970   67.6210   67.0930 C   0  0  0  0  0  0  0  0  0  0  0  0
   -0.7600   68.6860   66.2170 C   0  0  0  0  0  0  0  0  0  0  0  0
   -2.0730   69.0230   65.8820 C   0  0  0  0  0  0  0  0  0  0  0  0
   -3.1390   68.3090   66.4210 C   0  0  0  0  0  0  0  0  0  0  0  0
   -2.8960   67.2600   67.3040 C   0  0  0  0  0  0  0  0  0  0  0  0
   -1.5840   66.9200   67.6420 C   0  0  0  0  0  0  0  0  0  0  0  0
    1.1710   67.4580   68.9890 C   0  0  0  0  0  0  0  0  0  0  0  0
    0.1260   66.0790   70.8940 C   0  0  0  0  0  0  0  0  0  0  0  0
    1.1350   66.1610   69.7800 C   0  0  0  0  0  0  0  0  0  0  0  0
    1.9210   65.2380   69.5640 O   0  0  0  0  0  0  0  0  0  0  0  0
    3.3386   66.1795   63.0104 H   0  0  0  0  0  0  0  0  0  0  0  0
    5.1695   67.1748   61.6438 H   0  0  0  0  0  0  0  0  0  0  0  0
    6.2743   69.2880   62.3743 H   0  0  0  0  0  0  0  0  0  0  0  0
    5.5359   70.4086   64.4865 H   0  0  0  0  0  0  0  0  0  0  0  0
    2.0654   65.6426   64.0475 H   0  0  0  0  0  0  0  0  0  0  0  0
    1.0603   66.1449   67.3501 H   0  0  0  0  0  0  0  0  0  0  0  0
    0.0758   69.2602   65.7907 H   0  0  0  0  0  0  0  0  0  0  0  0
   -2.2654   69.8558   65.1896 H   0  0  0  0  0  0  0  0  0  0  0  0
   -4.1719   68.5728   66.1500 H   0  0  0  0  0  0  0  0  0  0  0  0
   -3.7378   66.6987   67.7356 H   0  0  0  0  0  0  0  0  0  0  0  0
   -1.3998   66.0947   68.3455 H   0  0  0  0  0  0  0  0  0  0  0  0
    2.1571   67.9268   69.1222 H   0  0  0  0  0  0  0  0  0  0  0  0
    0.3656   68.1056   69.3657 H   0  0  0  0  0  0  0  0  0  0  0  0
    0.6452   66.1212   71.8628 H   0  0  0  0  0  0  0  0  0  0  0  0
   -0.5750   66.9231   70.8166 H   0  0  0  0  0  0  0  0  0  0  0  0
   -0.4295   65.1327   70.8166 H   0  0  0  0  0  0  0  0  0  0  0  0
  2  1  1  0
  3  2  2  0
  4  2  1  0
  5  4  1  0
  6  5  2  0
  7  1  2  0
  7  6  1  0
  8  6  1  0
  9  8  2  0
 10  9  1  0
 11  5  1  0
 11 10  2  0
 12  7  1  0
 13  1  1  0
 14 13  1  0
 15 14  2  0
 16 15  1  0
 17 16  2  0
 18 17  1  0
 19 18  2  0
 19 14  1  0
 20 13  1  0
 22 21  1  0
 22 20  1  0
 23 22  2  0
  8 24  1  0
  9 25  1  0
 10 26  1  0
 11 27  1  0
 12 28  1  0
 13 29  1  1
 15 30  1  0
 16 31  1  0
 17 32  1  0
 18 33  1  0
 19 34  1  0
 20 35  1  0
 20 36  1  0
 21 37  1  0
 21 38  1  0
 21 39  1  0
M  END
>  <score>  (6) 
-9.258

$$$$
=
     RDKit          3D

 39 41  0  0  0  0  0  0  0  0999 V2000
    2.2490   69.3400   66.3510 C   0  0  0  0  0  0  0  0  0  0  0  0
    1.8530   69.8260   67.7030 C   0  0  0  0  0  0  0  0  0  0  0  0
    0.6810   69.8750   68.0610 O   0  0  0  0  0  0  0  0  0  0  0  0
    2.8540   70.2370   68.5720 O   0  0  0  0  0  0  0  0  0  0  0  0
    4.2020   70.2470   68.1930 C   0  0  0  0  0  0  0  0  0  0  0  0
    4.5840   69.8370   66.9230 C   0  0  0  0  0  0  0  0  0  0  0  0
    3.5480   69.3840   65.9930 C   0  0  0  0  0  0  0  0  0  0  0  0
    5.9460   69.8760   66.6020 C   0  0  0  0  0  0  0  0  0  0  0  0
    6.8880   70.3170   67.5380 C   0  0  0  0  0  0  0  0  0  0  0  0
    6.4770   70.7230   68.8070 C   0  0  0  0  0  0  0  0  0  0  0  0
    5.1250   70.6900   69.1400 C   0  0  0  0  0  0  0  0  0  0  0  0
    4.0250   69.0210   64.7490 O   0  0  0  0  0  0  0  0  0  0  0  0
    1.1540   68.7810   65.4340 C   0  0  2  0  0  0  0  0  0  0  0  0
   -0.0170   68.1960   66.2230 C   0  0  0  0  0  0  0  0  0  0  0  0
    0.1620   67.1750   67.1690 C   0  0  0  0  0  0  0  0  0  0  0  0
   -0.9280   66.6570   67.8730 C   0  0  0  0  0  0  0  0  0  0  0  0
   -2.2100   67.1460   67.6370 C   0  0  0  0  0  0  0  0  0  0  0  0
   -2.4080   68.1470   66.6900 C   0  0  0  0  0  0  0  0  0  0  0  0
   -1.3200   68.6670   65.9850 C   0  0  0  0  0  0  0  0  0  0  0  0
    1.6100   67.8090   64.3250 C   0  0  0  0  0  0  0  0  0  0  0  0
    2.0330   68.7970   61.9860 C   0  0  0  0  0  0  0  0  0  0  0  0
    1.0580   68.1940   62.9620 C   0  0  0  0  0  0  0  0  0  0  0  0
   -0.1340   68.0730   62.6790 O   0  0  0  0  0  0  0  0  0  0  0  0
    6.2792   69.5566   65.6035 H   0  0  0  0  0  0  0  0  0  0  0  0
    7.9551   70.3434   67.2721 H   0  0  0  0  0  0  0  0  0  0  0  0
    7.2182   71.0683   69.5428 H   0  0  0  0  0  0  0  0  0  0  0  0
    4.7894   71.0094   70.1377 H   0  0  0  0  0  0  0  0  0  0  0  0
    4.9940   69.0785   64.5543 H   0  0  0  0  0  0  0  0  0  0  0  0
    0.8185   69.6751   64.8881 H   0  0  0  0  0  0  0  0  0  0  0  0
    1.1705   66.7786   67.3581 H   0  0  0  0  0  0  0  0  0  0  0  0
   -0.7728   65.8606   68.6158 H   0  0  0  0  0  0  0  0  0  0  0  0
   -3.0654   66.7419   68.1982 H   0  0  0  0  0  0  0  0  0  0  0  0
   -3.4215   68.5285   66.4969 H   0  0  0  0  0  0  0  0  0  0  0  0
   -1.4847   69.4544   65.2347 H   0  0  0  0  0  0  0  0  0  0  0  0
    2.7089   67.8164   64.2772 H   0  0  0  0  0  0  0  0  0  0  0  0
    1.2271   66.8084   64.5743 H   0  0  0  0  0  0  0  0  0  0  0  0
    2.8422   69.2975   62.5380 H   0  0  0  0  0  0  0  0  0  0  0  0
    2.4570   68.0032   61.3535 H   0  0  0  0  0  0  0  0  0  0  0  0
    1.5121   69.5309   61.3535 H   0  0  0  0  0  0  0  0  0  0  0  0
  2  1  1  0
  3  2  2  0
  4  2  1  0
  5  4  1  0
  6  5  2  0
  7  1  2  0
  7  6  1  0
  8  6  1  0
  9  8  2  0
 10  9  1  0
 11  5  1  0
 11 10  2  0
 12  7  1  0
 13  1  1  0
 14 13  1  0
 15 14  2  0
 16 15  1  0
 17 16  2  0
 18 17  1  0
 19 18  2  0
 19 14  1  0
 20 13  1  0
 22 21  1  0
 22 20  1  0
 23 22  2  0
  8 24  1  0
  9 25  1  0
 10 26  1  0
 11 27  1  0
 12 28  1  0
 13 29  1  6
 15 30  1  0
 16 31  1  0
 17 32  1  0
 18 33  1  0
 19 34  1  0
 20 35  1  0
 20 36  1  0
 21 37  1  0
 21 38  1  0
 21 39  1  0
M  END
>  <score>  (7) 
-8.932

$$$$
=
     RDKit          3D

 39 41  0  0  0  0  0  0  0  0999 V2000
    3.2110   67.5820   64.2530 C   0  0  0  0  0  0  0  0  0  0  0  0
    4.0690   67.5820   63.0340 C   0  0  0  0  0  0  0  0  0  0  0  0
    4.2340   68.5900   62.3540 O   0  0  0  0  0  0  0  0  0  0  0  0
    4.6900   66.3970   62.6670 O   0  0  0  0  0  0  0  0  0  0  0  0
    4.4920   65.2080   63.3810 C   0  0  0  0  0  0  0  0  0  0  0  0
    3.6630   65.1810   64.4940 C   0  0  0  0  0  0  0  0  0  0  0  0
    3.0100   66.4220   64.9110 C   0  0  0  0  0  0  0  0  0  0  0  0
    3.5020   63.9600   65.1620 C   0  0  0  0  0  0  0  0  0  0  0  0
    4.1590   62.8090   64.7150 C   0  0  0  0  0  0  0  0  0  0  0  0
    4.9860   62.8650   63.5940 C   0  0  0  0  0  0  0  0  0  0  0  0
    5.1560   64.0720   62.9190 C   0  0  0  0  0  0  0  0  0  0  0  0
    2.1880   66.2860   66.0130 O   0  0  0  0  0  0  0  0  0  0  0  0
    2.6180   68.9150   64.7210 C   0  0  2  0  0  0  0  0  0  0  0  0
    3.2800   69.4250   66.0020 C   0  0  0  0  0  0  0  0  0  0  0  0
    4.6390   69.7740   66.0450 C   0  0  0  0  0  0  0  0  0  0  0  0
    5.2180   70.2340   67.2300 C   0  0  0  0  0  0  0  0  0  0  0  0
    4.4520   70.3440   68.3870 C   0  0  0  0  0  0  0  0  0  0  0  0
    3.1060   69.9850   68.3660 C   0  0  0  0  0  0  0  0  0  0  0  0
    2.5240   69.5250   67.1830 C   0  0  0  0  0  0  0  0  0  0  0  0
    1.0800   68.9890   64.8300 C   0  0  0  0  0  0  0  0  0  0  0  0
   -1.0820   68.9360   63.4360 C   0  0  0  0  0  0  0  0  0  0  0  0
    0.4130   69.1090   63.4710 C   0  0  0  0  0  0  0  0  0  0  0  0
    1.0570   69.2870   62.4370 O   0  0  0  0  0  0  0  0  0  0  0  0
    2.8518   63.9060   66.0476 H   0  0  0  0  0  0  0  0  0  0  0  0
    4.0229   61.8572   65.2493 H   0  0  0  0  0  0  0  0  0  0  0  0
    5.5026   61.9593   63.2436 H   0  0  0  0  0  0  0  0  0  0  0  0
    5.8056   64.1281   62.0331 H   0  0  0  0  0  0  0  0  0  0  0  0
    2.0860   65.4028   66.4485 H   0  0  0  0  0  0  0  0  0  0  0  0
    2.8620   69.5905   63.8878 H   0  0  0  0  0  0  0  0  0  0  0  0
    5.2536   69.6844   65.1371 H   0  0  0  0  0  0  0  0  0  0  0  0
    6.2826   70.5102   67.2489 H   0  0  0  0  0  0  0  0  0  0  0  0
    4.9088   70.7139   69.3168 H   0  0  0  0  0  0  0  0  0  0  0  0
    2.5016   70.0640   69.2816 H   0  0  0  0  0  0  0  0  0  0  0  0
    1.4622   69.2377   67.1751 H   0  0  0  0  0  0  0  0  0  0  0  0
    0.7157   68.0761   65.3239 H   0  0  0  0  0  0  0  0  0  0  0  0
    0.8258   69.8877   65.4111 H   0  0  0  0  0  0  0  0  0  0  0  0
   -1.4701   68.8911   64.4643 H   0  0  0  0  0  0  0  0  0  0  0  0
   -1.5374   69.7874   62.9091 H   0  0  0  0  0  0  0  0  0  0  0  0
   -1.3309   68.0031   62.9091 H   0  0  0  0  0  0  0  0  0  0  0  0
  2  1  1  0
  3  2  2  0
  4  2  1  0
  5  4  1  0
  6  5  2  0
  7  1  2  0
  7  6  1  0
  8  6  1  0
  9  8  2  0
 10  9  1  0
 11  5  1  0
 11 10  2  0
 12  7  1  0
 13  1  1  0
 14 13  1  0
 15 14  2  0
 16 15  1  0
 17 16  2  0
 18 17  1  0
 19 18  2  0
 19 14  1  0
 20 13  1  0
 22 21  1  0
 22 20  1  0
 23 22  2  0
  8 24  1  0
  9 25  1  0
 10 26  1  0
 11 27  1  0
 12 28  1  0
 13 29  1  6
 15 30  1  0
 16 31  1  0
 17 32  1  0
 18 33  1  0
 19 34  1  0
 20 35  1  0
 20 36  1  0
 21 37  1  0
 21 38  1  0
 21 39  1  0
M  END
>  <score>  (8) 
-8.287

$$$$
