=
     RDKit          3D

 58 62  0  0  0  0  0  0  0  0999 V2000
    0.6570   57.2970   75.4130 C   0  0  1  0  0  0  0  0  0  0  0  0
   -0.3430   58.3020   76.0550 C   0  0  0  0  0  0  0  0  0  0  0  0
   -0.1150   59.6680   75.3710 C   0  0  0  0  0  0  0  0  0  0  0  0
    0.8700   59.3740   74.2450 C   0  0  2  0  0  0  0  0  0  0  0  0
    1.7640   58.2540   74.8410 C   0  0  1  0  0  0  0  0  0  0  0  0
    2.6930   58.7540   75.9850 C   0  0  0  0  0  0  0  0  0  0  0  0
    2.6370   57.6930   73.6990 C   0  0  0  0  0  0  0  0  0  0  0  0
    3.4430   58.7960   72.9830 C   0  0  0  0  0  0  0  0  0  0  0  0
    2.5410   59.9490   72.4800 C   0  0  1  0  0  0  0  0  0  0  0  0
    1.6870   60.5280   73.6450 C   0  0  1  0  0  0  0  0  0  0  0  0
    0.8480   61.6840   73.1770 C   0  0  0  0  0  0  0  0  0  0  0  0
    1.0800   62.3730   72.0480 C   0  0  0  0  0  0  0  0  0  0  0  0
    2.1940   62.0670   71.1420 C   0  0  0  0  0  0  0  0  0  0  0  0
    2.2640   62.5950   69.9030 C   0  0  0  0  0  0  0  0  0  0  0  0
    3.3180   62.2550   68.9240 C   0  0  0  0  0  0  0  0  0  0  0  0
    3.4430   62.8720   67.8750 O   0  0  0  0  0  0  0  0  0  0  0  0
    4.1870   61.1030   69.2360 C   0  0  1  0  0  0  0  0  0  0  0  0
    4.1430   60.4610   70.5970 C   0  0  1  0  0  0  0  0  0  0  0  0
    3.2700   61.0890   71.6880 C   0  0  2  0  0  0  0  0  0  0  0  0
    4.2260   61.9120   72.5940 C   0  0  0  0  0  0  0  0  0  0  0  0
    3.5680   59.7330   69.4060 C   0  0  0  0  0  0  0  0  0  0  0  0
    0.0210   63.7120   71.7100 Cl  0  0  0  0  0  0  0  0  0  0  0  0
    1.2800   56.2130   76.3300 C   0  0  0  0  0  0  0  0  0  0  0  0
    2.1870   55.4830   75.9180 O   0  0  0  0  0  0  0  0  0  0  0  0
    0.7750   56.0650   77.7420 C   0  0  0  0  0  0  0  0  0  0  0  0
    0.0200   56.6440   74.2830 O   0  0  0  0  0  0  0  0  0  0  0  0
   -0.3340   54.3420   74.0210 C   0  0  0  0  0  0  0  0  0  0  0  0
   -0.8610   55.6400   74.5460 C   0  0  0  0  0  0  0  0  0  0  0  0
   -1.9360   55.7770   75.1130 O   0  0  0  0  0  0  0  0  0  0  0  0
   -1.3766   57.9644   75.8886 H   0  0  0  0  0  0  0  0  0  0  0  0
   -0.1818   58.3757   77.1406 H   0  0  0  0  0  0  0  0  0  0  0  0
   -1.0592   60.0629   74.9679 H   0  0  0  0  0  0  0  0  0  0  0  0
    0.2653   60.4268   76.0707 H   0  0  0  0  0  0  0  0  0  0  0  0
    0.3015   59.1001   73.3440 H   0  0  0  0  0  0  0  0  0  0  0  0
    2.2406   58.5105   76.9576 H   0  0  0  0  0  0  0  0  0  0  0  0
    3.6732   58.2616   75.9030 H   0  0  0  0  0  0  0  0  0  0  0  0
    2.8219   59.8433   75.9030 H   0  0  0  0  0  0  0  0  0  0  0  0
    3.3392   56.9577   74.1189 H   0  0  0  0  0  0  0  0  0  0  0  0
    1.9671   57.2312   72.9588 H   0  0  0  0  0  0  0  0  0  0  0  0
    4.1829   59.2064   73.6859 H   0  0  0  0  0  0  0  0  0  0  0  0
    3.9299   58.3426   72.1070 H   0  0  0  0  0  0  0  0  0  0  0  0
    1.8839   59.4824   71.7313 H   0  0  0  0  0  0  0  0  0  0  0  0
    2.3267   60.9467   74.4359 H   0  0  0  0  0  0  0  0  0  0  0  0
   -0.0091   61.9842   73.7978 H   0  0  0  0  0  0  0  0  0  0  0  0
    1.4927   63.3200   69.6039 H   0  0  0  0  0  0  0  0  0  0  0  0
    4.9844   61.5313   68.6109 H   0  0  0  0  0  0  0  0  0  0  0  0
    4.8714   60.1811   71.3723 H   0  0  0  0  0  0  0  0  0  0  0  0
    3.9932   61.7116   73.6502 H   0  0  0  0  0  0  0  0  0  0  0  0
    5.2669   61.6230   72.3867 H   0  0  0  0  0  0  0  0  0  0  0  0
    4.0950   62.9843   72.3867 H   0  0  0  0  0  0  0  0  0  0  0  0
    4.0778   58.8447   69.0048 H   0  0  0  0  0  0  0  0  0  0  0  0
    2.5943   59.2823   69.1638 H   0  0  0  0  0  0  0  0  0  0  0  0
    1.5847   56.3023   78.4478 H   0  0  0  0  0  0  0  0  0  0  0  0
   -0.0668   56.7542   77.9045 H   0  0  0  0  0  0  0  0  0  0  0  0
    0.4384   55.0304   77.9045 H   0  0  0  0  0  0  0  0  0  0  0  0
   -0.0679   53.6867   74.8635 H   0  0  0  0  0  0  0  0  0  0  0  0
   -1.1055   53.8546   73.4068 H   0  0  0  0  0  0  0  0  0  0  0  0
    0.5589   54.5303   73.4068 H   0  0  0  0  0  0  0  0  0  0  0  0
  2  1  1  0
  3  2  1  0
  4  3  1  0
  5  4  1  0
  5  1  1  0
  5  6  1  1
  7  5  1  0
  8  7  1  0
  9  8  1  0
 10  9  1  0
 10  4  1  0
 11 10  1  0
 12 11  2  0
 13 12  1  0
 14 13  2  0
 15 14  1  0
 16 15  2  0
 17 15  1  0
 18 17  1  0
 19  9  1  0
 19 18  1  0
 19 13  1  0
 19 20  1  1
 21 18  1  0
 21 17  1  0
 22 12  1  0
 23  1  1  0
 24 23  2  0
 25 23  1  0
  1 26  1  6
 28 27  1  0
 28 26  1  0
 29 28  2  0
  2 30  1  0
  2 31  1  0
  3 32  1  0
  3 33  1  0
  4 34  1  6
  6 35  1  0
  6 36  1  0
  6 37  1  0
  7 38  1  0
  7 39  1  0
  8 40  1  0
  8 41  1  0
  9 42  1  6
 10 43  1  1
 11 44  1  0
 14 45  1  0
 17 46  1  6
 18 47  1  1
 20 48  1  0
 20 49  1  0
 20 50  1  0
 21 51  1  0
 21 52  1  0
 25 53  1  0
 25 54  1  0
 25 55  1  0
 27 56  1  0
 27 57  1  0
 27 58  1  0
M  END
>  <score>  (1) 
-8.538

$$$$
=
     RDKit          3D

 58 62  0  0  0  0  0  0  0  0999 V2000
    2.4630   62.3130   71.1890 C   0  0  1  0  0  0  0  0  0  0  0  0
    3.9050   62.5750   71.7150 C   0  0  0  0  0  0  0  0  0  0  0  0
    4.1330   61.6180   72.9060 C   0  0  0  0  0  0  0  0  0  0  0  0
    2.9020   60.7180   72.9180 C   0  0  2  0  0  0  0  0  0  0  0  0
    1.7680   61.6650   72.4410 C   0  0  1  0  0  0  0  0  0  0  0  0
    1.4020   62.7590   73.4860 C   0  0  0  0  0  0  0  0  0  0  0  0
    0.5200   60.8010   72.1670 C   0  0  0  0  0  0  0  0  0  0  0  0
    0.1220   59.9440   73.3860 C   0  0  0  0  0  0  0  0  0  0  0  0
    1.2960   59.0780   73.9030 C   0  0  1  0  0  0  0  0  0  0  0  0
    2.5410   59.9630   74.2050 C   0  0  1  0  0  0  0  0  0  0  0  0
    3.6680   59.1370   74.7600 C   0  0  0  0  0  0  0  0  0  0  0  0
    3.5140   57.9120   75.2880 C   0  0  0  0  0  0  0  0  0  0  0  0
    2.2100   57.2430   75.3850 C   0  0  0  0  0  0  0  0  0  0  0  0
    2.1070   55.9310   75.6810 C   0  0  0  0  0  0  0  0  0  0  0  0
    0.8270   55.1940   75.7080 C   0  0  0  0  0  0  0  0  0  0  0  0
    0.7540   54.0510   76.1370 O   0  0  0  0  0  0  0  0  0  0  0  0
   -0.3580   55.8720   75.1460 C   0  0  1  0  0  0  0  0  0  0  0  0
   -0.3000   57.3310   74.7820 C   0  0  1  0  0  0  0  0  0  0  0  0
    0.9650   58.1300   75.1070 C   0  0  2  0  0  0  0  0  0  0  0  0
    0.6610   58.9210   76.4080 C   0  0  0  0  0  0  0  0  0  0  0  0
   -0.3540   56.2870   73.6910 C   0  0  0  0  0  0  0  0  0  0  0  0
    4.9390   57.1430   75.9230 Cl  0  0  0  0  0  0  0  0  0  0  0  0
    1.6520   63.5280   70.6720 C   0  0  0  0  0  0  0  0  0  0  0  0
    0.5040   63.3830   70.2380 O   0  0  0  0  0  0  0  0  0  0  0  0
    2.2740   64.9000   70.7150 C   0  0  0  0  0  0  0  0  0  0  0  0
    2.5100   61.3030   70.1460 O   0  0  0  0  0  0  0  0  0  0  0  0
    3.6940   62.3060   68.3910 C   0  0  0  0  0  0  0  0  0  0  0  0
    3.6480   61.2090   69.4070 C   0  0  0  0  0  0  0  0  0  0  0  0
    4.5040   60.3450   69.5390 O   0  0  0  0  0  0  0  0  0  0  0  0
    4.6392   62.3719   70.9214 H   0  0  0  0  0  0  0  0  0  0  0  0
    4.0247   63.6234   72.0257 H   0  0  0  0  0  0  0  0  0  0  0  0
    5.0468   61.0240   72.7573 H   0  0  0  0  0  0  0  0  0  0  0  0
    4.2642   62.1578   73.8554 H   0  0  0  0  0  0  0  0  0  0  0  0
    3.0967   59.8472   72.2748 H   0  0  0  0  0  0  0  0  0  0  0  0
    1.5367   62.3564   74.5008 H   0  0  0  0  0  0  0  0  0  0  0  0
    2.0571   63.6318   73.3479 H   0  0  0  0  0  0  0  0  0  0  0  0
    0.3536   63.0619   73.3479 H   0  0  0  0  0  0  0  0  0  0  0  0
   -0.3198   61.4638   71.9112 H   0  0  0  0  0  0  0  0  0  0  0  0
    0.7592   60.1176   71.3389 H   0  0  0  0  0  0  0  0  0  0  0  0
   -0.2083   60.6118   74.1953 H   0  0  0  0  0  0  0  0  0  0  0  0
   -0.6843   59.2650   73.0715 H   0  0  0  0  0  0  0  0  0  0  0  0
    1.5201   58.3886   73.0757 H   0  0  0  0  0  0  0  0  0  0  0  0
    2.3221   60.7030   74.9889 H   0  0  0  0  0  0  0  0  0  0  0  0
    4.6819   59.5627   74.7318 H   0  0  0  0  0  0  0  0  0  0  0  0
    3.0287   55.3784   75.9157 H   0  0  0  0  0  0  0  0  0  0  0  0
   -1.0136   55.2624   75.7853 H   0  0  0  0  0  0  0  0  0  0  0  0
   -0.8948   58.2317   74.9939 H   0  0  0  0  0  0  0  0  0  0  0  0
    0.9010   58.2966   77.2813 H   0  0  0  0  0  0  0  0  0  0  0  0
    1.2717   59.8356   76.4322 H   0  0  0  0  0  0  0  0  0  0  0  0
   -0.4050   59.1912   76.4322 H   0  0  0  0  0  0  0  0  0  0  0  0
   -1.2634   56.1722   73.0829 H   0  0  0  0  0  0  0  0  0  0  0  0
    0.2624   56.0445   72.8128 H   0  0  0  0  0  0  0  0  0  0  0  0
    2.4131   65.2069   71.7621 H   0  0  0  0  0  0  0  0  0  0  0  0
    3.2495   64.8764   70.2071 H   0  0  0  0  0  0  0  0  0  0  0  0
    1.6134   65.6181   70.2071 H   0  0  0  0  0  0  0  0  0  0  0  0
    3.7348   63.2786   68.9032 H   0  0  0  0  0  0  0  0  0  0  0  0
    4.5879   62.1854   67.7614 H   0  0  0  0  0  0  0  0  0  0  0  0
    2.7932   62.2606   67.7614 H   0  0  0  0  0  0  0  0  0  0  0  0
  2  1  1  0
  3  2  1  0
  4  3  1  0
  5  4  1  0
  5  1  1  0
  5  6  1  1
  7  5  1  0
  8  7  1  0
  9  8  1  0
 10  9  1  0
 10  4  1  0
 11 10  1  0
 12 11  2  0
 13 12  1  0
 14 13  2  0
 15 14  1  0
 16 15  2  0
 17 15  1  0
 18 17  1  0
 19  9  1  0
 19 18  1  0
 19 13  1  0
 19 20  1  1
 21 18  1  0
 21 17  1  0
 22 12  1  0
 23  1  1  0
 24 23  2  0
 25 23  1  0
  1 26  1  6
 28 27  1  0
 28 26  1  0
 29 28  2  0
  2 30  1  0
  2 31  1  0
  3 32  1  0
  3 33  1  0
  4 34  1  6
  6 35  1  0
  6 36  1  0
  6 37  1  0
  7 38  1  0
  7 39  1  0
  8 40  1  0
  8 41  1  0
  9 42  1  6
 10 43  1  1
 11 44  1  0
 14 45  1  0
 17 46  1  1
 18 47  1  1
 20 48  1  0
 20 49  1  0
 20 50  1  0
 21 51  1  0
 21 52  1  0
 25 53  1  0
 25 54  1  0
 25 55  1  0
 27 56  1  0
 27 57  1  0
 27 58  1  0
M  END
>  <score>  (2) 
-8.532

$$$$
=
     RDKit          3D

 58 62  0  0  0  0  0  0  0  0999 V2000
    2.9570   61.2320   71.3640 C   0  0  1  0  0  0  0  0  0  0  0  0
    4.2430   60.9760   72.2040 C   0  0  0  0  0  0  0  0  0  0  0  0
    3.7910   60.7190   73.6580 C   0  0  0  0  0  0  0  0  0  0  0  0
    2.2700   60.6550   73.5820 C   0  0  2  0  0  0  0  0  0  0  0  0
    1.9290   61.6770   72.4650 C   0  0  1  0  0  0  0  0  0  0  0  0
    2.1880   63.1540   72.8840 C   0  0  0  0  0  0  0  0  0  0  0  0
    0.4340   61.5130   72.1190 C   0  0  0  0  0  0  0  0  0  0  0  0
   -0.4720   61.6450   73.3610 C   0  0  0  0  0  0  0  0  0  0  0  0
   -0.0540   60.6820   74.4980 C   0  0  1  0  0  0  0  0  0  0  0  0
    1.4470   60.8770   74.8600 C   0  0  1  0  0  0  0  0  0  0  0  0
    1.8480   59.9840   76.0000 C   0  0  0  0  0  0  0  0  0  0  0  0
    0.9770   59.4010   76.8410 C   0  0  0  0  0  0  0  0  0  0  0  0
   -0.4760   59.5830   76.7360 C   0  0  0  0  0  0  0  0  0  0  0  0
   -1.3390   58.8020   77.4190 C   0  0  0  0  0  0  0  0  0  0  0  0
   -2.8080   58.8880   77.2840 C   0  0  0  0  0  0  0  0  0  0  0  0
   -3.5580   58.2810   78.0360 O   0  0  0  0  0  0  0  0  0  0  0  0
   -3.3400   59.6970   76.1690 C   0  0  1  0  0  0  0  0  0  0  0  0
   -2.4240   60.5760   75.3600 C   0  0  1  0  0  0  0  0  0  0  0  0
   -0.9570   60.7080   75.7790 C   0  0  2  0  0  0  0  0  0  0  0  0
   -0.8410   62.0510   76.5490 C   0  0  0  0  0  0  0  0  0  0  0  0
   -2.9920   59.3180   74.7470 C   0  0  0  0  0  0  0  0  0  0  0  0
    1.6470   58.4440   78.1300 Cl  0  0  0  0  0  0  0  0  0  0  0  0
    3.0370   62.2770   70.2230 C   0  0  0  0  0  0  0  0  0  0  0  0
    2.0820   62.4520   69.4580 O   0  0  0  0  0  0  0  0  0  0  0  0
    4.2910   63.0960   70.0600 C   0  0  0  0  0  0  0  0  0  0  0  0
    2.4870   59.9730   70.8130 O   0  0  0  0  0  0  0  0  0  0  0  0
    3.4360   57.8430   71.0500 C   0  0  0  0  0  0  0  0  0  0  0  0
    3.4140   59.1280   70.2840 C   0  0  0  0  0  0  0  0  0  0  0  0
    4.1370   59.3840   69.3320 O   0  0  0  0  0  0  0  0  0  0  0  0
    4.7795   60.0981   71.8148 H   0  0  0  0  0  0  0  0  0  0  0  0
    4.9233   61.8389   72.1519 H   0  0  0  0  0  0  0  0  0  0  0  0
    4.2016   59.7688   74.0301 H   0  0  0  0  0  0  0  0  0  0  0  0
    4.1417   61.5004   74.3482 H   0  0  0  0  0  0  0  0  0  0  0  0
    1.9717   59.6152   73.3826 H   0  0  0  0  0  0  0  0  0  0  0  0
    2.2008   63.2269   73.9815 H   0  0  0  0  0  0  0  0  0  0  0  0
    3.1577   63.4842   72.4833 H   0  0  0  0  0  0  0  0  0  0  0  0
    1.3885   63.7944   72.4833 H   0  0  0  0  0  0  0  0  0  0  0  0
    0.1521   62.2883   71.3914 H   0  0  0  0  0  0  0  0  0  0  0  0
    0.2930   60.5036   71.7051 H   0  0  0  0  0  0  0  0  0  0  0  0
   -0.4135   62.6784   73.7333 H   0  0  0  0  0  0  0  0  0  0  0  0
   -1.4971   61.3842   73.0590 H   0  0  0  0  0  0  0  0  0  0  0  0
   -0.2098   59.6753   74.0829 H   0  0  0  0  0  0  0  0  0  0  0  0
    1.6383   61.8982   75.2214 H   0  0  0  0  0  0  0  0  0  0  0  0
    2.9206   59.7959   76.1557 H   0  0  0  0  0  0  0  0  0  0  0  0
   -0.9251   58.0587   78.1163 H   0  0  0  0  0  0  0  0  0  0  0  0
   -4.2712   59.8636   76.7303 H   0  0  0  0  0  0  0  0  0  0  0  0
   -2.4030   61.6281   75.0397 H   0  0  0  0  0  0  0  0  0  0  0  0
   -0.8579   61.8557   77.6314 H   0  0  0  0  0  0  0  0  0  0  0  0
    0.1033   62.5472   76.2806 H   0  0  0  0  0  0  0  0  0  0  0  0
   -1.6863   62.7017   76.2806 H   0  0  0  0  0  0  0  0  0  0  0  0
   -3.7541   59.3860   73.9567 H   0  0  0  0  0  0  0  0  0  0  0  0
   -2.5672   58.4282   74.2593 H   0  0  0  0  0  0  0  0  0  0  0  0
    4.6901   63.3567   71.0513 H   0  0  0  0  0  0  0  0  0  0  0  0
    5.0403   62.5127   69.5048 H   0  0  0  0  0  0  0  0  0  0  0  0
    4.0581   64.0166   69.5048 H   0  0  0  0  0  0  0  0  0  0  0  0
    3.4323   58.0590   72.1286 H   0  0  0  0  0  0  0  0  0  0  0  0
    2.5479   57.2473   70.7923 H   0  0  0  0  0  0  0  0  0  0  0  0
    4.3439   57.2780   70.7923 H   0  0  0  0  0  0  0  0  0  0  0  0
  2  1  1  0
  3  2  1  0
  4  3  1  0
  5  4  1  0
  5  1  1  0
  5  6  1  1
  7  5  1  0
  8  7  1  0
  9  8  1  0
 10  9  1  0
 10  4  1  0
 11 10  1  0
 12 11  2  0
 13 12  1  0
 14 13  2  0
 15 14  1  0
 16 15  2  0
 17 15  1  0
 18 17  1  0
 19  9  1  0
 19 18  1  0
 19 13  1  0
 19 20  1  1
 21 18  1  0
 21 17  1  0
 22 12  1  0
 23  1  1  0
 24 23  2  0
 25 23  1  0
  1 26  1  6
 28 27  1  0
 28 26  1  0
 29 28  2  0
  2 30  1  0
  2 31  1  0
  3 32  1  0
  3 33  1  0
  4 34  1  6
  6 35  1  0
  6 36  1  0
  6 37  1  0
  7 38  1  0
  7 39  1  0
  8 40  1  0
  8 41  1  0
  9 42  1  6
 10 43  1  1
 11 44  1  0
 14 45  1  0
 17 46  1  6
 18 47  1  6
 20 48  1  0
 20 49  1  0
 20 50  1  0
 21 51  1  0
 21 52  1  0
 25 53  1  0
 25 54  1  0
 25 55  1  0
 27 56  1  0
 27 57  1  0
 27 58  1  0
M  END
>  <score>  (3) 
-7.79

$$$$
=
     RDKit          3D

 58 62  0  0  0  0  0  0  0  0999 V2000
   -0.2780   55.2570   75.9790 C   0  0  1  0  0  0  0  0  0  0  0  0
   -1.5580   56.0460   76.3820 C   0  0  0  0  0  0  0  0  0  0  0  0
   -1.3960   57.4810   75.8350 C   0  0  0  0  0  0  0  0  0  0  0  0
   -0.1290   57.4290   74.9880 C   0  0  2  0  0  0  0  0  0  0  0  0
    0.7630   56.4110   75.7490 C   0  0  1  0  0  0  0  0  0  0  0  0
    1.2840   56.9510   77.1130 C   0  0  0  0  0  0  0  0  0  0  0  0
    1.9710   56.0820   74.8490 C   0  0  0  0  0  0  0  0  0  0  0  0
    2.7350   57.3470   74.4080 C   0  0  0  0  0  0  0  0  0  0  0  0
    1.8080   58.3880   73.7360 C   0  0  1  0  0  0  0  0  0  0  0  0
    0.6090   58.7370   74.6650 C   0  0  1  0  0  0  0  0  0  0  0  0
   -0.2670   59.7880   74.0430 C   0  0  0  0  0  0  0  0  0  0  0  0
    0.1200   60.5920   73.0400 C   0  0  0  0  0  0  0  0  0  0  0  0
    1.4590   60.5310   72.4390 C   0  0  0  0  0  0  0  0  0  0  0  0
    1.7450   61.1610   71.2810 C   0  0  0  0  0  0  0  0  0  0  0  0
    3.0490   61.0620   70.5940 C   0  0  0  0  0  0  0  0  0  0  0  0
    3.3260   61.7730   69.6380 O   0  0  0  0  0  0  0  0  0  0  0  0
    3.9920   60.0310   71.0730 C   0  0  1  0  0  0  0  0  0  0  0  0
    3.7190   59.2840   72.3500 C   0  0  1  0  0  0  0  0  0  0  0  0
    2.5120   59.6840   73.2040 C   0  0  2  0  0  0  0  0  0  0  0  0
    3.0650   60.5650   74.3570 C   0  0  0  0  0  0  0  0  0  0  0  0
    3.5850   58.5750   71.0230 C   0  0  0  0  0  0  0  0  0  0  0  0
   -1.0280   61.7810   72.4950 Cl  0  0  0  0  0  0  0  0  0  0  0  0
    0.2690   54.2090   76.9820 C   0  0  0  0  0  0  0  0  0  0  0  0
    1.3200   53.6020   76.7510 O   0  0  0  0  0  0  0  0  0  0  0  0
   -0.4900   53.9430   78.2560 C   0  0  0  0  0  0  0  0  0  0  0  0
   -0.4990   54.6090   74.6980 O   0  0  0  0  0  0  0  0  0  0  0  0
   -0.4020   52.3750   73.9970 C   0  0  0  0  0  0  0  0  0  0  0  0
   -1.1920   53.4380   74.6930 C   0  0  0  0  0  0  0  0  0  0  0  0
   -2.3060   53.2770   75.1700 O   0  0  0  0  0  0  0  0  0  0  0  0
   -2.4478   55.5723   75.9417 H   0  0  0  0  0  0  0  0  0  0  0  0
   -1.6855   56.0549   77.4746 H   0  0  0  0  0  0  0  0  0  0  0  0
   -2.2633   57.7622   75.2196 H   0  0  0  0  0  0  0  0  0  0  0  0
   -1.3300   58.2289   76.6389 H   0  0  0  0  0  0  0  0  0  0  0  0
   -0.4044   57.1463   73.9612 H   0  0  0  0  0  0  0  0  0  0  0  0
    0.7758   56.4243   77.9341 H   0  0  0  0  0  0  0  0  0  0  0  0
    2.3685   56.7815   77.1843 H   0  0  0  0  0  0  0  0  0  0  0  0
    1.0758   58.0288   77.1843 H   0  0  0  0  0  0  0  0  0  0  0  0
    2.6594   55.4293   75.4058 H   0  0  0  0  0  0  0  0  0  0  0  0
    1.5906   55.5863   73.9437 H   0  0  0  0  0  0  0  0  0  0  0  0
    3.1998   57.8062   75.2930 H   0  0  0  0  0  0  0  0  0  0  0  0
    3.4914   57.0432   73.6693 H   0  0  0  0  0  0  0  0  0  0  0  0
    1.4426   57.8904   72.8256 H   0  0  0  0  0  0  0  0  0  0  0  0
    0.9548   59.1814   75.6100 H   0  0  0  0  0  0  0  0  0  0  0  0
   -1.2885   59.9057   74.4338 H   0  0  0  0  0  0  0  0  0  0  0  0
    0.9629   61.7838   70.8223 H   0  0  0  0  0  0  0  0  0  0  0  0
    4.8376   60.6220   70.6913 H   0  0  0  0  0  0  0  0  0  0  0  0
    4.2688   59.0560   73.2751 H   0  0  0  0  0  0  0  0  0  0  0  0
    2.7862   60.1208   75.3239 H   0  0  0  0  0  0  0  0  0  0  0  0
    4.1610   60.6216   74.2819 H   0  0  0  0  0  0  0  0  0  0  0  0
    2.6396   61.5766   74.2819 H   0  0  0  0  0  0  0  0  0  0  0  0
    4.3177   57.8079   70.7318 H   0  0  0  0  0  0  0  0  0  0  0  0
    2.7899   58.0045   70.5206 H   0  0  0  0  0  0  0  0  0  0  0  0
    0.1529   54.1683   79.1197 H   0  0  0  0  0  0  0  0  0  0  0  0
   -1.3856   54.5808   78.2892 H   0  0  0  0  0  0  0  0  0  0  0  0
   -0.7915   52.8856   78.2892 H   0  0  0  0  0  0  0  0  0  0  0  0
    0.0794   51.7273   74.7445 H   0  0  0  0  0  0  0  0  0  0  0  0
   -1.0731   51.7724   73.3674 H   0  0  0  0  0  0  0  0  0  0  0  0
    0.3686   52.8438   73.3674 H   0  0  0  0  0  0  0  0  0  0  0  0
  2  1  1  0
  3  2  1  0
  4  3  1  0
  5  4  1  0
  5  1  1  0
  5  6  1  1
  7  5  1  0
  8  7  1  0
  9  8  1  0
 10  9  1  0
 10  4  1  0
 11 10  1  0
 12 11  2  0
 13 12  1  0
 14 13  2  0
 15 14  1  0
 16 15  2  0
 17 15  1  0
 18 17  1  0
 19  9  1  0
 19 18  1  0
 19 13  1  0
 19 20  1  1
 21 18  1  0
 21 17  1  0
 22 12  1  0
 23  1  1  0
 24 23  2  0
 25 23  1  0
  1 26  1  6
 28 27  1  0
 28 26  1  0
 29 28  2  0
  2 30  1  0
  2 31  1  0
  3 32  1  0
  3 33  1  0
  4 34  1  6
  6 35  1  0
  6 36  1  0
  6 37  1  0
  7 38  1  0
  7 39  1  0
  8 40  1  0
  8 41  1  0
  9 42  1  6
 10 43  1  1
 11 44  1  0
 14 45  1  0
 17 46  1  1
 18 47  1  1
 20 48  1  0
 20 49  1  0
 20 50  1  0
 21 51  1  0
 21 52  1  0
 25 53  1  0
 25 54  1  0
 25 55  1  0
 27 56  1  0
 27 57  1  0
 27 58  1  0
M  END
>  <score>  (4) 
-7.416

$$$$
=
     RDKit          3D

 58 62  0  0  0  0  0  0  0  0999 V2000
   -0.3020   59.6130   75.7590 C   0  0  1  0  0  0  0  0  0  0  0  0
   -0.9930   60.9440   76.1780 C   0  0  0  0  0  0  0  0  0  0  0  0
   -0.4040   62.0600   75.2880 C   0  0  0  0  0  0  0  0  0  0  0  0
    0.4640   61.3250   74.2730 C   0  0  2  0  0  0  0  0  0  0  0  0
    1.0230   60.1270   75.0880 C   0  0  1  0  0  0  0  0  0  0  0  0
    2.0530   60.5510   76.1750 C   0  0  0  0  0  0  0  0  0  0  0  0
    1.7110   59.1660   74.0970 C   0  0  0  0  0  0  0  0  0  0  0  0
    2.7850   59.8740   73.2460 C   0  0  0  0  0  0  0  0  0  0  0  0
    2.2280   61.1210   72.5170 C   0  0  1  0  0  0  0  0  0  0  0  0
    1.5630   62.0980   73.5290 C   0  0  1  0  0  0  0  0  0  0  0  0
    1.0680   63.3370   72.8370 C   0  0  0  0  0  0  0  0  0  0  0  0
    1.4770   63.7330   71.6210 C   0  0  0  0  0  0  0  0  0  0  0  0
    2.4670   62.9910   70.8310 C   0  0  0  0  0  0  0  0  0  0  0  0
    2.6770   63.2590   69.5260 C   0  0  0  0  0  0  0  0  0  0  0  0
    3.5990   62.4860   68.6670 C   0  0  0  0  0  0  0  0  0  0  0  0
    3.8860   62.8570   67.5380 O   0  0  0  0  0  0  0  0  0  0  0  0
    4.1240   61.2160   69.2070 C   0  0  1  0  0  0  0  0  0  0  0  0
    3.9090   60.8550   70.6520 C   0  0  1  0  0  0  0  0  0  0  0  0
    3.2390   61.8710   71.5810 C   0  0  2  0  0  0  0  0  0  0  0  0
    4.3810   62.5520   72.3810 C   0  0  0  0  0  0  0  0  0  0  0  0
    3.1590   60.1110   69.5720 C   0  0  0  0  0  0  0  0  0  0  0  0
    0.8200   65.2270   71.0160 Cl  0  0  0  0  0  0  0  0  0  0  0  0
    0.0050   58.5780   76.8710 C   0  0  0  0  0  0  0  0  0  0  0  0
    0.5710   57.5130   76.6040 O   0  0  0  0  0  0  0  0  0  0  0  0
   -0.3840   58.8890   78.2930 C   0  0  0  0  0  0  0  0  0  0  0  0
   -1.0920   58.9690   74.7250 O   0  0  0  0  0  0  0  0  0  0  0  0
   -3.3400   59.6320   74.7330 C   0  0  0  0  0  0  0  0  0  0  0  0
   -2.3480   58.5580   75.0510 C   0  0  0  0  0  0  0  0  0  0  0  0
   -2.6280   57.4760   75.5480 O   0  0  0  0  0  0  0  0  0  0  0  0
   -2.0794   60.8707   76.0220 H   0  0  0  0  0  0  0  0  0  0  0  0
   -0.8178   61.1583   77.2426 H   0  0  0  0  0  0  0  0  0  0  0  0
   -1.2062   62.6169   74.7818 H   0  0  0  0  0  0  0  0  0  0  0  0
    0.1682   62.7983   75.8689 H   0  0  0  0  0  0  0  0  0  0  0  0
   -0.1582   61.0619   73.4049 H   0  0  0  0  0  0  0  0  0  0  0  0
    1.6259   60.3752   77.1733 H   0  0  0  0  0  0  0  0  0  0  0  0
    2.9724   59.9582   76.0600 H   0  0  0  0  0  0  0  0  0  0  0  0
    2.2887   61.6193   76.0600 H   0  0  0  0  0  0  0  0  0  0  0  0
    2.1883   58.3539   74.6651 H   0  0  0  0  0  0  0  0  0  0  0  0
    0.9409   58.7790   73.4135 H   0  0  0  0  0  0  0  0  0  0  0  0
    3.6084   60.1875   73.9046 H   0  0  0  0  0  0  0  0  0  0  0  0
    3.1312   59.1633   72.4811 H   0  0  0  0  0  0  0  0  0  0  0  0
    1.4686   60.7254   71.8264 H   0  0  0  0  0  0  0  0  0  0  0  0
    2.2921   62.4603   74.2686 H   0  0  0  0  0  0  0  0  0  0  0  0
    0.3248   63.9576   73.3590 H   0  0  0  0  0  0  0  0  0  0  0  0
    2.1311   64.1008   69.0751 H   0  0  0  0  0  0  0  0  0  0  0  0
    5.0075   61.3020   68.5573 H   0  0  0  0  0  0  0  0  0  0  0  0
    4.5344   60.5301   71.4965 H   0  0  0  0  0  0  0  0  0  0  0  0
    4.1916   62.4391   73.4587 H   0  0  0  0  0  0  0  0  0  0  0  0
    5.3405   62.0784   72.1257 H   0  0  0  0  0  0  0  0  0  0  0  0
    4.4205   63.6212   72.1257 H   0  0  0  0  0  0  0  0  0  0  0  0
    3.4106   59.0638   69.3482 H   0  0  0  0  0  0  0  0  0  0  0  0
    2.0999   59.9002   69.3623 H   0  0  0  0  0  0  0  0  0  0  0  0
    0.2858   58.3535   78.9819 H   0  0  0  0  0  0  0  0  0  0  0  0
   -0.3001   59.9718   78.4677 H   0  0  0  0  0  0  0  0  0  0  0  0
   -1.4218   58.5688   78.4677 H   0  0  0  0  0  0  0  0  0  0  0  0
   -3.7327   60.0571   75.6685 H   0  0  0  0  0  0  0  0  0  0  0  0
   -2.8486   60.4236   74.1484 H   0  0  0  0  0  0  0  0  0  0  0  0
   -4.1681   59.2048   74.1484 H   0  0  0  0  0  0  0  0  0  0  0  0
  2  1  1  0
  3  2  1  0
  4  3  1  0
  5  4  1  0
  5  1  1  0
  5  6  1  1
  7  5  1  0
  8  7  1  0
  9  8  1  0
 10  9  1  0
 10  4  1  0
 11 10  1  0
 12 11  2  0
 13 12  1  0
 14 13  2  0
 15 14  1  0
 16 15  2  0
 17 15  1  0
 18 17  1  0
 19  9  1  0
 19 18  1  0
 19 13  1  0
 19 20  1  1
 21 18  1  0
 21 17  1  0
 22 12  1  0
 23  1  1  0
 24 23  2  0
 25 23  1  0
  1 26  1  6
 28 27  1  0
 28 26  1  0
 29 28  2  0
  2 30  1  0
  2 31  1  0
  3 32  1  0
  3 33  1  0
  4 34  1  6
  6 35  1  0
  6 36  1  0
  6 37  1  0
  7 38  1  0
  7 39  1  0
  8 40  1  0
  8 41  1  0
  9 42  1  6
 10 43  1  1
 11 44  1  0
 14 45  1  0
 17 46  1  6
 18 47  1  1
 20 48  1  0
 20 49  1  0
 20 50  1  0
 21 51  1  0
 21 52  1  0
 25 53  1  0
 25 54  1  0
 25 55  1  0
 27 56  1  0
 27 57  1  0
 27 58  1  0
M  END
>  <score>  (5) 
-7.234

$$$$
=
     RDKit          3D

 58 62  0  0  0  0  0  0  0  0999 V2000
    3.3220   60.1850   71.9850 C   0  0  1  0  0  0  0  0  0  0  0  0
    3.8390   58.7270   72.1670 C   0  0  0  0  0  0  0  0  0  0  0  0
    2.8170   57.9940   73.0640 C   0  0  0  0  0  0  0  0  0  0  0  0
    1.6660   58.9800   73.2230 C   0  0  2  0  0  0  0  0  0  0  0  0
    2.3810   60.3580   73.2320 C   0  0  1  0  0  0  0  0  0  0  0  0
    3.2230   60.6050   74.5180 C   0  0  0  0  0  0  0  0  0  0  0  0
    1.2960   61.4500   73.1300 C   0  0  0  0  0  0  0  0  0  0  0  0
    0.2240   61.3150   74.2310 C   0  0  0  0  0  0  0  0  0  0  0  0
   -0.4080   59.9030   74.2650 C   0  0  1  0  0  0  0  0  0  0  0  0
    0.6930   58.8100   74.3990 C   0  0  1  0  0  0  0  0  0  0  0  0
    0.0840   57.4390   74.4880 C   0  0  0  0  0  0  0  0  0  0  0  0
   -1.2000   57.2060   74.8030 C   0  0  0  0  0  0  0  0  0  0  0  0
   -2.1560   58.2790   75.1040 C   0  0  0  0  0  0  0  0  0  0  0  0
   -3.4830   58.0470   75.1700 C   0  0  0  0  0  0  0  0  0  0  0  0
   -4.4910   59.1060   75.3850 C   0  0  0  0  0  0  0  0  0  0  0  0
   -5.6650   58.8400   75.6020 O   0  0  0  0  0  0  0  0  0  0  0  0
   -4.0370   60.5070   75.2770 C   0  0  1  0  0  0  0  0  0  0  0  0
   -2.5700   60.8280   75.1840 C   0  0  1  0  0  0  0  0  0  0  0  0
   -1.5500   59.6930   75.3180 C   0  0  2  0  0  0  0  0  0  0  0  0
   -1.0190   59.7520   76.7760 C   0  0  0  0  0  0  0  0  0  0  0  0
   -3.4520   60.9970   73.9710 C   0  0  0  0  0  0  0  0  0  0  0  0
   -1.6970   55.5410   74.9040 Cl  0  0  0  0  0  0  0  0  0  0  0  0
    4.3750   61.3200   71.9230 C   0  0  0  0  0  0  0  0  0  0  0  0
    4.0320   62.5050   72.0020 O   0  0  0  0  0  0  0  0  0  0  0  0
    5.8320   60.9660   71.7770 C   0  0  0  0  0  0  0  0  0  0  0  0
    2.4890   60.2530   70.7980 O   0  0  0  0  0  0  0  0  0  0  0  0
    2.8130   61.5590   68.8800 C   0  0  0  0  0  0  0  0  0  0  0  0
    3.1110   60.2750   69.5880 C   0  0  0  0  0  0  0  0  0  0  0  0
    3.8010   59.3730   69.1340 O   0  0  0  0  0  0  0  0  0  0  0  0
    3.9110   58.2270   71.1899 H   0  0  0  0  0  0  0  0  0  0  0  0
    4.8393   58.7195   72.6245 H   0  0  0  0  0  0  0  0  0  0  0  0
    2.4709   57.0681   72.5814 H   0  0  0  0  0  0  0  0  0  0  0  0
    3.2487   57.6982   74.0315 H   0  0  0  0  0  0  0  0  0  0  0  0
    0.9504   58.8204   72.4030 H   0  0  0  0  0  0  0  0  0  0  0  0
    2.5993   60.4220   75.4054 H   0  0  0  0  0  0  0  0  0  0  0  0
    4.0851   59.9219   74.5286 H   0  0  0  0  0  0  0  0  0  0  0  0
    3.5795   61.6456   74.5286 H   0  0  0  0  0  0  0  0  0  0  0  0
    1.7761   62.4354   73.2227 H   0  0  0  0  0  0  0  0  0  0  0  0
    0.7952   61.3369   72.1571 H   0  0  0  0  0  0  0  0  0  0  0  0
    0.6910   61.5171   75.2062 H   0  0  0  0  0  0  0  0  0  0  0  0
   -0.5765   62.0369   74.0117 H   0  0  0  0  0  0  0  0  0  0  0  0
   -0.9178   59.8020   73.2955 H   0  0  0  0  0  0  0  0  0  0  0  0
    1.2585   58.9277   75.3352 H   0  0  0  0  0  0  0  0  0  0  0  0
    0.7302   56.5729   74.2823 H   0  0  0  0  0  0  0  0  0  0  0  0
   -3.8348   57.0109   75.0574 H   0  0  0  0  0  0  0  0  0  0  0  0
   -4.8557   60.8265   75.9386 H   0  0  0  0  0  0  0  0  0  0  0  0
   -1.8636   61.4939   75.7013 H   0  0  0  0  0  0  0  0  0  0  0  0
   -1.8614   59.6584   77.4771 H   0  0  0  0  0  0  0  0  0  0  0  0
   -0.3105   58.9270   76.9419 H   0  0  0  0  0  0  0  0  0  0  0  0
   -0.5089   60.7124   76.9419 H   0  0  0  0  0  0  0  0  0  0  0  0
   -3.6946   62.0046   73.6025 H   0  0  0  0  0  0  0  0  0  0  0  0
   -3.4342   60.6241   72.9363 H   0  0  0  0  0  0  0  0  0  0  0  0
    6.2843   60.8561   72.7737 H   0  0  0  0  0  0  0  0  0  0  0  0
    5.9257   60.0189   71.2254 H   0  0  0  0  0  0  0  0  0  0  0  0
    6.3498   61.7645   71.2254 H   0  0  0  0  0  0  0  0  0  0  0  0
    2.6290   62.3517   69.6201 H   0  0  0  0  0  0  0  0  0  0  0  0
    3.6703   61.8377   68.2497 H   0  0  0  0  0  0  0  0  0  0  0  0
    1.9206   61.4316   68.2497 H   0  0  0  0  0  0  0  0  0  0  0  0
  2  1  1  0
  3  2  1  0
  4  3  1  0
  5  4  1  0
  5  1  1  0
  5  6  1  1
  7  5  1  0
  8  7  1  0
  9  8  1  0
 10  9  1  0
 10  4  1  0
 11 10  1  0
 12 11  2  0
 13 12  1  0
 14 13  2  0
 15 14  1  0
 16 15  2  0
 17 15  1  0
 18 17  1  0
 19  9  1  0
 19 18  1  0
 19 13  1  0
 19 20  1  1
 21 18  1  0
 21 17  1  0
 22 12  1  0
 23  1  1  0
 24 23  2  0
 25 23  1  0
  1 26  1  6
 28 27  1  0
 28 26  1  0
 29 28  2  0
  2 30  1  0
  2 31  1  0
  3 32  1  0
  3 33  1  0
  4 34  1  6
  6 35  1  0
  6 36  1  0
  6 37  1  0
  7 38  1  0
  7 39  1  0
  8 40  1  0
  8 41  1  0
  9 42  1  6
 10 43  1  1
 11 44  1  0
 14 45  1  0
 17 46  1  1
 18 47  1  1
 20 48  1  0
 20 49  1  0
 20 50  1  0
 21 51  1  0
 21 52  1  0
 25 53  1  0
 25 54  1  0
 25 55  1  0
 27 56  1  0
 27 57  1  0
 27 58  1  0
M  END
>  <score>  (6) 
-7.166

$$$$
=
     RDKit          3D

 58 62  0  0  0  0  0  0  0  0999 V2000
   -1.9830   60.3000   76.6930 C   0  0  1  0  0  0  0  0  0  0  0  0
   -2.4160   61.7710   76.4210 C   0  0  0  0  0  0  0  0  0  0  0  0
   -1.4680   62.3290   75.3380 C   0  0  0  0  0  0  0  0  0  0  0  0
   -0.6420   61.1280   74.8920 C   0  0  2  0  0  0  0  0  0  0  0  0
   -0.4920   60.2990   76.1970 C   0  0  1  0  0  0  0  0  0  0  0  0
    0.4310   60.9770   77.2510 C   0  0  0  0  0  0  0  0  0  0  0  0
    0.1070   58.9300   75.8170 C   0  0  0  0  0  0  0  0  0  0  0  0
    1.4260   59.0660   75.0290 C   0  0  0  0  0  0  0  0  0  0  0  0
    1.2750   59.9730   73.7840 C   0  0  1  0  0  0  0  0  0  0  0  0
    0.6990   61.3630   74.1820 C   0  0  1  0  0  0  0  0  0  0  0  0
    0.6010   62.2690   72.9880 C   0  0  0  0  0  0  0  0  0  0  0  0
    1.2650   62.0720   71.8370 C   0  0  0  0  0  0  0  0  0  0  0  0
    2.1730   60.9370   71.6250 C   0  0  0  0  0  0  0  0  0  0  0  0
    2.6310   60.6160   70.3970 C   0  0  0  0  0  0  0  0  0  0  0  0
    3.4770   59.4370   70.1190 C   0  0  0  0  0  0  0  0  0  0  0  0
    4.0050   59.2700   69.0290 O   0  0  0  0  0  0  0  0  0  0  0  0
    3.6200   58.4360   71.1950 C   0  0  1  0  0  0  0  0  0  0  0  0
    3.1150   58.7300   72.5820 C   0  0  1  0  0  0  0  0  0  0  0  0
    2.5550   60.1220   72.8910 C   0  0  2  0  0  0  0  0  0  0  0  0
    3.6880   60.8980   73.6160 C   0  0  0  0  0  0  0  0  0  0  0  0
    2.3890   57.7280   71.7170 C   0  0  0  0  0  0  0  0  0  0  0  0
    1.0540   63.2660   70.5900 Cl  0  0  0  0  0  0  0  0  0  0  0  0
   -2.0840   59.7770   78.1480 C   0  0  0  0  0  0  0  0  0  0  0  0
   -1.8550   58.5910   78.4100 O   0  0  0  0  0  0  0  0  0  0  0  0
   -2.4520   60.7340   79.2520 C   0  0  0  0  0  0  0  0  0  0  0  0
   -2.7320   59.4120   75.8230 O   0  0  0  0  0  0  0  0  0  0  0  0
   -4.5030   60.1560   74.4810 C   0  0  0  0  0  0  0  0  0  0  0  0
   -4.0850   59.5540   75.7850 C   0  0  0  0  0  0  0  0  0  0  0  0
   -4.8500   59.2520   76.6890 O   0  0  0  0  0  0  0  0  0  0  0  0
   -3.4558   61.7985   76.0631 H   0  0  0  0  0  0  0  0  0  0  0  0
   -2.3587   62.3728   77.3400 H   0  0  0  0  0  0  0  0  0  0  0  0
   -2.0418   62.7402   74.4944 H   0  0  0  0  0  0  0  0  0  0  0  0
   -0.8400   63.1490   75.7164 H   0  0  0  0  0  0  0  0  0  0  0  0
   -1.1690   60.6267   74.0668 H   0  0  0  0  0  0  0  0  0  0  0  0
    0.0824   60.7210   78.2624 H   0  0  0  0  0  0  0  0  0  0  0  0
    1.4632   60.6208   77.1177 H   0  0  0  0  0  0  0  0  0  0  0  0
    0.3997   62.0685   77.1177 H   0  0  0  0  0  0  0  0  0  0  0  0
    0.3024   58.3615   76.7382 H   0  0  0  0  0  0  0  0  0  0  0  0
   -0.6185   58.4129   75.1718 H   0  0  0  0  0  0  0  0  0  0  0  0
    2.1907   59.4983   75.6911 H   0  0  0  0  0  0  0  0  0  0  0  0
    1.7158   58.0632   74.6819 H   0  0  0  0  0  0  0  0  0  0  0  0
    0.5590   59.4436   73.1382 H   0  0  0  0  0  0  0  0  0  0  0  0
    1.3712   61.8868   74.8775 H   0  0  0  0  0  0  0  0  0  0  0  0
   -0.0554   63.1487   73.0606 H   0  0  0  0  0  0  0  0  0  0  0  0
    2.3590   61.2693   69.5549 H   0  0  0  0  0  0  0  0  0  0  0  0
    4.5877   58.1212   70.7773 H   0  0  0  0  0  0  0  0  0  0  0  0
    3.5190   58.6907   73.6044 H   0  0  0  0  0  0  0  0  0  0  0  0
    3.5560   60.8076   74.7043 H   0  0  0  0  0  0  0  0  0  0  0  0
    4.6628   60.4770   73.3286 H   0  0  0  0  0  0  0  0  0  0  0  0
    3.6477   61.9590   73.3286 H   0  0  0  0  0  0  0  0  0  0  0  0
    2.4320   56.6563   71.9611 H   0  0  0  0  0  0  0  0  0  0  0  0
    1.3532   57.6058   71.3676 H   0  0  0  0  0  0  0  0  0  0  0  0
   -2.2688   60.2576   80.2264 H   0  0  0  0  0  0  0  0  0  0  0  0
   -1.8396   61.6439   79.1678 H   0  0  0  0  0  0  0  0  0  0  0  0
   -3.5162   60.9992   79.1678 H   0  0  0  0  0  0  0  0  0  0  0  0
   -5.1211   61.0462   74.6695 H   0  0  0  0  0  0  0  0  0  0  0  0
   -3.6099   60.4445   73.9073 H   0  0  0  0  0  0  0  0  0  0  0  0
   -5.0854   59.4200   73.9073 H   0  0  0  0  0  0  0  0  0  0  0  0
  2  1  1  0
  3  2  1  0
  4  3  1  0
  5  4  1  0
  5  1  1  0
  5  6  1  1
  7  5  1  0
  8  7  1  0
  9  8  1  0
 10  9  1  0
 10  4  1  0
 11 10  1  0
 12 11  2  0
 13 12  1  0
 14 13  2  0
 15 14  1  0
 16 15  2  0
 17 15  1  0
 18 17  1  0
 19  9  1  0
 19 18  1  0
 19 13  1  0
 19 20  1  1
 21 18  1  0
 21 17  1  0
 22 12  1  0
 23  1  1  0
 24 23  2  0
 25 23  1  0
  1 26  1  6
 28 27  1  0
 28 26  1  0
 29 28  2  0
  2 30  1  0
  2 31  1  0
  3 32  1  0
  3 33  1  0
  4 34  1  6
  6 35  1  0
  6 36  1  0
  6 37  1  0
  7 38  1  0
  7 39  1  0
  8 40  1  0
  8 41  1  0
  9 42  1  6
 10 43  1  1
 11 44  1  0
 14 45  1  0
 17 46  1  1
 18 47  1  1
 20 48  1  0
 20 49  1  0
 20 50  1  0
 21 51  1  0
 21 52  1  0
 25 53  1  0
 25 54  1  0
 25 55  1  0
 27 56  1  0
 27 57  1  0
 27 58  1  0
M  END
>  <score>  (7) 
-6.992

$$$$
=
     RDKit          3D

 58 62  0  0  0  0  0  0  0  0999 V2000
    3.2930   60.1720   71.7570 C   0  0  1  0  0  0  0  0  0  0  0  0
    3.6820   58.8920   70.9610 C   0  0  0  0  0  0  0  0  0  0  0  0
    2.9980   57.6980   71.6610 C   0  0  0  0  0  0  0  0  0  0  0  0
    2.1010   58.3340   72.7170 C   0  0  2  0  0  0  0  0  0  0  0  0
    2.9090   59.5830   73.1620 C   0  0  1  0  0  0  0  0  0  0  0  0
    4.1910   59.2280   73.9700 C   0  0  0  0  0  0  0  0  0  0  0  0
    1.9860   60.4480   74.0440 C   0  0  0  0  0  0  0  0  0  0  0  0
    1.3960   59.6550   75.2280 C   0  0  0  0  0  0  0  0  0  0  0  0
    0.6760   58.3640   74.7680 C   0  0  1  0  0  0  0  0  0  0  0  0
    1.6240   57.4830   73.9040 C   0  0  1  0  0  0  0  0  0  0  0  0
    0.9510   56.2020   73.4990 C   0  0  0  0  0  0  0  0  0  0  0  0
   -0.1400   55.7020   74.1030 C   0  0  0  0  0  0  0  0  0  0  0  0
   -0.7950   56.3620   75.2400 C   0  0  0  0  0  0  0  0  0  0  0  0
   -2.0180   55.9860   75.6680 C   0  0  0  0  0  0  0  0  0  0  0  0
   -2.7540   56.6700   76.7510 C   0  0  0  0  0  0  0  0  0  0  0  0
   -3.7840   56.2050   77.2200 O   0  0  0  0  0  0  0  0  0  0  0  0
   -2.2280   57.9700   77.2130 C   0  0  1  0  0  0  0  0  0  0  0  0
   -0.8760   58.4500   76.7580 C   0  0  1  0  0  0  0  0  0  0  0  0
   -0.0060   57.5240   75.9030 C   0  0  2  0  0  0  0  0  0  0  0  0
    1.0340   56.8880   76.8650 C   0  0  0  0  0  0  0  0  0  0  0  0
   -2.1240   59.1180   76.2340 C   0  0  0  0  0  0  0  0  0  0  0  0
   -0.7360   54.1770   73.5150 Cl  0  0  0  0  0  0  0  0  0  0  0  0
    4.3600   61.2880   71.8960 C   0  0  0  0  0  0  0  0  0  0  0  0
    4.1340   62.2980   72.5710 O   0  0  0  0  0  0  0  0  0  0  0  0
    5.6910   61.1230   71.2090 C   0  0  0  0  0  0  0  0  0  0  0  0
    2.0890   60.7460   71.1820 O   0  0  0  0  0  0  0  0  0  0  0  0
    1.4990   62.9310   70.5750 C   0  0  0  0  0  0  0  0  0  0  0  0
    2.2370   61.6830   70.2060 C   0  0  0  0  0  0  0  0  0  0  0  0
    2.8680   61.5270   69.1710 O   0  0  0  0  0  0  0  0  0  0  0  0
    3.3304   58.9723   69.9218 H   0  0  0  0  0  0  0  0  0  0  0  0
    4.7739   58.7606   70.9394 H   0  0  0  0  0  0  0  0  0  0  0  0
    2.4007   57.1170   70.9429 H   0  0  0  0  0  0  0  0  0  0  0  0
    3.7254   56.9980   72.0980 H   0  0  0  0  0  0  0  0  0  0  0  0
    1.1188   58.5390   72.2661 H   0  0  0  0  0  0  0  0  0  0  0  0
    3.9741   59.2880   75.0467 H   0  0  0  0  0  0  0  0  0  0  0  0
    4.5128   58.2070   73.7172 H   0  0  0  0  0  0  0  0  0  0  0  0
    4.9921   59.9381   73.7172 H   0  0  0  0  0  0  0  0  0  0  0  0
    2.5664   61.2946   74.4395 H   0  0  0  0  0  0  0  0  0  0  0  0
    1.1488   60.7919   73.4189 H   0  0  0  0  0  0  0  0  0  0  0  0
    2.2125   59.3804   75.9121 H   0  0  0  0  0  0  0  0  0  0  0  0
    0.6536   60.2957   75.7264 H   0  0  0  0  0  0  0  0  0  0  0  0
   -0.1662   58.7169   74.1546 H   0  0  0  0  0  0  0  0  0  0  0  0
    2.5065   57.1668   74.4794 H   0  0  0  0  0  0  0  0  0  0  0  0
    1.3779   55.6389   72.6560 H   0  0  0  0  0  0  0  0  0  0  0  0
   -2.4941   55.1211   75.1830 H   0  0  0  0  0  0  0  0  0  0  0  0
   -2.7024   57.8166   78.1935 H   0  0  0  0  0  0  0  0  0  0  0  0
    0.0392   58.8305   77.2351 H   0  0  0  0  0  0  0  0  0  0  0  0
    0.7315   57.0730   77.9063 H   0  0  0  0  0  0  0  0  0  0  0  0
    1.0850   55.8040   76.6851 H   0  0  0  0  0  0  0  0  0  0  0  0
    2.0222   57.3365   76.6851 H   0  0  0  0  0  0  0  0  0  0  0  0
   -2.3777   60.1394   76.5540 H   0  0  0  0  0  0  0  0  0  0  0  0
   -2.5337   59.3302   75.2354 H   0  0  0  0  0  0  0  0  0  0  0  0
    6.4841   61.0247   71.9649 H   0  0  0  0  0  0  0  0  0  0  0  0
    5.6698   60.2206   70.5803 H   0  0  0  0  0  0  0  0  0  0  0  0
    5.8908   62.0033   70.5803 H   0  0  0  0  0  0  0  0  0  0  0  0
    1.4483   63.0167   71.6705 H   0  0  0  0  0  0  0  0  0  0  0  0
    2.0261   63.8041   70.1629 H   0  0  0  0  0  0  0  0  0  0  0  0
    0.4799   62.8898   70.1629 H   0  0  0  0  0  0  0  0  0  0  0  0
  2  1  1  0
  3  2  1  0
  4  3  1  0
  5  4  1  0
  5  1  1  0
  5  6  1  1
  7  5  1  0
  8  7  1  0
  9  8  1  0
 10  9  1  0
 10  4  1  0
 11 10  1  0
 12 11  2  0
 13 12  1  0
 14 13  2  0
 15 14  1  0
 16 15  2  0
 17 15  1  0
 18 17  1  0
 19  9  1  0
 19 18  1  0
 19 13  1  0
 19 20  1  1
 21 18  1  0
 21 17  1  0
 22 12  1  0
 23  1  1  0
 24 23  2  0
 25 23  1  0
  1 26  1  6
 28 27  1  0
 28 26  1  0
 29 28  2  0
  2 30  1  0
  2 31  1  0
  3 32  1  0
  3 33  1  0
  4 34  1  6
  6 35  1  0
  6 36  1  0
  6 37  1  0
  7 38  1  0
  7 39  1  0
  8 40  1  0
  8 41  1  0
  9 42  1  6
 10 43  1  1
 11 44  1  0
 14 45  1  0
 17 46  1  1
 18 47  1  1
 20 48  1  0
 20 49  1  0
 20 50  1  0
 21 51  1  0
 21 52  1  0
 25 53  1  0
 25 54  1  0
 25 55  1  0
 27 56  1  0
 27 57  1  0
 27 58  1  0
M  END
>  <score>  (8) 
-6.935

$$$$
=
     RDKit          3D

 58 62  0  0  0  0  0  0  0  0999 V2000
   -4.1540   59.4560   75.8900 C   0  0  1  0  0  0  0  0  0  0  0  0
   -4.5810   60.9220   75.5850 C   0  0  0  0  0  0  0  0  0  0  0  0
   -3.3850   61.6060   74.8870 C   0  0  0  0  0  0  0  0  0  0  0  0
   -2.3840   60.4820   74.6490 C   0  0  2  0  0  0  0  0  0  0  0  0
   -2.5870   59.5610   75.8830 C   0  0  1  0  0  0  0  0  0  0  0  0
   -2.0790   60.1950   77.2120 C   0  0  0  0  0  0  0  0  0  0  0  0
   -1.8090   58.2540   75.6260 C   0  0  0  0  0  0  0  0  0  0  0  0
   -0.3230   58.5120   75.2990 C   0  0  0  0  0  0  0  0  0  0  0  0
   -0.1450   59.5060   74.1260 C   0  0  1  0  0  0  0  0  0  0  0  0
   -0.9080   60.8320   74.4080 C   0  0  1  0  0  0  0  0  0  0  0  0
   -0.6950   61.8240   73.2990 C   0  0  0  0  0  0  0  0  0  0  0  0
    0.3020   61.7480   72.4030 C   0  0  0  0  0  0  0  0  0  0  0  0
    1.3060   60.6750   72.4160 C   0  0  0  0  0  0  0  0  0  0  0  0
    2.1390   60.4730   71.3750 C   0  0  0  0  0  0  0  0  0  0  0  0
    3.1070   59.3580   71.3030 C   0  0  0  0  0  0  0  0  0  0  0  0
    3.9550   59.3010   70.4230 O   0  0  0  0  0  0  0  0  0  0  0  0
    2.9790   58.2840   72.3070 C   0  0  1  0  0  0  0  0  0  0  0  0
    2.0540   58.4450   73.4840 C   0  0  1  0  0  0  0  0  0  0  0  0
    1.3340   59.7820   73.6860 C   0  0  2  0  0  0  0  0  0  0  0  0
    2.1340   60.5490   74.7730 C   0  0  0  0  0  0  0  0  0  0  0  0
    1.6990   57.4820   72.3770 C   0  0  0  0  0  0  0  0  0  0  0  0
    0.4050   63.0260   71.2270 Cl  0  0  0  0  0  0  0  0  0  0  0  0
   -4.6620   58.8160   77.2070 C   0  0  0  0  0  0  0  0  0  0  0  0
   -5.4020   59.4450   77.9710 O   0  0  0  0  0  0  0  0  0  0  0  0
   -4.2540   57.4060   77.5450 C   0  0  0  0  0  0  0  0  0  0  0  0
   -4.5380   58.6050   74.7770 O   0  0  0  0  0  0  0  0  0  0  0  0
   -6.3860   59.5580   73.6960 C   0  0  0  0  0  0  0  0  0  0  0  0
   -5.8670   58.4360   74.5390 C   0  0  0  0  0  0  0  0  0  0  0  0
   -6.5460   57.5120   74.9640 O   0  0  0  0  0  0  0  0  0  0  0  0
   -5.4593   60.9294   74.9228 H   0  0  0  0  0  0  0  0  0  0  0  0
   -4.8507   61.4524   76.5102 H   0  0  0  0  0  0  0  0  0  0  0  0
   -3.6976   62.0559   73.9331 H   0  0  0  0  0  0  0  0  0  0  0  0
   -2.9604   62.4215   75.4910 H   0  0  0  0  0  0  0  0  0  0  0  0
   -2.5973   60.0236   73.6721 H   0  0  0  0  0  0  0  0  0  0  0  0
   -2.5127   59.6537   78.0658 H   0  0  0  0  0  0  0  0  0  0  0  0
   -0.9819   60.1279   77.2544 H   0  0  0  0  0  0  0  0  0  0  0  0
   -2.3837   61.2511   77.2544 H   0  0  0  0  0  0  0  0  0  0  0  0
   -1.8691   57.6238   76.5256 H   0  0  0  0  0  0  0  0  0  0  0  0
   -2.2637   57.7570   74.7564 H   0  0  0  0  0  0  0  0  0  0  0  0
    0.1692   58.9259   76.1915 H   0  0  0  0  0  0  0  0  0  0  0  0
    0.1277   57.5540   75.0004 H   0  0  0  0  0  0  0  0  0  0  0  0
   -0.5904   58.9971   73.2585 H   0  0  0  0  0  0  0  0  0  0  0  0
   -0.5193   61.3289   75.3091 H   0  0  0  0  0  0  0  0  0  0  0  0
   -1.3998   62.6645   73.2164 H   0  0  0  0  0  0  0  0  0  0  0  0
    2.0958   61.1778   70.5316 H   0  0  0  0  0  0  0  0  0  0  0  0
    4.0471   58.0475   72.1922 H   0  0  0  0  0  0  0  0  0  0  0  0
    2.1257   58.3439   74.5770 H   0  0  0  0  0  0  0  0  0  0  0  0
    1.7988   60.2276   75.7702 H   0  0  0  0  0  0  0  0  0  0  0  0
    3.2066   60.3331   74.6595 H   0  0  0  0  0  0  0  0  0  0  0  0
    1.9635   61.6298   74.6595 H   0  0  0  0  0  0  0  0  0  0  0  0
    1.7378   56.3975   72.5571 H   0  0  0  0  0  0  0  0  0  0  0  0
    0.8312   57.3403   71.7161 H   0  0  0  0  0  0  0  0  0  0  0  0
   -4.2194   57.2863   78.6379 H   0  0  0  0  0  0  0  0  0  0  0  0
   -4.9851   56.7013   77.1220 H   0  0  0  0  0  0  0  0  0  0  0  0
   -3.2596   57.2006   77.1220 H   0  0  0  0  0  0  0  0  0  0  0  0
   -6.7585   60.3632   74.3463 H   0  0  0  0  0  0  0  0  0  0  0  0
   -5.5754   59.9449   73.0610 H   0  0  0  0  0  0  0  0  0  0  0  0
   -7.2057   59.1907   73.0610 H   0  0  0  0  0  0  0  0  0  0  0  0
  2  1  1  0
  3  2  1  0
  4  3  1  0
  5  4  1  0
  5  1  1  0
  5  6  1  1
  7  5  1  0
  8  7  1  0
  9  8  1  0
 10  9  1  0
 10  4  1  0
 11 10  1  0
 12 11  2  0
 13 12  1  0
 14 13  2  0
 15 14  1  0
 16 15  2  0
 17 15  1  0
 18 17  1  0
 19  9  1  0
 19 18  1  0
 19 13  1  0
 19 20  1  1
 21 18  1  0
 21 17  1  0
 22 12  1  0
 23  1  1  0
 24 23  2  0
 25 23  1  0
  1 26  1  6
 28 27  1  0
 28 26  1  0
 29 28  2  0
  2 30  1  0
  2 31  1  0
  3 32  1  0
  3 33  1  0
  4 34  1  6
  6 35  1  0
  6 36  1  0
  6 37  1  0
  7 38  1  0
  7 39  1  0
  8 40  1  0
  8 41  1  0
  9 42  1  6
 10 43  1  1
 11 44  1  0
 14 45  1  0
 17 46  1  1
 18 47  1  1
 20 48  1  0
 20 49  1  0
 20 50  1  0
 21 51  1  0
 21 52  1  0
 25 53  1  0
 25 54  1  0
 25 55  1  0
 27 56  1  0
 27 57  1  0
 27 58  1  0
M  END
>  <score>  (9) 
-6.524

$$$$
