=
     RDKit          3D

 80 85  0  0  0  0  0  0  0  0999 V2000
    0.4300   64.9180   70.7090 C   0  0  1  0  0  0  0  0  0  0  0  0
    1.5710   63.9460   70.4170 C   0  0  0  0  0  0  0  0  0  0  0  0
    1.3710   62.6340   71.1690 C   0  0  0  0  0  0  0  0  0  0  0  0
    1.3280   62.8250   72.7190 C   0  0  1  0  0  0  0  0  0  0  0  0
    0.5190   64.0730   73.0850 C   0  0  0  0  0  0  0  0  0  0  0  0
    0.1140   64.9810   72.1760 C   0  0  0  0  0  0  0  0  0  0  0  0
    0.2000   64.2520   74.5480 C   0  0  0  0  0  0  0  0  0  0  0  0
   -0.4950   63.0200   75.1110 C   0  0  0  0  0  0  0  0  0  0  0  0
    0.3180   61.7270   74.8730 C   0  0  2  0  0  0  0  0  0  0  0  0
    0.6470   61.5570   73.3630 C   0  0  2  0  0  0  0  0  0  0  0  0
    1.4080   60.2450   73.0690 C   0  0  0  0  0  0  0  0  0  0  0  0
    1.6030   59.3450   74.2830 C   0  0  0  0  0  0  0  0  0  0  0  0
    0.3270   59.1080   75.1170 C   0  0  1  0  0  0  0  0  0  0  0  0
   -0.3860   60.4730   75.4770 C   0  0  2  0  0  0  0  0  0  0  0  0
   -1.8580   60.3030   75.0360 C   0  0  0  0  0  0  0  0  0  0  0  0
   -2.0750   58.7990   74.9750 C   0  0  0  0  0  0  0  0  0  0  0  0
   -0.7740   58.3130   74.3250 C   0  0  2  0  0  0  0  0  0  0  0  0
    0.7660   58.3300   76.3850 C   0  0  0  0  0  0  0  0  0  0  0  0
    2.7750   63.0390   73.2330 C   0  0  0  0  0  0  0  0  0  0  0  0
   -0.6190   56.8070   74.2140 C   0  0  0  0  0  0  0  0  0  0  0  0
   -1.4900   55.9760   75.0160 C   0  0  0  0  0  0  0  0  0  0  0  0
   -1.3930   54.6430   74.9790 C   0  0  0  0  0  0  0  0  0  0  0  0
   -0.3930   53.9750   74.1260 C   0  0  0  0  0  0  0  0  0  0  0  0
   -0.3220   52.7520   74.0960 O   0  0  0  0  0  0  0  0  0  0  0  0
    0.4370   54.7820   73.3980 O   0  0  0  0  0  0  0  0  0  0  0  0
    0.3000   56.1780   73.4690 C   0  0  0  0  0  0  0  0  0  0  0  0
   -0.3920   60.6340   76.9050 O   0  0  0  0  0  0  0  0  0  0  0  0
    0.8520   66.2150   70.2880 O   0  0  0  0  0  0  0  0  0  0  0  0
   -0.6550   66.9020   68.5360 C   0  0  1  0  0  0  0  0  0  0  0  0
    0.7720   66.3900   68.8700 C   0  0  1  0  0  0  0  0  0  0  0  0
    1.8140   67.2720   68.4410 O   0  0  0  0  0  0  0  0  0  0  0  0
    1.4310   68.6430   68.4990 C   0  0  2  0  0  0  0  0  0  0  0  0
    0.3850   68.9280   67.4040 C   0  0  1  0  0  0  0  0  0  0  0  0
   -0.6580   67.7980   67.2950 C   0  0  1  0  0  0  0  0  0  0  0  0
    2.6800   69.4950   68.3060 C   0  0  0  0  0  0  0  0  0  0  0  0
   -1.5580   65.8030   68.3210 O   0  0  0  0  0  0  0  0  0  0  0  0
   -0.4050   66.9620   66.1490 O   0  0  0  0  0  0  0  0  0  0  0  0
   -0.2650   70.1800   67.6490 O   0  0  0  0  0  0  0  0  0  0  0  0
   -0.4713   64.5780   70.1779 H   0  0  0  0  0  0  0  0  0  0  0  0
    1.6027   63.7412   69.3367 H   0  0  0  0  0  0  0  0  0  0  0  0
    2.5158   64.4017   70.7483 H   0  0  0  0  0  0  0  0  0  0  0  0
    0.4215   62.1838   70.8439 H   0  0  0  0  0  0  0  0  0  0  0  0
    2.2297   61.9862   70.9389 H   0  0  0  0  0  0  0  0  0  0  0  0
   -0.4904   65.8278   72.5331 H   0  0  0  0  0  0  0  0  0  0  0  0
    1.1352   64.4217   75.1017 H   0  0  0  0  0  0  0  0  0  0  0  0
   -0.4745   65.1142   74.6561 H   0  0  0  0  0  0  0  0  0  0  0  0
   -0.6339   63.1561   76.1937 H   0  0  0  0  0  0  0  0  0  0  0  0
   -1.4590   62.9113   74.5925 H   0  0  0  0  0  0  0  0  0  0  0  0
    1.2734   61.8229   75.4096 H   0  0  0  0  0  0  0  0  0  0  0  0
   -0.3248   61.4694   72.8552 H   0  0  0  0  0  0  0  0  0  0  0  0
    0.8436   59.6824   72.3107 H   0  0  0  0  0  0  0  0  0  0  0  0
    2.4130   60.5346   72.7281 H   0  0  0  0  0  0  0  0  0  0  0  0
    1.9696   58.3692   73.9316 H   0  0  0  0  0  0  0  0  0  0  0  0
    2.3159   59.8610   74.9429 H   0  0  0  0  0  0  0  0  0  0  0  0
   -2.5374   60.7630   75.7687 H   0  0  0  0  0  0  0  0  0  0  0  0
   -2.0610   60.7909   74.0713 H   0  0  0  0  0  0  0  0  0  0  0  0
   -2.2022   58.3728   75.9811 H   0  0  0  0  0  0  0  0  0  0  0  0
   -2.9813   58.5045   74.4255 H   0  0  0  0  0  0  0  0  0  0  0  0
   -0.7160   58.5266   73.2475 H   0  0  0  0  0  0  0  0  0  0  0  0
    0.4531   58.8845   77.2820 H   0  0  0  0  0  0  0  0  0  0  0  0
    0.2959   57.3355   76.3861 H   0  0  0  0  0  0  0  0  0  0  0  0
    1.8603   58.2183   76.3861 H   0  0  0  0  0  0  0  0  0  0  0  0
    2.7771   63.0393   74.3330 H   0  0  0  0  0  0  0  0  0  0  0  0
    3.4187   62.2263   72.8653 H   0  0  0  0  0  0  0  0  0  0  0  0
    3.1559   64.0032   72.8653 H   0  0  0  0  0  0  0  0  0  0  0  0
   -2.2426   56.4473   75.6653 H   0  0  0  0  0  0  0  0  0  0  0  0
   -2.0708   54.0343   75.5955 H   0  0  0  0  0  0  0  0  0  0  0  0
    0.9912   56.7942   72.8752 H   0  0  0  0  0  0  0  0  0  0  0  0
   -0.3588   59.7441   77.3376 H   0  0  0  0  0  0  0  0  0  0  0  0
   -0.9912   67.4923   69.4011 H   0  0  0  0  0  0  0  0  0  0  0  0
    0.9267   65.4470   68.3252 H   0  0  0  0  0  0  0  0  0  0  0  0
    0.9774   68.8849   69.4715 H   0  0  0  0  0  0  0  0  0  0  0  0
    0.9196   68.9795   66.4441 H   0  0  0  0  0  0  0  0  0  0  0  0
   -1.6354   68.2930   67.1964 H   0  0  0  0  0  0  0  0  0  0  0  0
    3.0889   69.7740   69.2883 H   0  0  0  0  0  0  0  0  0  0  0  0
    3.4323   68.9210   67.7452 H   0  0  0  0  0  0  0  0  0  0  0  0
    2.4201   70.4049   67.7452 H   0  0  0  0  0  0  0  0  0  0  0  0
   -1.8537   65.4431   69.1946 H   0  0  0  0  0  0  0  0  0  0  0  0
   -0.1320   66.0600   66.4523 H   0  0  0  0  0  0  0  0  0  0  0  0
   -0.3412   70.3268   68.6251 H   0  0  0  0  0  0  0  0  0  0  0  0
  2  1  1  0
  3  2  1  0
  4  3  1  0
  5  4  1  0
  6  1  1  0
  6  5  2  0
  7  5  1  0
  8  7  1  0
  9  8  1  0
 10  9  1  0
 10  4  1  0
 11 10  1  0
 12 11  1  0
 13 12  1  0
 14 13  1  0
 14  9  1  0
 15 14  1  0
 16 15  1  0
 17 16  1  0
 17 13  1  0
 13 18  1  1
  4 19  1  1
 20 17  1  0
 21 20  1  0
 22 21  2  0
 23 22  1  0
 24 23  2  0
 25 23  1  0
 26 25  1  0
 26 20  2  0
 14 27  1  1
 28  1  1  0
 30 29  1  0
 30 28  1  0
 31 30  1  0
 32 31  1  0
 33 32  1  0
 34 33  1  0
 34 29  1  0
 35 32  1  0
 36 29  1  0
 37 34  1  0
 38 33  1  0
  1 39  1  6
  2 40  1  0
  2 41  1  0
  3 42  1  0
  3 43  1  0
  6 44  1  0
  7 45  1  0
  7 46  1  0
  8 47  1  0
  8 48  1  0
  9 49  1  1
 10 50  1  6
 11 51  1  0
 11 52  1  0
 12 53  1  0
 12 54  1  0
 15 55  1  0
 15 56  1  0
 16 57  1  0
 16 58  1  0
 17 59  1  6
 18 60  1  0
 18 61  1  0
 18 62  1  0
 19 63  1  0
 19 64  1  0
 19 65  1  0
 21 66  1  0
 22 67  1  0
 26 68  1  0
 27 69  1  0
 29 70  1  1
 30 71  1  6
 32 72  1  1
 33 73  1  6
 34 74  1  6
 35 75  1  0
 35 76  1  0
 35 77  1  0
 36 78  1  0
 37 79  1  0
 38 80  1  0
M  END
>  <score>  (1) 
-8.399

$$$$
=
     RDKit          3D

 80 85  0  0  0  0  0  0  0  0999 V2000
   -4.2250   57.7160   75.9360 C   0  0  1  0  0  0  0  0  0  0  0  0
   -4.0050   59.2260   75.8730 C   0  0  0  0  0  0  0  0  0  0  0  0
   -2.7190   59.5540   75.1200 C   0  0  0  0  0  0  0  0  0  0  0  0
   -1.4500   58.9420   75.7940 C   0  0  1  0  0  0  0  0  0  0  0  0
   -1.7330   57.5180   76.2820 C   0  0  0  0  0  0  0  0  0  0  0  0
   -2.9700   56.9860   76.3210 C   0  0  0  0  0  0  0  0  0  0  0  0
   -0.5380   56.7230   76.7430 C   0  0  0  0  0  0  0  0  0  0  0  0
    0.5380   56.6800   75.6670 C   0  0  0  0  0  0  0  0  0  0  0  0
    0.9560   58.0930   75.1970 C   0  0  2  0  0  0  0  0  0  0  0  0
   -0.2850   58.9040   74.7310 C   0  0  2  0  0  0  0  0  0  0  0  0
    0.0920   60.3030   74.1960 C   0  0  0  0  0  0  0  0  0  0  0  0
    1.5910   60.5740   74.1430 C   0  0  0  0  0  0  0  0  0  0  0  0
    2.4220   59.4530   73.4890 C   0  0  1  0  0  0  0  0  0  0  0  0
    2.0790   58.0420   74.1160 C   0  0  2  0  0  0  0  0  0  0  0  0
    1.7560   57.1210   72.9160 C   0  0  0  0  0  0  0  0  0  0  0  0
    2.4190   57.7900   71.7220 C   0  0  0  0  0  0  0  0  0  0  0  0
    2.0950   59.2700   71.9620 C   0  0  2  0  0  0  0  0  0  0  0  0
    3.9130   59.8310   73.6930 C   0  0  0  0  0  0  0  0  0  0  0  0
   -1.0850   59.7970   77.0340 C   0  0  0  0  0  0  0  0  0  0  0  0
    2.7190   60.2450   70.9810 C   0  0  0  0  0  0  0  0  0  0  0  0
    2.2300   61.6060   70.9740 C   0  0  0  0  0  0  0  0  0  0  0  0
    2.7250   62.5100   70.1220 C   0  0  0  0  0  0  0  0  0  0  0  0
    3.7780   62.1490   69.1560 C   0  0  0  0  0  0  0  0  0  0  0  0
    4.2280   62.9920   68.3870 O   0  0  0  0  0  0  0  0  0  0  0  0
    4.2060   60.8500   69.1620 O   0  0  0  0  0  0  0  0  0  0  0  0
    3.6580   59.9350   70.0750 C   0  0  0  0  0  0  0  0  0  0  0  0
    3.2550   57.5120   74.7470 O   0  0  0  0  0  0  0  0  0  0  0  0
   -5.2100   57.4670   76.9390 O   0  0  0  0  0  0  0  0  0  0  0  0
   -7.4300   56.7410   77.5370 C   0  0  1  0  0  0  0  0  0  0  0  0
   -6.5140   57.2470   76.3910 C   0  0  1  0  0  0  0  0  0  0  0  0
   -6.9790   58.4520   75.7740 O   0  0  0  0  0  0  0  0  0  0  0  0
   -7.6530   59.3120   76.6890 C   0  0  2  0  0  0  0  0  0  0  0  0
   -9.0050   58.6850   77.0800 C   0  0  1  0  0  0  0  0  0  0  0  0
   -8.8850   57.1680   77.3300 C   0  0  1  0  0  0  0  0  0  0  0  0
   -7.8450   60.6660   76.0140 C   0  0  0  0  0  0  0  0  0  0  0  0
   -7.3750   55.3070   77.6440 O   0  0  0  0  0  0  0  0  0  0  0  0
   -9.4110   56.4130   76.2220 O   0  0  0  0  0  0  0  0  0  0  0  0
   -9.5410   59.3380   78.2350 O   0  0  0  0  0  0  0  0  0  0  0  0
   -4.5384   57.3608   74.9432 H   0  0  0  0  0  0  0  0  0  0  0  0
   -4.8556   59.6933   75.3552 H   0  0  0  0  0  0  0  0  0  0  0  0
   -3.9222   59.6139   76.8990 H   0  0  0  0  0  0  0  0  0  0  0  0
   -2.7997   59.1572   74.0972 H   0  0  0  0  0  0  0  0  0  0  0  0
   -2.6019   60.6477   75.1254 H   0  0  0  0  0  0  0  0  0  0  0  0
   -3.0679   55.9437   76.6585 H   0  0  0  0  0  0  0  0  0  0  0  0
   -0.1228   57.1902   77.6482 H   0  0  0  0  0  0  0  0  0  0  0  0
   -0.8629   55.6936   76.9544 H   0  0  0  0  0  0  0  0  0  0  0  0
    1.4223   56.1659   76.0716 H   0  0  0  0  0  0  0  0  0  0  0  0
    0.1243   56.1457   74.7990 H   0  0  0  0  0  0  0  0  0  0  0  0
    1.3913   58.6227   76.0572 H   0  0  0  0  0  0  0  0  0  0  0  0
   -0.6992   58.3484   73.8767 H   0  0  0  0  0  0  0  0  0  0  0  0
   -0.3117   60.4022   73.1776 H   0  0  0  0  0  0  0  0  0  0  0  0
   -0.3344   61.0334   74.8994 H   0  0  0  0  0  0  0  0  0  0  0  0
    1.7525   61.4995   73.5708 H   0  0  0  0  0  0  0  0  0  0  0  0
    1.9320   60.6473   75.1862 H   0  0  0  0  0  0  0  0  0  0  0  0
    2.1717   56.1153   73.0767 H   0  0  0  0  0  0  0  0  0  0  0  0
    0.6731   56.9928   72.7712 H   0  0  0  0  0  0  0  0  0  0  0  0
    3.5049   57.6145   71.7181 H   0  0  0  0  0  0  0  0  0  0  0  0
    2.0670   57.4117   70.7509 H   0  0  0  0  0  0  0  0  0  0  0  0
    1.0474   59.5297   71.7498 H   0  0  0  0  0  0  0  0  0  0  0  0
    4.1332   59.8868   74.7693 H   0  0  0  0  0  0  0  0  0  0  0  0
    4.5521   59.0665   73.2272 H   0  0  0  0  0  0  0  0  0  0  0  0
    4.1107   60.8077   73.2272 H   0  0  0  0  0  0  0  0  0  0  0  0
   -1.3244   59.2361   77.9495 H   0  0  0  0  0  0  0  0  0  0  0  0
   -0.0097   60.0282   77.0163 H   0  0  0  0  0  0  0  0  0  0  0  0
   -1.6618   60.7335   77.0163 H   0  0  0  0  0  0  0  0  0  0  0  0
    1.4396   61.9018   71.6796 H   0  0  0  0  0  0  0  0  0  0  0  0
    2.3399   63.5402   70.1424 H   0  0  0  0  0  0  0  0  0  0  0  0
    4.0221   58.8974   70.0453 H   0  0  0  0  0  0  0  0  0  0  0  0
    3.1513   57.5587   75.7304 H   0  0  0  0  0  0  0  0  0  0  0  0
   -7.0555   57.1959   78.4659 H   0  0  0  0  0  0  0  0  0  0  0  0
   -6.5093   56.4812   75.6014 H   0  0  0  0  0  0  0  0  0  0  0  0
   -7.0656   59.4477   77.6091 H   0  0  0  0  0  0  0  0  0  0  0  0
   -9.6924   58.8275   76.2331 H   0  0  0  0  0  0  0  0  0  0  0  0
   -9.4659   56.9615   78.2410 H   0  0  0  0  0  0  0  0  0  0  0  0
   -7.9556   61.4460   76.7817 H   0  0  0  0  0  0  0  0  0  0  0  0
   -6.9697   60.8904   75.3867 H   0  0  0  0  0  0  0  0  0  0  0  0
   -8.7482   60.6382   75.3867 H   0  0  0  0  0  0  0  0  0  0  0  0
   -7.3650   55.0475   78.5993 H   0  0  0  0  0  0  0  0  0  0  0  0
   -9.9420   55.6508   76.5645 H   0  0  0  0  0  0  0  0  0  0  0  0
   -9.1866   58.9063   79.0524 H   0  0  0  0  0  0  0  0  0  0  0  0
  2  1  1  0
  3  2  1  0
  4  3  1  0
  5  4  1  0
  6  1  1  0
  6  5  2  0
  7  5  1  0
  8  7  1  0
  9  8  1  0
 10  9  1  0
 10  4  1  0
 11 10  1  0
 12 11  1  0
 13 12  1  0
 14 13  1  0
 14  9  1  0
 15 14  1  0
 16 15  1  0
 17 16  1  0
 17 13  1  0
 13 18  1  6
  4 19  1  1
 20 17  1  0
 21 20  1  0
 22 21  2  0
 23 22  1  0
 24 23  2  0
 25 23  1  0
 26 25  1  0
 26 20  2  0
 14 27  1  1
 28  1  1  0
 30 29  1  0
 30 28  1  0
 31 30  1  0
 32 31  1  0
 33 32  1  0
 34 33  1  0
 34 29  1  0
 35 32  1  0
 36 29  1  0
 37 34  1  0
 38 33  1  0
  1 39  1  6
  2 40  1  0
  2 41  1  0
  3 42  1  0
  3 43  1  0
  6 44  1  0
  7 45  1  0
  7 46  1  0
  8 47  1  0
  8 48  1  0
  9 49  1  1
 10 50  1  6
 11 51  1  0
 11 52  1  0
 12 53  1  0
 12 54  1  0
 15 55  1  0
 15 56  1  0
 16 57  1  0
 16 58  1  0
 17 59  1  1
 18 60  1  0
 18 61  1  0
 18 62  1  0
 19 63  1  0
 19 64  1  0
 19 65  1  0
 21 66  1  0
 22 67  1  0
 26 68  1  0
 27 69  1  0
 29 70  1  1
 30 71  1  6
 32 72  1  1
 33 73  1  6
 34 74  1  1
 35 75  1  0
 35 76  1  0
 35 77  1  0
 36 78  1  0
 37 79  1  0
 38 80  1  0
M  END
>  <score>  (2) 
-8.375

$$$$
=
     RDKit          3D

 80 85  0  0  0  0  0  0  0  0999 V2000
   -4.3920   57.7800   75.8790 C   0  0  1  0  0  0  0  0  0  0  0  0
   -4.5660   59.2330   75.4400 C   0  0  0  0  0  0  0  0  0  0  0  0
   -3.3180   59.7350   74.7220 C   0  0  0  0  0  0  0  0  0  0  0  0
   -2.0410   59.6860   75.6210 C   0  0  1  0  0  0  0  0  0  0  0  0
   -2.0100   58.3920   76.4410 C   0  0  0  0  0  0  0  0  0  0  0  0
   -3.0580   57.5510   76.5290 C   0  0  0  0  0  0  0  0  0  0  0  0
   -0.7260   58.1030   77.1770 C   0  0  0  0  0  0  0  0  0  0  0  0
    0.4650   58.1250   76.2280 C   0  0  0  0  0  0  0  0  0  0  0  0
    0.5630   59.4510   75.4390 C   0  0  2  0  0  0  0  0  0  0  0  0
   -0.7690   59.7410   74.6910 C   0  0  2  0  0  0  0  0  0  0  0  0
   -0.6970   61.0270   73.8370 C   0  0  0  0  0  0  0  0  0  0  0  0
    0.6710   61.6980   73.8230 C   0  0  0  0  0  0  0  0  0  0  0  0
    1.8500   60.7440   73.5440 C   0  0  1  0  0  0  0  0  0  0  0  0
    1.8010   59.4770   74.4910 C   0  0  2  0  0  0  0  0  0  0  0  0
    1.9010   58.2520   73.5520 C   0  0  0  0  0  0  0  0  0  0  0  0
    2.5290   58.7900   72.2760 C   0  0  0  0  0  0  0  0  0  0  0  0
    1.8010   60.1280   72.0990 C   0  0  2  0  0  0  0  0  0  0  0  0
    3.1460   61.5710   73.7490 C   0  0  0  0  0  0  0  0  0  0  0  0
   -2.0900   60.8710   76.6190 C   0  0  0  0  0  0  0  0  0  0  0  0
    2.2810   60.9890   70.9450 C   0  0  0  0  0  0  0  0  0  0  0  0
    3.4240   60.5290   70.1860 C   0  0  0  0  0  0  0  0  0  0  0  0
    3.9080   61.2490   69.1690 C   0  0  0  0  0  0  0  0  0  0  0  0
    3.3010   62.5370   68.7910 C   0  0  0  0  0  0  0  0  0  0  0  0
    3.7510   63.1820   67.8500 O   0  0  0  0  0  0  0  0  0  0  0  0
    2.2390   62.9650   69.5380 O   0  0  0  0  0  0  0  0  0  0  0  0
    1.7630   62.1760   70.5990 C   0  0  0  0  0  0  0  0  0  0  0  0
    2.9730   59.4680   75.3200 O   0  0  0  0  0  0  0  0  0  0  0  0
   -5.4100   57.4970   76.8390 O   0  0  0  0  0  0  0  0  0  0  0  0
   -7.8160   57.3630   76.7750 C   0  0  1  0  0  0  0  0  0  0  0  0
   -6.5830   58.2960   76.6550 C   0  0  1  0  0  0  0  0  0  0  0  0
   -6.5790   59.3690   77.6020 O   0  0  0  0  0  0  0  0  0  0  0  0
   -7.1810   59.0080   78.8420 C   0  0  2  0  0  0  0  0  0  0  0  0
   -8.7000   58.8430   78.6450 C   0  0  1  0  0  0  0  0  0  0  0  0
   -9.0340   58.1030   77.3340 C   0  0  1  0  0  0  0  0  0  0  0  0
   -6.8690   60.1010   79.8580 C   0  0  0  0  0  0  0  0  0  0  0  0
   -8.1600   56.7960   75.4980 O   0  0  0  0  0  0  0  0  0  0  0  0
   -9.4950   59.0160   76.3200 O   0  0  0  0  0  0  0  0  0  0  0  0
   -9.2760   58.1590   79.7620 O   0  0  0  0  0  0  0  0  0  0  0  0
   -4.4585   57.1304   74.9938 H   0  0  0  0  0  0  0  0  0  0  0  0
   -5.4268   59.3033   74.7587 H   0  0  0  0  0  0  0  0  0  0  0  0
   -4.7326   59.8535   76.3329 H   0  0  0  0  0  0  0  0  0  0  0  0
   -3.1472   59.1081   73.8344 H   0  0  0  0  0  0  0  0  0  0  0  0
   -3.4923   60.7869   74.4514 H   0  0  0  0  0  0  0  0  0  0  0  0
   -2.9276   56.6315   77.1186 H   0  0  0  0  0  0  0  0  0  0  0  0
   -0.5789   58.8652   77.9563 H   0  0  0  0  0  0  0  0  0  0  0  0
   -0.7976   57.1012   77.6257 H   0  0  0  0  0  0  0  0  0  0  0  0
    1.3866   57.9933   76.8140 H   0  0  0  0  0  0  0  0  0  0  0  0
    0.3308   57.3104   75.5011 H   0  0  0  0  0  0  0  0  0  0  0  0
    0.7202   60.2666   76.1601 H   0  0  0  0  0  0  0  0  0  0  0  0
   -0.9005   58.9083   73.9844 H   0  0  0  0  0  0  0  0  0  0  0  0
   -0.9636   60.7678   72.8017 H   0  0  0  0  0  0  0  0  0  0  0  0
   -1.3943   61.7456   74.2925 H   0  0  0  0  0  0  0  0  0  0  0  0
    0.6650   62.4736   73.0430 H   0  0  0  0  0  0  0  0  0  0  0  0
    0.8300   62.1038   74.8330 H   0  0  0  0  0  0  0  0  0  0  0  0
    2.5367   57.4729   73.9980 H   0  0  0  0  0  0  0  0  0  0  0  0
    0.9203   57.7887   73.3685 H   0  0  0  0  0  0  0  0  0  0  0  0
    3.6124   58.9377   72.3957 H   0  0  0  0  0  0  0  0  0  0  0  0
    2.4284   58.1140   71.4141 H   0  0  0  0  0  0  0  0  0  0  0  0
    0.7628   60.0185   71.7524 H   0  0  0  0  0  0  0  0  0  0  0  0
    3.3368   61.6928   74.8255 H   0  0  0  0  0  0  0  0  0  0  0  0
    3.9933   61.0463   73.2835 H   0  0  0  0  0  0  0  0  0  0  0  0
    3.0270   62.5605   73.2835 H   0  0  0  0  0  0  0  0  0  0  0  0
   -2.0740   60.4841   77.6486 H   0  0  0  0  0  0  0  0  0  0  0  0
   -1.2180   61.5220   76.4583 H   0  0  0  0  0  0  0  0  0  0  0  0
   -3.0128   61.4478   76.4583 H   0  0  0  0  0  0  0  0  0  0  0  0
    3.9012   59.5736   70.4496 H   0  0  0  0  0  0  0  0  0  0  0  0
    4.7743   60.8733   68.6047 H   0  0  0  0  0  0  0  0  0  0  0  0
    0.9116   62.5564   71.1824 H   0  0  0  0  0  0  0  0  0  0  0  0
    2.7034   59.4701   76.2726 H   0  0  0  0  0  0  0  0  0  0  0  0
   -7.5373   56.5594   77.4725 H   0  0  0  0  0  0  0  0  0  0  0  0
   -6.6144   58.7659   75.6609 H   0  0  0  0  0  0  0  0  0  0  0  0
   -6.7830   58.0507   79.2098 H   0  0  0  0  0  0  0  0  0  0  0  0
   -9.1347   59.8511   78.5759 H   0  0  0  0  0  0  0  0  0  0  0  0
   -9.8258   57.3818   77.5846 H   0  0  0  0  0  0  0  0  0  0  0  0
   -6.9837   59.6993   80.8756 H   0  0  0  0  0  0  0  0  0  0  0  0
   -5.8355   60.4496   79.7157 H   0  0  0  0  0  0  0  0  0  0  0  0
   -7.5628   60.9427   79.7157 H   0  0  0  0  0  0  0  0  0  0  0  0
   -8.6686   55.9578   75.6353 H   0  0  0  0  0  0  0  0  0  0  0  0
   -9.8968   59.8118   76.7505 H   0  0  0  0  0  0  0  0  0  0  0  0
   -8.9395   58.5586   80.6029 H   0  0  0  0  0  0  0  0  0  0  0  0
  2  1  1  0
  3  2  1  0
  4  3  1  0
  5  4  1  0
  6  1  1  0
  6  5  2  0
  7  5  1  0
  8  7  1  0
  9  8  1  0
 10  9  1  0
 10  4  1  0
 11 10  1  0
 12 11  1  0
 13 12  1  0
 14 13  1  0
 14  9  1  0
 15 14  1  0
 16 15  1  0
 17 16  1  0
 17 13  1  0
 13 18  1  6
  4 19  1  1
 20 17  1  0
 21 20  1  0
 22 21  2  0
 23 22  1  0
 24 23  2  0
 25 23  1  0
 26 25  1  0
 26 20  2  0
 14 27  1  1
 28  1  1  0
 30 29  1  0
 30 28  1  0
 31 30  1  0
 32 31  1  0
 33 32  1  0
 34 33  1  0
 34 29  1  0
 35 32  1  0
 36 29  1  0
 37 34  1  0
 38 33  1  0
  1 39  1  6
  2 40  1  0
  2 41  1  0
  3 42  1  0
  3 43  1  0
  6 44  1  0
  7 45  1  0
  7 46  1  0
  8 47  1  0
  8 48  1  0
  9 49  1  1
 10 50  1  6
 11 51  1  0
 11 52  1  0
 12 53  1  0
 12 54  1  0
 15 55  1  0
 15 56  1  0
 16 57  1  0
 16 58  1  0
 17 59  1  6
 18 60  1  0
 18 61  1  0
 18 62  1  0
 19 63  1  0
 19 64  1  0
 19 65  1  0
 21 66  1  0
 22 67  1  0
 26 68  1  0
 27 69  1  0
 29 70  1  1
 30 71  1  6
 32 72  1  1
 33 73  1  6
 34 74  1  1
 35 75  1  0
 35 76  1  0
 35 77  1  0
 36 78  1  0
 37 79  1  0
 38 80  1  0
M  END
>  <score>  (3) 
-8.132

$$$$
=
     RDKit          3D

 80 85  0  0  0  0  0  0  0  0999 V2000
    1.5420   66.8210   70.2660 C   0  0  1  0  0  0  0  0  0  0  0  0
    0.0820   66.4710   70.5510 C   0  0  0  0  0  0  0  0  0  0  0  0
   -0.0150   65.2390   71.4450 C   0  0  0  0  0  0  0  0  0  0  0  0
    0.6340   63.9720   70.8010 C   0  0  1  0  0  0  0  0  0  0  0  0
    1.9490   64.3360   70.1040 C   0  0  0  0  0  0  0  0  0  0  0  0
    2.3420   65.6060   69.8920 C   0  0  0  0  0  0  0  0  0  0  0  0
    2.7970   63.1790   69.6410 C   0  0  0  0  0  0  0  0  0  0  0  0
    3.0850   62.2190   70.7870 C   0  0  0  0  0  0  0  0  0  0  0  0
    1.7940   61.7210   71.4760 C   0  0  2  0  0  0  0  0  0  0  0  0
    0.9250   62.9220   71.9420 C   0  0  2  0  0  0  0  0  0  0  0  0
   -0.3500   62.4730   72.6910 C   0  0  0  0  0  0  0  0  0  0  0  0
   -0.4570   60.9670   72.9040 C   0  0  0  0  0  0  0  0  0  0  0  0
    0.8180   60.3070   73.4670 C   0  0  1  0  0  0  0  0  0  0  0  0
    2.0950   60.7160   72.6300 C   0  0  2  0  0  0  0  0  0  0  0  0
    3.1220   61.2340   73.6630 C   0  0  0  0  0  0  0  0  0  0  0  0
    2.6810   60.6300   74.9870 C   0  0  0  0  0  0  0  0  0  0  0  0
    1.1570   60.7940   74.9230 C   0  0  2  0  0  0  0  0  0  0  0  0
    0.5720   58.7760   73.4400 C   0  0  0  0  0  0  0  0  0  0  0  0
   -0.3290   63.4140   69.7230 C   0  0  0  0  0  0  0  0  0  0  0  0
    0.3830   60.1800   76.0750 C   0  0  0  0  0  0  0  0  0  0  0  0
   -0.9550   60.6680   76.3280 C   0  0  0  0  0  0  0  0  0  0  0  0
   -1.6830   60.1830   77.3390 C   0  0  0  0  0  0  0  0  0  0  0  0
   -1.1470   59.1410   78.2330 C   0  0  0  0  0  0  0  0  0  0  0  0
   -1.8310   58.7000   79.1500 O   0  0  0  0  0  0  0  0  0  0  0  0
    0.1290   58.7140   77.9910 O   0  0  0  0  0  0  0  0  0  0  0  0
    0.8580   59.2530   76.9180 C   0  0  0  0  0  0  0  0  0  0  0  0
    2.6590   59.5380   72.0320 O   0  0  0  0  0  0  0  0  0  0  0  0
    1.5590   67.7240   69.1620 O   0  0  0  0  0  0  0  0  0  0  0  0
    0.0430   68.7330   67.5820 C   0  0  1  0  0  0  0  0  0  0  0  0
    0.5820   67.4000   68.1660 C   0  0  1  0  0  0  0  0  0  0  0  0
    1.1700   66.5390   67.1860 O   0  0  0  0  0  0  0  0  0  0  0  0
    1.8080   67.2590   66.1350 C   0  0  2  0  0  0  0  0  0  0  0  0
    0.7400   67.9480   65.2650 C   0  0  1  0  0  0  0  0  0  0  0  0
   -0.3790   68.5790   66.1180 C   0  0  1  0  0  0  0  0  0  0  0  0
    2.6360   66.2730   65.3190 C   0  0  0  0  0  0  0  0  0  0  0  0
   -1.0800   69.2120   68.3440 O   0  0  0  0  0  0  0  0  0  0  0  0
   -1.5750   67.7770   66.0880 O   0  0  0  0  0  0  0  0  0  0  0  0
    1.3430   68.9390   64.4270 O   0  0  0  0  0  0  0  0  0  0  0  0
    1.9868   67.2593   71.1716 H   0  0  0  0  0  0  0  0  0  0  0  0
   -0.4009   67.3212   71.0549 H   0  0  0  0  0  0  0  0  0  0  0  0
   -0.4215   66.2550   69.5971 H   0  0  0  0  0  0  0  0  0  0  0  0
    0.4975   65.4524   72.3946 H   0  0  0  0  0  0  0  0  0  0  0  0
   -1.0828   65.0233   71.5976 H   0  0  0  0  0  0  0  0  0  0  0  0
    3.3182   65.7652   69.4107 H   0  0  0  0  0  0  0  0  0  0  0  0
    2.2640   62.6387   68.8447 H   0  0  0  0  0  0  0  0  0  0  0  0
    3.7530   63.5737   69.2665 H   0  0  0  0  0  0  0  0  0  0  0  0
    3.6321   61.3505   70.3915 H   0  0  0  0  0  0  0  0  0  0  0  0
    3.6787   62.7610   71.5379 H   0  0  0  0  0  0  0  0  0  0  0  0
    1.2084   61.1582   70.7341 H   0  0  0  0  0  0  0  0  0  0  0  0
    1.5389   63.4645   72.6761 H   0  0  0  0  0  0  0  0  0  0  0  0
   -0.3603   62.9616   73.6765 H   0  0  0  0  0  0  0  0  0  0  0  0
   -1.2034   62.7626   72.0603 H   0  0  0  0  0  0  0  0  0  0  0  0
   -1.2810   60.7775   73.6077 H   0  0  0  0  0  0  0  0  0  0  0  0
   -0.6265   60.5227   71.9121 H   0  0  0  0  0  0  0  0  0  0  0  0
    4.1365   60.8978   73.4027 H   0  0  0  0  0  0  0  0  0  0  0  0
    3.1559   62.3329   73.6991 H   0  0  0  0  0  0  0  0  0  0  0  0
    2.9660   59.5699   75.0569 H   0  0  0  0  0  0  0  0  0  0  0  0
    3.1409   61.1058   75.8657 H   0  0  0  0  0  0  0  0  0  0  0  0
    0.8195   61.8290   75.0809 H   0  0  0  0  0  0  0  0  0  0  0  0
    0.5110   58.3962   74.4706 H   0  0  0  0  0  0  0  0  0  0  0  0
   -0.3715   58.5654   72.9151 H   0  0  0  0  0  0  0  0  0  0  0  0
    1.4020   58.2805   72.9151 H   0  0  0  0  0  0  0  0  0  0  0  0
   -1.1812   62.9202   70.2129 H   0  0  0  0  0  0  0  0  0  0  0  0
   -0.6950   64.2399   69.0954 H   0  0  0  0  0  0  0  0  0  0  0  0
    0.2056   62.6857   69.0954 H   0  0  0  0  0  0  0  0  0  0  0  0
   -1.3793   61.4488   75.6797 H   0  0  0  0  0  0  0  0  0  0  0  0
   -2.6996   60.5683   77.5065 H   0  0  0  0  0  0  0  0  0  0  0  0
    1.8846   58.8909   76.7596 H   0  0  0  0  0  0  0  0  0  0  0  0
    2.9564   58.9169   72.7433 H   0  0  0  0  0  0  0  0  0  0  0  0
    0.8658   69.4607   67.6403 H   0  0  0  0  0  0  0  0  0  0  0  0
   -0.2715   66.8467   68.5847 H   0  0  0  0  0  0  0  0  0  0  0  0
    2.4705   68.0399   66.5366 H   0  0  0  0  0  0  0  0  0  0  0  0
    0.2793   67.1732   64.6346 H   0  0  0  0  0  0  0  0  0  0  0  0
   -0.5745   69.5693   65.6809 H   0  0  0  0  0  0  0  0  0  0  0  0
    3.1922   65.6107   65.9987 H   0  0  0  0  0  0  0  0  0  0  0  0
    1.9689   65.6708   64.6847 H   0  0  0  0  0  0  0  0  0  0  0  0
    3.3445   66.8260   64.6847 H   0  0  0  0  0  0  0  0  0  0  0  0
   -0.8829   69.1279   69.3105 H   0  0  0  0  0  0  0  0  0  0  0  0
   -1.8652   67.5824   67.0143 H   0  0  0  0  0  0  0  0  0  0  0  0
    1.7662   69.6344   64.9904 H   0  0  0  0  0  0  0  0  0  0  0  0
  2  1  1  0
  3  2  1  0
  4  3  1  0
  5  4  1  0
  6  1  1  0
  6  5  2  0
  7  5  1  0
  8  7  1  0
  9  8  1  0
 10  9  1  0
 10  4  1  0
 11 10  1  0
 12 11  1  0
 13 12  1  0
 14 13  1  0
 14  9  1  0
 15 14  1  0
 16 15  1  0
 17 16  1  0
 17 13  1  0
 13 18  1  1
  4 19  1  6
 20 17  1  0
 21 20  1  0
 22 21  2  0
 23 22  1  0
 24 23  2  0
 25 23  1  0
 26 25  1  0
 26 20  2  0
 14 27  1  6
 28  1  1  0
 30 29  1  0
 30 28  1  0
 31 30  1  0
 32 31  1  0
 33 32  1  0
 34 33  1  0
 34 29  1  0
 35 32  1  0
 36 29  1  0
 37 34  1  0
 38 33  1  0
  1 39  1  1
  2 40  1  0
  2 41  1  0
  3 42  1  0
  3 43  1  0
  6 44  1  0
  7 45  1  0
  7 46  1  0
  8 47  1  0
  8 48  1  0
  9 49  1  6
 10 50  1  1
 11 51  1  0
 11 52  1  0
 12 53  1  0
 12 54  1  0
 15 55  1  0
 15 56  1  0
 16 57  1  0
 16 58  1  0
 17 59  1  6
 18 60  1  0
 18 61  1  0
 18 62  1  0
 19 63  1  0
 19 64  1  0
 19 65  1  0
 21 66  1  0
 22 67  1  0
 26 68  1  0
 27 69  1  0
 29 70  1  6
 30 71  1  1
 32 72  1  1
 33 73  1  6
 34 74  1  6
 35 75  1  0
 35 76  1  0
 35 77  1  0
 36 78  1  0
 37 79  1  0
 38 80  1  0
M  END
>  <score>  (4) 
-8.062

$$$$
=
     RDKit          3D

 80 85  0  0  0  0  0  0  0  0999 V2000
    1.8180   65.7190   70.0020 C   0  0  1  0  0  0  0  0  0  0  0  0
    0.4240   65.7210   70.6260 C   0  0  0  0  0  0  0  0  0  0  0  0
    0.3300   64.6860   71.7420 C   0  0  0  0  0  0  0  0  0  0  0  0
    0.5980   63.2300   71.2420 C   0  0  1  0  0  0  0  0  0  0  0  0
    1.7620   63.2090   70.2460 C   0  0  0  0  0  0  0  0  0  0  0  0
    2.3010   64.3250   69.7200 C   0  0  0  0  0  0  0  0  0  0  0  0
    2.2800   61.8470   69.8590 C   0  0  0  0  0  0  0  0  0  0  0  0
    2.6580   61.0350   71.0910 C   0  0  0  0  0  0  0  0  0  0  0  0
    1.4920   60.9210   72.1000 C   0  0  2  0  0  0  0  0  0  0  0  0
    0.9630   62.3310   72.4860 C   0  0  2  0  0  0  0  0  0  0  0  0
   -0.1650   62.2690   73.5400 C   0  0  0  0  0  0  0  0  0  0  0  0
   -0.4690   60.8670   74.0560 C   0  0  0  0  0  0  0  0  0  0  0  0
    0.7740   60.0570   74.4780 C   0  0  1  0  0  0  0  0  0  0  0  0
    1.8780   60.0650   73.3450 C   0  0  2  0  0  0  0  0  0  0  0  0
    3.1830   60.5160   74.0400 C   0  0  0  0  0  0  0  0  0  0  0  0
    2.9600   60.2240   75.5160 C   0  0  0  0  0  0  0  0  0  0  0  0
    1.5100   60.6810   75.7180 C   0  0  2  0  0  0  0  0  0  0  0  0
    0.2780   58.6210   74.7950 C   0  0  0  0  0  0  0  0  0  0  0  0
   -0.6630   62.7200   70.4990 C   0  0  0  0  0  0  0  0  0  0  0  0
    0.9270   60.4220   77.0950 C   0  0  0  0  0  0  0  0  0  0  0  0
   -0.2320   61.1880   77.4960 C   0  0  0  0  0  0  0  0  0  0  0  0
   -0.7830   61.0210   78.7020 C   0  0  0  0  0  0  0  0  0  0  0  0
   -0.2260   60.0560   79.6670 C   0  0  0  0  0  0  0  0  0  0  0  0
   -0.7470   59.9080   80.7670 O   0  0  0  0  0  0  0  0  0  0  0  0
    0.8860   59.3620   79.2770 O   0  0  0  0  0  0  0  0  0  0  0  0
    1.4320   59.5710   78.0000 C   0  0  0  0  0  0  0  0  0  0  0  0
    2.0890   58.7190   72.8890 O   0  0  0  0  0  0  0  0  0  0  0  0
    1.7340   66.4200   68.7610 O   0  0  0  0  0  0  0  0  0  0  0  0
    1.5840   68.6340   67.8170 C   0  0  1  0  0  0  0  0  0  0  0  0
    1.0060   67.6480   68.8670 C   0  0  1  0  0  0  0  0  0  0  0  0
   -0.3920   67.3870   68.7020 O   0  0  0  0  0  0  0  0  0  0  0  0
   -0.7980   67.4190   67.3360 C   0  0  2  0  0  0  0  0  0  0  0  0
   -0.7430   68.8690   66.8200 C   0  0  1  0  0  0  0  0  0  0  0  0
    0.5190   69.6080   67.3080 C   0  0  1  0  0  0  0  0  0  0  0  0
   -2.2100   66.8510   67.2480 C   0  0  0  0  0  0  0  0  0  0  0  0
    2.6800   69.3860   68.3670 O   0  0  0  0  0  0  0  0  0  0  0  0
    0.2090   70.5190   68.3800 O   0  0  0  0  0  0  0  0  0  0  0  0
   -0.8090   68.8910   65.3900 O   0  0  0  0  0  0  0  0  0  0  0  0
    2.5215   66.1907   70.7038 H   0  0  0  0  0  0  0  0  0  0  0  0
    0.2156   66.7184   71.0404 H   0  0  0  0  0  0  0  0  0  0  0  0
   -0.3115   65.4690   69.8479 H   0  0  0  0  0  0  0  0  0  0  0  0
    1.0722   64.9343   72.5150 H   0  0  0  0  0  0  0  0  0  0  0  0
   -0.6963   64.7169   72.1366 H   0  0  0  0  0  0  0  0  0  0  0  0
    3.1545   64.2077   69.0361 H   0  0  0  0  0  0  0  0  0  0  0  0
    1.4986   61.3105   69.3007 H   0  0  0  0  0  0  0  0  0  0  0  0
    3.1779   61.9779   69.2372 H   0  0  0  0  0  0  0  0  0  0  0  0
    2.9497   60.0235   70.7720 H   0  0  0  0  0  0  0  0  0  0  0  0
    3.4880   61.5532   71.5935 H   0  0  0  0  0  0  0  0  0  0  0  0
    0.6678   60.3829   71.6089 H   0  0  0  0  0  0  0  0  0  0  0  0
    1.8080   62.8442   72.9684 H   0  0  0  0  0  0  0  0  0  0  0  0
    0.1292   62.8942   74.3959 H   0  0  0  0  0  0  0  0  0  0  0  0
   -1.0791   62.6253   73.0426 H   0  0  0  0  0  0  0  0  0  0  0  0
   -1.1320   60.9585   74.9289 H   0  0  0  0  0  0  0  0  0  0  0  0
   -0.9303   60.3196   73.2208 H   0  0  0  0  0  0  0  0  0  0  0  0
    4.0423   59.9454   73.6579 H   0  0  0  0  0  0  0  0  0  0  0  0
    3.4050   61.5776   73.8563 H   0  0  0  0  0  0  0  0  0  0  0  0
    3.0746   59.1517   75.7327 H   0  0  0  0  0  0  0  0  0  0  0  0
    3.6790   60.7259   76.1802 H   0  0  0  0  0  0  0  0  0  0  0  0
    1.3927   61.7746   75.7351 H   0  0  0  0  0  0  0  0  0  0  0  0
    0.2300   58.4820   75.8851 H   0  0  0  0  0  0  0  0  0  0  0  0
   -0.7227   58.4748   74.3623 H   0  0  0  0  0  0  0  0  0  0  0  0
    0.9752   57.8884   74.3623 H   0  0  0  0  0  0  0  0  0  0  0  0
   -1.4222   62.4129   71.2334 H   0  0  0  0  0  0  0  0  0  0  0  0
   -1.0676   63.5252   69.8681 H   0  0  0  0  0  0  0  0  0  0  0  0
   -0.3941   61.8599   69.8681 H   0  0  0  0  0  0  0  0  0  0  0  0
   -0.6665   61.9189   76.7982 H   0  0  0  0  0  0  0  0  0  0  0  0
   -1.6672   61.6137   78.9792 H   0  0  0  0  0  0  0  0  0  0  0  0
    2.3311   59.0003   77.7247 H   0  0  0  0  0  0  0  0  0  0  0  0
    2.1833   58.1172   73.6694 H   0  0  0  0  0  0  0  0  0  0  0  0
    1.9401   68.0251   66.9729 H   0  0  0  0  0  0  0  0  0  0  0  0
    1.1154   68.1116   69.8585 H   0  0  0  0  0  0  0  0  0  0  0  0
   -0.1268   66.8134   66.7093 H   0  0  0  0  0  0  0  0  0  0  0  0
   -1.6154   69.3981   67.2312 H   0  0  0  0  0  0  0  0  0  0  0  0
    0.9052   70.1606   66.4389 H   0  0  0  0  0  0  0  0  0  0  0  0
   -2.6051   66.6920   68.2622 H   0  0  0  0  0  0  0  0  0  0  0  0
   -2.8570   67.5588   66.7092 H   0  0  0  0  0  0  0  0  0  0  0  0
   -2.1866   65.8923   66.7092 H   0  0  0  0  0  0  0  0  0  0  0  0
    2.6372   69.3566   69.3556 H   0  0  0  0  0  0  0  0  0  0  0  0
    0.3617   70.0701   69.2491 H   0  0  0  0  0  0  0  0  0  0  0  0
   -1.7087   69.1909   65.1057 H   0  0  0  0  0  0  0  0  0  0  0  0
  2  1  1  0
  3  2  1  0
  4  3  1  0
  5  4  1  0
  6  1  1  0
  6  5  2  0
  7  5  1  0
  8  7  1  0
  9  8  1  0
 10  9  1  0
 10  4  1  0
 11 10  1  0
 12 11  1  0
 13 12  1  0
 14 13  1  0
 14  9  1  0
 15 14  1  0
 16 15  1  0
 17 16  1  0
 17 13  1  0
 13 18  1  1
  4 19  1  6
 20 17  1  0
 21 20  1  0
 22 21  2  0
 23 22  1  0
 24 23  2  0
 25 23  1  0
 26 25  1  0
 26 20  2  0
 14 27  1  6
 28  1  1  0
 30 29  1  0
 30 28  1  0
 31 30  1  0
 32 31  1  0
 33 32  1  0
 34 33  1  0
 34 29  1  0
 35 32  1  0
 36 29  1  0
 37 34  1  0
 38 33  1  0
  1 39  1  1
  2 40  1  0
  2 41  1  0
  3 42  1  0
  3 43  1  0
  6 44  1  0
  7 45  1  0
  7 46  1  0
  8 47  1  0
  8 48  1  0
  9 49  1  6
 10 50  1  1
 11 51  1  0
 11 52  1  0
 12 53  1  0
 12 54  1  0
 15 55  1  0
 15 56  1  0
 16 57  1  0
 16 58  1  0
 17 59  1  6
 18 60  1  0
 18 61  1  0
 18 62  1  0
 19 63  1  0
 19 64  1  0
 19 65  1  0
 21 66  1  0
 22 67  1  0
 26 68  1  0
 27 69  1  0
 29 70  1  6
 30 71  1  1
 32 72  1  6
 33 73  1  1
 34 74  1  6
 35 75  1  0
 35 76  1  0
 35 77  1  0
 36 78  1  0
 37 79  1  0
 38 80  1  0
M  END
>  <score>  (5) 
-7.98

$$$$
=
     RDKit          3D

 80 85  0  0  0  0  0  0  0  0999 V2000
   -4.4320   58.0950   77.6930 C   0  0  1  0  0  0  0  0  0  0  0  0
   -4.4220   57.6610   76.2280 C   0  0  0  0  0  0  0  0  0  0  0  0
   -3.2950   58.3510   75.4670 C   0  0  0  0  0  0  0  0  0  0  0  0
   -3.4250   59.9080   75.4740 C   0  0  1  0  0  0  0  0  0  0  0  0
   -3.8600   60.4060   76.8570 C   0  0  0  0  0  0  0  0  0  0  0  0
   -4.2870   59.5830   77.8340 C   0  0  0  0  0  0  0  0  0  0  0  0
   -3.8010   61.8960   77.0750 C   0  0  0  0  0  0  0  0  0  0  0  0
   -2.4150   62.4410   76.7580 C   0  0  0  0  0  0  0  0  0  0  0  0
   -1.9490   62.0690   75.3320 C   0  0  2  0  0  0  0  0  0  0  0  0
   -2.0210   60.5310   75.1170 C   0  0  2  0  0  0  0  0  0  0  0  0
   -1.5060   60.1060   73.7230 C   0  0  0  0  0  0  0  0  0  0  0  0
   -0.9520   61.2490   72.8810 C   0  0  0  0  0  0  0  0  0  0  0  0
    0.0450   62.1640   73.6200 C   0  0  1  0  0  0  0  0  0  0  0  0
   -0.5410   62.6550   75.0040 C   0  0  2  0  0  0  0  0  0  0  0  0
    0.5400   62.3190   76.0570 C   0  0  0  0  0  0  0  0  0  0  0  0
    1.8310   62.1910   75.2630 C   0  0  0  0  0  0  0  0  0  0  0  0
    1.3680   61.4170   74.0220 C   0  0  2  0  0  0  0  0  0  0  0  0
    0.3490   63.3490   72.6660 C   0  0  0  0  0  0  0  0  0  0  0  0
   -4.5240   60.3200   74.4620 C   0  0  0  0  0  0  0  0  0  0  0  0
    2.4210   61.2100   72.9480 C   0  0  0  0  0  0  0  0  0  0  0  0
    2.2450   60.1060   72.0300 C   0  0  0  0  0  0  0  0  0  0  0  0
    3.1450   59.8580   71.0730 C   0  0  0  0  0  0  0  0  0  0  0  0
    4.3490   60.6940   70.9250 C   0  0  0  0  0  0  0  0  0  0  0  0
    5.1610   60.4600   70.0370 O   0  0  0  0  0  0  0  0  0  0  0  0
    4.5090   61.7160   71.8210 O   0  0  0  0  0  0  0  0  0  0  0  0
    3.5380   61.9390   72.8110 C   0  0  0  0  0  0  0  0  0  0  0  0
   -0.6710   64.0850   74.9770 O   0  0  0  0  0  0  0  0  0  0  0  0
   -5.6920   57.7160   78.2450 O   0  0  0  0  0  0  0  0  0  0  0  0
   -7.8110   56.6220   77.8810 C   0  0  1  0  0  0  0  0  0  0  0  0
   -6.6880   57.4820   77.2430 C   0  0  1  0  0  0  0  0  0  0  0  0
   -7.1460   58.7360   76.7280 O   0  0  0  0  0  0  0  0  0  0  0  0
   -8.2260   59.2780   77.4840 C   0  0  2  0  0  0  0  0  0  0  0  0
   -9.4890   58.4270   77.2540 C   0  0  1  0  0  0  0  0  0  0  0  0
   -9.1750   56.9170   77.2540 C   0  0  1  0  0  0  0  0  0  0  0  0
   -8.4400   60.7200   77.0400 C   0  0  0  0  0  0  0  0  0  0  0  0
   -7.5260   55.2190   77.7420 O   0  0  0  0  0  0  0  0  0  0  0  0
   -9.1670   56.3850   75.9160 O   0  0  0  0  0  0  0  0  0  0  0  0
  -10.4790   58.7280   78.2430 O   0  0  0  0  0  0  0  0  0  0  0  0
   -3.5873   57.6171   78.2107 H   0  0  0  0  0  0  0  0  0  0  0  0
   -4.2786   56.5717   76.1755 H   0  0  0  0  0  0  0  0  0  0  0  0
   -5.3814   57.9432   75.7699 H   0  0  0  0  0  0  0  0  0  0  0  0
   -2.3369   58.0761   75.9323 H   0  0  0  0  0  0  0  0  0  0  0  0
   -3.3501   58.0185   74.4199 H   0  0  0  0  0  0  0  0  0  0  0  0
   -4.5479   60.0325   78.8035 H   0  0  0  0  0  0  0  0  0  0  0  0
   -4.5377   62.3845   76.4203 H   0  0  0  0  0  0  0  0  0  0  0  0
   -4.0254   62.1041   78.1316 H   0  0  0  0  0  0  0  0  0  0  0  0
   -2.4371   63.5371   76.8480 H   0  0  0  0  0  0  0  0  0  0  0  0
   -1.7068   61.9929   77.4705 H   0  0  0  0  0  0  0  0  0  0  0  0
   -2.6416   62.5346   74.6154 H   0  0  0  0  0  0  0  0  0  0  0  0
   -1.3248   60.0959   75.8491 H   0  0  0  0  0  0  0  0  0  0  0  0
   -0.7068   59.3633   73.8633 H   0  0  0  0  0  0  0  0  0  0  0  0
   -2.3728   59.7054   73.1769 H   0  0  0  0  0  0  0  0  0  0  0  0
   -0.4396   60.8162   72.0092 H   0  0  0  0  0  0  0  0  0  0  0  0
   -1.8106   61.8796   72.6067 H   0  0  0  0  0  0  0  0  0  0  0  0
    0.6208   63.1259   76.8002 H   0  0  0  0  0  0  0  0  0  0  0  0
    0.3039   61.4012   76.6155 H   0  0  0  0  0  0  0  0  0  0  0  0
    2.2325   63.1784   74.9913 H   0  0  0  0  0  0  0  0  0  0  0  0
    2.6439   61.6971   75.8155 H   0  0  0  0  0  0  0  0  0  0  0  0
    1.1741   60.3519   74.2168 H   0  0  0  0  0  0  0  0  0  0  0  0
    0.5793   64.2468   73.2583 H   0  0  0  0  0  0  0  0  0  0  0  0
    1.2116   63.0970   72.0316 H   0  0  0  0  0  0  0  0  0  0  0  0
   -0.5284   63.5434   72.0316 H   0  0  0  0  0  0  0  0  0  0  0  0
   -5.4182   60.6552   75.0080 H   0  0  0  0  0  0  0  0  0  0  0  0
   -4.1517   61.1396   73.8298 H   0  0  0  0  0  0  0  0  0  0  0  0
   -4.7822   59.4576   73.8298 H   0  0  0  0  0  0  0  0  0  0  0  0
    1.3582   59.4615   72.1206 H   0  0  0  0  0  0  0  0  0  0  0  0
    2.9838   59.0155   70.3844 H   0  0  0  0  0  0  0  0  0  0  0  0
    3.7045   62.7642   73.5190 H   0  0  0  0  0  0  0  0  0  0  0  0
   -0.7025   64.4311   75.9040 H   0  0  0  0  0  0  0  0  0  0  0  0
   -7.8462   56.8875   78.9479 H   0  0  0  0  0  0  0  0  0  0  0  0
   -6.2888   56.9255   76.3822 H   0  0  0  0  0  0  0  0  0  0  0  0
   -8.0012   59.2631   78.5607 H   0  0  0  0  0  0  0  0  0  0  0  0
   -9.8821   58.6831   76.2590 H   0  0  0  0  0  0  0  0  0  0  0  0
   -9.9684   56.4402   77.8482 H   0  0  0  0  0  0  0  0  0  0  0  0
   -8.5358   61.3658   77.9253 H   0  0  0  0  0  0  0  0  0  0  0  0
   -7.5809   61.0494   76.4371 H   0  0  0  0  0  0  0  0  0  0  0  0
   -9.3577   60.7857   76.4371 H   0  0  0  0  0  0  0  0  0  0  0  0
   -7.4427   54.8087   78.6391 H   0  0  0  0  0  0  0  0  0  0  0  0
   -9.1521   55.3959   75.9543 H   0  0  0  0  0  0  0  0  0  0  0  0
  -10.0902   58.6098   79.1458 H   0  0  0  0  0  0  0  0  0  0  0  0
  2  1  1  0
  3  2  1  0
  4  3  1  0
  5  4  1  0
  6  1  1  0
  6  5  2  0
  7  5  1  0
  8  7  1  0
  9  8  1  0
 10  9  1  0
 10  4  1  0
 11 10  1  0
 12 11  1  0
 13 12  1  0
 14 13  1  0
 14  9  1  0
 15 14  1  0
 16 15  1  0
 17 16  1  0
 17 13  1  0
 13 18  1  6
  4 19  1  6
 20 17  1  0
 21 20  1  0
 22 21  2  0
 23 22  1  0
 24 23  2  0
 25 23  1  0
 26 25  1  0
 26 20  2  0
 14 27  1  6
 28  1  1  0
 30 29  1  0
 30 28  1  0
 31 30  1  0
 32 31  1  0
 33 32  1  0
 34 33  1  0
 34 29  1  0
 35 32  1  0
 36 29  1  0
 37 34  1  0
 38 33  1  0
  1 39  1  1
  2 40  1  0
  2 41  1  0
  3 42  1  0
  3 43  1  0
  6 44  1  0
  7 45  1  0
  7 46  1  0
  8 47  1  0
  8 48  1  0
  9 49  1  6
 10 50  1  1
 11 51  1  0
 11 52  1  0
 12 53  1  0
 12 54  1  0
 15 55  1  0
 15 56  1  0
 16 57  1  0
 16 58  1  0
 17 59  1  1
 18 60  1  0
 18 61  1  0
 18 62  1  0
 19 63  1  0
 19 64  1  0
 19 65  1  0
 21 66  1  0
 22 67  1  0
 26 68  1  0
 27 69  1  0
 29 70  1  1
 30 71  1  6
 32 72  1  1
 33 73  1  6
 34 74  1  1
 35 75  1  0
 35 76  1  0
 35 77  1  0
 36 78  1  0
 37 79  1  0
 38 80  1  0
M  END
>  <score>  (6) 
-7.936

$$$$
=
     RDKit          3D

 80 85  0  0  0  0  0  0  0  0999 V2000
    1.4360   61.2640   74.2950 C   0  0  1  0  0  0  0  0  0  0  0  0
    0.4600   60.6370   73.3020 C   0  0  0  0  0  0  0  0  0  0  0  0
   -0.1050   59.3300   73.8510 C   0  0  0  0  0  0  0  0  0  0  0  0
    1.0000   58.2630   74.1310 C   0  0  1  0  0  0  0  0  0  0  0  0
    2.2300   58.9160   74.7690 C   0  0  0  0  0  0  0  0  0  0  0  0
    2.3970   60.2510   74.8480 C   0  0  0  0  0  0  0  0  0  0  0  0
    3.2800   57.9760   75.3040 C   0  0  0  0  0  0  0  0  0  0  0  0
    2.6740   56.9820   76.2850 C   0  0  0  0  0  0  0  0  0  0  0  0
    1.4870   56.2020   75.6740 C   0  0  2  0  0  0  0  0  0  0  0  0
    0.4160   57.1820   75.1200 C   0  0  2  0  0  0  0  0  0  0  0  0
   -0.8190   56.4470   74.5530 C   0  0  0  0  0  0  0  0  0  0  0  0
   -0.7860   54.9330   74.7290 C   0  0  0  0  0  0  0  0  0  0  0  0
   -0.4260   54.4610   76.1520 C   0  0  1  0  0  0  0  0  0  0  0  0
    0.8900   55.1650   76.6750 C   0  0  2  0  0  0  0  0  0  0  0  0
    0.5240   55.7610   78.0540 C   0  0  0  0  0  0  0  0  0  0  0  0
   -0.6920   54.9700   78.5100 C   0  0  0  0  0  0  0  0  0  0  0  0
   -1.5100   54.8660   77.2160 C   0  0  2  0  0  0  0  0  0  0  0  0
   -0.2700   52.9190   76.0810 C   0  0  0  0  0  0  0  0  0  0  0  0
    1.4460   57.6440   72.7820 C   0  0  0  0  0  0  0  0  0  0  0  0
   -2.7690   54.0220   77.3020 C   0  0  0  0  0  0  0  0  0  0  0  0
   -3.6990   54.3000   78.3750 C   0  0  0  0  0  0  0  0  0  0  0  0
   -4.8170   53.5810   78.5180 C   0  0  0  0  0  0  0  0  0  0  0  0
   -5.1370   52.4780   77.5940 C   0  0  0  0  0  0  0  0  0  0  0  0
   -6.1710   51.8340   77.7330 O   0  0  0  0  0  0  0  0  0  0  0  0
   -4.2310   52.2160   76.6040 O   0  0  0  0  0  0  0  0  0  0  0  0
   -3.0680   52.9960   76.4920 C   0  0  0  0  0  0  0  0  0  0  0  0
    1.8960   54.1650   76.9040 O   0  0  0  0  0  0  0  0  0  0  0  0
    2.1880   62.2530   73.5920 O   0  0  0  0  0  0  0  0  0  0  0  0
    2.2330   63.4300   71.4880 C   0  0  1  0  0  0  0  0  0  0  0  0
    2.1950   62.0400   72.1770 C   0  0  1  0  0  0  0  0  0  0  0  0
    3.2990   61.1970   71.8290 O   0  0  0  0  0  0  0  0  0  0  0  0
    4.4960   61.9310   71.5920 C   0  0  2  0  0  0  0  0  0  0  0  0
    4.3560   62.7260   70.2790 C   0  0  1  0  0  0  0  0  0  0  0  0
    2.9650   63.3770   70.1450 C   0  0  1  0  0  0  0  0  0  0  0  0
    5.6540   60.9420   71.5190 C   0  0  0  0  0  0  0  0  0  0  0  0
    0.9020   63.9340   71.2750 O   0  0  0  0  0  0  0  0  0  0  0  0
    2.1340   62.6500   69.2210 O   0  0  0  0  0  0  0  0  0  0  0  0
    5.3810   63.7220   70.1890 O   0  0  0  0  0  0  0  0  0  0  0  0
    0.8648   61.6888   75.1336 H   0  0  0  0  0  0  0  0  0  0  0  0
   -0.3671   61.3383   73.1173 H   0  0  0  0  0  0  0  0  0  0  0  0
    0.9969   60.4239   72.3659 H   0  0  0  0  0  0  0  0  0  0  0  0
   -0.6338   59.5434   74.7917 H   0  0  0  0  0  0  0  0  0  0  0  0
   -0.7802   58.9150   73.0882 H   0  0  0  0  0  0  0  0  0  0  0  0
    3.3001   60.6247   75.3527 H   0  0  0  0  0  0  0  0  0  0  0  0
    3.7301   57.4247   74.4653 H   0  0  0  0  0  0  0  0  0  0  0  0
    4.0436   58.5670   75.8309 H   0  0  0  0  0  0  0  0  0  0  0  0
    3.4511   56.2641   76.5863 H   0  0  0  0  0  0  0  0  0  0  0  0
    2.2946   57.5498   77.1474 H   0  0  0  0  0  0  0  0  0  0  0  0
    1.8668   55.6148   74.8249 H   0  0  0  0  0  0  0  0  0  0  0  0
    0.0614   57.7559   75.9889 H   0  0  0  0  0  0  0  0  0  0  0  0
   -1.7137   56.8333   75.0632 H   0  0  0  0  0  0  0  0  0  0  0  0
   -0.8278   56.6372   73.4696 H   0  0  0  0  0  0  0  0  0  0  0  0
   -1.7806   54.5363   74.4771 H   0  0  0  0  0  0  0  0  0  0  0  0
    0.0078   54.5588   74.0658 H   0  0  0  0  0  0  0  0  0  0  0  0
    1.3556   55.6359   78.7631 H   0  0  0  0  0  0  0  0  0  0  0  0
    0.3196   56.8404   77.9983 H   0  0  0  0  0  0  0  0  0  0  0  0
   -0.4050   53.9755   78.8822 H   0  0  0  0  0  0  0  0  0  0  0  0
   -1.2378   55.4374   79.3428 H   0  0  0  0  0  0  0  0  0  0  0  0
   -2.0061   55.8066   76.9346 H   0  0  0  0  0  0  0  0  0  0  0  0
   -0.2284   52.5074   77.1002 H   0  0  0  0  0  0  0  0  0  0  0  0
   -1.1291   52.4878   75.5462 H   0  0  0  0  0  0  0  0  0  0  0  0
    0.6581   52.6686   75.5462 H   0  0  0  0  0  0  0  0  0  0  0  0
    2.0792   56.7651   72.9734 H   0  0  0  0  0  0  0  0  0  0  0  0
    0.5590   57.3387   72.2076 H   0  0  0  0  0  0  0  0  0  0  0  0
    2.0164   58.3888   72.2076 H   0  0  0  0  0  0  0  0  0  0  0  0
   -3.4832   55.1140   79.0827 H   0  0  0  0  0  0  0  0  0  0  0  0
   -5.5099   53.8165   79.3392 H   0  0  0  0  0  0  0  0  0  0  0  0
   -2.3577   52.7495   75.6891 H   0  0  0  0  0  0  0  0  0  0  0  0
    2.0215   54.0402   77.8780 H   0  0  0  0  0  0  0  0  0  0  0  0
    2.7803   64.1039   72.1636 H   0  0  0  0  0  0  0  0  0  0  0  0
    1.2903   61.5183   71.8316 H   0  0  0  0  0  0  0  0  0  0  0  0
    4.6863   62.6486   72.4037 H   0  0  0  0  0  0  0  0  0  0  0  0
    4.4692   62.0138   69.4484 H   0  0  0  0  0  0  0  0  0  0  0  0
    3.1403   64.3983   69.7758 H   0  0  0  0  0  0  0  0  0  0  0  0
    5.9703   60.6719   72.5373 H   0  0  0  0  0  0  0  0  0  0  0  0
    5.3303   60.0373   70.9835 H   0  0  0  0  0  0  0  0  0  0  0  0
    6.4969   61.4032   70.9835 H   0  0  0  0  0  0  0  0  0  0  0  0
    0.4676   64.0985   72.1493 H   0  0  0  0  0  0  0  0  0  0  0  0
    1.4927   62.0889   69.7250 H   0  0  0  0  0  0  0  0  0  0  0  0
    5.6593   63.9924   71.0998 H   0  0  0  0  0  0  0  0  0  0  0  0
  2  1  1  0
  3  2  1  0
  4  3  1  0
  5  4  1  0
  6  1  1  0
  6  5  2  0
  7  5  1  0
  8  7  1  0
  9  8  1  0
 10  9  1  0
 10  4  1  0
 11 10  1  0
 12 11  1  0
 13 12  1  0
 14 13  1  0
 14  9  1  0
 15 14  1  0
 16 15  1  0
 17 16  1  0
 17 13  1  0
 13 18  1  6
  4 19  1  6
 20 17  1  0
 21 20  1  0
 22 21  2  0
 23 22  1  0
 24 23  2  0
 25 23  1  0
 26 25  1  0
 26 20  2  0
 14 27  1  1
 28  1  1  0
 30 29  1  0
 30 28  1  0
 31 30  1  0
 32 31  1  0
 33 32  1  0
 34 33  1  0
 34 29  1  0
 35 32  1  0
 36 29  1  0
 37 34  1  0
 38 33  1  0
  1 39  1  1
  2 40  1  0
  2 41  1  0
  3 42  1  0
  3 43  1  0
  6 44  1  0
  7 45  1  0
  7 46  1  0
  8 47  1  0
  8 48  1  0
  9 49  1  6
 10 50  1  1
 11 51  1  0
 11 52  1  0
 12 53  1  0
 12 54  1  0
 15 55  1  0
 15 56  1  0
 16 57  1  0
 16 58  1  0
 17 59  1  6
 18 60  1  0
 18 61  1  0
 18 62  1  0
 19 63  1  0
 19 64  1  0
 19 65  1  0
 21 66  1  0
 22 67  1  0
 26 68  1  0
 27 69  1  0
 29 70  1  1
 30 71  1  6
 32 72  1  1
 33 73  1  6
 34 74  1  6
 35 75  1  0
 35 76  1  0
 35 77  1  0
 36 78  1  0
 37 79  1  0
 38 80  1  0
M  END
>  <score>  (7) 
-7.887

$$$$
=
     RDKit          3D

 80 85  0  0  0  0  0  0  0  0999 V2000
    2.8150   59.7170   73.2930 C   0  0  1  0  0  0  0  0  0  0  0  0
    2.7670   58.7430   74.4690 C   0  0  0  0  0  0  0  0  0  0  0  0
    1.3490   58.6310   75.0220 C   0  0  0  0  0  0  0  0  0  0  0  0
    0.7940   59.9950   75.5440 C   0  0  1  0  0  0  0  0  0  0  0  0
    1.1790   61.1330   74.5930 C   0  0  0  0  0  0  0  0  0  0  0  0
    2.0650   60.9840   73.5890 C   0  0  0  0  0  0  0  0  0  0  0  0
    0.5180   62.4630   74.8470 C   0  0  0  0  0  0  0  0  0  0  0  0
   -0.9980   62.3240   74.8740 C   0  0  0  0  0  0  0  0  0  0  0  0
   -1.4730   61.2630   75.8940 C   0  0  2  0  0  0  0  0  0  0  0  0
   -0.7790   59.8980   75.6260 C   0  0  2  0  0  0  0  0  0  0  0  0
   -1.2680   58.7890   76.5850 C   0  0  0  0  0  0  0  0  0  0  0  0
   -2.3840   59.2210   77.5280 C   0  0  0  0  0  0  0  0  0  0  0  0
   -3.5510   59.9610   76.8440 C   0  0  1  0  0  0  0  0  0  0  0  0
   -3.0270   61.1460   75.9370 C   0  0  2  0  0  0  0  0  0  0  0  0
   -3.6810   60.9300   74.5520 C   0  0  0  0  0  0  0  0  0  0  0  0
   -4.8950   60.0560   74.8270 C   0  0  0  0  0  0  0  0  0  0  0  0
   -4.3420   59.0470   75.8400 C   0  0  2  0  0  0  0  0  0  0  0  0
   -4.4800   60.4670   77.9800 C   0  0  0  0  0  0  0  0  0  0  0  0
    1.4360   60.2980   76.9210 C   0  0  0  0  0  0  0  0  0  0  0  0
   -5.3540   58.0720   76.4140 C   0  0  0  0  0  0  0  0  0  0  0  0
   -6.7480   58.2700   76.0830 C   0  0  0  0  0  0  0  0  0  0  0  0
   -7.6920   57.4580   76.5700 C   0  0  0  0  0  0  0  0  0  0  0  0
   -7.3460   56.3400   77.4660 C   0  0  0  0  0  0  0  0  0  0  0  0
   -8.2220   55.5980   77.8980 O   0  0  0  0  0  0  0  0  0  0  0  0
   -6.0260   56.1890   77.7880 O   0  0  0  0  0  0  0  0  0  0  0  0
   -5.0680   57.0660   77.2530 C   0  0  0  0  0  0  0  0  0  0  0  0
   -3.5340   62.3880   76.4510 O   0  0  0  0  0  0  0  0  0  0  0  0
    4.1840   60.0520   73.0690 O   0  0  0  0  0  0  0  0  0  0  0  0
    3.2930   59.5660   70.8810 C   0  0  1  0  0  0  0  0  0  0  0  0
    4.5580   59.9560   71.6900 C   0  0  1  0  0  0  0  0  0  0  0  0
    5.1500   61.1900   71.2720 O   0  0  0  0  0  0  0  0  0  0  0  0
    4.1860   62.1300   70.8070 C   0  0  2  0  0  0  0  0  0  0  0  0
    3.6120   61.6510   69.4600 C   0  0  1  0  0  0  0  0  0  0  0  0
    3.3310   60.1350   69.4610 C   0  0  1  0  0  0  0  0  0  0  0  0
    4.8730   63.4840   70.6660 C   0  0  0  0  0  0  0  0  0  0  0  0
    3.1490   58.1360   70.8080 O   0  0  0  0  0  0  0  0  0  0  0  0
    4.3420   59.4160   68.7280 O   0  0  0  0  0  0  0  0  0  0  0  0
    2.4190   62.3760   69.1410 O   0  0  0  0  0  0  0  0  0  0  0  0
    2.3515   59.2401   72.4168 H   0  0  0  0  0  0  0  0  0  0  0  0
    3.1013   57.7514   74.1299 H   0  0  0  0  0  0  0  0  0  0  0  0
    3.4273   59.1181   75.2648 H   0  0  0  0  0  0  0  0  0  0  0  0
    0.6878   58.2651   74.2227 H   0  0  0  0  0  0  0  0  0  0  0  0
    1.3797   57.9373   75.8751 H   0  0  0  0  0  0  0  0  0  0  0  0
    2.2524   61.8521   72.9399 H   0  0  0  0  0  0  0  0  0  0  0  0
    0.8603   62.8554   75.8160 H   0  0  0  0  0  0  0  0  0  0  0  0
    0.7919   63.1509   74.0335 H   0  0  0  0  0  0  0  0  0  0  0  0
   -1.4374   63.2956   75.1440 H   0  0  0  0  0  0  0  0  0  0  0  0
   -1.3236   61.9991   73.8748 H   0  0  0  0  0  0  0  0  0  0  0  0
   -1.1696   61.5962   76.8975 H   0  0  0  0  0  0  0  0  0  0  0  0
   -1.0974   59.5958   74.6174 H   0  0  0  0  0  0  0  0  0  0  0  0
   -1.6355   57.9475   75.9793 H   0  0  0  0  0  0  0  0  0  0  0  0
   -0.4093   58.5187   77.2171 H   0  0  0  0  0  0  0  0  0  0  0  0
   -2.7873   58.3220   78.0171 H   0  0  0  0  0  0  0  0  0  0  0  0
   -1.9356   59.9330   78.2366 H   0  0  0  0  0  0  0  0  0  0  0  0
   -3.9871   61.8915   74.1139 H   0  0  0  0  0  0  0  0  0  0  0  0
   -2.9890   60.4652   73.8343 H   0  0  0  0  0  0  0  0  0  0  0  0
   -5.7199   60.6426   75.2575 H   0  0  0  0  0  0  0  0  0  0  0  0
   -5.3184   59.5904   73.9248 H   0  0  0  0  0  0  0  0  0  0  0  0
   -3.6802   58.2923   75.3900 H   0  0  0  0  0  0  0  0  0  0  0  0
   -4.0329   60.2235   78.9551 H   0  0  0  0  0  0  0  0  0  0  0  0
   -4.6031   61.5568   77.8950 H   0  0  0  0  0  0  0  0  0  0  0  0
   -5.4623   59.9793   77.8950 H   0  0  0  0  0  0  0  0  0  0  0  0
    0.7543   59.9763   77.7221 H   0  0  0  0  0  0  0  0  0  0  0  0
    2.3881   59.7542   77.0093 H   0  0  0  0  0  0  0  0  0  0  0  0
    1.6214   61.3787   77.0093 H   0  0  0  0  0  0  0  0  0  0  0  0
   -7.0356   59.1003   75.4213 H   0  0  0  0  0  0  0  0  0  0  0  0
   -8.7442   57.6271   76.2975 H   0  0  0  0  0  0  0  0  0  0  0  0
   -4.0166   56.9181   77.5406 H   0  0  0  0  0  0  0  0  0  0  0  0
   -3.5242   62.3641   77.4407 H   0  0  0  0  0  0  0  0  0  0  0  0
    2.4320   59.9970   71.4129 H   0  0  0  0  0  0  0  0  0  0  0  0
    5.3177   59.1791   71.5188 H   0  0  0  0  0  0  0  0  0  0  0  0
    3.3502   62.2218   71.5162 H   0  0  0  0  0  0  0  0  0  0  0  0
    4.3717   61.8473   68.6891 H   0  0  0  0  0  0  0  0  0  0  0  0
    2.3489   60.0065   68.9824 H   0  0  0  0  0  0  0  0  0  0  0  0
    5.0816   63.8951   71.6647 H   0  0  0  0  0  0  0  0  0  0  0  0
    5.8174   63.3604   70.1158 H   0  0  0  0  0  0  0  0  0  0  0  0
    4.2156   64.1732   70.1158 H   0  0  0  0  0  0  0  0  0  0  0  0
    3.1112   57.7610   71.7234 H   0  0  0  0  0  0  0  0  0  0  0  0
    4.9605   58.9762   69.3637 H   0  0  0  0  0  0  0  0  0  0  0  0
    1.9664   62.6511   69.9774 H   0  0  0  0  0  0  0  0  0  0  0  0
  2  1  1  0
  3  2  1  0
  4  3  1  0
  5  4  1  0
  6  1  1  0
  6  5  2  0
  7  5  1  0
  8  7  1  0
  9  8  1  0
 10  9  1  0
 10  4  1  0
 11 10  1  0
 12 11  1  0
 13 12  1  0
 14 13  1  0
 14  9  1  0
 15 14  1  0
 16 15  1  0
 17 16  1  0
 17 13  1  0
 13 18  1  1
  4 19  1  1
 20 17  1  0
 21 20  1  0
 22 21  2  0
 23 22  1  0
 24 23  2  0
 25 23  1  0
 26 25  1  0
 26 20  2  0
 14 27  1  1
 28  1  1  0
 30 29  1  0
 30 28  1  0
 31 30  1  0
 32 31  1  0
 33 32  1  0
 34 33  1  0
 34 29  1  0
 35 32  1  0
 36 29  1  0
 37 34  1  0
 38 33  1  0
  1 39  1  6
  2 40  1  0
  2 41  1  0
  3 42  1  0
  3 43  1  0
  6 44  1  0
  7 45  1  0
  7 46  1  0
  8 47  1  0
  8 48  1  0
  9 49  1  1
 10 50  1  6
 11 51  1  0
 11 52  1  0
 12 53  1  0
 12 54  1  0
 15 55  1  0
 15 56  1  0
 16 57  1  0
 16 58  1  0
 17 59  1  6
 18 60  1  0
 18 61  1  0
 18 62  1  0
 19 63  1  0
 19 64  1  0
 19 65  1  0
 21 66  1  0
 22 67  1  0
 26 68  1  0
 27 69  1  0
 29 70  1  1
 30 71  1  1
 32 72  1  1
 33 73  1  6
 34 74  1  6
 35 75  1  0
 35 76  1  0
 35 77  1  0
 36 78  1  0
 37 79  1  0
 38 80  1  0
M  END
>  <score>  (8) 
-7.803

$$$$
=
     RDKit          3D

 80 85  0  0  0  0  0  0  0  0999 V2000
    0.0680   62.9040   73.6120 C   0  0  1  0  0  0  0  0  0  0  0  0
   -0.6240   61.9400   72.6510 C   0  0  0  0  0  0  0  0  0  0  0  0
   -1.5610   61.0020   73.4060 C   0  0  0  0  0  0  0  0  0  0  0  0
   -0.8170   60.1270   74.4650 C   0  0  1  0  0  0  0  0  0  0  0  0
    0.2310   60.9590   75.2110 C   0  0  0  0  0  0  0  0  0  0  0  0
    0.5980   62.1970   74.8270 C   0  0  0  0  0  0  0  0  0  0  0  0
    0.8620   60.3080   76.4150 C   0  0  0  0  0  0  0  0  0  0  0  0
   -0.1990   59.8380   77.4010 C   0  0  0  0  0  0  0  0  0  0  0  0
   -1.2390   58.9010   76.7430 C   0  0  2  0  0  0  0  0  0  0  0  0
   -1.8760   59.5810   75.4990 C   0  0  2  0  0  0  0  0  0  0  0  0
   -2.9670   58.7050   74.8430 C   0  0  0  0  0  0  0  0  0  0  0  0
   -3.2640   57.4080   75.5860 C   0  0  0  0  0  0  0  0  0  0  0  0
   -3.4810   57.5740   77.1040 C   0  0  1  0  0  0  0  0  0  0  0  0
   -2.3060   58.4010   77.7650 C   0  0  2  0  0  0  0  0  0  0  0  0
   -2.9910   59.5330   78.5640 C   0  0  0  0  0  0  0  0  0  0  0  0
   -4.4100   59.0390   78.8000 C   0  0  0  0  0  0  0  0  0  0  0  0
   -4.7630   58.4170   77.4430 C   0  0  2  0  0  0  0  0  0  0  0  0
   -3.5880   56.1440   77.6940 C   0  0  0  0  0  0  0  0  0  0  0  0
   -0.0710   58.9850   73.7310 C   0  0  0  0  0  0  0  0  0  0  0  0
   -6.1100   57.7200   77.3710 C   0  0  0  0  0  0  0  0  0  0  0  0
   -6.6800   57.2200   78.6030 C   0  0  0  0  0  0  0  0  0  0  0  0
   -7.8550   56.5810   78.6060 C   0  0  0  0  0  0  0  0  0  0  0  0
   -8.6030   56.3570   77.3570 C   0  0  0  0  0  0  0  0  0  0  0  0
   -9.6840   55.7770   77.3770 O   0  0  0  0  0  0  0  0  0  0  0  0
   -8.0320   56.8140   76.2010 O   0  0  0  0  0  0  0  0  0  0  0  0
   -6.7960   57.4800   76.2450 C   0  0  0  0  0  0  0  0  0  0  0  0
   -1.6260   57.5680   78.7170 O   0  0  0  0  0  0  0  0  0  0  0  0
    1.1720   63.4840   72.9180 O   0  0  0  0  0  0  0  0  0  0  0  0
    1.9350   63.7790   70.6500 C   0  0  1  0  0  0  0  0  0  0  0  0
    1.5330   62.7520   71.7420 C   0  0  1  0  0  0  0  0  0  0  0  0
    2.5680   61.8180   72.0620 O   0  0  0  0  0  0  0  0  0  0  0  0
    3.8710   62.3840   71.9480 C   0  0  2  0  0  0  0  0  0  0  0  0
    4.1950   62.6270   70.4620 C   0  0  1  0  0  0  0  0  0  0  0  0
    2.9890   63.2080   69.6970 C   0  0  1  0  0  0  0  0  0  0  0  0
    4.8660   61.4160   72.5810 C   0  0  0  0  0  0  0  0  0  0  0  0
    0.7890   64.1930   69.8850 O   0  0  0  0  0  0  0  0  0  0  0  0
    2.3500   62.2030   68.8880 O   0  0  0  0  0  0  0  0  0  0  0  0
    5.3270   63.4940   70.3350 O   0  0  0  0  0  0  0  0  0  0  0  0
   -0.6612   63.6575   73.9444 H   0  0  0  0  0  0  0  0  0  0  0  0
   -1.2058   62.5175   71.9176 H   0  0  0  0  0  0  0  0  0  0  0  0
    0.1432   61.3378   72.1423 H   0  0  0  0  0  0  0  0  0  0  0  0
   -2.3225   61.6057   73.9213 H   0  0  0  0  0  0  0  0  0  0  0  0
   -2.0109   60.3198   72.6697 H   0  0  0  0  0  0  0  0  0  0  0  0
    1.3369   62.7269   75.4460 H   0  0  0  0  0  0  0  0  0  0  0  0
    1.4557   59.4424   76.0859 H   0  0  0  0  0  0  0  0  0  0  0  0
    1.5034   61.0474   76.9169 H   0  0  0  0  0  0  0  0  0  0  0  0
    0.2954   59.2969   78.2212 H   0  0  0  0  0  0  0  0  0  0  0  0
   -0.7326   60.7265   77.7695 H   0  0  0  0  0  0  0  0  0  0  0  0
   -0.7135   58.0000   76.3937 H   0  0  0  0  0  0  0  0  0  0  0  0
   -2.3869   60.4776   75.8798 H   0  0  0  0  0  0  0  0  0  0  0  0
   -3.8955   59.2926   74.7920 H   0  0  0  0  0  0  0  0  0  0  0  0
   -2.5857   58.4187   73.8517 H   0  0  0  0  0  0  0  0  0  0  0  0
   -4.1748   56.9665   75.1553 H   0  0  0  0  0  0  0  0  0  0  0  0
   -2.3768   56.7690   75.4655 H   0  0  0  0  0  0  0  0  0  0  0  0
   -2.4745   59.6991   79.5209 H   0  0  0  0  0  0  0  0  0  0  0  0
   -2.9696   60.4923   78.0261 H   0  0  0  0  0  0  0  0  0  0  0  0
   -4.4432   58.2889   79.6039 H   0  0  0  0  0  0  0  0  0  0  0  0
   -5.1062   59.8283   79.1198 H   0  0  0  0  0  0  0  0  0  0  0  0
   -4.9635   59.1617   76.6586 H   0  0  0  0  0  0  0  0  0  0  0  0
   -3.5839   56.1994   78.7926 H   0  0  0  0  0  0  0  0  0  0  0  0
   -4.5237   55.6761   77.3540 H   0  0  0  0  0  0  0  0  0  0  0  0
   -2.7324   55.5421   77.3540 H   0  0  0  0  0  0  0  0  0  0  0  0
    0.3743   58.3033   74.4705 H   0  0  0  0  0  0  0  0  0  0  0  0
   -0.7807   58.4292   73.1006 H   0  0  0  0  0  0  0  0  0  0  0  0
    0.7231   59.4116   73.1006 H   0  0  0  0  0  0  0  0  0  0  0  0
   -6.1399   57.3673   79.5499 H   0  0  0  0  0  0  0  0  0  0  0  0
   -8.2698   56.2166   79.5574 H   0  0  0  0  0  0  0  0  0  0  0  0
   -6.3637   57.8266   75.2948 H   0  0  0  0  0  0  0  0  0  0  0  0
   -1.8610   57.8559   79.6346 H   0  0  0  0  0  0  0  0  0  0  0  0
    2.3619   64.6471   71.1736 H   0  0  0  0  0  0  0  0  0  0  0  0
    0.6957   62.1558   71.3503 H   0  0  0  0  0  0  0  0  0  0  0  0
    3.9283   63.3515   72.4683 H   0  0  0  0  0  0  0  0  0  0  0  0
    4.4336   61.6517   70.0127 H   0  0  0  0  0  0  0  0  0  0  0  0
    3.3892   64.0109   69.0604 H   0  0  0  0  0  0  0  0  0  0  0  0
    4.7967   61.4834   73.6767 H   0  0  0  0  0  0  0  0  0  0  0  0
    4.6330   60.3896   72.2613 H   0  0  0  0  0  0  0  0  0  0  0  0
    5.8856   61.6771   72.2613 H   0  0  0  0  0  0  0  0  0  0  0  0
    0.0594   64.4566   70.5000 H   0  0  0  0  0  0  0  0  0  0  0  0
    1.9221   61.5301   69.4747 H   0  0  0  0  0  0  0  0  0  0  0  0
    5.6537   63.7442   71.2354 H   0  0  0  0  0  0  0  0  0  0  0  0
  2  1  1  0
  3  2  1  0
  4  3  1  0
  5  4  1  0
  6  1  1  0
  6  5  2  0
  7  5  1  0
  8  7  1  0
  9  8  1  0
 10  9  1  0
 10  4  1  0
 11 10  1  0
 12 11  1  0
 13 12  1  0
 14 13  1  0
 14  9  1  0
 15 14  1  0
 16 15  1  0
 17 16  1  0
 17 13  1  0
 13 18  1  1
  4 19  1  6
 20 17  1  0
 21 20  1  0
 22 21  2  0
 23 22  1  0
 24 23  2  0
 25 23  1  0
 26 25  1  0
 26 20  2  0
 14 27  1  1
 28  1  1  0
 30 29  1  0
 30 28  1  0
 31 30  1  0
 32 31  1  0
 33 32  1  0
 34 33  1  0
 34 29  1  0
 35 32  1  0
 36 29  1  0
 37 34  1  0
 38 33  1  0
  1 39  1  1
  2 40  1  0
  2 41  1  0
  3 42  1  0
  3 43  1  0
  6 44  1  0
  7 45  1  0
  7 46  1  0
  8 47  1  0
  8 48  1  0
  9 49  1  6
 10 50  1  1
 11 51  1  0
 11 52  1  0
 12 53  1  0
 12 54  1  0
 15 55  1  0
 15 56  1  0
 16 57  1  0
 16 58  1  0
 17 59  1  6
 18 60  1  0
 18 61  1  0
 18 62  1  0
 19 63  1  0
 19 64  1  0
 19 65  1  0
 21 66  1  0
 22 67  1  0
 26 68  1  0
 27 69  1  0
 29 70  1  1
 30 71  1  6
 32 72  1  1
 33 73  1  6
 34 74  1  6
 35 75  1  0
 35 76  1  0
 35 77  1  0
 36 78  1  0
 37 79  1  0
 38 80  1  0
M  END
>  <score>  (9) 
-7.771

$$$$
