=
     RDKit          3D

 40 42  0  0  0  0  0  0  0  0999 V2000
    1.6750   69.7650   67.8650 C   0  0  0  0  0  0  0  0  0  0  0  0
    1.9540   67.3860   69.5720 O   0  0  0  0  0  0  0  0  0  0  0  0
    0.9840   67.6200   68.8830 C   0  0  0  0  0  0  0  0  0  0  0  0
   -0.2480   66.6960   68.7370 C   0  0  0  0  0  0  0  0  0  0  0  0
   -0.4450   65.6440   69.3010 O   0  0  0  0  0  0  0  0  0  0  0  0
   -1.1140   67.3490   67.7590 C   0  0  0  0  0  0  0  0  0  0  0  0
   -0.4880   68.5350   67.3760 C   0  0  0  0  0  0  0  0  0  0  0  0
    0.7300   68.7040   68.0630 N   0  0  0  0  0  0  0  0  0  0  0  0
   -1.0810   69.3540   66.4330 C   0  0  0  0  0  0  0  0  0  0  0  0
   -2.3120   68.9550   65.8920 C   0  0  0  0  0  0  0  0  0  0  0  0
   -2.9280   67.7550   66.2930 C   0  0  0  0  0  0  0  0  0  0  0  0
   -2.3250   66.9290   67.2420 C   0  0  0  0  0  0  0  0  0  0  0  0
    2.9800   69.2360   67.5140 N   0  0  0  0  0  0  0  0  0  0  0  0
    3.4750   69.2520   66.2030 C   0  0  0  0  0  0  0  0  0  0  0  0
    2.7220   68.8410   65.0920 C   0  0  0  0  0  0  0  0  0  0  0  0
    3.2520   68.8130   63.7890 C   0  0  0  0  0  0  0  0  0  0  0  0
    2.3700   68.3790   62.6480 C   0  0  0  0  0  0  0  0  0  0  0  0
    4.5830   69.2020   63.5780 C   0  0  0  0  0  0  0  0  0  0  0  0
    5.3580   69.5780   64.6810 C   0  0  0  0  0  0  0  0  0  0  0  0
    4.8270   69.5910   65.9850 C   0  0  0  0  0  0  0  0  0  0  0  0
    5.7350   69.9790   67.1230 C   0  0  0  0  0  0  0  0  0  0  0  0
    5.2010   69.1940   62.2070 C   0  0  0  0  0  0  0  0  0  0  0  0
    1.3201   70.4168   67.0531 H   0  0  0  0  0  0  0  0  0  0  0  0
    1.7664   70.3342   68.8018 H   0  0  0  0  0  0  0  0  0  0  0  0
   -0.6011   70.2917   66.1161 H   0  0  0  0  0  0  0  0  0  0  0  0
   -2.8043   69.5909   65.1415 H   0  0  0  0  0  0  0  0  0  0  0  0
   -3.8942   67.4655   65.8540 H   0  0  0  0  0  0  0  0  0  0  0  0
   -2.7920   65.9866   67.5640 H   0  0  0  0  0  0  0  0  0  0  0  0
    3.5662   68.8324   68.2586 H   0  0  0  0  0  0  0  0  0  0  0  0
    1.6784   68.5291   65.2458 H   0  0  0  0  0  0  0  0  0  0  0  0
    1.4503   67.9264   63.0471 H   0  0  0  0  0  0  0  0  0  0  0  0
    2.1112   69.2527   62.0318 H   0  0  0  0  0  0  0  0  0  0  0  0
    2.9043   67.6409   62.0318 H   0  0  0  0  0  0  0  0  0  0  0  0
    6.4070   69.8703   64.5255 H   0  0  0  0  0  0  0  0  0  0  0  0
    5.2357   69.7656   68.0796 H   0  0  0  0  0  0  0  0  0  0  0  0
    6.6691   69.4014   67.0601 H   0  0  0  0  0  0  0  0  0  0  0  0
    5.9632   71.0532   67.0601 H   0  0  0  0  0  0  0  0  0  0  0  0
    6.2971   69.1798   62.2990 H   0  0  0  0  0  0  0  0  0  0  0  0
    4.8674   68.3001   61.6596 H   0  0  0  0  0  0  0  0  0  0  0  0
    4.8906   70.0962   61.6596 H   0  0  0  0  0  0  0  0  0  0  0  0
  3  2  2  0
  4  3  1  0
  5  4  2  0
  6  4  1  0
  7  6  2  0
  8  7  1  0
  8  3  1  0
  8  1  1  0
  9  7  1  0
 10  9  2  0
 11 10  1  0
 12 11  2  0
 12  6  1  0
 13  1  1  0
 14 13  1  0
 15 14  2  0
 16 15  1  0
 17 16  1  0
 18 16  2  0
 19 18  1  0
 20 19  2  0
 20 14  1  0
 21 20  1  0
 22 18  1  0
  1 23  1  0
  1 24  1  0
  9 25  1  0
 10 26  1  0
 11 27  1  0
 12 28  1  0
 13 29  1  0
 15 30  1  0
 17 31  1  0
 17 32  1  0
 17 33  1  0
 19 34  1  0
 21 35  1  0
 21 36  1  0
 21 37  1  0
 22 38  1  0
 22 39  1  0
 22 40  1  0
M  END
>  <score>  (1) 
-10.365

$$$$
=
     RDKit          3D

 40 42  0  0  0  0  0  0  0  0999 V2000
    2.2720   67.7700   64.9100 C   0  0  0  0  0  0  0  0  0  0  0  0
   -0.0800   69.0130   63.6550 O   0  0  0  0  0  0  0  0  0  0  0  0
   -0.0890   68.4840   64.7460 C   0  0  0  0  0  0  0  0  0  0  0  0
   -1.3140   68.4120   65.6890 C   0  0  0  0  0  0  0  0  0  0  0  0
   -2.4290   68.8280   65.4740 O   0  0  0  0  0  0  0  0  0  0  0  0
   -0.8350   67.7560   66.9030 C   0  0  0  0  0  0  0  0  0  0  0  0
    0.5120   67.4500   66.7060 C   0  0  0  0  0  0  0  0  0  0  0  0
    0.9360   67.8530   65.4260 N   0  0  0  0  0  0  0  0  0  0  0  0
    1.2330   66.8360   67.7130 C   0  0  0  0  0  0  0  0  0  0  0  0
    0.5690   66.5350   68.9120 C   0  0  0  0  0  0  0  0  0  0  0  0
   -0.7910   66.8500   69.0900 C   0  0  0  0  0  0  0  0  0  0  0  0
   -1.5140   67.4730   68.0730 C   0  0  0  0  0  0  0  0  0  0  0  0
    2.8940   69.0810   64.8730 N   0  0  0  0  0  0  0  0  0  0  0  0
    3.8550   69.4890   65.8070 C   0  0  0  0  0  0  0  0  0  0  0  0
    3.5480   69.7950   67.1420 C   0  0  0  0  0  0  0  0  0  0  0  0
    4.5160   70.2540   68.0540 C   0  0  0  0  0  0  0  0  0  0  0  0
    4.1070   70.5390   69.4750 C   0  0  0  0  0  0  0  0  0  0  0  0
    5.8400   70.4230   67.6260 C   0  0  0  0  0  0  0  0  0  0  0  0
    6.1540   70.1590   66.2870 C   0  0  0  0  0  0  0  0  0  0  0  0
    5.1790   69.7130   65.3760 C   0  0  0  0  0  0  0  0  0  0  0  0
    5.5910   69.4790   63.9450 C   0  0  0  0  0  0  0  0  0  0  0  0
    6.9170   70.9090   68.5570 C   0  0  0  0  0  0  0  0  0  0  0  0
    2.8670   67.1069   65.5552 H   0  0  0  0  0  0  0  0  0  0  0  0
    2.2296   67.3715   63.8856 H   0  0  0  0  0  0  0  0  0  0  0  0
    2.2967   66.5904   67.5783 H   0  0  0  0  0  0  0  0  0  0  0  0
    1.1212   66.0442   69.7270 H   0  0  0  0  0  0  0  0  0  0  0  0
   -1.2881   66.6027   70.0396 H   0  0  0  0  0  0  0  0  0  0  0  0
   -2.5770   67.7277   68.1966 H   0  0  0  0  0  0  0  0  0  0  0  0
    2.6175   69.7381   64.1296 H   0  0  0  0  0  0  0  0  0  0  0  0
    2.5113   69.6713   67.4883 H   0  0  0  0  0  0  0  0  0  0  0  0
    4.8103   70.0489   70.1643 H   0  0  0  0  0  0  0  0  0  0  0  0
    4.1194   71.6250   69.6493 H   0  0  0  0  0  0  0  0  0  0  0  0
    3.0925   70.1512   69.6493 H   0  0  0  0  0  0  0  0  0  0  0  0
    7.1875   70.3038   65.9392 H   0  0  0  0  0  0  0  0  0  0  0  0
    6.5473   68.9359   63.9229 H   0  0  0  0  0  0  0  0  0  0  0  0
    4.8196   68.8842   63.4339 H   0  0  0  0  0  0  0  0  0  0  0  0
    5.7067   70.4462   63.4339 H   0  0  0  0  0  0  0  0  0  0  0  0
    6.5945   70.7635   69.5985 H   0  0  0  0  0  0  0  0  0  0  0  0
    7.8415   70.3408   68.3766 H   0  0  0  0  0  0  0  0  0  0  0  0
    7.1026   71.9781   68.3766 H   0  0  0  0  0  0  0  0  0  0  0  0
  3  2  2  0
  4  3  1  0
  5  4  2  0
  6  4  1  0
  7  6  2  0
  8  7  1  0
  8  3  1  0
  8  1  1  0
  9  7  1  0
 10  9  2  0
 11 10  1  0
 12 11  2  0
 12  6  1  0
 13  1  1  0
 14 13  1  0
 15 14  2  0
 16 15  1  0
 17 16  1  0
 18 16  2  0
 19 18  1  0
 20 19  2  0
 20 14  1  0
 21 20  1  0
 22 18  1  0
  1 23  1  0
  1 24  1  0
  9 25  1  0
 10 26  1  0
 11 27  1  0
 12 28  1  0
 13 29  1  0
 15 30  1  0
 17 31  1  0
 17 32  1  0
 17 33  1  0
 19 34  1  0
 21 35  1  0
 21 36  1  0
 21 37  1  0
 22 38  1  0
 22 39  1  0
 22 40  1  0
M  END
>  <score>  (2) 
-10.082

$$$$
=
     RDKit          3D

 40 42  0  0  0  0  0  0  0  0999 V2000
    2.5300   70.1280   68.3220 C   0  0  0  0  0  0  0  0  0  0  0  0
    5.2400   70.7780   69.2620 O   0  0  0  0  0  0  0  0  0  0  0  0
    4.9900   70.3250   68.1660 C   0  0  0  0  0  0  0  0  0  0  0  0
    6.0320   70.0580   67.0540 C   0  0  0  0  0  0  0  0  0  0  0  0
    7.2290   70.2200   67.1190 O   0  0  0  0  0  0  0  0  0  0  0  0
    5.2650   69.5900   65.9020 C   0  0  0  0  0  0  0  0  0  0  0  0
    3.9230   69.5590   66.2820 C   0  0  0  0  0  0  0  0  0  0  0  0
    3.7710   69.9630   67.6220 N   0  0  0  0  0  0  0  0  0  0  0  0
    2.9590   69.1690   65.3710 C   0  0  0  0  0  0  0  0  0  0  0  0
    3.3760   68.8100   64.0800 C   0  0  0  0  0  0  0  0  0  0  0  0
    4.7350   68.8470   63.7180 C   0  0  0  0  0  0  0  0  0  0  0  0
    5.7050   69.2440   64.6390 C   0  0  0  0  0  0  0  0  0  0  0  0
    2.0260   68.8490   68.7890 N   0  0  0  0  0  0  0  0  0  0  0  0
    0.8300   68.2910   68.3190 C   0  0  0  0  0  0  0  0  0  0  0  0
    0.0210   68.9090   67.3530 C   0  0  0  0  0  0  0  0  0  0  0  0
   -1.2050   68.3600   66.9300 C   0  0  0  0  0  0  0  0  0  0  0  0
   -2.0020   69.0760   65.8730 C   0  0  0  0  0  0  0  0  0  0  0  0
   -1.6490   67.1540   67.4920 C   0  0  0  0  0  0  0  0  0  0  0  0
   -0.8720   66.5470   68.4850 C   0  0  0  0  0  0  0  0  0  0  0  0
    0.3460   67.1070   68.9130 C   0  0  0  0  0  0  0  0  0  0  0  0
    1.1090   66.4060   70.0080 C   0  0  0  0  0  0  0  0  0  0  0  0
   -2.9490   66.5210   67.0780 C   0  0  0  0  0  0  0  0  0  0  0  0
    2.6889   70.7900   69.1860 H   0  0  0  0  0  0  0  0  0  0  0  0
    1.7929   70.5665   67.6332 H   0  0  0  0  0  0  0  0  0  0  0  0
    1.8954   69.1409   65.6501 H   0  0  0  0  0  0  0  0  0  0  0  0
    2.6274   68.4943   63.3384 H   0  0  0  0  0  0  0  0  0  0  0  0
    5.0356   68.5603   62.6995 H   0  0  0  0  0  0  0  0  0  0  0  0
    6.7714   69.2799   64.3716 H   0  0  0  0  0  0  0  0  0  0  0  0
    2.5696   68.3311   69.4941 H   0  0  0  0  0  0  0  0  0  0  0  0
    0.3571   69.8579   66.9096 H   0  0  0  0  0  0  0  0  0  0  0  0
   -2.7380   69.7372   66.3538 H   0  0  0  0  0  0  0  0  0  0  0  0
   -1.3250   69.6752   65.2463 H   0  0  0  0  0  0  0  0  0  0  0  0
   -2.5255   68.3389   65.2463 H   0  0  0  0  0  0  0  0  0  0  0  0
   -1.2217   65.6095   68.9420 H   0  0  0  0  0  0  0  0  0  0  0  0
    0.7399   66.7452   70.9871 H   0  0  0  0  0  0  0  0  0  0  0  0
    0.9643   65.3193   69.9179 H   0  0  0  0  0  0  0  0  0  0  0  0
    2.1796   66.6421   69.9179 H   0  0  0  0  0  0  0  0  0  0  0  0
   -3.5226   66.2417   67.9741 H   0  0  0  0  0  0  0  0  0  0  0  0
   -3.5308   67.2367   66.4786 H   0  0  0  0  0  0  0  0  0  0  0  0
   -2.7444   65.6217   66.4786 H   0  0  0  0  0  0  0  0  0  0  0  0
  3  2  2  0
  4  3  1  0
  5  4  2  0
  6  4  1  0
  7  6  2  0
  8  7  1  0
  8  3  1  0
  8  1  1  0
  9  7  1  0
 10  9  2  0
 11 10  1  0
 12 11  2  0
 12  6  1  0
 13  1  1  0
 14 13  1  0
 15 14  2  0
 16 15  1  0
 17 16  1  0
 18 16  2  0
 19 18  1  0
 20 19  2  0
 20 14  1  0
 21 20  1  0
 22 18  1  0
  1 23  1  0
  1 24  1  0
  9 25  1  0
 10 26  1  0
 11 27  1  0
 12 28  1  0
 13 29  1  0
 15 30  1  0
 17 31  1  0
 17 32  1  0
 17 33  1  0
 19 34  1  0
 21 35  1  0
 21 36  1  0
 21 37  1  0
 22 38  1  0
 22 39  1  0
 22 40  1  0
M  END
>  <score>  (3) 
-9.98

$$$$
=
     RDKit          3D

 40 42  0  0  0  0  0  0  0  0999 V2000
    2.0840   67.7280   65.3630 C   0  0  0  0  0  0  0  0  0  0  0  0
    1.8630   66.4810   68.0170 O   0  0  0  0  0  0  0  0  0  0  0  0
    0.9460   67.0270   67.4430 C   0  0  0  0  0  0  0  0  0  0  0  0
   -0.5050   67.1220   67.9720 C   0  0  0  0  0  0  0  0  0  0  0  0
   -0.9280   66.7100   69.0280 O   0  0  0  0  0  0  0  0  0  0  0  0
   -1.2620   67.7950   66.9190 C   0  0  0  0  0  0  0  0  0  0  0  0
   -0.3700   68.0890   65.8880 C   0  0  0  0  0  0  0  0  0  0  0  0
    0.9320   67.6630   66.2140 N   0  0  0  0  0  0  0  0  0  0  0  0
   -0.8240   68.7140   64.7420 C   0  0  0  0  0  0  0  0  0  0  0  0
   -2.1870   69.0380   64.6610 C   0  0  0  0  0  0  0  0  0  0  0  0
   -3.0700   68.7350   65.7140 C   0  0  0  0  0  0  0  0  0  0  0  0
   -2.6090   68.1000   66.8670 C   0  0  0  0  0  0  0  0  0  0  0  0
    2.6240   69.0750   65.3260 N   0  0  0  0  0  0  0  0  0  0  0  0
    3.6740   69.4910   66.1550 C   0  0  0  0  0  0  0  0  0  0  0  0
    3.4940   69.8530   67.4990 C   0  0  0  0  0  0  0  0  0  0  0  0
    4.5510   70.3190   68.3040 C   0  0  0  0  0  0  0  0  0  0  0  0
    4.2770   70.6670   69.7430 C   0  0  0  0  0  0  0  0  0  0  0  0
    5.8350   70.4380   67.7530 C   0  0  0  0  0  0  0  0  0  0  0  0
    6.0220   70.1180   66.4030 C   0  0  0  0  0  0  0  0  0  0  0  0
    4.9590   69.6640   65.6000 C   0  0  0  0  0  0  0  0  0  0  0  0
    5.2360   69.3680   64.1480 C   0  0  0  0  0  0  0  0  0  0  0  0
    7.0010   70.9290   68.5660 C   0  0  0  0  0  0  0  0  0  0  0  0
    2.8537   67.0416   65.7455 H   0  0  0  0  0  0  0  0  0  0  0  0
    1.7855   67.4404   64.3441 H   0  0  0  0  0  0  0  0  0  0  0  0
   -0.1364   68.9508   63.9167 H   0  0  0  0  0  0  0  0  0  0  0  0
   -2.5716   69.5371   63.7594 H   0  0  0  0  0  0  0  0  0  0  0  0
   -4.1337   69.0015   65.6269 H   0  0  0  0  0  0  0  0  0  0  0  0
   -3.2868   67.8531   67.6974 H   0  0  0  0  0  0  0  0  0  0  0  0
    2.2190   69.7520   64.6638 H   0  0  0  0  0  0  0  0  0  0  0  0
    2.4897   69.7695   67.9399 H   0  0  0  0  0  0  0  0  0  0  0  0
    4.8234   69.9730   70.3985 H   0  0  0  0  0  0  0  0  0  0  0  0
    4.6093   71.6967   69.9409 H   0  0  0  0  0  0  0  0  0  0  0  0
    3.1980   70.5855   69.9409 H   0  0  0  0  0  0  0  0  0  0  0  0
    7.0231   70.2239   65.9595 H   0  0  0  0  0  0  0  0  0  0  0  0
    5.9859   68.5667   64.0737 H   0  0  0  0  0  0  0  0  0  0  0  0
    4.3063   69.0470   63.6554 H   0  0  0  0  0  0  0  0  0  0  0  0
    5.6179   70.2744   63.6554 H   0  0  0  0  0  0  0  0  0  0  0  0
    6.7686   70.8311   69.6367 H   0  0  0  0  0  0  0  0  0  0  0  0
    7.8922   70.3298   68.3280 H   0  0  0  0  0  0  0  0  0  0  0  0
    7.1951   71.9853   68.3280 H   0  0  0  0  0  0  0  0  0  0  0  0
  3  2  2  0
  4  3  1  0
  5  4  2  0
  6  4  1  0
  7  6  2  0
  8  7  1  0
  8  3  1  0
  8  1  1  0
  9  7  1  0
 10  9  2  0
 11 10  1  0
 12 11  2  0
 12  6  1  0
 13  1  1  0
 14 13  1  0
 15 14  2  0
 16 15  1  0
 17 16  1  0
 18 16  2  0
 19 18  1  0
 20 19  2  0
 20 14  1  0
 21 20  1  0
 22 18  1  0
  1 23  1  0
  1 24  1  0
  9 25  1  0
 10 26  1  0
 11 27  1  0
 12 28  1  0
 13 29  1  0
 15 30  1  0
 17 31  1  0
 17 32  1  0
 17 33  1  0
 19 34  1  0
 21 35  1  0
 21 36  1  0
 21 37  1  0
 22 38  1  0
 22 39  1  0
 22 40  1  0
M  END
>  <score>  (4) 
-9.698

$$$$
=
     RDKit          3D

 40 42  0  0  0  0  0  0  0  0999 V2000
    1.9010   68.2030   65.9960 C   0  0  0  0  0  0  0  0  0  0  0  0
    1.8550   68.9520   63.1520 O   0  0  0  0  0  0  0  0  0  0  0  0
    0.8630   68.8040   63.8340 C   0  0  0  0  0  0  0  0  0  0  0  0
   -0.5900   69.0310   63.3530 C   0  0  0  0  0  0  0  0  0  0  0  0
   -0.9520   69.3450   62.2430 O   0  0  0  0  0  0  0  0  0  0  0  0
   -1.4300   68.8070   64.5260 C   0  0  0  0  0  0  0  0  0  0  0  0
   -0.5860   68.4660   65.5830 C   0  0  0  0  0  0  0  0  0  0  0  0
    0.7570   68.4360   65.1630 N   0  0  0  0  0  0  0  0  0  0  0  0
   -1.1170   68.2170   66.8350 C   0  0  0  0  0  0  0  0  0  0  0  0
   -2.5070   68.3140   66.9950 C   0  0  0  0  0  0  0  0  0  0  0  0
   -3.3410   68.6580   65.9160 C   0  0  0  0  0  0  0  0  0  0  0  0
   -2.8020   68.9120   64.6550 C   0  0  0  0  0  0  0  0  0  0  0  0
    3.0730   68.8730   65.4650 N   0  0  0  0  0  0  0  0  0  0  0  0
    4.0580   69.4390   66.2860 C   0  0  0  0  0  0  0  0  0  0  0  0
    3.8290   69.8020   67.6220 C   0  0  0  0  0  0  0  0  0  0  0  0
    4.8130   70.4180   68.4170 C   0  0  0  0  0  0  0  0  0  0  0  0
    4.4930   70.7570   69.8490 C   0  0  0  0  0  0  0  0  0  0  0  0
    6.0740   70.6900   67.8650 C   0  0  0  0  0  0  0  0  0  0  0  0
    6.3040   70.3680   66.5230 C   0  0  0  0  0  0  0  0  0  0  0  0
    5.3120   69.7650   65.7280 C   0  0  0  0  0  0  0  0  0  0  0  0
    5.6290   69.4780   64.2830 C   0  0  0  0  0  0  0  0  0  0  0  0
    7.1640   71.3440   68.6680 C   0  0  0  0  0  0  0  0  0  0  0  0
    1.6945   68.5853   67.0066 H   0  0  0  0  0  0  0  0  0  0  0  0
    2.0985   67.1213   66.0273 H   0  0  0  0  0  0  0  0  0  0  0  0
   -0.4676   67.9503   67.6818 H   0  0  0  0  0  0  0  0  0  0  0  0
   -2.9526   68.1177   67.9814 H   0  0  0  0  0  0  0  0  0  0  0  0
   -4.4282   68.7273   66.0680 H   0  0  0  0  0  0  0  0  0  0  0  0
   -3.4403   69.1837   63.8013 H   0  0  0  0  0  0  0  0  0  0  0  0
    3.1859   68.9353   64.4431 H   0  0  0  0  0  0  0  0  0  0  0  0
    2.8430   69.5972   68.0645 H   0  0  0  0  0  0  0  0  0  0  0  0
    5.0920   70.1224   70.5187 H   0  0  0  0  0  0  0  0  0  0  0  0
    4.7297   71.8146   70.0371 H   0  0  0  0  0  0  0  0  0  0  0  0
    3.4235   70.5816   70.0371 H   0  0  0  0  0  0  0  0  0  0  0  0
    7.2849   70.5919   66.0783 H   0  0  0  0  0  0  0  0  0  0  0  0
    6.4433   68.7407   64.2257 H   0  0  0  0  0  0  0  0  0  0  0  0
    4.7347   69.0761   63.7843 H   0  0  0  0  0  0  0  0  0  0  0  0
    5.9403   70.4077   63.7843 H   0  0  0  0  0  0  0  0  0  0  0  0
    6.9549   71.2185   69.7406 H   0  0  0  0  0  0  0  0  0  0  0  0
    8.1294   70.8758   68.4254 H   0  0  0  0  0  0  0  0  0  0  0  0
    7.2052   72.4161   68.4254 H   0  0  0  0  0  0  0  0  0  0  0  0
  3  2  2  0
  4  3  1  0
  5  4  2  0
  6  4  1  0
  7  6  2  0
  8  7  1  0
  8  3  1  0
  8  1  1  0
  9  7  1  0
 10  9  2  0
 11 10  1  0
 12 11  2  0
 12  6  1  0
 13  1  1  0
 14 13  1  0
 15 14  2  0
 16 15  1  0
 17 16  1  0
 18 16  2  0
 19 18  1  0
 20 19  2  0
 20 14  1  0
 21 20  1  0
 22 18  1  0
  1 23  1  0
  1 24  1  0
  9 25  1  0
 10 26  1  0
 11 27  1  0
 12 28  1  0
 13 29  1  0
 15 30  1  0
 17 31  1  0
 17 32  1  0
 17 33  1  0
 19 34  1  0
 21 35  1  0
 21 36  1  0
 21 37  1  0
 22 38  1  0
 22 39  1  0
 22 40  1  0
M  END
>  <score>  (5) 
-9.38

$$$$
=
     RDKit          3D

 40 42  0  0  0  0  0  0  0  0999 V2000
    1.7060   68.3690   66.1430 C   0  0  0  0  0  0  0  0  0  0  0  0
   -1.2140   68.3500   66.4970 O   0  0  0  0  0  0  0  0  0  0  0  0
   -0.6570   68.5870   65.4470 C   0  0  0  0  0  0  0  0  0  0  0  0
   -1.3710   68.8680   64.1040 C   0  0  0  0  0  0  0  0  0  0  0  0
   -2.5640   68.9300   63.9080 O   0  0  0  0  0  0  0  0  0  0  0  0
   -0.3050   69.0200   63.1170 C   0  0  0  0  0  0  0  0  0  0  0  0
    0.9080   68.8700   63.7890 C   0  0  0  0  0  0  0  0  0  0  0  0
    0.6960   68.6460   65.1630 N   0  0  0  0  0  0  0  0  0  0  0  0
    2.0970   68.9460   63.0890 C   0  0  0  0  0  0  0  0  0  0  0  0
    2.0370   69.1800   61.7070 C   0  0  0  0  0  0  0  0  0  0  0  0
    0.8030   69.3310   61.0480 C   0  0  0  0  0  0  0  0  0  0  0  0
   -0.3950   69.2500   61.7570 C   0  0  0  0  0  0  0  0  0  0  0  0
    3.0230   68.7080   65.6380 N   0  0  0  0  0  0  0  0  0  0  0  0
    4.0040   69.3160   66.4330 C   0  0  0  0  0  0  0  0  0  0  0  0
    3.7520   69.8070   67.7230 C   0  0  0  0  0  0  0  0  0  0  0  0
    4.7350   70.4630   68.4870 C   0  0  0  0  0  0  0  0  0  0  0  0
    4.3890   70.9400   69.8730 C   0  0  0  0  0  0  0  0  0  0  0  0
    6.0180   70.6450   67.9500 C   0  0  0  0  0  0  0  0  0  0  0  0
    6.2730   70.1960   66.6490 C   0  0  0  0  0  0  0  0  0  0  0  0
    5.2820   69.5520   65.8830 C   0  0  0  0  0  0  0  0  0  0  0  0
    5.6280   69.1250   64.4800 C   0  0  0  0  0  0  0  0  0  0  0  0
    7.1070   71.3370   68.7210 C   0  0  0  0  0  0  0  0  0  0  0  0
    1.5031   68.9620   67.0470 H   0  0  0  0  0  0  0  0  0  0  0  0
    1.6846   67.2942   66.3762 H   0  0  0  0  0  0  0  0  0  0  0  0
    3.0633   68.8264   63.6009 H   0  0  0  0  0  0  0  0  0  0  0  0
    2.9704   69.2465   61.1288 H   0  0  0  0  0  0  0  0  0  0  0  0
    0.7832   69.5146   59.9636 H   0  0  0  0  0  0  0  0  0  0  0  0
   -1.3679   69.3640   61.2565 H   0  0  0  0  0  0  0  0  0  0  0  0
    3.2461   68.4932   64.6557 H   0  0  0  0  0  0  0  0  0  0  0  0
    2.7484   69.6742   68.1533 H   0  0  0  0  0  0  0  0  0  0  0  0
    4.8652   70.2836   70.6162 H   0  0  0  0  0  0  0  0  0  0  0  0
    4.7516   71.9698   70.0075 H   0  0  0  0  0  0  0  0  0  0  0  0
    3.2975   70.9151   70.0075 H   0  0  0  0  0  0  0  0  0  0  0  0
    7.2717   70.3499   66.2143 H   0  0  0  0  0  0  0  0  0  0  0  0
    6.3201   68.2708   64.5169 H   0  0  0  0  0  0  0  0  0  0  0  0
    4.7104   68.8308   63.9495 H   0  0  0  0  0  0  0  0  0  0  0  0
    6.1060   69.9617   63.9495 H   0  0  0  0  0  0  0  0  0  0  0  0
    6.9237   71.2205   69.7993 H   0  0  0  0  0  0  0  0  0  0  0  0
    8.0789   70.8904   68.4640 H   0  0  0  0  0  0  0  0  0  0  0  0
    7.1155   72.4065   68.4640 H   0  0  0  0  0  0  0  0  0  0  0  0
  3  2  2  0
  4  3  1  0
  5  4  2  0
  6  4  1  0
  7  6  2  0
  8  7  1  0
  8  3  1  0
  8  1  1  0
  9  7  1  0
 10  9  2  0
 11 10  1  0
 12 11  2  0
 12  6  1  0
 13  1  1  0
 14 13  1  0
 15 14  2  0
 16 15  1  0
 17 16  1  0
 18 16  2  0
 19 18  1  0
 20 19  2  0
 20 14  1  0
 21 20  1  0
 22 18  1  0
  1 23  1  0
  1 24  1  0
  9 25  1  0
 10 26  1  0
 11 27  1  0
 12 28  1  0
 13 29  1  0
 15 30  1  0
 17 31  1  0
 17 32  1  0
 17 33  1  0
 19 34  1  0
 21 35  1  0
 21 36  1  0
 21 37  1  0
 22 38  1  0
 22 39  1  0
 22 40  1  0
M  END
>  <score>  (6) 
-8.874

$$$$
=
     RDKit          3D

 40 42  0  0  0  0  0  0  0  0999 V2000
    1.5230   66.4680   64.4750 C   0  0  0  0  0  0  0  0  0  0  0  0
   -0.3350   67.9560   62.7470 O   0  0  0  0  0  0  0  0  0  0  0  0
    0.8700   68.0960   62.7330 C   0  0  0  0  0  0  0  0  0  0  0  0
    1.6450   69.0350   61.7780 C   0  0  0  0  0  0  0  0  0  0  0  0
    1.1800   69.7810   60.9470 O   0  0  0  0  0  0  0  0  0  0  0  0
    3.0580   68.8150   62.0750 C   0  0  0  0  0  0  0  0  0  0  0  0
    3.1250   67.8720   63.1010 C   0  0  0  0  0  0  0  0  0  0  0  0
    1.8360   67.4760   63.5040 N   0  0  0  0  0  0  0  0  0  0  0  0
    4.3560   67.4550   63.5730 C   0  0  0  0  0  0  0  0  0  0  0  0
    5.5080   68.0090   62.9960 C   0  0  0  0  0  0  0  0  0  0  0  0
    5.4180   68.9600   61.9630 C   0  0  0  0  0  0  0  0  0  0  0  0
    4.1750   69.3760   61.4860 C   0  0  0  0  0  0  0  0  0  0  0  0
    0.8970   67.0540   65.6460 N   0  0  0  0  0  0  0  0  0  0  0  0
    1.5330   68.0170   66.4410 C   0  0  0  0  0  0  0  0  0  0  0  0
    2.8390   68.4700   66.2020 C   0  0  0  0  0  0  0  0  0  0  0  0
    3.4830   69.3990   67.0410 C   0  0  0  0  0  0  0  0  0  0  0  0
    4.8790   69.8500   66.7010 C   0  0  0  0  0  0  0  0  0  0  0  0
    2.8070   69.8940   68.1660 C   0  0  0  0  0  0  0  0  0  0  0  0
    1.5180   69.4220   68.4390 C   0  0  0  0  0  0  0  0  0  0  0  0
    0.8840   68.4830   67.6040 C   0  0  0  0  0  0  0  0  0  0  0  0
   -0.4930   68.0030   67.9830 C   0  0  0  0  0  0  0  0  0  0  0  0
    3.4440   70.8890   69.0960 C   0  0  0  0  0  0  0  0  0  0  0  0
    0.8344   65.7370   64.0262 H   0  0  0  0  0  0  0  0  0  0  0  0
    2.4569   65.9760   64.7846 H   0  0  0  0  0  0  0  0  0  0  0  0
    4.4297   66.7096   64.3785 H   0  0  0  0  0  0  0  0  0  0  0  0
    6.4984   67.6948   63.3571 H   0  0  0  0  0  0  0  0  0  0  0  0
    6.3368   69.3795   61.5273 H   0  0  0  0  0  0  0  0  0  0  0  0
    4.0879   70.1170   60.6777 H   0  0  0  0  0  0  0  0  0  0  0  0
   -0.0529   66.7498   65.9030 H   0  0  0  0  0  0  0  0  0  0  0  0
    3.3805   68.0846   65.3255 H   0  0  0  0  0  0  0  0  0  0  0  0
    5.4417   70.0318   67.6285 H   0  0  0  0  0  0  0  0  0  0  0  0
    5.3836   69.0692   66.1131 H   0  0  0  0  0  0  0  0  0  0  0  0
    4.8314   70.7785   66.1131 H   0  0  0  0  0  0  0  0  0  0  0  0
    0.9875   69.7940   69.3279 H   0  0  0  0  0  0  0  0  0  0  0  0
   -0.5818   67.9721   69.0790 H   0  0  0  0  0  0  0  0  0  0  0  0
   -1.2469   68.6913   67.5734 H   0  0  0  0  0  0  0  0  0  0  0  0
   -0.6556   66.9952   67.5734 H   0  0  0  0  0  0  0  0  0  0  0  0
    3.2535   70.5914   70.1377 H   0  0  0  0  0  0  0  0  0  0  0  0
    4.5287   70.9175   68.9153 H   0  0  0  0  0  0  0  0  0  0  0  0
    3.0159   71.8860   68.9153 H   0  0  0  0  0  0  0  0  0  0  0  0
  3  2  2  0
  4  3  1  0
  5  4  2  0
  6  4  1  0
  7  6  2  0
  8  7  1  0
  8  3  1  0
  8  1  1  0
  9  7  1  0
 10  9  2  0
 11 10  1  0
 12 11  2  0
 12  6  1  0
 13  1  1  0
 14 13  1  0
 15 14  2  0
 16 15  1  0
 17 16  1  0
 18 16  2  0
 19 18  1  0
 20 19  2  0
 20 14  1  0
 21 20  1  0
 22 18  1  0
  1 23  1  0
  1 24  1  0
  9 25  1  0
 10 26  1  0
 11 27  1  0
 12 28  1  0
 13 29  1  0
 15 30  1  0
 17 31  1  0
 17 32  1  0
 17 33  1  0
 19 34  1  0
 21 35  1  0
 21 36  1  0
 21 37  1  0
 22 38  1  0
 22 39  1  0
 22 40  1  0
M  END
>  <score>  (7) 
-8.586

$$$$
=
     RDKit          3D

 40 42  0  0  0  0  0  0  0  0999 V2000
    3.8110   59.7280   74.2180 C   0  0  0  0  0  0  0  0  0  0  0  0
    2.4250   57.1450   74.4590 O   0  0  0  0  0  0  0  0  0  0  0  0
    1.8730   58.1930   74.2010 C   0  0  0  0  0  0  0  0  0  0  0  0
    0.3640   58.3530   73.9030 C   0  0  0  0  0  0  0  0  0  0  0  0
   -0.4820   57.4880   73.9190 O   0  0  0  0  0  0  0  0  0  0  0  0
    0.1760   59.7650   73.5780 C   0  0  0  0  0  0  0  0  0  0  0  0
    1.4210   60.3850   73.6870 C   0  0  0  0  0  0  0  0  0  0  0  0
    2.4080   59.4630   74.0830 N   0  0  0  0  0  0  0  0  0  0  0  0
    1.5440   61.7340   73.4120 C   0  0  0  0  0  0  0  0  0  0  0  0
    0.3930   62.4400   73.0310 C   0  0  0  0  0  0  0  0  0  0  0  0
   -0.8540   61.7950   72.9290 C   0  0  0  0  0  0  0  0  0  0  0  0
   -0.9740   60.4330   73.2040 C   0  0  0  0  0  0  0  0  0  0  0  0
    4.5130   59.4400   72.9810 N   0  0  0  0  0  0  0  0  0  0  0  0
    4.3830   60.2350   71.8350 C   0  0  0  0  0  0  0  0  0  0  0  0
    4.8220   61.5660   71.7690 C   0  0  0  0  0  0  0  0  0  0  0  0
    4.6360   62.3680   70.6270 C   0  0  0  0  0  0  0  0  0  0  0  0
    5.1570   63.7810   70.6310 C   0  0  0  0  0  0  0  0  0  0  0  0
    3.9830   61.8310   69.5080 C   0  0  0  0  0  0  0  0  0  0  0  0
    3.5050   60.5170   69.5730 C   0  0  0  0  0  0  0  0  0  0  0  0
    3.6820   59.7240   70.7220 C   0  0  0  0  0  0  0  0  0  0  0  0
    3.1120   58.3300   70.7230 C   0  0  0  0  0  0  0  0  0  0  0  0
    3.7580   62.6400   68.2610 C   0  0  0  0  0  0  0  0  0  0  0  0
    3.9544   60.7878   74.4753 H   0  0  0  0  0  0  0  0  0  0  0  0
    4.2163   59.0823   75.0110 H   0  0  0  0  0  0  0  0  0  0  0  0
    2.5176   62.2401   73.4897 H   0  0  0  0  0  0  0  0  0  0  0  0
    0.4662   63.5148   72.8084 H   0  0  0  0  0  0  0  0  0  0  0  0
   -1.7422   62.3707   72.6296 H   0  0  0  0  0  0  0  0  0  0  0  0
   -1.9408   59.9140   73.1266 H   0  0  0  0  0  0  0  0  0  0  0  0
    5.1320   58.6176   72.9442 H   0  0  0  0  0  0  0  0  0  0  0  0
    5.3308   61.9993   72.6427 H   0  0  0  0  0  0  0  0  0  0  0  0
    5.2829   64.1224   71.6691 H   0  0  0  0  0  0  0  0  0  0  0  0
    6.1270   63.8156   70.1134 H   0  0  0  0  0  0  0  0  0  0  0  0
    4.4416   64.4370   70.1134 H   0  0  0  0  0  0  0  0  0  0  0  0
    2.9782   60.0940   68.7049 H   0  0  0  0  0  0  0  0  0  0  0  0
    2.9735   57.9913   71.7603 H   0  0  0  0  0  0  0  0  0  0  0  0
    2.1418   58.3302   70.2047 H   0  0  0  0  0  0  0  0  0  0  0  0
    3.8044   57.6504   70.2047 H   0  0  0  0  0  0  0  0  0  0  0  0
    3.4726   63.6661   68.5361 H   0  0  0  0  0  0  0  0  0  0  0  0
    4.6837   62.6636   67.6672 H   0  0  0  0  0  0  0  0  0  0  0  0
    2.9531   62.1823   67.6672 H   0  0  0  0  0  0  0  0  0  0  0  0
  3  2  2  0
  4  3  1  0
  5  4  2  0
  6  4  1  0
  7  6  2  0
  8  7  1  0
  8  3  1  0
  8  1  1  0
  9  7  1  0
 10  9  2  0
 11 10  1  0
 12 11  2  0
 12  6  1  0
 13  1  1  0
 14 13  1  0
 15 14  2  0
 16 15  1  0
 17 16  1  0
 18 16  2  0
 19 18  1  0
 20 19  2  0
 20 14  1  0
 21 20  1  0
 22 18  1  0
  1 23  1  0
  1 24  1  0
  9 25  1  0
 10 26  1  0
 11 27  1  0
 12 28  1  0
 13 29  1  0
 15 30  1  0
 17 31  1  0
 17 32  1  0
 17 33  1  0
 19 34  1  0
 21 35  1  0
 21 36  1  0
 21 37  1  0
 22 38  1  0
 22 39  1  0
 22 40  1  0
M  END
>  <score>  (8) 
-8.451

$$$$
=
     RDKit          3D

 40 42  0  0  0  0  0  0  0  0999 V2000
    4.4000   61.0530   72.8930 C   0  0  0  0  0  0  0  0  0  0  0  0
    4.8100   60.8680   69.9860 O   0  0  0  0  0  0  0  0  0  0  0  0
    3.8880   61.4570   70.5080 C   0  0  0  0  0  0  0  0  0  0  0  0
    2.7990   62.2540   69.7510 C   0  0  0  0  0  0  0  0  0  0  0  0
    2.6810   62.3770   68.5530 O   0  0  0  0  0  0  0  0  0  0  0  0
    1.9550   62.8450   70.7860 C   0  0  0  0  0  0  0  0  0  0  0  0
    2.4620   62.4350   72.0200 C   0  0  0  0  0  0  0  0  0  0  0  0
    3.5790   61.5960   71.8490 N   0  0  0  0  0  0  0  0  0  0  0  0
    1.8630   62.8670   73.1880 C   0  0  0  0  0  0  0  0  0  0  0  0
    0.7470   63.7120   73.0860 C   0  0  0  0  0  0  0  0  0  0  0  0
    0.2500   64.1120   71.8320 C   0  0  0  0  0  0  0  0  0  0  0  0
    0.8590   63.6760   70.6550 C   0  0  0  0  0  0  0  0  0  0  0  0
    4.3400   59.6030   72.8980 N   0  0  0  0  0  0  0  0  0  0  0  0
    3.1610   58.8960   73.1690 C   0  0  0  0  0  0  0  0  0  0  0  0
    2.4890   58.9660   74.3980 C   0  0  0  0  0  0  0  0  0  0  0  0
    1.3350   58.2080   74.6730 C   0  0  0  0  0  0  0  0  0  0  0  0
    0.6600   58.3580   76.0100 C   0  0  0  0  0  0  0  0  0  0  0  0
    0.8310   57.3420   73.6920 C   0  0  0  0  0  0  0  0  0  0  0  0
    1.5130   57.2320   72.4750 C   0  0  0  0  0  0  0  0  0  0  0  0
    2.6740   57.9830   72.2100 C   0  0  0  0  0  0  0  0  0  0  0  0
    3.3670   57.7850   70.8870 C   0  0  0  0  0  0  0  0  0  0  0  0
   -0.3990   56.5090   73.9290 C   0  0  0  0  0  0  0  0  0  0  0  0
    5.4413   61.3698   72.7338 H   0  0  0  0  0  0  0  0  0  0  0  0
    4.0292   61.4234   73.8601 H   0  0  0  0  0  0  0  0  0  0  0  0
    2.2500   62.5573   74.1700 H   0  0  0  0  0  0  0  0  0  0  0  0
    0.2525   64.0676   74.0020 H   0  0  0  0  0  0  0  0  0  0  0  0
   -0.6266   64.7744   71.7791 H   0  0  0  0  0  0  0  0  0  0  0  0
    0.4834   63.9802   69.6669 H   0  0  0  0  0  0  0  0  0  0  0  0
    5.1988   59.0721   72.6941 H   0  0  0  0  0  0  0  0  0  0  0  0
    2.8783   59.6386   75.1765 H   0  0  0  0  0  0  0  0  0  0  0  0
    1.3948   58.1947   76.8121 H   0  0  0  0  0  0  0  0  0  0  0  0
    0.2408   59.3712   76.0975 H   0  0  0  0  0  0  0  0  0  0  0  0
   -0.1489   57.6177   76.0975 H   0  0  0  0  0  0  0  0  0  0  0  0
    1.1329   56.5423   71.7070 H   0  0  0  0  0  0  0  0  0  0  0  0
    4.4113   57.4866   71.0611 H   0  0  0  0  0  0  0  0  0  0  0  0
    2.8511   56.9983   70.3169 H   0  0  0  0  0  0  0  0  0  0  0  0
    3.3446   58.7255   70.3169 H   0  0  0  0  0  0  0  0  0  0  0  0
   -0.5635   56.3976   75.0109 H   0  0  0  0  0  0  0  0  0  0  0  0
   -1.2701   57.0038   73.4747 H   0  0  0  0  0  0  0  0  0  0  0  0
   -0.2628   55.5165   73.4747 H   0  0  0  0  0  0  0  0  0  0  0  0
  3  2  2  0
  4  3  1  0
  5  4  2  0
  6  4  1  0
  7  6  2  0
  8  7  1  0
  8  3  1  0
  8  1  1  0
  9  7  1  0
 10  9  2  0
 11 10  1  0
 12 11  2  0
 12  6  1  0
 13  1  1  0
 14 13  1  0
 15 14  2  0
 16 15  1  0
 17 16  1  0
 18 16  2  0
 19 18  1  0
 20 19  2  0
 20 14  1  0
 21 20  1  0
 22 18  1  0
  1 23  1  0
  1 24  1  0
  9 25  1  0
 10 26  1  0
 11 27  1  0
 12 28  1  0
 13 29  1  0
 15 30  1  0
 17 31  1  0
 17 32  1  0
 17 33  1  0
 19 34  1  0
 21 35  1  0
 21 36  1  0
 21 37  1  0
 22 38  1  0
 22 39  1  0
 22 40  1  0
M  END
>  <score>  (9) 
-8.205

$$$$
