=
     RDKit          3D

 63 66  0  0  0  0  0  0  0  0999 V2000
    0.1310   66.4420   69.4200 C   0  0  0  0  0  0  0  0  0  0  0  0
    1.1350   67.3450   69.0590 C   0  0  0  0  0  0  0  0  0  0  0  0
    0.9050   68.2720   68.0370 C   0  0  0  0  0  0  0  0  0  0  0  0
   -0.3160   68.3030   67.3590 C   0  0  0  0  0  0  0  0  0  0  0  0
   -1.3180   67.4010   67.7140 C   0  0  0  0  0  0  0  0  0  0  0  0
   -1.0920   66.4700   68.7360 C   0  0  0  0  0  0  0  0  0  0  0  0
    0.0050   65.7180   71.6360 O   0  0  0  0  0  0  0  0  0  0  0  0
    0.3170   65.4150   70.4890 C   0  0  0  0  0  0  0  0  0  0  0  0
    0.8570   64.2170   70.0720 N   0  0  0  0  0  0  0  0  0  0  0  0
    1.1160   63.0470   70.8290 C   0  0  0  0  0  0  0  0  0  0  0  0
    0.1750   62.5170   71.7200 C   0  0  0  0  0  0  0  0  0  0  0  0
    0.4490   61.3600   72.4530 C   0  0  0  0  0  0  0  0  0  0  0  0
    1.6680   60.7100   72.3040 C   0  0  0  0  0  0  0  0  0  0  0  0
    2.6220   61.2170   71.4200 C   0  0  0  0  0  0  0  0  0  0  0  0
    2.3610   62.3830   70.6790 C   0  0  0  0  0  0  0  0  0  0  0  0
    3.4060   62.9060   69.7310 C   0  0  0  0  0  0  0  0  0  0  0  0
    3.1900   62.9240   68.5170 O   0  0  0  0  0  0  0  0  0  0  0  0
    4.7180   63.4060   70.2800 C   0  0  0  0  0  0  0  0  0  0  0  0
   -0.4010   69.2510   66.3760 O   0  0  0  0  0  0  0  0  0  0  0  0
   -1.0850   68.8850   65.1800 C   0  0  0  0  0  0  0  0  0  0  0  0
   -0.0340   68.3340   64.2160 C   0  0  0  0  0  0  0  0  0  0  0  0
    0.2750   69.2550   63.0360 C   0  0  0  0  0  0  0  0  0  0  0  0
    1.6690   69.0930   62.4170 C   0  0  0  0  0  0  0  0  0  0  0  0
    2.5670   68.0480   63.0790 C   0  0  0  0  0  0  0  0  0  0  0  0
    3.5600   68.6900   63.9780 N   0  0  0  0  0  4  0  0  0  0  0  0
    4.7730   69.0460   63.4980 C   0  0  0  0  0  0  0  0  0  0  0  0
    5.7110   69.6580   64.3190 C   0  0  0  0  0  0  0  0  0  0  0  0
    5.3990   69.9210   65.6540 C   0  0  0  0  0  0  0  0  0  0  0  0
    4.1260   69.5610   66.1400 C   0  0  0  0  0  0  0  0  0  0  0  0
    3.2260   68.9480   65.2650 C   0  0  0  0  0  0  0  0  0  0  0  0
    3.7980   69.8260   67.4800 C   0  0  0  0  0  0  0  0  0  0  0  0
    4.7220   70.4390   68.3270 C   0  0  0  0  0  0  0  0  0  0  0  0
    5.9780   70.7940   67.8450 C   0  0  0  0  0  0  0  0  0  0  0  0
    6.3170   70.5380   66.5160 C   0  0  0  0  0  0  0  0  0  0  0  0
    2.1047   67.3267   69.5779 H   0  0  0  0  0  0  0  0  0  0  0  0
    1.6959   68.9859   67.7636 H   0  0  0  0  0  0  0  0  0  0  0  0
   -2.2859   67.4204   67.1917 H   0  0  0  0  0  0  0  0  0  0  0  0
   -1.8824   65.7536   69.0044 H   0  0  0  0  0  0  0  0  0  0  0  0
    1.1063   64.1651   69.0740 H   0  0  0  0  0  0  0  0  0  0  0  0
   -0.7954   63.0197   71.8447 H   0  0  0  0  0  0  0  0  0  0  0  0
   -0.3028   60.9621   73.1505 H   0  0  0  0  0  0  0  0  0  0  0  0
    1.8808   59.7981   72.8812 H   0  0  0  0  0  0  0  0  0  0  0  0
    3.5858   60.7001   71.3022 H   0  0  0  0  0  0  0  0  0  0  0  0
    4.6842   63.3931   71.3794 H   0  0  0  0  0  0  0  0  0  0  0  0
    5.5334   62.7556   69.9306 H   0  0  0  0  0  0  0  0  0  0  0  0
    4.8937   64.4341   69.9306 H   0  0  0  0  0  0  0  0  0  0  0  0
   -1.8397   68.1147   65.3969 H   0  0  0  0  0  0  0  0  0  0  0  0
   -1.6034   69.7512   64.7430 H   0  0  0  0  0  0  0  0  0  0  0  0
    0.8970   68.1685   64.7779 H   0  0  0  0  0  0  0  0  0  0  0  0
   -0.4466   67.4057   63.7940 H   0  0  0  0  0  0  0  0  0  0  0  0
   -0.4693   69.0595   62.2500 H   0  0  0  0  0  0  0  0  0  0  0  0
    0.2402   70.2791   63.4361 H   0  0  0  0  0  0  0  0  0  0  0  0
    1.5402   68.8094   61.3620 H   0  0  0  0  0  0  0  0  0  0  0  0
    2.1757   70.0590   62.5585 H   0  0  0  0  0  0  0  0  0  0  0  0
    1.9432   67.3584   63.6666 H   0  0  0  0  0  0  0  0  0  0  0  0
    3.1087   67.5031   62.2918 H   0  0  0  0  0  0  0  0  0  0  0  0
    5.0197   68.8484   62.4444 H   0  0  0  0  0  0  0  0  0  0  0  0
    6.6973   69.9348   63.9184 H   0  0  0  0  0  0  0  0  0  0  0  0
    2.2259   68.6692   65.6285 H   0  0  0  0  0  0  0  0  0  0  0  0
    2.8055   69.5482   67.8644 H   0  0  0  0  0  0  0  0  0  0  0  0
    4.4576   70.6415   69.3754 H   0  0  0  0  0  0  0  0  0  0  0  0
    6.7055   71.2777   68.5134 H   0  0  0  0  0  0  0  0  0  0  0  0
    7.3115   70.8222   66.1417 H   0  0  0  0  0  0  0  0  0  0  0  0
  2  1  2  0
  3  2  1  0
  4  3  2  0
  5  4  1  0
  6  5  2  0
  6  1  1  0
  8  1  1  0
  8  7  2  0
  9  8  1  0
 10  9  1  0
 11 10  2  0
 12 11  1  0
 13 12  2  0
 14 13  1  0
 15 10  1  0
 15 14  2  0
 16 15  1  0
 17 16  2  0
 18 16  1  0
 19  4  1  0
 20 19  1  0
 21 20  1  0
 22 21  1  0
 23 22  1  0
 24 23  1  0
 25 24  1  0
 26 25  2  0
 27 26  1  0
 28 27  2  0
 29 28  1  0
 30 25  1  0
 30 29  2  0
 31 29  1  0
 32 31  2  0
 33 32  1  0
 34 28  1  0
 34 33  2  0
  2 35  1  0
  3 36  1  0
  5 37  1  0
  6 38  1  0
  9 39  1  0
 11 40  1  0
 12 41  1  0
 13 42  1  0
 14 43  1  0
 18 44  1  0
 18 45  1  0
 18 46  1  0
 20 47  1  0
 20 48  1  0
 21 49  1  0
 21 50  1  0
 22 51  1  0
 22 52  1  0
 23 53  1  0
 23 54  1  0
 24 55  1  0
 24 56  1  0
 26 57  1  0
 27 58  1  0
 30 59  1  0
 31 60  1  0
 32 61  1  0
 33 62  1  0
 34 63  1  0
M  CHG  1  25   1
M  END
>  <score>  (1) 
-11.978

$$$$
=
     RDKit          3D

 63 66  0  0  0  0  0  0  0  0999 V2000
    1.5010   63.2980   71.8970 C   0  0  0  0  0  0  0  0  0  0  0  0
    0.3180   63.9910   72.1730 C   0  0  0  0  0  0  0  0  0  0  0  0
    0.0290   65.1750   71.4880 C   0  0  0  0  0  0  0  0  0  0  0  0
    0.9130   65.6880   70.5350 C   0  0  0  0  0  0  0  0  0  0  0  0
    2.0960   65.0010   70.2630 C   0  0  0  0  0  0  0  0  0  0  0  0
    2.3910   63.8140   70.9460 C   0  0  0  0  0  0  0  0  0  0  0  0
    2.6800   62.1170   73.5310 O   0  0  0  0  0  0  0  0  0  0  0  0
    1.8800   62.0370   72.6050 C   0  0  0  0  0  0  0  0  0  0  0  0
    1.3000   60.8860   72.1140 N   0  0  0  0  0  0  0  0  0  0  0  0
    1.4260   59.5560   72.5880 C   0  0  0  0  0  0  0  0  0  0  0  0
    0.4760   58.9790   73.4390 C   0  0  0  0  0  0  0  0  0  0  0  0
    0.6170   57.6640   73.8910 C   0  0  0  0  0  0  0  0  0  0  0  0
    1.7100   56.9030   73.4940 C   0  0  0  0  0  0  0  0  0  0  0  0
    2.6690   57.4540   72.6440 C   0  0  0  0  0  0  0  0  0  0  0  0
    2.5410   58.7770   72.1850 C   0  0  0  0  0  0  0  0  0  0  0  0
    3.5890   59.3460   71.2670 C   0  0  0  0  0  0  0  0  0  0  0  0
    4.5560   59.9540   71.7310 O   0  0  0  0  0  0  0  0  0  0  0  0
    3.4440   59.1660   69.7770 C   0  0  0  0  0  0  0  0  0  0  0  0
    0.5110   66.8570   69.9520 O   0  0  0  0  0  0  0  0  0  0  0  0
    1.1250   67.2090   68.7140 C   0  0  0  0  0  0  0  0  0  0  0  0
    0.0680   67.9380   67.8830 C   0  0  0  0  0  0  0  0  0  0  0  0
   -0.0260   67.4610   66.4340 C   0  0  0  0  0  0  0  0  0  0  0  0
    1.3090   67.3430   65.6880 C   0  0  0  0  0  0  0  0  0  0  0  0
    1.7810   68.6110   64.9760 C   0  0  0  0  0  0  0  0  0  0  0  0
    3.0780   69.0800   65.5250 N   0  0  0  0  0  4  0  0  0  0  0  0
    4.1680   69.1380   64.7260 C   0  0  0  0  0  0  0  0  0  0  0  0
    5.3880   69.5850   65.2180 C   0  0  0  0  0  0  0  0  0  0  0  0
    5.4930   69.9900   66.5490 C   0  0  0  0  0  0  0  0  0  0  0  0
    4.3480   69.9400   67.3700 C   0  0  0  0  0  0  0  0  0  0  0  0
    3.1500   69.4810   66.8170 C   0  0  0  0  0  0  0  0  0  0  0  0
    4.4400   70.3500   68.7110 C   0  0  0  0  0  0  0  0  0  0  0  0
    5.6540   70.8020   69.2300 C   0  0  0  0  0  0  0  0  0  0  0  0
    6.7840   70.8500   68.4190 C   0  0  0  0  0  0  0  0  0  0  0  0
    6.7060   70.4480   67.0850 C   0  0  0  0  0  0  0  0  0  0  0  0
   -0.3835   63.6053   72.9274 H   0  0  0  0  0  0  0  0  0  0  0  0
   -0.9077   65.7105   71.7023 H   0  0  0  0  0  0  0  0  0  0  0  0
    2.7979   65.3916   69.5115 H   0  0  0  0  0  0  0  0  0  0  0  0
    3.3302   63.2821   70.7336 H   0  0  0  0  0  0  0  0  0  0  0  0
    0.6929   61.0096   71.2912 H   0  0  0  0  0  0  0  0  0  0  0  0
   -0.3955   59.5701   73.7571 H   0  0  0  0  0  0  0  0  0  0  0  0
   -0.1388   57.2304   74.5624 H   0  0  0  0  0  0  0  0  0  0  0  0
    1.8187   55.8677   73.8495 H   0  0  0  0  0  0  0  0  0  0  0  0
    3.5323   56.8488   72.3303 H   0  0  0  0  0  0  0  0  0  0  0  0
    2.7658   58.3241   69.5736 H   0  0  0  0  0  0  0  0  0  0  0  0
    3.0308   60.0847   69.3352 H   0  0  0  0  0  0  0  0  0  0  0  0
    4.4296   58.9578   69.3352 H   0  0  0  0  0  0  0  0  0  0  0  0
    1.9862   67.8694   68.8936 H   0  0  0  0  0  0  0  0  0  0  0  0
    1.4900   66.3145   68.1881 H   0  0  0  0  0  0  0  0  0  0  0  0
   -0.9113   67.7867   68.3605 H   0  0  0  0  0  0  0  0  0  0  0  0
    0.3659   68.9964   67.8494 H   0  0  0  0  0  0  0  0  0  0  0  0
   -0.5025   66.4696   66.4342 H   0  0  0  0  0  0  0  0  0  0  0  0
   -0.6024   68.2310   65.9002 H   0  0  0  0  0  0  0  0  0  0  0  0
    2.0807   67.0573   66.4180 H   0  0  0  0  0  0  0  0  0  0  0  0
    1.1473   66.5957   64.8972 H   0  0  0  0  0  0  0  0  0  0  0  0
    1.9008   68.3976   63.9036 H   0  0  0  0  0  0  0  0  0  0  0  0
    1.0299   69.3995   65.1314 H   0  0  0  0  0  0  0  0  0  0  0  0
    4.0874   68.8274   63.6738 H   0  0  0  0  0  0  0  0  0  0  0  0
    6.2688   69.6195   64.5599 H   0  0  0  0  0  0  0  0  0  0  0  0
    2.2466   69.4444   67.4435 H   0  0  0  0  0  0  0  0  0  0  0  0
    3.5494   70.3144   69.3557 H   0  0  0  0  0  0  0  0  0  0  0  0
    5.7178   71.1206   70.2809 H   0  0  0  0  0  0  0  0  0  0  0  0
    7.7403   71.2055   68.8303 H   0  0  0  0  0  0  0  0  0  0  0  0
    7.6024   70.4905   66.4488 H   0  0  0  0  0  0  0  0  0  0  0  0
  2  1  2  0
  3  2  1  0
  4  3  2  0
  5  4  1  0
  6  5  2  0
  6  1  1  0
  8  1  1  0
  8  7  2  0
  9  8  1  0
 10  9  1  0
 11 10  2  0
 12 11  1  0
 13 12  2  0
 14 13  1  0
 15 10  1  0
 15 14  2  0
 16 15  1  0
 17 16  2  0
 18 16  1  0
 19  4  1  0
 20 19  1  0
 21 20  1  0
 22 21  1  0
 23 22  1  0
 24 23  1  0
 25 24  1  0
 26 25  2  0
 27 26  1  0
 28 27  2  0
 29 28  1  0
 30 25  1  0
 30 29  2  0
 31 29  1  0
 32 31  2  0
 33 32  1  0
 34 28  1  0
 34 33  2  0
  2 35  1  0
  3 36  1  0
  5 37  1  0
  6 38  1  0
  9 39  1  0
 11 40  1  0
 12 41  1  0
 13 42  1  0
 14 43  1  0
 18 44  1  0
 18 45  1  0
 18 46  1  0
 20 47  1  0
 20 48  1  0
 21 49  1  0
 21 50  1  0
 22 51  1  0
 22 52  1  0
 23 53  1  0
 23 54  1  0
 24 55  1  0
 24 56  1  0
 26 57  1  0
 27 58  1  0
 30 59  1  0
 31 60  1  0
 32 61  1  0
 33 62  1  0
 34 63  1  0
M  CHG  1  25   1
M  END
>  <score>  (2) 
-11.065

$$$$
=
     RDKit          3D

 63 66  0  0  0  0  0  0  0  0999 V2000
    2.5110   60.4420   71.3080 C   0  0  0  0  0  0  0  0  0  0  0  0
    1.5600   61.3370   71.8090 C   0  0  0  0  0  0  0  0  0  0  0  0
    1.4830   62.6340   71.2920 C   0  0  0  0  0  0  0  0  0  0  0  0
    2.3540   63.0580   70.2840 C   0  0  0  0  0  0  0  0  0  0  0  0
    3.3060   62.1690   69.7870 C   0  0  0  0  0  0  0  0  0  0  0  0
    3.3880   60.8690   70.3020 C   0  0  0  0  0  0  0  0  0  0  0  0
    3.3900   58.2820   71.2100 O   0  0  0  0  0  0  0  0  0  0  0  0
    2.6590   59.0500   71.8280 C   0  0  0  0  0  0  0  0  0  0  0  0
    1.9220   58.7570   72.9560 N   0  0  0  0  0  0  0  0  0  0  0  0
    1.8780   57.5520   73.7010 C   0  0  0  0  0  0  0  0  0  0  0  0
    1.1010   56.4590   73.2980 C   0  0  0  0  0  0  0  0  0  0  0  0
    1.0760   55.2790   74.0460 C   0  0  0  0  0  0  0  0  0  0  0  0
    1.8310   55.1710   75.2070 C   0  0  0  0  0  0  0  0  0  0  0  0
    2.6150   56.2450   75.6280 C   0  0  0  0  0  0  0  0  0  0  0  0
    2.6480   57.4400   74.8880 C   0  0  0  0  0  0  0  0  0  0  0  0
    3.5040   58.5820   75.3630 C   0  0  0  0  0  0  0  0  0  0  0  0
    4.4840   58.9390   74.7050 O   0  0  0  0  0  0  0  0  0  0  0  0
    3.1540   59.2830   76.6510 C   0  0  0  0  0  0  0  0  0  0  0  0
    2.1750   64.3520   69.8800 O   0  0  0  0  0  0  0  0  0  0  0  0
    1.0970   65.0730   70.4730 C   0  0  0  0  0  0  0  0  0  0  0  0
    1.1760   66.5060   69.9460 C   0  0  0  0  0  0  0  0  0  0  0  0
   -0.0100   66.9170   69.0730 C   0  0  0  0  0  0  0  0  0  0  0  0
    0.3350   67.3200   67.6340 C   0  0  0  0  0  0  0  0  0  0  0  0
    0.5140   68.8190   67.3940 C   0  0  0  0  0  0  0  0  0  0  0  0
    1.9430   69.1570   67.1720 N   0  0  0  0  0  4  0  0  0  0  0  0
    2.5020   68.9550   65.9570 C   0  0  0  0  0  0  0  0  0  0  0  0
    3.8340   69.2750   65.7250 C   0  0  0  0  0  0  0  0  0  0  0  0
    4.6050   69.8210   66.7520 C   0  0  0  0  0  0  0  0  0  0  0  0
    4.0090   70.0420   68.0090 C   0  0  0  0  0  0  0  0  0  0  0  0
    2.6650   69.7000   68.1800 C   0  0  0  0  0  0  0  0  0  0  0  0
    4.7730   70.5970   69.0500 C   0  0  0  0  0  0  0  0  0  0  0  0
    6.1140   70.9270   68.8430 C   0  0  0  0  0  0  0  0  0  0  0  0
    6.7010   70.7070   67.6010 C   0  0  0  0  0  0  0  0  0  0  0  0
    5.9530   70.1580   66.5590 C   0  0  0  0  0  0  0  0  0  0  0  0
    0.8737   61.0211   72.6085 H   0  0  0  0  0  0  0  0  0  0  0  0
    0.7268   63.3302   71.6838 H   0  0  0  0  0  0  0  0  0  0  0  0
    3.9932   62.4887   68.9898 H   0  0  0  0  0  0  0  0  0  0  0  0
    4.1486   60.1762   69.9127 H   0  0  0  0  0  0  0  0  0  0  0  0
    1.3215   59.5177   73.3048 H   0  0  0  0  0  0  0  0  0  0  0  0
    0.5012   56.5304   72.3787 H   0  0  0  0  0  0  0  0  0  0  0  0
    0.4564   54.4328   73.7144 H   0  0  0  0  0  0  0  0  0  0  0  0
    1.8106   54.2404   75.7931 H   0  0  0  0  0  0  0  0  0  0  0  0
    3.2128   56.1563   76.5471 H   0  0  0  0  0  0  0  0  0  0  0  0
    3.4647   58.6608   77.5032 H   0  0  0  0  0  0  0  0  0  0  0  0
    3.6745   60.2511   76.6948 H   0  0  0  0  0  0  0  0  0  0  0  0
    2.0674   59.4486   76.6948 H   0  0  0  0  0  0  0  0  0  0  0  0
    0.1365   64.6182   70.1890 H   0  0  0  0  0  0  0  0  0  0  0  0
    1.1676   65.0533   71.5706 H   0  0  0  0  0  0  0  0  0  0  0  0
    1.2237   67.1886   70.8073 H   0  0  0  0  0  0  0  0  0  0  0  0
    2.0718   66.5608   69.3099 H   0  0  0  0  0  0  0  0  0  0  0  0
   -0.7079   66.0679   69.0286 H   0  0  0  0  0  0  0  0  0  0  0  0
   -0.4333   67.8163   69.5442 H   0  0  0  0  0  0  0  0  0  0  0  0
    1.2741   66.8183   67.3577 H   0  0  0  0  0  0  0  0  0  0  0  0
   -0.5271   67.0175   67.0213 H   0  0  0  0  0  0  0  0  0  0  0  0
   -0.0668   69.1129   66.5073 H   0  0  0  0  0  0  0  0  0  0  0  0
    0.1606   69.3604   68.2839 H   0  0  0  0  0  0  0  0  0  0  0  0
    1.8948   68.5324   65.1429 H   0  0  0  0  0  0  0  0  0  0  0  0
    4.2794   69.0985   64.7348 H   0  0  0  0  0  0  0  0  0  0  0  0
    2.1840   69.8756   69.1535 H   0  0  0  0  0  0  0  0  0  0  0  0
    4.3121   70.7724   70.0332 H   0  0  0  0  0  0  0  0  0  0  0  0
    6.7063   71.3610   69.6621 H   0  0  0  0  0  0  0  0  0  0  0  0
    7.7577   70.9666   67.4401 H   0  0  0  0  0  0  0  0  0  0  0  0
    6.4236   69.9882   65.5793 H   0  0  0  0  0  0  0  0  0  0  0  0
  2  1  2  0
  3  2  1  0
  4  3  2  0
  5  4  1  0
  6  5  2  0
  6  1  1  0
  8  1  1  0
  8  7  2  0
  9  8  1  0
 10  9  1  0
 11 10  2  0
 12 11  1  0
 13 12  2  0
 14 13  1  0
 15 10  1  0
 15 14  2  0
 16 15  1  0
 17 16  2  0
 18 16  1  0
 19  4  1  0
 20 19  1  0
 21 20  1  0
 22 21  1  0
 23 22  1  0
 24 23  1  0
 25 24  1  0
 26 25  2  0
 27 26  1  0
 28 27  2  0
 29 28  1  0
 30 25  1  0
 30 29  2  0
 31 29  1  0
 32 31  2  0
 33 32  1  0
 34 28  1  0
 34 33  2  0
  2 35  1  0
  3 36  1  0
  5 37  1  0
  6 38  1  0
  9 39  1  0
 11 40  1  0
 12 41  1  0
 13 42  1  0
 14 43  1  0
 18 44  1  0
 18 45  1  0
 18 46  1  0
 20 47  1  0
 20 48  1  0
 21 49  1  0
 21 50  1  0
 22 51  1  0
 22 52  1  0
 23 53  1  0
 23 54  1  0
 24 55  1  0
 24 56  1  0
 26 57  1  0
 27 58  1  0
 30 59  1  0
 31 60  1  0
 32 61  1  0
 33 62  1  0
 34 63  1  0
M  CHG  1  25   1
M  END
>  <score>  (3) 
-10.809

$$$$
=
     RDKit          3D

 63 66  0  0  0  0  0  0  0  0999 V2000
    1.4570   63.2740   71.9690 C   0  0  0  0  0  0  0  0  0  0  0  0
    2.4380   63.6330   71.0380 C   0  0  0  0  0  0  0  0  0  0  0  0
    2.2850   64.7960   70.2770 C   0  0  0  0  0  0  0  0  0  0  0  0
    1.1550   65.6060   70.4240 C   0  0  0  0  0  0  0  0  0  0  0  0
    0.1740   65.2480   71.3470 C   0  0  0  0  0  0  0  0  0  0  0  0
    0.3220   64.0830   72.1120 C   0  0  0  0  0  0  0  0  0  0  0  0
    2.3460   62.0300   73.7320 O   0  0  0  0  0  0  0  0  0  0  0  0
    1.5490   62.0360   72.8000 C   0  0  0  0  0  0  0  0  0  0  0  0
    0.7310   60.9980   72.4080 N   0  0  0  0  0  0  0  0  0  0  0  0
    0.5620   59.7240   73.0080 C   0  0  0  0  0  0  0  0  0  0  0  0
    1.5050   58.7010   72.8520 C   0  0  0  0  0  0  0  0  0  0  0  0
    1.3210   57.4540   73.4560 C   0  0  0  0  0  0  0  0  0  0  0  0
    0.1930   57.2120   74.2300 C   0  0  0  0  0  0  0  0  0  0  0  0
   -0.7600   58.2170   74.4020 C   0  0  0  0  0  0  0  0  0  0  0  0
   -0.5890   59.4750   73.7970 C   0  0  0  0  0  0  0  0  0  0  0  0
   -1.6310   60.5410   74.0020 C   0  0  0  0  0  0  0  0  0  0  0  0
   -2.0720   61.1710   73.0380 O   0  0  0  0  0  0  0  0  0  0  0  0
   -2.1290   60.8310   75.3950 C   0  0  0  0  0  0  0  0  0  0  0  0
    1.1300   66.7050   69.6100 O   0  0  0  0  0  0  0  0  0  0  0  0
   -0.0150   66.8670   68.7770 C   0  0  0  0  0  0  0  0  0  0  0  0
    0.2620   68.0640   67.8660 C   0  0  0  0  0  0  0  0  0  0  0  0
    0.0360   67.7850   66.3800 C   0  0  0  0  0  0  0  0  0  0  0  0
    0.6610   68.7990   65.4140 C   0  0  0  0  0  0  0  0  0  0  0  0
    1.9200   68.3260   64.6860 C   0  0  0  0  0  0  0  0  0  0  0  0
    3.1420   68.8960   65.3100 N   0  0  0  0  0  4  0  0  0  0  0  0
    4.2680   69.0420   64.5750 C   0  0  0  0  0  0  0  0  0  0  0  0
    5.4180   69.5830   65.1360 C   0  0  0  0  0  0  0  0  0  0  0  0
    5.4120   69.9920   66.4710 C   0  0  0  0  0  0  0  0  0  0  0  0
    4.2290   69.8500   67.2230 C   0  0  0  0  0  0  0  0  0  0  0  0
    3.1060   69.2990   66.6020 C   0  0  0  0  0  0  0  0  0  0  0  0
    4.2100   70.2630   68.5660 C   0  0  0  0  0  0  0  0  0  0  0  0
    5.3510   70.8090   69.1540 C   0  0  0  0  0  0  0  0  0  0  0  0
    6.5190   70.9490   68.4100 C   0  0  0  0  0  0  0  0  0  0  0  0
    6.5520   70.5440   67.0760 C   0  0  0  0  0  0  0  0  0  0  0  0
    3.3285   63.0010   70.9050 H   0  0  0  0  0  0  0  0  0  0  0  0
    3.0640   65.0773   69.5531 H   0  0  0  0  0  0  0  0  0  0  0  0
   -0.7170   65.8802   71.4752 H   0  0  0  0  0  0  0  0  0  0  0  0
   -0.4606   63.8010   72.8317 H   0  0  0  0  0  0  0  0  0  0  0  0
    0.1656   61.1712   71.5646 H   0  0  0  0  0  0  0  0  0  0  0  0
    2.4044   58.8813   72.2449 H   0  0  0  0  0  0  0  0  0  0  0  0
    2.0716   56.6618   73.3181 H   0  0  0  0  0  0  0  0  0  0  0  0
    0.0513   56.2306   74.7062 H   0  0  0  0  0  0  0  0  0  0  0  0
   -1.6521   58.0236   75.0158 H   0  0  0  0  0  0  0  0  0  0  0  0
   -1.4220   60.4193   76.1303 H   0  0  0  0  0  0  0  0  0  0  0  0
   -2.2122   61.9188   75.5356 H   0  0  0  0  0  0  0  0  0  0  0  0
   -3.1162   60.3665   75.5356 H   0  0  0  0  0  0  0  0  0  0  0  0
   -0.1744   65.9614   68.1733 H   0  0  0  0  0  0  0  0  0  0  0  0
   -0.9196   67.0333   69.3803 H   0  0  0  0  0  0  0  0  0  0  0  0
   -0.4016   68.8879   68.1673 H   0  0  0  0  0  0  0  0  0  0  0  0
    1.3275   68.3110   67.9832 H   0  0  0  0  0  0  0  0  0  0  0  0
    0.4595   66.7955   66.1530 H   0  0  0  0  0  0  0  0  0  0  0  0
   -1.0508   67.8496   66.2231 H   0  0  0  0  0  0  0  0  0  0  0  0
   -0.0936   69.0537   64.6552 H   0  0  0  0  0  0  0  0  0  0  0  0
    0.9733   69.6528   66.0332 H   0  0  0  0  0  0  0  0  0  0  0  0
    1.9712   67.2282   64.7322 H   0  0  0  0  0  0  0  0  0  0  0  0
    1.8691   68.6659   63.6411 H   0  0  0  0  0  0  0  0  0  0  0  0
    4.2732   68.7287   63.5206 H   0  0  0  0  0  0  0  0  0  0  0  0
    6.3302   69.6888   64.5305 H   0  0  0  0  0  0  0  0  0  0  0  0
    2.1730   69.1902   67.1744 H   0  0  0  0  0  0  0  0  0  0  0  0
    3.2890   70.1550   69.1577 H   0  0  0  0  0  0  0  0  0  0  0  0
    5.3277   71.1291   70.2061 H   0  0  0  0  0  0  0  0  0  0  0  0
    7.4178   71.3800   68.8752 H   0  0  0  0  0  0  0  0  0  0  0  0
    7.4782   70.6579   66.4936 H   0  0  0  0  0  0  0  0  0  0  0  0
  2  1  2  0
  3  2  1  0
  4  3  2  0
  5  4  1  0
  6  5  2  0
  6  1  1  0
  8  1  1  0
  8  7  2  0
  9  8  1  0
 10  9  1  0
 11 10  2  0
 12 11  1  0
 13 12  2  0
 14 13  1  0
 15 10  1  0
 15 14  2  0
 16 15  1  0
 17 16  2  0
 18 16  1  0
 19  4  1  0
 20 19  1  0
 21 20  1  0
 22 21  1  0
 23 22  1  0
 24 23  1  0
 25 24  1  0
 26 25  2  0
 27 26  1  0
 28 27  2  0
 29 28  1  0
 30 25  1  0
 30 29  2  0
 31 29  1  0
 32 31  2  0
 33 32  1  0
 34 28  1  0
 34 33  2  0
  2 35  1  0
  3 36  1  0
  5 37  1  0
  6 38  1  0
  9 39  1  0
 11 40  1  0
 12 41  1  0
 13 42  1  0
 14 43  1  0
 18 44  1  0
 18 45  1  0
 18 46  1  0
 20 47  1  0
 20 48  1  0
 21 49  1  0
 21 50  1  0
 22 51  1  0
 22 52  1  0
 23 53  1  0
 23 54  1  0
 24 55  1  0
 24 56  1  0
 26 57  1  0
 27 58  1  0
 30 59  1  0
 31 60  1  0
 32 61  1  0
 33 62  1  0
 34 63  1  0
M  CHG  1  25   1
M  END
>  <score>  (4) 
-10.638

$$$$
=
     RDKit          3D

 63 66  0  0  0  0  0  0  0  0999 V2000
    1.8830   62.7100   71.5230 C   0  0  0  0  0  0  0  0  0  0  0  0
    2.6140   63.5580   70.6840 C   0  0  0  0  0  0  0  0  0  0  0  0
    2.1070   64.8180   70.3530 C   0  0  0  0  0  0  0  0  0  0  0  0
    0.8680   65.2440   70.8420 C   0  0  0  0  0  0  0  0  0  0  0  0
    0.1360   64.3990   71.6740 C   0  0  0  0  0  0  0  0  0  0  0  0
    0.6390   63.1350   72.0080 C   0  0  0  0  0  0  0  0  0  0  0  0
    3.4940   61.0220   71.5720 O   0  0  0  0  0  0  0  0  0  0  0  0
    2.3580   61.3450   71.9010 C   0  0  0  0  0  0  0  0  0  0  0  0
    1.4410   60.5640   72.5710 N   0  0  0  0  0  0  0  0  0  0  0  0
    1.6000   59.2550   73.0910 C   0  0  0  0  0  0  0  0  0  0  0  0
    1.9060   58.1630   72.2700 C   0  0  0  0  0  0  0  0  0  0  0  0
    2.0630   56.8810   72.8040 C   0  0  0  0  0  0  0  0  0  0  0  0
    1.9210   56.6710   74.1700 C   0  0  0  0  0  0  0  0  0  0  0  0
    1.6200   57.7440   75.0100 C   0  0  0  0  0  0  0  0  0  0  0  0
    1.4550   59.0380   74.4860 C   0  0  0  0  0  0  0  0  0  0  0  0
    1.1330   60.1770   75.4150 C   0  0  0  0  0  0  0  0  0  0  0  0
    1.8060   61.2100   75.3870 O   0  0  0  0  0  0  0  0  0  0  0  0
   -0.0190   60.0420   76.3780 C   0  0  0  0  0  0  0  0  0  0  0  0
    0.4890   66.4920   70.4300 O   0  0  0  0  0  0  0  0  0  0  0  0
    0.5750   66.7670   69.0340 C   0  0  0  0  0  0  0  0  0  0  0  0
   -0.8340   66.6090   68.4610 C   0  0  0  0  0  0  0  0  0  0  0  0
   -1.0570   67.3420   67.1380 C   0  0  0  0  0  0  0  0  0  0  0  0
   -0.3250   68.6820   66.9920 C   0  0  0  0  0  0  0  0  0  0  0  0
    0.9350   68.6550   66.1270 C   0  0  0  0  0  0  0  0  0  0  0  0
    2.0910   69.2410   66.8500 N   0  0  0  0  0  4  0  0  0  0  0  0
    1.9200   69.7590   68.0880 C   0  0  0  0  0  0  0  0  0  0  0  0
    2.9910   70.3020   68.7870 C   0  0  0  0  0  0  0  0  0  0  0  0
    4.2630   70.3060   68.2130 C   0  0  0  0  0  0  0  0  0  0  0  0
    4.4340   69.7510   66.9290 C   0  0  0  0  0  0  0  0  0  0  0  0
    3.3180   69.2200   66.2770 C   0  0  0  0  0  0  0  0  0  0  0  0
    5.7110   69.7440   66.3430 C   0  0  0  0  0  0  0  0  0  0  0  0
    6.8040   70.2840   67.0220 C   0  0  0  0  0  0  0  0  0  0  0  0
    6.6330   70.8330   68.2900 C   0  0  0  0  0  0  0  0  0  0  0  0
    5.3710   70.8450   68.8840 C   0  0  0  0  0  0  0  0  0  0  0  0
    3.5865   63.2337   70.2853 H   0  0  0  0  0  0  0  0  0  0  0  0
    2.6903   65.4832   69.6993 H   0  0  0  0  0  0  0  0  0  0  0  0
   -0.8376   64.7249   72.0688 H   0  0  0  0  0  0  0  0  0  0  0  0
    0.0515   62.4694   72.6575 H   0  0  0  0  0  0  0  0  0  0  0  0
    0.5139   60.9895   72.7132 H   0  0  0  0  0  0  0  0  0  0  0  0
    2.0248   58.3165   71.1873 H   0  0  0  0  0  0  0  0  0  0  0  0
    2.2997   56.0359   72.1409 H   0  0  0  0  0  0  0  0  0  0  0  0
    2.0455   55.6613   74.5884 H   0  0  0  0  0  0  0  0  0  0  0  0
    1.5109   57.5758   76.0916 H   0  0  0  0  0  0  0  0  0  0  0  0
    0.3588   60.0863   77.4101 H   0  0  0  0  0  0  0  0  0  0  0  0
   -0.7327   60.8627   76.2133 H   0  0  0  0  0  0  0  0  0  0  0  0
   -0.5236   59.0786   76.2133 H   0  0  0  0  0  0  0  0  0  0  0  0
    0.9359   67.7935   68.8725 H   0  0  0  0  0  0  0  0  0  0  0  0
    1.2792   66.0808   68.5408 H   0  0  0  0  0  0  0  0  0  0  0  0
   -1.0222   65.5376   68.2980 H   0  0  0  0  0  0  0  0  0  0  0  0
   -1.5247   67.0561   69.1911 H   0  0  0  0  0  0  0  0  0  0  0  0
   -0.7209   66.6822   66.3246 H   0  0  0  0  0  0  0  0  0  0  0  0
   -2.1304   67.5797   67.1025 H   0  0  0  0  0  0  0  0  0  0  0  0
   -1.0257   69.4038   66.5470 H   0  0  0  0  0  0  0  0  0  0  0  0
    0.0102   68.9538   68.0038 H   0  0  0  0  0  0  0  0  0  0  0  0
    1.1672   67.6128   65.8626 H   0  0  0  0  0  0  0  0  0  0  0  0
    0.7503   69.2512   65.2212 H   0  0  0  0  0  0  0  0  0  0  0  0
    0.9204   69.7502   68.5470 H   0  0  0  0  0  0  0  0  0  0  0  0
    2.8368   70.7274   69.7896 H   0  0  0  0  0  0  0  0  0  0  0  0
    3.4385   68.7758   65.2779 H   0  0  0  0  0  0  0  0  0  0  0  0
    5.8501   69.3098   65.3419 H   0  0  0  0  0  0  0  0  0  0  0  0
    7.8002   70.2759   66.5557 H   0  0  0  0  0  0  0  0  0  0  0  0
    7.4952   71.2583   68.8246 H   0  0  0  0  0  0  0  0  0  0  0  0
    5.2435   71.2804   69.8861 H   0  0  0  0  0  0  0  0  0  0  0  0
  2  1  2  0
  3  2  1  0
  4  3  2  0
  5  4  1  0
  6  5  2  0
  6  1  1  0
  8  1  1  0
  8  7  2  0
  9  8  1  0
 10  9  1  0
 11 10  2  0
 12 11  1  0
 13 12  2  0
 14 13  1  0
 15 10  1  0
 15 14  2  0
 16 15  1  0
 17 16  2  0
 18 16  1  0
 19  4  1  0
 20 19  1  0
 21 20  1  0
 22 21  1  0
 23 22  1  0
 24 23  1  0
 25 24  1  0
 26 25  2  0
 27 26  1  0
 28 27  2  0
 29 28  1  0
 30 25  1  0
 30 29  2  0
 31 29  1  0
 32 31  2  0
 33 32  1  0
 34 28  1  0
 34 33  2  0
  2 35  1  0
  3 36  1  0
  5 37  1  0
  6 38  1  0
  9 39  1  0
 11 40  1  0
 12 41  1  0
 13 42  1  0
 14 43  1  0
 18 44  1  0
 18 45  1  0
 18 46  1  0
 20 47  1  0
 20 48  1  0
 21 49  1  0
 21 50  1  0
 22 51  1  0
 22 52  1  0
 23 53  1  0
 23 54  1  0
 24 55  1  0
 24 56  1  0
 26 57  1  0
 27 58  1  0
 30 59  1  0
 31 60  1  0
 32 61  1  0
 33 62  1  0
 34 63  1  0
M  CHG  1  25   1
M  END
>  <score>  (5) 
-10.336

$$$$
=
     RDKit          3D

 63 66  0  0  0  0  0  0  0  0999 V2000
   -0.0290   67.6550   67.4720 C   0  0  0  0  0  0  0  0  0  0  0  0
   -1.0130   66.8310   68.0280 C   0  0  0  0  0  0  0  0  0  0  0  0
   -0.7590   66.1520   69.2240 C   0  0  0  0  0  0  0  0  0  0  0  0
    0.4740   66.2760   69.8710 C   0  0  0  0  0  0  0  0  0  0  0  0
    1.4570   67.0930   69.3160 C   0  0  0  0  0  0  0  0  0  0  0  0
    1.2080   67.7750   68.1180 C   0  0  0  0  0  0  0  0  0  0  0  0
   -1.1090   69.2460   66.1480 O   0  0  0  0  0  0  0  0  0  0  0  0
   -0.2280   68.3930   66.1880 C   0  0  0  0  0  0  0  0  0  0  0  0
    0.5970   68.0120   65.1520 N   0  0  0  0  0  0  0  0  0  0  0  0
    0.6780   68.5410   63.8390 C   0  0  0  0  0  0  0  0  0  0  0  0
   -0.4350   69.0890   63.1900 C   0  0  0  0  0  0  0  0  0  0  0  0
   -0.3320   69.6100   61.8980 C   0  0  0  0  0  0  0  0  0  0  0  0
    0.8890   69.5960   61.2340 C   0  0  0  0  0  0  0  0  0  0  0  0
    2.0140   69.0590   61.8610 C   0  0  0  0  0  0  0  0  0  0  0  0
    1.9240   68.5280   63.1600 C   0  0  0  0  0  0  0  0  0  0  0  0
    3.1530   67.9570   63.8120 C   0  0  0  0  0  0  0  0  0  0  0  0
    3.3240   66.7360   63.8540 O   0  0  0  0  0  0  0  0  0  0  0  0
    4.1730   68.8900   64.4140 C   0  0  0  0  0  0  0  0  0  0  0  0
    0.5900   65.5490   71.0240 O   0  0  0  0  0  0  0  0  0  0  0  0
    0.8610   64.1560   70.8870 C   0  0  0  0  0  0  0  0  0  0  0  0
    2.3800   63.9910   70.9290 C   0  0  0  0  0  0  0  0  0  0  0  0
    2.9990   63.5570   69.6000 C   0  0  0  0  0  0  0  0  0  0  0  0
    3.0740   62.0430   69.3680 C   0  0  0  0  0  0  0  0  0  0  0  0
    4.0190   61.2790   70.2960 C   0  0  0  0  0  0  0  0  0  0  0  0
    3.3110   60.1670   70.9800 N   0  0  0  0  0  4  0  0  0  0  0  0
    3.7060   58.8900   70.7760 C   0  0  0  0  0  0  0  0  0  0  0  0
    3.0640   57.8360   71.4150 C   0  0  0  0  0  0  0  0  0  0  0  0
    2.0060   58.0950   72.2870 C   0  0  0  0  0  0  0  0  0  0  0  0
    1.6120   59.4300   72.5040 C   0  0  0  0  0  0  0  0  0  0  0  0
    2.2960   60.4460   71.8330 C   0  0  0  0  0  0  0  0  0  0  0  0
    0.5510   59.7030   73.3840 C   0  0  0  0  0  0  0  0  0  0  0  0
   -0.1120   58.6630   74.0380 C   0  0  0  0  0  0  0  0  0  0  0  0
    0.2780   57.3450   73.8220 C   0  0  0  0  0  0  0  0  0  0  0  0
    1.3310   57.0600   72.9520 C   0  0  0  0  0  0  0  0  0  0  0  0
   -1.9849   66.7172   67.5255 H   0  0  0  0  0  0  0  0  0  0  0  0
   -1.5396   65.5121   69.6613 H   0  0  0  0  0  0  0  0  0  0  0  0
    2.4291   67.2025   69.8190 H   0  0  0  0  0  0  0  0  0  0  0  0
    1.9916   68.4110   67.6803 H   0  0  0  0  0  0  0  0  0  0  0  0
    1.2430   67.2371   65.3599 H   0  0  0  0  0  0  0  0  0  0  0  0
   -1.4063   69.1096   63.7059 H   0  0  0  0  0  0  0  0  0  0  0  0
   -1.2197   70.0326   61.4047 H   0  0  0  0  0  0  0  0  0  0  0  0
    0.9683   70.0072   60.2168 H   0  0  0  0  0  0  0  0  0  0  0  0
    2.9798   69.0510   61.3345 H   0  0  0  0  0  0  0  0  0  0  0  0
    4.1155   68.8374   65.5112 H   0  0  0  0  0  0  0  0  0  0  0  0
    5.1800   68.5939   64.0850 H   0  0  0  0  0  0  0  0  0  0  0  0
    3.9676   69.9194   64.0850 H   0  0  0  0  0  0  0  0  0  0  0  0
    0.3972   63.5977   71.7135 H   0  0  0  0  0  0  0  0  0  0  0  0
    0.4493   63.7665   69.9442 H   0  0  0  0  0  0  0  0  0  0  0  0
    2.8241   64.9549   71.2182 H   0  0  0  0  0  0  0  0  0  0  0  0
    2.5917   63.1906   71.6533 H   0  0  0  0  0  0  0  0  0  0  0  0
    2.3994   63.9946   68.7883 H   0  0  0  0  0  0  0  0  0  0  0  0
    4.0405   63.9102   69.6231 H   0  0  0  0  0  0  0  0  0  0  0  0
    2.0631   61.6299   69.4996 H   0  0  0  0  0  0  0  0  0  0  0  0
    3.4785   61.9135   68.3533 H   0  0  0  0  0  0  0  0  0  0  0  0
    4.8489   60.8664   69.7036 H   0  0  0  0  0  0  0  0  0  0  0  0
    4.3982   61.9745   71.0592 H   0  0  0  0  0  0  0  0  0  0  0  0
    4.5456   58.6829   70.0961 H   0  0  0  0  0  0  0  0  0  0  0  0
    3.3889   56.8008   71.2339 H   0  0  0  0  0  0  0  0  0  0  0  0
    2.0049   61.4935   72.0003 H   0  0  0  0  0  0  0  0  0  0  0  0
    0.2406   60.7437   73.5588 H   0  0  0  0  0  0  0  0  0  0  0  0
   -0.9426   58.8855   74.7240 H   0  0  0  0  0  0  0  0  0  0  0  0
   -0.2447   56.5262   74.3380 H   0  0  0  0  0  0  0  0  0  0  0  0
    1.6344   56.0158   72.7861 H   0  0  0  0  0  0  0  0  0  0  0  0
  2  1  2  0
  3  2  1  0
  4  3  2  0
  5  4  1  0
  6  5  2  0
  6  1  1  0
  8  1  1  0
  8  7  2  0
  9  8  1  0
 10  9  1  0
 11 10  2  0
 12 11  1  0
 13 12  2  0
 14 13  1  0
 15 10  1  0
 15 14  2  0
 16 15  1  0
 17 16  2  0
 18 16  1  0
 19  4  1  0
 20 19  1  0
 21 20  1  0
 22 21  1  0
 23 22  1  0
 24 23  1  0
 25 24  1  0
 26 25  2  0
 27 26  1  0
 28 27  2  0
 29 28  1  0
 30 25  1  0
 30 29  2  0
 31 29  1  0
 32 31  2  0
 33 32  1  0
 34 28  1  0
 34 33  2  0
  2 35  1  0
  3 36  1  0
  5 37  1  0
  6 38  1  0
  9 39  1  0
 11 40  1  0
 12 41  1  0
 13 42  1  0
 14 43  1  0
 18 44  1  0
 18 45  1  0
 18 46  1  0
 20 47  1  0
 20 48  1  0
 21 49  1  0
 21 50  1  0
 22 51  1  0
 22 52  1  0
 23 53  1  0
 23 54  1  0
 24 55  1  0
 24 56  1  0
 26 57  1  0
 27 58  1  0
 30 59  1  0
 31 60  1  0
 32 61  1  0
 33 62  1  0
 34 63  1  0
M  CHG  1  25   1
M  END
>  <score>  (6) 
-10.272

$$$$
=
     RDKit          3D

 63 66  0  0  0  0  0  0  0  0999 V2000
    3.0460   61.2560   72.0480 C   0  0  0  0  0  0  0  0  0  0  0  0
    2.3960   62.3610   72.6070 C   0  0  0  0  0  0  0  0  0  0  0  0
    1.9690   63.4090   71.7850 C   0  0  0  0  0  0  0  0  0  0  0  0
    2.1940   63.3750   70.4060 C   0  0  0  0  0  0  0  0  0  0  0  0
    2.8470   62.2780   69.8470 C   0  0  0  0  0  0  0  0  0  0  0  0
    3.2770   61.2250   70.6660 C   0  0  0  0  0  0  0  0  0  0  0  0
    4.6670   59.6810   72.6340 O   0  0  0  0  0  0  0  0  0  0  0  0
    3.5430   60.1120   72.8700 C   0  0  0  0  0  0  0  0  0  0  0  0
    2.6570   59.6310   73.8110 N   0  0  0  0  0  0  0  0  0  0  0  0
    2.8430   58.5930   74.7580 C   0  0  0  0  0  0  0  0  0  0  0  0
    3.6050   58.7770   75.9190 C   0  0  0  0  0  0  0  0  0  0  0  0
    3.7730   57.7410   76.8420 C   0  0  0  0  0  0  0  0  0  0  0  0
    3.1760   56.5060   76.6230 C   0  0  0  0  0  0  0  0  0  0  0  0
    2.4090   56.2990   75.4750 C   0  0  0  0  0  0  0  0  0  0  0  0
    2.2350   57.3300   74.5360 C   0  0  0  0  0  0  0  0  0  0  0  0
    1.4020   57.0800   73.3090 C   0  0  0  0  0  0  0  0  0  0  0  0
    1.9000   57.1920   72.1860 O   0  0  0  0  0  0  0  0  0  0  0  0
   -0.0470   56.6930   73.4650 C   0  0  0  0  0  0  0  0  0  0  0  0
    1.7360   64.4700   69.7250 O   0  0  0  0  0  0  0  0  0  0  0  0
    0.7080   65.2360   70.3470 C   0  0  0  0  0  0  0  0  0  0  0  0
    0.5670   66.5290   69.5440 C   0  0  0  0  0  0  0  0  0  0  0  0
   -0.7190   66.6190   68.7220 C   0  0  0  0  0  0  0  0  0  0  0  0
   -0.5680   67.2230   67.3200 C   0  0  0  0  0  0  0  0  0  0  0  0
   -0.3440   68.7340   67.2740 C   0  0  0  0  0  0  0  0  0  0  0  0
    1.0910   69.0540   67.0660 N   0  0  0  0  0  4  0  0  0  0  0  0
    1.8190   69.5770   68.0790 C   0  0  0  0  0  0  0  0  0  0  0  0
    3.1660   69.8730   67.9090 C   0  0  0  0  0  0  0  0  0  0  0  0
    3.7820   69.6190   66.6820 C   0  0  0  0  0  0  0  0  0  0  0  0
    3.0180   69.0600   65.6380 C   0  0  0  0  0  0  0  0  0  0  0  0
    1.6690   68.7850   65.8710 C   0  0  0  0  0  0  0  0  0  0  0  0
    3.6290   68.7950   64.4000 C   0  0  0  0  0  0  0  0  0  0  0  0
    4.9800   69.0830   64.2030 C   0  0  0  0  0  0  0  0  0  0  0  0
    5.7320   69.6360   65.2350 C   0  0  0  0  0  0  0  0  0  0  0  0
    5.1390   69.9030   66.4690 C   0  0  0  0  0  0  0  0  0  0  0  0
    2.2208   62.4059   73.6920 H   0  0  0  0  0  0  0  0  0  0  0  0
    1.4496   64.2708   72.2294 H   0  0  0  0  0  0  0  0  0  0  0  0
    3.0251   62.2385   68.7622 H   0  0  0  0  0  0  0  0  0  0  0  0
    3.8005   60.3665   70.2200 H   0  0  0  0  0  0  0  0  0  0  0  0
    1.7343   60.0884   73.8279 H   0  0  0  0  0  0  0  0  0  0  0  0
    4.0784   59.7519   76.1071 H   0  0  0  0  0  0  0  0  0  0  0  0
    4.3799   57.9041   77.7448 H   0  0  0  0  0  0  0  0  0  0  0  0
    3.3073   55.6931   77.3523 H   0  0  0  0  0  0  0  0  0  0  0  0
    1.9367   55.3204   75.3040 H   0  0  0  0  0  0  0  0  0  0  0  0
   -0.2957   56.6266   74.5345 H   0  0  0  0  0  0  0  0  0  0  0  0
   -0.6829   57.4528   72.9872 H   0  0  0  0  0  0  0  0  0  0  0  0
   -0.2194   55.7173   72.9872 H   0  0  0  0  0  0  0  0  0  0  0  0
   -0.2397   64.6777   70.3338 H   0  0  0  0  0  0  0  0  0  0  0  0
    0.9584   65.4506   71.3964 H   0  0  0  0  0  0  0  0  0  0  0  0
    0.5874   67.3753   70.2464 H   0  0  0  0  0  0  0  0  0  0  0  0
    1.4019   66.5492   68.8281 H   0  0  0  0  0  0  0  0  0  0  0  0
   -1.1215   65.6014   68.6106 H   0  0  0  0  0  0  0  0  0  0  0  0
   -1.3821   67.3013   69.2740 H   0  0  0  0  0  0  0  0  0  0  0  0
    0.2911   66.7383   66.8331 H   0  0  0  0  0  0  0  0  0  0  0  0
   -1.5262   67.0446   66.8101 H   0  0  0  0  0  0  0  0  0  0  0  0
   -0.9309   69.1595   66.4466 H   0  0  0  0  0  0  0  0  0  0  0  0
   -0.6630   69.1646   68.2346 H   0  0  0  0  0  0  0  0  0  0  0  0
    1.3387   69.7704   69.0495 H   0  0  0  0  0  0  0  0  0  0  0  0
    3.7449   70.3059   68.7381 H   0  0  0  0  0  0  0  0  0  0  0  0
    1.0632   68.3407   65.0675 H   0  0  0  0  0  0  0  0  0  0  0  0
    3.0383   68.3579   63.5814 H   0  0  0  0  0  0  0  0  0  0  0  0
    5.4509   68.8728   63.2314 H   0  0  0  0  0  0  0  0  0  0  0  0
    6.7967   69.8631   65.0773 H   0  0  0  0  0  0  0  0  0  0  0  0
    5.7397   70.3393   67.2807 H   0  0  0  0  0  0  0  0  0  0  0  0
  2  1  2  0
  3  2  1  0
  4  3  2  0
  5  4  1  0
  6  5  2  0
  6  1  1  0
  8  1  1  0
  8  7  2  0
  9  8  1  0
 10  9  1  0
 11 10  2  0
 12 11  1  0
 13 12  2  0
 14 13  1  0
 15 10  1  0
 15 14  2  0
 16 15  1  0
 17 16  2  0
 18 16  1  0
 19  4  1  0
 20 19  1  0
 21 20  1  0
 22 21  1  0
 23 22  1  0
 24 23  1  0
 25 24  1  0
 26 25  2  0
 27 26  1  0
 28 27  2  0
 29 28  1  0
 30 25  1  0
 30 29  2  0
 31 29  1  0
 32 31  2  0
 33 32  1  0
 34 28  1  0
 34 33  2  0
  2 35  1  0
  3 36  1  0
  5 37  1  0
  6 38  1  0
  9 39  1  0
 11 40  1  0
 12 41  1  0
 13 42  1  0
 14 43  1  0
 18 44  1  0
 18 45  1  0
 18 46  1  0
 20 47  1  0
 20 48  1  0
 21 49  1  0
 21 50  1  0
 22 51  1  0
 22 52  1  0
 23 53  1  0
 23 54  1  0
 24 55  1  0
 24 56  1  0
 26 57  1  0
 27 58  1  0
 30 59  1  0
 31 60  1  0
 32 61  1  0
 33 62  1  0
 34 63  1  0
M  CHG  1  25   1
M  END
>  <score>  (7) 
-10.057

$$$$
=
     RDKit          3D

 63 66  0  0  0  0  0  0  0  0999 V2000
    1.1510   61.0380   72.4280 C   0  0  0  0  0  0  0  0  0  0  0  0
    0.0710   61.9230   72.3410 C   0  0  0  0  0  0  0  0  0  0  0  0
    0.1960   63.1060   71.6070 C   0  0  0  0  0  0  0  0  0  0  0  0
    1.3930   63.4270   70.9620 C   0  0  0  0  0  0  0  0  0  0  0  0
    2.4730   62.5500   71.0510 C   0  0  0  0  0  0  0  0  0  0  0  0
    2.3540   61.3630   71.7860 C   0  0  0  0  0  0  0  0  0  0  0  0
    2.1300   59.3560   73.7170 O   0  0  0  0  0  0  0  0  0  0  0  0
    1.0910   59.7670   73.2110 C   0  0  0  0  0  0  0  0  0  0  0  0
   -0.1460   59.1610   73.2600 N   0  0  0  0  0  0  0  0  0  0  0  0
   -0.5310   57.9810   73.9460 C   0  0  0  0  0  0  0  0  0  0  0  0
    0.0630   56.7410   73.6790 C   0  0  0  0  0  0  0  0  0  0  0  0
   -0.3290   55.5910   74.3700 C   0  0  0  0  0  0  0  0  0  0  0  0
   -1.3170   55.6630   75.3430 C   0  0  0  0  0  0  0  0  0  0  0  0
   -1.9220   56.8880   75.6300 C   0  0  0  0  0  0  0  0  0  0  0  0
   -1.5410   58.0520   74.9400 C   0  0  0  0  0  0  0  0  0  0  0  0
   -2.2080   59.3600   75.2710 C   0  0  0  0  0  0  0  0  0  0  0  0
   -1.5870   60.2380   75.8730 O   0  0  0  0  0  0  0  0  0  0  0  0
   -3.6410   59.5840   74.8590 C   0  0  0  0  0  0  0  0  0  0  0  0
    1.3800   64.6180   70.2900 O   0  0  0  0  0  0  0  0  0  0  0  0
    0.3560   65.5470   70.6380 C   0  0  0  0  0  0  0  0  0  0  0  0
    0.1670   66.4740   69.4370 C   0  0  0  0  0  0  0  0  0  0  0  0
    1.4490   67.1670   68.9750 C   0  0  0  0  0  0  0  0  0  0  0  0
    1.2510   68.4690   68.1880 C   0  0  0  0  0  0  0  0  0  0  0  0
    2.3980   69.4760   68.2790 C   0  0  0  0  0  0  0  0  0  0  0  0
    3.2080   69.4750   67.0350 N   0  0  0  0  0  4  0  0  0  0  0  0
    4.5110   69.8390   67.0780 C   0  0  0  0  0  0  0  0  0  0  0  0
    5.2900   69.8330   65.9280 C   0  0  0  0  0  0  0  0  0  0  0  0
    4.7290   69.4380   64.7120 C   0  0  0  0  0  0  0  0  0  0  0  0
    3.3760   69.0460   64.6800 C   0  0  0  0  0  0  0  0  0  0  0  0
    2.6450   69.0730   65.8710 C   0  0  0  0  0  0  0  0  0  0  0  0
    2.8010   68.6410   63.4630 C   0  0  0  0  0  0  0  0  0  0  0  0
    3.5610   68.6270   62.2930 C   0  0  0  0  0  0  0  0  0  0  0  0
    4.8970   69.0150   62.3260 C   0  0  0  0  0  0  0  0  0  0  0  0
    5.4800   69.4180   63.5270 C   0  0  0  0  0  0  0  0  0  0  0  0
   -0.8756   61.6881   72.8497 H   0  0  0  0  0  0  0  0  0  0  0  0
   -0.6597   63.7936   71.5363 H   0  0  0  0  0  0  0  0  0  0  0  0
    3.4192   62.7900   70.5439 H   0  0  0  0  0  0  0  0  0  0  0  0
    3.2128   60.6796   71.8599 H   0  0  0  0  0  0  0  0  0  0  0  0
   -0.8922   59.6287   72.7258 H   0  0  0  0  0  0  0  0  0  0  0  0
    0.8501   56.6711   72.9138 H   0  0  0  0  0  0  0  0  0  0  0  0
    0.1468   54.6257   74.1422 H   0  0  0  0  0  0  0  0  0  0  0  0
   -1.6224   54.7567   75.8865 H   0  0  0  0  0  0  0  0  0  0  0  0
   -2.7033   56.9428   76.4024 H   0  0  0  0  0  0  0  0  0  0  0  0
   -4.2695   59.6822   75.7564 H   0  0  0  0  0  0  0  0  0  0  0  0
   -3.7108   60.5040   74.2600 H   0  0  0  0  0  0  0  0  0  0  0  0
   -3.9882   58.7292   74.2600 H   0  0  0  0  0  0  0  0  0  0  0  0
   -0.5810   65.0130   70.8543 H   0  0  0  0  0  0  0  0  0  0  0  0
    0.6332   66.1190   71.5358 H   0  0  0  0  0  0  0  0  0  0  0  0
   -0.2248   65.8784   68.5993 H   0  0  0  0  0  0  0  0  0  0  0  0
   -0.5254   67.2675   69.7549 H   0  0  0  0  0  0  0  0  0  0  0  0
    2.0491   67.3986   69.8673 H   0  0  0  0  0  0  0  0  0  0  0  0
    1.9368   66.4667   68.2810 H   0  0  0  0  0  0  0  0  0  0  0  0
    1.1140   68.2067   67.1285 H   0  0  0  0  0  0  0  0  0  0  0  0
    0.3788   68.9643   68.6395 H   0  0  0  0  0  0  0  0  0  0  0  0
    1.9816   70.4820   68.4361 H   0  0  0  0  0  0  0  0  0  0  0  0
    3.0476   69.1916   69.1199 H   0  0  0  0  0  0  0  0  0  0  0  0
    4.9586   70.1434   68.0356 H   0  0  0  0  0  0  0  0  0  0  0  0
    6.3457   70.1385   65.9752 H   0  0  0  0  0  0  0  0  0  0  0  0
    1.5902   68.7611   65.8625 H   0  0  0  0  0  0  0  0  0  0  0  0
    1.7454   68.3332   63.4328 H   0  0  0  0  0  0  0  0  0  0  0  0
    3.1040   68.3092   61.3442 H   0  0  0  0  0  0  0  0  0  0  0  0
    5.4946   69.0038   61.4026 H   0  0  0  0  0  0  0  0  0  0  0  0
    6.5368   69.7226   63.5455 H   0  0  0  0  0  0  0  0  0  0  0  0
  2  1  2  0
  3  2  1  0
  4  3  2  0
  5  4  1  0
  6  5  2  0
  6  1  1  0
  8  1  1  0
  8  7  2  0
  9  8  1  0
 10  9  1  0
 11 10  2  0
 12 11  1  0
 13 12  2  0
 14 13  1  0
 15 10  1  0
 15 14  2  0
 16 15  1  0
 17 16  2  0
 18 16  1  0
 19  4  1  0
 20 19  1  0
 21 20  1  0
 22 21  1  0
 23 22  1  0
 24 23  1  0
 25 24  1  0
 26 25  2  0
 27 26  1  0
 28 27  2  0
 29 28  1  0
 30 25  1  0
 30 29  2  0
 31 29  1  0
 32 31  2  0
 33 32  1  0
 34 28  1  0
 34 33  2  0
  2 35  1  0
  3 36  1  0
  5 37  1  0
  6 38  1  0
  9 39  1  0
 11 40  1  0
 12 41  1  0
 13 42  1  0
 14 43  1  0
 18 44  1  0
 18 45  1  0
 18 46  1  0
 20 47  1  0
 20 48  1  0
 21 49  1  0
 21 50  1  0
 22 51  1  0
 22 52  1  0
 23 53  1  0
 23 54  1  0
 24 55  1  0
 24 56  1  0
 26 57  1  0
 27 58  1  0
 30 59  1  0
 31 60  1  0
 32 61  1  0
 33 62  1  0
 34 63  1  0
M  CHG  1  25   1
M  END
>  <score>  (8) 
-9.721

$$$$
=
     RDKit          3D

 63 66  0  0  0  0  0  0  0  0999 V2000
    1.3650   63.4300   71.9510 C   0  0  0  0  0  0  0  0  0  0  0  0
    0.2520   64.2770   71.9940 C   0  0  0  0  0  0  0  0  0  0  0  0
    0.2150   65.4200   71.1890 C   0  0  0  0  0  0  0  0  0  0  0  0
    1.2820   65.7380   70.3440 C   0  0  0  0  0  0  0  0  0  0  0  0
    2.3940   64.8970   70.3040 C   0  0  0  0  0  0  0  0  0  0  0  0
    2.4370   63.7520   71.1090 C   0  0  0  0  0  0  0  0  0  0  0  0
    2.0360   62.3070   73.8840 O   0  0  0  0  0  0  0  0  0  0  0  0
    1.4760   62.2040   72.7980 C   0  0  0  0  0  0  0  0  0  0  0  0
    0.9530   61.0540   72.2460 N   0  0  0  0  0  0  0  0  0  0  0  0
    0.8710   59.7550   72.8090 C   0  0  0  0  0  0  0  0  0  0  0  0
   -0.2190   59.3530   73.5900 C   0  0  0  0  0  0  0  0  0  0  0  0
   -0.2810   58.0660   74.1320 C   0  0  0  0  0  0  0  0  0  0  0  0
    0.7450   57.1590   73.8970 C   0  0  0  0  0  0  0  0  0  0  0  0
    1.8400   57.5350   73.1200 C   0  0  0  0  0  0  0  0  0  0  0  0
    1.9180   58.8280   72.5720 C   0  0  0  0  0  0  0  0  0  0  0  0
    3.1100   59.2060   71.7350 C   0  0  0  0  0  0  0  0  0  0  0  0
    3.7890   60.1920   72.0320 O   0  0  0  0  0  0  0  0  0  0  0  0
    3.4660   58.3690   70.5330 C   0  0  0  0  0  0  0  0  0  0  0  0
    1.1180   66.8880   69.6230 O   0  0  0  0  0  0  0  0  0  0  0  0
   -0.0300   66.9660   68.7810 C   0  0  0  0  0  0  0  0  0  0  0  0
    0.4770   67.1880   67.3550 C   0  0  0  0  0  0  0  0  0  0  0  0
    0.4270   68.6450   66.8940 C   0  0  0  0  0  0  0  0  0  0  0  0
    1.0920   69.6600   67.8320 C   0  0  0  0  0  0  0  0  0  0  0  0
    2.5820   69.4390   68.0930 C   0  0  0  0  0  0  0  0  0  0  0  0
    3.3510   69.4340   66.8230 N   0  0  0  0  0  4  0  0  0  0  0  0
    4.6560   69.7920   66.8230 C   0  0  0  0  0  0  0  0  0  0  0  0
    5.3960   69.7820   65.6480 C   0  0  0  0  0  0  0  0  0  0  0  0
    4.7940   69.3890   64.4520 C   0  0  0  0  0  0  0  0  0  0  0  0
    3.4390   69.0040   64.4650 C   0  0  0  0  0  0  0  0  0  0  0  0
    2.7480   69.0340   65.6790 C   0  0  0  0  0  0  0  0  0  0  0  0
    2.8230   68.6010   63.2680 C   0  0  0  0  0  0  0  0  0  0  0  0
    3.5440   68.5830   62.0730 C   0  0  0  0  0  0  0  0  0  0  0  0
    4.8820   68.9650   62.0620 C   0  0  0  0  0  0  0  0  0  0  0  0
    5.5060   69.3660   63.2430 C   0  0  0  0  0  0  0  0  0  0  0  0
   -0.5922   64.0443   72.6597 H   0  0  0  0  0  0  0  0  0  0  0  0
   -0.6660   66.0779   71.2213 H   0  0  0  0  0  0  0  0  0  0  0  0
    3.2381   65.1334   69.6394 H   0  0  0  0  0  0  0  0  0  0  0  0
    3.3216   63.0988   71.0798 H   0  0  0  0  0  0  0  0  0  0  0  0
    0.5695   61.1516   71.2950 H   0  0  0  0  0  0  0  0  0  0  0  0
   -1.0393   60.0608   73.7801 H   0  0  0  0  0  0  0  0  0  0  0  0
   -1.1444   57.7705   74.7462 H   0  0  0  0  0  0  0  0  0  0  0  0
    0.6935   56.1462   74.3231 H   0  0  0  0  0  0  0  0  0  0  0  0
    2.6498   56.8142   72.9340 H   0  0  0  0  0  0  0  0  0  0  0  0
    3.8763   57.4044   70.8664 H   0  0  0  0  0  0  0  0  0  0  0  0
    2.5643   58.1944   69.9277 H   0  0  0  0  0  0  0  0  0  0  0  0
    4.2172   58.8974   69.9277 H   0  0  0  0  0  0  0  0  0  0  0  0
   -0.6039   66.0292   68.8366 H   0  0  0  0  0  0  0  0  0  0  0  0
   -0.6925   67.7861   69.0947 H   0  0  0  0  0  0  0  0  0  0  0  0
    1.5207   66.8447   67.3022 H   0  0  0  0  0  0  0  0  0  0  0  0
   -0.1910   66.6217   66.6893 H   0  0  0  0  0  0  0  0  0  0  0  0
    0.9282   68.7082   65.9169 H   0  0  0  0  0  0  0  0  0  0  0  0
   -0.6389   68.9151   66.8653 H   0  0  0  0  0  0  0  0  0  0  0  0
    0.9703   70.6599   67.3900 H   0  0  0  0  0  0  0  0  0  0  0  0
    0.5946   69.5414   68.8059 H   0  0  0  0  0  0  0  0  0  0  0  0
    2.9578   70.2473   68.7376 H   0  0  0  0  0  0  0  0  0  0  0  0
    2.7102   68.4628   68.5835 H   0  0  0  0  0  0  0  0  0  0  0  0
    5.1364   70.0946   67.7651 H   0  0  0  0  0  0  0  0  0  0  0  0
    6.4539   70.0831   65.6600 H   0  0  0  0  0  0  0  0  0  0  0  0
    1.6923   68.7262   65.7057 H   0  0  0  0  0  0  0  0  0  0  0  0
    1.7656   68.2977   63.2728 H   0  0  0  0  0  0  0  0  0  0  0  0
    3.0545   68.2669   61.1400 H   0  0  0  0  0  0  0  0  0  0  0  0
    5.4489   68.9507   61.1195 H   0  0  0  0  0  0  0  0  0  0  0  0
    6.5640   69.6665   63.2267 H   0  0  0  0  0  0  0  0  0  0  0  0
  2  1  2  0
  3  2  1  0
  4  3  2  0
  5  4  1  0
  6  5  2  0
  6  1  1  0
  8  1  1  0
  8  7  2  0
  9  8  1  0
 10  9  1  0
 11 10  2  0
 12 11  1  0
 13 12  2  0
 14 13  1  0
 15 10  1  0
 15 14  2  0
 16 15  1  0
 17 16  2  0
 18 16  1  0
 19  4  1  0
 20 19  1  0
 21 20  1  0
 22 21  1  0
 23 22  1  0
 24 23  1  0
 25 24  1  0
 26 25  2  0
 27 26  1  0
 28 27  2  0
 29 28  1  0
 30 25  1  0
 30 29  2  0
 31 29  1  0
 32 31  2  0
 33 32  1  0
 34 28  1  0
 34 33  2  0
  2 35  1  0
  3 36  1  0
  5 37  1  0
  6 38  1  0
  9 39  1  0
 11 40  1  0
 12 41  1  0
 13 42  1  0
 14 43  1  0
 18 44  1  0
 18 45  1  0
 18 46  1  0
 20 47  1  0
 20 48  1  0
 21 49  1  0
 21 50  1  0
 22 51  1  0
 22 52  1  0
 23 53  1  0
 23 54  1  0
 24 55  1  0
 24 56  1  0
 26 57  1  0
 27 58  1  0
 30 59  1  0
 31 60  1  0
 32 61  1  0
 33 62  1  0
 34 63  1  0
M  CHG  1  25   1
M  END
>  <score>  (9) 
-9.718

$$$$
