=
     RDKit          3D

 82 88  0  0  0  0  0  0  0  0999 V2000
    0.1640   57.7450   75.5450 C   0  0  1  0  0  0  0  0  0  0  0  0
   -0.2210   56.2760   75.1830 C   0  0  0  0  0  0  0  0  0  0  0  0
   -1.3220   55.7830   75.4140 O   0  0  0  0  0  0  0  0  0  0  0  0
    0.7610   55.5160   74.6310 O   0  0  0  0  0  0  0  0  0  0  0  0
    1.9420   56.1240   74.0640 C   0  0  0  0  0  0  0  0  0  0  0  0
    1.7020   57.5310   73.6370 C   0  0  0  0  0  0  0  0  0  0  0  0
    0.8320   58.3240   74.3030 C   0  0  0  0  0  0  0  0  0  0  0  0
    0.6230   59.6940   73.8510 C   0  0  0  0  0  0  0  0  0  0  0  0
    1.2910   60.1350   72.7800 C   0  0  0  0  0  0  0  0  0  0  0  0
    1.2710   61.4360   72.1240 C   0  0  0  0  0  0  0  0  0  0  0  0
    0.5220   62.4830   72.4850 N   0  0  0  0  0  0  0  0  0  0  0  0
    0.6520   63.5780   71.7230 C   0  0  0  0  0  0  0  0  0  0  0  0
   -0.1180   64.6810   72.0670 C   0  0  0  0  0  0  0  0  0  0  0  0
   -0.0720   65.8710   71.3410 C   0  0  0  0  0  0  0  0  0  0  0  0
    0.7590   65.9500   70.2340 C   0  0  0  0  0  0  0  0  0  0  0  0
    1.5690   64.8760   69.8680 C   0  0  0  0  0  0  0  0  0  0  0  0
    1.5290   63.6620   70.5940 C   0  0  0  0  0  0  0  0  0  0  0  0
    2.3140   62.5210   70.2590 C   0  0  0  0  0  0  0  0  0  0  0  0
    2.1560   61.3940   71.0530 C   0  0  0  0  0  0  0  0  0  0  0  0
    2.7940   60.0350   70.9770 C   0  0  0  0  0  0  0  0  0  0  0  0
    2.1780   59.3260   72.1000 N   0  0  0  0  0  0  0  0  0  0  0  0
    2.4620   58.0320   72.4510 C   0  0  0  0  0  0  0  0  0  0  0  0
    3.2670   57.3260   71.8570 O   0  0  0  0  0  0  0  0  0  0  0  0
   -0.9630   59.0770   77.4770 C   0  0  0  0  0  0  0  0  0  0  0  0
   -1.0720   58.5310   76.0520 C   0  0  0  0  0  0  0  0  0  0  0  0
    1.1710   57.7630   76.5670 O   0  0  0  0  0  0  0  0  0  0  0  0
    3.2560   62.4780   69.0800 C   0  0  0  0  0  0  0  0  0  0  0  0
    4.6270   63.0430   69.4230 C   0  0  0  0  0  0  0  0  0  0  0  0
    0.8140   67.1770   69.5570 O   0  0  0  0  0  0  0  0  0  0  0  0
    0.1190   67.2620   68.3560 C   0  0  0  0  0  0  0  0  0  0  0  0
   -0.9770   66.7590   68.1390 O   0  0  0  0  0  0  0  0  0  0  0  0
    0.8100   67.9910   67.3840 N   0  0  0  0  0  0  0  0  0  0  0  0
    0.0890   68.2960   66.1550 C   0  0  0  0  0  0  0  0  0  0  0  0
    0.9460   69.0380   65.1330 C   0  0  0  0  0  0  0  0  0  0  0  0
    2.3590   68.4570   65.1580 C   0  0  0  0  0  0  0  0  0  0  0  0
    3.0350   68.6160   66.5300 C   0  0  0  0  0  0  0  0  0  0  0  0
    2.0230   68.7410   67.6700 C   0  0  0  0  0  0  0  0  0  0  0  0
    3.2570   69.0290   64.0600 N   0  0  0  0  0  4  0  0  0  0  0  0
    4.6880   69.2420   64.5390 C   0  0  0  0  0  0  0  0  0  0  0  0
    5.5750   69.5930   63.3580 C   0  0  0  0  0  0  0  0  0  0  0  0
    5.6410   68.4500   62.3460 C   0  0  0  0  0  0  0  0  0  0  0  0
    4.3890   67.5760   62.3580 C   0  0  0  0  0  0  0  0  0  0  0  0
    3.1430   68.3780   62.6880 C   0  0  0  0  0  0  0  0  0  0  0  0
    2.7422   56.1146   74.8187 H   0  0  0  0  0  0  0  0  0  0  0  0
    2.2248   55.5446   73.1727 H   0  0  0  0  0  0  0  0  0  0  0  0
   -0.0751   60.3563   74.3840 H   0  0  0  0  0  0  0  0  0  0  0  0
   -0.7850   64.6142   72.9392 H   0  0  0  0  0  0  0  0  0  0  0  0
   -0.6853   66.7332   71.6419 H   0  0  0  0  0  0  0  0  0  0  0  0
    2.2459   64.9732   69.0064 H   0  0  0  0  0  0  0  0  0  0  0  0
    2.5628   59.5413   70.0216 H   0  0  0  0  0  0  0  0  0  0  0  0
    3.8923   60.0652   71.0300 H   0  0  0  0  0  0  0  0  0  0  0  0
   -1.1260   58.2606   78.1959 H   0  0  0  0  0  0  0  0  0  0  0  0
    0.0384   59.5057   77.6298 H   0  0  0  0  0  0  0  0  0  0  0  0
   -1.7231   59.8573   77.6298 H   0  0  0  0  0  0  0  0  0  0  0  0
   -1.2346   59.3818   75.3741 H   0  0  0  0  0  0  0  0  0  0  0  0
   -1.9040   57.8116   76.0658 H   0  0  0  0  0  0  0  0  0  0  0  0
    0.7379   57.7553   77.4572 H   0  0  0  0  0  0  0  0  0  0  0  0
    3.3734   61.4329   68.7575 H   0  0  0  0  0  0  0  0  0  0  0  0
    2.8251   63.0964   68.2788 H   0  0  0  0  0  0  0  0  0  0  0  0
    4.7412   63.0901   70.5160 H   0  0  0  0  0  0  0  0  0  0  0  0
    5.4075   62.3932   69.0004 H   0  0  0  0  0  0  0  0  0  0  0  0
    4.7231   64.0540   69.0004 H   0  0  0  0  0  0  0  0  0  0  0  0
   -0.2546   67.3524   65.7061 H   0  0  0  0  0  0  0  0  0  0  0  0
   -0.7524   68.9531   66.4200 H   0  0  0  0  0  0  0  0  0  0  0  0
    0.5136   68.9146   64.1291 H   0  0  0  0  0  0  0  0  0  0  0  0
    0.9787   70.1092   65.3811 H   0  0  0  0  0  0  0  0  0  0  0  0
    2.2312   67.3825   64.9601 H   0  0  0  0  0  0  0  0  0  0  0  0
    3.6684   67.7360   66.7154 H   0  0  0  0  0  0  0  0  0  0  0  0
    3.6274   69.5425   66.5056 H   0  0  0  0  0  0  0  0  0  0  0  0
    2.4749   68.3526   68.5946 H   0  0  0  0  0  0  0  0  0  0  0  0
    1.7567   69.8022   67.7832 H   0  0  0  0  0  0  0  0  0  0  0  0
    2.8658   69.9636   63.8746 H   0  0  0  0  0  0  0  0  0  0  0  0
    4.7105   70.0634   65.2703 H   0  0  0  0  0  0  0  0  0  0  0  0
    5.0562   68.3186   65.0099 H   0  0  0  0  0  0  0  0  0  0  0  0
    5.1707   70.4872   62.8610 H   0  0  0  0  0  0  0  0  0  0  0  0
    6.5918   69.7791   63.7342 H   0  0  0  0  0  0  0  0  0  0  0  0
    5.7612   68.8780   61.3398 H   0  0  0  0  0  0  0  0  0  0  0  0
    6.4931   67.8117   62.6225 H   0  0  0  0  0  0  0  0  0  0  0  0
    4.2650   67.1184   61.3654 H   0  0  0  0  0  0  0  0  0  0  0  0
    4.5163   66.8080   63.1352 H   0  0  0  0  0  0  0  0  0  0  0  0
    3.0089   69.1622   61.9284 H   0  0  0  0  0  0  0  0  0  0  0  0
    2.2803   67.6956   62.6959 H   0  0  0  0  0  0  0  0  0  0  0  0
  2  1  1  0
  3  2  2  0
  4  2  1  0
  5  4  1  0
  6  5  1  0
  7  6  2  0
  7  1  1  0
  8  7  1  0
  9  8  2  0
 10  9  1  0
 11 10  2  0
 12 11  1  0
 13 12  2  0
 14 13  1  0
 15 14  2  0
 16 15  1  0
 17 16  2  0
 17 12  1  0
 18 17  1  0
 19 18  2  0
 19 10  1  0
 20 19  1  0
 21 20  1  0
 21  9  1  0
 22 21  1  0
 22  6  1  0
 23 22  2  0
 25  1  1  0
 25 24  1  0
  1 26  1  1
 27 18  1  0
 28 27  1  0
 29 15  1  0
 30 29  1  0
 31 30  2  0
 32 30  1  0
 33 32  1  0
 34 33  1  0
 35 34  1  0
 36 35  1  0
 37 36  1  0
 37 32  1  0
 38 35  1  0
 39 38  1  0
 40 39  1  0
 41 40  1  0
 42 41  1  0
 43 42  1  0
 43 38  1  0
  5 44  1  0
  5 45  1  0
  8 46  1  0
 13 47  1  0
 14 48  1  0
 16 49  1  0
 20 50  1  0
 20 51  1  0
 24 52  1  0
 24 53  1  0
 24 54  1  0
 25 55  1  0
 25 56  1  0
 26 57  1  0
 27 58  1  0
 27 59  1  0
 28 60  1  0
 28 61  1  0
 28 62  1  0
 33 63  1  0
 33 64  1  0
 34 65  1  0
 34 66  1  0
 35 67  1  0
 36 68  1  0
 36 69  1  0
 37 70  1  0
 37 71  1  0
 38 72  1  0
 39 73  1  0
 39 74  1  0
 40 75  1  0
 40 76  1  0
 41 77  1  0
 41 78  1  0
 42 79  1  0
 42 80  1  0
 43 81  1  0
 43 82  1  0
M  CHG  1  38   1
M  END
>  <score>  (1) 
-11.668

$$$$
=
     RDKit          3D

 82 88  0  0  0  0  0  0  0  0999 V2000
    3.1840   62.0450   70.7720 C   0  0  1  0  0  0  0  0  0  0  0  0
    4.7040   61.7210   70.9150 C   0  0  0  0  0  0  0  0  0  0  0  0
    5.5550   62.5570   71.2090 O   0  0  0  0  0  0  0  0  0  0  0  0
    5.0750   60.4440   70.6390 O   0  0  0  0  0  0  0  0  0  0  0  0
    4.1020   59.3780   70.5990 C   0  0  0  0  0  0  0  0  0  0  0  0
    2.8940   59.6880   71.4150 C   0  0  0  0  0  0  0  0  0  0  0  0
    2.4470   60.9580   71.5460 C   0  0  0  0  0  0  0  0  0  0  0  0
    1.2630   61.2190   72.3550 C   0  0  0  0  0  0  0  0  0  0  0  0
    0.6480   60.1960   72.9590 C   0  0  0  0  0  0  0  0  0  0  0  0
   -0.5320   60.1740   73.8130 C   0  0  0  0  0  0  0  0  0  0  0  0
   -1.2480   61.2400   74.1850 N   0  0  0  0  0  0  0  0  0  0  0  0
   -2.2880   60.9860   74.9920 C   0  0  0  0  0  0  0  0  0  0  0  0
   -3.0480   62.0720   75.4030 C   0  0  0  0  0  0  0  0  0  0  0  0
   -4.1470   61.9290   76.2500 C   0  0  0  0  0  0  0  0  0  0  0  0
   -4.4820   60.6630   76.7060 C   0  0  0  0  0  0  0  0  0  0  0  0
   -3.7620   59.5420   76.2980 C   0  0  0  0  0  0  0  0  0  0  0  0
   -2.6440   59.6740   75.4420 C   0  0  0  0  0  0  0  0  0  0  0  0
   -1.8540   58.5700   75.0070 C   0  0  0  0  0  0  0  0  0  0  0  0
   -0.7750   58.8560   74.1810 C   0  0  0  0  0  0  0  0  0  0  0  0
    0.2620   57.9600   73.5650 C   0  0  0  0  0  0  0  0  0  0  0  0
    1.1050   58.9010   72.8260 N   0  0  0  0  0  0  0  0  0  0  0  0
    2.1950   58.5440   72.0750 C   0  0  0  0  0  0  0  0  0  0  0  0
    2.5820   57.3890   71.9420 O   0  0  0  0  0  0  0  0  0  0  0  0
    1.9590   64.2940   70.3060 C   0  0  0  0  0  0  0  0  0  0  0  0
    2.8820   63.4950   71.2280 C   0  0  0  0  0  0  0  0  0  0  0  0
    2.7650   61.8950   69.4070 O   0  0  0  0  0  0  0  0  0  0  0  0
   -2.1130   57.1450   75.4300 C   0  0  0  0  0  0  0  0  0  0  0  0
   -1.3200   56.7630   76.6710 C   0  0  0  0  0  0  0  0  0  0  0  0
   -5.6200   60.5520   77.5180 O   0  0  0  0  0  0  0  0  0  0  0  0
   -6.7490   59.9840   76.9410 C   0  0  0  0  0  0  0  0  0  0  0  0
   -7.0060   58.7850   76.9270 O   0  0  0  0  0  0  0  0  0  0  0  0
   -7.5890   60.9330   76.3520 N   0  0  0  0  0  0  0  0  0  0  0  0
   -8.8860   60.4620   75.8850 C   0  0  0  0  0  0  0  0  0  0  0  0
   -9.7030   61.5560   75.2020 C   0  0  0  0  0  0  0  0  0  0  0  0
   -8.7670   62.4180   74.3580 C   0  0  0  0  0  0  0  0  0  0  0  0
   -7.6840   63.1110   75.2030 C   0  0  0  0  0  0  0  0  0  0  0  0
   -7.3970   62.3660   76.5090 C   0  0  0  0  0  0  0  0  0  0  0  0
   -9.5110   63.4510   73.5100 N   0  0  0  0  0  4  0  0  0  0  0  0
   -9.8800   64.6950   74.3100 C   0  0  0  0  0  0  0  0  0  0  0  0
  -10.4080   65.7660   73.3720 C   0  0  0  0  0  0  0  0  0  0  0  0
   -9.3420   66.2150   72.3750 C   0  0  0  0  0  0  0  0  0  0  0  0
   -8.3130   65.1260   72.0780 C   0  0  0  0  0  0  0  0  0  0  0  0
   -8.9270   63.7390   72.1330 C   0  0  0  0  0  0  0  0  0  0  0  0
    3.7933   59.2190   69.5552 H   0  0  0  0  0  0  0  0  0  0  0  0
    4.5713   58.4762   71.0192 H   0  0  0  0  0  0  0  0  0  0  0  0
    0.8801   62.2440   72.4674 H   0  0  0  0  0  0  0  0  0  0  0  0
   -2.7751   63.0773   75.0497 H   0  0  0  0  0  0  0  0  0  0  0  0
   -4.7383   62.8062   76.5513 H   0  0  0  0  0  0  0  0  0  0  0  0
   -4.0664   58.5437   76.6454 H   0  0  0  0  0  0  0  0  0  0  0  0
    0.8401   57.4329   74.3382 H   0  0  0  0  0  0  0  0  0  0  0  0
   -0.1662   57.1688   72.9321 H   0  0  0  0  0  0  0  0  0  0  0  0
    1.2652   64.8946   70.9126 H   0  0  0  0  0  0  0  0  0  0  0  0
    2.5619   64.9600   69.6712 H   0  0  0  0  0  0  0  0  0  0  0  0
    1.3862   63.6019   69.6712 H   0  0  0  0  0  0  0  0  0  0  0  0
    2.4113   63.4474   72.2211 H   0  0  0  0  0  0  0  0  0  0  0  0
    3.8474   64.0221   71.2212 H   0  0  0  0  0  0  0  0  0  0  0  0
    1.8332   61.5614   69.3826 H   0  0  0  0  0  0  0  0  0  0  0  0
   -3.1855   57.0281   75.6446 H   0  0  0  0  0  0  0  0  0  0  0  0
   -1.7959   56.4851   74.6091 H   0  0  0  0  0  0  0  0  0  0  0  0
   -1.8910   57.0381   77.5701 H   0  0  0  0  0  0  0  0  0  0  0  0
   -1.1376   55.6782   76.6701 H   0  0  0  0  0  0  0  0  0  0  0  0
   -0.3581   57.2965   76.6701 H   0  0  0  0  0  0  0  0  0  0  0  0
   -8.7251   59.6440   75.1674 H   0  0  0  0  0  0  0  0  0  0  0  0
   -9.4531   60.1270   76.7660 H   0  0  0  0  0  0  0  0  0  0  0  0
  -10.4663   61.0979   74.5558 H   0  0  0  0  0  0  0  0  0  0  0  0
  -10.2003   62.1784   75.9605 H   0  0  0  0  0  0  0  0  0  0  0  0
   -8.2716   61.7150   73.6721 H   0  0  0  0  0  0  0  0  0  0  0  0
   -6.7561   63.1626   74.6145 H   0  0  0  0  0  0  0  0  0  0  0  0
   -8.0527   64.1142   75.4633 H   0  0  0  0  0  0  0  0  0  0  0  0
   -6.3564   62.5575   76.8097 H   0  0  0  0  0  0  0  0  0  0  0  0
   -8.0964   62.7284   77.2768 H   0  0  0  0  0  0  0  0  0  0  0  0
  -10.3962   62.9859   73.2630 H   0  0  0  0  0  0  0  0  0  0  0  0
  -10.6554   64.4395   75.0472 H   0  0  0  0  0  0  0  0  0  0  0  0
   -8.9874   65.0728   74.8302 H   0  0  0  0  0  0  0  0  0  0  0  0
  -11.2681   65.3625   72.8175 H   0  0  0  0  0  0  0  0  0  0  0  0
  -10.7034   66.6369   73.9755 H   0  0  0  0  0  0  0  0  0  0  0  0
   -9.8372   66.4966   71.4340 H   0  0  0  0  0  0  0  0  0  0  0  0
   -8.8055   67.0640   72.8238 H   0  0  0  0  0  0  0  0  0  0  0  0
   -7.8989   65.2923   71.0726 H   0  0  0  0  0  0  0  0  0  0  0  0
   -7.5259   65.1817   72.8444 H   0  0  0  0  0  0  0  0  0  0  0  0
   -9.7278   63.6707   71.3819 H   0  0  0  0  0  0  0  0  0  0  0  0
   -8.1388   63.0000   71.9267 H   0  0  0  0  0  0  0  0  0  0  0  0
  2  1  1  0
  3  2  2  0
  4  2  1  0
  5  4  1  0
  6  5  1  0
  7  6  2  0
  7  1  1  0
  8  7  1  0
  9  8  2  0
 10  9  1  0
 11 10  2  0
 12 11  1  0
 13 12  2  0
 14 13  1  0
 15 14  2  0
 16 15  1  0
 17 16  2  0
 17 12  1  0
 18 17  1  0
 19 18  2  0
 19 10  1  0
 20 19  1  0
 21 20  1  0
 21  9  1  0
 22 21  1  0
 22  6  1  0
 23 22  2  0
 25  1  1  0
 25 24  1  0
  1 26  1  6
 27 18  1  0
 28 27  1  0
 29 15  1  0
 30 29  1  0
 31 30  2  0
 32 30  1  0
 33 32  1  0
 34 33  1  0
 35 34  1  0
 36 35  1  0
 37 36  1  0
 37 32  1  0
 38 35  1  0
 39 38  1  0
 40 39  1  0
 41 40  1  0
 42 41  1  0
 43 42  1  0
 43 38  1  0
  5 44  1  0
  5 45  1  0
  8 46  1  0
 13 47  1  0
 14 48  1  0
 16 49  1  0
 20 50  1  0
 20 51  1  0
 24 52  1  0
 24 53  1  0
 24 54  1  0
 25 55  1  0
 25 56  1  0
 26 57  1  0
 27 58  1  0
 27 59  1  0
 28 60  1  0
 28 61  1  0
 28 62  1  0
 33 63  1  0
 33 64  1  0
 34 65  1  0
 34 66  1  0
 35 67  1  0
 36 68  1  0
 36 69  1  0
 37 70  1  0
 37 71  1  0
 38 72  1  0
 39 73  1  0
 39 74  1  0
 40 75  1  0
 40 76  1  0
 41 77  1  0
 41 78  1  0
 42 79  1  0
 42 80  1  0
 43 81  1  0
 43 82  1  0
M  CHG  1  38   1
M  END
>  <score>  (2) 
-9.273

$$$$
