=
     RDKit          3D

 58 60  0  0  0  0  0  0  0  0999 V2000
    0.2570   67.1330   68.0230 C   0  0  1  0  0  0  0  0  0  0  0  0
   -1.2440   66.8790   67.7950 C   0  0  0  0  0  0  0  0  0  0  0  0
   -1.7770   67.6020   66.5660 C   0  0  0  0  0  0  0  0  0  0  0  0
   -1.6060   69.1160   66.6890 C   0  0  0  0  0  0  0  0  0  0  0  0
   -0.5410   69.5210   67.6990 C   0  0  0  0  0  0  0  0  0  0  0  0
    0.6210   68.5750   67.6400 N   0  0  2  0  0  4  0  0  0  0  0  0
    0.6400   66.8300   69.4900 C   0  0  0  0  0  0  0  0  0  0  0  0
    0.0620   65.5980   69.9270 O   0  0  0  0  0  0  0  0  0  0  0  0
    2.6370   62.6760   71.2430 C   0  0  0  0  0  0  0  0  0  0  0  0
    1.3280   62.7250   71.7280 C   0  0  0  0  0  0  0  0  0  0  0  0
    0.4740   63.7380   71.2990 C   0  0  0  0  0  0  0  0  0  0  0  0
    0.9570   64.6620   70.3880 C   0  0  0  0  0  0  0  0  0  0  0  0
    2.2010   64.6240   69.8470 N   0  0  0  0  0  0  0  0  0  0  0  0
    3.0210   63.6400   70.3170 C   0  0  0  0  0  0  0  0  0  0  0  0
    3.5220   61.5750   71.6680 C   0  0  0  0  0  0  0  0  0  0  0  0
    4.3070   61.7310   72.5970 O   0  0  0  0  0  0  0  0  0  0  0  0
    4.1000   59.9930   69.9090 N   0  0  0  0  0  0  0  0  0  0  0  0
    3.4870   60.2210   71.0250 C   0  0  0  0  0  0  0  0  0  0  0  0
    3.8930   58.6550   69.5540 O   0  0  0  0  0  0  0  0  0  0  0  0
    1.4430   68.6980   66.3710 C   0  0  0  0  0  0  0  0  0  0  0  0
    2.8260   69.2350   66.6210 C   0  0  0  0  0  0  0  0  0  0  0  0
    3.1660   69.7820   67.8630 C   0  0  0  0  0  0  0  0  0  0  0  0
    4.4760   70.2000   68.1240 C   0  0  0  0  0  0  0  0  0  0  0  0
    5.4780   70.0790   67.1540 C   0  0  0  0  0  0  0  0  0  0  0  0
    5.1320   69.5750   65.8890 C   0  0  0  0  0  0  0  0  0  0  0  0
    3.8190   69.1480   65.6400 C   0  0  0  0  0  0  0  0  0  0  0  0
    5.9660   69.3740   64.8200 O   0  0  0  0  0  0  0  0  0  0  0  0
    5.3630   69.3740   63.5290 C   0  0  0  0  0  0  0  0  0  0  0  0
    6.7900   70.3960   67.3770 O   0  0  0  0  0  0  0  0  0  0  0  0
    7.1470   70.9460   68.6400 C   0  0  0  0  0  0  0  0  0  0  0  0
    0.8325   66.4547   67.3760 H   0  0  0  0  0  0  0  0  0  0  0  0
   -1.4033   65.7983   67.6654 H   0  0  0  0  0  0  0  0  0  0  0  0
   -1.7854   67.2652   68.6712 H   0  0  0  0  0  0  0  0  0  0  0  0
   -1.2289   67.2512   65.6791 H   0  0  0  0  0  0  0  0  0  0  0  0
   -2.8509   67.3821   66.4748 H   0  0  0  0  0  0  0  0  0  0  0  0
   -1.3239   69.5168   65.7042 H   0  0  0  0  0  0  0  0  0  0  0  0
   -2.5638   69.5246   67.0435 H   0  0  0  0  0  0  0  0  0  0  0  0
   -0.1921   70.5387   67.4696 H   0  0  0  0  0  0  0  0  0  0  0  0
   -0.9761   69.4896   68.7088 H   0  0  0  0  0  0  0  0  0  0  0  0
    1.2608   68.8840   68.3857 H   0  0  0  0  0  0  0  0  0  0  0  0
    1.7350   66.7614   69.5689 H   0  0  0  0  0  0  0  0  0  0  0  0
    0.2574   67.6415   70.1265 H   0  0  0  0  0  0  0  0  0  0  0  0
    0.9741   61.9686   72.4439 H   0  0  0  0  0  0  0  0  0  0  0  0
   -0.5580   63.8024   71.6744 H   0  0  0  0  0  0  0  0  0  0  0  0
    4.0534   63.6070   69.9388 H   0  0  0  0  0  0  0  0  0  0  0  0
    2.9298   59.4066   71.5112 H   0  0  0  0  0  0  0  0  0  0  0  0
    4.2906   58.2966   68.7212 H   0  0  0  0  0  0  0  0  0  0  0  0
    1.5305   67.7025   65.9112 H   0  0  0  0  0  0  0  0  0  0  0  0
    0.9264   69.4093   65.7099 H   0  0  0  0  0  0  0  0  0  0  0  0
    2.3962   69.8846   68.6420 H   0  0  0  0  0  0  0  0  0  0  0  0
    4.7219   70.6301   69.1061 H   0  0  0  0  0  0  0  0  0  0  0  0
    3.5651   68.7360   64.6522 H   0  0  0  0  0  0  0  0  0  0  0  0
    5.2078   68.3369   63.1968 H   0  0  0  0  0  0  0  0  0  0  0  0
    4.3941   69.8925   63.5769 H   0  0  0  0  0  0  0  0  0  0  0  0
    6.0216   69.8925   62.8167 H   0  0  0  0  0  0  0  0  0  0  0  0
    6.7378   70.3157   69.4433 H   0  0  0  0  0  0  0  0  0  0  0  0
    8.2429   70.9847   68.7265 H   0  0  0  0  0  0  0  0  0  0  0  0
    6.7362   71.9627   68.7265 H   0  0  0  0  0  0  0  0  0  0  0  0
  2  1  1  0
  3  2  1  0
  4  3  1  0
  5  4  1  0
  6  5  1  0
  6  1  1  0
  7  1  1  0
  8  7  1  0
 10  9  2  0
 11 10  1  0
 12 11  2  0
 12  8  1  0
 13 12  1  0
 14 13  2  0
 14  9  1  0
 15  9  1  0
 16 15  2  0
 18 17  2  0
 18 15  1  0
 19 17  1  0
 20  6  1  0
 21 20  1  0
 22 21  2  0
 23 22  1  0
 24 23  2  0
 25 24  1  0
 26 25  2  0
 26 21  1  0
 27 25  1  0
 28 27  1  0
 29 24  1  0
 30 29  1  0
  1 31  1  6
  2 32  1  0
  2 33  1  0
  3 34  1  0
  3 35  1  0
  4 36  1  0
  4 37  1  0
  5 38  1  0
  5 39  1  0
  6 40  1  1
  7 41  1  0
  7 42  1  0
 10 43  1  0
 11 44  1  0
 14 45  1  0
 18 46  1  0
 19 47  1  0
 20 48  1  0
 20 49  1  0
 22 50  1  0
 23 51  1  0
 26 52  1  0
 28 53  1  0
 28 54  1  0
 28 55  1  0
 30 56  1  0
 30 57  1  0
 30 58  1  0
M  CHG  1   6   1
M  END
>  <score>  (1) 
-10.233

$$$$
=
     RDKit          3D

 58 60  0  0  0  0  0  0  0  0999 V2000
   -0.0950   67.2320   67.2210 C   0  0  1  0  0  0  0  0  0  0  0  0
   -1.4100   66.8720   67.9340 C   0  0  0  0  0  0  0  0  0  0  0  0
   -2.6200   66.9880   67.0180 C   0  0  0  0  0  0  0  0  0  0  0  0
   -2.7880   68.4120   66.4880 C   0  0  0  0  0  0  0  0  0  0  0  0
   -1.5070   69.2330   66.5560 C   0  0  0  0  0  0  0  0  0  0  0  0
   -0.3200   68.3780   66.2250 N   0  0  2  0  0  4  0  0  0  0  0  0
    0.9980   67.5940   68.2520 C   0  0  0  0  0  0  0  0  0  0  0  0
    1.1540   69.0110   68.3590 O   0  0  0  0  0  0  0  0  0  0  0  0
    4.9370   70.4930   67.7310 C   0  0  0  0  0  0  0  0  0  0  0  0
    4.2830   69.7910   66.7160 C   0  0  0  0  0  0  0  0  0  0  0  0
    3.0150   69.2660   66.9510 C   0  0  0  0  0  0  0  0  0  0  0  0
    2.4380   69.4730   68.1920 C   0  0  0  0  0  0  0  0  0  0  0  0
    3.0090   70.1950   69.1890 N   0  0  0  0  0  0  0  0  0  0  0  0
    4.2650   70.6620   68.9370 C   0  0  0  0  0  0  0  0  0  0  0  0
    6.2620   71.0830   67.4610 C   0  0  0  0  0  0  0  0  0  0  0  0
    6.6280   71.2920   66.3100 O   0  0  0  0  0  0  0  0  0  0  0  0
    7.5330   70.6570   69.4940 N   0  0  0  0  0  0  0  0  0  0  0  0
    7.2010   71.4860   68.5580 C   0  0  0  0  0  0  0  0  0  0  0  0
    8.4120   71.3050   70.3700 O   0  0  0  0  0  0  0  0  0  0  0  0
   -0.2560   67.9650   64.7670 C   0  0  0  0  0  0  0  0  0  0  0  0
    1.1530   67.8230   64.2610 C   0  0  0  0  0  0  0  0  0  0  0  0
    1.7230   68.8110   63.4500 C   0  0  0  0  0  0  0  0  0  0  0  0
    3.0630   68.7230   63.0520 C   0  0  0  0  0  0  0  0  0  0  0  0
    3.8660   67.6490   63.4570 C   0  0  0  0  0  0  0  0  0  0  0  0
    3.2850   66.6310   64.2310 C   0  0  0  0  0  0  0  0  0  0  0  0
    1.9460   66.7330   64.6350 C   0  0  0  0  0  0  0  0  0  0  0  0
    3.9040   65.5130   64.7290 O   0  0  0  0  0  0  0  0  0  0  0  0
    4.0780   64.4230   63.8280 C   0  0  0  0  0  0  0  0  0  0  0  0
    5.1980   67.5490   63.1670 O   0  0  0  0  0  0  0  0  0  0  0  0
    5.8960   68.7280   62.7820 C   0  0  0  0  0  0  0  0  0  0  0  0
    0.2506   66.3543   66.6551 H   0  0  0  0  0  0  0  0  0  0  0  0
   -1.3416   65.8365   68.2987 H   0  0  0  0  0  0  0  0  0  0  0  0
   -1.5475   67.5838   68.7613 H   0  0  0  0  0  0  0  0  0  0  0  0
   -2.4909   66.3030   66.1671 H   0  0  0  0  0  0  0  0  0  0  0  0
   -3.5177   66.7278   67.5980 H   0  0  0  0  0  0  0  0  0  0  0  0
   -3.1134   68.3583   65.4386 H   0  0  0  0  0  0  0  0  0  0  0  0
   -3.5311   68.9126   67.1262 H   0  0  0  0  0  0  0  0  0  0  0  0
   -1.5690   70.0618   65.8354 H   0  0  0  0  0  0  0  0  0  0  0  0
   -1.3895   69.6272   67.5762 H   0  0  0  0  0  0  0  0  0  0  0  0
    0.5000   68.9887   66.3498 H   0  0  0  0  0  0  0  0  0  0  0  0
    0.7140   67.1884   69.2343 H   0  0  0  0  0  0  0  0  0  0  0  0
    1.9522   67.1613   67.9168 H   0  0  0  0  0  0  0  0  0  0  0  0
    4.7664   69.6538   65.7375 H   0  0  0  0  0  0  0  0  0  0  0  0
    2.4851   68.7009   66.1700 H   0  0  0  0  0  0  0  0  0  0  0  0
    4.7808   71.2084   69.7404 H   0  0  0  0  0  0  0  0  0  0  0  0
    7.6152   72.5050   68.5672 H   0  0  0  0  0  0  0  0  0  0  0  0
    8.7747   70.8220   71.1544 H   0  0  0  0  0  0  0  0  0  0  0  0
   -0.7691   66.9987   64.6529 H   0  0  0  0  0  0  0  0  0  0  0  0
   -0.7404   68.7574   64.1776 H   0  0  0  0  0  0  0  0  0  0  0  0
    1.1125   69.6652   63.1219 H   0  0  0  0  0  0  0  0  0  0  0  0
    3.4911   69.5087   62.4121 H   0  0  0  0  0  0  0  0  0  0  0  0
    1.5100   65.9391   65.2592 H   0  0  0  0  0  0  0  0  0  0  0  0
    4.2262   63.4949   64.3996 H   0  0  0  0  0  0  0  0  0  0  0  0
    3.1842   64.3247   63.1944 H   0  0  0  0  0  0  0  0  0  0  0  0
    4.9580   64.6079   63.1944 H   0  0  0  0  0  0  0  0  0  0  0  0
    6.2188   69.2732   63.6812 H   0  0  0  0  0  0  0  0  0  0  0  0
    6.7772   68.4535   62.1836 H   0  0  0  0  0  0  0  0  0  0  0  0
    5.2315   69.3686   62.1836 H   0  0  0  0  0  0  0  0  0  0  0  0
  2  1  1  0
  3  2  1  0
  4  3  1  0
  5  4  1  0
  6  5  1  0
  6  1  1  0
  7  1  1  0
  8  7  1  0
 10  9  2  0
 11 10  1  0
 12 11  2  0
 12  8  1  0
 13 12  1  0
 14 13  2  0
 14  9  1  0
 15  9  1  0
 16 15  2  0
 18 17  2  0
 18 15  1  0
 19 17  1  0
 20  6  1  0
 21 20  1  0
 22 21  2  0
 23 22  1  0
 24 23  2  0
 25 24  1  0
 26 25  2  0
 26 21  1  0
 27 25  1  0
 28 27  1  0
 29 24  1  0
 30 29  1  0
  1 31  1  6
  2 32  1  0
  2 33  1  0
  3 34  1  0
  3 35  1  0
  4 36  1  0
  4 37  1  0
  5 38  1  0
  5 39  1  0
  6 40  1  6
  7 41  1  0
  7 42  1  0
 10 43  1  0
 11 44  1  0
 14 45  1  0
 18 46  1  0
 19 47  1  0
 20 48  1  0
 20 49  1  0
 22 50  1  0
 23 51  1  0
 26 52  1  0
 28 53  1  0
 28 54  1  0
 28 55  1  0
 30 56  1  0
 30 57  1  0
 30 58  1  0
M  CHG  1   6   1
M  END
>  <score>  (2) 
-9.0

$$$$
=
     RDKit          3D

 58 60  0  0  0  0  0  0  0  0999 V2000
    0.1340   67.1850   67.5660 C   0  0  1  0  0  0  0  0  0  0  0  0
   -1.3330   67.0150   67.9990 C   0  0  0  0  0  0  0  0  0  0  0  0
   -2.3120   67.5640   66.9710 C   0  0  0  0  0  0  0  0  0  0  0  0
   -2.0980   69.0590   66.7370 C   0  0  0  0  0  0  0  0  0  0  0  0
   -0.7140   69.5410   67.1510 C   0  0  0  0  0  0  0  0  0  0  0  0
    0.3210   68.5100   66.8140 N   0  0  2  0  0  4  0  0  0  0  0  0
    1.0730   67.1000   68.7910 C   0  0  0  0  0  0  0  0  0  0  0  0
    0.4730   66.3450   69.8460 O   0  0  0  0  0  0  0  0  0  0  0  0
    2.4600   62.9450   71.0300 C   0  0  0  0  0  0  0  0  0  0  0  0
    1.3100   63.3550   71.7080 C   0  0  0  0  0  0  0  0  0  0  0  0
    0.6630   64.5260   71.3180 C   0  0  0  0  0  0  0  0  0  0  0  0
    1.1840   65.2400   70.2530 C   0  0  0  0  0  0  0  0  0  0  0  0
    2.2650   64.8540   69.5290 N   0  0  0  0  0  0  0  0  0  0  0  0
    2.8930   63.7230   69.9620 C   0  0  0  0  0  0  0  0  0  0  0  0
    3.1150   61.6830   71.4210 C   0  0  0  0  0  0  0  0  0  0  0  0
    3.6960   61.5890   72.4960 O   0  0  0  0  0  0  0  0  0  0  0  0
    4.1480   59.7730   70.3180 N   0  0  0  0  0  0  0  0  0  0  0  0
    3.0760   60.4560   70.5590 C   0  0  0  0  0  0  0  0  0  0  0  0
    3.8100   58.6950   69.4920 O   0  0  0  0  0  0  0  0  0  0  0  0
    0.5640   68.3570   65.3240 C   0  0  0  0  0  0  0  0  0  0  0  0
    1.7760   67.5230   65.0120 C   0  0  0  0  0  0  0  0  0  0  0  0
    1.7010   66.1260   65.0150 C   0  0  0  0  0  0  0  0  0  0  0  0
    2.8050   65.3510   64.6390 C   0  0  0  0  0  0  0  0  0  0  0  0
    4.0080   65.9520   64.2490 C   0  0  0  0  0  0  0  0  0  0  0  0
    4.1040   67.3530   64.2910 C   0  0  0  0  0  0  0  0  0  0  0  0
    2.9890   68.1220   64.6580 C   0  0  0  0  0  0  0  0  0  0  0  0
    5.1850   68.1210   63.9420 O   0  0  0  0  0  0  0  0  0  0  0  0
    5.1600   69.4840   64.3520 C   0  0  0  0  0  0  0  0  0  0  0  0
    5.0920   65.2510   63.7980 O   0  0  0  0  0  0  0  0  0  0  0  0
    5.0620   63.8310   63.8810 C   0  0  0  0  0  0  0  0  0  0  0  0
    0.3969   66.3659   66.8805 H   0  0  0  0  0  0  0  0  0  0  0  0
   -1.5364   65.9436   68.1427 H   0  0  0  0  0  0  0  0  0  0  0  0
   -1.4741   67.5822   68.9309 H   0  0  0  0  0  0  0  0  0  0  0  0
   -2.1694   67.0293   66.0203 H   0  0  0  0  0  0  0  0  0  0  0  0
   -3.3329   67.4170   67.3534 H   0  0  0  0  0  0  0  0  0  0  0  0
   -2.2345   69.2679   65.6657 H   0  0  0  0  0  0  0  0  0  0  0  0
   -2.8296   69.5945   67.3600 H   0  0  0  0  0  0  0  0  0  0  0  0
   -0.4815   70.4753   66.6191 H   0  0  0  0  0  0  0  0  0  0  0  0
   -0.7062   69.7126   68.2375 H   0  0  0  0  0  0  0  0  0  0  0  0
    1.2083   68.8861   67.1776 H   0  0  0  0  0  0  0  0  0  0  0  0
    2.0129   66.6139   68.4905 H   0  0  0  0  0  0  0  0  0  0  0  0
    1.2655   68.1197   69.1559 H   0  0  0  0  0  0  0  0  0  0  0  0
    0.9176   62.7577   72.5442 H   0  0  0  0  0  0  0  0  0  0  0  0
   -0.2387   64.8740   71.8432 H   0  0  0  0  0  0  0  0  0  0  0  0
    3.8024   63.4054   69.4309 H   0  0  0  0  0  0  0  0  0  0  0  0
    2.1192   60.1313   70.1242 H   0  0  0  0  0  0  0  0  0  0  0  0
    4.5084   58.0569   69.2003 H   0  0  0  0  0  0  0  0  0  0  0  0
   -0.3173   67.8786   64.8718 H   0  0  0  0  0  0  0  0  0  0  0  0
    0.7398   69.3621   64.9130 H   0  0  0  0  0  0  0  0  0  0  0  0
    0.7656   65.6315   65.3157 H   0  0  0  0  0  0  0  0  0  0  0  0
    2.7260   64.2539   64.6502 H   0  0  0  0  0  0  0  0  0  0  0  0
    3.0709   69.2189   64.6674 H   0  0  0  0  0  0  0  0  0  0  0  0
    5.1590   69.5364   65.4507 H   0  0  0  0  0  0  0  0  0  0  0  0
    6.0488   70.0009   63.9610 H   0  0  0  0  0  0  0  0  0  0  0  0
    4.2528   69.9679   63.9610 H   0  0  0  0  0  0  0  0  0  0  0  0
    5.0555   63.5255   64.9377 H   0  0  0  0  0  0  0  0  0  0  0  0
    4.1557   63.4538   63.3847 H   0  0  0  0  0  0  0  0  0  0  0  0
    5.9516   63.4158   63.3847 H   0  0  0  0  0  0  0  0  0  0  0  0
  2  1  1  0
  3  2  1  0
  4  3  1  0
  5  4  1  0
  6  5  1  0
  6  1  1  0
  7  1  1  0
  8  7  1  0
 10  9  2  0
 11 10  1  0
 12 11  2  0
 12  8  1  0
 13 12  1  0
 14 13  2  0
 14  9  1  0
 15  9  1  0
 16 15  2  0
 18 17  2  0
 18 15  1  0
 19 17  1  0
 20  6  1  0
 21 20  1  0
 22 21  2  0
 23 22  1  0
 24 23  2  0
 25 24  1  0
 26 25  2  0
 26 21  1  0
 27 25  1  0
 28 27  1  0
 29 24  1  0
 30 29  1  0
  1 31  1  6
  2 32  1  0
  2 33  1  0
  3 34  1  0
  3 35  1  0
  4 36  1  0
  4 37  1  0
  5 38  1  0
  5 39  1  0
  6 40  1  1
  7 41  1  0
  7 42  1  0
 10 43  1  0
 11 44  1  0
 14 45  1  0
 18 46  1  0
 19 47  1  0
 20 48  1  0
 20 49  1  0
 22 50  1  0
 23 51  1  0
 26 52  1  0
 28 53  1  0
 28 54  1  0
 28 55  1  0
 30 56  1  0
 30 57  1  0
 30 58  1  0
M  CHG  1   6   1
M  END
>  <score>  (3) 
-8.961

$$$$
=
     RDKit          3D

 58 60  0  0  0  0  0  0  0  0999 V2000
    2.4830   62.9580   70.8270 C   0  0  1  0  0  0  0  0  0  0  0  0
    2.6780   62.2310   69.4850 C   0  0  0  0  0  0  0  0  0  0  0  0
    3.2430   60.8280   69.6580 C   0  0  0  0  0  0  0  0  0  0  0  0
    4.6100   60.8560   70.3410 C   0  0  0  0  0  0  0  0  0  0  0  0
    4.8660   62.1360   71.1240 C   0  0  0  0  0  0  0  0  0  0  0  0
    3.6100   62.5920   71.8040 N   0  0  2  0  0  4  0  0  0  0  0  0
    2.4060   64.4860   70.6090 C   0  0  0  0  0  0  0  0  0  0  0  0
    1.0730   64.9650   70.8010 O   0  0  0  0  0  0  0  0  0  0  0  0
   -0.0820   67.6780   67.9360 C   0  0  0  0  0  0  0  0  0  0  0  0
    1.1540   67.8160   68.5720 C   0  0  0  0  0  0  0  0  0  0  0  0
    1.5210   66.9090   69.5640 C   0  0  0  0  0  0  0  0  0  0  0  0
    0.6420   65.8860   69.8760 C   0  0  0  0  0  0  0  0  0  0  0  0
   -0.5440   65.6790   69.2480 N   0  0  0  0  0  0  0  0  0  0  0  0
   -0.8860   66.6060   68.3090 C   0  0  0  0  0  0  0  0  0  0  0  0
   -0.4450   68.6160   66.8570 C   0  0  0  0  0  0  0  0  0  0  0  0
   -1.0910   69.6280   67.1030 O   0  0  0  0  0  0  0  0  0  0  0  0
   -0.7960   68.7350   64.4500 N   0  0  0  0  0  0  0  0  0  0  0  0
   -0.0220   68.4080   65.4330 C   0  0  0  0  0  0  0  0  0  0  0  0
   -0.1440   68.4270   63.2510 O   0  0  0  0  0  0  0  0  0  0  0  0
    3.1800   61.6980   72.9520 C   0  0  0  0  0  0  0  0  0  0  0  0
    1.6940   61.7190   73.1840 C   0  0  0  0  0  0  0  0  0  0  0  0
    0.8920   60.6520   72.7650 C   0  0  0  0  0  0  0  0  0  0  0  0
   -0.4770   60.6310   73.0590 C   0  0  0  0  0  0  0  0  0  0  0  0
   -1.0760   61.6710   73.7800 C   0  0  0  0  0  0  0  0  0  0  0  0
   -0.2840   62.7670   74.1600 C   0  0  0  0  0  0  0  0  0  0  0  0
    1.0890   62.7750   73.8720 C   0  0  0  0  0  0  0  0  0  0  0  0
   -0.6810   63.8690   74.8730 O   0  0  0  0  0  0  0  0  0  0  0  0
    0.3510   64.6780   75.4300 C   0  0  0  0  0  0  0  0  0  0  0  0
   -2.3880   61.6680   74.1640 O   0  0  0  0  0  0  0  0  0  0  0  0
   -2.7910   60.7650   75.1880 C   0  0  0  0  0  0  0  0  0  0  0  0
    1.5306   62.6315   71.2700 H   0  0  0  0  0  0  0  0  0  0  0  0
    1.7044   62.1591   68.9782 H   0  0  0  0  0  0  0  0  0  0  0  0
    3.4007   62.8114   68.8927 H   0  0  0  0  0  0  0  0  0  0  0  0
    2.5485   60.2360   70.2721 H   0  0  0  0  0  0  0  0  0  0  0  0
    3.3639   60.3788   68.6612 H   0  0  0  0  0  0  0  0  0  0  0  0
    4.6712   60.0044   71.0345 H   0  0  0  0  0  0  0  0  0  0  0  0
    5.3711   60.8011   69.5487 H   0  0  0  0  0  0  0  0  0  0  0  0
    5.6410   61.9486   71.8818 H   0  0  0  0  0  0  0  0  0  0  0  0
    5.1999   62.9196   70.4280 H   0  0  0  0  0  0  0  0  0  0  0  0
    3.8544   63.4839   72.2575 H   0  0  0  0  0  0  0  0  0  0  0  0
    3.0744   64.9856   71.3257 H   0  0  0  0  0  0  0  0  0  0  0  0
    2.7126   64.7082   69.5762 H   0  0  0  0  0  0  0  0  0  0  0  0
    1.8328   68.6349   68.2917 H   0  0  0  0  0  0  0  0  0  0  0  0
    2.4847   67.0034   70.0860 H   0  0  0  0  0  0  0  0  0  0  0  0
   -1.8623   66.4993   67.8135 H   0  0  0  0  0  0  0  0  0  0  0  0
    0.9643   67.9694   65.2211 H   0  0  0  0  0  0  0  0  0  0  0  0
   -0.5878   68.6097   62.3851 H   0  0  0  0  0  0  0  0  0  0  0  0
    3.4857   60.6656   72.7267 H   0  0  0  0  0  0  0  0  0  0  0  0
    3.6625   62.0772   73.8649 H   0  0  0  0  0  0  0  0  0  0  0  0
    1.3408   59.8221   72.1995 H   0  0  0  0  0  0  0  0  0  0  0  0
   -1.0912   59.7844   72.7182 H   0  0  0  0  0  0  0  0  0  0  0  0
    1.7021   63.6296   74.1941 H   0  0  0  0  0  0  0  0  0  0  0  0
    0.2975   64.6361   76.5279 H   0  0  0  0  0  0  0  0  0  0  0  0
    1.3303   64.3044   75.0961 H   0  0  0  0  0  0  0  0  0  0  0  0
    0.2220   65.7181   75.0961 H   0  0  0  0  0  0  0  0  0  0  0  0
   -2.5908   61.2137   76.1722 H   0  0  0  0  0  0  0  0  0  0  0  0
   -3.8670   60.5578   75.0916 H   0  0  0  0  0  0  0  0  0  0  0  0
   -2.2267   59.8257   75.0916 H   0  0  0  0  0  0  0  0  0  0  0  0
  2  1  1  0
  3  2  1  0
  4  3  1  0
  5  4  1  0
  6  5  1  0
  6  1  1  0
  7  1  1  0
  8  7  1  0
 10  9  2  0
 11 10  1  0
 12 11  2  0
 12  8  1  0
 13 12  1  0
 14 13  2  0
 14  9  1  0
 15  9  1  0
 16 15  2  0
 18 17  2  0
 18 15  1  0
 19 17  1  0
 20  6  1  0
 21 20  1  0
 22 21  2  0
 23 22  1  0
 24 23  2  0
 25 24  1  0
 26 25  2  0
 26 21  1  0
 27 25  1  0
 28 27  1  0
 29 24  1  0
 30 29  1  0
  1 31  1  1
  2 32  1  0
  2 33  1  0
  3 34  1  0
  3 35  1  0
  4 36  1  0
  4 37  1  0
  5 38  1  0
  5 39  1  0
  6 40  1  1
  7 41  1  0
  7 42  1  0
 10 43  1  0
 11 44  1  0
 14 45  1  0
 18 46  1  0
 19 47  1  0
 20 48  1  0
 20 49  1  0
 22 50  1  0
 23 51  1  0
 26 52  1  0
 28 53  1  0
 28 54  1  0
 28 55  1  0
 30 56  1  0
 30 57  1  0
 30 58  1  0
M  CHG  1   6   1
M  END
>  <score>  (4) 
-8.74

$$$$
=
     RDKit          3D

 58 60  0  0  0  0  0  0  0  0999 V2000
   -0.0290   66.6860   68.2840 C   0  0  1  0  0  0  0  0  0  0  0  0
   -1.5210   66.8370   68.6330 C   0  0  0  0  0  0  0  0  0  0  0  0
   -2.3590   67.2620   67.4360 C   0  0  0  0  0  0  0  0  0  0  0  0
   -1.9030   68.6110   66.8820 C   0  0  0  0  0  0  0  0  0  0  0  0
   -0.4770   68.9730   67.2780 C   0  0  0  0  0  0  0  0  0  0  0  0
    0.3940   67.7520   67.2640 N   0  0  2  0  0  4  0  0  0  0  0  0
    0.8360   66.7590   69.5620 C   0  0  0  0  0  0  0  0  0  0  0  0
    0.4310   65.7720   70.5140 O   0  0  0  0  0  0  0  0  0  0  0  0
    2.7430   62.3790   70.7310 C   0  0  0  0  0  0  0  0  0  0  0  0
    1.6570   62.5420   71.5940 C   0  0  0  0  0  0  0  0  0  0  0  0
    0.9000   63.7100   71.5320 C   0  0  0  0  0  0  0  0  0  0  0  0
    1.2490   64.6700   70.5990 C   0  0  0  0  0  0  0  0  0  0  0  0
    2.2600   64.5340   69.7040 N   0  0  0  0  0  0  0  0  0  0  0  0
    3.0020   63.3960   69.8170 C   0  0  0  0  0  0  0  0  0  0  0  0
    3.5140   61.1230   70.7720 C   0  0  0  0  0  0  0  0  0  0  0  0
    4.1310   60.7370   69.7850 O   0  0  0  0  0  0  0  0  0  0  0  0
    3.8030   59.0040   71.9370 N   0  0  0  0  0  0  0  0  0  0  0  0
    3.6150   60.2810   72.0090 C   0  0  0  0  0  0  0  0  0  0  0  0
    3.8540   58.4880   73.2370 O   0  0  0  0  0  0  0  0  0  0  0  0
    0.6670   67.2160   65.8710 C   0  0  0  0  0  0  0  0  0  0  0  0
    1.7980   67.9300   65.1820 C   0  0  0  0  0  0  0  0  0  0  0  0
    2.9250   68.3430   65.9000 C   0  0  0  0  0  0  0  0  0  0  0  0
    4.0140   68.9290   65.2440 C   0  0  0  0  0  0  0  0  0  0  0  0
    4.0060   69.1120   63.8560 C   0  0  0  0  0  0  0  0  0  0  0  0
    2.8570   68.7440   63.1370 C   0  0  0  0  0  0  0  0  0  0  0  0
    1.7750   68.1470   63.8000 C   0  0  0  0  0  0  0  0  0  0  0  0
    2.6620   68.8350   61.7830 O   0  0  0  0  0  0  0  0  0  0  0  0
    1.3610   69.2170   61.3480 C   0  0  0  0  0  0  0  0  0  0  0  0
    5.0690   69.6050   63.1520 O   0  0  0  0  0  0  0  0  0  0  0  0
    6.0380   68.6850   62.6600 C   0  0  0  0  0  0  0  0  0  0  0  0
    0.1280   65.6982   67.8261 H   0  0  0  0  0  0  0  0  0  0  0  0
   -1.8967   65.8711   69.0016 H   0  0  0  0  0  0  0  0  0  0  0  0
   -1.6076   67.6229   69.3978 H   0  0  0  0  0  0  0  0  0  0  0  0
   -2.2656   66.5017   66.6466 H   0  0  0  0  0  0  0  0  0  0  0  0
   -3.4042   67.3600   67.7646 H   0  0  0  0  0  0  0  0  0  0  0  0
   -1.9625   68.5759   65.7842 H   0  0  0  0  0  0  0  0  0  0  0  0
   -2.5650   69.3793   67.3081 H   0  0  0  0  0  0  0  0  0  0  0  0
   -0.0789   69.7107   66.5657 H   0  0  0  0  0  0  0  0  0  0  0  0
   -0.4844   69.3952   68.2937 H   0  0  0  0  0  0  0  0  0  0  0  0
    1.3154   68.0704   67.5966 H   0  0  0  0  0  0  0  0  0  0  0  0
    1.8890   66.5885   69.2935 H   0  0  0  0  0  0  0  0  0  0  0  0
    0.7088   67.7537   70.0140 H   0  0  0  0  0  0  0  0  0  0  0  0
    1.4012   61.7539   72.3175 H   0  0  0  0  0  0  0  0  0  0  0  0
    0.0462   63.8650   72.2080 H   0  0  0  0  0  0  0  0  0  0  0  0
    3.8616   63.2736   69.1416 H   0  0  0  0  0  0  0  0  0  0  0  0
    3.5275   60.7589   72.9959 H   0  0  0  0  0  0  0  0  0  0  0  0
    3.9931   57.5182   73.3795 H   0  0  0  0  0  0  0  0  0  0  0  0
    0.9210   66.1486   65.9488 H   0  0  0  0  0  0  0  0  0  0  0  0
   -0.2406   67.3772   65.2707 H   0  0  0  0  0  0  0  0  0  0  0  0
    2.9559   68.2060   66.9910 H   0  0  0  0  0  0  0  0  0  0  0  0
    4.8891   69.2505   65.8278 H   0  0  0  0  0  0  0  0  0  0  0  0
    0.8901   67.8431   63.2216 H   0  0  0  0  0  0  0  0  0  0  0  0
    0.7220   69.4046   62.2235 H   0  0  0  0  0  0  0  0  0  0  0  0
    1.4310   70.1325   60.7422 H   0  0  0  0  0  0  0  0  0  0  0  0
    0.9250   68.4090   60.7422 H   0  0  0  0  0  0  0  0  0  0  0  0
    6.5474   68.2014   63.5065 H   0  0  0  0  0  0  0  0  0  0  0  0
    5.5392   67.9201   62.0467 H   0  0  0  0  0  0  0  0  0  0  0  0
    6.7760   69.2228   62.0467 H   0  0  0  0  0  0  0  0  0  0  0  0
  2  1  1  0
  3  2  1  0
  4  3  1  0
  5  4  1  0
  6  5  1  0
  6  1  1  0
  7  1  1  0
  8  7  1  0
 10  9  2  0
 11 10  1  0
 12 11  2  0
 12  8  1  0
 13 12  1  0
 14 13  2  0
 14  9  1  0
 15  9  1  0
 16 15  2  0
 18 17  2  0
 18 15  1  0
 19 17  1  0
 20  6  1  0
 21 20  1  0
 22 21  2  0
 23 22  1  0
 24 23  2  0
 25 24  1  0
 26 25  2  0
 26 21  1  0
 27 25  1  0
 28 27  1  0
 29 24  1  0
 30 29  1  0
  1 31  1  6
  2 32  1  0
  2 33  1  0
  3 34  1  0
  3 35  1  0
  4 36  1  0
  4 37  1  0
  5 38  1  0
  5 39  1  0
  6 40  1  1
  7 41  1  0
  7 42  1  0
 10 43  1  0
 11 44  1  0
 14 45  1  0
 18 46  1  0
 19 47  1  0
 20 48  1  0
 20 49  1  0
 22 50  1  0
 23 51  1  0
 26 52  1  0
 28 53  1  0
 28 54  1  0
 28 55  1  0
 30 56  1  0
 30 57  1  0
 30 58  1  0
M  CHG  1   6   1
M  END
>  <score>  (5) 
-8.588

$$$$
=
     RDKit          3D

 58 60  0  0  0  0  0  0  0  0999 V2000
    1.8290   62.5650   70.3360 C   0  0  1  0  0  0  0  0  0  0  0  0
    2.9100   63.3930   69.6190 C   0  0  0  0  0  0  0  0  0  0  0  0
    4.2920   62.7630   69.7260 C   0  0  0  0  0  0  0  0  0  0  0  0
    4.7370   62.6320   71.1820 C   0  0  0  0  0  0  0  0  0  0  0  0
    3.5800   62.6670   72.1710 C   0  0  0  0  0  0  0  0  0  0  0  0
    2.3960   61.9330   71.6150 N   0  0  2  0  0  4  0  0  0  0  0  0
    0.5940   63.4420   70.6460 C   0  0  0  0  0  0  0  0  0  0  0  0
    0.9840   64.7650   71.0210 O   0  0  0  0  0  0  0  0  0  0  0  0
    0.2900   67.6420   68.1680 C   0  0  0  0  0  0  0  0  0  0  0  0
    1.4610   67.6800   68.9290 C   0  0  0  0  0  0  0  0  0  0  0  0
    1.6700   66.7180   69.9140 C   0  0  0  0  0  0  0  0  0  0  0  0
    0.7050   65.7430   70.0960 C   0  0  0  0  0  0  0  0  0  0  0  0
   -0.4210   65.6330   69.3460 N   0  0  0  0  0  0  0  0  0  0  0  0
   -0.6100   66.6120   68.4160 C   0  0  0  0  0  0  0  0  0  0  0  0
    0.0940   68.6380   67.0980 C   0  0  0  0  0  0  0  0  0  0  0  0
    1.0530   69.0770   66.4720 O   0  0  0  0  0  0  0  0  0  0  0  0
   -1.9190   68.5840   65.7290 N   0  0  0  0  0  0  0  0  0  0  0  0
   -1.2640   69.1340   66.6990 C   0  0  0  0  0  0  0  0  0  0  0  0
   -3.1410   69.2510   65.5850 O   0  0  0  0  0  0  0  0  0  0  0  0
    2.5930   60.4310   71.5380 C   0  0  0  0  0  0  0  0  0  0  0  0
    1.6500   59.6720   72.4310 C   0  0  0  0  0  0  0  0  0  0  0  0
    0.4670   60.2630   72.8860 C   0  0  0  0  0  0  0  0  0  0  0  0
   -0.4530   59.5280   73.6440 C   0  0  0  0  0  0  0  0  0  0  0  0
   -0.2150   58.1850   73.9620 C   0  0  0  0  0  0  0  0  0  0  0  0
    0.9940   57.6010   73.5490 C   0  0  0  0  0  0  0  0  0  0  0  0
    1.9040   58.3410   72.7800 C   0  0  0  0  0  0  0  0  0  0  0  0
    1.4030   56.3080   73.7530 O   0  0  0  0  0  0  0  0  0  0  0  0
    2.1730   56.0580   74.9250 C   0  0  0  0  0  0  0  0  0  0  0  0
   -1.1090   57.3960   74.6300 O   0  0  0  0  0  0  0  0  0  0  0  0
   -2.1070   58.0280   75.4250 C   0  0  0  0  0  0  0  0  0  0  0  0
    1.5085   61.7507   69.6695 H   0  0  0  0  0  0  0  0  0  0  0  0
    2.6421   63.4778   68.5555 H   0  0  0  0  0  0  0  0  0  0  0  0
    2.9532   64.3791   70.1045 H   0  0  0  0  0  0  0  0  0  0  0  0
    4.2651   61.7627   69.2692 H   0  0  0  0  0  0  0  0  0  0  0  0
    5.0089   63.4133   69.2033 H   0  0  0  0  0  0  0  0  0  0  0  0
    5.2683   61.6761   71.3000 H   0  0  0  0  0  0  0  0  0  0  0  0
    5.3818   63.4950   71.4044 H   0  0  0  0  0  0  0  0  0  0  0  0
    3.8927   62.1908   73.1120 H   0  0  0  0  0  0  0  0  0  0  0  0
    3.2976   63.7143   72.3536 H   0  0  0  0  0  0  0  0  0  0  0  0
    1.6482   62.0543   72.3129 H   0  0  0  0  0  0  0  0  0  0  0  0
   -0.0428   63.4953   69.7506 H   0  0  0  0  0  0  0  0  0  0  0  0
    0.0448   62.9886   71.4843 H   0  0  0  0  0  0  0  0  0  0  0  0
    2.2121   68.4638   68.7515 H   0  0  0  0  0  0  0  0  0  0  0  0
    2.5798   66.7328   70.5321 H   0  0  0  0  0  0  0  0  0  0  0  0
   -1.5359   66.5850   67.8227 H   0  0  0  0  0  0  0  0  0  0  0  0
   -1.7108   69.9806   67.2410 H   0  0  0  0  0  0  0  0  0  0  0  0
   -3.7811   68.9661   64.8855 H   0  0  0  0  0  0  0  0  0  0  0  0
    2.4296   60.1081   70.4992 H   0  0  0  0  0  0  0  0  0  0  0  0
    3.6166   60.2138   71.8771 H   0  0  0  0  0  0  0  0  0  0  0  0
    0.2570   61.3158   72.6461 H   0  0  0  0  0  0  0  0  0  0  0  0
   -1.3761   60.0126   73.9948 H   0  0  0  0  0  0  0  0  0  0  0  0
    2.8371   57.8650   72.4442 H   0  0  0  0  0  0  0  0  0  0  0  0
    1.5596   56.2572   75.8161 H   0  0  0  0  0  0  0  0  0  0  0  0
    2.4997   55.0076   74.9320 H   0  0  0  0  0  0  0  0  0  0  0  0
    3.0544   56.7161   74.9320 H   0  0  0  0  0  0  0  0  0  0  0  0
   -1.8748   57.8810   76.4901 H   0  0  0  0  0  0  0  0  0  0  0  0
   -2.1281   59.1044   75.1995 H   0  0  0  0  0  0  0  0  0  0  0  0
   -3.0891   57.5869   75.1995 H   0  0  0  0  0  0  0  0  0  0  0  0
  2  1  1  0
  3  2  1  0
  4  3  1  0
  5  4  1  0
  6  5  1  0
  6  1  1  0
  7  1  1  0
  8  7  1  0
 10  9  2  0
 11 10  1  0
 12 11  2  0
 12  8  1  0
 13 12  1  0
 14 13  2  0
 14  9  1  0
 15  9  1  0
 16 15  2  0
 18 17  2  0
 18 15  1  0
 19 17  1  0
 20  6  1  0
 21 20  1  0
 22 21  2  0
 23 22  1  0
 24 23  2  0
 25 24  1  0
 26 25  2  0
 26 21  1  0
 27 25  1  0
 28 27  1  0
 29 24  1  0
 30 29  1  0
  1 31  1  6
  2 32  1  0
  2 33  1  0
  3 34  1  0
  3 35  1  0
  4 36  1  0
  4 37  1  0
  5 38  1  0
  5 39  1  0
  6 40  1  1
  7 41  1  0
  7 42  1  0
 10 43  1  0
 11 44  1  0
 14 45  1  0
 18 46  1  0
 19 47  1  0
 20 48  1  0
 20 49  1  0
 22 50  1  0
 23 51  1  0
 26 52  1  0
 28 53  1  0
 28 54  1  0
 28 55  1  0
 30 56  1  0
 30 57  1  0
 30 58  1  0
M  CHG  1   6   1
M  END
>  <score>  (6) 
-8.093

$$$$
=
     RDKit          3D

 58 60  0  0  0  0  0  0  0  0999 V2000
    4.0540   61.5250   71.7480 C   0  0  1  0  0  0  0  0  0  0  0  0
    5.2170   62.2410   71.0400 C   0  0  0  0  0  0  0  0  0  0  0  0
    4.7510   63.4270   70.2060 C   0  0  0  0  0  0  0  0  0  0  0  0
    3.7760   62.9940   69.1130 C   0  0  0  0  0  0  0  0  0  0  0  0
    3.1120   61.6520   69.3950 C   0  0  0  0  0  0  0  0  0  0  0  0
    2.8040   61.5190   70.8560 N   0  0  2  0  0  4  0  0  0  0  0  0
    4.4640   60.0900   72.1460 C   0  0  0  0  0  0  0  0  0  0  0  0
    4.0890   59.8040   73.4960 O   0  0  0  0  0  0  0  0  0  0  0  0
    1.3960   56.7180   73.8650 C   0  0  0  0  0  0  0  0  0  0  0  0
    1.8020   57.1450   72.5980 C   0  0  0  0  0  0  0  0  0  0  0  0
    2.6900   58.2120   72.4850 C   0  0  0  0  0  0  0  0  0  0  0  0
    3.1520   58.8080   73.6450 C   0  0  0  0  0  0  0  0  0  0  0  0
    2.8310   58.3940   74.8970 N   0  0  0  0  0  0  0  0  0  0  0  0
    1.9320   57.3720   74.9700 C   0  0  0  0  0  0  0  0  0  0  0  0
    0.4890   55.5610   73.9790 C   0  0  0  0  0  0  0  0  0  0  0  0
   -0.7230   55.7080   73.8760 O   0  0  0  0  0  0  0  0  0  0  0  0
    0.3440   53.3220   74.9260 N   0  0  0  0  0  0  0  0  0  0  0  0
    0.9910   54.1630   74.1860 C   0  0  0  0  0  0  0  0  0  0  0  0
    1.0440   52.1100   74.9350 O   0  0  0  0  0  0  0  0  0  0  0  0
    1.6910   62.4350   71.3290 C   0  0  0  0  0  0  0  0  0  0  0  0
    1.0290   61.9470   72.5890 C   0  0  0  0  0  0  0  0  0  0  0  0
    0.2410   60.7910   72.5790 C   0  0  0  0  0  0  0  0  0  0  0  0
   -0.3030   60.2880   73.7670 C   0  0  0  0  0  0  0  0  0  0  0  0
   -0.0700   60.9240   74.9930 C   0  0  0  0  0  0  0  0  0  0  0  0
    0.6800   62.1120   75.0010 C   0  0  0  0  0  0  0  0  0  0  0  0
    1.2300   62.6030   73.8080 C   0  0  0  0  0  0  0  0  0  0  0  0
    1.0200   62.8700   76.0910 O   0  0  0  0  0  0  0  0  0  0  0  0
    1.1370   64.2750   75.8840 C   0  0  0  0  0  0  0  0  0  0  0  0
   -0.5080   60.4380   76.1930 O   0  0  0  0  0  0  0  0  0  0  0  0
   -1.0530   59.1240   76.2320 C   0  0  0  0  0  0  0  0  0  0  0  0
    3.8101   62.0747   72.6691 H   0  0  0  0  0  0  0  0  0  0  0  0
    5.9249   62.6013   71.8009 H   0  0  0  0  0  0  0  0  0  0  0  0
    5.6890   61.5181   70.3583 H   0  0  0  0  0  0  0  0  0  0  0  0
    4.2507   64.1524   70.8644 H   0  0  0  0  0  0  0  0  0  0  0  0
    5.6314   63.8775   69.7245 H   0  0  0  0  0  0  0  0  0  0  0  0
    2.9913   63.7595   69.0218 H   0  0  0  0  0  0  0  0  0  0  0  0
    4.3557   62.8821   68.1849 H   0  0  0  0  0  0  0  0  0  0  0  0
    2.1772   61.5820   68.8195 H   0  0  0  0  0  0  0  0  0  0  0  0
    3.7985   60.8448   69.0998 H   0  0  0  0  0  0  0  0  0  0  0  0
    2.4152   60.5717   70.9675 H   0  0  0  0  0  0  0  0  0  0  0  0
    3.9655   59.3747   71.4753 H   0  0  0  0  0  0  0  0  0  0  0  0
    5.5572   60.0022   72.0606 H   0  0  0  0  0  0  0  0  0  0  0  0
    1.4229   56.6420   71.6962 H   0  0  0  0  0  0  0  0  0  0  0  0
    3.0159   58.5719   71.4980 H   0  0  0  0  0  0  0  0  0  0  0  0
    1.6089   57.0425   75.9685 H   0  0  0  0  0  0  0  0  0  0  0  0
    1.9259   53.8472   73.7000 H   0  0  0  0  0  0  0  0  0  0  0  0
    0.6965   51.3415   75.4534 H   0  0  0  0  0  0  0  0  0  0  0  0
    2.1137   63.4328   71.5180 H   0  0  0  0  0  0  0  0  0  0  0  0
    0.9245   62.4588   70.5404 H   0  0  0  0  0  0  0  0  0  0  0  0
    0.0470   60.2723   71.6286 H   0  0  0  0  0  0  0  0  0  0  0  0
   -0.9227   59.3797   73.7371 H   0  0  0  0  0  0  0  0  0  0  0  0
    1.8321   63.5233   73.8314 H   0  0  0  0  0  0  0  0  0  0  0  0
    1.1796   64.7867   76.8568 H   0  0  0  0  0  0  0  0  0  0  0  0
    2.0559   64.4869   75.3177 H   0  0  0  0  0  0  0  0  0  0  0  0
    0.2658   64.6360   75.3177 H   0  0  0  0  0  0  0  0  0  0  0  0
   -1.1825   58.8117   77.2788 H   0  0  0  0  0  0  0  0  0  0  0  0
   -2.0285   59.1164   75.7237 H   0  0  0  0  0  0  0  0  0  0  0  0
   -0.3693   58.4282   75.7237 H   0  0  0  0  0  0  0  0  0  0  0  0
  2  1  1  0
  3  2  1  0
  4  3  1  0
  5  4  1  0
  6  5  1  0
  6  1  1  0
  7  1  1  0
  8  7  1  0
 10  9  2  0
 11 10  1  0
 12 11  2  0
 12  8  1  0
 13 12  1  0
 14 13  2  0
 14  9  1  0
 15  9  1  0
 16 15  2  0
 18 17  2  0
 18 15  1  0
 19 17  1  0
 20  6  1  0
 21 20  1  0
 22 21  2  0
 23 22  1  0
 24 23  2  0
 25 24  1  0
 26 25  2  0
 26 21  1  0
 27 25  1  0
 28 27  1  0
 29 24  1  0
 30 29  1  0
  1 31  1  1
  2 32  1  0
  2 33  1  0
  3 34  1  0
  3 35  1  0
  4 36  1  0
  4 37  1  0
  5 38  1  0
  5 39  1  0
  6 40  1  6
  7 41  1  0
  7 42  1  0
 10 43  1  0
 11 44  1  0
 14 45  1  0
 18 46  1  0
 19 47  1  0
 20 48  1  0
 20 49  1  0
 22 50  1  0
 23 51  1  0
 26 52  1  0
 28 53  1  0
 28 54  1  0
 28 55  1  0
 30 56  1  0
 30 57  1  0
 30 58  1  0
M  CHG  1   6   1
M  END
>  <score>  (7) 
-8.016

$$$$
=
     RDKit          3D

 58 60  0  0  0  0  0  0  0  0999 V2000
    1.5320   67.6820   68.3640 C   0  0  1  0  0  0  0  0  0  0  0  0
    1.4070   66.7110   67.1770 C   0  0  0  0  0  0  0  0  0  0  0  0
    0.9680   67.4070   65.8970 C   0  0  0  0  0  0  0  0  0  0  0  0
   -0.3980   68.0720   66.0620 C   0  0  0  0  0  0  0  0  0  0  0  0
   -0.7700   68.3330   67.5160 C   0  0  0  0  0  0  0  0  0  0  0  0
    0.4390   68.7580   68.2950 N   0  0  2  0  0  4  0  0  0  0  0  0
    1.4750   66.9120   69.7030 C   0  0  0  0  0  0  0  0  0  0  0  0
    0.5850   65.7960   69.6150 O   0  0  0  0  0  0  0  0  0  0  0  0
    1.9360   62.4860   71.6450 C   0  0  0  0  0  0  0  0  0  0  0  0
    2.8480   63.3800   71.0800 C   0  0  0  0  0  0  0  0  0  0  0  0
    2.3780   64.4820   70.3670 C   0  0  0  0  0  0  0  0  0  0  0  0
    1.0100   64.6560   70.2560 C   0  0  0  0  0  0  0  0  0  0  0  0
    0.0860   63.8460   70.8320 N   0  0  0  0  0  0  0  0  0  0  0  0
    0.5810   62.7590   71.4910 C   0  0  0  0  0  0  0  0  0  0  0  0
    2.4400   61.3460   72.4330 C   0  0  0  0  0  0  0  0  0  0  0  0
    2.7120   60.2830   71.8880 O   0  0  0  0  0  0  0  0  0  0  0  0
    1.6900   61.5160   74.7440 N   0  0  0  0  0  0  0  0  0  0  0  0
    2.6760   61.4330   73.9120 C   0  0  0  0  0  0  0  0  0  0  0  0
    2.2100   61.5840   76.0420 O   0  0  0  0  0  0  0  0  0  0  0  0
    0.9420   70.1420   67.9300 C   0  0  0  0  0  0  0  0  0  0  0  0
    2.4400   70.2560   68.0010 C   0  0  0  0  0  0  0  0  0  0  0  0
    3.0650   70.7350   69.1580 C   0  0  0  0  0  0  0  0  0  0  0  0
    4.4620   70.7580   69.2570 C   0  0  0  0  0  0  0  0  0  0  0  0
    5.2670   70.3020   68.2060 C   0  0  0  0  0  0  0  0  0  0  0  0
    4.6450   69.8660   67.0240 C   0  0  0  0  0  0  0  0  0  0  0  0
    3.2450   69.8350   66.9380 C   0  0  0  0  0  0  0  0  0  0  0  0
    5.2550   69.3790   65.8970 O   0  0  0  0  0  0  0  0  0  0  0  0
    4.4020   68.8820   64.8710 C   0  0  0  0  0  0  0  0  0  0  0  0
    6.6300   70.2270   68.2740 O   0  0  0  0  0  0  0  0  0  0  0  0
    7.2980   70.9750   69.2840 C   0  0  0  0  0  0  0  0  0  0  0  0
    2.5081   68.1858   68.3053 H   0  0  0  0  0  0  0  0  0  0  0  0
    2.3850   66.2384   67.0037 H   0  0  0  0  0  0  0  0  0  0  0  0
    0.6377   65.9678   67.4334 H   0  0  0  0  0  0  0  0  0  0  0  0
    1.7104   68.1753   65.6351 H   0  0  0  0  0  0  0  0  0  0  0  0
    0.8902   66.6508   65.1019 H   0  0  0  0  0  0  0  0  0  0  0  0
   -0.3852   69.0331   65.5271 H   0  0  0  0  0  0  0  0  0  0  0  0
   -1.1487   67.3797   65.6531 H   0  0  0  0  0  0  0  0  0  0  0  0
   -1.5278   69.1292   67.5593 H   0  0  0  0  0  0  0  0  0  0  0  0
   -1.1705   67.4070   67.9544 H   0  0  0  0  0  0  0  0  0  0  0  0
    0.1161   68.8559   69.2681 H   0  0  0  0  0  0  0  0  0  0  0  0
    2.4831   66.5494   69.9526 H   0  0  0  0  0  0  0  0  0  0  0  0
    1.1063   67.5935   70.4838 H   0  0  0  0  0  0  0  0  0  0  0  0
    3.9294   63.2159   71.1967 H   0  0  0  0  0  0  0  0  0  0  0  0
    3.0768   65.1947   69.9047 H   0  0  0  0  0  0  0  0  0  0  0  0
   -0.1388   62.0520   71.9293 H   0  0  0  0  0  0  0  0  0  0  0  0
    3.7069   61.4260   74.2956 H   0  0  0  0  0  0  0  0  0  0  0  0
    1.5983   61.6522   76.8174 H   0  0  0  0  0  0  0  0  0  0  0  0
    0.6203   70.3734   66.9039 H   0  0  0  0  0  0  0  0  0  0  0  0
    0.5214   70.8499   68.6594 H   0  0  0  0  0  0  0  0  0  0  0  0
    2.4533   71.0969   69.9976 H   0  0  0  0  0  0  0  0  0  0  0  0
    4.9338   71.1401   70.1743 H   0  0  0  0  0  0  0  0  0  0  0  0
    2.7704   69.4717   66.0145 H   0  0  0  0  0  0  0  0  0  0  0  0
    3.5366   68.3778   65.3259 H   0  0  0  0  0  0  0  0  0  0  0  0
    4.0530   69.7182   64.2472 H   0  0  0  0  0  0  0  0  0  0  0  0
    4.9573   68.1661   64.2472 H   0  0  0  0  0  0  0  0  0  0  0  0
    6.9799   70.6188   70.2749 H   0  0  0  0  0  0  0  0  0  0  0  0
    8.3851   70.8439   69.1788 H   0  0  0  0  0  0  0  0  0  0  0  0
    7.0453   72.0404   69.1788 H   0  0  0  0  0  0  0  0  0  0  0  0
  2  1  1  0
  3  2  1  0
  4  3  1  0
  5  4  1  0
  6  5  1  0
  6  1  1  0
  7  1  1  0
  8  7  1  0
 10  9  2  0
 11 10  1  0
 12 11  2  0
 12  8  1  0
 13 12  1  0
 14 13  2  0
 14  9  1  0
 15  9  1  0
 16 15  2  0
 18 17  2  0
 18 15  1  0
 19 17  1  0
 20  6  1  0
 21 20  1  0
 22 21  2  0
 23 22  1  0
 24 23  2  0
 25 24  1  0
 26 25  2  0
 26 21  1  0
 27 25  1  0
 28 27  1  0
 29 24  1  0
 30 29  1  0
  1 31  1  6
  2 32  1  0
  2 33  1  0
  3 34  1  0
  3 35  1  0
  4 36  1  0
  4 37  1  0
  5 38  1  0
  5 39  1  0
  6 40  1  1
  7 41  1  0
  7 42  1  0
 10 43  1  0
 11 44  1  0
 14 45  1  0
 18 46  1  0
 19 47  1  0
 20 48  1  0
 20 49  1  0
 22 50  1  0
 23 51  1  0
 26 52  1  0
 28 53  1  0
 28 54  1  0
 28 55  1  0
 30 56  1  0
 30 57  1  0
 30 58  1  0
M  CHG  1   6   1
M  END
>  <score>  (8) 
-8.016

$$$$
=
     RDKit          3D

 58 60  0  0  0  0  0  0  0  0999 V2000
    2.0210   62.5510   70.3900 C   0  0  1  0  0  0  0  0  0  0  0  0
    3.1620   63.4910   69.9630 C   0  0  0  0  0  0  0  0  0  0  0  0
    4.5310   62.8370   70.0850 C   0  0  0  0  0  0  0  0  0  0  0  0
    4.8260   62.4200   71.5260 C   0  0  0  0  0  0  0  0  0  0  0  0
    3.5730   62.2740   72.3790 C   0  0  0  0  0  0  0  0  0  0  0  0
    2.4600   61.6750   71.5720 N   0  0  2  0  0  4  0  0  0  0  0  0
    0.7520   63.3630   70.7360 C   0  0  0  0  0  0  0  0  0  0  0  0
    1.0830   64.7110   71.0780 O   0  0  0  0  0  0  0  0  0  0  0  0
    0.1310   67.4980   68.2100 C   0  0  0  0  0  0  0  0  0  0  0  0
    1.3350   67.5980   68.9100 C   0  0  0  0  0  0  0  0  0  0  0  0
    1.6330   66.6660   69.9010 C   0  0  0  0  0  0  0  0  0  0  0  0
    0.7190   65.6570   70.1500 C   0  0  0  0  0  0  0  0  0  0  0  0
   -0.4380   65.4860   69.4600 N   0  0  0  0  0  0  0  0  0  0  0  0
   -0.7130   66.4370   68.5220 C   0  0  0  0  0  0  0  0  0  0  0  0
   -0.1590   68.4620   67.1320 C   0  0  0  0  0  0  0  0  0  0  0  0
    0.7450   69.1130   66.6190 O   0  0  0  0  0  0  0  0  0  0  0  0
   -1.7630   68.7000   65.3150 N   0  0  0  0  0  0  0  0  0  0  0  0
   -1.5410   68.6710   66.5890 C   0  0  0  0  0  0  0  0  0  0  0  0
   -3.1310   68.9090   65.1080 O   0  0  0  0  0  0  0  0  0  0  0  0
    2.6780   60.2150   71.2240 C   0  0  0  0  0  0  0  0  0  0  0  0
    1.9720   59.2780   72.1660 C   0  0  0  0  0  0  0  0  0  0  0  0
    2.3220   57.9250   72.2230 C   0  0  0  0  0  0  0  0  0  0  0  0
    1.7260   57.0720   73.1600 C   0  0  0  0  0  0  0  0  0  0  0  0
    0.7700   57.5510   74.0640 C   0  0  0  0  0  0  0  0  0  0  0  0
    0.3800   58.8980   73.9790 C   0  0  0  0  0  0  0  0  0  0  0  0
    0.9900   59.7470   73.0450 C   0  0  0  0  0  0  0  0  0  0  0  0
   -0.5270   59.5500   74.7750 O   0  0  0  0  0  0  0  0  0  0  0  0
   -1.8420   59.7050   74.2510 C   0  0  0  0  0  0  0  0  0  0  0  0
    0.2130   56.7860   75.0520 O   0  0  0  0  0  0  0  0  0  0  0  0
    0.8840   56.7060   76.3040 C   0  0  0  0  0  0  0  0  0  0  0  0
    1.7783   61.8861   69.5480 H   0  0  0  0  0  0  0  0  0  0  0  0
    3.0035   63.7852   68.9150 H   0  0  0  0  0  0  0  0  0  0  0  0
    3.1464   64.3626   70.6339 H   0  0  0  0  0  0  0  0  0  0  0  0
    4.5597   61.9451   69.4417 H   0  0  0  0  0  0  0  0  0  0  0  0
    5.2919   63.5682   69.7745 H   0  0  0  0  0  0  0  0  0  0  0  0
    5.3516   61.4538   71.5093 H   0  0  0  0  0  0  0  0  0  0  0  0
    5.4365   63.2161   71.9772 H   0  0  0  0  0  0  0  0  0  0  0  0
    3.7919   61.6204   73.2363 H   0  0  0  0  0  0  0  0  0  0  0  0
    3.2632   63.2686   72.7324 H   0  0  0  0  0  0  0  0  0  0  0  0
    1.6434   61.6650   72.1997 H   0  0  0  0  0  0  0  0  0  0  0  0
    0.0796   63.3676   69.8655 H   0  0  0  0  0  0  0  0  0  0  0  0
    0.2604   62.8930   71.6006 H   0  0  0  0  0  0  0  0  0  0  0  0
    2.0434   68.4075   68.6802 H   0  0  0  0  0  0  0  0  0  0  0  0
    2.5713   66.7302   70.4715 H   0  0  0  0  0  0  0  0  0  0  0  0
   -1.6649   66.3601   67.9761 H   0  0  0  0  0  0  0  0  0  0  0  0
   -2.3813   68.8020   67.2867 H   0  0  0  0  0  0  0  0  0  0  0  0
   -3.4901   68.9604   64.1868 H   0  0  0  0  0  0  0  0  0  0  0  0
    2.3033   60.0371   70.2052 H   0  0  0  0  0  0  0  0  0  0  0  0
    3.7564   60.0136   71.3039 H   0  0  0  0  0  0  0  0  0  0  0  0
    3.0730   57.5270   71.5247 H   0  0  0  0  0  0  0  0  0  0  0  0
    2.0129   56.0104   73.1863 H   0  0  0  0  0  0  0  0  0  0  0  0
    0.6901   60.8045   73.0024 H   0  0  0  0  0  0  0  0  0  0  0  0
   -2.5596   59.7896   75.0804 H   0  0  0  0  0  0  0  0  0  0  0  0
   -1.8860   60.6145   73.6339 H   0  0  0  0  0  0  0  0  0  0  0  0
   -2.0962   58.8306   73.6339 H   0  0  0  0  0  0  0  0  0  0  0  0
    0.1507   56.7934   77.1193 H   0  0  0  0  0  0  0  0  0  0  0  0
    1.4037   55.7395   76.3804 H   0  0  0  0  0  0  0  0  0  0  0  0
    1.6164   57.5232   76.3804 H   0  0  0  0  0  0  0  0  0  0  0  0
  2  1  1  0
  3  2  1  0
  4  3  1  0
  5  4  1  0
  6  5  1  0
  6  1  1  0
  7  1  1  0
  8  7  1  0
 10  9  2  0
 11 10  1  0
 12 11  2  0
 12  8  1  0
 13 12  1  0
 14 13  2  0
 14  9  1  0
 15  9  1  0
 16 15  2  0
 18 17  2  0
 18 15  1  0
 19 17  1  0
 20  6  1  0
 21 20  1  0
 22 21  2  0
 23 22  1  0
 24 23  2  0
 25 24  1  0
 26 25  2  0
 26 21  1  0
 27 25  1  0
 28 27  1  0
 29 24  1  0
 30 29  1  0
  1 31  1  6
  2 32  1  0
  2 33  1  0
  3 34  1  0
  3 35  1  0
  4 36  1  0
  4 37  1  0
  5 38  1  0
  5 39  1  0
  6 40  1  1
  7 41  1  0
  7 42  1  0
 10 43  1  0
 11 44  1  0
 14 45  1  0
 18 46  1  0
 19 47  1  0
 20 48  1  0
 20 49  1  0
 22 50  1  0
 23 51  1  0
 26 52  1  0
 28 53  1  0
 28 54  1  0
 28 55  1  0
 30 56  1  0
 30 57  1  0
 30 58  1  0
M  CHG  1   6   1
M  END
>  <score>  (9) 
-8.001

$$$$
