=
     RDKit          3D

 42 43  0  0  0  0  0  0  0  0999 V2000
    2.8390   68.9720   65.9030 C   0  0  0  0  0  0  0  0  0  0  0  0
    2.4420   69.1700   67.2540 C   0  0  0  0  0  0  0  0  0  0  0  0
    3.3630   69.7430   68.1400 C   0  0  0  0  0  0  0  0  0  0  0  0
    4.6050   70.1110   67.6520 C   0  0  0  0  0  0  0  0  0  0  0  0
    4.9730   69.9590   66.3310 C   0  0  0  0  0  0  0  0  0  0  0  0
    4.0910   69.4060   65.4130 C   0  0  0  0  0  0  0  0  0  0  0  0
    4.4700   69.2540   63.9690 C   0  0  0  0  0  0  0  0  0  0  0  0
    6.3440   70.4820   66.1570 C   0  0  0  0  0  0  0  0  0  0  0  0
    6.7210   70.9050   67.4860 O   0  0  0  0  0  0  0  0  0  0  0  0
    5.7090   70.7100   68.3790 C   0  0  0  0  0  0  0  0  0  0  0  0
    5.7080   70.9710   69.5670 O   0  0  0  0  0  0  0  0  0  0  0  0
    2.0720   66.9970   64.9900 C   0  0  0  0  0  0  0  0  0  0  0  0
    1.9460   68.4170   65.0190 O   0  0  0  0  0  0  0  0  0  0  0  0
    3.0310   69.9300   69.4520 O   0  0  0  0  0  0  0  0  0  0  0  0
    1.0340   68.8410   67.7090 C   0  0  0  0  0  0  0  0  0  0  0  0
    0.9980   67.6630   68.6440 C   0  0  0  0  0  0  0  0  0  0  0  0
   -0.0060   66.7840   68.8490 C   0  0  0  0  0  0  0  0  0  0  0  0
   -1.3350   66.8090   68.1400 C   0  0  0  0  0  0  0  0  0  0  0  0
    0.1550   65.6490   69.8520 C   0  0  0  0  0  0  0  0  0  0  0  0
    1.5960   65.4260   70.3050 C   0  0  0  0  0  0  0  0  0  0  0  0
    2.0840   63.9780   70.3840 C   0  0  0  0  0  0  0  0  0  0  0  0
    1.3450   63.1000   69.8600 O   0  0  0  0  0  0  0  0  0  0  0  0
    3.2050   63.8370   70.9550 O   0  0  0  0  0  1  0  0  0  0  0  0
    5.4888   68.8454   63.8984 H   0  0  0  0  0  0  0  0  0  0  0  0
    3.7652   68.5690   63.4751 H   0  0  0  0  0  0  0  0  0  0  0  0
    4.4338   70.2362   63.4751 H   0  0  0  0  0  0  0  0  0  0  0  0
    7.0198   69.6959   65.7892 H   0  0  0  0  0  0  0  0  0  0  0  0
    6.3991   71.2960   65.4191 H   0  0  0  0  0  0  0  0  0  0  0  0
    2.1063   66.6108   66.0194 H   0  0  0  0  0  0  0  0  0  0  0  0
    1.2088   66.5630   64.4641 H   0  0  0  0  0  0  0  0  0  0  0  0
    2.9981   66.7217   64.4641 H   0  0  0  0  0  0  0  0  0  0  0  0
    3.6848   70.3354   70.0751 H   0  0  0  0  0  0  0  0  0  0  0  0
    0.6156   69.7167   68.2267 H   0  0  0  0  0  0  0  0  0  0  0  0
    0.4436   68.5820   66.8177 H   0  0  0  0  0  0  0  0  0  0  0  0
    1.9085   67.4961   69.2382 H   0  0  0  0  0  0  0  0  0  0  0  0
   -2.1465   66.8243   68.8825 H   0  0  0  0  0  0  0  0  0  0  0  0
   -1.3976   67.7085   67.5099 H   0  0  0  0  0  0  0  0  0  0  0  0
   -1.4314   65.9125   67.5099 H   0  0  0  0  0  0  0  0  0  0  0  0
   -0.4551   65.8799   70.7377 H   0  0  0  0  0  0  0  0  0  0  0  0
   -0.1680   64.7269   69.3466 H   0  0  0  0  0  0  0  0  0  0  0  0
    2.2514   65.9589   69.6004 H   0  0  0  0  0  0  0  0  0  0  0  0
    1.6299   65.7954   71.3406 H   0  0  0  0  0  0  0  0  0  0  0  0
  2  1  2  0
  3  2  1  0
  4  3  2  0
  5  4  1  0
  6  5  2  0
  6  1  1  0
  7  6  1  0
  8  5  1  0
  9  8  1  0
 10  4  1  0
 10  9  1  0
 11 10  2  0
 13 12  1  0
 13  1  1  0
 14  3  1  0
 15  2  1  0
 16 15  1  0
 17 16  2  0
 18 17  1  0
 19 17  1  0
 20 19  1  0
 21 20  1  0
 22 21  2  0
 23 21  1  0
  7 24  1  0
  7 25  1  0
  7 26  1  0
  8 27  1  0
  8 28  1  0
 12 29  1  0
 12 30  1  0
 12 31  1  0
 14 32  1  0
 15 33  1  0
 15 34  1  0
 16 35  1  0
 18 36  1  0
 18 37  1  0
 18 38  1  0
 19 39  1  0
 19 40  1  0
 20 41  1  0
 20 42  1  0
M  CHG  1  23  -1
M  END
>  <score>  (1) 
-9.492

$$$$
=
     RDKit          3D

 42 43  0  0  0  0  0  0  0  0999 V2000
    3.5290   69.5810   67.2890 C   0  0  0  0  0  0  0  0  0  0  0  0
    2.2670   69.0860   66.8600 C   0  0  0  0  0  0  0  0  0  0  0  0
    2.0960   68.7920   65.5010 C   0  0  0  0  0  0  0  0  0  0  0  0
    3.1700   68.9750   64.6470 C   0  0  0  0  0  0  0  0  0  0  0  0
    4.4080   69.4130   65.0730 C   0  0  0  0  0  0  0  0  0  0  0  0
    4.6280   69.7070   66.4120 C   0  0  0  0  0  0  0  0  0  0  0  0
    5.9750   70.1640   66.8930 C   0  0  0  0  0  0  0  0  0  0  0  0
    5.3190   69.4620   63.9120 C   0  0  0  0  0  0  0  0  0  0  0  0
    4.4870   69.0500   62.8050 O   0  0  0  0  0  0  0  0  0  0  0  0
    3.2240   68.7440   63.2160 C   0  0  0  0  0  0  0  0  0  0  0  0
    2.2950   68.3580   62.5320 O   0  0  0  0  0  0  0  0  0  0  0  0
    3.4300   71.2390   68.8910 C   0  0  0  0  0  0  0  0  0  0  0  0
    3.7160   69.8680   68.6200 O   0  0  0  0  0  0  0  0  0  0  0  0
    0.8930   68.3360   65.0420 O   0  0  0  0  0  0  0  0  0  0  0  0
    1.1570   68.8100   67.8550 C   0  0  0  0  0  0  0  0  0  0  0  0
    1.5210   67.7180   68.8250 C   0  0  0  0  0  0  0  0  0  0  0  0
    0.7450   66.7180   69.2930 C   0  0  0  0  0  0  0  0  0  0  0  0
   -0.6930   66.4870   68.9080 C   0  0  0  0  0  0  0  0  0  0  0  0
    1.3050   65.7050   70.2820 C   0  0  0  0  0  0  0  0  0  0  0  0
    0.4320   64.4640   70.4550 C   0  0  0  0  0  0  0  0  0  0  0  0
    1.1500   63.1180   70.5720 C   0  0  0  0  0  0  0  0  0  0  0  0
    0.9900   62.4810   71.6490 O   0  0  0  0  0  0  0  0  0  0  0  0
    1.8110   62.7880   69.5440 O   0  0  0  0  0  1  0  0  0  0  0  0
    5.9893   70.1689   67.9929 H   0  0  0  0  0  0  0  0  0  0  0  0
    6.7498   69.4784   66.5192 H   0  0  0  0  0  0  0  0  0  0  0  0
    6.1727   71.1795   66.5192 H   0  0  0  0  0  0  0  0  0  0  0  0
    5.7017   70.4815   63.7567 H   0  0  0  0  0  0  0  0  0  0  0  0
    6.2056   68.8235   64.0391 H   0  0  0  0  0  0  0  0  0  0  0  0
    3.3967   71.3985   69.9789 H   0  0  0  0  0  0  0  0  0  0  0  0
    4.2156   71.8713   68.4516 H   0  0  0  0  0  0  0  0  0  0  0  0
    2.4572   71.5044   68.4516 H   0  0  0  0  0  0  0  0  0  0  0  0
    0.7760   68.1293   64.0809 H   0  0  0  0  0  0  0  0  0  0  0  0
    0.9505   69.7311   68.4198 H   0  0  0  0  0  0  0  0  0  0  0  0
    0.2725   68.4793   67.2908 H   0  0  0  0  0  0  0  0  0  0  0  0
    2.5544   67.7377   69.2015 H   0  0  0  0  0  0  0  0  0  0  0  0
   -1.3047   66.3887   69.8169 H   0  0  0  0  0  0  0  0  0  0  0  0
   -1.0546   67.3386   68.3130 H   0  0  0  0  0  0  0  0  0  0  0  0
   -0.7697   65.5650   68.3130 H   0  0  0  0  0  0  0  0  0  0  0  0
    2.2958   65.3851   69.9270 H   0  0  0  0  0  0  0  0  0  0  0  0
    1.3492   66.2043   71.2612 H   0  0  0  0  0  0  0  0  0  0  0  0
   -0.1635   64.6026   71.3694 H   0  0  0  0  0  0  0  0  0  0  0  0
   -0.1524   64.3951   69.5256 H   0  0  0  0  0  0  0  0  0  0  0  0
  2  1  2  0
  3  2  1  0
  4  3  2  0
  5  4  1  0
  6  5  2  0
  6  1  1  0
  7  6  1  0
  8  5  1  0
  9  8  1  0
 10  4  1  0
 10  9  1  0
 11 10  2  0
 13 12  1  0
 13  1  1  0
 14  3  1  0
 15  2  1  0
 16 15  1  0
 17 16  2  0
 18 17  1  0
 19 17  1  0
 20 19  1  0
 21 20  1  0
 22 21  2  0
 23 21  1  0
  7 24  1  0
  7 25  1  0
  7 26  1  0
  8 27  1  0
  8 28  1  0
 12 29  1  0
 12 30  1  0
 12 31  1  0
 14 32  1  0
 15 33  1  0
 15 34  1  0
 16 35  1  0
 18 36  1  0
 18 37  1  0
 18 38  1  0
 19 39  1  0
 19 40  1  0
 20 41  1  0
 20 42  1  0
M  CHG  1  23  -1
M  END
>  <score>  (2) 
-9.043

$$$$
=
     RDKit          3D

 42 43  0  0  0  0  0  0  0  0999 V2000
    3.0920   69.3170   65.8870 C   0  0  0  0  0  0  0  0  0  0  0  0
    4.4660   69.4670   65.5510 C   0  0  0  0  0  0  0  0  0  0  0  0
    5.3450   69.9290   66.5380 C   0  0  0  0  0  0  0  0  0  0  0  0
    4.8380   70.1950   67.7990 C   0  0  0  0  0  0  0  0  0  0  0  0
    3.5130   70.0070   68.1360 C   0  0  0  0  0  0  0  0  0  0  0  0
    2.6060   69.5400   67.1940 C   0  0  0  0  0  0  0  0  0  0  0  0
    1.1670   69.3120   67.5530 C   0  0  0  0  0  0  0  0  0  0  0  0
    3.3320   70.3570   69.5600 C   0  0  0  0  0  0  0  0  0  0  0  0
    4.6470   70.7840   69.9790 O   0  0  0  0  0  0  0  0  0  0  0  0
    5.5520   70.6820   68.9640 C   0  0  0  0  0  0  0  0  0  0  0  0
    6.7380   70.9530   68.9990 O   0  0  0  0  0  0  0  0  0  0  0  0
    1.7690   67.5400   65.2420 C   0  0  0  0  0  0  0  0  0  0  0  0
    2.2170   68.8590   64.9320 O   0  0  0  0  0  0  0  0  0  0  0  0
    6.6680   70.1090   66.2520 O   0  0  0  0  0  0  0  0  0  0  0  0
    4.9820   69.0640   64.1840 C   0  0  0  0  0  0  0  0  0  0  0  0
    4.9600   67.5730   63.9830 C   0  0  0  0  0  0  0  0  0  0  0  0
    4.4900   66.8750   62.9280 C   0  0  0  0  0  0  0  0  0  0  0  0
    3.8830   67.4830   61.6900 C   0  0  0  0  0  0  0  0  0  0  0  0
    4.5570   65.3540   62.9170 C   0  0  0  0  0  0  0  0  0  0  0  0
    4.8120   64.7380   64.2910 C   0  0  0  0  0  0  0  0  0  0  0  0
    3.6080   64.1380   65.0190 C   0  0  0  0  0  0  0  0  0  0  0  0
    3.8430   63.5230   66.0950 O   0  0  0  0  0  0  0  0  0  0  0  0
    2.4960   64.3570   64.4560 O   0  0  0  0  0  1  0  0  0  0  0  0
    1.0604   69.2951   68.6477 H   0  0  0  0  0  0  0  0  0  0  0  0
    0.5523   70.1240   67.1372 H   0  0  0  0  0  0  0  0  0  0  0  0
    0.8334   68.3498   67.1372 H   0  0  0  0  0  0  0  0  0  0  0  0
    2.6008   71.1709   69.6737 H   0  0  0  0  0  0  0  0  0  0  0  0
    2.9457   69.5189   70.1586 H   0  0  0  0  0  0  0  0  0  0  0  0
    1.7263   67.4144   66.3340 H   0  0  0  0  0  0  0  0  0  0  0  0
    0.7672   67.3833   64.8155 H   0  0  0  0  0  0  0  0  0  0  0  0
    2.4681   66.8056   64.8155 H   0  0  0  0  0  0  0  0  0  0  0  0
    7.2860   70.4359   66.9530 H   0  0  0  0  0  0  0  0  0  0  0  0
    4.3514   69.5341   63.4150 H   0  0  0  0  0  0  0  0  0  0  0  0
    6.0268   69.3990   64.1061 H   0  0  0  0  0  0  0  0  0  0  0  0
    5.3822   66.9737   64.8031 H   0  0  0  0  0  0  0  0  0  0  0  0
    3.1333   68.2339   61.9800 H   0  0  0  0  0  0  0  0  0  0  0  0
    4.6719   67.9640   61.0931 H   0  0  0  0  0  0  0  0  0  0  0  0
    3.4007   66.6949   61.0931 H   0  0  0  0  0  0  0  0  0  0  0  0
    3.6002   64.9675   62.5359 H   0  0  0  0  0  0  0  0  0  0  0  0
    5.4082   65.0756   62.2783 H   0  0  0  0  0  0  0  0  0  0  0  0
    5.5547   63.9368   64.1625 H   0  0  0  0  0  0  0  0  0  0  0  0
    5.1382   65.5769   64.9233 H   0  0  0  0  0  0  0  0  0  0  0  0
  2  1  2  0
  3  2  1  0
  4  3  2  0
  5  4  1  0
  6  5  2  0
  6  1  1  0
  7  6  1  0
  8  5  1  0
  9  8  1  0
 10  4  1  0
 10  9  1  0
 11 10  2  0
 13 12  1  0
 13  1  1  0
 14  3  1  0
 15  2  1  0
 16 15  1  0
 17 16  2  0
 18 17  1  0
 19 17  1  0
 20 19  1  0
 21 20  1  0
 22 21  2  0
 23 21  1  0
  7 24  1  0
  7 25  1  0
  7 26  1  0
  8 27  1  0
  8 28  1  0
 12 29  1  0
 12 30  1  0
 12 31  1  0
 14 32  1  0
 15 33  1  0
 15 34  1  0
 16 35  1  0
 18 36  1  0
 18 37  1  0
 18 38  1  0
 19 39  1  0
 19 40  1  0
 20 41  1  0
 20 42  1  0
M  CHG  1  23  -1
M  END
>  <score>  (3) 
-8.812

$$$$
=
     RDKit          3D

 42 43  0  0  0  0  0  0  0  0999 V2000
    2.3600   68.7070   65.6630 C   0  0  0  0  0  0  0  0  0  0  0  0
    3.6370   68.7550   65.0400 C   0  0  0  0  0  0  0  0  0  0  0  0
    4.6920   69.3620   65.7320 C   0  0  0  0  0  0  0  0  0  0  0  0
    4.4460   69.8630   66.9990 C   0  0  0  0  0  0  0  0  0  0  0  0
    3.2180   69.7760   67.6210 C   0  0  0  0  0  0  0  0  0  0  0  0
    2.1440   69.1730   66.9780 C   0  0  0  0  0  0  0  0  0  0  0  0
    0.8080   69.0530   67.6520 C   0  0  0  0  0  0  0  0  0  0  0  0
    3.3220   70.3790   68.9660 C   0  0  0  0  0  0  0  0  0  0  0  0
    4.6910   70.8370   69.0310 O   0  0  0  0  0  0  0  0  0  0  0  0
    5.3750   70.5310   67.8910 C   0  0  0  0  0  0  0  0  0  0  0  0
    6.5420   70.7700   67.6400 O   0  0  0  0  0  0  0  0  0  0  0  0
    0.7350   69.0030   64.0520 C   0  0  0  0  0  0  0  0  0  0  0  0
    1.3150   68.1090   65.0010 O   0  0  0  0  0  0  0  0  0  0  0  0
    5.9290   69.4500   65.1600 O   0  0  0  0  0  0  0  0  0  0  0  0
    3.8720   68.1000   63.6930 C   0  0  0  0  0  0  0  0  0  0  0  0
    4.6580   66.8220   63.8100 C   0  0  0  0  0  0  0  0  0  0  0  0
    4.2270   65.6040   64.1980 C   0  0  0  0  0  0  0  0  0  0  0  0
    2.8110   65.2730   64.5940 C   0  0  0  0  0  0  0  0  0  0  0  0
    5.1900   64.4260   64.2540 C   0  0  0  0  0  0  0  0  0  0  0  0
    4.6600   63.1630   63.5790 C   0  0  0  0  0  0  0  0  0  0  0  0
    5.6090   62.4320   62.6270 C   0  0  0  0  0  0  0  0  0  0  0  0
    5.0820   61.6560   61.7840 O   0  0  0  0  0  0  0  0  0  0  0  0
    6.8320   62.7190   62.7870 O   0  0  0  0  0  1  0  0  0  0  0  0
    0.9454   69.0653   68.7433 H   0  0  0  0  0  0  0  0  0  0  0  0
    0.1694   69.8974   67.3533 H   0  0  0  0  0  0  0  0  0  0  0  0
    0.3301   68.1083   67.3533 H   0  0  0  0  0  0  0  0  0  0  0  0
    2.6214   71.2201   69.0740 H   0  0  0  0  0  0  0  0  0  0  0  0
    3.0701   69.6725   69.7706 H   0  0  0  0  0  0  0  0  0  0  0  0
    0.2106   69.8113   64.5827 H   0  0  0  0  0  0  0  0  0  0  0  0
    1.5271   69.4322   63.4209 H   0  0  0  0  0  0  0  0  0  0  0  0
    0.0202   68.4546   63.4209 H   0  0  0  0  0  0  0  0  0  0  0  0
    6.6726   69.8799   65.6523 H   0  0  0  0  0  0  0  0  0  0  0  0
    2.8980   67.8757   63.2337 H   0  0  0  0  0  0  0  0  0  0  0  0
    4.4552   68.7990   63.0755 H   0  0  0  0  0  0  0  0  0  0  0  0
    5.7233   66.8899   63.5444 H   0  0  0  0  0  0  0  0  0  0  0  0
    2.7319   65.2545   65.6910 H   0  0  0  0  0  0  0  0  0  0  0  0
    2.1294   66.0360   64.1900 H   0  0  0  0  0  0  0  0  0  0  0  0
    2.5383   64.2869   64.1900 H   0  0  0  0  0  0  0  0  0  0  0  0
    6.1256   64.7191   63.7552 H   0  0  0  0  0  0  0  0  0  0  0  0
    5.3371   64.1832   65.3167 H   0  0  0  0  0  0  0  0  0  0  0  0
    4.3777   62.4562   64.3732 H   0  0  0  0  0  0  0  0  0  0  0  0
    3.8289   63.5059   62.9453 H   0  0  0  0  0  0  0  0  0  0  0  0
  2  1  2  0
  3  2  1  0
  4  3  2  0
  5  4  1  0
  6  5  2  0
  6  1  1  0
  7  6  1  0
  8  5  1  0
  9  8  1  0
 10  4  1  0
 10  9  1  0
 11 10  2  0
 13 12  1  0
 13  1  1  0
 14  3  1  0
 15  2  1  0
 16 15  1  0
 17 16  2  0
 18 17  1  0
 19 17  1  0
 20 19  1  0
 21 20  1  0
 22 21  2  0
 23 21  1  0
  7 24  1  0
  7 25  1  0
  7 26  1  0
  8 27  1  0
  8 28  1  0
 12 29  1  0
 12 30  1  0
 12 31  1  0
 14 32  1  0
 15 33  1  0
 15 34  1  0
 16 35  1  0
 18 36  1  0
 18 37  1  0
 18 38  1  0
 19 39  1  0
 19 40  1  0
 20 41  1  0
 20 42  1  0
M  CHG  1  23  -1
M  END
>  <score>  (4) 
-8.635

$$$$
=
     RDKit          3D

 42 43  0  0  0  0  0  0  0  0999 V2000
    0.9330   68.3820   65.4870 C   0  0  0  0  0  0  0  0  0  0  0  0
    1.1980   68.7170   66.8430 C   0  0  0  0  0  0  0  0  0  0  0  0
    2.4820   69.1640   67.1790 C   0  0  0  0  0  0  0  0  0  0  0  0
    3.4240   69.2810   66.1710 C   0  0  0  0  0  0  0  0  0  0  0  0
    3.1530   68.9970   64.8480 C   0  0  0  0  0  0  0  0  0  0  0  0
    1.8910   68.5620   64.4650 C   0  0  0  0  0  0  0  0  0  0  0  0
    1.5770   68.2700   63.0260 C   0  0  0  0  0  0  0  0  0  0  0  0
    4.3670   69.2600   64.0480 C   0  0  0  0  0  0  0  0  0  0  0  0
    5.3410   69.6790   65.0300 O   0  0  0  0  0  0  0  0  0  0  0  0
    4.8040   69.7130   66.2830 C   0  0  0  0  0  0  0  0  0  0  0  0
    5.3580   70.0320   67.3180 O   0  0  0  0  0  0  0  0  0  0  0  0
   -1.2710   69.0110   65.2230 C   0  0  0  0  0  0  0  0  0  0  0  0
   -0.3230   67.9480   65.1390 O   0  0  0  0  0  0  0  0  0  0  0  0
    2.7850   69.4750   68.4740 O   0  0  0  0  0  0  0  0  0  0  0  0
    0.1000   68.6670   67.8880 C   0  0  0  0  0  0  0  0  0  0  0  0
   -0.1930   67.2620   68.3390 C   0  0  0  0  0  0  0  0  0  0  0  0
    0.4250   66.5430   69.3000 C   0  0  0  0  0  0  0  0  0  0  0  0
    1.5660   67.0360   70.1500 C   0  0  0  0  0  0  0  0  0  0  0  0
   -0.0230   65.1200   69.6080 C   0  0  0  0  0  0  0  0  0  0  0  0
    0.6750   64.5010   70.8170 C   0  0  0  0  0  0  0  0  0  0  0  0
    1.5660   63.2850   70.5590 C   0  0  0  0  0  0  0  0  0  0  0  0
    1.4680   62.3260   71.3720 O   0  0  0  0  0  0  0  0  0  0  0  0
    2.2920   63.3800   69.5250 O   0  0  0  0  0  1  0  0  0  0  0  0
    0.7725   67.5219   62.9708 H   0  0  0  0  0  0  0  0  0  0  0  0
    1.2526   69.1948   62.5265 H   0  0  0  0  0  0  0  0  0  0  0  0
    2.4759   67.8794   62.5265 H   0  0  0  0  0  0  0  0  0  0  0  0
    4.6999   68.3488   63.5294 H   0  0  0  0  0  0  0  0  0  0  0  0
    4.2044   70.0117   63.2615 H   0  0  0  0  0  0  0  0  0  0  0  0
   -1.4740   69.2386   66.2799 H   0  0  0  0  0  0  0  0  0  0  0  0
   -0.8646   69.9048   64.7269 H   0  0  0  0  0  0  0  0  0  0  0  0
   -2.2053   68.7092   64.7269 H   0  0  0  0  0  0  0  0  0  0  0  0
    3.6938   69.7907   68.7076 H   0  0  0  0  0  0  0  0  0  0  0  0
    0.4134   69.2605   68.7595 H   0  0  0  0  0  0  0  0  0  0  0  0
   -0.8160   69.0736   67.4345 H   0  0  0  0  0  0  0  0  0  0  0  0
   -1.0182   66.7545   67.8179 H   0  0  0  0  0  0  0  0  0  0  0  0
    1.3064   66.9238   71.2130 H   0  0  0  0  0  0  0  0  0  0  0  0
    2.4688   66.4477   69.9289 H   0  0  0  0  0  0  0  0  0  0  0  0
    1.7563   68.0966   69.9289 H   0  0  0  0  0  0  0  0  0  0  0  0
   -1.1058   65.1317   69.8013 H   0  0  0  0  0  0  0  0  0  0  0  0
    0.2429   64.5050   68.7356 H   0  0  0  0  0  0  0  0  0  0  0  0
    1.3025   65.2810   71.2728 H   0  0  0  0  0  0  0  0  0  0  0  0
   -0.1390   64.1274   71.4556 H   0  0  0  0  0  0  0  0  0  0  0  0
  2  1  2  0
  3  2  1  0
  4  3  2  0
  5  4  1  0
  6  5  2  0
  6  1  1  0
  7  6  1  0
  8  5  1  0
  9  8  1  0
 10  4  1  0
 10  9  1  0
 11 10  2  0
 13 12  1  0
 13  1  1  0
 14  3  1  0
 15  2  1  0
 16 15  1  0
 17 16  2  0
 18 17  1  0
 19 17  1  0
 20 19  1  0
 21 20  1  0
 22 21  2  0
 23 21  1  0
  7 24  1  0
  7 25  1  0
  7 26  1  0
  8 27  1  0
  8 28  1  0
 12 29  1  0
 12 30  1  0
 12 31  1  0
 14 32  1  0
 15 33  1  0
 15 34  1  0
 16 35  1  0
 18 36  1  0
 18 37  1  0
 18 38  1  0
 19 39  1  0
 19 40  1  0
 20 41  1  0
 20 42  1  0
M  CHG  1  23  -1
M  END
>  <score>  (5) 
-7.971

$$$$
=
     RDKit          3D

 42 43  0  0  0  0  0  0  0  0999 V2000
    3.5060   68.4940   65.5150 C   0  0  0  0  0  0  0  0  0  0  0  0
    2.5430   68.5200   66.5610 C   0  0  0  0  0  0  0  0  0  0  0  0
    2.8240   69.2790   67.7040 C   0  0  0  0  0  0  0  0  0  0  0  0
    4.0140   69.9850   67.7500 C   0  0  0  0  0  0  0  0  0  0  0  0
    4.9280   69.9940   66.7160 C   0  0  0  0  0  0  0  0  0  0  0  0
    4.6880   69.2670   65.5580 C   0  0  0  0  0  0  0  0  0  0  0  0
    5.6630   69.2850   64.4170 C   0  0  0  0  0  0  0  0  0  0  0  0
    6.0570   70.8710   67.0880 C   0  0  0  0  0  0  0  0  0  0  0  0
    5.7180   71.3210   68.4190 O   0  0  0  0  0  0  0  0  0  0  0  0
    4.5140   70.8250   68.8220 C   0  0  0  0  0  0  0  0  0  0  0  0
    3.9470   71.0240   69.8810 O   0  0  0  0  0  0  0  0  0  0  0  0
    3.6860   66.4130   64.5360 C   0  0  0  0  0  0  0  0  0  0  0  0
    3.2440   67.7610   64.3830 O   0  0  0  0  0  0  0  0  0  0  0  0
    1.9370   69.3130   68.7420 O   0  0  0  0  0  0  0  0  0  0  0  0
    1.2130   67.8090   66.4130 C   0  0  0  0  0  0  0  0  0  0  0  0
    0.5190   68.1600   65.1250 C   0  0  0  0  0  0  0  0  0  0  0  0
   -0.7250   68.6560   64.9500 C   0  0  0  0  0  0  0  0  0  0  0  0
   -1.6920   68.9780   66.0590 C   0  0  0  0  0  0  0  0  0  0  0  0
   -1.2500   68.9450   63.5500 C   0  0  0  0  0  0  0  0  0  0  0  0
   -0.2320   68.6800   62.4420 C   0  0  0  0  0  0  0  0  0  0  0  0
    0.2000   69.8770   61.5930 C   0  0  0  0  0  0  0  0  0  0  0  0
    0.3260   69.6770   60.3540 O   0  0  0  0  0  0  0  0  0  0  0  0
    0.3560   70.9500   62.2450 O   0  0  0  0  0  1  0  0  0  0  0  0
    6.6894   69.3039   64.8121 H   0  0  0  0  0  0  0  0  0  0  0  0
    5.5236   68.3841   63.8014 H   0  0  0  0  0  0  0  0  0  0  0  0
    5.4905   70.1801   63.8014 H   0  0  0  0  0  0  0  0  0  0  0  0
    7.0037   70.3108   67.0927 H   0  0  0  0  0  0  0  0  0  0  0  0
    6.2020   71.7016   66.3815 H   0  0  0  0  0  0  0  0  0  0  0  0
    3.7649   66.1723   65.6064 H   0  0  0  0  0  0  0  0  0  0  0  0
    2.9635   65.7339   64.0598 H   0  0  0  0  0  0  0  0  0  0  0  0
    4.6703   66.2936   64.0598 H   0  0  0  0  0  0  0  0  0  0  0  0
    2.1390   69.8506   69.5484 H   0  0  0  0  0  0  0  0  0  0  0  0
    1.3876   66.7232   66.4364 H   0  0  0  0  0  0  0  0  0  0  0  0
    0.5656   68.1293   67.2426 H   0  0  0  0  0  0  0  0  0  0  0  0
    1.1003   67.9907   64.2066 H   0  0  0  0  0  0  0  0  0  0  0  0
   -1.2029   68.8151   67.0307 H   0  0  0  0  0  0  0  0  0  0  0  0
   -2.0059   70.0292   65.9781 H   0  0  0  0  0  0  0  0  0  0  0  0
   -2.5734   68.3249   65.9781 H   0  0  0  0  0  0  0  0  0  0  0  0
   -2.1299   68.3094   63.3716 H   0  0  0  0  0  0  0  0  0  0  0  0
   -1.4907   70.0177   63.5136 H   0  0  0  0  0  0  0  0  0  0  0  0
    0.6709   68.2650   62.9137 H   0  0  0  0  0  0  0  0  0  0  0  0
   -0.7430   68.0033   61.7414 H   0  0  0  0  0  0  0  0  0  0  0  0
  2  1  2  0
  3  2  1  0
  4  3  2  0
  5  4  1  0
  6  5  2  0
  6  1  1  0
  7  6  1  0
  8  5  1  0
  9  8  1  0
 10  4  1  0
 10  9  1  0
 11 10  2  0
 13 12  1  0
 13  1  1  0
 14  3  1  0
 15  2  1  0
 16 15  1  0
 17 16  2  0
 18 17  1  0
 19 17  1  0
 20 19  1  0
 21 20  1  0
 22 21  2  0
 23 21  1  0
  7 24  1  0
  7 25  1  0
  7 26  1  0
  8 27  1  0
  8 28  1  0
 12 29  1  0
 12 30  1  0
 12 31  1  0
 14 32  1  0
 15 33  1  0
 15 34  1  0
 16 35  1  0
 18 36  1  0
 18 37  1  0
 18 38  1  0
 19 39  1  0
 19 40  1  0
 20 41  1  0
 20 42  1  0
M  CHG  1  23  -1
M  END
>  <score>  (6) 
-7.706

$$$$
=
     RDKit          3D

 42 43  0  0  0  0  0  0  0  0999 V2000
    2.9560   62.3670   70.8840 C   0  0  0  0  0  0  0  0  0  0  0  0
    1.8620   63.1690   71.3100 C   0  0  0  0  0  0  0  0  0  0  0  0
    0.8440   62.5630   72.0580 C   0  0  0  0  0  0  0  0  0  0  0  0
    0.9660   61.2190   72.3670 C   0  0  0  0  0  0  0  0  0  0  0  0
    2.0500   60.4520   71.9910 C   0  0  0  0  0  0  0  0  0  0  0  0
    3.0880   61.0110   71.2580 C   0  0  0  0  0  0  0  0  0  0  0  0
    4.2830   60.1940   70.8610 C   0  0  0  0  0  0  0  0  0  0  0  0
    1.8670   59.0820   72.5130 C   0  0  0  0  0  0  0  0  0  0  0  0
    0.5850   59.1370   73.1780 O   0  0  0  0  0  0  0  0  0  0  0  0
    0.0440   60.3870   73.1180 C   0  0  0  0  0  0  0  0  0  0  0  0
   -1.0150   60.7600   73.5880 O   0  0  0  0  0  0  0  0  0  0  0  0
    3.6890   62.8790   68.7570 C   0  0  0  0  0  0  0  0  0  0  0  0
    3.9650   62.9470   70.1550 O   0  0  0  0  0  0  0  0  0  0  0  0
   -0.2350   63.2910   72.4680 O   0  0  0  0  0  0  0  0  0  0  0  0
    1.8310   64.6580   71.0290 C   0  0  0  0  0  0  0  0  0  0  0  0
    0.6490   65.0540   70.1850 C   0  0  0  0  0  0  0  0  0  0  0  0
    0.4430   66.2100   69.5180 C   0  0  0  0  0  0  0  0  0  0  0  0
    1.4040   67.3690   69.4800 C   0  0  0  0  0  0  0  0  0  0  0  0
   -0.8330   66.4200   68.7150 C   0  0  0  0  0  0  0  0  0  0  0  0
   -0.8330   67.6980   67.8800 C   0  0  0  0  0  0  0  0  0  0  0  0
   -0.5280   67.5550   66.3880 C   0  0  0  0  0  0  0  0  0  0  0  0
    0.3340   66.6930   66.0640 O   0  0  0  0  0  0  0  0  0  0  0  0
   -1.2100   68.3170   65.6410 O   0  0  0  0  0  1  0  0  0  0  0  0
    4.8013   59.8396   71.7642 H   0  0  0  0  0  0  0  0  0  0  0  0
    3.9548   59.3304   70.2639 H   0  0  0  0  0  0  0  0  0  0  0  0
    4.9686   60.8133   70.2639 H   0  0  0  0  0  0  0  0  0  0  0  0
    1.8525   58.3486   71.6933 H   0  0  0  0  0  0  0  0  0  0  0  0
    2.6815   58.7687   73.1827 H   0  0  0  0  0  0  0  0  0  0  0  0
    2.6313   62.6184   68.6043 H   0  0  0  0  0  0  0  0  0  0  0  0
    3.8966   63.8552   68.2944 H   0  0  0  0  0  0  0  0  0  0  0  0
    4.3263   62.1110   68.2944 H   0  0  0  0  0  0  0  0  0  0  0  0
   -0.9520   62.8587   72.9964 H   0  0  0  0  0  0  0  0  0  0  0  0
    1.7795   65.1979   71.9860 H   0  0  0  0  0  0  0  0  0  0  0  0
    2.7442   64.9152   70.4723 H   0  0  0  0  0  0  0  0  0  0  0  0
   -0.1512   64.3040   70.1006 H   0  0  0  0  0  0  0  0  0  0  0  0
    1.6547   67.6713   70.5075 H   0  0  0  0  0  0  0  0  0  0  0  0
    2.3210   67.0678   68.9524 H   0  0  0  0  0  0  0  0  0  0  0  0
    0.9382   68.2144   68.9524 H   0  0  0  0  0  0  0  0  0  0  0  0
   -0.9611   65.5631   68.0373 H   0  0  0  0  0  0  0  0  0  0  0  0
   -1.6558   66.5110   69.4394 H   0  0  0  0  0  0  0  0  0  0  0  0
   -1.8297   68.1542   67.9723 H   0  0  0  0  0  0  0  0  0  0  0  0
   -0.0064   68.3015   68.2831 H   0  0  0  0  0  0  0  0  0  0  0  0
  2  1  2  0
  3  2  1  0
  4  3  2  0
  5  4  1  0
  6  5  2  0
  6  1  1  0
  7  6  1  0
  8  5  1  0
  9  8  1  0
 10  4  1  0
 10  9  1  0
 11 10  2  0
 13 12  1  0
 13  1  1  0
 14  3  1  0
 15  2  1  0
 16 15  1  0
 17 16  2  0
 18 17  1  0
 19 17  1  0
 20 19  1  0
 21 20  1  0
 22 21  2  0
 23 21  1  0
  7 24  1  0
  7 25  1  0
  7 26  1  0
  8 27  1  0
  8 28  1  0
 12 29  1  0
 12 30  1  0
 12 31  1  0
 14 32  1  0
 15 33  1  0
 15 34  1  0
 16 35  1  0
 18 36  1  0
 18 37  1  0
 18 38  1  0
 19 39  1  0
 19 40  1  0
 20 41  1  0
 20 42  1  0
M  CHG  1  23  -1
M  END
>  <score>  (7) 
-7.423

$$$$
=
     RDKit          3D

 42 43  0  0  0  0  0  0  0  0999 V2000
    1.5400   68.4480   63.5880 C   0  0  0  0  0  0  0  0  0  0  0  0
    1.4840   67.6830   64.7850 C   0  0  0  0  0  0  0  0  0  0  0  0
    2.4010   66.6370   64.9490 C   0  0  0  0  0  0  0  0  0  0  0  0
    3.3330   66.4150   63.9490 C   0  0  0  0  0  0  0  0  0  0  0  0
    3.4140   67.1870   62.8080 C   0  0  0  0  0  0  0  0  0  0  0  0
    2.5340   68.2410   62.6060 C   0  0  0  0  0  0  0  0  0  0  0  0
    2.6260   69.1010   61.3790 C   0  0  0  0  0  0  0  0  0  0  0  0
    4.5350   66.6930   61.9810 C   0  0  0  0  0  0  0  0  0  0  0  0
    5.0470   65.5700   62.7320 O   0  0  0  0  0  0  0  0  0  0  0  0
    4.3650   65.3970   63.9000 C   0  0  0  0  0  0  0  0  0  0  0  0
    4.5590   64.5510   64.7530 O   0  0  0  0  0  0  0  0  0  0  0  0
   -0.5170   69.0390   62.7240 C   0  0  0  0  0  0  0  0  0  0  0  0
    0.6520   69.4820   63.4130 O   0  0  0  0  0  0  0  0  0  0  0  0
    2.3670   65.8630   66.0740 O   0  0  0  0  0  0  0  0  0  0  0  0
    0.5080   68.0350   65.8900 C   0  0  0  0  0  0  0  0  0  0  0  0
    1.1040   68.9820   66.8960 C   0  0  0  0  0  0  0  0  0  0  0  0
    1.4580   68.7340   68.1750 C   0  0  0  0  0  0  0  0  0  0  0  0
    1.3280   67.4020   68.8660 C   0  0  0  0  0  0  0  0  0  0  0  0
    2.0490   69.8390   69.0400 C   0  0  0  0  0  0  0  0  0  0  0  0
    3.1320   70.6580   68.3410 C   0  0  0  0  0  0  0  0  0  0  0  0
    4.5750   70.4400   68.8000 C   0  0  0  0  0  0  0  0  0  0  0  0
    5.4200   70.1640   67.9060 O   0  0  0  0  0  0  0  0  0  0  0  0
    4.7540   70.5910   70.0440 O   0  0  0  0  0  1  0  0  0  0  0  0
    2.7386   70.1539   61.6768 H   0  0  0  0  0  0  0  0  0  0  0  0
    3.4964   68.7941   60.7805 H   0  0  0  0  0  0  0  0  0  0  0  0
    1.7103   68.9852   60.7805 H   0  0  0  0  0  0  0  0  0  0  0  0
    4.1800   66.3730   60.9902 H   0  0  0  0  0  0  0  0  0  0  0  0
    5.2976   67.4632   61.7935 H   0  0  0  0  0  0  0  0  0  0  0  0
   -1.2854   68.7478   63.4553 H   0  0  0  0  0  0  0  0  0  0  0  0
   -0.9015   69.8538   62.0929 H   0  0  0  0  0  0  0  0  0  0  0  0
   -0.2650   68.1740   62.0929 H   0  0  0  0  0  0  0  0  0  0  0  0
    3.0167   65.1245   66.1866 H   0  0  0  0  0  0  0  0  0  0  0  0
   -0.3790   68.5067   65.4419 H   0  0  0  0  0  0  0  0  0  0  0  0
    0.2451   67.1056   66.4164 H   0  0  0  0  0  0  0  0  0  0  0  0
    1.2733   70.0101   66.5435 H   0  0  0  0  0  0  0  0  0  0  0  0
    1.3426   67.5513   69.9557 H   0  0  0  0  0  0  0  0  0  0  0  0
    0.3793   66.9282   68.5735 H   0  0  0  0  0  0  0  0  0  0  0  0
    2.1671   66.7537   68.5735 H   0  0  0  0  0  0  0  0  0  0  0  0
    1.2368   70.5193   69.3359 H   0  0  0  0  0  0  0  0  0  0  0  0
    2.5248   69.3499   69.9028 H   0  0  0  0  0  0  0  0  0  0  0  0
    3.0861   70.4209   67.2678 H   0  0  0  0  0  0  0  0  0  0  0  0
    2.9070   71.7042   68.5958 H   0  0  0  0  0  0  0  0  0  0  0  0
  2  1  2  0
  3  2  1  0
  4  3  2  0
  5  4  1  0
  6  5  2  0
  6  1  1  0
  7  6  1  0
  8  5  1  0
  9  8  1  0
 10  4  1  0
 10  9  1  0
 11 10  2  0
 13 12  1  0
 13  1  1  0
 14  3  1  0
 15  2  1  0
 16 15  1  0
 17 16  2  0
 18 17  1  0
 19 17  1  0
 20 19  1  0
 21 20  1  0
 22 21  2  0
 23 21  1  0
  7 24  1  0
  7 25  1  0
  7 26  1  0
  8 27  1  0
  8 28  1  0
 12 29  1  0
 12 30  1  0
 12 31  1  0
 14 32  1  0
 15 33  1  0
 15 34  1  0
 16 35  1  0
 18 36  1  0
 18 37  1  0
 18 38  1  0
 19 39  1  0
 19 40  1  0
 20 41  1  0
 20 42  1  0
M  CHG  1  23  -1
M  END
>  <score>  (8) 
-7.393

$$$$
=
     RDKit          3D

 42 43  0  0  0  0  0  0  0  0999 V2000
    2.3700   68.7820   65.6870 C   0  0  0  0  0  0  0  0  0  0  0  0
    0.9950   68.9890   65.3920 C   0  0  0  0  0  0  0  0  0  0  0  0
    0.6120   69.0980   64.0490 C   0  0  0  0  0  0  0  0  0  0  0  0
    1.5880   68.9750   63.0740 C   0  0  0  0  0  0  0  0  0  0  0  0
    2.9150   68.7300   63.3610 C   0  0  0  0  0  0  0  0  0  0  0  0
    3.3400   68.6040   64.6770 C   0  0  0  0  0  0  0  0  0  0  0  0
    4.7770   68.3170   65.0020 C   0  0  0  0  0  0  0  0  0  0  0  0
    3.6640   68.6270   62.0910 C   0  0  0  0  0  0  0  0  0  0  0  0
    2.6590   68.8650   61.0800 O   0  0  0  0  0  0  0  0  0  0  0  0
    1.4280   69.0570   61.6350 C   0  0  0  0  0  0  0  0  0  0  0  0
    0.3790   69.2700   61.0550 O   0  0  0  0  0  0  0  0  0  0  0  0
    3.1900   69.9260   67.5160 C   0  0  0  0  0  0  0  0  0  0  0  0
    2.7620   68.6670   66.9990 O   0  0  0  0  0  0  0  0  0  0  0  0
   -0.6950   69.3190   63.7220 O   0  0  0  0  0  0  0  0  0  0  0  0
   -0.0440   69.0150   66.4960 C   0  0  0  0  0  0  0  0  0  0  0  0
    0.0310   67.7980   67.3770 C   0  0  0  0  0  0  0  0  0  0  0  0
   -0.9820   67.0520   67.8670 C   0  0  0  0  0  0  0  0  0  0  0  0
   -2.4440   67.2990   67.6030 C   0  0  0  0  0  0  0  0  0  0  0  0
   -0.6950   65.8480   68.7540 C   0  0  0  0  0  0  0  0  0  0  0  0
    0.1430   66.1760   69.9870 C   0  0  0  0  0  0  0  0  0  0  0  0
    0.6570   64.9960   70.8150 C   0  0  0  0  0  0  0  0  0  0  0  0
    0.2450   64.9150   72.0040 O   0  0  0  0  0  0  0  0  0  0  0  0
    1.4270   64.2140   70.1850 O   0  0  0  0  0  1  0  0  0  0  0  0
    4.9078   68.2909   66.0939 H   0  0  0  0  0  0  0  0  0  0  0  0
    5.0622   67.3441   64.5751 H   0  0  0  0  0  0  0  0  0  0  0  0
    5.4140   69.1057   64.5751 H   0  0  0  0  0  0  0  0  0  0  0  0
    4.4580   69.3867   62.0412 H   0  0  0  0  0  0  0  0  0  0  0  0
    4.1679   67.6566   61.9709 H   0  0  0  0  0  0  0  0  0  0  0  0
    3.1790   69.8937   68.6155 H   0  0  0  0  0  0  0  0  0  0  0  0
    4.2108   70.1384   67.1656 H   0  0  0  0  0  0  0  0  0  0  0  0
    2.5101   70.7165   67.1656 H   0  0  0  0  0  0  0  0  0  0  0  0
   -0.9614   69.3954   62.7716 H   0  0  0  0  0  0  0  0  0  0  0  0
    0.1186   69.9102   67.1142 H   0  0  0  0  0  0  0  0  0  0  0  0
   -1.0374   69.0289   66.0239 H   0  0  0  0  0  0  0  0  0  0  0  0
    1.0435   67.4735   67.6588 H   0  0  0  0  0  0  0  0  0  0  0  0
   -2.9792   67.3894   68.5598 H   0  0  0  0  0  0  0  0  0  0  0  0
   -2.5607   68.2296   67.0282 H   0  0  0  0  0  0  0  0  0  0  0  0
   -2.8599   66.4584   67.0282 H   0  0  0  0  0  0  0  0  0  0  0  0
   -1.6547   65.4275   69.0889 H   0  0  0  0  0  0  0  0  0  0  0  0
   -0.1114   65.1375   68.1502 H   0  0  0  0  0  0  0  0  0  0  0  0
    1.0184   66.7502   69.6494 H   0  0  0  0  0  0  0  0  0  0  0  0
   -0.5388   66.7188   70.6581 H   0  0  0  0  0  0  0  0  0  0  0  0
  2  1  2  0
  3  2  1  0
  4  3  2  0
  5  4  1  0
  6  5  2  0
  6  1  1  0
  7  6  1  0
  8  5  1  0
  9  8  1  0
 10  4  1  0
 10  9  1  0
 11 10  2  0
 13 12  1  0
 13  1  1  0
 14  3  1  0
 15  2  1  0
 16 15  1  0
 17 16  2  0
 18 17  1  0
 19 17  1  0
 20 19  1  0
 21 20  1  0
 22 21  2  0
 23 21  1  0
  7 24  1  0
  7 25  1  0
  7 26  1  0
  8 27  1  0
  8 28  1  0
 12 29  1  0
 12 30  1  0
 12 31  1  0
 14 32  1  0
 15 33  1  0
 15 34  1  0
 16 35  1  0
 18 36  1  0
 18 37  1  0
 18 38  1  0
 19 39  1  0
 19 40  1  0
 20 41  1  0
 20 42  1  0
M  CHG  1  23  -1
M  END
>  <score>  (9) 
-7.275

$$$$
