=
     RDKit          3D

 27 29  0  0  0  0  0  0  0  0999 V2000
    1.1810   67.3600   67.8250 N   0  0  0  0  0  0  0  0  0  0  0  0
    1.0080   67.7720   66.5310 C   0  0  0  0  0  0  0  0  0  0  0  0
   -0.0100   67.3710   65.9730 O   0  0  0  0  0  0  0  0  0  0  0  0
    2.0620   68.5160   65.9790 N   0  0  0  0  0  0  0  0  0  0  0  0
    2.2010   68.6500   64.5430 C   0  0  0  0  0  0  0  0  0  0  0  0
    1.0770   68.6190   63.6970 C   0  0  0  0  0  0  0  0  0  0  0  0
    1.1890   68.7390   62.3060 C   0  0  0  0  0  0  0  0  0  0  0  0
    2.4370   68.8930   61.7220 C   0  0  0  0  0  0  0  0  0  0  0  0
    3.5680   68.9300   62.5300 C   0  0  0  0  0  0  0  0  0  0  0  0
    3.4570   68.8160   63.9280 C   0  0  0  0  0  0  0  0  0  0  0  0
    4.9750   68.8090   64.8520 S   0  0  0  0  0  0  0  0  0  0  0  0
    4.3490   69.4460   66.3810 C   0  0  0  0  0  0  0  0  0  0  0  0
    3.0220   69.2350   66.7880 C   0  0  0  0  0  0  0  0  0  0  0  0
    2.6220   69.8060   68.0140 C   0  0  0  0  0  0  0  0  0  0  0  0
    3.5160   70.5110   68.8260 C   0  0  0  0  0  0  0  0  0  0  0  0
    4.8330   70.6750   68.4250 C   0  0  0  0  0  0  0  0  0  0  0  0
    5.2480   70.1470   67.2040 C   0  0  0  0  0  0  0  0  0  0  0  0
    2.0130   67.6586   68.3537 H   0  0  0  0  0  0  0  0  0  0  0  0
    0.4792   66.7514   68.2699 H   0  0  0  0  0  0  0  0  0  0  0  0
    0.0786   68.4966   64.1422 H   0  0  0  0  0  0  0  0  0  0  0  0
    0.2870   68.7111   61.6770 H   0  0  0  0  0  0  0  0  0  0  0  0
    2.5315   68.9850   60.6299 H   0  0  0  0  0  0  0  0  0  0  0  0
    4.5605   69.0497   62.0712 H   0  0  0  0  0  0  0  0  0  0  0  0
    1.5776   69.6937   68.3406 H   0  0  0  0  0  0  0  0  0  0  0  0
    3.1747   70.9350   69.7819 H   0  0  0  0  0  0  0  0  0  0  0  0
    5.5443   71.2173   69.0653 H   0  0  0  0  0  0  0  0  0  0  0  0
    6.2908   70.2802   66.8803 H   0  0  0  0  0  0  0  0  0  0  0  0
  2  1  1  0
  3  2  2  0
  4  2  1  0
  5  4  1  0
  6  5  2  0
  7  6  1  0
  8  7  2  0
  9  8  1  0
 10  9  2  0
 10  5  1  0
 11 10  1  0
 12 11  1  0
 13 12  2  0
 13  4  1  0
 14 13  1  0
 15 14  2  0
 16 15  1  0
 17 16  2  0
 17 12  1  0
  1 18  1  0
  1 19  1  0
  6 20  1  0
  7 21  1  0
  8 22  1  0
  9 23  1  0
 14 24  1  0
 15 25  1  0
 16 26  1  0
 17 27  1  0
M  END
>  <score>  (1) 
-9.97

$$$$
=
     RDKit          3D

 27 29  0  0  0  0  0  0  0  0999 V2000
    4.2880   67.4510   61.7420 N   0  0  0  0  0  0  0  0  0  0  0  0
    4.7710   68.2620   62.7340 C   0  0  0  0  0  0  0  0  0  0  0  0
    5.9910   68.4030   62.7630 O   0  0  0  0  0  0  0  0  0  0  0  0
    3.8210   68.7450   63.6470 N   0  0  0  0  0  0  0  0  0  0  0  0
    4.2280   69.2460   64.9440 C   0  0  0  0  0  0  0  0  0  0  0  0
    5.4910   69.8390   65.1310 C   0  0  0  0  0  0  0  0  0  0  0  0
    5.9080   70.3220   66.3780 C   0  0  0  0  0  0  0  0  0  0  0  0
    5.0680   70.2230   67.4770 C   0  0  0  0  0  0  0  0  0  0  0  0
    3.8130   69.6440   67.3240 C   0  0  0  0  0  0  0  0  0  0  0  0
    3.3890   69.1630   66.0730 C   0  0  0  0  0  0  0  0  0  0  0  0
    1.7950   68.3820   66.0140 S   0  0  0  0  0  0  0  0  0  0  0  0
    1.4110   68.7050   64.3150 C   0  0  0  0  0  0  0  0  0  0  0  0
    2.4110   68.8330   63.3370 C   0  0  0  0  0  0  0  0  0  0  0  0
    1.9940   69.1120   62.0190 C   0  0  0  0  0  0  0  0  0  0  0  0
    0.6430   69.2080   61.6770 C   0  0  0  0  0  0  0  0  0  0  0  0
   -0.3310   69.0400   62.6500 C   0  0  0  0  0  0  0  0  0  0  0  0
    0.0520   68.7930   63.9670 C   0  0  0  0  0  0  0  0  0  0  0  0
    3.2745   67.2878   61.6580 H   0  0  0  0  0  0  0  0  0  0  0  0
    4.9382   67.0042   61.0798 H   0  0  0  0  0  0  0  0  0  0  0  0
    6.1716   69.9258   64.2712 H   0  0  0  0  0  0  0  0  0  0  0  0
    6.9023   70.7801   66.4856 H   0  0  0  0  0  0  0  0  0  0  0  0
    5.3910   70.5985   68.4592 H   0  0  0  0  0  0  0  0  0  0  0  0
    3.1435   69.5613   68.1929 H   0  0  0  0  0  0  0  0  0  0  0  0
    2.7545   69.2582   61.2378 H   0  0  0  0  0  0  0  0  0  0  0  0
    0.3519   69.4166   60.6369 H   0  0  0  0  0  0  0  0  0  0  0  0
   -1.3967   69.1012   62.3844 H   0  0  0  0  0  0  0  0  0  0  0  0
   -0.7176   68.6655   64.7426 H   0  0  0  0  0  0  0  0  0  0  0  0
  2  1  1  0
  3  2  2  0
  4  2  1  0
  5  4  1  0
  6  5  2  0
  7  6  1  0
  8  7  2  0
  9  8  1  0
 10  9  2  0
 10  5  1  0
 11 10  1  0
 12 11  1  0
 13 12  2  0
 13  4  1  0
 14 13  1  0
 15 14  2  0
 16 15  1  0
 17 16  2  0
 17 12  1  0
  1 18  1  0
  1 19  1  0
  6 20  1  0
  7 21  1  0
  8 22  1  0
  9 23  1  0
 14 24  1  0
 15 25  1  0
 16 26  1  0
 17 27  1  0
M  END
>  <score>  (2) 
-9.868

$$$$
=
     RDKit          3D

 27 29  0  0  0  0  0  0  0  0999 V2000
    2.6530   70.1970   69.1860 N   0  0  0  0  0  0  0  0  0  0  0  0
    3.3190   69.8510   68.0410 C   0  0  0  0  0  0  0  0  0  0  0  0
    4.4450   70.3240   67.9110 O   0  0  0  0  0  0  0  0  0  0  0  0
    2.5910   69.0820   67.1180 N   0  0  0  0  0  0  0  0  0  0  0  0
    3.0030   69.0050   65.7310 C   0  0  0  0  0  0  0  0  0  0  0  0
    4.3570   69.1270   65.3660 C   0  0  0  0  0  0  0  0  0  0  0  0
    4.7750   69.0620   64.0320 C   0  0  0  0  0  0  0  0  0  0  0  0
    3.8450   68.8740   63.0210 C   0  0  0  0  0  0  0  0  0  0  0  0
    2.4990   68.7480   63.3480 C   0  0  0  0  0  0  0  0  0  0  0  0
    2.0770   68.8060   64.6890 C   0  0  0  0  0  0  0  0  0  0  0  0
    0.3270   68.7020   64.9810 S   0  0  0  0  0  0  0  0  0  0  0  0
    0.3780   68.0290   66.6180 C   0  0  0  0  0  0  0  0  0  0  0  0
    1.4450   68.2840   67.4950 C   0  0  0  0  0  0  0  0  0  0  0  0
    1.3950   67.6800   68.7680 C   0  0  0  0  0  0  0  0  0  0  0  0
    0.3080   66.8990   69.1720 C   0  0  0  0  0  0  0  0  0  0  0  0
   -0.7540   66.6910   68.3050 C   0  0  0  0  0  0  0  0  0  0  0  0
   -0.7170   67.2510   67.0300 C   0  0  0  0  0  0  0  0  0  0  0  0
    1.7041   69.8356   69.3591 H   0  0  0  0  0  0  0  0  0  0  0  0
    3.1008   70.8187   69.8744 H   0  0  0  0  0  0  0  0  0  0  0  0
    5.1098   69.2781   66.1537 H   0  0  0  0  0  0  0  0  0  0  0  0
    5.8425   69.1602   63.7853 H   0  0  0  0  0  0  0  0  0  0  0  0
    4.1685   68.8250   61.9708 H   0  0  0  0  0  0  0  0  0  0  0  0
    1.7565   68.6014   62.5497 H   0  0  0  0  0  0  0  0  0  0  0  0
    2.2349   67.8274   69.4629 H   0  0  0  0  0  0  0  0  0  0  0  0
    0.2953   66.4502   70.1762 H   0  0  0  0  0  0  0  0  0  0  0  0
   -1.6185   66.0888   68.6214 H   0  0  0  0  0  0  0  0  0  0  0  0
   -1.5549   67.0821   66.3376 H   0  0  0  0  0  0  0  0  0  0  0  0
  2  1  1  0
  3  2  2  0
  4  2  1  0
  5  4  1  0
  6  5  2  0
  7  6  1  0
  8  7  2  0
  9  8  1  0
 10  9  2  0
 10  5  1  0
 11 10  1  0
 12 11  1  0
 13 12  2  0
 13  4  1  0
 14 13  1  0
 15 14  2  0
 16 15  1  0
 17 16  2  0
 17 12  1  0
  1 18  1  0
  1 19  1  0
  6 20  1  0
  7 21  1  0
  8 22  1  0
  9 23  1  0
 14 24  1  0
 15 25  1  0
 16 26  1  0
 17 27  1  0
M  END
>  <score>  (3) 
-9.348

$$$$
=
     RDKit          3D

 27 29  0  0  0  0  0  0  0  0999 V2000
    1.5920   67.1890   67.0160 N   0  0  0  0  0  0  0  0  0  0  0  0
    0.9250   67.8340   66.0090 C   0  0  0  0  0  0  0  0  0  0  0  0
   -0.2930   67.6750   65.9860 O   0  0  0  0  0  0  0  0  0  0  0  0
    1.7280   68.5090   65.0770 N   0  0  0  0  0  0  0  0  0  0  0  0
    1.2090   68.8630   63.7710 C   0  0  0  0  0  0  0  0  0  0  0  0
   -0.1600   69.1290   63.5800 C   0  0  0  0  0  0  0  0  0  0  0  0
   -0.6830   69.4650   62.3260 C   0  0  0  0  0  0  0  0  0  0  0  0
    0.1530   69.5440   61.2230 C   0  0  0  0  0  0  0  0  0  0  0  0
    1.5120   69.2890   61.3790 C   0  0  0  0  0  0  0  0  0  0  0  0
    2.0410   68.9570   62.6390 C   0  0  0  0  0  0  0  0  0  0  0  0
    3.7780   68.5870   62.7040 S   0  0  0  0  0  0  0  0  0  0  0  0
    4.0750   69.0360   64.3910 C   0  0  0  0  0  0  0  0  0  0  0  0
    3.0760   68.9440   65.3730 C   0  0  0  0  0  0  0  0  0  0  0  0
    3.4140   69.3490   66.6810 C   0  0  0  0  0  0  0  0  0  0  0  0
    4.7030   69.7770   67.0100 C   0  0  0  0  0  0  0  0  0  0  0  0
    5.6870   69.8250   66.0340 C   0  0  0  0  0  0  0  0  0  0  0  0
    5.3720   69.4600   64.7270 C   0  0  0  0  0  0  0  0  0  0  0  0
    2.6150   67.2781   67.0957 H   0  0  0  0  0  0  0  0  0  0  0  0
    1.0707   66.6147   67.6938 H   0  0  0  0  0  0  0  0  0  0  0  0
   -0.8397   69.0710   64.4429 H   0  0  0  0  0  0  0  0  0  0  0  0
   -1.7587   69.6666   62.2155 H   0  0  0  0  0  0  0  0  0  0  0  0
   -0.2536   69.8055   60.2349 H   0  0  0  0  0  0  0  0  0  0  0  0
    2.1800   69.3478   60.5070 H   0  0  0  0  0  0  0  0  0  0  0  0
    2.6416   69.3274   67.4639 H   0  0  0  0  0  0  0  0  0  0  0  0
    4.9370   70.0756   68.0425 H   0  0  0  0  0  0  0  0  0  0  0  0
    6.7069   70.1483   66.2895 H   0  0  0  0  0  0  0  0  0  0  0  0
    6.1479   69.5042   63.9485 H   0  0  0  0  0  0  0  0  0  0  0  0
  2  1  1  0
  3  2  2  0
  4  2  1  0
  5  4  1  0
  6  5  2  0
  7  6  1  0
  8  7  2  0
  9  8  1  0
 10  9  2  0
 10  5  1  0
 11 10  1  0
 12 11  1  0
 13 12  2  0
 13  4  1  0
 14 13  1  0
 15 14  2  0
 16 15  1  0
 17 16  2  0
 17 12  1  0
  1 18  1  0
  1 19  1  0
  6 20  1  0
  7 21  1  0
  8 22  1  0
  9 23  1  0
 14 24  1  0
 15 25  1  0
 16 26  1  0
 17 27  1  0
M  END
>  <score>  (4) 
-9.277

$$$$
=
     RDKit          3D

 27 29  0  0  0  0  0  0  0  0999 V2000
    0.2500   68.2550   65.4670 N   0  0  0  0  0  0  0  0  0  0  0  0
    1.0320   68.7120   66.4940 C   0  0  0  0  0  0  0  0  0  0  0  0
    0.4350   69.2470   67.4260 O   0  0  0  0  0  0  0  0  0  0  0  0
    2.4180   68.6000   66.3050 N   0  0  0  0  0  0  0  0  0  0  0  0
    3.3390   69.3980   67.0880 C   0  0  0  0  0  0  0  0  0  0  0  0
    3.0160   69.8100   68.3950 C   0  0  0  0  0  0  0  0  0  0  0  0
    3.8880   70.5880   69.1660 C   0  0  0  0  0  0  0  0  0  0  0  0
    5.1140   70.9780   68.6470 C   0  0  0  0  0  0  0  0  0  0  0  0
    5.4640   70.5860   67.3600 C   0  0  0  0  0  0  0  0  0  0  0  0
    4.5920   69.8000   66.5850 C   0  0  0  0  0  0  0  0  0  0  0  0
    5.1170   69.4170   64.9310 S   0  0  0  0  0  0  0  0  0  0  0  0
    4.2230   67.9030   64.7200 C   0  0  0  0  0  0  0  0  0  0  0  0
    3.0090   67.6570   65.3810 C   0  0  0  0  0  0  0  0  0  0  0  0
    2.3920   66.4080   65.1580 C   0  0  0  0  0  0  0  0  0  0  0  0
    2.9300   65.4670   64.2760 C   0  0  0  0  0  0  0  0  0  0  0  0
    4.1100   65.7450   63.6020 C   0  0  0  0  0  0  0  0  0  0  0  0
    4.7570   66.9580   63.8270 C   0  0  0  0  0  0  0  0  0  0  0  0
    0.6845   67.7961   64.6537 H   0  0  0  0  0  0  0  0  0  0  0  0
   -0.7727   68.3702   65.5078 H   0  0  0  0  0  0  0  0  0  0  0  0
    2.0481   69.5112   68.8238 H   0  0  0  0  0  0  0  0  0  0  0  0
    3.6008   70.8902   70.1839 H   0  0  0  0  0  0  0  0  0  0  0  0
    5.8020   71.5911   69.2476 H   0  0  0  0  0  0  0  0  0  0  0  0
    6.4341   70.8940   66.9428 H   0  0  0  0  0  0  0  0  0  0  0  0
    1.4615   66.1682   65.6933 H   0  0  0  0  0  0  0  0  0  0  0  0
    2.4181   64.5066   64.1164 H   0  0  0  0  0  0  0  0  0  0  0  0
    4.5312   65.0141   62.8960 H   0  0  0  0  0  0  0  0  0  0  0  0
    5.6968   67.1788   63.2997 H   0  0  0  0  0  0  0  0  0  0  0  0
  2  1  1  0
  3  2  2  0
  4  2  1  0
  5  4  1  0
  6  5  2  0
  7  6  1  0
  8  7  2  0
  9  8  1  0
 10  9  2  0
 10  5  1  0
 11 10  1  0
 12 11  1  0
 13 12  2  0
 13  4  1  0
 14 13  1  0
 15 14  2  0
 16 15  1  0
 17 16  2  0
 17 12  1  0
  1 18  1  0
  1 19  1  0
  6 20  1  0
  7 21  1  0
  8 22  1  0
  9 23  1  0
 14 24  1  0
 15 25  1  0
 16 26  1  0
 17 27  1  0
M  END
>  <score>  (5) 
-9.238

$$$$
=
     RDKit          3D

 27 29  0  0  0  0  0  0  0  0999 V2000
   -0.0790   69.7880   62.8870 N   0  0  0  0  0  0  0  0  0  0  0  0
   -0.2880   68.9640   63.9600 C   0  0  0  0  0  0  0  0  0  0  0  0
   -1.4560   68.6520   64.1780 O   0  0  0  0  0  0  0  0  0  0  0  0
    0.8460   68.6640   64.7310 N   0  0  0  0  0  0  0  0  0  0  0  0
    0.7110   68.1720   66.0870 C   0  0  0  0  0  0  0  0  0  0  0  0
   -0.4100   67.4150   66.4780 C   0  0  0  0  0  0  0  0  0  0  0  0
   -0.5640   66.9360   67.7850 C   0  0  0  0  0  0  0  0  0  0  0  0
    0.4040   67.2050   68.7410 C   0  0  0  0  0  0  0  0  0  0  0  0
    1.5240   67.9490   68.3870 C   0  0  0  0  0  0  0  0  0  0  0  0
    1.6840   68.4250   67.0730 C   0  0  0  0  0  0  0  0  0  0  0  0
    3.1210   69.4220   66.7540 S   0  0  0  0  0  0  0  0  0  0  0  0
    3.2950   69.0770   65.0260 C   0  0  0  0  0  0  0  0  0  0  0  0
    2.1940   68.7620   64.2140 C   0  0  0  0  0  0  0  0  0  0  0  0
    2.4490   68.4830   62.8560 C   0  0  0  0  0  0  0  0  0  0  0  0
    3.7360   68.5650   62.3150 C   0  0  0  0  0  0  0  0  0  0  0  0
    4.8050   68.9150   63.1250 C   0  0  0  0  0  0  0  0  0  0  0  0
    4.5860   69.1660   64.4780 C   0  0  0  0  0  0  0  0  0  0  0  0
    0.8764   70.0889   62.6471 H   0  0  0  0  0  0  0  0  0  0  0  0
   -0.8772   70.1071   62.3195 H   0  0  0  0  0  0  0  0  0  0  0  0
   -1.1890   67.1929   65.7338 H   0  0  0  0  0  0  0  0  0  0  0  0
   -1.4529   66.3463   68.0533 H   0  0  0  0  0  0  0  0  0  0  0  0
    0.2868   66.8333   69.7696 H   0  0  0  0  0  0  0  0  0  0  0  0
    2.2931   68.1677   69.1424 H   0  0  0  0  0  0  0  0  0  0  0  0
    1.6123   68.1927   62.2036 H   0  0  0  0  0  0  0  0  0  0  0  0
    3.8997   68.3521   61.2483 H   0  0  0  0  0  0  0  0  0  0  0  0
    5.8178   68.9939   62.7032 H   0  0  0  0  0  0  0  0  0  0  0  0
    5.4335   69.4370   65.1247 H   0  0  0  0  0  0  0  0  0  0  0  0
  2  1  1  0
  3  2  2  0
  4  2  1  0
  5  4  1  0
  6  5  2  0
  7  6  1  0
  8  7  2  0
  9  8  1  0
 10  9  2  0
 10  5  1  0
 11 10  1  0
 12 11  1  0
 13 12  2  0
 13  4  1  0
 14 13  1  0
 15 14  2  0
 16 15  1  0
 17 16  2  0
 17 12  1  0
  1 18  1  0
  1 19  1  0
  6 20  1  0
  7 21  1  0
  8 22  1  0
  9 23  1  0
 14 24  1  0
 15 25  1  0
 16 26  1  0
 17 27  1  0
M  END
>  <score>  (6) 
-9.043

$$$$
=
     RDKit          3D

 27 29  0  0  0  0  0  0  0  0999 V2000
    2.3840   66.3660   64.5930 N   0  0  0  0  0  0  0  0  0  0  0  0
    3.3030   67.3630   64.7890 C   0  0  0  0  0  0  0  0  0  0  0  0
    4.3770   67.2230   64.2110 O   0  0  0  0  0  0  0  0  0  0  0  0
    2.9350   68.3620   65.7040 N   0  0  0  0  0  0  0  0  0  0  0  0
    3.9370   69.2160   66.3100 C   0  0  0  0  0  0  0  0  0  0  0  0
    5.1310   69.5310   65.6330 C   0  0  0  0  0  0  0  0  0  0  0  0
    6.1150   70.3470   66.2040 C   0  0  0  0  0  0  0  0  0  0  0  0
    5.9320   70.8720   67.4740 C   0  0  0  0  0  0  0  0  0  0  0  0
    4.7630   70.5800   68.1690 C   0  0  0  0  0  0  0  0  0  0  0  0
    3.7690   69.7660   67.5960 C   0  0  0  0  0  0  0  0  0  0  0  0
    2.3500   69.4070   68.6040 S   0  0  0  0  0  0  0  0  0  0  0  0
    1.1760   69.1310   67.3070 C   0  0  0  0  0  0  0  0  0  0  0  0
    1.5590   68.6430   66.0470 C   0  0  0  0  0  0  0  0  0  0  0  0
    0.5450   68.4820   65.0800 C   0  0  0  0  0  0  0  0  0  0  0  0
   -0.7980   68.7440   65.3680 C   0  0  0  0  0  0  0  0  0  0  0  0
   -1.1610   69.1880   66.6310 C   0  0  0  0  0  0  0  0  0  0  0  0
   -0.1750   69.3860   67.5960 C   0  0  0  0  0  0  0  0  0  0  0  0
    1.4615   66.4192   65.0480 H   0  0  0  0  0  0  0  0  0  0  0  0
    2.6156   65.5632   63.9906 H   0  0  0  0  0  0  0  0  0  0  0  0
    5.2956   69.1234   64.6246 H   0  0  0  0  0  0  0  0  0  0  0  0
    7.0347   70.5719   65.6441 H   0  0  0  0  0  0  0  0  0  0  0  0
    6.7029   71.5126   67.9272 H   0  0  0  0  0  0  0  0  0  0  0  0
    4.6140   70.9904   69.1786 H   0  0  0  0  0  0  0  0  0  0  0  0
    0.8184   68.1407   64.0707 H   0  0  0  0  0  0  0  0  0  0  0  0
   -1.5658   68.5982   64.5939 H   0  0  0  0  0  0  0  0  0  0  0  0
   -2.2173   69.3820   66.8688 H   0  0  0  0  0  0  0  0  0  0  0  0
   -0.4581   69.7463   68.5960 H   0  0  0  0  0  0  0  0  0  0  0  0
  2  1  1  0
  3  2  2  0
  4  2  1  0
  5  4  1  0
  6  5  2  0
  7  6  1  0
  8  7  2  0
  9  8  1  0
 10  9  2  0
 10  5  1  0
 11 10  1  0
 12 11  1  0
 13 12  2  0
 13  4  1  0
 14 13  1  0
 15 14  2  0
 16 15  1  0
 17 16  2  0
 17 12  1  0
  1 18  1  0
  1 19  1  0
  6 20  1  0
  7 21  1  0
  8 22  1  0
  9 23  1  0
 14 24  1  0
 15 25  1  0
 16 26  1  0
 17 27  1  0
M  END
>  <score>  (7) 
-8.94

$$$$
=
     RDKit          3D

 27 29  0  0  0  0  0  0  0  0999 V2000
    6.1150   69.7480   66.4680 N   0  0  0  0  0  0  0  0  0  0  0  0
    4.7910   69.8510   66.8050 C   0  0  0  0  0  0  0  0  0  0  0  0
    4.5450   70.5070   67.8140 O   0  0  0  0  0  0  0  0  0  0  0  0
    3.8990   69.1120   66.0130 N   0  0  0  0  0  0  0  0  0  0  0  0
    2.5690   68.7980   66.4940 C   0  0  0  0  0  0  0  0  0  0  0  0
    1.8980   69.6510   67.3910 C   0  0  0  0  0  0  0  0  0  0  0  0
    0.6160   69.3610   67.8730 C   0  0  0  0  0  0  0  0  0  0  0  0
   -0.0330   68.2040   67.4700 C   0  0  0  0  0  0  0  0  0  0  0  0
    0.6020   67.3410   66.5830 C   0  0  0  0  0  0  0  0  0  0  0  0
    1.8870   67.6320   66.0920 C   0  0  0  0  0  0  0  0  0  0  0  0
    2.6250   66.4240   65.0190 S   0  0  0  0  0  0  0  0  0  0  0  0
    3.6930   67.5050   64.1080 C   0  0  0  0  0  0  0  0  0  0  0  0
    4.2160   68.6800   64.6690 C   0  0  0  0  0  0  0  0  0  0  0  0
    5.0380   69.4790   63.8480 C   0  0  0  0  0  0  0  0  0  0  0  0
    5.3680   69.1010   62.5440 C   0  0  0  0  0  0  0  0  0  0  0  0
    4.8720   67.9160   62.0200 C   0  0  0  0  0  0  0  0  0  0  0  0
    4.0330   67.1220   62.7990 C   0  0  0  0  0  0  0  0  0  0  0  0
    6.3939   69.2125   65.6335 H   0  0  0  0  0  0  0  0  0  0  0  0
    6.8315   70.2061   67.0491 H   0  0  0  0  0  0  0  0  0  0  0  0
    2.3964   70.5736   67.7233 H   0  0  0  0  0  0  0  0  0  0  0  0
    0.1229   70.0521   68.5725 H   0  0  0  0  0  0  0  0  0  0  0  0
   -1.0395   67.9710   67.8477 H   0  0  0  0  0  0  0  0  0  0  0  0
    0.0930   66.4202   66.2620 H   0  0  0  0  0  0  0  0  0  0  0  0
    5.4305   70.4266   64.2453 H   0  0  0  0  0  0  0  0  0  0  0  0
    6.0205   69.7424   61.9334 H   0  0  0  0  0  0  0  0  0  0  0  0
    5.1387   67.6061   60.9988 H   0  0  0  0  0  0  0  0  0  0  0  0
    3.6322   66.1850   62.3850 H   0  0  0  0  0  0  0  0  0  0  0  0
  2  1  1  0
  3  2  2  0
  4  2  1  0
  5  4  1  0
  6  5  2  0
  7  6  1  0
  8  7  2  0
  9  8  1  0
 10  9  2  0
 10  5  1  0
 11 10  1  0
 12 11  1  0
 13 12  2  0
 13  4  1  0
 14 13  1  0
 15 14  2  0
 16 15  1  0
 17 16  2  0
 17 12  1  0
  1 18  1  0
  1 19  1  0
  6 20  1  0
  7 21  1  0
  8 22  1  0
  9 23  1  0
 14 24  1  0
 15 25  1  0
 16 26  1  0
 17 27  1  0
M  END
>  <score>  (8) 
-8.779

$$$$
=
     RDKit          3D

 27 29  0  0  0  0  0  0  0  0999 V2000
    5.7500   61.4420   71.6800 N   0  0  0  0  0  0  0  0  0  0  0  0
    4.8260   62.3170   71.1740 C   0  0  0  0  0  0  0  0  0  0  0  0
    5.2800   63.3260   70.6390 O   0  0  0  0  0  0  0  0  0  0  0  0
    3.4810   61.9980   71.4200 N   0  0  0  0  0  0  0  0  0  0  0  0
    2.4500   63.0100   71.3200 C   0  0  0  0  0  0  0  0  0  0  0  0
    2.5820   64.0990   70.4380 C   0  0  0  0  0  0  0  0  0  0  0  0
    1.6000   65.0920   70.3320 C   0  0  0  0  0  0  0  0  0  0  0  0
    0.4550   65.0230   71.1100 C   0  0  0  0  0  0  0  0  0  0  0  0
    0.2940   63.9590   71.9910 C   0  0  0  0  0  0  0  0  0  0  0  0
    1.2750   62.9560   72.0950 C   0  0  0  0  0  0  0  0  0  0  0  0
    0.9920   61.6830   73.3020 S   0  0  0  0  0  0  0  0  0  0  0  0
    1.9260   60.3880   72.5350 C   0  0  0  0  0  0  0  0  0  0  0  0
    3.0370   60.6540   71.7200 C   0  0  0  0  0  0  0  0  0  0  0  0
    3.6950   59.5490   71.1420 C   0  0  0  0  0  0  0  0  0  0  0  0
    3.2980   58.2340   71.4030 C   0  0  0  0  0  0  0  0  0  0  0  0
    2.2210   57.9910   72.2420 C   0  0  0  0  0  0  0  0  0  0  0  0
    1.5340   59.0650   72.8030 C   0  0  0  0  0  0  0  0  0  0  0  0
    5.4396   60.5754   72.1421 H   0  0  0  0  0  0  0  0  0  0  0  0
    6.7554   61.6505   71.5985 H   0  0  0  0  0  0  0  0  0  0  0  0
    3.4841   64.1724   69.8128 H   0  0  0  0  0  0  0  0  0  0  0  0
    1.7377   65.9279   69.6303 H   0  0  0  0  0  0  0  0  0  0  0  0
   -0.3181   65.8015   71.0315 H   0  0  0  0  0  0  0  0  0  0  0  0
   -0.6109   63.9010   72.6137 H   0  0  0  0  0  0  0  0  0  0  0  0
    4.5448   59.7265   70.4665 H   0  0  0  0  0  0  0  0  0  0  0  0
    3.8391   57.3937   70.9436 H   0  0  0  0  0  0  0  0  0  0  0  0
    1.9118   56.9587   72.4627 H   0  0  0  0  0  0  0  0  0  0  0  0
    0.6749   58.8757   73.4633 H   0  0  0  0  0  0  0  0  0  0  0  0
  2  1  1  0
  3  2  2  0
  4  2  1  0
  5  4  1  0
  6  5  2  0
  7  6  1  0
  8  7  2  0
  9  8  1  0
 10  9  2  0
 10  5  1  0
 11 10  1  0
 12 11  1  0
 13 12  2  0
 13  4  1  0
 14 13  1  0
 15 14  2  0
 16 15  1  0
 17 16  2  0
 17 12  1  0
  1 18  1  0
  1 19  1  0
  6 20  1  0
  7 21  1  0
  8 22  1  0
  9 23  1  0
 14 24  1  0
 15 25  1  0
 16 26  1  0
 17 27  1  0
M  END
>  <score>  (9) 
-8.291

$$$$
