=
     RDKit          3D

 46 48  0  0  0  0  0  0  0  0999 V2000
    2.3040   59.9650   72.5420 C   0  0  2  0  0  0  0  0  0  0  0  0
    3.2990   60.4820   71.3680 C   0  0  0  0  0  0  0  0  0  0  0  0
    4.2490   60.0550   70.7580 O   0  0  0  0  0  0  0  0  0  0  0  0
    2.6560   61.6700   71.3740 N   0  0  0  0  0  0  0  0  0  0  0  0
    1.4770   61.2440   72.0860 C   0  0  2  0  0  0  0  0  0  0  0  0
    1.1120   62.4920   73.3620 S   0  0  0  0  0  0  0  0  0  0  0  0
    0.8560   63.8190   72.1370 C   0  0  0  0  0  0  0  0  0  0  0  0
    1.8940   63.8770   71.0340 C   0  0  0  0  0  0  0  0  0  0  0  0
    2.7270   62.8540   70.7080 C   0  0  0  0  0  0  0  0  0  0  0  0
    2.2010   59.6470   75.0420 C   0  0  0  0  0  0  0  0  0  0  0  0
    1.0340   59.2730   75.0330 O   0  0  0  0  0  0  0  0  0  0  0  0
    2.8700   60.0810   73.9230 N   0  0  0  0  0  0  0  0  0  0  0  0
    3.0160   59.7470   76.3210 C   0  0  0  0  0  0  0  0  0  0  0  0
    2.8370   58.2530   77.3630 S   0  0  0  0  0  0  0  0  0  0  0  0
    3.7040   57.0200   76.3230 C   0  0  0  0  0  0  0  0  0  0  0  0
    2.0820   55.3380   75.1160 N   0  0  0  0  0  0  0  0  0  0  0  0
    2.7970   56.0760   75.6550 C   0  0  0  0  0  0  0  0  0  0  0  0
    3.7910   63.0740   69.5930 C   0  0  0  0  0  0  0  0  0  0  0  0
    4.9310   63.4130   70.0220 O   0  0  0  0  0  0  0  0  0  0  0  0
    3.4200   62.7520   68.4290 O   0  0  0  0  0  1  0  0  0  0  0  0
    1.5850   58.7130   72.3230 O   0  0  0  0  0  0  0  0  0  0  0  0
    2.3720   57.5430   72.1450 C   0  0  0  0  0  0  0  0  0  0  0  0
    1.9100   65.1910   70.2750 C   0  0  0  0  0  0  0  0  0  0  0  0
    0.2300   65.8830   70.1870 S   0  0  0  0  0  0  0  0  0  0  0  0
    0.4690   67.0590   68.9510 C   0  0  0  0  0  0  0  0  0  0  0  0
    1.5490   67.7880   68.7750 N   0  0  0  0  0  0  0  0  0  0  0  0
    1.2950   68.5710   67.6740 N   0  0  0  0  0  0  0  0  0  0  0  0
    0.0860   68.3280   67.1810 N   0  0  0  0  0  0  0  0  0  0  0  0
   -0.4390   67.3750   67.9810 N   0  0  0  0  0  0  0  0  0  0  0  0
   -1.7590   66.8660   67.7370 C   0  0  0  0  0  0  0  0  0  0  0  0
    0.4778   61.0894   71.6527 H   0  0  0  0  0  0  0  0  0  0  0  0
   -0.1294   63.6692   71.6716 H   0  0  0  0  0  0  0  0  0  0  0  0
    0.9372   64.7677   72.6878 H   0  0  0  0  0  0  0  0  0  0  0  0
    3.8016   60.5046   74.0395 H   0  0  0  0  0  0  0  0  0  0  0  0
    4.0767   59.8721   76.0579 H   0  0  0  0  0  0  0  0  0  0  0  0
    2.6454   60.6092   76.8948 H   0  0  0  0  0  0  0  0  0  0  0  0
    4.2779   57.5560   75.5527 H   0  0  0  0  0  0  0  0  0  0  0  0
    4.3506   56.4310   76.9901 H   0  0  0  0  0  0  0  0  0  0  0  0
    2.6475   57.1334   73.1280 H   0  0  0  0  0  0  0  0  0  0  0  0
    1.7936   56.7938   71.5846 H   0  0  0  0  0  0  0  0  0  0  0  0
    3.2840   57.7963   71.5846 H   0  0  0  0  0  0  0  0  0  0  0  0
    2.5698   65.9024   70.7932 H   0  0  0  0  0  0  0  0  0  0  0  0
    2.2797   65.0126   69.2544 H   0  0  0  0  0  0  0  0  0  0  0  0
   -2.2606   66.6726   68.6967 H   0  0  0  0  0  0  0  0  0  0  0  0
   -2.3370   67.6057   67.1637 H   0  0  0  0  0  0  0  0  0  0  0  0
   -1.6908   65.9297   67.1637 H   0  0  0  0  0  0  0  0  0  0  0  0
  2  1  1  0
  3  2  2  0
  4  2  1  0
  5  4  1  0
  5  1  1  0
  6  5  1  0
  7  6  1  0
  8  7  1  0
  9  8  2  0
  9  4  1  0
 11 10  2  0
 12 10  1  0
 12  1  1  0
 13 10  1  0
 14 13  1  0
 15 14  1  0
 17 16  3  0
 17 15  1  0
 18  9  1  0
 19 18  2  0
 20 18  1  0
  1 21  1  6
 22 21  1  0
 23  8  1  0
 24 23  1  0
 25 24  1  0
 26 25  2  0
 27 26  1  0
 28 27  2  0
 29 28  1  0
 29 25  1  0
 30 29  1  0
  5 31  1  6
  7 32  1  0
  7 33  1  0
 12 34  1  0
 13 35  1  0
 13 36  1  0
 15 37  1  0
 15 38  1  0
 22 39  1  0
 22 40  1  0
 22 41  1  0
 23 42  1  0
 23 43  1  0
 30 44  1  0
 30 45  1  0
 30 46  1  0
M  CHG  1  20  -1
M  END
>  <score>  (1) 
-6.719

$$$$
=
     RDKit          3D

 46 48  0  0  0  0  0  0  0  0999 V2000
    1.5550   60.6450   73.0270 C   0  0  2  0  0  0  0  0  0  0  0  0
    2.7460   61.0040   71.9840 C   0  0  0  0  0  0  0  0  0  0  0  0
    3.7810   60.5050   71.6120 O   0  0  0  0  0  0  0  0  0  0  0  0
    2.1310   62.1770   71.7150 N   0  0  0  0  0  0  0  0  0  0  0  0
    0.8410   61.8430   72.2640 C   0  0  2  0  0  0  0  0  0  0  0  0
    0.2790   63.2520   73.2730 S   0  0  0  0  0  0  0  0  0  0  0  0
    0.2610   64.3950   71.8520 C   0  0  0  0  0  0  0  0  0  0  0  0
    1.4750   64.3090   70.9480 C   0  0  0  0  0  0  0  0  0  0  0  0
    2.3350   63.2580   70.9150 C   0  0  0  0  0  0  0  0  0  0  0  0
    0.9980   60.7160   75.4860 C   0  0  0  0  0  0  0  0  0  0  0  0
   -0.1680   60.3780   75.3190 O   0  0  0  0  0  0  0  0  0  0  0  0
    1.8760   60.9560   74.4560 N   0  0  0  0  0  0  0  0  0  0  0  0
    1.5800   60.9870   76.8640 C   0  0  0  0  0  0  0  0  0  0  0  0
    1.2060   62.6840   77.4390 S   0  0  0  0  0  0  0  0  0  0  0  0
   -0.6020   62.5540   77.6930 C   0  0  0  0  0  0  0  0  0  0  0  0
   -2.0050   64.1310   76.1230 N   0  0  0  0  0  0  0  0  0  0  0  0
   -1.3810   63.4400   76.8160 C   0  0  0  0  0  0  0  0  0  0  0  0
    3.5800   63.3310   69.9830 C   0  0  0  0  0  0  0  0  0  0  0  0
    4.6540   63.6380   70.5740 O   0  0  0  0  0  0  0  0  0  0  0  0
    3.3830   62.9400   68.7970 O   0  0  0  0  0  1  0  0  0  0  0  0
    0.8650   59.3700   72.8600 O   0  0  0  0  0  0  0  0  0  0  0  0
    1.6620   58.1950   72.9330 C   0  0  0  0  0  0  0  0  0  0  0  0
    1.6430   65.5060   70.0300 C   0  0  0  0  0  0  0  0  0  0  0  0
    0.0550   66.3710   69.8340 S   0  0  0  0  0  0  0  0  0  0  0  0
    0.1740   66.8140   68.1740 C   0  0  0  0  0  0  0  0  0  0  0  0
    1.2850   66.9280   67.4800 N   0  0  0  0  0  0  0  0  0  0  0  0
    0.8980   67.2880   66.2110 N   0  0  0  0  0  0  0  0  0  0  0  0
   -0.4230   67.3910   66.1240 N   0  0  0  0  0  0  0  0  0  0  0  0
   -0.8850   67.0920   67.3570 N   0  0  0  0  0  0  0  0  0  0  0  0
   -2.2950   67.1070   67.6290 C   0  0  0  0  0  0  0  0  0  0  0  0
   -0.0705   61.6216   71.6894 H   0  0  0  0  0  0  0  0  0  0  0  0
   -0.6313   64.1747   71.2476 H   0  0  0  0  0  0  0  0  0  0  0  0
    0.2616   65.4111   72.2734 H   0  0  0  0  0  0  0  0  0  0  0  0
    2.7941   61.3674   74.6767 H   0  0  0  0  0  0  0  0  0  0  0  0
    1.1538   60.2671   77.5782 H   0  0  0  0  0  0  0  0  0  0  0  0
    2.6730   60.8811   76.8001 H   0  0  0  0  0  0  0  0  0  0  0  0
   -0.9074   61.5152   77.4989 H   0  0  0  0  0  0  0  0  0  0  0  0
   -0.8068   62.8615   78.7291 H   0  0  0  0  0  0  0  0  0  0  0  0
    1.8377   57.9360   73.9876 H   0  0  0  0  0  0  0  0  0  0  0  0
    1.1392   57.3657   72.4340 H   0  0  0  0  0  0  0  0  0  0  0  0
    2.6258   58.3741   72.4340 H   0  0  0  0  0  0  0  0  0  0  0  0
    2.3821   66.1959   70.4633 H   0  0  0  0  0  0  0  0  0  0  0  0
    1.9878   65.1587   69.0449 H   0  0  0  0  0  0  0  0  0  0  0  0
   -2.4586   67.1087   68.7168 H   0  0  0  0  0  0  0  0  0  0  0  0
   -2.7437   68.0100   67.1893 H   0  0  0  0  0  0  0  0  0  0  0  0
   -2.7628   66.2138   67.1893 H   0  0  0  0  0  0  0  0  0  0  0  0
  2  1  1  0
  3  2  2  0
  4  2  1  0
  5  4  1  0
  5  1  1  0
  6  5  1  0
  7  6  1  0
  8  7  1  0
  9  8  2  0
  9  4  1  0
 11 10  2  0
 12 10  1  0
 12  1  1  0
 13 10  1  0
 14 13  1  0
 15 14  1  0
 17 16  3  0
 17 15  1  0
 18  9  1  0
 19 18  2  0
 20 18  1  0
  1 21  1  1
 22 21  1  0
 23  8  1  0
 24 23  1  0
 25 24  1  0
 26 25  2  0
 27 26  1  0
 28 27  2  0
 29 28  1  0
 29 25  1  0
 30 29  1  0
  5 31  1  6
  7 32  1  0
  7 33  1  0
 12 34  1  0
 13 35  1  0
 13 36  1  0
 15 37  1  0
 15 38  1  0
 22 39  1  0
 22 40  1  0
 22 41  1  0
 23 42  1  0
 23 43  1  0
 30 44  1  0
 30 45  1  0
 30 46  1  0
M  CHG  1  20  -1
M  END
>  <score>  (2) 
-6.656

$$$$
=
     RDKit          3D

 46 48  0  0  0  0  0  0  0  0999 V2000
   -2.7340   61.8970   76.4850 C   0  0  2  0  0  0  0  0  0  0  0  0
   -1.7910   63.0550   75.8480 C   0  0  0  0  0  0  0  0  0  0  0  0
   -1.6500   64.2490   75.9610 O   0  0  0  0  0  0  0  0  0  0  0  0
   -1.2250   62.1250   75.0460 N   0  0  0  0  0  0  0  0  0  0  0  0
   -1.6710   60.9590   75.7660 C   0  0  2  0  0  0  0  0  0  0  0  0
   -2.3090   59.7600   74.5520 S   0  0  0  0  0  0  0  0  0  0  0  0
   -0.7000   59.6010   73.7100 C   0  0  0  0  0  0  0  0  0  0  0  0
    0.0180   60.9100   73.4510 C   0  0  0  0  0  0  0  0  0  0  0  0
   -0.2590   62.0770   74.0900 C   0  0  0  0  0  0  0  0  0  0  0  0
   -5.0430   62.8090   76.0360 C   0  0  0  0  0  0  0  0  0  0  0  0
   -4.9090   63.7600   76.7980 O   0  0  0  0  0  0  0  0  0  0  0  0
   -4.1030   61.8190   75.8820 N   0  0  0  0  0  0  0  0  0  0  0  0
   -6.3130   62.5790   75.2340 C   0  0  0  0  0  0  0  0  0  0  0  0
   -6.7230   60.8010   75.1020 S   0  0  0  0  0  0  0  0  0  0  0  0
   -7.1880   60.7000   73.3340 C   0  0  0  0  0  0  0  0  0  0  0  0
   -8.9820   62.4900   72.6300 N   0  0  0  0  0  0  0  0  0  0  0  0
   -8.1870   61.7010   72.9340 C   0  0  0  0  0  0  0  0  0  0  0  0
    0.5150   63.3640   73.6790 C   0  0  0  0  0  0  0  0  0  0  0  0
   -0.0710   64.0650   72.8050 O   0  0  0  0  0  0  0  0  0  0  0  0
    1.5460   63.6090   74.3650 O   0  0  0  0  0  1  0  0  0  0  0  0
   -2.7400   61.7460   77.9360 O   0  0  0  0  0  0  0  0  0  0  0  0
   -3.1300   60.4780   78.4470 C   0  0  0  0  0  0  0  0  0  0  0  0
    1.1260   60.8090   72.4200 C   0  0  0  0  0  0  0  0  0  0  0  0
    2.2900   59.4890   72.8790 S   0  0  0  0  0  0  0  0  0  0  0  0
    3.7340   60.1280   72.1890 C   0  0  0  0  0  0  0  0  0  0  0  0
    4.6730   60.7860   72.8310 N   0  0  0  0  0  0  0  0  0  0  0  0
    5.6270   61.0890   71.8880 N   0  0  0  0  0  0  0  0  0  0  0  0
    5.2840   60.6250   70.6930 N   0  0  0  0  0  0  0  0  0  0  0  0
    4.0920   60.0170   70.8760 N   0  0  0  0  0  0  0  0  0  0  0  0
    3.4150   59.3940   69.7730 C   0  0  0  0  0  0  0  0  0  0  0  0
   -1.0465   60.3068   76.3942 H   0  0  0  0  0  0  0  0  0  0  0  0
   -0.0485   58.9719   74.3344 H   0  0  0  0  0  0  0  0  0  0  0  0
   -0.9110   59.1648   72.7225 H   0  0  0  0  0  0  0  0  0  0  0  0
   -4.3504   60.9868   75.3277 H   0  0  0  0  0  0  0  0  0  0  0  0
   -7.1456   63.1003   75.7290 H   0  0  0  0  0  0  0  0  0  0  0  0
   -6.1500   62.9679   74.2180 H   0  0  0  0  0  0  0  0  0  0  0  0
   -6.2830   60.8488   72.7266 H   0  0  0  0  0  0  0  0  0  0  0  0
   -7.6390   59.7097   73.1734 H   0  0  0  0  0  0  0  0  0  0  0  0
   -3.1210   60.5073   79.5466 H   0  0  0  0  0  0  0  0  0  0  0  0
   -4.1438   60.2368   78.0949 H   0  0  0  0  0  0  0  0  0  0  0  0
   -2.4269   59.7088   78.0949 H   0  0  0  0  0  0  0  0  0  0  0  0
    0.6882   60.5821   71.4367 H   0  0  0  0  0  0  0  0  0  0  0  0
    1.6663   61.7662   72.3778 H   0  0  0  0  0  0  0  0  0  0  0  0
    2.6561   58.6957   70.1557 H   0  0  0  0  0  0  0  0  0  0  0  0
    2.9270   60.1655   69.1593 H   0  0  0  0  0  0  0  0  0  0  0  0
    4.1434   58.8437   69.1593 H   0  0  0  0  0  0  0  0  0  0  0  0
  2  1  1  0
  3  2  2  0
  4  2  1  0
  5  4  1  0
  5  1  1  0
  6  5  1  0
  7  6  1  0
  8  7  1  0
  9  8  2  0
  9  4  1  0
 11 10  2  0
 12 10  1  0
 12  1  1  0
 13 10  1  0
 14 13  1  0
 15 14  1  0
 17 16  3  0
 17 15  1  0
 18  9  1  0
 19 18  2  0
 20 18  1  0
  1 21  1  1
 22 21  1  0
 23  8  1  0
 24 23  1  0
 25 24  1  0
 26 25  2  0
 27 26  1  0
 28 27  2  0
 29 28  1  0
 29 25  1  0
 30 29  1  0
  5 31  1  1
  7 32  1  0
  7 33  1  0
 12 34  1  0
 13 35  1  0
 13 36  1  0
 15 37  1  0
 15 38  1  0
 22 39  1  0
 22 40  1  0
 22 41  1  0
 23 42  1  0
 23 43  1  0
 30 44  1  0
 30 45  1  0
 30 46  1  0
M  CHG  1  20  -1
M  END
>  <score>  (3) 
-6.1

$$$$
=
     RDKit          3D

 46 48  0  0  0  0  0  0  0  0999 V2000
   -3.0850   59.7390   75.0630 C   0  0  2  0  0  0  0  0  0  0  0  0
   -2.5760   58.2060   75.2200 C   0  0  0  0  0  0  0  0  0  0  0  0
   -2.9730   57.1850   75.7290 O   0  0  0  0  0  0  0  0  0  0  0  0
   -1.4370   58.5390   74.5730 N   0  0  0  0  0  0  0  0  0  0  0  0
   -1.8980   59.7810   74.0060 C   0  0  2  0  0  0  0  0  0  0  0  0
   -0.6000   61.0320   74.2680 S   0  0  0  0  0  0  0  0  0  0  0  0
    0.6250   60.1180   73.2730 C   0  0  0  0  0  0  0  0  0  0  0  0
    0.6850   58.6290   73.5460 C   0  0  0  0  0  0  0  0  0  0  0  0
   -0.2960   57.9210   74.1640 C   0  0  0  0  0  0  0  0  0  0  0  0
   -3.2590   61.9000   76.3520 C   0  0  0  0  0  0  0  0  0  0  0  0
   -3.7220   62.5270   75.4060 O   0  0  0  0  0  0  0  0  0  0  0  0
   -2.8420   60.5930   76.2680 N   0  0  0  0  0  0  0  0  0  0  0  0
   -3.0190   62.5340   77.7130 C   0  0  0  0  0  0  0  0  0  0  0  0
   -1.9320   64.0010   77.5980 S   0  0  0  0  0  0  0  0  0  0  0  0
   -3.1830   65.3280   77.4430 C   0  0  0  0  0  0  0  0  0  0  0  0
   -2.9250   66.7760   75.2620 N   0  0  0  0  0  0  0  0  0  0  0  0
   -3.0350   66.1310   76.2210 C   0  0  0  0  0  0  0  0  0  0  0  0
   -0.0730   56.4050   74.4380 C   0  0  0  0  0  0  0  0  0  0  0  0
    0.4330   56.1500   75.5680 O   0  0  0  0  0  0  0  0  0  0  0  0
   -0.5530   55.6280   73.5650 O   0  0  0  0  0  1  0  0  0  0  0  0
   -4.3950   59.9630   74.4590 O   0  0  0  0  0  0  0  0  0  0  0  0
   -5.5000   59.3010   75.0600 C   0  0  0  0  0  0  0  0  0  0  0  0
    1.9460   57.9610   73.0290 C   0  0  0  0  0  0  0  0  0  0  0  0
    3.3670   59.0820   73.2100 S   0  0  0  0  0  0  0  0  0  0  0  0
    3.7520   59.3250   71.5490 C   0  0  0  0  0  0  0  0  0  0  0  0
    3.3210   58.6020   70.5400 N   0  0  0  0  0  0  0  0  0  0  0  0
    3.8740   59.1640   69.4130 N   0  0  0  0  0  0  0  0  0  0  0  0
    4.6250   60.2140   69.7220 N   0  0  0  0  0  0  0  0  0  0  0  0
    4.5520   60.3210   71.0660 N   0  0  0  0  0  0  0  0  0  0  0  0
    5.2590   61.3660   71.7520 C   0  0  0  0  0  0  0  0  0  0  0  0
   -2.1492   59.9581   72.9498 H   0  0  0  0  0  0  0  0  0  0  0  0
    0.3777   60.2610   72.2107 H   0  0  0  0  0  0  0  0  0  0  0  0
    1.6101   60.5223   73.5488 H   0  0  0  0  0  0  0  0  0  0  0  0
   -2.3405   60.1834   77.0690 H   0  0  0  0  0  0  0  0  0  0  0  0
   -3.9861   62.8401   78.1386 H   0  0  0  0  0  0  0  0  0  0  0  0
   -2.5224   61.7903   78.3535 H   0  0  0  0  0  0  0  0  0  0  0  0
   -4.1816   64.8667   77.4381 H   0  0  0  0  0  0  0  0  0  0  0  0
   -3.0425   66.0075   78.2966 H   0  0  0  0  0  0  0  0  0  0  0  0
   -5.4089   59.3556   76.1549 H   0  0  0  0  0  0  0  0  0  0  0  0
   -6.4347   59.7880   74.7451 H   0  0  0  0  0  0  0  0  0  0  0  0
   -5.5115   58.2471   74.7451 H   0  0  0  0  0  0  0  0  0  0  0  0
    2.1324   57.0417   73.6036 H   0  0  0  0  0  0  0  0  0  0  0  0
    1.8135   57.7170   71.9646 H   0  0  0  0  0  0  0  0  0  0  0  0
    5.1619   61.2225   72.8383 H   0  0  0  0  0  0  0  0  0  0  0  0
    6.3222   61.3347   71.4716 H   0  0  0  0  0  0  0  0  0  0  0  0
    4.8344   62.3412   71.4716 H   0  0  0  0  0  0  0  0  0  0  0  0
  2  1  1  0
  3  2  2  0
  4  2  1  0
  5  4  1  0
  5  1  1  0
  6  5  1  0
  7  6  1  0
  8  7  1  0
  9  8  2  0
  9  4  1  0
 11 10  2  0
 12 10  1  0
 12  1  1  0
 13 10  1  0
 14 13  1  0
 15 14  1  0
 17 16  3  0
 17 15  1  0
 18  9  1  0
 19 18  2  0
 20 18  1  0
  1 21  1  6
 22 21  1  0
 23  8  1  0
 24 23  1  0
 25 24  1  0
 26 25  2  0
 27 26  1  0
 28 27  2  0
 29 28  1  0
 29 25  1  0
 30 29  1  0
  5 31  1  6
  7 32  1  0
  7 33  1  0
 12 34  1  0
 13 35  1  0
 13 36  1  0
 15 37  1  0
 15 38  1  0
 22 39  1  0
 22 40  1  0
 22 41  1  0
 23 42  1  0
 23 43  1  0
 30 44  1  0
 30 45  1  0
 30 46  1  0
M  CHG  1  20  -1
M  END
>  <score>  (4) 
-6.055

$$$$
=
     RDKit          3D

 46 48  0  0  0  0  0  0  0  0999 V2000
    0.5450   57.9470   75.9940 C   0  0  2  0  0  0  0  0  0  0  0  0
   -0.6320   59.0580   75.8750 C   0  0  0  0  0  0  0  0  0  0  0  0
   -1.6670   59.3200   76.4400 O   0  0  0  0  0  0  0  0  0  0  0  0
   -0.0060   59.5770   74.7960 N   0  0  0  0  0  0  0  0  0  0  0  0
    1.2760   58.9520   75.0030 C   0  0  2  0  0  0  0  0  0  0  0  0
    1.8370   58.2800   73.4060 S   0  0  0  0  0  0  0  0  0  0  0  0
    1.8780   59.9220   72.6130 C   0  0  0  0  0  0  0  0  0  0  0  0
    0.6740   60.7980   72.8950 C   0  0  0  0  0  0  0  0  0  0  0  0
   -0.1930   60.6030   73.9220 C   0  0  0  0  0  0  0  0  0  0  0  0
   -0.7560   55.7900   75.8670 C   0  0  0  0  0  0  0  0  0  0  0  0
   -1.3200   55.9660   76.9410 O   0  0  0  0  0  0  0  0  0  0  0  0
    0.2120   56.6280   75.3680 N   0  0  0  0  0  0  0  0  0  0  0  0
   -1.0140   54.5680   75.0010 C   0  0  0  0  0  0  0  0  0  0  0  0
   -0.6280   53.0130   75.8840 S   0  0  0  0  0  0  0  0  0  0  0  0
    1.1950   53.1370   75.9890 C   0  0  0  0  0  0  0  0  0  0  0  0
    2.2980   54.3170   73.9130 N   0  0  0  0  0  0  0  0  0  0  0  0
    1.8050   53.7950   74.8250 C   0  0  0  0  0  0  0  0  0  0  0  0
   -1.4280   61.5420   74.0560 C   0  0  0  0  0  0  0  0  0  0  0  0
   -1.2290   62.5630   74.7750 O   0  0  0  0  0  0  0  0  0  0  0  0
   -2.4110   61.2390   73.3230 O   0  0  0  0  0  1  0  0  0  0  0  0
    1.2280   57.8130   77.2780 O   0  0  0  0  0  0  0  0  0  0  0  0
    2.3760   56.9750   77.3090 C   0  0  0  0  0  0  0  0  0  0  0  0
    0.5240   61.9630   71.9350 C   0  0  0  0  0  0  0  0  0  0  0  0
    1.8610   63.1680   72.2020 S   0  0  0  0  0  0  0  0  0  0  0  0
    2.6820   63.0220   70.6950 C   0  0  0  0  0  0  0  0  0  0  0  0
    2.2110   63.3730   69.5190 N   0  0  0  0  0  0  0  0  0  0  0  0
    3.2070   63.0850   68.6160 N   0  0  0  0  0  0  0  0  0  0  0  0
    4.2700   62.5720   69.2230 N   0  0  0  0  0  0  0  0  0  0  0  0
    3.9460   62.5310   70.5340 N   0  0  0  0  0  0  0  0  0  0  0  0
    4.8790   62.0210   71.4990 C   0  0  0  0  0  0  0  0  0  0  0  0
    2.1919   59.4512   75.3522 H   0  0  0  0  0  0  0  0  0  0  0  0
    2.7753   60.4503   72.9677 H   0  0  0  0  0  0  0  0  0  0  0  0
    1.8794   59.7403   71.5281 H   0  0  0  0  0  0  0  0  0  0  0  0
    0.7308   56.3364   74.5273 H   0  0  0  0  0  0  0  0  0  0  0  0
   -2.0742   54.5570   74.7081 H   0  0  0  0  0  0  0  0  0  0  0  0
   -0.3598   54.6308   74.1189 H   0  0  0  0  0  0  0  0  0  0  0  0
    1.4537   53.7128   76.8899 H   0  0  0  0  0  0  0  0  0  0  0  0
    1.5881   52.1102   76.0236 H   0  0  0  0  0  0  0  0  0  0  0  0
    2.6538   56.7722   78.3538 H   0  0  0  0  0  0  0  0  0  0  0  0
    2.1517   56.0268   76.7986 H   0  0  0  0  0  0  0  0  0  0  0  0
    3.2108   57.4776   76.7986 H   0  0  0  0  0  0  0  0  0  0  0  0
    0.5706   61.5908   70.9009 H   0  0  0  0  0  0  0  0  0  0  0  0
   -0.4443   62.4538   72.1124 H   0  0  0  0  0  0  0  0  0  0  0  0
    4.5057   62.2251   72.5134 H   0  0  0  0  0  0  0  0  0  0  0  0
    4.9922   60.9355   71.3614 H   0  0  0  0  0  0  0  0  0  0  0  0
    5.8538   62.5117   71.3614 H   0  0  0  0  0  0  0  0  0  0  0  0
  2  1  1  0
  3  2  2  0
  4  2  1  0
  5  4  1  0
  5  1  1  0
  6  5  1  0
  7  6  1  0
  8  7  1  0
  9  8  2  0
  9  4  1  0
 11 10  2  0
 12 10  1  0
 12  1  1  0
 13 10  1  0
 14 13  1  0
 15 14  1  0
 17 16  3  0
 17 15  1  0
 18  9  1  0
 19 18  2  0
 20 18  1  0
  1 21  1  1
 22 21  1  0
 23  8  1  0
 24 23  1  0
 25 24  1  0
 26 25  2  0
 27 26  1  0
 28 27  2  0
 29 28  1  0
 29 25  1  0
 30 29  1  0
  5 31  1  1
  7 32  1  0
  7 33  1  0
 12 34  1  0
 13 35  1  0
 13 36  1  0
 15 37  1  0
 15 38  1  0
 22 39  1  0
 22 40  1  0
 22 41  1  0
 23 42  1  0
 23 43  1  0
 30 44  1  0
 30 45  1  0
 30 46  1  0
M  CHG  1  20  -1
M  END
>  <score>  (5) 
-6.033

$$$$
=
     RDKit          3D

 46 48  0  0  0  0  0  0  0  0999 V2000
    1.6580   56.7760   75.4950 C   0  0  2  0  0  0  0  0  0  0  0  0
    0.7450   58.0250   75.9850 C   0  0  0  0  0  0  0  0  0  0  0  0
    0.0650   58.3070   76.9430 O   0  0  0  0  0  0  0  0  0  0  0  0
    1.0020   58.6470   74.8130 N   0  0  0  0  0  0  0  0  0  0  0  0
    2.1310   57.8440   74.4160 C   0  0  2  0  0  0  0  0  0  0  0  0
    1.9170   57.4030   72.6620 S   0  0  0  0  0  0  0  0  0  0  0  0
    1.9540   59.1420   72.1140 C   0  0  0  0  0  0  0  0  0  0  0  0
    1.1250   60.0930   72.9520 C   0  0  0  0  0  0  0  0  0  0  0  0
    0.6880   59.8270   74.2110 C   0  0  0  0  0  0  0  0  0  0  0  0
    1.4650   54.4590   74.5180 C   0  0  0  0  0  0  0  0  0  0  0  0
    2.6770   54.2850   74.4690 O   0  0  0  0  0  0  0  0  0  0  0  0
    0.8800   55.6400   74.9070 N   0  0  0  0  0  0  0  0  0  0  0  0
    0.4700   53.4010   74.0690 C   0  0  0  0  0  0  0  0  0  0  0  0
   -0.2070   52.4580   75.4830 S   0  0  0  0  0  0  0  0  0  0  0  0
   -1.9740   52.9190   75.3720 C   0  0  0  0  0  0  0  0  0  0  0  0
   -2.3920   55.5100   75.5540 N   0  0  0  0  0  0  0  0  0  0  0  0
   -2.2080   54.3670   75.4660 C   0  0  0  0  0  0  0  0  0  0  0  0
   -0.2120   60.8710   74.9340 C   0  0  0  0  0  0  0  0  0  0  0  0
   -1.4530   60.6790   74.7850 O   0  0  0  0  0  0  0  0  0  0  0  0
    0.4050   61.6800   75.6830 O   0  0  0  0  0  1  0  0  0  0  0  0
    2.7370   56.3350   76.3730 O   0  0  0  0  0  0  0  0  0  0  0  0
    3.8910   57.1640   76.4390 C   0  0  0  0  0  0  0  0  0  0  0  0
    0.8390   61.4200   72.2740 C   0  0  0  0  0  0  0  0  0  0  0  0
    2.2870   62.5130   72.4030 S   0  0  0  0  0  0  0  0  0  0  0  0
    2.8100   62.4890   70.7610 C   0  0  0  0  0  0  0  0  0  0  0  0
    2.1650   62.9990   69.7360 N   0  0  0  0  0  0  0  0  0  0  0  0
    2.9570   62.7550   68.6380 N   0  0  0  0  0  0  0  0  0  0  0  0
    4.0670   62.1120   68.9810 N   0  0  0  0  0  0  0  0  0  0  0  0
    3.9800   61.9430   70.3180 N   0  0  0  0  0  0  0  0  0  0  0  0
    5.0280   61.2700   71.0350 C   0  0  0  0  0  0  0  0  0  0  0  0
    3.1853   58.1577   74.4240 H   0  0  0  0  0  0  0  0  0  0  0  0
    2.9985   59.4860   72.1395 H   0  0  0  0  0  0  0  0  0  0  0  0
    1.5148   59.1568   71.1056 H   0  0  0  0  0  0  0  0  0  0  0  0
   -0.1375   55.7484   74.7890 H   0  0  0  0  0  0  0  0  0  0  0  0
   -0.3593   53.8941   73.5406 H   0  0  0  0  0  0  0  0  0  0  0  0
    0.9966   52.6956   73.4094 H   0  0  0  0  0  0  0  0  0  0  0  0
   -2.3666   52.5645   74.4075 H   0  0  0  0  0  0  0  0  0  0  0  0
   -2.4851   52.4520   76.2268 H   0  0  0  0  0  0  0  0  0  0  0  0
    4.1494   57.3496   77.4920 H   0  0  0  0  0  0  0  0  0  0  0  0
    4.7320   56.6623   75.9380 H   0  0  0  0  0  0  0  0  0  0  0  0
    3.6840   58.1212   75.9380 H   0  0  0  0  0  0  0  0  0  0  0  0
    0.6093   61.2442   71.2127 H   0  0  0  0  0  0  0  0  0  0  0  0
   -0.0189   61.8992   72.7684 H   0  0  0  0  0  0  0  0  0  0  0  0
    4.8600   61.3779   72.1167 H   0  0  0  0  0  0  0  0  0  0  0  0
    5.0278   60.2028   70.7685 H   0  0  0  0  0  0  0  0  0  0  0  0
    5.9984   61.7142   70.7685 H   0  0  0  0  0  0  0  0  0  0  0  0
  2  1  1  0
  3  2  2  0
  4  2  1  0
  5  4  1  0
  5  1  1  0
  6  5  1  0
  7  6  1  0
  8  7  1  0
  9  8  2  0
  9  4  1  0
 11 10  2  0
 12 10  1  0
 12  1  1  0
 13 10  1  0
 14 13  1  0
 15 14  1  0
 17 16  3  0
 17 15  1  0
 18  9  1  0
 19 18  2  0
 20 18  1  0
  1 21  1  1
 22 21  1  0
 23  8  1  0
 24 23  1  0
 25 24  1  0
 26 25  2  0
 27 26  1  0
 28 27  2  0
 29 28  1  0
 29 25  1  0
 30 29  1  0
  5 31  1  6
  7 32  1  0
  7 33  1  0
 12 34  1  0
 13 35  1  0
 13 36  1  0
 15 37  1  0
 15 38  1  0
 22 39  1  0
 22 40  1  0
 22 41  1  0
 23 42  1  0
 23 43  1  0
 30 44  1  0
 30 45  1  0
 30 46  1  0
M  CHG  1  20  -1
M  END
>  <score>  (6) 
-6.023

$$$$
=
     RDKit          3D

 46 48  0  0  0  0  0  0  0  0999 V2000
    3.5980   59.8830   72.2040 C   0  0  2  0  0  0  0  0  0  0  0  0
    2.9090   58.4300   71.9820 C   0  0  0  0  0  0  0  0  0  0  0  0
    2.6810   57.6870   71.0570 O   0  0  0  0  0  0  0  0  0  0  0  0
    2.6170   58.3890   73.3010 N   0  0  0  0  0  0  0  0  0  0  0  0
    3.5160   59.4320   73.7260 C   0  0  2  0  0  0  0  0  0  0  0  0
    2.6080   60.5240   74.8670 S   0  0  0  0  0  0  0  0  0  0  0  0
    2.3190   59.1900   76.0760 C   0  0  0  0  0  0  0  0  0  0  0  0
    1.8690   57.8720   75.4780 C   0  0  0  0  0  0  0  0  0  0  0  0
    2.0170   57.5320   74.1710 C   0  0  0  0  0  0  0  0  0  0  0  0
    2.4420   61.4370   70.5870 C   0  0  0  0  0  0  0  0  0  0  0  0
    3.0240   60.9880   69.6060 O   0  0  0  0  0  0  0  0  0  0  0  0
    2.7060   61.0410   71.8760 N   0  0  0  0  0  0  0  0  0  0  0  0
    1.4130   62.5510   70.4870 C   0  0  0  0  0  0  0  0  0  0  0  0
    2.1930   64.2060   70.5350 S   0  0  0  0  0  0  0  0  0  0  0  0
    0.7410   65.2420   70.9480 C   0  0  0  0  0  0  0  0  0  0  0  0
   -0.3000   66.4470   68.8540 N   0  0  0  0  0  0  0  0  0  0  0  0
    0.1540   65.9180   69.7820 C   0  0  0  0  0  0  0  0  0  0  0  0
    1.4500   56.1690   73.6760 C   0  0  0  0  0  0  0  0  0  0  0  0
    2.2040   55.1800   73.9020 O   0  0  0  0  0  0  0  0  0  0  0  0
    0.2620   56.2090   73.2470 O   0  0  0  0  0  1  0  0  0  0  0  0
    4.9680   60.0670   71.7360 O   0  0  0  0  0  0  0  0  0  0  0  0
    5.6160   61.2760   72.1090 C   0  0  0  0  0  0  0  0  0  0  0  0
    1.2550   56.9180   76.4850 C   0  0  0  0  0  0  0  0  0  0  0  0
   -0.4820   57.3650   76.7910 S   0  0  0  0  0  0  0  0  0  0  0  0
   -1.2460   55.9060   76.2870 C   0  0  0  0  0  0  0  0  0  0  0  0
   -0.6900   54.7150   76.2430 N   0  0  0  0  0  0  0  0  0  0  0  0
   -1.6690   53.8620   75.7930 N   0  0  0  0  0  0  0  0  0  0  0  0
   -2.8040   54.5120   75.5670 N   0  0  0  0  0  0  0  0  0  0  0  0
   -2.5440   55.8000   75.8780 N   0  0  0  0  0  0  0  0  0  0  0  0
   -3.5670   56.8000   75.7480 C   0  0  0  0  0  0  0  0  0  0  0  0
    4.4578   59.2918   74.2768 H   0  0  0  0  0  0  0  0  0  0  0  0
    3.2577   59.0146   76.6219 H   0  0  0  0  0  0  0  0  0  0  0  0
    1.4967   59.5321   76.7216 H   0  0  0  0  0  0  0  0  0  0  0  0
    2.2717   61.5631   72.6504 H   0  0  0  0  0  0  0  0  0  0  0  0
    0.8637   62.4439   69.5400 H   0  0  0  0  0  0  0  0  0  0  0  0
    0.7355   62.4680   71.3496 H   0  0  0  0  0  0  0  0  0  0  0  0
   -0.0278   64.5994   71.4018 H   0  0  0  0  0  0  0  0  0  0  0  0
    1.0878   66.0263   71.6369 H   0  0  0  0  0  0  0  0  0  0  0  0
    5.6546   61.3480   73.2060 H   0  0  0  0  0  0  0  0  0  0  0  0
    6.6390   61.2835   71.7048 H   0  0  0  0  0  0  0  0  0  0  0  0
    5.0558   62.1321   71.7048 H   0  0  0  0  0  0  0  0  0  0  0  0
    1.3027   55.8923   76.0905 H   0  0  0  0  0  0  0  0  0  0  0  0
    1.8151   56.9820   77.4296 H   0  0  0  0  0  0  0  0  0  0  0  0
   -3.8952   57.1209   76.7477 H   0  0  0  0  0  0  0  0  0  0  0  0
   -3.1667   57.6647   75.1984 H   0  0  0  0  0  0  0  0  0  0  0  0
   -4.4224   56.3802   75.1984 H   0  0  0  0  0  0  0  0  0  0  0  0
  2  1  1  0
  3  2  2  0
  4  2  1  0
  5  4  1  0
  5  1  1  0
  6  5  1  0
  7  6  1  0
  8  7  1  0
  9  8  2  0
  9  4  1  0
 11 10  2  0
 12 10  1  0
 12  1  1  0
 13 10  1  0
 14 13  1  0
 15 14  1  0
 17 16  3  0
 17 15  1  0
 18  9  1  0
 19 18  2  0
 20 18  1  0
  1 21  1  6
 22 21  1  0
 23  8  1  0
 24 23  1  0
 25 24  1  0
 26 25  2  0
 27 26  1  0
 28 27  2  0
 29 28  1  0
 29 25  1  0
 30 29  1  0
  5 31  1  1
  7 32  1  0
  7 33  1  0
 12 34  1  0
 13 35  1  0
 13 36  1  0
 15 37  1  0
 15 38  1  0
 22 39  1  0
 22 40  1  0
 22 41  1  0
 23 42  1  0
 23 43  1  0
 30 44  1  0
 30 45  1  0
 30 46  1  0
M  CHG  1  20  -1
M  END
>  <score>  (7) 
-5.98

$$$$
=
     RDKit          3D

 46 48  0  0  0  0  0  0  0  0999 V2000
    1.8300   59.7740   75.1270 C   0  0  2  0  0  0  0  0  0  0  0  0
    0.4240   59.5180   74.3570 C   0  0  0  0  0  0  0  0  0  0  0  0
    0.0230   58.8390   73.4420 O   0  0  0  0  0  0  0  0  0  0  0  0
   -0.1520   60.4560   75.1400 N   0  0  0  0  0  0  0  0  0  0  0  0
    0.8670   60.5050   76.1580 C   0  0  2  0  0  0  0  0  0  0  0  0
    1.2140   62.2560   76.5200 S   0  0  0  0  0  0  0  0  0  0  0  0
   -0.4870   62.5830   77.0900 C   0  0  0  0  0  0  0  0  0  0  0  0
   -1.5770   62.0020   76.2120 C   0  0  0  0  0  0  0  0  0  0  0  0
   -1.3840   61.0110   75.3020 C   0  0  0  0  0  0  0  0  0  0  0  0
    3.3930   60.3760   73.2400 C   0  0  0  0  0  0  0  0  0  0  0  0
    3.3800   59.2500   72.7560 O   0  0  0  0  0  0  0  0  0  0  0  0
    2.7600   60.7070   74.4140 N   0  0  0  0  0  0  0  0  0  0  0  0
    4.1870   61.5180   72.6290 C   0  0  0  0  0  0  0  0  0  0  0  0
    5.3130   60.9360   71.3090 S   0  0  0  0  0  0  0  0  0  0  0  0
    4.1550   60.8740   69.8920 C   0  0  0  0  0  0  0  0  0  0  0  0
    2.7710   63.0900   69.5880 N   0  0  0  0  0  0  0  0  0  0  0  0
    3.3800   62.1100   69.7150 C   0  0  0  0  0  0  0  0  0  0  0  0
   -2.5820   60.5540   74.4190 C   0  0  0  0  0  0  0  0  0  0  0  0
   -2.6980   61.1890   73.3320 O   0  0  0  0  0  0  0  0  0  0  0  0
   -3.1890   59.5260   74.8340 O   0  0  0  0  0  1  0  0  0  0  0  0
    2.5120   58.6190   75.7030 O   0  0  0  0  0  0  0  0  0  0  0  0
    1.9340   57.3430   75.4550 C   0  0  0  0  0  0  0  0  0  0  0  0
   -2.9480   62.6040   76.4560 C   0  0  0  0  0  0  0  0  0  0  0  0
   -2.8080   64.0590   77.5390 S   0  0  0  0  0  0  0  0  0  0  0  0
   -3.0200   65.3060   76.3700 C   0  0  0  0  0  0  0  0  0  0  0  0
   -2.0670   65.8850   75.6740 N   0  0  0  0  0  0  0  0  0  0  0  0
   -2.6970   66.8040   74.8690 N   0  0  0  0  0  0  0  0  0  0  0  0
   -4.0110   66.7890   75.0630 N   0  0  0  0  0  0  0  0  0  0  0  0
   -4.2200   65.8460   76.0070 N   0  0  0  0  0  0  0  0  0  0  0  0
   -5.5500   65.5610   76.4670 C   0  0  0  0  0  0  0  0  0  0  0  0
    0.7882   60.0939   77.1753 H   0  0  0  0  0  0  0  0  0  0  0  0
   -0.5972   62.1573   78.0983 H   0  0  0  0  0  0  0  0  0  0  0  0
   -0.6173   63.6749   77.0616 H   0  0  0  0  0  0  0  0  0  0  0  0
    2.9326   61.6371   74.8214 H   0  0  0  0  0  0  0  0  0  0  0  0
    3.4859   62.2499   72.2014 H   0  0  0  0  0  0  0  0  0  0  0  0
    4.7981   61.9717   73.4231 H   0  0  0  0  0  0  0  0  0  0  0  0
    4.7355   60.6925   68.9754 H   0  0  0  0  0  0  0  0  0  0  0  0
    3.4358   60.0671   70.0964 H   0  0  0  0  0  0  0  0  0  0  0  0
    1.7104   56.8494   76.4123 H   0  0  0  0  0  0  0  0  0  0  0  0
    1.0042   57.4671   74.8805 H   0  0  0  0  0  0  0  0  0  0  0  0
    2.6404   56.7259   74.8805 H   0  0  0  0  0  0  0  0  0  0  0  0
   -3.3887   62.9070   75.4947 H   0  0  0  0  0  0  0  0  0  0  0  0
   -3.5893   61.8539   76.9418 H   0  0  0  0  0  0  0  0  0  0  0  0
   -5.5648   65.5578   77.5669 H   0  0  0  0  0  0  0  0  0  0  0  0
   -6.2403   66.3316   76.0933 H   0  0  0  0  0  0  0  0  0  0  0  0
   -5.8639   64.5752   76.0933 H   0  0  0  0  0  0  0  0  0  0  0  0
  2  1  1  0
  3  2  2  0
  4  2  1  0
  5  4  1  0
  5  1  1  0
  6  5  1  0
  7  6  1  0
  8  7  1  0
  9  8  2  0
  9  4  1  0
 11 10  2  0
 12 10  1  0
 12  1  1  0
 13 10  1  0
 14 13  1  0
 15 14  1  0
 17 16  3  0
 17 15  1  0
 18  9  1  0
 19 18  2  0
 20 18  1  0
  1 21  1  1
 22 21  1  0
 23  8  1  0
 24 23  1  0
 25 24  1  0
 26 25  2  0
 27 26  1  0
 28 27  2  0
 29 28  1  0
 29 25  1  0
 30 29  1  0
  5 31  1  1
  7 32  1  0
  7 33  1  0
 12 34  1  0
 13 35  1  0
 13 36  1  0
 15 37  1  0
 15 38  1  0
 22 39  1  0
 22 40  1  0
 22 41  1  0
 23 42  1  0
 23 43  1  0
 30 44  1  0
 30 45  1  0
 30 46  1  0
M  CHG  1  20  -1
M  END
>  <score>  (8) 
-5.965

$$$$
=
     RDKit          3D

 46 48  0  0  0  0  0  0  0  0999 V2000
   -0.0330   56.4450   74.9510 C   0  0  2  0  0  0  0  0  0  0  0  0
    1.3130   56.4560   74.0440 C   0  0  0  0  0  0  0  0  0  0  0  0
    2.2210   55.7000   73.7910 O   0  0  0  0  0  0  0  0  0  0  0  0
    1.0480   57.7370   73.7020 N   0  0  0  0  0  0  0  0  0  0  0  0
   -0.3350   57.7570   74.1070 C   0  0  2  0  0  0  0  0  0  0  0  0
   -0.6220   59.2950   75.0400 S   0  0  0  0  0  0  0  0  0  0  0  0
   -0.2010   60.3570   73.6190 C   0  0  0  0  0  0  0  0  0  0  0  0
    1.0390   59.9380   72.8550 C   0  0  0  0  0  0  0  0  0  0  0  0
    1.6030   58.7040   72.9230 C   0  0  0  0  0  0  0  0  0  0  0  0
    0.9260   55.8640   77.2110 C   0  0  0  0  0  0  0  0  0  0  0  0
    1.3050   54.7520   76.8600 O   0  0  0  0  0  0  0  0  0  0  0  0
    0.2050   56.7120   76.4050 N   0  0  0  0  0  0  0  0  0  0  0  0
    1.1490   56.3960   78.6170 C   0  0  0  0  0  0  0  0  0  0  0  0
    2.7480   55.8410   79.3110 S   0  0  0  0  0  0  0  0  0  0  0  0
    3.8200   57.2450   78.8310 C   0  0  0  0  0  0  0  0  0  0  0  0
    4.0990   57.4910   76.2270 N   0  0  0  0  0  0  0  0  0  0  0  0
    3.9810   57.3880   77.3780 C   0  0  0  0  0  0  0  0  0  0  0  0
    2.9160   58.4290   72.1330 C   0  0  0  0  0  0  0  0  0  0  0  0
    3.9670   58.8120   72.7220 O   0  0  0  0  0  0  0  0  0  0  0  0
    2.7730   57.7420   71.0820 O   0  0  0  0  0  1  0  0  0  0  0  0
   -1.0030   55.3800   74.7170 O   0  0  0  0  0  0  0  0  0  0  0  0
   -2.3120   55.5800   75.2340 C   0  0  0  0  0  0  0  0  0  0  0  0
    1.6010   61.0220   71.9540 C   0  0  0  0  0  0  0  0  0  0  0  0
    1.7050   62.5970   72.8600 S   0  0  0  0  0  0  0  0  0  0  0  0
    1.4700   63.6940   71.5530 C   0  0  0  0  0  0  0  0  0  0  0  0
    0.3680   64.3600   71.2900 N   0  0  0  0  0  0  0  0  0  0  0  0
    0.6430   65.1110   70.1720 N   0  0  0  0  0  0  0  0  0  0  0  0
    1.8880   64.9140   69.7570 N   0  0  0  0  0  0  0  0  0  0  0  0
    2.4150   64.0230   70.6240 N   0  0  0  0  0  0  0  0  0  0  0  0
    3.7710   63.5740   70.4720 C   0  0  0  0  0  0  0  0  0  0  0  0
   -1.2072   57.7528   73.4368 H   0  0  0  0  0  0  0  0  0  0  0  0
   -1.0516   60.3477   72.9215 H   0  0  0  0  0  0  0  0  0  0  0  0
    0.0128   61.3541   74.0315 H   0  0  0  0  0  0  0  0  0  0  0  0
   -0.1889   57.5688   76.8192 H   0  0  0  0  0  0  0  0  0  0  0  0
    1.1367   57.4955   78.5873 H   0  0  0  0  0  0  0  0  0  0  0  0
    0.3453   56.0076   79.2598 H   0  0  0  0  0  0  0  0  0  0  0  0
    3.3777   58.1717   79.2254 H   0  0  0  0  0  0  0  0  0  0  0  0
    4.8180   57.0486   79.2498 H   0  0  0  0  0  0  0  0  0  0  0  0
   -2.2768   55.5746   76.3334 H   0  0  0  0  0  0  0  0  0  0  0  0
   -2.7004   56.5479   74.8843 H   0  0  0  0  0  0  0  0  0  0  0  0
   -2.9717   54.7722   74.8843 H   0  0  0  0  0  0  0  0  0  0  0  0
    2.6062   60.7295   71.6164 H   0  0  0  0  0  0  0  0  0  0  0  0
    0.9369   61.1490   71.0864 H   0  0  0  0  0  0  0  0  0  0  0  0
    4.2213   63.4249   71.4645 H   0  0  0  0  0  0  0  0  0  0  0  0
    3.7827   62.6240   69.9176 H   0  0  0  0  0  0  0  0  0  0  0  0
    4.3474   64.3293   69.9176 H   0  0  0  0  0  0  0  0  0  0  0  0
  2  1  1  0
  3  2  2  0
  4  2  1  0
  5  4  1  0
  5  1  1  0
  6  5  1  0
  7  6  1  0
  8  7  1  0
  9  8  2  0
  9  4  1  0
 11 10  2  0
 12 10  1  0
 12  1  1  0
 13 10  1  0
 14 13  1  0
 15 14  1  0
 17 16  3  0
 17 15  1  0
 18  9  1  0
 19 18  2  0
 20 18  1  0
  1 21  1  1
 22 21  1  0
 23  8  1  0
 24 23  1  0
 25 24  1  0
 26 25  2  0
 27 26  1  0
 28 27  2  0
 29 28  1  0
 29 25  1  0
 30 29  1  0
  5 31  1  6
  7 32  1  0
  7 33  1  0
 12 34  1  0
 13 35  1  0
 13 36  1  0
 15 37  1  0
 15 38  1  0
 22 39  1  0
 22 40  1  0
 22 41  1  0
 23 42  1  0
 23 43  1  0
 30 44  1  0
 30 45  1  0
 30 46  1  0
M  CHG  1  20  -1
M  END
>  <score>  (9) 
-5.877

$$$$
