=
     RDKit          3D

 26 27  0  0  0  0  0  0  0  0999 V2000
    3.4770   68.9570   64.9950 C   0  0  0  0  0  0  0  0  0  0  0  0
    3.6410   69.4700   63.8970 O   0  0  0  0  0  0  0  0  0  0  0  0
    3.2990   70.8670   69.4380 F   0  0  0  0  0  0  0  0  0  0  0  0
    4.0250   70.4280   68.4010 C   0  0  0  0  0  0  0  0  0  0  0  0
    3.3860   69.9420   67.2650 C   0  0  0  0  0  0  0  0  0  0  0  0
    2.0480   69.8950   67.2260 F   0  0  0  0  0  0  0  0  0  0  0  0
    4.1380   69.4790   66.1900 C   0  0  0  0  0  0  0  0  0  0  0  0
    5.5280   69.4940   66.2550 C   0  0  0  0  0  0  0  0  0  0  0  0
    6.1630   69.9830   67.3920 C   0  0  0  0  0  0  0  0  0  0  0  0
    5.4130   70.4500   68.4640 C   0  0  0  0  0  0  0  0  0  0  0  0
    6.0260   70.9180   69.5600 F   0  0  0  0  0  0  0  0  0  0  0  0
    7.5010   70.0070   67.4510 F   0  0  0  0  0  0  0  0  0  0  0  0
    6.2630   69.0670   65.2200 F   0  0  0  0  0  0  0  0  0  0  0  0
    2.5490   67.7660   65.1320 C   0  0  0  0  0  0  0  0  0  0  0  0
    2.9880   66.6290   65.1900 O   0  0  0  0  0  0  0  0  0  0  0  0
    1.1080   68.0350   65.2440 C   0  0  0  0  0  0  0  0  0  0  0  0
    0.4250   68.5710   64.1440 C   0  0  0  0  0  0  0  0  0  0  0  0
    1.2870   68.8910   62.6690 Cl  0  0  0  0  0  0  0  0  0  0  0  0
   -0.9530   68.8290   64.2450 C   0  0  0  0  0  0  0  0  0  0  0  0
   -1.8130   69.4980   62.8870 Cl  0  0  0  0  0  0  0  0  0  0  0  0
   -1.6350   68.5440   65.4460 C   0  0  0  0  0  0  0  0  0  0  0  0
   -0.9380   68.0000   66.5440 C   0  0  0  0  0  0  0  0  0  0  0  0
    0.4400   67.7430   66.4400 C   0  0  0  0  0  0  0  0  0  0  0  0
    1.3260   67.0740   67.7770 Cl  0  0  0  0  0  0  0  0  0  0  0  0
   -1.7770   67.6450   68.0270 Cl  0  0  0  0  0  0  0  0  0  0  0  0
   -3.3430   68.8660   65.5740 Cl  0  0  0  0  0  0  0  0  0  0  0  0
  2  1  2  0
  4  3  1  0
  5  4  2  0
  6  5  1  0
  7  1  1  0
  7  5  1  0
  8  7  2  0
  9  8  1  0
 10  4  1  0
 10  9  2  0
 11 10  1  0
 12  9  1  0
 13  8  1  0
 14  1  1  0
 15 14  2  0
 16 14  1  0
 17 16  2  0
 18 17  1  0
 19 17  1  0
 20 19  1  0
 21 19  2  0
 22 21  1  0
 23 16  1  0
 23 22  2  0
 24 23  1  0
 25 22  1  0
 26 21  1  0
M  END
>  <score>  (1) 
-9.411

$$$$
=
     RDKit          3D

 26 27  0  0  0  0  0  0  0  0999 V2000
    3.2180   59.6930   71.4980 C   0  0  0  0  0  0  0  0  0  0  0  0
    3.2740   58.8870   70.5800 O   0  0  0  0  0  0  0  0  0  0  0  0
    0.5560   63.7180   71.1360 F   0  0  0  0  0  0  0  0  0  0  0  0
    1.7520   63.1190   71.0750 C   0  0  0  0  0  0  0  0  0  0  0  0
    1.8550   61.7500   71.3040 C   0  0  0  0  0  0  0  0  0  0  0  0
    0.7570   61.0460   71.6070 F   0  0  0  0  0  0  0  0  0  0  0  0
    3.0980   61.1280   71.2500 C   0  0  0  0  0  0  0  0  0  0  0  0
    4.2390   61.8760   70.9740 C   0  0  0  0  0  0  0  0  0  0  0  0
    4.1320   63.2430   70.7430 C   0  0  0  0  0  0  0  0  0  0  0  0
    2.8900   63.8650   70.7930 C   0  0  0  0  0  0  0  0  0  0  0  0
    2.7900   65.1830   70.5730 F   0  0  0  0  0  0  0  0  0  0  0  0
    5.2290   63.9620   70.4680 F   0  0  0  0  0  0  0  0  0  0  0  0
    5.4390   61.2860   70.9010 F   0  0  0  0  0  0  0  0  0  0  0  0
    3.2510   59.1970   72.9300 C   0  0  0  0  0  0  0  0  0  0  0  0
    4.3030   59.1150   73.5450 O   0  0  0  0  0  0  0  0  0  0  0  0
    1.9680   58.8690   73.5680 C   0  0  0  0  0  0  0  0  0  0  0  0
    1.3740   57.6270   73.3090 C   0  0  0  0  0  0  0  0  0  0  0  0
    2.1710   56.4940   72.2590 Cl  0  0  0  0  0  0  0  0  0  0  0  0
    0.1470   57.3080   73.9170 C   0  0  0  0  0  0  0  0  0  0  0  0
   -0.6030   55.7680   73.6010 Cl  0  0  0  0  0  0  0  0  0  0  0  0
   -0.4720   58.2350   74.7800 C   0  0  0  0  0  0  0  0  0  0  0  0
    0.1380   59.4800   75.0350 C   0  0  0  0  0  0  0  0  0  0  0  0
    1.3650   59.7970   74.4270 C   0  0  0  0  0  0  0  0  0  0  0  0
    2.1400   61.3240   74.7230 Cl  0  0  0  0  0  0  0  0  0  0  0  0
   -0.6220   60.6250   76.1030 Cl  0  0  0  0  0  0  0  0  0  0  0  0
   -1.9940   57.8420   75.5310 Cl  0  0  0  0  0  0  0  0  0  0  0  0
  2  1  2  0
  4  3  1  0
  5  4  2  0
  6  5  1  0
  7  1  1  0
  7  5  1  0
  8  7  2  0
  9  8  1  0
 10  4  1  0
 10  9  2  0
 11 10  1  0
 12  9  1  0
 13  8  1  0
 14  1  1  0
 15 14  2  0
 16 14  1  0
 17 16  2  0
 18 17  1  0
 19 17  1  0
 20 19  1  0
 21 19  2  0
 22 21  1  0
 23 16  1  0
 23 22  2  0
 24 23  1  0
 25 22  1  0
 26 21  1  0
M  END
>  <score>  (2) 
-9.362

$$$$
=
     RDKit          3D

 26 27  0  0  0  0  0  0  0  0999 V2000
    3.3580   59.6130   71.6670 C   0  0  0  0  0  0  0  0  0  0  0  0
    3.5000   58.7800   70.7830 O   0  0  0  0  0  0  0  0  0  0  0  0
    5.2680   63.9080   70.5140 F   0  0  0  0  0  0  0  0  0  0  0  0
    4.1890   63.1630   70.7880 C   0  0  0  0  0  0  0  0  0  0  0  0
    4.3350   61.8120   71.0860 C   0  0  0  0  0  0  0  0  0  0  0  0
    5.5560   61.2600   71.0730 F   0  0  0  0  0  0  0  0  0  0  0  0
    3.2150   61.0360   71.3630 C   0  0  0  0  0  0  0  0  0  0  0  0
    1.9480   61.6090   71.3340 C   0  0  0  0  0  0  0  0  0  0  0  0
    1.8050   62.9610   71.0390 C   0  0  0  0  0  0  0  0  0  0  0  0
    2.9240   63.7380   70.7660 C   0  0  0  0  0  0  0  0  0  0  0  0
    2.7840   65.0390   70.4790 F   0  0  0  0  0  0  0  0  0  0  0  0
    0.5850   63.5150   71.0210 F   0  0  0  0  0  0  0  0  0  0  0  0
    0.8620   60.8770   71.6160 F   0  0  0  0  0  0  0  0  0  0  0  0
    3.3040   59.1650   73.1140 C   0  0  0  0  0  0  0  0  0  0  0  0
    4.3160   59.1140   73.7960 O   0  0  0  0  0  0  0  0  0  0  0  0
    1.9860   58.8450   73.6800 C   0  0  0  0  0  0  0  0  0  0  0  0
    1.3410   59.7900   74.4890 C   0  0  0  0  0  0  0  0  0  0  0  0
    2.1010   61.3240   74.7930 Cl  0  0  0  0  0  0  0  0  0  0  0  0
    0.0800   59.4890   75.0320 C   0  0  0  0  0  0  0  0  0  0  0  0
   -0.7300   60.6540   76.0420 Cl  0  0  0  0  0  0  0  0  0  0  0  0
   -0.5250   58.2460   74.7560 C   0  0  0  0  0  0  0  0  0  0  0  0
    0.1310   57.3060   73.9370 C   0  0  0  0  0  0  0  0  0  0  0  0
    1.3930   57.6080   73.3960 C   0  0  0  0  0  0  0  0  0  0  0  0
    2.2260   56.4680   72.3830 Cl  0  0  0  0  0  0  0  0  0  0  0  0
   -0.6140   55.7710   73.5920 Cl  0  0  0  0  0  0  0  0  0  0  0  0
   -2.0870   57.8710   75.4310 Cl  0  0  0  0  0  0  0  0  0  0  0  0
  2  1  2  0
  4  3  1  0
  5  4  2  0
  6  5  1  0
  7  1  1  0
  7  5  1  0
  8  7  2  0
  9  8  1  0
 10  4  1  0
 10  9  2  0
 11 10  1  0
 12  9  1  0
 13  8  1  0
 14  1  1  0
 15 14  2  0
 16 14  1  0
 17 16  2  0
 18 17  1  0
 19 17  1  0
 20 19  1  0
 21 19  2  0
 22 21  1  0
 23 16  1  0
 23 22  2  0
 24 23  1  0
 25 22  1  0
 26 21  1  0
M  END
>  <score>  (3) 
-9.304

$$$$
=
     RDKit          3D

 26 27  0  0  0  0  0  0  0  0999 V2000
    3.3090   59.5820   71.5960 C   0  0  0  0  0  0  0  0  0  0  0  0
    3.4140   58.7450   70.7100 O   0  0  0  0  0  0  0  0  0  0  0  0
    0.6490   63.5830   71.0190 F   0  0  0  0  0  0  0  0  0  0  0  0
    1.8480   62.9860   71.0110 C   0  0  0  0  0  0  0  0  0  0  0  0
    1.9480   61.6270   71.2920 C   0  0  0  0  0  0  0  0  0  0  0  0
    0.8440   60.9300   71.5920 F   0  0  0  0  0  0  0  0  0  0  0  0
    3.1930   61.0070   71.2920 C   0  0  0  0  0  0  0  0  0  0  0  0
    4.3380   61.7480   71.0190 C   0  0  0  0  0  0  0  0  0  0  0  0
    4.2350   63.1060   70.7350 C   0  0  0  0  0  0  0  0  0  0  0  0
    2.9910   63.7250   70.7310 C   0  0  0  0  0  0  0  0  0  0  0  0
    2.8930   65.0330   70.4610 F   0  0  0  0  0  0  0  0  0  0  0  0
    5.3370   63.8170   70.4620 F   0  0  0  0  0  0  0  0  0  0  0  0
    5.5420   61.1590   70.9980 F   0  0  0  0  0  0  0  0  0  0  0  0
    3.2770   59.1370   73.0440 C   0  0  0  0  0  0  0  0  0  0  0  0
    4.3010   59.0650   73.7050 O   0  0  0  0  0  0  0  0  0  0  0  0
    1.9640   58.8430   73.6370 C   0  0  0  0  0  0  0  0  0  0  0  0
    1.3490   59.8070   74.4480 C   0  0  0  0  0  0  0  0  0  0  0  0
    2.1380   61.3310   74.7210 Cl  0  0  0  0  0  0  0  0  0  0  0  0
    0.0930   59.5320   75.0160 C   0  0  0  0  0  0  0  0  0  0  0  0
   -0.6800   60.7200   76.0280 Cl  0  0  0  0  0  0  0  0  0  0  0  0
   -0.5360   58.2960   74.7660 C   0  0  0  0  0  0  0  0  0  0  0  0
    0.0910   57.3360   73.9450 C   0  0  0  0  0  0  0  0  0  0  0  0
    1.3460   57.6130   73.3770 C   0  0  0  0  0  0  0  0  0  0  0  0
    2.1430   56.4490   72.3620 Cl  0  0  0  0  0  0  0  0  0  0  0  0
   -0.6850   55.8100   73.6310 Cl  0  0  0  0  0  0  0  0  0  0  0  0
   -2.0910   57.9530   75.4720 Cl  0  0  0  0  0  0  0  0  0  0  0  0
  2  1  2  0
  4  3  1  0
  5  4  2  0
  6  5  1  0
  7  1  1  0
  7  5  1  0
  8  7  2  0
  9  8  1  0
 10  4  1  0
 10  9  2  0
 11 10  1  0
 12  9  1  0
 13  8  1  0
 14  1  1  0
 15 14  2  0
 16 14  1  0
 17 16  2  0
 18 17  1  0
 19 17  1  0
 20 19  1  0
 21 19  2  0
 22 21  1  0
 23 16  1  0
 23 22  2  0
 24 23  1  0
 25 22  1  0
 26 21  1  0
M  END
>  <score>  (4) 
-9.289

$$$$
=
     RDKit          3D

 26 27  0  0  0  0  0  0  0  0999 V2000
    3.3540   59.5530   71.5940 C   0  0  0  0  0  0  0  0  0  0  0  0
    3.4220   58.7350   70.6880 O   0  0  0  0  0  0  0  0  0  0  0  0
    5.3080   63.8260   70.4380 F   0  0  0  0  0  0  0  0  0  0  0  0
    4.2260   63.1010   70.7480 C   0  0  0  0  0  0  0  0  0  0  0  0
    4.3550   61.7410   71.0110 C   0  0  0  0  0  0  0  0  0  0  0  0
    5.5600   61.1620   70.9300 F   0  0  0  0  0  0  0  0  0  0  0  0
    3.2310   60.9840   71.3250 C   0  0  0  0  0  0  0  0  0  0  0  0
    1.9770   61.5870   71.3680 C   0  0  0  0  0  0  0  0  0  0  0  0
    1.8520   62.9470   71.1060 C   0  0  0  0  0  0  0  0  0  0  0  0
    2.9750   63.7040   70.7970 C   0  0  0  0  0  0  0  0  0  0  0  0
    2.8520   65.0140   70.5420 F   0  0  0  0  0  0  0  0  0  0  0  0
    0.6460   63.5290   71.1570 F   0  0  0  0  0  0  0  0  0  0  0  0
    0.8890   60.8730   71.6860 F   0  0  0  0  0  0  0  0  0  0  0  0
    3.3740   59.0780   73.0330 C   0  0  0  0  0  0  0  0  0  0  0  0
    4.4190   59.0120   73.6610 O   0  0  0  0  0  0  0  0  0  0  0  0
    2.0850   58.7490   73.6600 C   0  0  0  0  0  0  0  0  0  0  0  0
    1.4870   57.5120   73.3860 C   0  0  0  0  0  0  0  0  0  0  0  0
    2.2860   56.3860   72.3280 Cl  0  0  0  0  0  0  0  0  0  0  0  0
    0.2560   57.1920   73.9830 C   0  0  0  0  0  0  0  0  0  0  0  0
   -0.4980   55.6580   73.6470 Cl  0  0  0  0  0  0  0  0  0  0  0  0
   -0.3640   58.1130   74.8520 C   0  0  0  0  0  0  0  0  0  0  0  0
    0.2500   59.3520   75.1240 C   0  0  0  0  0  0  0  0  0  0  0  0
    1.4810   59.6700   74.5250 C   0  0  0  0  0  0  0  0  0  0  0  0
    2.2610   61.1910   74.8410 Cl  0  0  0  0  0  0  0  0  0  0  0  0
   -0.5110   60.4900   76.1990 Cl  0  0  0  0  0  0  0  0  0  0  0  0
   -1.8920   57.7180   75.5910 Cl  0  0  0  0  0  0  0  0  0  0  0  0
  2  1  2  0
  4  3  1  0
  5  4  2  0
  6  5  1  0
  7  1  1  0
  7  5  1  0
  8  7  2  0
  9  8  1  0
 10  4  1  0
 10  9  2  0
 11 10  1  0
 12  9  1  0
 13  8  1  0
 14  1  1  0
 15 14  2  0
 16 14  1  0
 17 16  2  0
 18 17  1  0
 19 17  1  0
 20 19  1  0
 21 19  2  0
 22 21  1  0
 23 16  1  0
 23 22  2  0
 24 23  1  0
 25 22  1  0
 26 21  1  0
M  END
>  <score>  (5) 
-9.289

$$$$
=
     RDKit          3D

 26 27  0  0  0  0  0  0  0  0999 V2000
    2.0510   61.0620   73.8200 C   0  0  0  0  0  0  0  0  0  0  0  0
    2.3100   61.2070   75.0060 O   0  0  0  0  0  0  0  0  0  0  0  0
    2.8470   64.5670   70.5800 F   0  0  0  0  0  0  0  0  0  0  0  0
    3.2440   63.4330   71.1710 C   0  0  0  0  0  0  0  0  0  0  0  0
    2.4540   62.8500   72.1560 C   0  0  0  0  0  0  0  0  0  0  0  0
    1.3100   63.4430   72.5230 F   0  0  0  0  0  0  0  0  0  0  0  0
    2.8690   61.6770   72.7770 C   0  0  0  0  0  0  0  0  0  0  0  0
    4.0790   61.0910   72.4170 C   0  0  0  0  0  0  0  0  0  0  0  0
    4.8650   61.6740   71.4290 C   0  0  0  0  0  0  0  0  0  0  0  0
    4.4490   62.8450   70.8060 C   0  0  0  0  0  0  0  0  0  0  0  0
    5.2100   63.4070   69.8580 F   0  0  0  0  0  0  0  0  0  0  0  0
    6.0260   61.1040   71.0760 F   0  0  0  0  0  0  0  0  0  0  0  0
    4.4820   59.9510   72.9940 F   0  0  0  0  0  0  0  0  0  0  0  0
    0.8670   60.2060   73.4130 C   0  0  0  0  0  0  0  0  0  0  0  0
    0.1230   60.5490   72.5080 O   0  0  0  0  0  0  0  0  0  0  0  0
    0.6800   58.9260   74.1110 C   0  0  0  0  0  0  0  0  0  0  0  0
   -0.1260   58.8840   75.2570 C   0  0  0  0  0  0  0  0  0  0  0  0
   -0.9010   60.3360   75.8170 Cl  0  0  0  0  0  0  0  0  0  0  0  0
   -0.3090   57.6630   75.9270 C   0  0  0  0  0  0  0  0  0  0  0  0
   -1.3060   57.5980   77.3540 Cl  0  0  0  0  0  0  0  0  0  0  0  0
    0.3140   56.4950   75.4430 C   0  0  0  0  0  0  0  0  0  0  0  0
    1.1180   56.5490   74.2870 C   0  0  0  0  0  0  0  0  0  0  0  0
    1.3010   57.7710   73.6180 C   0  0  0  0  0  0  0  0  0  0  0  0
    2.2870   57.8690   72.1910 Cl  0  0  0  0  0  0  0  0  0  0  0  0
    1.8870   55.1080   73.6850 Cl  0  0  0  0  0  0  0  0  0  0  0  0
    0.0900   54.9800   76.2760 Cl  0  0  0  0  0  0  0  0  0  0  0  0
  2  1  2  0
  4  3  1  0
  5  4  2  0
  6  5  1  0
  7  1  1  0
  7  5  1  0
  8  7  2  0
  9  8  1  0
 10  4  1  0
 10  9  2  0
 11 10  1  0
 12  9  1  0
 13  8  1  0
 14  1  1  0
 15 14  2  0
 16 14  1  0
 17 16  2  0
 18 17  1  0
 19 17  1  0
 20 19  1  0
 21 19  2  0
 22 21  1  0
 23 16  1  0
 23 22  2  0
 24 23  1  0
 25 22  1  0
 26 21  1  0
M  END
>  <score>  (6) 
-9.075

$$$$
=
     RDKit          3D

 26 27  0  0  0  0  0  0  0  0999 V2000
    2.0930   60.9870   73.8140 C   0  0  0  0  0  0  0  0  0  0  0  0
    2.3350   61.1140   75.0060 O   0  0  0  0  0  0  0  0  0  0  0  0
    6.0750   61.0710   71.0660 F   0  0  0  0  0  0  0  0  0  0  0  0
    4.9170   61.6350   71.4340 C   0  0  0  0  0  0  0  0  0  0  0  0
    4.1330   61.0350   72.4140 C   0  0  0  0  0  0  0  0  0  0  0  0
    4.5330   59.8820   72.9660 F   0  0  0  0  0  0  0  0  0  0  0  0
    2.9280   61.6150   72.7920 C   0  0  0  0  0  0  0  0  0  0  0  0
    2.5010   62.7920   72.1840 C   0  0  0  0  0  0  0  0  0  0  0  0
    3.2880   63.3910   71.2060 C   0  0  0  0  0  0  0  0  0  0  0  0
    4.4960   62.8140   70.8310 C   0  0  0  0  0  0  0  0  0  0  0  0
    5.2510   63.3910   69.8870 F   0  0  0  0  0  0  0  0  0  0  0  0
    2.8820   64.5300   70.6270 F   0  0  0  0  0  0  0  0  0  0  0  0
    1.3500   63.3710   72.5510 F   0  0  0  0  0  0  0  0  0  0  0  0
    0.9130   60.1410   73.3780 C   0  0  0  0  0  0  0  0  0  0  0  0
    0.1810   60.5010   72.4700 O   0  0  0  0  0  0  0  0  0  0  0  0
    0.7130   58.8500   74.0530 C   0  0  0  0  0  0  0  0  0  0  0  0
   -0.0950   58.7940   75.1960 C   0  0  0  0  0  0  0  0  0  0  0  0
   -0.8590   60.2420   75.7820 Cl  0  0  0  0  0  0  0  0  0  0  0  0
   -0.2900   57.5620   75.8450 C   0  0  0  0  0  0  0  0  0  0  0  0
   -1.2900   57.4800   77.2680 Cl  0  0  0  0  0  0  0  0  0  0  0  0
    0.3250   56.3980   75.3410 C   0  0  0  0  0  0  0  0  0  0  0  0
    1.1320   56.4670   74.1870 C   0  0  0  0  0  0  0  0  0  0  0  0
    1.3260   57.7000   73.5400 C   0  0  0  0  0  0  0  0  0  0  0  0
    2.3160   57.8150   72.1170 Cl  0  0  0  0  0  0  0  0  0  0  0  0
    1.8900   55.0300   73.5610 Cl  0  0  0  0  0  0  0  0  0  0  0  0
    0.0870   54.8710   76.1460 Cl  0  0  0  0  0  0  0  0  0  0  0  0
  2  1  2  0
  4  3  1  0
  5  4  2  0
  6  5  1  0
  7  1  1  0
  7  5  1  0
  8  7  2  0
  9  8  1  0
 10  4  1  0
 10  9  2  0
 11 10  1  0
 12  9  1  0
 13  8  1  0
 14  1  1  0
 15 14  2  0
 16 14  1  0
 17 16  2  0
 18 17  1  0
 19 17  1  0
 20 19  1  0
 21 19  2  0
 22 21  1  0
 23 16  1  0
 23 22  2  0
 24 23  1  0
 25 22  1  0
 26 21  1  0
M  END
>  <score>  (7) 
-9.055

$$$$
=
     RDKit          3D

 26 27  0  0  0  0  0  0  0  0999 V2000
    1.9600   61.2630   73.7930 C   0  0  0  0  0  0  0  0  0  0  0  0
    2.1620   61.4500   74.9850 O   0  0  0  0  0  0  0  0  0  0  0  0
    6.0540   61.2420   71.2140 F   0  0  0  0  0  0  0  0  0  0  0  0
    4.8750   61.8100   71.4980 C   0  0  0  0  0  0  0  0  0  0  0  0
    4.0580   61.2570   72.4790 C   0  0  0  0  0  0  0  0  0  0  0  0
    4.4490   60.1470   73.1170 F   0  0  0  0  0  0  0  0  0  0  0  0
    2.8300   61.8410   72.7700 C   0  0  0  0  0  0  0  0  0  0  0  0
    2.4150   62.9720   72.0740 C   0  0  0  0  0  0  0  0  0  0  0  0
    3.2350   63.5230   71.0950 C   0  0  0  0  0  0  0  0  0  0  0  0
    4.4650   62.9430   70.8070 C   0  0  0  0  0  0  0  0  0  0  0  0
    5.2520   63.4730   69.8610 F   0  0  0  0  0  0  0  0  0  0  0  0
    2.8400   64.6180   70.4310 F   0  0  0  0  0  0  0  0  0  0  0  0
    1.2420   63.5540   72.3570 F   0  0  0  0  0  0  0  0  0  0  0  0
    0.7960   60.3950   73.3600 C   0  0  0  0  0  0  0  0  0  0  0  0
    0.0530   60.7430   72.4560 O   0  0  0  0  0  0  0  0  0  0  0  0
    0.6250   59.0990   74.0320 C   0  0  0  0  0  0  0  0  0  0  0  0
    1.2800   57.9710   73.5190 C   0  0  0  0  0  0  0  0  0  0  0  0
    2.2920   58.1290   72.1150 Cl  0  0  0  0  0  0  0  0  0  0  0  0
    1.1210   56.7300   74.1590 C   0  0  0  0  0  0  0  0  0  0  0  0
    1.9270   55.3200   73.5290 Cl  0  0  0  0  0  0  0  0  0  0  0  0
    0.3100   56.6300   75.3080 C   0  0  0  0  0  0  0  0  0  0  0  0
   -0.3390   57.7730   75.8170 C   0  0  0  0  0  0  0  0  0  0  0  0
   -0.1790   59.0130   75.1750 C   0  0  0  0  0  0  0  0  0  0  0  0
   -0.9680   60.4380   75.7800 Cl  0  0  0  0  0  0  0  0  0  0  0  0
   -1.3390   57.6530   77.2370 Cl  0  0  0  0  0  0  0  0  0  0  0  0
    0.1100   55.0910   76.1000 Cl  0  0  0  0  0  0  0  0  0  0  0  0
  2  1  2  0
  4  3  1  0
  5  4  2  0
  6  5  1  0
  7  1  1  0
  7  5  1  0
  8  7  2  0
  9  8  1  0
 10  4  1  0
 10  9  2  0
 11 10  1  0
 12  9  1  0
 13  8  1  0
 14  1  1  0
 15 14  2  0
 16 14  1  0
 17 16  2  0
 18 17  1  0
 19 17  1  0
 20 19  1  0
 21 19  2  0
 22 21  1  0
 23 16  1  0
 23 22  2  0
 24 23  1  0
 25 22  1  0
 26 21  1  0
M  END
>  <score>  (8) 
-9.052

$$$$
=
     RDKit          3D

 26 27  0  0  0  0  0  0  0  0999 V2000
    2.6420   60.6810   73.1460 C   0  0  0  0  0  0  0  0  0  0  0  0
    3.3980   60.6920   74.1070 O   0  0  0  0  0  0  0  0  0  0  0  0
    2.7110   64.5990   70.3060 F   0  0  0  0  0  0  0  0  0  0  0  0
    3.0140   63.3080   70.4950 C   0  0  0  0  0  0  0  0  0  0  0  0
    2.6700   62.6830   71.6900 C   0  0  0  0  0  0  0  0  0  0  0  0
    2.0580   63.3850   72.6520 F   0  0  0  0  0  0  0  0  0  0  0  0
    2.9910   61.3450   71.8910 C   0  0  0  0  0  0  0  0  0  0  0  0
    3.6620   60.6340   70.9010 C   0  0  0  0  0  0  0  0  0  0  0  0
    4.0020   61.2610   69.7070 C   0  0  0  0  0  0  0  0  0  0  0  0
    3.6780   62.5970   69.5030 C   0  0  0  0  0  0  0  0  0  0  0  0
    4.0090   63.2000   68.3540 F   0  0  0  0  0  0  0  0  0  0  0  0
    4.6400   60.5740   68.7500 F   0  0  0  0  0  0  0  0  0  0  0  0
    3.9610   59.3400   71.0750 F   0  0  0  0  0  0  0  0  0  0  0  0
    1.3210   59.9440   73.2430 C   0  0  0  0  0  0  0  0  0  0  0  0
    0.3590   60.2850   72.5740 O   0  0  0  0  0  0  0  0  0  0  0  0
    1.2570   58.7740   74.1310 C   0  0  0  0  0  0  0  0  0  0  0  0
    1.6240   57.5170   73.6340 C   0  0  0  0  0  0  0  0  0  0  0  0
    2.1630   57.3670   71.9880 Cl  0  0  0  0  0  0  0  0  0  0  0  0
    1.5650   56.3960   74.4790 C   0  0  0  0  0  0  0  0  0  0  0  0
    2.0150   54.8270   73.8720 Cl  0  0  0  0  0  0  0  0  0  0  0  0
    1.1430   56.5450   75.8160 C   0  0  0  0  0  0  0  0  0  0  0  0
    0.7810   57.8160   76.3050 C   0  0  0  0  0  0  0  0  0  0  0  0
    0.8400   58.9360   75.4580 C   0  0  0  0  0  0  0  0  0  0  0  0
    0.3990   60.5150   76.0350 Cl  0  0  0  0  0  0  0  0  0  0  0  0
    0.2610   58.0040   77.9560 Cl  0  0  0  0  0  0  0  0  0  0  0  0
    1.0670   55.1550   76.8640 Cl  0  0  0  0  0  0  0  0  0  0  0  0
  2  1  2  0
  4  3  1  0
  5  4  2  0
  6  5  1  0
  7  1  1  0
  7  5  1  0
  8  7  2  0
  9  8  1  0
 10  4  1  0
 10  9  2  0
 11 10  1  0
 12  9  1  0
 13  8  1  0
 14  1  1  0
 15 14  2  0
 16 14  1  0
 17 16  2  0
 18 17  1  0
 19 17  1  0
 20 19  1  0
 21 19  2  0
 22 21  1  0
 23 16  1  0
 23 22  2  0
 24 23  1  0
 25 22  1  0
 26 21  1  0
M  END
>  <score>  (9) 
-9.052

$$$$
