=
     RDKit          3D

 27 27  0  0  0  0  0  0  0  0999 V2000
    3.0300   69.3900   66.9270 C   0  0  0  0  0  0  0  0  0  0  0  0
    2.7000   69.0060   65.6150 C   0  0  0  0  0  0  0  0  0  0  0  0
    3.6510   69.0630   64.5930 C   0  0  0  0  0  0  0  0  0  0  0  0
    4.9400   69.5060   64.8760 C   0  0  0  0  0  0  0  0  0  0  0  0
    5.2780   69.8980   66.1710 C   0  0  0  0  0  0  0  0  0  0  0  0
    4.3330   69.8440   67.1960 C   0  0  0  0  0  0  0  0  0  0  0  0
    6.5480   70.3290   66.4220 O   0  0  0  0  0  0  0  0  0  0  0  0
    5.8850   69.5660   63.8940 O   0  0  0  0  0  0  0  0  0  0  0  0
    2.0120   69.3000   68.0420 C   0  0  1  0  0  0  0  0  0  0  0  0
    1.6400   70.6110   68.4670 O   0  0  0  0  0  0  0  0  0  0  0  0
    0.7560   68.5150   67.5950 C   0  0  0  0  0  0  0  0  0  0  0  0
    1.1470   66.8840   69.5080 C   0  0  0  0  0  0  0  0  0  0  0  0
    0.7560   67.0840   68.0820 N   0  0  0  0  0  4  0  0  0  0  0  0
    1.6813   68.6567   65.3908 H   0  0  0  0  0  0  0  0  0  0  0  0
    3.3826   68.7595   63.5703 H   0  0  0  0  0  0  0  0  0  0  0  0
    4.6074   70.1566   68.2143 H   0  0  0  0  0  0  0  0  0  0  0  0
    6.8036   70.6107   67.3360 H   0  0  0  0  0  0  0  0  0  0  0  0
    6.7990   69.8825   64.1052 H   0  0  0  0  0  0  0  0  0  0  0  0
    2.4722   68.7579   68.8813 H   0  0  0  0  0  0  0  0  0  0  0  0
    1.6299   70.6467   69.4563 H   0  0  0  0  0  0  0  0  0  0  0  0
   -0.1354   69.0218   67.9931 H   0  0  0  0  0  0  0  0  0  0  0  0
    0.7544   68.4908   66.4953 H   0  0  0  0  0  0  0  0  0  0  0  0
    0.3607   67.2862   70.1637 H   0  0  0  0  0  0  0  0  0  0  0  0
    1.2753   65.8096   69.7058 H   0  0  0  0  0  0  0  0  0  0  0  0
    2.0933   67.4088   69.7058 H   0  0  0  0  0  0  0  0  0  0  0  0
    1.4140   66.5506   67.4960 H   0  0  0  0  0  0  0  0  0  0  0  0
   -0.2207   66.7644   68.0120 H   0  0  0  0  0  0  0  0  0  0  0  0
  2  1  2  0
  3  2  1  0
  4  3  2  0
  5  4  1  0
  6  5  2  0
  6  1  1  0
  7  5  1  0
  8  4  1  0
  9  1  1  0
 10  9  1  0
 11  9  1  0
 13 12  1  0
 13 11  1  0
  2 14  1  0
  3 15  1  0
  6 16  1  0
  7 17  1  0
  8 18  1  0
  9 19  1  1
 10 20  1  0
 11 21  1  0
 11 22  1  0
 12 23  1  0
 12 24  1  0
 12 25  1  0
 13 26  1  0
 13 27  1  0
M  CHG  1  13   1
M  END
>  <score>  (1) 
-6.739

$$$$
=
     RDKit          3D

 27 27  0  0  0  0  0  0  0  0999 V2000
    2.6180   68.7200   66.2710 C   0  0  0  0  0  0  0  0  0  0  0  0
    3.8880   69.0350   65.7550 C   0  0  0  0  0  0  0  0  0  0  0  0
    4.8000   69.7800   66.5070 C   0  0  0  0  0  0  0  0  0  0  0  0
    4.4480   70.2160   67.7820 C   0  0  0  0  0  0  0  0  0  0  0  0
    3.1890   69.9170   68.3010 C   0  0  0  0  0  0  0  0  0  0  0  0
    2.2730   69.1750   67.5550 C   0  0  0  0  0  0  0  0  0  0  0  0
    2.8670   70.3570   69.5530 O   0  0  0  0  0  0  0  0  0  0  0  0
    5.3240   70.9420   68.5340 O   0  0  0  0  0  0  0  0  0  0  0  0
    1.6400   67.8870   65.4720 C   0  0  1  0  0  0  0  0  0  0  0  0
    1.9320   66.5000   65.6440 O   0  0  0  0  0  0  0  0  0  0  0  0
    0.1800   68.1740   65.8940 C   0  0  0  0  0  0  0  0  0  0  0  0
   -1.7760   67.2530   67.2350 C   0  0  0  0  0  0  0  0  0  0  0  0
   -0.4910   66.9780   66.5300 N   0  0  0  0  0  4  0  0  0  0  0  0
    4.1664   68.6909   64.7480 H   0  0  0  0  0  0  0  0  0  0  0  0
    5.7907   70.0209   66.0942 H   0  0  0  0  0  0  0  0  0  0  0  0
    1.2810   68.9462   67.9717 H   0  0  0  0  0  0  0  0  0  0  0  0
    1.9771   70.1530   69.9357 H   0  0  0  0  0  0  0  0  0  0  0  0
    5.0644   71.2474   69.4392 H   0  0  0  0  0  0  0  0  0  0  0  0
    1.7471   68.1578   64.4112 H   0  0  0  0  0  0  0  0  0  0  0  0
    1.9763   66.2895   66.6103 H   0  0  0  0  0  0  0  0  0  0  0  0
    0.1795   69.0031   66.6169 H   0  0  0  0  0  0  0  0  0  0  0  0
   -0.3846   68.4260   64.9842 H   0  0  0  0  0  0  0  0  0  0  0  0
   -1.6125   67.2180   68.3222 H   0  0  0  0  0  0  0  0  0  0  0  0
   -2.1437   68.2502   66.9514 H   0  0  0  0  0  0  0  0  0  0  0  0
   -2.5196   66.4937   66.9514 H   0  0  0  0  0  0  0  0  0  0  0  0
    0.1647   66.5746   67.2143 H   0  0  0  0  0  0  0  0  0  0  0  0
   -0.7283   66.3447   65.7531 H   0  0  0  0  0  0  0  0  0  0  0  0
  2  1  2  0
  3  2  1  0
  4  3  2  0
  5  4  1  0
  6  5  2  0
  6  1  1  0
  7  5  1  0
  8  4  1  0
  9  1  1  0
 10  9  1  0
 11  9  1  0
 13 12  1  0
 13 11  1  0
  2 14  1  0
  3 15  1  0
  6 16  1  0
  7 17  1  0
  8 18  1  0
  9 19  1  6
 10 20  1  0
 11 21  1  0
 11 22  1  0
 12 23  1  0
 12 24  1  0
 12 25  1  0
 13 26  1  0
 13 27  1  0
M  CHG  1  13   1
M  END
>  <score>  (2) 
-6.659

$$$$
=
     RDKit          3D

 27 27  0  0  0  0  0  0  0  0999 V2000
    3.1660   69.6970   67.7200 C   0  0  0  0  0  0  0  0  0  0  0  0
    3.9670   70.3010   68.7060 C   0  0  0  0  0  0  0  0  0  0  0  0
    5.2990   70.6300   68.4400 C   0  0  0  0  0  0  0  0  0  0  0  0
    5.8380   70.3580   67.1860 C   0  0  0  0  0  0  0  0  0  0  0  0
    5.0570   69.7530   66.2030 C   0  0  0  0  0  0  0  0  0  0  0  0
    3.7270   69.4200   66.4620 C   0  0  0  0  0  0  0  0  0  0  0  0
    5.6100   69.4960   64.9820 O   0  0  0  0  0  0  0  0  0  0  0  0
    7.1360   70.6750   66.9050 O   0  0  0  0  0  0  0  0  0  0  0  0
    1.7150   69.3680   67.9930 C   0  0  1  0  0  0  0  0  0  0  0  0
    1.0080   70.5550   68.3510 O   0  0  0  0  0  0  0  0  0  0  0  0
    1.0460   68.7080   66.7650 C   0  0  0  0  0  0  0  0  0  0  0  0
   -0.9380   67.1820   67.2190 C   0  0  0  0  0  0  0  0  0  0  0  0
    0.5390   67.3140   67.0530 N   0  0  0  0  0  4  0  0  0  0  0  0
    3.5405   70.5166   69.6968 H   0  0  0  0  0  0  0  0  0  0  0  0
    5.9180   71.1014   69.2176 H   0  0  0  0  0  0  0  0  0  0  0  0
    3.1179   68.9407   65.6815 H   0  0  0  0  0  0  0  0  0  0  0  0
    5.0679   69.0667   64.2735 H   0  0  0  0  0  0  0  0  0  0  0  0
    7.5111   70.4779   66.0103 H   0  0  0  0  0  0  0  0  0  0  0  0
    1.6790   68.6512   68.8266 H   0  0  0  0  0  0  0  0  0  0  0  0
    0.9643   70.6283   69.3373 H   0  0  0  0  0  0  0  0  0  0  0  0
    0.1972   69.3324   66.4493 H   0  0  0  0  0  0  0  0  0  0  0  0
    1.8085   68.6267   65.9763 H   0  0  0  0  0  0  0  0  0  0  0  0
   -1.1860   67.1598   68.2904 H   0  0  0  0  0  0  0  0  0  0  0  0
   -1.4384   68.0390   66.7445 H   0  0  0  0  0  0  0  0  0  0  0  0
   -1.2785   66.2498   66.7445 H   0  0  0  0  0  0  0  0  0  0  0  0
    0.9851   66.9888   67.9225 H   0  0  0  0  0  0  0  0  0  0  0  0
    0.7788   66.7521   66.2238 H   0  0  0  0  0  0  0  0  0  0  0  0
  2  1  2  0
  3  2  1  0
  4  3  2  0
  5  4  1  0
  6  5  2  0
  6  1  1  0
  7  5  1  0
  8  4  1  0
  9  1  1  0
 10  9  1  0
 11  9  1  0
 13 12  1  0
 13 11  1  0
  2 14  1  0
  3 15  1  0
  6 16  1  0
  7 17  1  0
  8 18  1  0
  9 19  1  1
 10 20  1  0
 11 21  1  0
 11 22  1  0
 12 23  1  0
 12 24  1  0
 12 25  1  0
 13 26  1  0
 13 27  1  0
M  CHG  1  13   1
M  END
>  <score>  (3) 
-6.653

$$$$
=
     RDKit          3D

 27 27  0  0  0  0  0  0  0  0999 V2000
    4.2250   69.4300   65.6100 C   0  0  0  0  0  0  0  0  0  0  0  0
    2.9220   69.1420   66.0570 C   0  0  0  0  0  0  0  0  0  0  0  0
    2.5440   69.4050   67.3760 C   0  0  0  0  0  0  0  0  0  0  0  0
    3.4670   69.9590   68.2580 C   0  0  0  0  0  0  0  0  0  0  0  0
    4.7640   70.2420   67.8310 C   0  0  0  0  0  0  0  0  0  0  0  0
    5.1480   69.9800   66.5160 C   0  0  0  0  0  0  0  0  0  0  0  0
    5.6500   70.7840   68.7170 O   0  0  0  0  0  0  0  0  0  0  0  0
    3.1180   70.2280   69.5500 O   0  0  0  0  0  0  0  0  0  0  0  0
    4.6280   69.1750   64.1750 C   0  0  1  0  0  0  0  0  0  0  0  0
    5.9020   69.7650   63.9180 O   0  0  0  0  0  0  0  0  0  0  0  0
    4.6760   67.6610   63.8640 C   0  0  0  0  0  0  0  0  0  0  0  0
    3.0570   68.3470   62.0260 C   0  0  0  0  0  0  0  0  0  0  0  0
    3.9730   67.3060   62.5750 N   0  0  0  0  0  4  0  0  0  0  0  0
    2.1925   68.7046   65.3595 H   0  0  0  0  0  0  0  0  0  0  0  0
    1.5231   69.1756   67.7153 H   0  0  0  0  0  0  0  0  0  0  0  0
    6.1737   70.2039   66.1878 H   0  0  0  0  0  0  0  0  0  0  0  0
    6.5744   70.9905   68.4290 H   0  0  0  0  0  0  0  0  0  0  0  0
    3.7815   70.6221   70.1701 H   0  0  0  0  0  0  0  0  0  0  0  0
    3.8710   69.6324   63.5209 H   0  0  0  0  0  0  0  0  0  0  0  0
    6.3491   69.9720   64.7767 H   0  0  0  0  0  0  0  0  0  0  0  0
    5.7287   67.3511   63.7872 H   0  0  0  0  0  0  0  0  0  0  0  0
    4.1555   67.1384   64.6801 H   0  0  0  0  0  0  0  0  0  0  0  0
    2.5796   68.8896   62.8553 H   0  0  0  0  0  0  0  0  0  0  0  0
    3.6322   69.0529   61.4089 H   0  0  0  0  0  0  0  0  0  0  0  0
    2.2836   67.8663   61.4089 H   0  0  0  0  0  0  0  0  0  0  0  0
    3.4189   66.4539   62.7418 H   0  0  0  0  0  0  0  0  0  0  0  0
    4.7180   67.1913   61.8730 H   0  0  0  0  0  0  0  0  0  0  0  0
  2  1  2  0
  3  2  1  0
  4  3  2  0
  5  4  1  0
  6  5  2  0
  6  1  1  0
  7  5  1  0
  8  4  1  0
  9  1  1  0
 10  9  1  0
 11  9  1  0
 13 12  1  0
 13 11  1  0
  2 14  1  0
  3 15  1  0
  6 16  1  0
  7 17  1  0
  8 18  1  0
  9 19  1  6
 10 20  1  0
 11 21  1  0
 11 22  1  0
 12 23  1  0
 12 24  1  0
 12 25  1  0
 13 26  1  0
 13 27  1  0
M  CHG  1  13   1
M  END
>  <score>  (4) 
-6.631

$$$$
=
     RDKit          3D

 27 27  0  0  0  0  0  0  0  0999 V2000
    2.6640   68.8780   65.5230 C   0  0  0  0  0  0  0  0  0  0  0  0
    3.0240   69.2740   66.8240 C   0  0  0  0  0  0  0  0  0  0  0  0
    4.2940   69.7940   67.0870 C   0  0  0  0  0  0  0  0  0  0  0  0
    5.2140   69.9220   66.0490 C   0  0  0  0  0  0  0  0  0  0  0  0
    4.8720   69.5250   64.7570 C   0  0  0  0  0  0  0  0  0  0  0  0
    3.6060   69.0040   64.4880 C   0  0  0  0  0  0  0  0  0  0  0  0
    5.7920   69.6600   63.7580 O   0  0  0  0  0  0  0  0  0  0  0  0
    6.4580   70.4300   66.2830 O   0  0  0  0  0  0  0  0  0  0  0  0
    1.2800   68.3440   65.2290 C   0  0  1  0  0  0  0  0  0  0  0  0
    1.3500   66.9480   64.9400 O   0  0  0  0  0  0  0  0  0  0  0  0
    0.3190   68.5880   66.4160 C   0  0  0  0  0  0  0  0  0  0  0  0
   -1.5080   67.0780   67.3410 C   0  0  0  0  0  0  0  0  0  0  0  0
   -1.0310   67.9380   66.2190 N   0  0  0  0  0  4  0  0  0  0  0  0
    2.2974   69.1731   67.6437 H   0  0  0  0  0  0  0  0  0  0  0  0
    4.5657   70.1005   68.1079 H   0  0  0  0  0  0  0  0  0  0  0  0
    3.3453   68.6919   63.4659 H   0  0  0  0  0  0  0  0  0  0  0  0
    5.5649   69.3828   62.8351 H   0  0  0  0  0  0  0  0  0  0  0  0
    7.1051   70.5172   65.5389 H   0  0  0  0  0  0  0  0  0  0  0  0
    0.8852   68.8820   64.3545 H   0  0  0  0  0  0  0  0  0  0  0  0
    1.3756   66.4365   65.7872 H   0  0  0  0  0  0  0  0  0  0  0  0
    0.7765   68.1785   67.3287 H   0  0  0  0  0  0  0  0  0  0  0  0
    0.1563   69.6732   66.4930 H   0  0  0  0  0  0  0  0  0  0  0  0
   -1.2469   67.5487   68.3003 H   0  0  0  0  0  0  0  0  0  0  0  0
   -2.5998   66.9613   67.2749 H   0  0  0  0  0  0  0  0  0  0  0  0
   -1.0289   66.0900   67.2749 H   0  0  0  0  0  0  0  0  0  0  0  0
   -0.9796   67.3533   65.3726 H   0  0  0  0  0  0  0  0  0  0  0  0
   -1.7071   68.7122   66.1533 H   0  0  0  0  0  0  0  0  0  0  0  0
  2  1  2  0
  3  2  1  0
  4  3  2  0
  5  4  1  0
  6  5  2  0
  6  1  1  0
  7  5  1  0
  8  4  1  0
  9  1  1  0
 10  9  1  0
 11  9  1  0
 13 12  1  0
 13 11  1  0
  2 14  1  0
  3 15  1  0
  6 16  1  0
  7 17  1  0
  8 18  1  0
  9 19  1  6
 10 20  1  0
 11 21  1  0
 11 22  1  0
 12 23  1  0
 12 24  1  0
 12 25  1  0
 13 26  1  0
 13 27  1  0
M  CHG  1  13   1
M  END
>  <score>  (5) 
-6.42

$$$$
=
     RDKit          3D

 27 27  0  0  0  0  0  0  0  0999 V2000
    3.9060   69.3180   66.0010 C   0  0  0  0  0  0  0  0  0  0  0  0
    5.2570   69.7060   66.0680 C   0  0  0  0  0  0  0  0  0  0  0  0
    5.7860   70.2540   67.2400 C   0  0  0  0  0  0  0  0  0  0  0  0
    4.9660   70.4180   68.3530 C   0  0  0  0  0  0  0  0  0  0  0  0
    3.6240   70.0460   68.2970 C   0  0  0  0  0  0  0  0  0  0  0  0
    3.0900   69.4990   67.1300 C   0  0  0  0  0  0  0  0  0  0  0  0
    2.8420   70.2180   69.4030 O   0  0  0  0  0  0  0  0  0  0  0  0
    5.4630   70.9490   69.5080 O   0  0  0  0  0  0  0  0  0  0  0  0
    3.3390   68.6950   64.7450 C   0  0  1  0  0  0  0  0  0  0  0  0
    1.9920   69.1270   64.5560 O   0  0  0  0  0  0  0  0  0  0  0  0
    4.1880   69.0590   63.5040 C   0  0  0  0  0  0  0  0  0  0  0  0
    3.0950   68.7200   61.2320 C   0  0  0  0  0  0  0  0  0  0  0  0
    3.9260   68.1450   62.3290 N   0  0  0  0  0  4  0  0  0  0  0  0
    5.9042   69.5766   65.1880 H   0  0  0  0  0  0  0  0  0  0  0  0
    6.8435   70.5538   67.2826 H   0  0  0  0  0  0  0  0  0  0  0  0
    2.0294   69.2093   67.0939 H   0  0  0  0  0  0  0  0  0  0  0  0
    1.8869   69.9587   69.3791 H   0  0  0  0  0  0  0  0  0  0  0  0
    4.8729   71.0622   70.2948 H   0  0  0  0  0  0  0  0  0  0  0  0
    3.3622   67.6018   64.8648 H   0  0  0  0  0  0  0  0  0  0  0  0
    1.5628   69.2646   65.4375 H   0  0  0  0  0  0  0  0  0  0  0  0
    3.9515   70.0912   63.2064 H   0  0  0  0  0  0  0  0  0  0  0  0
    5.2466   68.9478   63.7816 H   0  0  0  0  0  0  0  0  0  0  0  0
    2.2635   69.2954   61.6650 H   0  0  0  0  0  0  0  0  0  0  0  0
    3.7154   69.3829   60.6110 H   0  0  0  0  0  0  0  0  0  0  0  0
    2.6933   67.9058   60.6110 H   0  0  0  0  0  0  0  0  0  0  0  0
    3.4454   67.3055   62.6827 H   0  0  0  0  0  0  0  0  0  0  0  0
    4.8481   67.9551   61.9113 H   0  0  0  0  0  0  0  0  0  0  0  0
  2  1  2  0
  3  2  1  0
  4  3  2  0
  5  4  1  0
  6  5  2  0
  6  1  1  0
  7  5  1  0
  8  4  1  0
  9  1  1  0
 10  9  1  0
 11  9  1  0
 13 12  1  0
 13 11  1  0
  2 14  1  0
  3 15  1  0
  6 16  1  0
  7 17  1  0
  8 18  1  0
  9 19  1  1
 10 20  1  0
 11 21  1  0
 11 22  1  0
 12 23  1  0
 12 24  1  0
 12 25  1  0
 13 26  1  0
 13 27  1  0
M  CHG  1  13   1
M  END
>  <score>  (6) 
-6.406

$$$$
=
     RDKit          3D

 27 27  0  0  0  0  0  0  0  0999 V2000
    2.5850   68.3970   64.5180 C   0  0  0  0  0  0  0  0  0  0  0  0
    3.6740   69.1470   64.9990 C   0  0  0  0  0  0  0  0  0  0  0  0
    4.7960   69.3710   64.1970 C   0  0  0  0  0  0  0  0  0  0  0  0
    4.8370   68.8470   62.9080 C   0  0  0  0  0  0  0  0  0  0  0  0
    3.7670   68.0950   62.4230 C   0  0  0  0  0  0  0  0  0  0  0  0
    2.6440   67.8670   63.2180 C   0  0  0  0  0  0  0  0  0  0  0  0
    3.8320   67.5920   61.1560 O   0  0  0  0  0  0  0  0  0  0  0  0
    5.9210   69.0570   62.1070 O   0  0  0  0  0  0  0  0  0  0  0  0
    1.3560   68.1800   65.3720 C   0  0  1  0  0  0  0  0  0  0  0  0
    0.9910   66.8000   65.3530 O   0  0  0  0  0  0  0  0  0  0  0  0
    1.5930   68.6420   66.8290 C   0  0  0  0  0  0  0  0  0  0  0  0
    1.0260   67.2410   68.8760 C   0  0  0  0  0  0  0  0  0  0  0  0
    0.5380   68.1320   67.7830 N   0  0  0  0  0  4  0  0  0  0  0  0
    3.6417   69.5615   66.0174 H   0  0  0  0  0  0  0  0  0  0  0  0
    5.6425   69.9584   64.5822 H   0  0  0  0  0  0  0  0  0  0  0  0
    1.8049   67.2725   62.8275 H   0  0  0  0  0  0  0  0  0  0  0  0
    3.0809   67.0563   60.7970 H   0  0  0  0  0  0  0  0  0  0  0  0
    5.9406   68.6801   61.1918 H   0  0  0  0  0  0  0  0  0  0  0  0
    0.5379   68.7841   64.9528 H   0  0  0  0  0  0  0  0  0  0  0  0
    0.9035   66.4690   66.2819 H   0  0  0  0  0  0  0  0  0  0  0  0
    2.5747   68.2721   67.1599 H   0  0  0  0  0  0  0  0  0  0  0  0
    1.5467   69.7410   66.8401 H   0  0  0  0  0  0  0  0  0  0  0  0
    0.7810   67.6883   69.8506 H   0  0  0  0  0  0  0  0  0  0  0  0
    0.5406   66.2575   68.7916 H   0  0  0  0  0  0  0  0  0  0  0  0
    2.1161   67.1204   68.7916 H   0  0  0  0  0  0  0  0  0  0  0  0
   -0.1571   67.6066   67.2338 H   0  0  0  0  0  0  0  0  0  0  0  0
    0.1580   68.9668   68.2517 H   0  0  0  0  0  0  0  0  0  0  0  0
  2  1  2  0
  3  2  1  0
  4  3  2  0
  5  4  1  0
  6  5  2  0
  6  1  1  0
  7  5  1  0
  8  4  1  0
  9  1  1  0
 10  9  1  0
 11  9  1  0
 13 12  1  0
 13 11  1  0
  2 14  1  0
  3 15  1  0
  6 16  1  0
  7 17  1  0
  8 18  1  0
  9 19  1  6
 10 20  1  0
 11 21  1  0
 11 22  1  0
 12 23  1  0
 12 24  1  0
 12 25  1  0
 13 26  1  0
 13 27  1  0
M  CHG  1  13   1
M  END
>  <score>  (7) 
-5.944

$$$$
=
     RDKit          3D

 27 27  0  0  0  0  0  0  0  0999 V2000
    0.0510   67.8040   67.4920 C   0  0  0  0  0  0  0  0  0  0  0  0
    0.3940   68.3470   66.2410 C   0  0  0  0  0  0  0  0  0  0  0  0
   -0.5950   68.7720   65.3510 C   0  0  0  0  0  0  0  0  0  0  0  0
   -1.9360   68.6590   65.7070 C   0  0  0  0  0  0  0  0  0  0  0  0
   -2.2900   68.1150   66.9410 C   0  0  0  0  0  0  0  0  0  0  0  0
   -1.3070   67.6870   67.8340 C   0  0  0  0  0  0  0  0  0  0  0  0
   -3.6120   68.0140   67.2660 O   0  0  0  0  0  0  0  0  0  0  0  0
   -2.9180   69.0720   64.8550 O   0  0  0  0  0  0  0  0  0  0  0  0
    1.1200   67.3710   68.4710 C   0  0  1  0  0  0  0  0  0  0  0  0
    1.7810   68.5180   69.0060 O   0  0  0  0  0  0  0  0  0  0  0  0
    0.5220   66.5240   69.6190 C   0  0  0  0  0  0  0  0  0  0  0  0
    0.8450   64.4450   71.0480 C   0  0  0  0  0  0  0  0  0  0  0  0
    1.3710   65.3230   69.9630 N   0  0  0  0  0  4  0  0  0  0  0  0
    1.4536   68.4381   65.9601 H   0  0  0  0  0  0  0  0  0  0  0  0
   -0.3158   69.1937   64.3742 H   0  0  0  0  0  0  0  0  0  0  0  0
   -1.5949   67.2582   68.8052 H   0  0  0  0  0  0  0  0  0  0  0  0
   -3.8793   67.6300   68.1384 H   0  0  0  0  0  0  0  0  0  0  0  0
   -3.8688   68.9874   65.1174 H   0  0  0  0  0  0  0  0  0  0  0  0
    1.8461   66.7466   67.9299 H   0  0  0  0  0  0  0  0  0  0  0  0
    1.7591   68.4801   69.9950 H   0  0  0  0  0  0  0  0  0  0  0  0
    0.4312   67.1581   70.5132 H   0  0  0  0  0  0  0  0  0  0  0  0
   -0.4568   66.1523   69.2816 H   0  0  0  0  0  0  0  0  0  0  0  0
    1.1034   64.8763   72.0264 H   0  0  0  0  0  0  0  0  0  0  0  0
   -0.2486   64.3672   70.9589 H   0  0  0  0  0  0  0  0  0  0  0  0
    1.2923   63.4440   70.9589 H   0  0  0  0  0  0  0  0  0  0  0  0
    2.2980   65.6645   70.2544 H   0  0  0  0  0  0  0  0  0  0  0  0
    1.3869   64.7396   69.1143 H   0  0  0  0  0  0  0  0  0  0  0  0
  2  1  2  0
  3  2  1  0
  4  3  2  0
  5  4  1  0
  6  5  2  0
  6  1  1  0
  7  5  1  0
  8  4  1  0
  9  1  1  0
 10  9  1  0
 11  9  1  0
 13 12  1  0
 13 11  1  0
  2 14  1  0
  3 15  1  0
  6 16  1  0
  7 17  1  0
  8 18  1  0
  9 19  1  6
 10 20  1  0
 11 21  1  0
 11 22  1  0
 12 23  1  0
 12 24  1  0
 12 25  1  0
 13 26  1  0
 13 27  1  0
M  CHG  1  13   1
M  END
>  <score>  (8) 
-5.928

$$$$
=
     RDKit          3D

 27 27  0  0  0  0  0  0  0  0999 V2000
    3.5880   61.8620   70.4360 C   0  0  0  0  0  0  0  0  0  0  0  0
    3.6440   61.8090   71.8410 C   0  0  0  0  0  0  0  0  0  0  0  0
    3.7380   60.5830   72.5060 C   0  0  0  0  0  0  0  0  0  0  0  0
    3.7770   59.4020   71.7700 C   0  0  0  0  0  0  0  0  0  0  0  0
    3.7140   59.4420   70.3780 C   0  0  0  0  0  0  0  0  0  0  0  0
    3.6190   60.6610   69.7080 C   0  0  0  0  0  0  0  0  0  0  0  0
    3.7530   58.2690   69.6800 O   0  0  0  0  0  0  0  0  0  0  0  0
    3.8730   58.1950   72.3990 O   0  0  0  0  0  0  0  0  0  0  0  0
    3.5180   63.1880   69.7130 C   0  0  1  0  0  0  0  0  0  0  0  0
    3.2360   62.9720   68.3300 O   0  0  0  0  0  0  0  0  0  0  0  0
    2.4400   64.1110   70.3300 C   0  0  0  0  0  0  0  0  0  0  0  0
    0.1990   63.3280   71.2450 C   0  0  0  0  0  0  0  0  0  0  0  0
    1.0330   63.6370   70.0480 N   0  0  0  0  0  4  0  0  0  0  0  0
    3.6135   62.7423   72.4223 H   0  0  0  0  0  0  0  0  0  0  0  0
    3.7809   60.5516   73.6047 H   0  0  0  0  0  0  0  0  0  0  0  0
    3.5683   60.6823   68.6094 H   0  0  0  0  0  0  0  0  0  0  0  0
    3.7093   58.2798   68.6910 H   0  0  0  0  0  0  0  0  0  0  0  0
    3.9001   57.3604   71.8672 H   0  0  0  0  0  0  0  0  0  0  0  0
    4.4937   63.6850   69.8185 H   0  0  0  0  0  0  0  0  0  0  0  0
    2.4531   62.3724   68.2426 H   0  0  0  0  0  0  0  0  0  0  0  0
    2.5879   64.1448   71.4195 H   0  0  0  0  0  0  0  0  0  0  0  0
    2.5530   65.1048   69.8721 H   0  0  0  0  0  0  0  0  0  0  0  0
    0.7745   63.5412   72.1578 H   0  0  0  0  0  0  0  0  0  0  0  0
   -0.7084   63.9496   71.2301 H   0  0  0  0  0  0  0  0  0  0  0  0
   -0.0843   62.2652   71.2301 H   0  0  0  0  0  0  0  0  0  0  0  0
    1.0962   62.7816   69.4778 H   0  0  0  0  0  0  0  0  0  0  0  0
    0.5632   64.4224   69.5754 H   0  0  0  0  0  0  0  0  0  0  0  0
  2  1  2  0
  3  2  1  0
  4  3  2  0
  5  4  1  0
  6  5  2  0
  6  1  1  0
  7  5  1  0
  8  4  1  0
  9  1  1  0
 10  9  1  0
 11  9  1  0
 13 12  1  0
 13 11  1  0
  2 14  1  0
  3 15  1  0
  6 16  1  0
  7 17  1  0
  8 18  1  0
  9 19  1  6
 10 20  1  0
 11 21  1  0
 11 22  1  0
 12 23  1  0
 12 24  1  0
 12 25  1  0
 13 26  1  0
 13 27  1  0
M  CHG  1  13   1
M  END
>  <score>  (9) 
-5.698

$$$$
