=
     RDKit          3D

 16 16  0  0  0  0  0  0  0  0999 V2000
    6.9070   70.9250   69.1510 C   0  0  0  0  0  0  0  0  0  0  0  0
    5.6690   71.2970   68.3610 C   0  0  0  0  0  0  0  0  0  0  0  0
    5.7240   70.7540   66.9550 C   0  0  0  0  0  0  0  0  0  0  0  0
    6.5700   71.0660   66.1270 O   0  0  0  0  0  0  0  0  0  0  0  0
    4.6470   69.7300   66.6990 C   0  0  0  0  0  0  0  0  0  0  0  0
    3.6510   69.9180   67.8380 C   0  0  0  0  0  0  0  0  0  0  0  0
    4.4320   70.6320   68.9120 C   0  0  0  0  0  0  0  0  0  0  0  0
    4.0670   70.7050   70.0780 O   0  0  0  0  0  0  0  0  0  0  0  0
    6.6887   70.9906   70.2271 H   0  0  0  0  0  0  0  0  0  0  0  0
    7.2071   69.8970   68.8997 H   0  0  0  0  0  0  0  0  0  0  0  0
    7.7241   71.6173   68.8997 H   0  0  0  0  0  0  0  0  0  0  0  0
    5.6336   72.3954   68.4088 H   0  0  0  0  0  0  0  0  0  0  0  0
    4.1634   69.9110   65.7277 H   0  0  0  0  0  0  0  0  0  0  0  0
    5.0479   68.7063   66.6632 H   0  0  0  0  0  0  0  0  0  0  0  0
    2.7960   70.5272   67.5096 H   0  0  0  0  0  0  0  0  0  0  0  0
    3.2347   68.9627   68.1901 H   0  0  0  0  0  0  0  0  0  0  0  0
  2  1  1  0
  3  2  1  0
  4  3  2  0
  5  3  1  0
  6  5  1  0
  7  6  1  0
  7  2  1  0
  8  7  2  0
  1  9  1  0
  1 10  1  0
  1 11  1  0
  2 12  1  0
  5 13  1  0
  5 14  1  0
  6 15  1  0
  6 16  1  0
M  END
>  <score>  (1) 
-5.454

$$$$
=
     RDKit          3D

 16 16  0  0  0  0  0  0  0  0999 V2000
    5.9920   71.6630   68.0190 C   0  0  0  0  0  0  0  0  0  0  0  0
    5.3600   70.2860   68.0380 C   0  0  0  0  0  0  0  0  0  0  0  0
    4.0250   70.2980   68.7410 C   0  0  0  0  0  0  0  0  0  0  0  0
    3.8690   70.5870   69.9200 O   0  0  0  0  0  0  0  0  0  0  0  0
    2.8880   69.9700   67.8070 C   0  0  0  0  0  0  0  0  0  0  0  0
    3.5540   69.3540   66.5820 C   0  0  0  0  0  0  0  0  0  0  0  0
    4.9850   69.8230   66.6520 C   0  0  0  0  0  0  0  0  0  0  0  0
    5.7580   69.7770   65.7040 O   0  0  0  0  0  0  0  0  0  0  0  0
    6.1504   72.0080   69.0514 H   0  0  0  0  0  0  0  0  0  0  0  0
    6.9585   71.6157   67.4959 H   0  0  0  0  0  0  0  0  0  0  0  0
    5.3259   72.3650   67.4959 H   0  0  0  0  0  0  0  0  0  0  0  0
    6.1107   69.6468   68.5257 H   0  0  0  0  0  0  0  0  0  0  0  0
    2.1976   69.2524   68.2744 H   0  0  0  0  0  0  0  0  0  0  0  0
    2.2914   70.8583   67.5520 H   0  0  0  0  0  0  0  0  0  0  0  0
    3.5026   68.2560   66.6228 H   0  0  0  0  0  0  0  0  0  0  0  0
    3.0620   69.6530   65.6447 H   0  0  0  0  0  0  0  0  0  0  0  0
  2  1  1  0
  3  2  1  0
  4  3  2  0
  5  3  1  0
  6  5  1  0
  7  6  1  0
  7  2  1  0
  8  7  2  0
  1  9  1  0
  1 10  1  0
  1 11  1  0
  2 12  1  0
  5 13  1  0
  5 14  1  0
  6 15  1  0
  6 16  1  0
M  END
>  <score>  (2) 
-5.267

$$$$
=
     RDKit          3D

 16 16  0  0  0  0  0  0  0  0999 V2000
    4.3270   70.3630   69.5250 C   0  0  0  0  0  0  0  0  0  0  0  0
    4.7430   70.9030   68.1720 C   0  0  0  0  0  0  0  0  0  0  0  0
    6.2420   71.0390   68.0660 C   0  0  0  0  0  0  0  0  0  0  0  0
    6.9190   71.7740   68.7730 O   0  0  0  0  0  0  0  0  0  0  0  0
    6.8240   70.1170   67.0250 C   0  0  0  0  0  0  0  0  0  0  0  0
    5.6330   69.6760   66.1840 C   0  0  0  0  0  0  0  0  0  0  0  0
    4.4330   69.9300   67.0610 C   0  0  0  0  0  0  0  0  0  0  0  0
    3.3290   69.4440   66.8540 O   0  0  0  0  0  0  0  0  0  0  0  0
    4.7916   70.9660   70.3191 H   0  0  0  0  0  0  0  0  0  0  0  0
    3.2322   70.4136   69.6191 H   0  0  0  0  0  0  0  0  0  0  0  0
    4.6552   69.3173   69.6191 H   0  0  0  0  0  0  0  0  0  0  0  0
    4.2048   71.8580   68.0813 H   0  0  0  0  0  0  0  0  0  0  0  0
    7.5603   70.6490   66.4047 H   0  0  0  0  0  0  0  0  0  0  0  0
    7.3520   69.2637   67.4756 H   0  0  0  0  0  0  0  0  0  0  0  0
    5.5703   70.2681   65.2591 H   0  0  0  0  0  0  0  0  0  0  0  0
    5.7080   68.6231   65.8745 H   0  0  0  0  0  0  0  0  0  0  0  0
  2  1  1  0
  3  2  1  0
  4  3  2  0
  5  3  1  0
  6  5  1  0
  7  6  1  0
  7  2  1  0
  8  7  2  0
  1  9  1  0
  1 10  1  0
  1 11  1  0
  2 12  1  0
  5 13  1  0
  5 14  1  0
  6 15  1  0
  6 16  1  0
M  END
>  <score>  (3) 
-5.212

$$$$
=
     RDKit          3D

 16 16  0  0  0  0  0  0  0  0999 V2000
    5.6060   68.3410   64.3500 C   0  0  0  0  0  0  0  0  0  0  0  0
    4.8480   69.4990   64.9660 C   0  0  0  0  0  0  0  0  0  0  0  0
    3.3770   69.1910   65.1000 C   0  0  0  0  0  0  0  0  0  0  0  0
    2.6310   68.9650   64.1560 O   0  0  0  0  0  0  0  0  0  0  0  0
    2.9370   69.1340   66.5410 C   0  0  0  0  0  0  0  0  0  0  0  0
    4.0630   69.8050   67.3190 C   0  0  0  0  0  0  0  0  0  0  0  0
    5.2550   69.7370   66.3990 C   0  0  0  0  0  0  0  0  0  0  0  0
    6.4080   69.9100   66.7710 O   0  0  0  0  0  0  0  0  0  0  0  0
    6.0204   67.7079   65.1484 H   0  0  0  0  0  0  0  0  0  0  0  0
    4.9225   67.7452   63.7272 H   0  0  0  0  0  0  0  0  0  0  0  0
    6.4255   68.7290   63.7272 H   0  0  0  0  0  0  0  0  0  0  0  0
    5.0629   70.3498   64.3027 H   0  0  0  0  0  0  0  0  0  0  0  0
    1.9918   69.6795   66.6794 H   0  0  0  0  0  0  0  0  0  0  0  0
    2.7557   68.1031   66.8792 H   0  0  0  0  0  0  0  0  0  0  0  0
    3.8079   70.8504   67.5472 H   0  0  0  0  0  0  0  0  0  0  0  0
    4.2531   69.3134   68.2845 H   0  0  0  0  0  0  0  0  0  0  0  0
  2  1  1  0
  3  2  1  0
  4  3  2  0
  5  3  1  0
  6  5  1  0
  7  6  1  0
  7  2  1  0
  8  7  2  0
  1  9  1  0
  1 10  1  0
  1 11  1  0
  2 12  1  0
  5 13  1  0
  5 14  1  0
  6 15  1  0
  6 16  1  0
M  END
>  <score>  (4) 
-5.119

$$$$
=
     RDKit          3D

 16 16  0  0  0  0  0  0  0  0999 V2000
    6.3750   70.8990   66.3340 C   0  0  0  0  0  0  0  0  0  0  0  0
    5.7000   69.9710   67.3240 C   0  0  0  0  0  0  0  0  0  0  0  0
    5.6210   70.5880   68.6980 C   0  0  0  0  0  0  0  0  0  0  0  0
    6.5950   70.8980   69.3720 O   0  0  0  0  0  0  0  0  0  0  0  0
    4.1970   70.8390   69.1280 C   0  0  0  0  0  0  0  0  0  0  0  0
    3.3500   70.0040   68.1750 C   0  0  0  0  0  0  0  0  0  0  0  0
    4.2450   69.7560   66.9870 C   0  0  0  0  0  0  0  0  0  0  0  0
    3.8350   69.3720   65.9000 O   0  0  0  0  0  0  0  0  0  0  0  0
    6.9368   71.6714   66.8797 H   0  0  0  0  0  0  0  0  0  0  0  0
    7.0654   70.3213   65.7019 H   0  0  0  0  0  0  0  0  0  0  0  0
    5.6127   71.3779   65.7019 H   0  0  0  0  0  0  0  0  0  0  0  0
    6.2991   69.0492   67.2879 H   0  0  0  0  0  0  0  0  0  0  0  0
    4.0434   70.5152   70.1680 H   0  0  0  0  0  0  0  0  0  0  0  0
    3.9339   71.9064   69.0908 H   0  0  0  0  0  0  0  0  0  0  0  0
    3.0581   69.0538   68.6462 H   0  0  0  0  0  0  0  0  0  0  0  0
    2.4156   70.5118   67.8940 H   0  0  0  0  0  0  0  0  0  0  0  0
  2  1  1  0
  3  2  1  0
  4  3  2  0
  5  3  1  0
  6  5  1  0
  7  6  1  0
  7  2  1  0
  8  7  2  0
  1  9  1  0
  1 10  1  0
  1 11  1  0
  2 12  1  0
  5 13  1  0
  5 14  1  0
  6 15  1  0
  6 16  1  0
M  END
>  <score>  (5) 
-5.079

$$$$
=
     RDKit          3D

 16 16  0  0  0  0  0  0  0  0999 V2000
    3.2030   67.7700   65.0030 C   0  0  0  0  0  0  0  0  0  0  0  0
    3.5550   69.2180   65.2760 C   0  0  0  0  0  0  0  0  0  0  0  0
    3.5330   69.5270   66.7520 C   0  0  0  0  0  0  0  0  0  0  0  0
    2.5360   69.4440   67.4590 O   0  0  0  0  0  0  0  0  0  0  0  0
    4.8980   69.8930   67.2780 C   0  0  0  0  0  0  0  0  0  0  0  0
    5.7230   70.2050   66.0350 C   0  0  0  0  0  0  0  0  0  0  0  0
    4.9860   69.5260   64.9080 C   0  0  0  0  0  0  0  0  0  0  0  0
    5.4820   69.3070   63.8110 O   0  0  0  0  0  0  0  0  0  0  0  0
    3.0737   67.2379   65.9570 H   0  0  0  0  0  0  0  0  0  0  0  0
    2.2671   67.7225   64.4269 H   0  0  0  0  0  0  0  0  0  0  0  0
    4.0126   67.2982   64.4269 H   0  0  0  0  0  0  0  0  0  0  0  0
    2.8190   69.7920   64.6938 H   0  0  0  0  0  0  0  0  0  0  0  0
    4.8372   70.7739   67.9340 H   0  0  0  0  0  0  0  0  0  0  0  0
    5.3417   69.0857   67.8792 H   0  0  0  0  0  0  0  0  0  0  0  0
    5.7752   71.2907   65.8662 H   0  0  0  0  0  0  0  0  0  0  0  0
    6.7616   69.8540   66.1251 H   0  0  0  0  0  0  0  0  0  0  0  0
  2  1  1  0
  3  2  1  0
  4  3  2  0
  5  3  1  0
  6  5  1  0
  7  6  1  0
  7  2  1  0
  8  7  2  0
  1  9  1  0
  1 10  1  0
  1 11  1  0
  2 12  1  0
  5 13  1  0
  5 14  1  0
  6 15  1  0
  6 16  1  0
M  END
>  <score>  (6) 
-5.024

$$$$
=
     RDKit          3D

 16 16  0  0  0  0  0  0  0  0999 V2000
    3.4050   59.6870   69.9230 C   0  0  0  0  0  0  0  0  0  0  0  0
    4.1710   60.9450   69.5670 C   0  0  0  0  0  0  0  0  0  0  0  0
    3.2620   62.1460   69.4880 C   0  0  0  0  0  0  0  0  0  0  0  0
    2.3400   62.2620   68.6910 O   0  0  0  0  0  0  0  0  0  0  0  0
    3.5800   63.1700   70.5480 C   0  0  0  0  0  0  0  0  0  0  0  0
    4.9660   62.7890   71.0550 C   0  0  0  0  0  0  0  0  0  0  0  0
    5.1320   61.3440   70.6590 C   0  0  0  0  0  0  0  0  0  0  0  0
    5.9850   60.6060   71.1350 O   0  0  0  0  0  0  0  0  0  0  0  0
    3.3464   59.5907   71.0172 H   0  0  0  0  0  0  0  0  0  0  0  0
    2.3892   59.7456   69.5051 H   0  0  0  0  0  0  0  0  0  0  0  0
    3.9234   58.8114   69.5051 H   0  0  0  0  0  0  0  0  0  0  0  0
    4.6658   60.7028   68.6149 H   0  0  0  0  0  0  0  0  0  0  0  0
    3.5896   64.1825   70.1181 H   0  0  0  0  0  0  0  0  0  0  0  0
    2.8314   63.1792   71.3539 H   0  0  0  0  0  0  0  0  0  0  0  0
    5.7380   63.4127   70.5807 H   0  0  0  0  0  0  0  0  0  0  0  0
    5.0689   62.9386   72.1399 H   0  0  0  0  0  0  0  0  0  0  0  0
  2  1  1  0
  3  2  1  0
  4  3  2  0
  5  3  1  0
  6  5  1  0
  7  6  1  0
  7  2  1  0
  8  7  2  0
  1  9  1  0
  1 10  1  0
  1 11  1  0
  2 12  1  0
  5 13  1  0
  5 14  1  0
  6 15  1  0
  6 16  1  0
M  END
>  <score>  (7) 
-4.954

$$$$
=
     RDKit          3D

 16 16  0  0  0  0  0  0  0  0999 V2000
    5.2450   63.5510   70.6030 C   0  0  0  0  0  0  0  0  0  0  0  0
    4.1190   62.5680   70.8480 C   0  0  0  0  0  0  0  0  0  0  0  0
    2.9500   62.8230   69.9300 C   0  0  0  0  0  0  0  0  0  0  0  0
    2.2920   63.8550   69.9200 O   0  0  0  0  0  0  0  0  0  0  0  0
    2.7160   61.6780   68.9760 C   0  0  0  0  0  0  0  0  0  0  0  0
    3.5030   60.5130   69.5650 C   0  0  0  0  0  0  0  0  0  0  0  0
    4.5140   61.1600   70.4780 C   0  0  0  0  0  0  0  0  0  0  0  0
    5.5040   60.5830   70.9070 O   0  0  0  0  0  0  0  0  0  0  0  0
    5.6439   63.8993   71.5671 H   0  0  0  0  0  0  0  0  0  0  0  0
    6.0451   63.0572   70.0320 H   0  0  0  0  0  0  0  0  0  0  0  0
    4.8637   64.4104   70.0320 H   0  0  0  0  0  0  0  0  0  0  0  0
    3.8774   62.6891   71.9143 H   0  0  0  0  0  0  0  0  0  0  0  0
    1.6451   61.4331   68.9199 H   0  0  0  0  0  0  0  0  0  0  0  0
    3.0359   61.9193   67.9516 H   0  0  0  0  0  0  0  0  0  0  0  0
    2.8397   59.8436   70.1324 H   0  0  0  0  0  0  0  0  0  0  0  0
    3.9774   59.8950   68.7885 H   0  0  0  0  0  0  0  0  0  0  0  0
  2  1  1  0
  3  2  1  0
  4  3  2  0
  5  3  1  0
  6  5  1  0
  7  6  1  0
  7  2  1  0
  8  7  2  0
  1  9  1  0
  1 10  1  0
  1 11  1  0
  2 12  1  0
  5 13  1  0
  5 14  1  0
  6 15  1  0
  6 16  1  0
M  END
>  <score>  (8) 
-4.873

$$$$
=
     RDKit          3D

 16 16  0  0  0  0  0  0  0  0999 V2000
    5.0680   61.1730   72.2380 C   0  0  0  0  0  0  0  0  0  0  0  0
    5.1060   61.3480   70.7340 C   0  0  0  0  0  0  0  0  0  0  0  0
    4.0520   60.5120   70.0510 C   0  0  0  0  0  0  0  0  0  0  0  0
    4.0090   59.2890   70.0920 O   0  0  0  0  0  0  0  0  0  0  0  0
    3.0170   61.3590   69.3550 C   0  0  0  0  0  0  0  0  0  0  0  0
    3.6440   62.7450   69.2640 C   0  0  0  0  0  0  0  0  0  0  0  0
    4.7180   62.7470   70.3210 C   0  0  0  0  0  0  0  0  0  0  0  0
    5.2460   63.7650   70.7480 O   0  0  0  0  0  0  0  0  0  0  0  0
    5.2773   62.1370   72.7247 H   0  0  0  0  0  0  0  0  0  0  0  0
    4.0718   60.8180   72.5408 H   0  0  0  0  0  0  0  0  0  0  0  0
    5.8272   60.4369   72.5408 H   0  0  0  0  0  0  0  0  0  0  0  0
    6.1350   61.0781   70.4542 H   0  0  0  0  0  0  0  0  0  0  0  0
    2.8043   60.9634   68.3509 H   0  0  0  0  0  0  0  0  0  0  0  0
    2.0593   61.3716   69.8959 H   0  0  0  0  0  0  0  0  0  0  0  0
    4.0797   62.9093   68.2674 H   0  0  0  0  0  0  0  0  0  0  0  0
    2.9068   63.5470   69.4171 H   0  0  0  0  0  0  0  0  0  0  0  0
  2  1  1  0
  3  2  1  0
  4  3  2  0
  5  3  1  0
  6  5  1  0
  7  6  1  0
  7  2  1  0
  8  7  2  0
  1  9  1  0
  1 10  1  0
  1 11  1  0
  2 12  1  0
  5 13  1  0
  5 14  1  0
  6 15  1  0
  6 16  1  0
M  END
>  <score>  (9) 
-4.801

$$$$
