=
     RDKit          3D

 19 20  0  0  0  0  0  0  0  0999 V2000
    2.8860   68.2900   63.2830 O   0  0  0  0  0  0  0  0  0  0  0  0
    3.7860   68.7720   63.9300 C   0  0  0  0  0  0  0  0  0  0  0  0
    5.2230   69.1050   63.4530 C   0  0  0  0  0  0  0  0  0  0  0  0
    5.6730   68.9300   62.3420 O   0  0  0  0  0  0  0  0  0  0  0  0
    5.8600   69.6340   64.5580 N   0  0  0  0  0  0  0  0  0  0  0  0
    5.0110   69.6780   65.6650 C   0  0  0  0  0  0  0  0  0  0  0  0
    3.7500   69.1700   65.3380 C   0  0  0  0  0  0  0  0  0  0  0  0
    2.7130   69.0930   66.2440 C   0  0  0  0  0  0  0  0  0  0  0  0
    2.9710   69.5520   67.5350 C   0  0  0  0  0  0  0  0  0  0  0  0
    4.2400   70.0680   67.8800 C   0  0  0  0  0  0  0  0  0  0  0  0
    5.2960   70.1420   66.9440 C   0  0  0  0  0  0  0  0  0  0  0  0
    6.6400   70.6920   67.3200 C   0  0  0  0  0  0  0  0  0  0  0  0
    4.4540   70.6100   69.5090 Cl  0  0  0  0  0  0  0  0  0  0  0  0
    6.8385   69.9556   64.5645 H   0  0  0  0  0  0  0  0  0  0  0  0
    1.7297   68.6889   65.9616 H   0  0  0  0  0  0  0  0  0  0  0  0
    2.1763   69.5118   68.2945 H   0  0  0  0  0  0  0  0  0  0  0  0
    6.7279   70.7280   68.4159 H   0  0  0  0  0  0  0  0  0  0  0  0
    7.4290   70.0444   66.9099 H   0  0  0  0  0  0  0  0  0  0  0  0
    6.7486   71.7069   66.9099 H   0  0  0  0  0  0  0  0  0  0  0  0
  2  1  2  0
  3  2  1  0
  4  3  2  0
  5  3  1  0
  6  5  1  0
  7  2  1  0
  7  6  2  0
  8  7  1  0
  9  8  2  0
 10  9  1  0
 11 10  2  0
 11  6  1  0
 12 11  1  0
 13 10  1  0
  5 14  1  0
  8 15  1  0
  9 16  1  0
 12 17  1  0
 12 18  1  0
 12 19  1  0
M  END
>  <score>  (1) 
-8.573

$$$$
=
     RDKit          3D

 19 20  0  0  0  0  0  0  0  0999 V2000
    0.7690   67.9220   64.8660 O   0  0  0  0  0  0  0  0  0  0  0  0
    1.2100   68.4420   65.8650 C   0  0  0  0  0  0  0  0  0  0  0  0
    0.4610   68.7320   67.1910 C   0  0  0  0  0  0  0  0  0  0  0  0
   -0.6970   68.4800   67.4360 O   0  0  0  0  0  0  0  0  0  0  0  0
    1.3960   69.3300   68.0130 N   0  0  0  0  0  0  0  0  0  0  0  0
    2.6330   69.4530   67.3770 C   0  0  0  0  0  0  0  0  0  0  0  0
    2.5730   68.9320   66.0800 C   0  0  0  0  0  0  0  0  0  0  0  0
    3.6530   68.9220   65.2230 C   0  0  0  0  0  0  0  0  0  0  0  0
    4.8420   69.4660   65.7070 C   0  0  0  0  0  0  0  0  0  0  0  0
    4.9180   69.9960   67.0140 C   0  0  0  0  0  0  0  0  0  0  0  0
    3.8060   70.0000   67.8840 C   0  0  0  0  0  0  0  0  0  0  0  0
    3.8960   70.5650   69.2710 C   0  0  0  0  0  0  0  0  0  0  0  0
    6.4430   70.6460   67.5130 Cl  0  0  0  0  0  0  0  0  0  0  0  0
    1.2048   69.6457   68.9746 H   0  0  0  0  0  0  0  0  0  0  0  0
    3.5802   68.5054   64.2075 H   0  0  0  0  0  0  0  0  0  0  0  0
    5.7330   69.4827   65.0622 H   0  0  0  0  0  0  0  0  0  0  0  0
    3.7672   69.7563   70.0054 H   0  0  0  0  0  0  0  0  0  0  0  0
    4.8804   71.0352   69.4122 H   0  0  0  0  0  0  0  0  0  0  0  0
    3.1064   71.3178   69.4122 H   0  0  0  0  0  0  0  0  0  0  0  0
  2  1  2  0
  3  2  1  0
  4  3  2  0
  5  3  1  0
  6  5  1  0
  7  2  1  0
  7  6  2  0
  8  7  1  0
  9  8  2  0
 10  9  1  0
 11 10  2  0
 11  6  1  0
 12 11  1  0
 13 10  1  0
  5 14  1  0
  8 15  1  0
  9 16  1  0
 12 17  1  0
 12 18  1  0
 12 19  1  0
M  END
>  <score>  (2) 
-8.259

$$$$
=
     RDKit          3D

 19 20  0  0  0  0  0  0  0  0999 V2000
    4.4410   70.5940   69.8810 O   0  0  0  0  0  0  0  0  0  0  0  0
    4.8180   70.4440   68.7430 C   0  0  0  0  0  0  0  0  0  0  0  0
    6.2200   70.7560   68.1600 C   0  0  0  0  0  0  0  0  0  0  0  0
    7.1690   71.2060   68.7640 O   0  0  0  0  0  0  0  0  0  0  0  0
    6.1440   70.4130   66.8250 N   0  0  0  0  0  0  0  0  0  0  0  0
    4.8790   69.9260   66.4930 C   0  0  0  0  0  0  0  0  0  0  0  0
    4.0430   69.9250   67.6140 C   0  0  0  0  0  0  0  0  0  0  0  0
    2.7340   69.4940   67.5760 C   0  0  0  0  0  0  0  0  0  0  0  0
    2.2560   69.0460   66.3450 C   0  0  0  0  0  0  0  0  0  0  0  0
    3.0890   69.0410   65.2030 C   0  0  0  0  0  0  0  0  0  0  0  0
    4.4290   69.4850   65.2540 C   0  0  0  0  0  0  0  0  0  0  0  0
    5.3050   69.4760   64.0370 C   0  0  0  0  0  0  0  0  0  0  0  0
    2.3960   68.4660   63.7250 Cl  0  0  0  0  0  0  0  0  0  0  0  0
    6.9232   70.5050   66.1577 H   0  0  0  0  0  0  0  0  0  0  0  0
    2.0976   69.5031   68.4731 H   0  0  0  0  0  0  0  0  0  0  0  0
    1.2178   68.6921   66.2616 H   0  0  0  0  0  0  0  0  0  0  0  0
    6.3609   69.4652   64.3453 H   0  0  0  0  0  0  0  0  0  0  0  0
    5.0891   68.5800   63.4365 H   0  0  0  0  0  0  0  0  0  0  0  0
    5.1076   70.3762   63.4365 H   0  0  0  0  0  0  0  0  0  0  0  0
  2  1  2  0
  3  2  1  0
  4  3  2  0
  5  3  1  0
  6  5  1  0
  7  2  1  0
  7  6  2  0
  8  7  1  0
  9  8  2  0
 10  9  1  0
 11 10  2  0
 11  6  1  0
 12 11  1  0
 13 10  1  0
  5 14  1  0
  8 15  1  0
  9 16  1  0
 12 17  1  0
 12 18  1  0
 12 19  1  0
M  END
>  <score>  (3) 
-8.225

$$$$
=
     RDKit          3D

 19 20  0  0  0  0  0  0  0  0999 V2000
    0.0170   68.8820   67.6820 O   0  0  0  0  0  0  0  0  0  0  0  0
    0.9570   68.9030   66.9220 C   0  0  0  0  0  0  0  0  0  0  0  0
    0.9830   68.4650   65.4360 C   0  0  0  0  0  0  0  0  0  0  0  0
    0.0530   68.0250   64.7960 O   0  0  0  0  0  0  0  0  0  0  0  0
    2.2800   68.6840   65.0150 N   0  0  0  0  0  0  0  0  0  0  0  0
    3.0700   69.2020   66.0410 C   0  0  0  0  0  0  0  0  0  0  0  0
    2.3200   69.3530   67.2110 C   0  0  0  0  0  0  0  0  0  0  0  0
    2.8480   69.8470   68.3860 C   0  0  0  0  0  0  0  0  0  0  0  0
    4.1970   70.2000   68.3670 C   0  0  0  0  0  0  0  0  0  0  0  0
    4.9680   70.0530   67.1930 C   0  0  0  0  0  0  0  0  0  0  0  0
    4.4160   69.5470   65.9950 C   0  0  0  0  0  0  0  0  0  0  0  0
    5.2430   69.3940   64.7530 C   0  0  0  0  0  0  0  0  0  0  0  0
    6.6320   70.5210   67.2790 Cl  0  0  0  0  0  0  0  0  0  0  0  0
    2.6210   68.4892   64.0628 H   0  0  0  0  0  0  0  0  0  0  0  0
    2.2353   69.9570   69.2929 H   0  0  0  0  0  0  0  0  0  0  0  0
    4.6667   70.5982   69.2785 H   0  0  0  0  0  0  0  0  0  0  0  0
    6.2896   69.2004   65.0309 H   0  0  0  0  0  0  0  0  0  0  0  0
    4.8596   68.5516   64.1586 H   0  0  0  0  0  0  0  0  0  0  0  0
    5.1864   70.3179   64.1586 H   0  0  0  0  0  0  0  0  0  0  0  0
  2  1  2  0
  3  2  1  0
  4  3  2  0
  5  3  1  0
  6  5  1  0
  7  2  1  0
  7  6  2  0
  8  7  1  0
  9  8  2  0
 10  9  1  0
 11 10  2  0
 11  6  1  0
 12 11  1  0
 13 10  1  0
  5 14  1  0
  8 15  1  0
  9 16  1  0
 12 17  1  0
 12 18  1  0
 12 19  1  0
M  END
>  <score>  (4) 
-8.114

$$$$
=
     RDKit          3D

 19 20  0  0  0  0  0  0  0  0999 V2000
    5.9490   70.6160   68.2950 O   0  0  0  0  0  0  0  0  0  0  0  0
    4.9300   70.2200   67.7800 C   0  0  0  0  0  0  0  0  0  0  0  0
    3.5440   70.0300   68.4460 C   0  0  0  0  0  0  0  0  0  0  0  0
    3.2630   70.2500   69.6030 O   0  0  0  0  0  0  0  0  0  0  0  0
    2.7190   69.5610   67.4430 N   0  0  0  0  0  0  0  0  0  0  0  0
    3.4050   69.4330   66.2340 C   0  0  0  0  0  0  0  0  0  0  0  0
    4.7410   69.8180   66.3850 C   0  0  0  0  0  0  0  0  0  0  0  0
    5.6520   69.7920   65.3500 C   0  0  0  0  0  0  0  0  0  0  0  0
    5.1830   69.3560   64.1110 C   0  0  0  0  0  0  0  0  0  0  0  0
    3.8360   68.9630   63.9440 C   0  0  0  0  0  0  0  0  0  0  0  0
    2.9120   68.9940   65.0110 C   0  0  0  0  0  0  0  0  0  0  0  0
    1.4830   68.5760   64.8240 C   0  0  0  0  0  0  0  0  0  0  0  0
    3.3590   68.4380   62.3660 Cl  0  0  0  0  0  0  0  0  0  0  0  0
    1.7225   69.3341   67.5708 H   0  0  0  0  0  0  0  0  0  0  0  0
    6.6980   70.1002   65.4946 H   0  0  0  0  0  0  0  0  0  0  0  0
    5.8703   69.3176   63.2530 H   0  0  0  0  0  0  0  0  0  0  0  0
    1.0098   68.4376   65.8073 H   0  0  0  0  0  0  0  0  0  0  0  0
    0.9437   69.3540   64.2638 H   0  0  0  0  0  0  0  0  0  0  0  0
    1.4480   67.6300   64.2638 H   0  0  0  0  0  0  0  0  0  0  0  0
  2  1  2  0
  3  2  1  0
  4  3  2  0
  5  3  1  0
  6  5  1  0
  7  2  1  0
  7  6  2  0
  8  7  1  0
  9  8  2  0
 10  9  1  0
 11 10  2  0
 11  6  1  0
 12 11  1  0
 13 10  1  0
  5 14  1  0
  8 15  1  0
  9 16  1  0
 12 17  1  0
 12 18  1  0
 12 19  1  0
M  END
>  <score>  (5) 
-7.938

$$$$
=
     RDKit          3D

 19 20  0  0  0  0  0  0  0  0999 V2000
    2.3620   69.3150   68.3810 O   0  0  0  0  0  0  0  0  0  0  0  0
    2.2040   69.0920   67.2040 C   0  0  0  0  0  0  0  0  0  0  0  0
    0.9080   68.6270   66.4930 C   0  0  0  0  0  0  0  0  0  0  0  0
   -0.1630   68.4100   67.0140 O   0  0  0  0  0  0  0  0  0  0  0  0
    1.2450   68.5170   65.1580 N   0  0  0  0  0  0  0  0  0  0  0  0
    2.5820   68.8530   64.9380 C   0  0  0  0  0  0  0  0  0  0  0  0
    3.2030   69.2070   66.1400 C   0  0  0  0  0  0  0  0  0  0  0  0
    4.5270   69.5840   66.2190 C   0  0  0  0  0  0  0  0  0  0  0  0
    5.2470   69.6020   65.0240 C   0  0  0  0  0  0  0  0  0  0  0  0
    4.6330   69.2460   63.8030 C   0  0  0  0  0  0  0  0  0  0  0  0
    3.2760   68.8620   63.7340 C   0  0  0  0  0  0  0  0  0  0  0  0
    2.6320   68.4860   62.4320 C   0  0  0  0  0  0  0  0  0  0  0  0
    5.6170   69.3020   62.3810 Cl  0  0  0  0  0  0  0  0  0  0  0  0
    0.5917   68.2238   64.4176 H   0  0  0  0  0  0  0  0  0  0  0  0
    4.9928   69.8572   67.1773 H   0  0  0  0  0  0  0  0  0  0  0  0
    6.3066   69.8973   65.0330 H   0  0  0  0  0  0  0  0  0  0  0  0
    1.6975   67.9404   62.6293 H   0  0  0  0  0  0  0  0  0  0  0  0
    2.4104   69.3966   61.8561 H   0  0  0  0  0  0  0  0  0  0  0  0
    3.3161   67.8454   61.8561 H   0  0  0  0  0  0  0  0  0  0  0  0
  2  1  2  0
  3  2  1  0
  4  3  2  0
  5  3  1  0
  6  5  1  0
  7  2  1  0
  7  6  2  0
  8  7  1  0
  9  8  2  0
 10  9  1  0
 11 10  2  0
 11  6  1  0
 12 11  1  0
 13 10  1  0
  5 14  1  0
  8 15  1  0
  9 16  1  0
 12 17  1  0
 12 18  1  0
 12 19  1  0
M  END
>  <score>  (6) 
-7.702

$$$$
=
     RDKit          3D

 19 20  0  0  0  0  0  0  0  0999 V2000
    0.9830   67.6160   64.3060 O   0  0  0  0  0  0  0  0  0  0  0  0
    2.0560   68.1130   64.5580 C   0  0  0  0  0  0  0  0  0  0  0  0
    3.2770   68.2590   63.6150 C   0  0  0  0  0  0  0  0  0  0  0  0
    3.3480   67.8920   62.4630 O   0  0  0  0  0  0  0  0  0  0  0  0
    4.2460   68.8890   64.3700 N   0  0  0  0  0  0  0  0  0  0  0  0
    3.7930   69.1580   65.6630 C   0  0  0  0  0  0  0  0  0  0  0  0
    2.4790   68.7100   65.8260 C   0  0  0  0  0  0  0  0  0  0  0  0
    1.7790   68.8460   67.0060 C   0  0  0  0  0  0  0  0  0  0  0  0
    2.4460   69.4640   68.0640 C   0  0  0  0  0  0  0  0  0  0  0  0
    3.7740   69.9210   67.9140 C   0  0  0  0  0  0  0  0  0  0  0  0
    4.4810   69.7770   66.7000 C   0  0  0  0  0  0  0  0  0  0  0  0
    5.8910   70.2660   66.5510 C   0  0  0  0  0  0  0  0  0  0  0  0
    4.5080   70.6730   69.2900 Cl  0  0  0  0  0  0  0  0  0  0  0  0
    5.1853   69.1303   64.0230 H   0  0  0  0  0  0  0  0  0  0  0  0
    0.7450   68.4848   67.1082 H   0  0  0  0  0  0  0  0  0  0  0  0
    1.9313   69.5970   69.0270 H   0  0  0  0  0  0  0  0  0  0  0  0
    6.3331   70.4193   67.5465 H   0  0  0  0  0  0  0  0  0  0  0  0
    6.4813   69.5201   65.9986 H   0  0  0  0  0  0  0  0  0  0  0  0
    5.8928   71.2172   65.9986 H   0  0  0  0  0  0  0  0  0  0  0  0
  2  1  2  0
  3  2  1  0
  4  3  2  0
  5  3  1  0
  6  5  1  0
  7  2  1  0
  7  6  2  0
  8  7  1  0
  9  8  2  0
 10  9  1  0
 11 10  2  0
 11  6  1  0
 12 11  1  0
 13 10  1  0
  5 14  1  0
  8 15  1  0
  9 16  1  0
 12 17  1  0
 12 18  1  0
 12 19  1  0
M  END
>  <score>  (7) 
-7.691

$$$$
=
     RDKit          3D

 19 20  0  0  0  0  0  0  0  0999 V2000
    1.1220   69.0970   66.7870 O   0  0  0  0  0  0  0  0  0  0  0  0
    2.2950   69.2520   66.5440 C   0  0  0  0  0  0  0  0  0  0  0  0
    3.0260   69.0020   65.2000 C   0  0  0  0  0  0  0  0  0  0  0  0
    2.5270   68.6070   64.1700 O   0  0  0  0  0  0  0  0  0  0  0  0
    4.3470   69.3250   65.4390 N   0  0  0  0  0  0  0  0  0  0  0  0
    4.5410   69.7450   66.7550 C   0  0  0  0  0  0  0  0  0  0  0  0
    3.3350   69.7190   67.4630 C   0  0  0  0  0  0  0  0  0  0  0  0
    3.2330   70.0840   68.7890 C   0  0  0  0  0  0  0  0  0  0  0  0
    4.4070   70.4930   69.4190 C   0  0  0  0  0  0  0  0  0  0  0  0
    5.6330   70.5250   68.7180 C   0  0  0  0  0  0  0  0  0  0  0  0
    5.7260   70.1490   67.3600 C   0  0  0  0  0  0  0  0  0  0  0  0
    7.0330   70.1860   66.6230 C   0  0  0  0  0  0  0  0  0  0  0  0
    7.0300   71.0480   69.5960 Cl  0  0  0  0  0  0  0  0  0  0  0  0
    5.0954   69.2635   64.7340 H   0  0  0  0  0  0  0  0  0  0  0  0
    2.2720   70.0538   69.3233 H   0  0  0  0  0  0  0  0  0  0  0  0
    4.3785   70.7950   70.4764 H   0  0  0  0  0  0  0  0  0  0  0  0
    7.8613   70.2094   67.3464 H   0  0  0  0  0  0  0  0  0  0  0  0
    7.1232   69.2900   65.9912 H   0  0  0  0  0  0  0  0  0  0  0  0
    7.0724   71.0856   65.9912 H   0  0  0  0  0  0  0  0  0  0  0  0
  2  1  2  0
  3  2  1  0
  4  3  2  0
  5  3  1  0
  6  5  1  0
  7  2  1  0
  7  6  2  0
  8  7  1  0
  9  8  2  0
 10  9  1  0
 11 10  2  0
 11  6  1  0
 12 11  1  0
 13 10  1  0
  5 14  1  0
  8 15  1  0
  9 16  1  0
 12 17  1  0
 12 18  1  0
 12 19  1  0
M  END
>  <score>  (8) 
-7.531

$$$$
=
     RDKit          3D

 19 20  0  0  0  0  0  0  0  0999 V2000
   -0.5380   68.0690   65.3120 O   0  0  0  0  0  0  0  0  0  0  0  0
    0.5840   68.4080   65.6080 C   0  0  0  0  0  0  0  0  0  0  0  0
    1.1260   68.7580   67.0170 C   0  0  0  0  0  0  0  0  0  0  0  0
    0.5020   68.7450   68.0550 O   0  0  0  0  0  0  0  0  0  0  0  0
    2.4550   69.0810   66.8250 N   0  0  0  0  0  0  0  0  0  0  0  0
    2.8180   68.9790   65.4810 C   0  0  0  0  0  0  0  0  0  0  0  0
    1.7250   68.5770   64.7060 C   0  0  0  0  0  0  0  0  0  0  0  0
    1.7970   68.3960   63.3410 C   0  0  0  0  0  0  0  0  0  0  0  0
    3.0330   68.6350   62.7410 C   0  0  0  0  0  0  0  0  0  0  0  0
    4.1460   69.0420   63.5100 C   0  0  0  0  0  0  0  0  0  0  0  0
    4.0600   69.2240   64.9090 C   0  0  0  0  0  0  0  0  0  0  0  0
    5.2480   69.6560   65.7180 C   0  0  0  0  0  0  0  0  0  0  0  0
    5.6320   69.3110   62.6650 Cl  0  0  0  0  0  0  0  0  0  0  0  0
    3.0978   69.3620   67.5791 H   0  0  0  0  0  0  0  0  0  0  0  0
    0.9224   68.0787   62.7541 H   0  0  0  0  0  0  0  0  0  0  0  0
    3.1428   68.5049   61.6543 H   0  0  0  0  0  0  0  0  0  0  0  0
    5.0129   69.5705   66.7892 H   0  0  0  0  0  0  0  0  0  0  0  0
    6.1079   69.0130   65.4789 H   0  0  0  0  0  0  0  0  0  0  0  0
    5.4940   70.7011   65.4789 H   0  0  0  0  0  0  0  0  0  0  0  0
  2  1  2  0
  3  2  1  0
  4  3  2  0
  5  3  1  0
  6  5  1  0
  7  2  1  0
  7  6  2  0
  8  7  1  0
  9  8  2  0
 10  9  1  0
 11 10  2  0
 11  6  1  0
 12 11  1  0
 13 10  1  0
  5 14  1  0
  8 15  1  0
  9 16  1  0
 12 17  1  0
 12 18  1  0
 12 19  1  0
M  END
>  <score>  (9) 
-7.474

$$$$
