=
     RDKit          3D

 39 40  0  0  0  0  0  0  0  0999 V2000
   -0.5760   67.9410   66.8060 C   0  0  0  0  0  0  0  0  0  0  0  0
    0.7110   68.1290   67.3260 C   0  0  0  0  0  0  0  0  0  0  0  0
    1.1000   67.4720   68.5010 C   0  0  0  0  0  0  0  0  0  0  0  0
    0.2140   66.6320   69.1850 C   0  0  0  0  0  0  0  0  0  0  0  0
   -1.0700   66.4410   68.6600 C   0  0  0  0  0  0  0  0  0  0  0  0
   -1.4630   67.0930   67.4860 C   0  0  0  0  0  0  0  0  0  0  0  0
   -0.2180   68.6170   64.4790 N   0  0  0  0  0  0  0  0  0  0  0  0
   -1.0630   68.6210   65.5630 C   0  0  0  0  0  0  0  0  0  0  0  0
   -2.1740   69.1430   65.5470 O   0  0  0  0  0  0  0  0  0  0  0  0
   -0.6280   69.0550   63.1610 C   0  0  0  0  0  0  0  0  0  0  0  0
    0.4580   69.8590   62.4710 C   0  0  0  0  0  0  0  0  0  0  0  0
    2.0790   69.2280   60.8790 O   0  0  0  0  0  1  0  0  0  0  0  0
    1.6030   68.9560   62.0160 C   0  0  0  0  0  0  0  0  0  0  0  0
    1.9470   68.0580   62.8410 O   0  0  0  0  0  0  0  0  0  0  0  0
    0.6520   65.9640   70.3430 N   0  0  0  0  0  0  0  0  0  0  0  0
    0.7940   64.7390   70.1250 N   0  0  0  0  0  0  0  0  0  0  0  0
    1.2210   64.0560   71.2820 C   0  0  0  0  0  0  0  0  0  0  0  0
    0.5630   64.1920   72.5150 C   0  0  0  0  0  0  0  0  0  0  0  0
    0.9870   63.4730   73.6320 C   0  0  0  0  0  0  0  0  0  0  0  0
    2.0660   62.6000   73.5220 C   0  0  0  0  0  0  0  0  0  0  0  0
    2.7410   62.4230   72.3050 C   0  0  0  0  0  0  0  0  0  0  0  0
    2.2970   63.1630   71.1910 C   0  0  0  0  0  0  0  0  0  0  0  0
    3.9040   61.4700   72.1850 C   0  0  0  0  0  0  0  0  0  0  0  0
    3.7470   60.5090   71.3580 O   0  0  0  0  0  0  0  0  0  0  0  0
    4.9330   61.6840   72.8940 O   0  0  0  0  0  1  0  0  0  0  0  0
    2.4310   61.9210   74.6560 O   0  0  0  0  0  0  0  0  0  0  0  0
    1.4187   68.7947   66.8102 H   0  0  0  0  0  0  0  0  0  0  0  0
    2.1177   67.6188   68.8918 H   0  0  0  0  0  0  0  0  0  0  0  0
   -1.7758   65.7726   69.1749 H   0  0  0  0  0  0  0  0  0  0  0  0
   -2.4784   66.9390   67.0920 H   0  0  0  0  0  0  0  0  0  0  0  0
    0.7493   68.2881   64.6098 H   0  0  0  0  0  0  0  0  0  0  0  0
   -0.8603   68.1714   62.5485 H   0  0  0  0  0  0  0  0  0  0  0  0
   -1.5112   69.7007   63.2748 H   0  0  0  0  0  0  0  0  0  0  0  0
    0.0285   70.3648   61.5937 H   0  0  0  0  0  0  0  0  0  0  0  0
    0.8554   70.5957   63.1847 H   0  0  0  0  0  0  0  0  0  0  0  0
   -0.2964   64.8732   72.6007 H   0  0  0  0  0  0  0  0  0  0  0  0
    0.4712   63.5950   74.5959 H   0  0  0  0  0  0  0  0  0  0  0  0
    2.8082   63.0364   70.2252 H   0  0  0  0  0  0  0  0  0  0  0  0
    3.1919   61.2882   74.6307 H   0  0  0  0  0  0  0  0  0  0  0  0
  2  1  2  0
  3  2  1  0
  4  3  2  0
  5  4  1  0
  6  5  2  0
  6  1  1  0
  8  7  1  0
  8  1  1  0
  9  8  2  0
 10  7  1  0
 11 10  1  0
 13 12  1  0
 13 11  1  0
 14 13  2  0
 15  4  1  0
 16 15  2  0
 17 16  1  0
 18 17  2  0
 19 18  1  0
 20 19  2  0
 21 20  1  0
 22 21  2  0
 22 17  1  0
 23 21  1  0
 24 23  2  0
 25 23  1  0
 26 20  1  0
  2 27  1  0
  3 28  1  0
  5 29  1  0
  6 30  1  0
  7 31  1  0
 10 32  1  0
 10 33  1  0
 11 34  1  0
 11 35  1  0
 18 36  1  0
 19 37  1  0
 22 38  1  0
 26 39  1  0
M  CHG  2  12  -1  25  -1
M  END
>  <score>  (1) 
-8.902

$$$$
=
     RDKit          3D

 39 40  0  0  0  0  0  0  0  0999 V2000
   -0.5370   67.8450   66.7970 C   0  0  0  0  0  0  0  0  0  0  0  0
    0.7750   67.9300   67.2810 C   0  0  0  0  0  0  0  0  0  0  0  0
    1.1340   67.2740   68.4660 C   0  0  0  0  0  0  0  0  0  0  0  0
    0.1940   66.5380   69.1960 C   0  0  0  0  0  0  0  0  0  0  0  0
   -1.1150   66.4500   68.7080 C   0  0  0  0  0  0  0  0  0  0  0  0
   -1.4790   67.1010   67.5240 C   0  0  0  0  0  0  0  0  0  0  0  0
   -0.1350   68.5030   64.4730 N   0  0  0  0  0  0  0  0  0  0  0  0
   -0.9930   68.5300   65.5450 C   0  0  0  0  0  0  0  0  0  0  0  0
   -2.0920   69.0770   65.5150 O   0  0  0  0  0  0  0  0  0  0  0  0
   -0.5190   68.9440   63.1470 C   0  0  0  0  0  0  0  0  0  0  0  0
    0.5610   69.7900   62.5000 C   0  0  0  0  0  0  0  0  0  0  0  0
    2.1810   69.2310   60.8790 O   0  0  0  0  0  1  0  0  0  0  0  0
    1.7180   68.9190   62.0120 C   0  0  0  0  0  0  0  0  0  0  0  0
    2.0830   68.0040   62.8080 O   0  0  0  0  0  0  0  0  0  0  0  0
    0.6010   65.8660   70.3640 N   0  0  0  0  0  0  0  0  0  0  0  0
    0.7050   64.6360   70.1570 N   0  0  0  0  0  0  0  0  0  0  0  0
    1.0990   63.9490   71.3240 C   0  0  0  0  0  0  0  0  0  0  0  0
    2.1950   63.0720   71.3400 C   0  0  0  0  0  0  0  0  0  0  0  0
    2.5820   62.4370   72.5200 C   0  0  0  0  0  0  0  0  0  0  0  0
    1.8840   62.6850   73.6980 C   0  0  0  0  0  0  0  0  0  0  0  0
    0.7940   63.5670   73.7290 C   0  0  0  0  0  0  0  0  0  0  0  0
    0.4180   64.1940   72.5240 C   0  0  0  0  0  0  0  0  0  0  0  0
    0.0440   63.8430   75.0090 C   0  0  0  0  0  0  0  0  0  0  0  0
    0.7120   64.4340   75.9230 O   0  0  0  0  0  0  0  0  0  0  0  0
   -1.1690   63.4800   75.0860 O   0  0  0  0  0  1  0  0  0  0  0  0
    2.3180   62.0330   74.8230 O   0  0  0  0  0  0  0  0  0  0  0  0
    1.5261   68.5139   66.7287 H   0  0  0  0  0  0  0  0  0  0  0  0
    2.1707   67.3386   68.8280 H   0  0  0  0  0  0  0  0  0  0  0  0
   -1.8643   65.8638   69.2602 H   0  0  0  0  0  0  0  0  0  0  0  0
   -2.5143   67.0288   67.1593 H   0  0  0  0  0  0  0  0  0  0  0  0
    0.8232   68.1541   64.6178 H   0  0  0  0  0  0  0  0  0  0  0  0
   -0.7043   68.0609   62.5178 H   0  0  0  0  0  0  0  0  0  0  0  0
   -1.4256   69.5599   63.2407 H   0  0  0  0  0  0  0  0  0  0  0  0
    0.1307   70.3298   61.6436 H   0  0  0  0  0  0  0  0  0  0  0  0
    0.9464   70.4991   63.2474 H   0  0  0  0  0  0  0  0  0  0  0  0
    2.7546   62.8836   70.4119 H   0  0  0  0  0  0  0  0  0  0  0  0
    3.4355   61.7430   72.5194 H   0  0  0  0  0  0  0  0  0  0  0  0
   -0.4312   64.8931   72.5255 H   0  0  0  0  0  0  0  0  0  0  0  0
    1.8556   62.1749   75.6868 H   0  0  0  0  0  0  0  0  0  0  0  0
  2  1  2  0
  3  2  1  0
  4  3  2  0
  5  4  1  0
  6  5  2  0
  6  1  1  0
  8  7  1  0
  8  1  1  0
  9  8  2  0
 10  7  1  0
 11 10  1  0
 13 12  1  0
 13 11  1  0
 14 13  2  0
 15  4  1  0
 16 15  2  0
 17 16  1  0
 18 17  2  0
 19 18  1  0
 20 19  2  0
 21 20  1  0
 22 21  2  0
 22 17  1  0
 23 21  1  0
 24 23  2  0
 25 23  1  0
 26 20  1  0
  2 27  1  0
  3 28  1  0
  5 29  1  0
  6 30  1  0
  7 31  1  0
 10 32  1  0
 10 33  1  0
 11 34  1  0
 11 35  1  0
 18 36  1  0
 19 37  1  0
 22 38  1  0
 26 39  1  0
M  CHG  2  12  -1  25  -1
M  END
>  <score>  (2) 
-8.674

$$$$
=
     RDKit          3D

 39 40  0  0  0  0  0  0  0  0999 V2000
    1.4690   63.1510   72.8200 C   0  0  0  0  0  0  0  0  0  0  0  0
    0.3570   63.9940   72.6940 C   0  0  0  0  0  0  0  0  0  0  0  0
    0.2160   64.8110   71.5640 C   0  0  0  0  0  0  0  0  0  0  0  0
    1.1800   64.8150   70.5500 C   0  0  0  0  0  0  0  0  0  0  0  0
    2.2880   63.9670   70.6760 C   0  0  0  0  0  0  0  0  0  0  0  0
    2.4340   63.1470   71.8020 C   0  0  0  0  0  0  0  0  0  0  0  0
    2.2050   61.0120   73.7590 N   0  0  0  0  0  0  0  0  0  0  0  0
    1.6900   62.2620   74.0050 C   0  0  0  0  0  0  0  0  0  0  0  0
    1.4170   62.6680   75.1320 O   0  0  0  0  0  0  0  0  0  0  0  0
    2.6570   60.1270   74.8130 C   0  0  0  0  0  0  0  0  0  0  0  0
    3.8260   59.2700   74.3650 C   0  0  0  0  0  0  0  0  0  0  0  0
    3.8680   58.9510   72.0280 O   0  0  0  0  0  1  0  0  0  0  0  0
    4.2980   59.6750   72.9690 C   0  0  0  0  0  0  0  0  0  0  0  0
    5.0450   60.6970   72.9240 O   0  0  0  0  0  0  0  0  0  0  0  0
    0.9860   65.6240   69.4160 N   0  0  0  0  0  0  0  0  0  0  0  0
   -0.1930   66.0420   69.3640 N   0  0  0  0  0  0  0  0  0  0  0  0
   -0.4040   66.8440   68.2230 C   0  0  0  0  0  0  0  0  0  0  0  0
   -1.6910   67.1610   67.7620 C   0  0  0  0  0  0  0  0  0  0  0  0
   -1.8670   67.9880   66.6520 C   0  0  0  0  0  0  0  0  0  0  0  0
   -0.7550   68.5160   66.0030 C   0  0  0  0  0  0  0  0  0  0  0  0
    0.5480   68.2370   66.4410 C   0  0  0  0  0  0  0  0  0  0  0  0
    0.7010   67.3970   67.5620 C   0  0  0  0  0  0  0  0  0  0  0  0
    1.7520   68.8190   65.7430 C   0  0  0  0  0  0  0  0  0  0  0  0
    2.6710   69.2680   66.5080 O   0  0  0  0  0  0  0  0  0  0  0  0
    1.7700   68.8180   64.4740 O   0  0  0  0  0  1  0  0  0  0  0  0
   -0.9950   69.3250   64.9220 O   0  0  0  0  0  0  0  0  0  0  0  0
   -0.4077   64.0147   73.4844 H   0  0  0  0  0  0  0  0  0  0  0  0
   -0.6674   65.4600   71.4728 H   0  0  0  0  0  0  0  0  0  0  0  0
    3.0503   63.9450   69.8833 H   0  0  0  0  0  0  0  0  0  0  0  0
    3.3143   62.4932   71.8889 H   0  0  0  0  0  0  0  0  0  0  0  0
    2.2726   60.6904   72.7828 H   0  0  0  0  0  0  0  0  0  0  0  0
    2.9694   60.7322   75.6768 H   0  0  0  0  0  0  0  0  0  0  0  0
    1.8248   59.4587   75.0793 H   0  0  0  0  0  0  0  0  0  0  0  0
    4.6564   59.3942   75.0757 H   0  0  0  0  0  0  0  0  0  0  0  0
    3.4995   58.2200   74.3339 H   0  0  0  0  0  0  0  0  0  0  0  0
   -2.5707   66.7531   68.2814 H   0  0  0  0  0  0  0  0  0  0  0  0
   -2.8798   68.2214   66.2917 H   0  0  0  0  0  0  0  0  0  0  0  0
    1.7133   67.1696   67.9274 H   0  0  0  0  0  0  0  0  0  0  0  0
   -0.2378   69.7256   64.4257 H   0  0  0  0  0  0  0  0  0  0  0  0
  2  1  2  0
  3  2  1  0
  4  3  2  0
  5  4  1  0
  6  5  2  0
  6  1  1  0
  8  7  1  0
  8  1  1  0
  9  8  2  0
 10  7  1  0
 11 10  1  0
 13 12  1  0
 13 11  1  0
 14 13  2  0
 15  4  1  0
 16 15  2  0
 17 16  1  0
 18 17  2  0
 19 18  1  0
 20 19  2  0
 21 20  1  0
 22 21  2  0
 22 17  1  0
 23 21  1  0
 24 23  2  0
 25 23  1  0
 26 20  1  0
  2 27  1  0
  3 28  1  0
  5 29  1  0
  6 30  1  0
  7 31  1  0
 10 32  1  0
 10 33  1  0
 11 34  1  0
 11 35  1  0
 18 36  1  0
 19 37  1  0
 22 38  1  0
 26 39  1  0
M  CHG  2  12  -1  25  -1
M  END
>  <score>  (3) 
-8.495

$$$$
=
     RDKit          3D

 39 40  0  0  0  0  0  0  0  0999 V2000
    0.9740   65.7640   69.9850 C   0  0  0  0  0  0  0  0  0  0  0  0
    0.0360   65.2450   70.8880 C   0  0  0  0  0  0  0  0  0  0  0  0
    0.3650   64.1450   71.6910 C   0  0  0  0  0  0  0  0  0  0  0  0
    1.6210   63.5350   71.6010 C   0  0  0  0  0  0  0  0  0  0  0  0
    2.5580   64.0590   70.7030 C   0  0  0  0  0  0  0  0  0  0  0  0
    2.2360   65.1580   69.8990 C   0  0  0  0  0  0  0  0  0  0  0  0
    1.5480   67.9960   69.1570 N   0  0  0  0  0  0  0  0  0  0  0  0
    0.6860   66.9280   69.0870 C   0  0  0  0  0  0  0  0  0  0  0  0
   -0.2820   66.8930   68.3330 O   0  0  0  0  0  0  0  0  0  0  0  0
    1.5150   69.0960   68.2150 C   0  0  0  0  0  0  0  0  0  0  0  0
    2.8570   69.2970   67.5360 C   0  0  0  0  0  0  0  0  0  0  0  0
    4.7880   70.6310   67.7710 O   0  0  0  0  0  1  0  0  0  0  0  0
    3.7600   70.2060   68.3680 C   0  0  0  0  0  0  0  0  0  0  0  0
    3.3580   70.4380   69.5470 O   0  0  0  0  0  0  0  0  0  0  0  0
    1.9240   62.4530   72.4480 N   0  0  0  0  0  0  0  0  0  0  0  0
    2.2620   61.4470   71.7830 N   0  0  0  0  0  0  0  0  0  0  0  0
    2.5570   60.3520   72.6210 C   0  0  0  0  0  0  0  0  0  0  0  0
    3.7400   60.2840   73.3730 C   0  0  0  0  0  0  0  0  0  0  0  0
    3.9840   59.2030   74.2210 C   0  0  0  0  0  0  0  0  0  0  0  0
    3.0390   58.1880   74.3340 C   0  0  0  0  0  0  0  0  0  0  0  0
    1.8370   58.2250   73.6120 C   0  0  0  0  0  0  0  0  0  0  0  0
    1.6130   59.3240   72.7590 C   0  0  0  0  0  0  0  0  0  0  0  0
    0.8090   57.1290   73.7430 C   0  0  0  0  0  0  0  0  0  0  0  0
    1.2540   55.9370   73.6280 O   0  0  0  0  0  0  0  0  0  0  0  0
   -0.3980   57.4580   73.9550 O   0  0  0  0  0  1  0  0  0  0  0  0
    3.3370   57.1570   75.1870 O   0  0  0  0  0  0  0  0  0  0  0  0
   -0.9612   65.7026   70.9664 H   0  0  0  0  0  0  0  0  0  0  0  0
   -0.3762   63.7546   72.4038 H   0  0  0  0  0  0  0  0  0  0  0  0
    3.5562   63.6029   70.6286 H   0  0  0  0  0  0  0  0  0  0  0  0
    2.9810   65.5511   69.1916 H   0  0  0  0  0  0  0  0  0  0  0  0
    2.2481   68.0152   69.9122 H   0  0  0  0  0  0  0  0  0  0  0  0
    0.7558   68.8849   67.4475 H   0  0  0  0  0  0  0  0  0  0  0  0
    1.2717   70.0141   68.7699 H   0  0  0  0  0  0  0  0  0  0  0  0
    3.3469   68.3201   67.4109 H   0  0  0  0  0  0  0  0  0  0  0  0
    2.6877   69.7709   66.5579 H   0  0  0  0  0  0  0  0  0  0  0  0
    4.4828   61.0914   73.2931 H   0  0  0  0  0  0  0  0  0  0  0  0
    4.9194   59.1535   74.7977 H   0  0  0  0  0  0  0  0  0  0  0  0
    0.6747   59.3769   72.1873 H   0  0  0  0  0  0  0  0  0  0  0  0
    2.6977   56.4101   75.3031 H   0  0  0  0  0  0  0  0  0  0  0  0
  2  1  2  0
  3  2  1  0
  4  3  2  0
  5  4  1  0
  6  5  2  0
  6  1  1  0
  8  7  1  0
  8  1  1  0
  9  8  2  0
 10  7  1  0
 11 10  1  0
 13 12  1  0
 13 11  1  0
 14 13  2  0
 15  4  1  0
 16 15  2  0
 17 16  1  0
 18 17  2  0
 19 18  1  0
 20 19  2  0
 21 20  1  0
 22 21  2  0
 22 17  1  0
 23 21  1  0
 24 23  2  0
 25 23  1  0
 26 20  1  0
  2 27  1  0
  3 28  1  0
  5 29  1  0
  6 30  1  0
  7 31  1  0
 10 32  1  0
 10 33  1  0
 11 34  1  0
 11 35  1  0
 18 36  1  0
 19 37  1  0
 22 38  1  0
 26 39  1  0
M  CHG  2  12  -1  25  -1
M  END
>  <score>  (4) 
-7.794

$$$$
=
     RDKit          3D

 39 40  0  0  0  0  0  0  0  0999 V2000
    0.9570   65.3410   70.3240 C   0  0  0  0  0  0  0  0  0  0  0  0
    0.0900   64.7210   71.2320 C   0  0  0  0  0  0  0  0  0  0  0  0
    0.5340   63.6420   72.0080 C   0  0  0  0  0  0  0  0  0  0  0  0
    1.8390   63.1520   71.8830 C   0  0  0  0  0  0  0  0  0  0  0  0
    2.7060   63.7780   70.9780 C   0  0  0  0  0  0  0  0  0  0  0  0
    2.2680   64.8570   70.2020 C   0  0  0  0  0  0  0  0  0  0  0  0
    1.4530   67.5110   69.3010 N   0  0  0  0  0  0  0  0  0  0  0  0
    0.5460   66.4900   69.4550 C   0  0  0  0  0  0  0  0  0  0  0  0
   -0.5580   66.4840   68.9160 O   0  0  0  0  0  0  0  0  0  0  0  0
    1.2770   68.5800   68.3400 C   0  0  0  0  0  0  0  0  0  0  0  0
    1.8640   68.2230   66.9870 C   0  0  0  0  0  0  0  0  0  0  0  0
   -0.0020   68.7050   65.6270 O   0  0  0  0  0  1  0  0  0  0  0  0
    0.7710   67.7840   66.0150 C   0  0  0  0  0  0  0  0  0  0  0  0
    0.7840   66.5570   65.7000 O   0  0  0  0  0  0  0  0  0  0  0  0
    2.2580   62.0880   72.7030 N   0  0  0  0  0  0  0  0  0  0  0  0
    1.9170   60.9880   72.2130 N   0  0  0  0  0  0  0  0  0  0  0  0
    2.3200   59.9130   73.0330 C   0  0  0  0  0  0  0  0  0  0  0  0
    3.3430   60.0430   73.9840 C   0  0  0  0  0  0  0  0  0  0  0  0
    3.6920   58.9710   74.8060 C   0  0  0  0  0  0  0  0  0  0  0  0
    3.0100   57.7630   74.6910 C   0  0  0  0  0  0  0  0  0  0  0  0
    1.9710   57.5960   73.7630 C   0  0  0  0  0  0  0  0  0  0  0  0
    1.6380   58.6920   72.9420 C   0  0  0  0  0  0  0  0  0  0  0  0
    1.2260   56.2900   73.6460 C   0  0  0  0  0  0  0  0  0  0  0  0
   -0.0370   56.3870   73.4860 O   0  0  0  0  0  0  0  0  0  0  0  0
    1.8900   55.2110   73.7110 O   0  0  0  0  0  1  0  0  0  0  0  0
    3.3990   56.7500   75.5290 O   0  0  0  0  0  0  0  0  0  0  0  0
   -0.9437   65.0823   71.3366 H   0  0  0  0  0  0  0  0  0  0  0  0
   -0.1539   63.1727   72.7267 H   0  0  0  0  0  0  0  0  0  0  0  0
    3.7405   63.4181   70.8765 H   0  0  0  0  0  0  0  0  0  0  0  0
    2.9589   65.3305   69.4890 H   0  0  0  0  0  0  0  0  0  0  0  0
    2.2945   67.5161   69.8949 H   0  0  0  0  0  0  0  0  0  0  0  0
    0.2016   68.7781   68.2206 H   0  0  0  0  0  0  0  0  0  0  0  0
    1.8031   69.4693   68.7173 H   0  0  0  0  0  0  0  0  0  0  0  0
    2.3796   69.1030   66.5750 H   0  0  0  0  0  0  0  0  0  0  0  0
    2.5700   67.3900   67.1200 H   0  0  0  0  0  0  0  0  0  0  0  0
    3.8757   61.0003   74.0827 H   0  0  0  0  0  0  0  0  0  0  0  0
    4.5025   59.0800   75.5417 H   0  0  0  0  0  0  0  0  0  0  0  0
    0.8224   58.5865   72.2115 H   0  0  0  0  0  0  0  0  0  0  0  0
    2.9455   55.8710   75.4868 H   0  0  0  0  0  0  0  0  0  0  0  0
  2  1  2  0
  3  2  1  0
  4  3  2  0
  5  4  1  0
  6  5  2  0
  6  1  1  0
  8  7  1  0
  8  1  1  0
  9  8  2  0
 10  7  1  0
 11 10  1  0
 13 12  1  0
 13 11  1  0
 14 13  2  0
 15  4  1  0
 16 15  2  0
 17 16  1  0
 18 17  2  0
 19 18  1  0
 20 19  2  0
 21 20  1  0
 22 21  2  0
 22 17  1  0
 23 21  1  0
 24 23  2  0
 25 23  1  0
 26 20  1  0
  2 27  1  0
  3 28  1  0
  5 29  1  0
  6 30  1  0
  7 31  1  0
 10 32  1  0
 10 33  1  0
 11 34  1  0
 11 35  1  0
 18 36  1  0
 19 37  1  0
 22 38  1  0
 26 39  1  0
M  CHG  2  12  -1  25  -1
M  END
>  <score>  (5) 
-7.778

$$$$
=
     RDKit          3D

 39 40  0  0  0  0  0  0  0  0999 V2000
   -0.0500   67.5190   68.0320 C   0  0  0  0  0  0  0  0  0  0  0  0
   -1.0000   66.5650   68.4190 C   0  0  0  0  0  0  0  0  0  0  0  0
   -0.7210   65.6760   69.4660 C   0  0  0  0  0  0  0  0  0  0  0  0
    0.5080   65.7100   70.1340 C   0  0  0  0  0  0  0  0  0  0  0  0
    1.4530   66.6690   69.7490 C   0  0  0  0  0  0  0  0  0  0  0  0
    1.1800   67.5600   68.7050 C   0  0  0  0  0  0  0  0  0  0  0  0
    0.0870   68.0830   65.6530 N   0  0  0  0  0  0  0  0  0  0  0  0
   -0.2750   68.4900   66.9140 C   0  0  0  0  0  0  0  0  0  0  0  0
   -0.7680   69.5910   67.1510 O   0  0  0  0  0  0  0  0  0  0  0  0
   -0.2540   68.8280   64.4580 C   0  0  0  0  0  0  0  0  0  0  0  0
    0.8660   68.7930   63.4350 C   0  0  0  0  0  0  0  0  0  0  0  0
    2.8300   69.2030   64.6740 O   0  0  0  0  0  1  0  0  0  0  0  0
    2.1710   68.3130   64.0680 C   0  0  0  0  0  0  0  0  0  0  0  0
    2.4220   67.0800   63.9250 O   0  0  0  0  0  0  0  0  0  0  0  0
    0.7370   64.8240   71.2020 N   0  0  0  0  0  0  0  0  0  0  0  0
    1.7570   64.1290   70.9930 N   0  0  0  0  0  0  0  0  0  0  0  0
    1.9910   63.2260   72.0510 C   0  0  0  0  0  0  0  0  0  0  0  0
    1.4340   63.4100   73.3260 C   0  0  0  0  0  0  0  0  0  0  0  0
    1.6540   62.4780   74.3400 C   0  0  0  0  0  0  0  0  0  0  0  0
    2.4230   61.3470   74.0840 C   0  0  0  0  0  0  0  0  0  0  0  0
    2.9850   61.1170   72.8190 C   0  0  0  0  0  0  0  0  0  0  0  0
    2.7520   62.0740   71.8100 C   0  0  0  0  0  0  0  0  0  0  0  0
    3.8090   59.8860   72.5390 C   0  0  0  0  0  0  0  0  0  0  0  0
    4.9270   60.0910   71.9550 O   0  0  0  0  0  0  0  0  0  0  0  0
    3.3480   58.7590   72.8960 O   0  0  0  0  0  1  0  0  0  0  0  0
    2.5980   60.4690   75.1220 O   0  0  0  0  0  0  0  0  0  0  0  0
   -1.9682   66.5134   67.8994 H   0  0  0  0  0  0  0  0  0  0  0  0
   -1.4805   64.9396   69.7675 H   0  0  0  0  0  0  0  0  0  0  0  0
    2.4191   66.7225   70.2722 H   0  0  0  0  0  0  0  0  0  0  0  0
    1.9379   68.3003   68.4091 H   0  0  0  0  0  0  0  0  0  0  0  0
    0.6244   67.2100   65.5526 H   0  0  0  0  0  0  0  0  0  0  0  0
   -1.1586   68.3900   64.0110 H   0  0  0  0  0  0  0  0  0  0  0  0
   -0.4234   69.8764   64.7447 H   0  0  0  0  0  0  0  0  0  0  0  0
    0.5880   68.1079   62.6205 H   0  0  0  0  0  0  0  0  0  0  0  0
    1.0183   69.8110   63.0472 H   0  0  0  0  0  0  0  0  0  0  0  0
    0.8176   64.2984   73.5277 H   0  0  0  0  0  0  0  0  0  0  0  0
    1.2211   62.6365   75.3387 H   0  0  0  0  0  0  0  0  0  0  0  0
    3.1781   61.9124   70.8088 H   0  0  0  0  0  0  0  0  0  0  0  0
    3.1369   59.6489   74.9911 H   0  0  0  0  0  0  0  0  0  0  0  0
  2  1  2  0
  3  2  1  0
  4  3  2  0
  5  4  1  0
  6  5  2  0
  6  1  1  0
  8  7  1  0
  8  1  1  0
  9  8  2  0
 10  7  1  0
 11 10  1  0
 13 12  1  0
 13 11  1  0
 14 13  2  0
 15  4  1  0
 16 15  2  0
 17 16  1  0
 18 17  2  0
 19 18  1  0
 20 19  2  0
 21 20  1  0
 22 21  2  0
 22 17  1  0
 23 21  1  0
 24 23  2  0
 25 23  1  0
 26 20  1  0
  2 27  1  0
  3 28  1  0
  5 29  1  0
  6 30  1  0
  7 31  1  0
 10 32  1  0
 10 33  1  0
 11 34  1  0
 11 35  1  0
 18 36  1  0
 19 37  1  0
 22 38  1  0
 26 39  1  0
M  CHG  2  12  -1  25  -1
M  END
>  <score>  (6) 
-7.661

$$$$
=
     RDKit          3D

 39 40  0  0  0  0  0  0  0  0999 V2000
    1.2230   65.3850   70.1140 C   0  0  0  0  0  0  0  0  0  0  0  0
    2.4330   64.7910   70.4950 C   0  0  0  0  0  0  0  0  0  0  0  0
    2.4350   63.5550   71.1560 C   0  0  0  0  0  0  0  0  0  0  0  0
    1.2380   62.8980   71.4620 C   0  0  0  0  0  0  0  0  0  0  0  0
    0.0300   63.4920   71.0750 C   0  0  0  0  0  0  0  0  0  0  0  0
    0.0220   64.7250   70.4130 C   0  0  0  0  0  0  0  0  0  0  0  0
    0.2510   66.8160   68.3800 N   0  0  0  0  0  0  0  0  0  0  0  0
    1.1460   66.7090   69.4170 C   0  0  0  0  0  0  0  0  0  0  0  0
    1.8630   67.6360   69.7860 O   0  0  0  0  0  0  0  0  0  0  0  0
   -0.0750   68.0800   67.7510 C   0  0  0  0  0  0  0  0  0  0  0  0
   -0.9530   67.8890   66.5280 C   0  0  0  0  0  0  0  0  0  0  0  0
   -2.6830   67.3300   68.0310 O   0  0  0  0  0  1  0  0  0  0  0  0
   -2.4310   67.8640   66.9150 C   0  0  0  0  0  0  0  0  0  0  0  0
   -3.2200   68.3990   66.0800 O   0  0  0  0  0  0  0  0  0  0  0  0
    1.2820   61.6430   72.0960 N   0  0  0  0  0  0  0  0  0  0  0  0
    2.4370   61.3950   72.5130 N   0  0  0  0  0  0  0  0  0  0  0  0
    2.4980   60.1340   73.1390 C   0  0  0  0  0  0  0  0  0  0  0  0
    3.6510   59.6830   73.8000 C   0  0  0  0  0  0  0  0  0  0  0  0
    3.6660   58.4450   74.4430 C   0  0  0  0  0  0  0  0  0  0  0  0
    2.5220   57.6530   74.4410 C   0  0  0  0  0  0  0  0  0  0  0  0
    1.3440   58.0720   73.8060 C   0  0  0  0  0  0  0  0  0  0  0  0
    1.3530   59.3250   73.1600 C   0  0  0  0  0  0  0  0  0  0  0  0
    0.1020   57.2170   73.8130 C   0  0  0  0  0  0  0  0  0  0  0  0
    0.2420   56.0350   73.3500 O   0  0  0  0  0  0  0  0  0  0  0  0
   -0.9710   57.7180   74.2700 O   0  0  0  0  0  1  0  0  0  0  0  0
    2.6020   56.4500   75.0940 O   0  0  0  0  0  0  0  0  0  0  0  0
    3.3849   65.2963   70.2747 H   0  0  0  0  0  0  0  0  0  0  0  0
    3.3929   63.0941   71.4387 H   0  0  0  0  0  0  0  0  0  0  0  0
   -0.9212   62.9846   71.2934 H   0  0  0  0  0  0  0  0  0  0  0  0
   -0.9363   65.1814   70.1241 H   0  0  0  0  0  0  0  0  0  0  0  0
   -0.2079   65.9609   68.0349 H   0  0  0  0  0  0  0  0  0  0  0  0
   -0.6074   68.7124   68.4767 H   0  0  0  0  0  0  0  0  0  0  0  0
    0.8636   68.5543   67.4283 H   0  0  0  0  0  0  0  0  0  0  0  0
   -0.7786   68.7182   65.8266 H   0  0  0  0  0  0  0  0  0  0  0  0
   -0.6968   66.9277   66.0587 H   0  0  0  0  0  0  0  0  0  0  0  0
    4.5529   60.3127   73.8112 H   0  0  0  0  0  0  0  0  0  0  0  0
    4.5782   58.0965   74.9493 H   0  0  0  0  0  0  0  0  0  0  0  0
    0.4387   59.6769   72.6598 H   0  0  0  0  0  0  0  0  0  0  0  0
    1.8159   55.8488   75.1222 H   0  0  0  0  0  0  0  0  0  0  0  0
  2  1  2  0
  3  2  1  0
  4  3  2  0
  5  4  1  0
  6  5  2  0
  6  1  1  0
  8  7  1  0
  8  1  1  0
  9  8  2  0
 10  7  1  0
 11 10  1  0
 13 12  1  0
 13 11  1  0
 14 13  2  0
 15  4  1  0
 16 15  2  0
 17 16  1  0
 18 17  2  0
 19 18  1  0
 20 19  2  0
 21 20  1  0
 22 21  2  0
 22 17  1  0
 23 21  1  0
 24 23  2  0
 25 23  1  0
 26 20  1  0
  2 27  1  0
  3 28  1  0
  5 29  1  0
  6 30  1  0
  7 31  1  0
 10 32  1  0
 10 33  1  0
 11 34  1  0
 11 35  1  0
 18 36  1  0
 19 37  1  0
 22 38  1  0
 26 39  1  0
M  CHG  2  12  -1  25  -1
M  END
>  <score>  (7) 
-7.531

$$$$
=
     RDKit          3D

 39 40  0  0  0  0  0  0  0  0999 V2000
    3.8110   65.8590   63.8200 C   0  0  0  0  0  0  0  0  0  0  0  0
    3.0450   66.0480   64.9770 C   0  0  0  0  0  0  0  0  0  0  0  0
    3.0350   65.0730   65.9840 C   0  0  0  0  0  0  0  0  0  0  0  0
    3.7710   63.8900   65.8500 C   0  0  0  0  0  0  0  0  0  0  0  0
    4.5400   63.7060   64.6940 C   0  0  0  0  0  0  0  0  0  0  0  0
    4.5550   64.6770   63.6870 C   0  0  0  0  0  0  0  0  0  0  0  0
    2.7490   67.6430   62.5210 N   0  0  0  0  0  0  0  0  0  0  0  0
    3.8580   66.8520   62.6990 C   0  0  0  0  0  0  0  0  0  0  0  0
    4.8620   66.9310   61.9950 O   0  0  0  0  0  0  0  0  0  0  0  0
    2.7270   68.7740   61.6160 C   0  0  0  0  0  0  0  0  0  0  0  0
    1.3670   69.4470   61.5880 C   0  0  0  0  0  0  0  0  0  0  0  0
    0.6150   69.4330   63.8240 O   0  0  0  0  0  1  0  0  0  0  0  0
    0.4630   68.8980   62.6900 C   0  0  0  0  0  0  0  0  0  0  0  0
   -0.3410   67.9880   62.3300 O   0  0  0  0  0  0  0  0  0  0  0  0
    3.7610   62.9500   66.8970 N   0  0  0  0  0  0  0  0  0  0  0  0
    3.4260   63.4890   67.9760 N   0  0  0  0  0  0  0  0  0  0  0  0
    3.4250   62.5590   69.0370 C   0  0  0  0  0  0  0  0  0  0  0  0
    4.0660   61.3140   68.9390 C   0  0  0  0  0  0  0  0  0  0  0  0
    4.0790   60.4330   70.0200 C   0  0  0  0  0  0  0  0  0  0  0  0
    3.4610   60.7950   71.2130 C   0  0  0  0  0  0  0  0  0  0  0  0
    2.8230   62.0360   71.3580 C   0  0  0  0  0  0  0  0  0  0  0  0
    2.8200   62.9090   70.2520 C   0  0  0  0  0  0  0  0  0  0  0  0
    2.1630   62.4320   72.6550 C   0  0  0  0  0  0  0  0  0  0  0  0
    2.8180   62.1530   73.7160 O   0  0  0  0  0  0  0  0  0  0  0  0
    1.0310   63.0030   72.6040 O   0  0  0  0  0  1  0  0  0  0  0  0
    3.5130   59.8860   72.2380 O   0  0  0  0  0  0  0  0  0  0  0  0
    2.4490   66.9649   65.0960 H   0  0  0  0  0  0  0  0  0  0  0  0
    2.4395   65.2402   66.8936 H   0  0  0  0  0  0  0  0  0  0  0  0
    5.1375   62.7899   64.5768 H   0  0  0  0  0  0  0  0  0  0  0  0
    5.1567   64.5119   62.7811 H   0  0  0  0  0  0  0  0  0  0  0  0
    1.8959   67.4223   63.0543 H   0  0  0  0  0  0  0  0  0  0  0  0
    3.4800   69.5063   61.9428 H   0  0  0  0  0  0  0  0  0  0  0  0
    2.9472   68.4058   60.6031 H   0  0  0  0  0  0  0  0  0  0  0  0
    1.4978   70.5292   61.7356 H   0  0  0  0  0  0  0  0  0  0  0  0
    0.8958   69.2455   60.6147 H   0  0  0  0  0  0  0  0  0  0  0  0
    4.5633   61.0303   67.9997 H   0  0  0  0  0  0  0  0  0  0  0  0
    4.5759   59.4558   69.9299 H   0  0  0  0  0  0  0  0  0  0  0  0
    2.3306   63.8898   70.3444 H   0  0  0  0  0  0  0  0  0  0  0  0
    3.0885   60.0956   73.1075 H   0  0  0  0  0  0  0  0  0  0  0  0
  2  1  2  0
  3  2  1  0
  4  3  2  0
  5  4  1  0
  6  5  2  0
  6  1  1  0
  8  7  1  0
  8  1  1  0
  9  8  2  0
 10  7  1  0
 11 10  1  0
 13 12  1  0
 13 11  1  0
 14 13  2  0
 15  4  1  0
 16 15  2  0
 17 16  1  0
 18 17  2  0
 19 18  1  0
 20 19  2  0
 21 20  1  0
 22 21  2  0
 22 17  1  0
 23 21  1  0
 24 23  2  0
 25 23  1  0
 26 20  1  0
  2 27  1  0
  3 28  1  0
  5 29  1  0
  6 30  1  0
  7 31  1  0
 10 32  1  0
 10 33  1  0
 11 34  1  0
 11 35  1  0
 18 36  1  0
 19 37  1  0
 22 38  1  0
 26 39  1  0
M  CHG  2  12  -1  25  -1
M  END
>  <score>  (8) 
-7.453

$$$$
=
     RDKit          3D

 39 40  0  0  0  0  0  0  0  0999 V2000
    1.2870   61.6620   73.1050 C   0  0  0  0  0  0  0  0  0  0  0  0
    0.0070   61.9550   72.6180 C   0  0  0  0  0  0  0  0  0  0  0  0
   -0.1570   62.8730   71.5720 C   0  0  0  0  0  0  0  0  0  0  0  0
    0.9440   63.5250   71.0050 C   0  0  0  0  0  0  0  0  0  0  0  0
    2.2230   63.2270   71.4910 C   0  0  0  0  0  0  0  0  0  0  0  0
    2.3930   62.3090   72.5340 C   0  0  0  0  0  0  0  0  0  0  0  0
    1.3390   59.3680   73.9620 N   0  0  0  0  0  0  0  0  0  0  0  0
    1.5350   60.7020   74.2280 C   0  0  0  0  0  0  0  0  0  0  0  0
    1.8990   61.1230   75.3230 O   0  0  0  0  0  0  0  0  0  0  0  0
    1.7290   58.3180   74.8810 C   0  0  0  0  0  0  0  0  0  0  0  0
    1.9310   56.9940   74.1680 C   0  0  0  0  0  0  0  0  0  0  0  0
    0.6400   55.0200   74.1100 O   0  0  0  0  0  1  0  0  0  0  0  0
    0.5990   56.2740   73.9640 C   0  0  0  0  0  0  0  0  0  0  0  0
   -0.3870   57.0220   73.6920 O   0  0  0  0  0  0  0  0  0  0  0  0
    0.7420   64.4150   69.9350 N   0  0  0  0  0  0  0  0  0  0  0  0
    0.4040   65.5460   70.3530 N   0  0  0  0  0  0  0  0  0  0  0  0
    0.1860   66.4450   69.2890 C   0  0  0  0  0  0  0  0  0  0  0  0
   -1.0340   66.4990   68.5960 C   0  0  0  0  0  0  0  0  0  0  0  0
   -1.2310   67.4260   67.5720 C   0  0  0  0  0  0  0  0  0  0  0  0
   -0.2130   68.3160   67.2420 C   0  0  0  0  0  0  0  0  0  0  0  0
    1.0150   68.3060   67.9190 C   0  0  0  0  0  0  0  0  0  0  0  0
    1.1930   67.3580   68.9480 C   0  0  0  0  0  0  0  0  0  0  0  0
    2.1130   69.2770   67.5680 C   0  0  0  0  0  0  0  0  0  0  0  0
    2.4950   69.2630   66.3490 O   0  0  0  0  0  0  0  0  0  0  0  0
    2.5700   70.0260   68.4840 O   0  0  0  0  0  1  0  0  0  0  0  0
   -0.4720   69.2030   66.2290 O   0  0  0  0  0  0  0  0  0  0  0  0
   -0.8728   61.4628   73.0581 H   0  0  0  0  0  0  0  0  0  0  0  0
   -1.1669   63.0845   71.1906 H   0  0  0  0  0  0  0  0  0  0  0  0
    3.1021   63.7188   71.0491 H   0  0  0  0  0  0  0  0  0  0  0  0
    3.4040   62.0928   72.9096 H   0  0  0  0  0  0  0  0  0  0  0  0
    0.8957   59.1032   73.0708 H   0  0  0  0  0  0  0  0  0  0  0  0
    2.6704   58.6056   75.3720 H   0  0  0  0  0  0  0  0  0  0  0  0
    0.9225   58.1907   75.6181 H   0  0  0  0  0  0  0  0  0  0  0  0
    2.3933   57.1802   73.1874 H   0  0  0  0  0  0  0  0  0  0  0  0
    2.5822   56.3585   74.7862 H   0  0  0  0  0  0  0  0  0  0  0  0
   -1.8429   65.8032   68.8632 H   0  0  0  0  0  0  0  0  0  0  0  0
   -2.1866   67.4534   67.0279 H   0  0  0  0  0  0  0  0  0  0  0  0
    2.1461   67.3347   69.4966 H   0  0  0  0  0  0  0  0  0  0  0  0
    0.2187   69.8573   65.9554 H   0  0  0  0  0  0  0  0  0  0  0  0
  2  1  2  0
  3  2  1  0
  4  3  2  0
  5  4  1  0
  6  5  2  0
  6  1  1  0
  8  7  1  0
  8  1  1  0
  9  8  2  0
 10  7  1  0
 11 10  1  0
 13 12  1  0
 13 11  1  0
 14 13  2  0
 15  4  1  0
 16 15  2  0
 17 16  1  0
 18 17  2  0
 19 18  1  0
 20 19  2  0
 21 20  1  0
 22 21  2  0
 22 17  1  0
 23 21  1  0
 24 23  2  0
 25 23  1  0
 26 20  1  0
  2 27  1  0
  3 28  1  0
  5 29  1  0
  6 30  1  0
  7 31  1  0
 10 32  1  0
 10 33  1  0
 11 34  1  0
 11 35  1  0
 18 36  1  0
 19 37  1  0
 22 38  1  0
 26 39  1  0
M  CHG  2  12  -1  25  -1
M  END
>  <score>  (9) 
-7.353

$$$$
