=
     RDKit          3D

 33 36  0  0  0  0  0  0  0  0999 V2000
    0.0280   68.0070   62.1480 C   0  0  0  0  0  0  0  0  0  0  0  0
    1.3600   68.3490   62.7000 C   0  0  0  0  0  0  0  0  0  0  0  0
    2.5640   68.4230   62.0200 C   0  0  0  0  0  0  0  0  0  0  0  0
    3.5810   68.7740   62.8570 O   0  0  0  0  0  0  0  0  0  0  0  0
    3.0240   68.9220   64.0820 C   0  0  0  0  0  0  0  0  0  0  0  0
    3.8170   69.3290   65.2200 C   0  0  0  0  0  0  0  0  0  0  0  0
    3.1820   69.4420   66.4820 C   0  0  0  0  0  0  0  0  0  0  0  0
    1.7190   69.0340   66.5670 C   0  0  0  0  0  0  0  0  0  0  0  0
    1.1400   68.8440   67.6290 O   0  0  0  0  0  0  0  0  0  0  0  0
    0.9240   68.7890   65.2650 C   0  0  0  0  0  0  0  0  0  0  0  0
   -0.2960   68.6970   65.2930 O   0  0  0  0  0  0  0  0  0  0  0  0
    1.6800   68.6720   64.0460 C   0  0  0  0  0  0  0  0  0  0  0  0
    3.9230   69.8940   67.6250 C   0  0  0  0  0  0  0  0  0  0  0  0
    3.3740   70.0890   68.9180 C   0  0  0  0  0  0  0  0  0  0  0  0
    4.1350   70.5270   70.0020 C   0  0  0  0  0  0  0  0  0  0  0  0
    5.4820   70.7950   69.8350 C   0  0  0  0  0  0  0  0  0  0  0  0
    6.0820   70.6350   68.5810 C   0  0  0  0  0  0  0  0  0  0  0  0
    5.3120   70.1910   67.4680 C   0  0  0  0  0  0  0  0  0  0  0  0
    5.8980   70.0410   66.1950 C   0  0  0  0  0  0  0  0  0  0  0  0
    5.1670   69.6240   65.0870 C   0  0  0  0  0  0  0  0  0  0  0  0
    7.5540   70.9510   68.4650 C   0  0  0  0  0  0  0  0  0  0  0  0
   -0.6758   67.8263   62.9739 H   0  0  0  0  0  0  0  0  0  0  0  0
   -0.3379   68.8403   61.5302 H   0  0  0  0  0  0  0  0  0  0  0  0
    0.1089   67.1005   61.5302 H   0  0  0  0  0  0  0  0  0  0  0  0
    2.6841   68.2245   60.9447 H   0  0  0  0  0  0  0  0  0  0  0  0
    2.3039   69.8865   69.0725 H   0  0  0  0  0  0  0  0  0  0  0  0
    3.6650   70.6591   70.9877 H   0  0  0  0  0  0  0  0  0  0  0  0
    6.0834   71.1350   70.6910 H   0  0  0  0  0  0  0  0  0  0  0  0
    6.9689   70.2609   66.0734 H   0  0  0  0  0  0  0  0  0  0  0  0
    5.6579   69.5282   64.1073 H   0  0  0  0  0  0  0  0  0  0  0  0
    7.9893   71.0445   69.4709 H   0  0  0  0  0  0  0  0  0  0  0  0
    8.0610   70.1412   67.9198 H   0  0  0  0  0  0  0  0  0  0  0  0
    7.6840   71.8975   67.9198 H   0  0  0  0  0  0  0  0  0  0  0  0
  2  1  1  0
  3  2  2  0
  4  3  1  0
  5  4  1  0
  6  5  1  0
  7  6  2  0
  8  7  1  0
  9  8  2  0
 10  8  1  0
 11 10  2  0
 12 10  1  0
 12  5  2  0
 12  2  1  0
 13  7  1  0
 14 13  2  0
 15 14  1  0
 16 15  2  0
 17 16  1  0
 18 13  1  0
 18 17  2  0
 19 18  1  0
 20  6  1  0
 20 19  2  0
 21 17  1  0
  1 22  1  0
  1 23  1  0
  1 24  1  0
  3 25  1  0
 14 26  1  0
 15 27  1  0
 16 28  1  0
 19 29  1  0
 20 30  1  0
 21 31  1  0
 21 32  1  0
 21 33  1  0
M  END
>  <score>  (1) 
-11.277

$$$$
=
     RDKit          3D

 33 36  0  0  0  0  0  0  0  0999 V2000
   -2.3980   68.1390   65.2310 C   0  0  0  0  0  0  0  0  0  0  0  0
   -1.3820   68.6740   66.1680 C   0  0  0  0  0  0  0  0  0  0  0  0
   -1.5820   69.1460   67.4540 C   0  0  0  0  0  0  0  0  0  0  0  0
   -0.4090   69.5520   68.0170 O   0  0  0  0  0  0  0  0  0  0  0  0
    0.5480   69.3420   67.0820 C   0  0  0  0  0  0  0  0  0  0  0  0
    1.9370   69.6340   67.3560 C   0  0  0  0  0  0  0  0  0  0  0  0
    2.8880   69.4170   66.3280 C   0  0  0  0  0  0  0  0  0  0  0  0
    2.3640   68.9760   64.9700 C   0  0  0  0  0  0  0  0  0  0  0  0
    3.0420   69.0040   63.9520 O   0  0  0  0  0  0  0  0  0  0  0  0
    0.8930   68.5220   64.8380 C   0  0  0  0  0  0  0  0  0  0  0  0
    0.5120   67.9420   63.8300 O   0  0  0  0  0  0  0  0  0  0  0  0
    0.0130   68.8150   65.9390 C   0  0  0  0  0  0  0  0  0  0  0  0
    4.2840   69.6440   66.5770 C   0  0  0  0  0  0  0  0  0  0  0  0
    5.3200   69.4110   65.6380 C   0  0  0  0  0  0  0  0  0  0  0  0
    6.6640   69.6500   65.9230 C   0  0  0  0  0  0  0  0  0  0  0  0
    7.0300   70.1290   67.1680 C   0  0  0  0  0  0  0  0  0  0  0  0
    6.0560   70.3680   68.1460 C   0  0  0  0  0  0  0  0  0  0  0  0
    4.6820   70.1230   67.8630 C   0  0  0  0  0  0  0  0  0  0  0  0
    3.6910   70.3420   68.8420 C   0  0  0  0  0  0  0  0  0  0  0  0
    2.3430   70.0980   68.6000 C   0  0  0  0  0  0  0  0  0  0  0  0
    6.5230   70.8830   69.4860 C   0  0  0  0  0  0  0  0  0  0  0  0
   -3.2295   67.7011   65.8027 H   0  0  0  0  0  0  0  0  0  0  0  0
   -2.7778   68.9541   64.5974 H   0  0  0  0  0  0  0  0  0  0  0  0
   -1.9408   67.3647   64.5974 H   0  0  0  0  0  0  0  0  0  0  0  0
   -2.5599   69.1879   67.9559 H   0  0  0  0  0  0  0  0  0  0  0  0
    5.0527   69.0256   64.6430 H   0  0  0  0  0  0  0  0  0  0  0  0
    7.4318   69.4579   65.1591 H   0  0  0  0  0  0  0  0  0  0  0  0
    8.0896   70.3229   67.3908 H   0  0  0  0  0  0  0  0  0  0  0  0
    3.9940   70.7184   69.8302 H   0  0  0  0  0  0  0  0  0  0  0  0
    1.6004   70.2723   69.3925 H   0  0  0  0  0  0  0  0  0  0  0  0
    6.0180   70.3261   70.2891 H   0  0  0  0  0  0  0  0  0  0  0  0
    7.6110   70.7457   69.5727 H   0  0  0  0  0  0  0  0  0  0  0  0
    6.2803   71.9524   69.5727 H   0  0  0  0  0  0  0  0  0  0  0  0
  2  1  1  0
  3  2  2  0
  4  3  1  0
  5  4  1  0
  6  5  1  0
  7  6  2  0
  8  7  1  0
  9  8  2  0
 10  8  1  0
 11 10  2  0
 12 10  1  0
 12  5  2  0
 12  2  1  0
 13  7  1  0
 14 13  2  0
 15 14  1  0
 16 15  2  0
 17 16  1  0
 18 13  1  0
 18 17  2  0
 19 18  1  0
 20  6  1  0
 20 19  2  0
 21 17  1  0
  1 22  1  0
  1 23  1  0
  1 24  1  0
  3 25  1  0
 14 26  1  0
 15 27  1  0
 16 28  1  0
 19 29  1  0
 20 30  1  0
 21 31  1  0
 21 32  1  0
 21 33  1  0
M  END
>  <score>  (2) 
-9.498

$$$$
=
     RDKit          3D

 33 36  0  0  0  0  0  0  0  0999 V2000
    5.2690   63.4640   70.2710 C   0  0  0  0  0  0  0  0  0  0  0  0
    4.6280   62.2850   70.8990 C   0  0  0  0  0  0  0  0  0  0  0  0
    5.2000   61.0520   71.1620 C   0  0  0  0  0  0  0  0  0  0  0  0
    4.3060   60.2120   71.7560 O   0  0  0  0  0  0  0  0  0  0  0  0
    3.1530   60.9130   71.8700 C   0  0  0  0  0  0  0  0  0  0  0  0
    1.9850   60.3330   72.4940 C   0  0  0  0  0  0  0  0  0  0  0  0
    0.8000   61.1070   72.5620 C   0  0  0  0  0  0  0  0  0  0  0  0
    0.8150   62.4690   71.8840 C   0  0  0  0  0  0  0  0  0  0  0  0
   -0.2020   63.1100   71.6540 O   0  0  0  0  0  0  0  0  0  0  0  0
    2.1590   63.0630   71.4070 C   0  0  0  0  0  0  0  0  0  0  0  0
    2.2350   64.2410   71.0830 O   0  0  0  0  0  0  0  0  0  0  0  0
    3.2900   62.1750   71.3630 C   0  0  0  0  0  0  0  0  0  0  0  0
   -0.3650   60.5880   73.2210 C   0  0  0  0  0  0  0  0  0  0  0  0
   -1.5820   61.2960   73.3870 C   0  0  0  0  0  0  0  0  0  0  0  0
   -2.6910   60.7490   74.0320 C   0  0  0  0  0  0  0  0  0  0  0  0
   -2.6260   59.4660   74.5450 C   0  0  0  0  0  0  0  0  0  0  0  0
   -1.4490   58.7170   74.4250 C   0  0  0  0  0  0  0  0  0  0  0  0
   -0.3110   59.2700   73.7710 C   0  0  0  0  0  0  0  0  0  0  0  0
    0.8860   58.5360   73.6570 C   0  0  0  0  0  0  0  0  0  0  0  0
    2.0190   59.0550   73.0370 C   0  0  0  0  0  0  0  0  0  0  0  0
   -1.4430   57.3270   75.0130 C   0  0  0  0  0  0  0  0  0  0  0  0
    5.6376   64.1419   71.0549 H   0  0  0  0  0  0  0  0  0  0  0  0
    6.1117   63.1337   69.6459 H   0  0  0  0  0  0  0  0  0  0  0  0
    4.5336   63.9917   69.6459 H   0  0  0  0  0  0  0  0  0  0  0  0
    6.2400   60.7851   70.9228 H   0  0  0  0  0  0  0  0  0  0  0  0
   -1.6546   62.3195   72.9905 H   0  0  0  0  0  0  0  0  0  0  0  0
   -3.6155   61.3366   74.1326 H   0  0  0  0  0  0  0  0  0  0  0  0
   -3.5023   59.0325   75.0491 H   0  0  0  0  0  0  0  0  0  0  0  0
    0.9267   57.5181   74.0721 H   0  0  0  0  0  0  0  0  0  0  0  0
    2.9388   58.4547   72.9772 H   0  0  0  0  0  0  0  0  0  0  0  0
   -1.4433   57.3934   76.1110 H   0  0  0  0  0  0  0  0  0  0  0  0
   -2.3388   56.7834   74.6783 H   0  0  0  0  0  0  0  0  0  0  0  0
   -0.5425   56.7912   74.6783 H   0  0  0  0  0  0  0  0  0  0  0  0
  2  1  1  0
  3  2  2  0
  4  3  1  0
  5  4  1  0
  6  5  1  0
  7  6  2  0
  8  7  1  0
  9  8  2  0
 10  8  1  0
 11 10  2  0
 12 10  1  0
 12  5  2  0
 12  2  1  0
 13  7  1  0
 14 13  2  0
 15 14  1  0
 16 15  2  0
 17 16  1  0
 18 13  1  0
 18 17  2  0
 19 18  1  0
 20  6  1  0
 20 19  2  0
 21 17  1  0
  1 22  1  0
  1 23  1  0
  1 24  1  0
  3 25  1  0
 14 26  1  0
 15 27  1  0
 16 28  1  0
 19 29  1  0
 20 30  1  0
 21 31  1  0
 21 32  1  0
 21 33  1  0
M  END
>  <score>  (3) 
-9.451

$$$$
=
     RDKit          3D

 33 36  0  0  0  0  0  0  0  0999 V2000
   -3.6830   68.6370   65.9160 C   0  0  0  0  0  0  0  0  0  0  0  0
   -2.2400   68.7000   66.2480 C   0  0  0  0  0  0  0  0  0  0  0  0
   -1.6610   68.6980   67.5060 C   0  0  0  0  0  0  0  0  0  0  0  0
   -0.3020   68.7600   67.4210 O   0  0  0  0  0  0  0  0  0  0  0  0
   -0.0100   68.8060   66.1000 C   0  0  0  0  0  0  0  0  0  0  0  0
    1.3590   68.8450   65.6380 C   0  0  0  0  0  0  0  0  0  0  0  0
    1.6000   68.9180   64.2430 C   0  0  0  0  0  0  0  0  0  0  0  0
    0.3900   69.0450   63.3300 C   0  0  0  0  0  0  0  0  0  0  0  0
    0.4740   69.3690   62.1530 O   0  0  0  0  0  0  0  0  0  0  0  0
   -1.0240   68.8130   63.9090 C   0  0  0  0  0  0  0  0  0  0  0  0
   -1.9830   68.6720   63.1630 O   0  0  0  0  0  0  0  0  0  0  0  0
   -1.1480   68.7770   65.3430 C   0  0  0  0  0  0  0  0  0  0  0  0
    2.9450   68.9040   63.7420 C   0  0  0  0  0  0  0  0  0  0  0  0
    3.2950   68.9230   62.3680 C   0  0  0  0  0  0  0  0  0  0  0  0
    4.6170   68.9130   61.9260 C   0  0  0  0  0  0  0  0  0  0  0  0
    5.6510   68.8770   62.8450 C   0  0  0  0  0  0  0  0  0  0  0  0
    5.3730   68.8440   64.2170 C   0  0  0  0  0  0  0  0  0  0  0  0
    4.0250   68.8510   64.6760 C   0  0  0  0  0  0  0  0  0  0  0  0
    3.7280   68.8010   66.0530 C   0  0  0  0  0  0  0  0  0  0  0  0
    2.4210   68.7910   66.5310 C   0  0  0  0  0  0  0  0  0  0  0  0
    6.5460   68.7980   65.1670 C   0  0  0  0  0  0  0  0  0  0  0  0
   -4.2721   68.6113   66.8446 H   0  0  0  0  0  0  0  0  0  0  0  0
   -3.9631   69.5238   65.3285 H   0  0  0  0  0  0  0  0  0  0  0  0
   -3.8848   67.7292   65.3285 H   0  0  0  0  0  0  0  0  0  0  0  0
   -2.2239   68.6524   68.4499 H   0  0  0  0  0  0  0  0  0  0  0  0
    2.4894   68.9466   61.6194 H   0  0  0  0  0  0  0  0  0  0  0  0
    4.8379   68.9337   60.8486 H   0  0  0  0  0  0  0  0  0  0  0  0
    6.6944   68.8743   62.4967 H   0  0  0  0  0  0  0  0  0  0  0  0
    4.5577   68.7688   66.7745 H   0  0  0  0  0  0  0  0  0  0  0  0
    2.2298   68.7405   67.6131 H   0  0  0  0  0  0  0  0  0  0  0  0
    6.1789   68.8124   66.2038 H   0  0  0  0  0  0  0  0  0  0  0  0
    7.1216   67.8766   64.9946 H   0  0  0  0  0  0  0  0  0  0  0  0
    7.1920   69.6715   64.9946 H   0  0  0  0  0  0  0  0  0  0  0  0
  2  1  1  0
  3  2  2  0
  4  3  1  0
  5  4  1  0
  6  5  1  0
  7  6  2  0
  8  7  1  0
  9  8  2  0
 10  8  1  0
 11 10  2  0
 12 10  1  0
 12  5  2  0
 12  2  1  0
 13  7  1  0
 14 13  2  0
 15 14  1  0
 16 15  2  0
 17 16  1  0
 18 13  1  0
 18 17  2  0
 19 18  1  0
 20  6  1  0
 20 19  2  0
 21 17  1  0
  1 22  1  0
  1 23  1  0
  1 24  1  0
  3 25  1  0
 14 26  1  0
 15 27  1  0
 16 28  1  0
 19 29  1  0
 20 30  1  0
 21 31  1  0
 21 32  1  0
 21 33  1  0
M  END
>  <score>  (4) 
-9.317

$$$$
=
     RDKit          3D

 33 36  0  0  0  0  0  0  0  0999 V2000
    1.4220   66.5760   69.6480 C   0  0  0  0  0  0  0  0  0  0  0  0
    0.9070   65.5650   70.6020 C   0  0  0  0  0  0  0  0  0  0  0  0
   -0.1080   65.7190   71.5310 C   0  0  0  0  0  0  0  0  0  0  0  0
   -0.3110   64.5680   72.2320 O   0  0  0  0  0  0  0  0  0  0  0  0
    0.5840   63.6730   71.7500 C   0  0  0  0  0  0  0  0  0  0  0  0
    0.6280   62.3180   72.2510 C   0  0  0  0  0  0  0  0  0  0  0  0
    1.6040   61.4350   71.7250 C   0  0  0  0  0  0  0  0  0  0  0  0
    2.6020   62.0070   70.7310 C   0  0  0  0  0  0  0  0  0  0  0  0
    3.6300   61.4260   70.4070 O   0  0  0  0  0  0  0  0  0  0  0  0
    2.3550   63.4100   70.1320 C   0  0  0  0  0  0  0  0  0  0  0  0
    3.0000   63.7930   69.1650 O   0  0  0  0  0  0  0  0  0  0  0  0
    1.3510   64.2260   70.7630 C   0  0  0  0  0  0  0  0  0  0  0  0
    1.6460   60.0660   72.1560 C   0  0  0  0  0  0  0  0  0  0  0  0
    2.5460   59.0900   71.6600 C   0  0  0  0  0  0  0  0  0  0  0  0
    2.5540   57.7710   72.1120 C   0  0  0  0  0  0  0  0  0  0  0  0
    1.6520   57.3700   73.0820 C   0  0  0  0  0  0  0  0  0  0  0  0
    0.7270   58.2820   73.6050 C   0  0  0  0  0  0  0  0  0  0  0  0
    0.7110   59.6300   73.1450 C   0  0  0  0  0  0  0  0  0  0  0  0
   -0.2240   60.5550   73.6500 C   0  0  0  0  0  0  0  0  0  0  0  0
   -0.2740   61.8750   73.2090 C   0  0  0  0  0  0  0  0  0  0  0  0
   -0.2340   57.7780   74.6540 C   0  0  0  0  0  0  0  0  0  0  0  0
    1.8523   67.4208   70.2058 H   0  0  0  0  0  0  0  0  0  0  0  0
    2.1982   66.1210   69.0151 H   0  0  0  0  0  0  0  0  0  0  0  0
    0.5976   66.9364   69.0151 H   0  0  0  0  0  0  0  0  0  0  0  0
   -0.6761   66.6485   71.6833 H   0  0  0  0  0  0  0  0  0  0  0  0
    3.2690   59.3856   70.8855 H   0  0  0  0  0  0  0  0  0  0  0  0
    3.2755   57.0509   71.6986 H   0  0  0  0  0  0  0  0  0  0  0  0
    1.6617   56.3311   73.4435 H   0  0  0  0  0  0  0  0  0  0  0  0
   -0.9382   60.2236   74.4181 H   0  0  0  0  0  0  0  0  0  0  0  0
   -1.0263   62.5650   73.6187 H   0  0  0  0  0  0  0  0  0  0  0  0
    0.1709   57.9903   75.6545 H   0  0  0  0  0  0  0  0  0  0  0  0
   -1.2038   58.2836   74.5360 H   0  0  0  0  0  0  0  0  0  0  0  0
   -0.3695   56.6928   74.5360 H   0  0  0  0  0  0  0  0  0  0  0  0
  2  1  1  0
  3  2  2  0
  4  3  1  0
  5  4  1  0
  6  5  1  0
  7  6  2  0
  8  7  1  0
  9  8  2  0
 10  8  1  0
 11 10  2  0
 12 10  1  0
 12  5  2  0
 12  2  1  0
 13  7  1  0
 14 13  2  0
 15 14  1  0
 16 15  2  0
 17 16  1  0
 18 13  1  0
 18 17  2  0
 19 18  1  0
 20  6  1  0
 20 19  2  0
 21 17  1  0
  1 22  1  0
  1 23  1  0
  1 24  1  0
  3 25  1  0
 14 26  1  0
 15 27  1  0
 16 28  1  0
 19 29  1  0
 20 30  1  0
 21 31  1  0
 21 32  1  0
 21 33  1  0
M  END
>  <score>  (5) 
-9.206

$$$$
=
     RDKit          3D

 33 36  0  0  0  0  0  0  0  0999 V2000
    4.8890   63.4100   69.8700 C   0  0  0  0  0  0  0  0  0  0  0  0
    3.5650   63.2880   70.5250 C   0  0  0  0  0  0  0  0  0  0  0  0
    2.5690   64.2450   70.6020 C   0  0  0  0  0  0  0  0  0  0  0  0
    1.4840   63.7720   71.2780 O   0  0  0  0  0  0  0  0  0  0  0  0
    1.7910   62.5040   71.6390 C   0  0  0  0  0  0  0  0  0  0  0  0
    0.8420   61.6800   72.3530 C   0  0  0  0  0  0  0  0  0  0  0  0
    1.2310   60.3690   72.7260 C   0  0  0  0  0  0  0  0  0  0  0  0
    2.6630   59.9530   72.4260 C   0  0  0  0  0  0  0  0  0  0  0  0
    3.1870   58.9620   72.9180 O   0  0  0  0  0  0  0  0  0  0  0  0
    3.5320   60.8380   71.5050 C   0  0  0  0  0  0  0  0  0  0  0  0
    4.5900   60.4150   71.0570 O   0  0  0  0  0  0  0  0  0  0  0  0
    3.0430   62.1590   71.2120 C   0  0  0  0  0  0  0  0  0  0  0  0
    0.3000   59.5000   73.3880 C   0  0  0  0  0  0  0  0  0  0  0  0
    0.5700   58.1580   73.7590 C   0  0  0  0  0  0  0  0  0  0  0  0
   -0.3660   57.3520   74.4060 C   0  0  0  0  0  0  0  0  0  0  0  0
   -1.6190   57.8550   74.7060 C   0  0  0  0  0  0  0  0  0  0  0  0
   -1.9540   59.1690   74.3550 C   0  0  0  0  0  0  0  0  0  0  0  0
   -1.0050   59.9970   73.6910 C   0  0  0  0  0  0  0  0  0  0  0  0
   -1.3320   61.3160   73.3170 C   0  0  0  0  0  0  0  0  0  0  0  0
   -0.4310   62.1440   72.6540 C   0  0  0  0  0  0  0  0  0  0  0  0
   -3.3400   59.6530   74.7050 C   0  0  0  0  0  0  0  0  0  0  0  0
    5.6729   63.4822   70.6383 H   0  0  0  0  0  0  0  0  0  0  0  0
    5.0708   62.5248   69.2428 H   0  0  0  0  0  0  0  0  0  0  0  0
    4.9059   64.3135   69.2428 H   0  0  0  0  0  0  0  0  0  0  0  0
    2.6430   65.2555   70.1737 H   0  0  0  0  0  0  0  0  0  0  0  0
    1.5587   57.7355   73.5267 H   0  0  0  0  0  0  0  0  0  0  0  0
   -0.1082   56.3176   74.6774 H   0  0  0  0  0  0  0  0  0  0  0  0
   -2.3550   57.2209   75.2220 H   0  0  0  0  0  0  0  0  0  0  0  0
   -2.3329   61.7040   73.5572 H   0  0  0  0  0  0  0  0  0  0  0  0
   -0.7272   63.1643   72.3690 H   0  0  0  0  0  0  0  0  0  0  0  0
   -3.4497   59.6913   75.7988 H   0  0  0  0  0  0  0  0  0  0  0  0
   -3.4942   60.6582   74.2856 H   0  0  0  0  0  0  0  0  0  0  0  0
   -4.0864   58.9623   74.2856 H   0  0  0  0  0  0  0  0  0  0  0  0
  2  1  1  0
  3  2  2  0
  4  3  1  0
  5  4  1  0
  6  5  1  0
  7  6  2  0
  8  7  1  0
  9  8  2  0
 10  8  1  0
 11 10  2  0
 12 10  1  0
 12  5  2  0
 12  2  1  0
 13  7  1  0
 14 13  2  0
 15 14  1  0
 16 15  2  0
 17 16  1  0
 18 13  1  0
 18 17  2  0
 19 18  1  0
 20  6  1  0
 20 19  2  0
 21 17  1  0
  1 22  1  0
  1 23  1  0
  1 24  1  0
  3 25  1  0
 14 26  1  0
 15 27  1  0
 16 28  1  0
 19 29  1  0
 20 30  1  0
 21 31  1  0
 21 32  1  0
 21 33  1  0
M  END
>  <score>  (6) 
-9.143

$$$$
=
     RDKit          3D

 33 36  0  0  0  0  0  0  0  0999 V2000
   -1.4140   56.5740   75.1350 C   0  0  0  0  0  0  0  0  0  0  0  0
   -0.3040   57.2170   74.3930 C   0  0  0  0  0  0  0  0  0  0  0  0
    0.9070   56.6540   74.0280 C   0  0  0  0  0  0  0  0  0  0  0  0
    1.6790   57.5470   73.3470 O   0  0  0  0  0  0  0  0  0  0  0  0
    0.9580   58.6910   73.2800 C   0  0  0  0  0  0  0  0  0  0  0  0
    1.4660   59.8550   72.5890 C   0  0  0  0  0  0  0  0  0  0  0  0
    0.6750   61.0310   72.5750 C   0  0  0  0  0  0  0  0  0  0  0  0
   -0.6200   61.0130   73.3730 C   0  0  0  0  0  0  0  0  0  0  0  0
   -1.2490   62.0270   73.6460 O   0  0  0  0  0  0  0  0  0  0  0  0
   -1.1530   59.6700   73.9210 C   0  0  0  0  0  0  0  0  0  0  0  0
   -2.2950   59.5870   74.3530 O   0  0  0  0  0  0  0  0  0  0  0  0
   -0.2510   58.5490   73.9020 C   0  0  0  0  0  0  0  0  0  0  0  0
    1.1190   62.1900   71.8550 C   0  0  0  0  0  0  0  0  0  0  0  0
    0.3850   63.3980   71.7360 C   0  0  0  0  0  0  0  0  0  0  0  0
    0.8590   64.5020   71.0280 C   0  0  0  0  0  0  0  0  0  0  0  0
    2.0910   64.4420   70.4020 C   0  0  0  0  0  0  0  0  0  0  0  0
    2.8610   63.2740   70.4700 C   0  0  0  0  0  0  0  0  0  0  0  0
    2.3820   62.1420   71.1880 C   0  0  0  0  0  0  0  0  0  0  0  0
    3.1380   60.9530   71.2520 C   0  0  0  0  0  0  0  0  0  0  0  0
    2.6890   59.8250   71.9340 C   0  0  0  0  0  0  0  0  0  0  0  0
    4.1930   63.2730   69.7590 C   0  0  0  0  0  0  0  0  0  0  0  0
   -1.2393   56.6752   76.2163 H   0  0  0  0  0  0  0  0  0  0  0  0
   -2.3635   57.0619   74.8697 H   0  0  0  0  0  0  0  0  0  0  0  0
   -1.4631   55.5076   74.8697 H   0  0  0  0  0  0  0  0  0  0  0  0
    1.2069   55.6209   74.2577 H   0  0  0  0  0  0  0  0  0  0  0  0
   -0.5992   63.4668   72.2225 H   0  0  0  0  0  0  0  0  0  0  0  0
    0.2543   65.4189   70.9675 H   0  0  0  0  0  0  0  0  0  0  0  0
    2.4675   65.3150   69.8486 H   0  0  0  0  0  0  0  0  0  0  0  0
    4.1143   60.9155   70.7466 H   0  0  0  0  0  0  0  0  0  0  0  0
    3.3025   58.9121   71.9535 H   0  0  0  0  0  0  0  0  0  0  0  0
    5.0048   63.2724   70.5012 H   0  0  0  0  0  0  0  0  0  0  0  0
    4.2716   62.3748   69.1289 H   0  0  0  0  0  0  0  0  0  0  0  0
    4.2730   64.1711   69.1289 H   0  0  0  0  0  0  0  0  0  0  0  0
  2  1  1  0
  3  2  2  0
  4  3  1  0
  5  4  1  0
  6  5  1  0
  7  6  2  0
  8  7  1  0
  9  8  2  0
 10  8  1  0
 11 10  2  0
 12 10  1  0
 12  5  2  0
 12  2  1  0
 13  7  1  0
 14 13  2  0
 15 14  1  0
 16 15  2  0
 17 16  1  0
 18 13  1  0
 18 17  2  0
 19 18  1  0
 20  6  1  0
 20 19  2  0
 21 17  1  0
  1 22  1  0
  1 23  1  0
  1 24  1  0
  3 25  1  0
 14 26  1  0
 15 27  1  0
 16 28  1  0
 19 29  1  0
 20 30  1  0
 21 31  1  0
 21 32  1  0
 21 33  1  0
M  END
>  <score>  (7) 
-9.139

$$$$
=
     RDKit          3D

 33 36  0  0  0  0  0  0  0  0999 V2000
   -0.7920   56.5140   75.3680 C   0  0  0  0  0  0  0  0  0  0  0  0
   -0.8500   57.8300   74.6890 C   0  0  0  0  0  0  0  0  0  0  0  0
   -1.9250   58.6990   74.6190 C   0  0  0  0  0  0  0  0  0  0  0  0
   -1.6060   59.8200   73.9140 O   0  0  0  0  0  0  0  0  0  0  0  0
   -0.3180   59.6650   73.5260 C   0  0  0  0  0  0  0  0  0  0  0  0
    0.3660   60.6940   72.7750 C   0  0  0  0  0  0  0  0  0  0  0  0
    1.7060   60.4620   72.3760 C   0  0  0  0  0  0  0  0  0  0  0  0
    2.3030   59.0980   72.6880 C   0  0  0  0  0  0  0  0  0  0  0  0
    3.3390   58.6910   72.1800 O   0  0  0  0  0  0  0  0  0  0  0  0
    1.5540   58.1450   73.6460 C   0  0  0  0  0  0  0  0  0  0  0  0
    2.1140   57.1560   74.1000 O   0  0  0  0  0  0  0  0  0  0  0  0
    0.1890   58.4730   73.9650 C   0  0  0  0  0  0  0  0  0  0  0  0
    2.4370   61.4800   71.6760 C   0  0  0  0  0  0  0  0  0  0  0  0
    3.7930   61.3710   71.2760 C   0  0  0  0  0  0  0  0  0  0  0  0
    4.4620   62.3860   70.5930 C   0  0  0  0  0  0  0  0  0  0  0  0
    3.8010   63.5610   70.2860 C   0  0  0  0  0  0  0  0  0  0  0  0
    2.4650   63.7380   70.6640 C   0  0  0  0  0  0  0  0  0  0  0  0
    1.7750   62.7080   71.3640 C   0  0  0  0  0  0  0  0  0  0  0  0
    0.4350   62.8770   71.7670 C   0  0  0  0  0  0  0  0  0  0  0  0
   -0.2590   61.8940   72.4650 C   0  0  0  0  0  0  0  0  0  0  0  0
    1.8040   65.0480   70.3040 C   0  0  0  0  0  0  0  0  0  0  0  0
   -0.7986   56.6631   76.4578 H   0  0  0  0  0  0  0  0  0  0  0  0
   -1.6645   55.9115   75.0751 H   0  0  0  0  0  0  0  0  0  0  0  0
    0.1301   55.9906   75.0751 H   0  0  0  0  0  0  0  0  0  0  0  0
   -2.9086   58.5091   75.0734 H   0  0  0  0  0  0  0  0  0  0  0  0
    4.3401   60.4470   71.5145 H   0  0  0  0  0  0  0  0  0  0  0  0
    5.5135   62.2522   70.2990 H   0  0  0  0  0  0  0  0  0  0  0  0
    4.3271   64.3597   69.7426 H   0  0  0  0  0  0  0  0  0  0  0  0
   -0.0793   63.8178   71.5213 H   0  0  0  0  0  0  0  0  0  0  0  0
   -1.3013   62.0674   72.7708 H   0  0  0  0  0  0  0  0  0  0  0  0
    1.5323   65.5865   71.2239 H   0  0  0  0  0  0  0  0  0  0  0  0
    2.5011   65.6602   69.7130 H   0  0  0  0  0  0  0  0  0  0  0  0
    0.8974   64.8510   69.7130 H   0  0  0  0  0  0  0  0  0  0  0  0
  2  1  1  0
  3  2  2  0
  4  3  1  0
  5  4  1  0
  6  5  1  0
  7  6  2  0
  8  7  1  0
  9  8  2  0
 10  8  1  0
 11 10  2  0
 12 10  1  0
 12  5  2  0
 12  2  1  0
 13  7  1  0
 14 13  2  0
 15 14  1  0
 16 15  2  0
 17 16  1  0
 18 13  1  0
 18 17  2  0
 19 18  1  0
 20  6  1  0
 20 19  2  0
 21 17  1  0
  1 22  1  0
  1 23  1  0
  1 24  1  0
  3 25  1  0
 14 26  1  0
 15 27  1  0
 16 28  1  0
 19 29  1  0
 20 30  1  0
 21 31  1  0
 21 32  1  0
 21 33  1  0
M  END
>  <score>  (8) 
-9.106

$$$$
=
     RDKit          3D

 33 36  0  0  0  0  0  0  0  0999 V2000
    3.6510   69.2770   59.9470 C   0  0  0  0  0  0  0  0  0  0  0  0
    3.5430   68.7130   61.3140 C   0  0  0  0  0  0  0  0  0  0  0  0
    4.5400   68.1090   62.0600 C   0  0  0  0  0  0  0  0  0  0  0  0
    4.0730   67.7180   63.2790 O   0  0  0  0  0  0  0  0  0  0  0  0
    2.7670   68.0710   63.3110 C   0  0  0  0  0  0  0  0  0  0  0  0
    1.9570   67.8330   64.4840 C   0  0  0  0  0  0  0  0  0  0  0  0
    0.5890   68.2030   64.4480 C   0  0  0  0  0  0  0  0  0  0  0  0
    0.0450   68.7420   63.1340 C   0  0  0  0  0  0  0  0  0  0  0  0
   -1.1520   68.8520   62.9020 O   0  0  0  0  0  0  0  0  0  0  0  0
    1.0300   69.1230   62.0060 C   0  0  0  0  0  0  0  0  0  0  0  0
    0.6470   69.7750   61.0430 O   0  0  0  0  0  0  0  0  0  0  0  0
    2.3910   68.6750   62.1430 C   0  0  0  0  0  0  0  0  0  0  0  0
   -0.2360   68.0330   65.6100 C   0  0  0  0  0  0  0  0  0  0  0  0
   -1.5990   68.4140   65.6960 C   0  0  0  0  0  0  0  0  0  0  0  0
   -2.3640   68.2250   66.8470 C   0  0  0  0  0  0  0  0  0  0  0  0
   -1.7920   67.6490   67.9670 C   0  0  0  0  0  0  0  0  0  0  0  0
   -0.4470   67.2620   67.9520 C   0  0  0  0  0  0  0  0  0  0  0  0
    0.3420   67.4550   66.7820 C   0  0  0  0  0  0  0  0  0  0  0  0
    1.7020   67.0860   66.7570 C   0  0  0  0  0  0  0  0  0  0  0  0
    2.5010   67.2750   65.6330 C   0  0  0  0  0  0  0  0  0  0  0  0
    0.1170   66.6470   69.2110 C   0  0  0  0  0  0  0  0  0  0  0  0
    3.8575   70.3556   60.0106 H   0  0  0  0  0  0  0  0  0  0  0  0
    4.4699   68.7780   59.4081 H   0  0  0  0  0  0  0  0  0  0  0  0
    2.7057   69.1158   59.4081 H   0  0  0  0  0  0  0  0  0  0  0  0
    5.5741   67.9636   61.7142 H   0  0  0  0  0  0  0  0  0  0  0  0
   -2.0729   68.8780   64.8184 H   0  0  0  0  0  0  0  0  0  0  0  0
   -3.4198   68.5333   66.8640 H   0  0  0  0  0  0  0  0  0  0  0  0
   -2.3965   67.4945   68.8729 H   0  0  0  0  0  0  0  0  0  0  0  0
    2.1468   66.6336   67.6556 H   0  0  0  0  0  0  0  0  0  0  0  0
    3.5613   66.9828   65.6551 H   0  0  0  0  0  0  0  0  0  0  0  0
   -0.3304   67.1348   70.0896 H   0  0  0  0  0  0  0  0  0  0  0  0
   -0.1159   65.5721   69.2302 H   0  0  0  0  0  0  0  0  0  0  0  0
    1.2080   66.7862   69.2302 H   0  0  0  0  0  0  0  0  0  0  0  0
  2  1  1  0
  3  2  2  0
  4  3  1  0
  5  4  1  0
  6  5  1  0
  7  6  2  0
  8  7  1  0
  9  8  2  0
 10  8  1  0
 11 10  2  0
 12 10  1  0
 12  5  2  0
 12  2  1  0
 13  7  1  0
 14 13  2  0
 15 14  1  0
 16 15  2  0
 17 16  1  0
 18 13  1  0
 18 17  2  0
 19 18  1  0
 20  6  1  0
 20 19  2  0
 21 17  1  0
  1 22  1  0
  1 23  1  0
  1 24  1  0
  3 25  1  0
 14 26  1  0
 15 27  1  0
 16 28  1  0
 19 29  1  0
 20 30  1  0
 21 31  1  0
 21 32  1  0
 21 33  1  0
M  END
>  <score>  (9) 
-9.088

$$$$
