=
     RDKit          3D

 53 56  0  0  0  0  0  0  0  0999 V2000
    2.5070   62.0310   72.8500 C   0  0  0  0  0  0  0  0  0  0  0  0
    1.5220   63.0220   72.8720 C   0  0  0  0  0  0  0  0  0  0  0  0
    1.4630   63.8940   71.7990 C   0  0  0  0  0  0  0  0  0  0  0  0
    2.3290   63.8260   70.7190 C   0  0  0  0  0  0  0  0  0  0  0  0
    3.3120   62.8480   70.6820 C   0  0  0  0  0  0  0  0  0  0  0  0
    3.4060   61.9420   71.7500 C   0  0  0  0  0  0  0  0  0  0  0  0
    2.0680   64.8870   69.6970 C   0  0  0  0  0  0  0  0  0  0  0  0
    0.8560   65.6750   70.2470 C   0  0  2  0  0  0  0  0  0  0  0  0
    0.5340   64.9940   71.5830 C   0  0  0  0  0  0  0  0  0  0  0  0
   -0.3620   65.2800   72.3670 O   0  0  0  0  0  0  0  0  0  0  0  0
    1.6450   60.1590   74.0680 C   0  0  0  0  0  0  0  0  0  0  0  0
    2.6850   61.0990   73.8410 O   0  0  0  0  0  0  0  0  0  0  0  0
    4.3360   60.9330   71.8250 O   0  0  0  0  0  0  0  0  0  0  0  0
    5.6070   61.1540   71.2310 C   0  0  0  0  0  0  0  0  0  0  0  0
   -0.2140   65.5860   69.3040 O   0  0  0  0  0  0  0  0  0  0  0  0
   -0.3170   66.7250   68.5570 C   0  0  0  0  0  0  0  0  0  0  0  0
   -1.4500   66.9790   67.7930 C   0  0  0  0  0  0  0  0  0  0  0  0
   -1.5140   68.1420   67.0270 C   0  0  0  0  0  0  0  0  0  0  0  0
   -0.4430   69.0400   67.0240 C   0  0  0  0  0  0  0  0  0  0  0  0
    0.6920   68.7980   67.8160 C   0  0  0  0  0  0  0  0  0  0  0  0
    0.7260   67.6450   68.6090 C   0  0  0  0  0  0  0  0  0  0  0  0
    1.8880   69.7050   67.7550 C   0  0  0  0  0  0  0  0  0  0  0  0
    3.0300   69.0760   67.0060 N   0  0  0  0  0  4  0  0  0  0  0  0
    2.7870   68.9000   65.5340 C   0  0  0  0  0  0  0  0  0  0  0  0
    4.1870   68.7430   64.9830 C   0  0  0  0  0  0  0  0  0  0  0  0
    4.9690   69.7860   65.7560 C   0  0  0  0  0  0  0  0  0  0  0  0
    4.3730   69.7730   67.1580 C   0  0  0  0  0  0  0  0  0  0  0  0
    0.8180   63.1061   73.7130 H   0  0  0  0  0  0  0  0  0  0  0  0
    4.0056   62.7836   69.8307 H   0  0  0  0  0  0  0  0  0  0  0  0
    2.9424   65.5457   69.5902 H   0  0  0  0  0  0  0  0  0  0  0  0
    1.8714   64.4646   68.7006 H   0  0  0  0  0  0  0  0  0  0  0  0
    1.0411   66.7485   70.3996 H   0  0  0  0  0  0  0  0  0  0  0  0
    1.4995   60.0275   75.1504 H   0  0  0  0  0  0  0  0  0  0  0  0
    0.7127   60.5270   73.6147 H   0  0  0  0  0  0  0  0  0  0  0  0
    1.9172   59.1944   73.6147 H   0  0  0  0  0  0  0  0  0  0  0  0
    6.3625   61.2854   72.0197 H   0  0  0  0  0  0  0  0  0  0  0  0
    5.8753   60.2890   70.6066 H   0  0  0  0  0  0  0  0  0  0  0  0
    5.5676   62.0588   70.6066 H   0  0  0  0  0  0  0  0  0  0  0  0
   -2.2894   66.2681   67.7928 H   0  0  0  0  0  0  0  0  0  0  0  0
   -2.4092   68.3533   66.4237 H   0  0  0  0  0  0  0  0  0  0  0  0
   -0.4890   69.9427   66.3971 H   0  0  0  0  0  0  0  0  0  0  0  0
    1.5815   67.4652   69.2767 H   0  0  0  0  0  0  0  0  0  0  0  0
    1.6013   70.6383   67.2483 H   0  0  0  0  0  0  0  0  0  0  0  0
    2.2215   69.8998   68.7850 H   0  0  0  0  0  0  0  0  0  0  0  0
    3.0762   68.1566   67.4681 H   0  0  0  0  0  0  0  0  0  0  0  0
    2.1800   68.0041   65.3364 H   0  0  0  0  0  0  0  0  0  0  0  0
    2.2300   69.7332   65.0806 H   0  0  0  0  0  0  0  0  0  0  0  0
    4.5773   67.7325   65.1741 H   0  0  0  0  0  0  0  0  0  0  0  0
    4.2439   68.8748   63.8924 H   0  0  0  0  0  0  0  0  0  0  0  0
    6.0365   69.5226   65.7881 H   0  0  0  0  0  0  0  0  0  0  0  0
    4.9018   70.7799   65.2896 H   0  0  0  0  0  0  0  0  0  0  0  0
    5.0222   69.2157   67.8493 H   0  0  0  0  0  0  0  0  0  0  0  0
    4.2689   70.7864   67.5730 H   0  0  0  0  0  0  0  0  0  0  0  0
  2  1  2  0
  3  2  1  0
  4  3  2  0
  5  4  1  0
  6  5  2  0
  6  1  1  0
  7  4  1  0
  8  7  1  0
  9  3  1  0
  9  8  1  0
 10  9  2  0
 12 11  1  0
 12  1  1  0
 13  6  1  0
 14 13  1  0
 15  8  1  0
 16 15  1  0
 17 16  2  0
 18 17  1  0
 19 18  2  0
 20 19  1  0
 21 20  2  0
 21 16  1  0
 22 20  1  0
 23 22  1  0
 24 23  1  0
 25 24  1  0
 26 25  1  0
 27 26  1  0
 27 23  1  0
  2 28  1  0
  5 29  1  0
  7 30  1  0
  7 31  1  0
  8 32  1  1
 11 33  1  0
 11 34  1  0
 11 35  1  0
 14 36  1  0
 14 37  1  0
 14 38  1  0
 17 39  1  0
 18 40  1  0
 19 41  1  0
 21 42  1  0
 22 43  1  0
 22 44  1  0
 23 45  1  0
 24 46  1  0
 24 47  1  0
 25 48  1  0
 25 49  1  0
 26 50  1  0
 26 51  1  0
 27 52  1  0
 27 53  1  0
M  CHG  1  23   1
M  END
>  <score>  (1) 
-9.484

$$$$
=
     RDKit          3D

 53 56  0  0  0  0  0  0  0  0999 V2000
    3.2910   61.5290   72.9020 C   0  0  0  0  0  0  0  0  0  0  0  0
    3.2880   62.1470   71.6480 C   0  0  0  0  0  0  0  0  0  0  0  0
    2.3070   63.0920   71.4010 C   0  0  0  0  0  0  0  0  0  0  0  0
    1.3440   63.4460   72.3310 C   0  0  0  0  0  0  0  0  0  0  0  0
    1.3340   62.8420   73.5810 C   0  0  0  0  0  0  0  0  0  0  0  0
    2.3120   61.8790   73.8730 C   0  0  0  0  0  0  0  0  0  0  0  0
    0.3920   64.4800   71.8180 C   0  0  0  0  0  0  0  0  0  0  0  0
    0.8860   64.7960   70.3870 C   0  0  2  0  0  0  0  0  0  0  0  0
    2.0970   63.8740   70.1900 C   0  0  0  0  0  0  0  0  0  0  0  0
    2.8130   63.7880   69.2020 O   0  0  0  0  0  0  0  0  0  0  0  0
    4.1420   59.3040   72.6590 C   0  0  0  0  0  0  0  0  0  0  0  0
    4.2000   60.5760   73.2890 O   0  0  0  0  0  0  0  0  0  0  0  0
    2.4040   61.2150   75.0730 O   0  0  0  0  0  0  0  0  0  0  0  0
    1.4840   60.1630   75.3250 C   0  0  0  0  0  0  0  0  0  0  0  0
    1.2250   66.1820   70.3150 O   0  0  0  0  0  0  0  0  0  0  0  0
    0.6230   66.7880   69.2480 C   0  0  0  0  0  0  0  0  0  0  0  0
   -0.6580   66.4230   68.8490 C   0  0  0  0  0  0  0  0  0  0  0  0
   -1.2340   67.0470   67.7430 C   0  0  0  0  0  0  0  0  0  0  0  0
   -0.5250   68.0260   67.0410 C   0  0  0  0  0  0  0  0  0  0  0  0
    0.7580   68.4140   67.4600 C   0  0  0  0  0  0  0  0  0  0  0  0
    1.3090   67.8050   68.5930 C   0  0  0  0  0  0  0  0  0  0  0  0
    1.5690   69.3970   66.6640 C   0  0  0  0  0  0  0  0  0  0  0  0
    3.0140   68.9910   66.5770 N   0  0  0  0  0  4  0  0  0  0  0  0
    3.5770   68.9850   65.1850 C   0  0  0  0  0  0  0  0  0  0  0  0
    5.0690   69.0450   65.4300 C   0  0  0  0  0  0  0  0  0  0  0  0
    5.1820   70.0520   66.5570 C   0  0  0  0  0  0  0  0  0  0  0  0
    3.9710   69.7950   67.4440 C   0  0  0  0  0  0  0  0  0  0  0  0
    4.0381   61.8916   70.8851 H   0  0  0  0  0  0  0  0  0  0  0  0
    0.5738   63.1132   74.3284 H   0  0  0  0  0  0  0  0  0  0  0  0
   -0.6342   64.0846   71.7953 H   0  0  0  0  0  0  0  0  0  0  0  0
    0.3679   65.3755   72.4563 H   0  0  0  0  0  0  0  0  0  0  0  0
    0.1392   64.6217   69.5984 H   0  0  0  0  0  0  0  0  0  0  0  0
    4.1061   58.5163   73.4259 H   0  0  0  0  0  0  0  0  0  0  0  0
    3.2403   59.2463   72.0316 H   0  0  0  0  0  0  0  0  0  0  0  0
    5.0347   59.1645   72.0316 H   0  0  0  0  0  0  0  0  0  0  0  0
    1.3676   60.0299   76.4107 H   0  0  0  0  0  0  0  0  0  0  0  0
    0.5098   60.4134   74.8798 H   0  0  0  0  0  0  0  0  0  0  0  0
    1.8620   59.2309   74.8798 H   0  0  0  0  0  0  0  0  0  0  0  0
   -1.2119   65.6492   69.4007 H   0  0  0  0  0  0  0  0  0  0  0  0
   -2.2486   66.7682   67.4222 H   0  0  0  0  0  0  0  0  0  0  0  0
   -0.9752   68.4958   66.1541 H   0  0  0  0  0  0  0  0  0  0  0  0
    2.2901   68.1325   68.9675 H   0  0  0  0  0  0  0  0  0  0  0  0
    1.1550   69.4585   65.6467 H   0  0  0  0  0  0  0  0  0  0  0  0
    1.5185   70.3713   67.1721 H   0  0  0  0  0  0  0  0  0  0  0  0
    2.9620   68.0283   66.9395 H   0  0  0  0  0  0  0  0  0  0  0  0
    3.2996   68.0655   64.6488 H   0  0  0  0  0  0  0  0  0  0  0  0
    3.2037   69.8091   64.5593 H   0  0  0  0  0  0  0  0  0  0  0  0
    5.4606   68.0633   65.7347 H   0  0  0  0  0  0  0  0  0  0  0  0
    5.6470   69.3236   64.5365 H   0  0  0  0  0  0  0  0  0  0  0  0
    6.1134   69.8968   67.1212 H   0  0  0  0  0  0  0  0  0  0  0  0
    5.2064   71.0864   66.1836 H   0  0  0  0  0  0  0  0  0  0  0  0
    4.2600   69.2207   68.3365 H   0  0  0  0  0  0  0  0  0  0  0  0
    3.5167   70.7294   67.8053 H   0  0  0  0  0  0  0  0  0  0  0  0
  2  1  2  0
  3  2  1  0
  4  3  2  0
  5  4  1  0
  6  5  2  0
  6  1  1  0
  7  4  1  0
  8  7  1  0
  9  3  1  0
  9  8  1  0
 10  9  2  0
 12 11  1  0
 12  1  1  0
 13  6  1  0
 14 13  1  0
 15  8  1  0
 16 15  1  0
 17 16  2  0
 18 17  1  0
 19 18  2  0
 20 19  1  0
 21 20  2  0
 21 16  1  0
 22 20  1  0
 23 22  1  0
 24 23  1  0
 25 24  1  0
 26 25  1  0
 27 26  1  0
 27 23  1  0
  2 28  1  0
  5 29  1  0
  7 30  1  0
  7 31  1  0
  8 32  1  6
 11 33  1  0
 11 34  1  0
 11 35  1  0
 14 36  1  0
 14 37  1  0
 14 38  1  0
 17 39  1  0
 18 40  1  0
 19 41  1  0
 21 42  1  0
 22 43  1  0
 22 44  1  0
 23 45  1  0
 24 46  1  0
 24 47  1  0
 25 48  1  0
 25 49  1  0
 26 50  1  0
 26 51  1  0
 27 52  1  0
 27 53  1  0
M  CHG  1  23   1
M  END
>  <score>  (2) 
-9.292

$$$$
=
     RDKit          3D

 53 56  0  0  0  0  0  0  0  0999 V2000
    3.9750   67.4720   63.0300 C   0  0  0  0  0  0  0  0  0  0  0  0
    2.8850   68.3460   62.9660 C   0  0  0  0  0  0  0  0  0  0  0  0
    1.7960   68.0740   63.7750 C   0  0  0  0  0  0  0  0  0  0  0  0
    1.7420   66.9880   64.6340 C   0  0  0  0  0  0  0  0  0  0  0  0
    2.8150   66.1120   64.7090 C   0  0  0  0  0  0  0  0  0  0  0  0
    3.9410   66.3510   63.9050 C   0  0  0  0  0  0  0  0  0  0  0  0
    0.4530   66.9080   65.3900 C   0  0  0  0  0  0  0  0  0  0  0  0
   -0.3540   68.1430   64.9250 C   0  0  2  0  0  0  0  0  0  0  0  0
    0.5560   68.8280   63.8980 C   0  0  0  0  0  0  0  0  0  0  0  0
    0.3300   69.8540   63.2710 O   0  0  0  0  0  0  0  0  0  0  0  0
    5.9330   68.7540   62.5260 C   0  0  0  0  0  0  0  0  0  0  0  0
    5.1210   67.6140   62.2880 O   0  0  0  0  0  0  0  0  0  0  0  0
    5.0610   65.5560   63.8940 O   0  0  0  0  0  0  0  0  0  0  0  0
    4.8800   64.1490   63.9530 C   0  0  0  0  0  0  0  0  0  0  0  0
   -0.6300   68.9640   66.0610 O   0  0  0  0  0  0  0  0  0  0  0  0
    0.2050   68.6710   67.1020 C   0  0  0  0  0  0  0  0  0  0  0  0
   -0.0230   67.5630   67.9110 C   0  0  0  0  0  0  0  0  0  0  0  0
    0.8370   67.3050   68.9770 C   0  0  0  0  0  0  0  0  0  0  0  0
    1.9150   68.1580   69.2320 C   0  0  0  0  0  0  0  0  0  0  0  0
    2.1620   69.2620   68.4000 C   0  0  0  0  0  0  0  0  0  0  0  0
    1.3120   69.4880   67.3110 C   0  0  0  0  0  0  0  0  0  0  0  0
    3.2600   70.2390   68.7130 C   0  0  0  0  0  0  0  0  0  0  0  0
    4.5570   69.8510   68.0620 N   0  0  0  0  0  4  0  0  0  0  0  0
    4.4850   69.7040   66.5690 C   0  0  0  0  0  0  0  0  0  0  0  0
    5.9360   69.8160   66.1540 C   0  0  0  0  0  0  0  0  0  0  0  0
    6.4480   70.9410   67.0310 C   0  0  0  0  0  0  0  0  0  0  0  0
    5.7380   70.7600   68.3660 C   0  0  0  0  0  0  0  0  0  0  0  0
    2.8932   69.2186   62.2963 H   0  0  0  0  0  0  0  0  0  0  0  0
    2.7843   65.2457   65.3862 H   0  0  0  0  0  0  0  0  0  0  0  0
   -0.0834   65.9795   65.1445 H   0  0  0  0  0  0  0  0  0  0  0  0
    0.6096   66.8997   66.4788 H   0  0  0  0  0  0  0  0  0  0  0  0
   -1.3292   67.9071   64.4741 H   0  0  0  0  0  0  0  0  0  0  0  0
    6.0418   68.9068   63.6099 H   0  0  0  0  0  0  0  0  0  0  0  0
    6.9247   68.5982   62.0763 H   0  0  0  0  0  0  0  0  0  0  0  0
    5.4616   69.6403   62.0763 H   0  0  0  0  0  0  0  0  0  0  0  0
    4.8388   63.8284   65.0044 H   0  0  0  0  0  0  0  0  0  0  0  0
    3.9397   63.8789   63.4501 H   0  0  0  0  0  0  0  0  0  0  0  0
    5.7213   63.6497   63.4501 H   0  0  0  0  0  0  0  0  0  0  0  0
   -0.8747   66.8961   67.7113 H   0  0  0  0  0  0  0  0  0  0  0  0
    0.6672   66.4282   69.6192 H   0  0  0  0  0  0  0  0  0  0  0  0
    2.5744   67.9629   70.0905 H   0  0  0  0  0  0  0  0  0  0  0  0
    1.5201   70.3156   66.6169 H   0  0  0  0  0  0  0  0  0  0  0  0
    2.9641   71.2346   68.3508 H   0  0  0  0  0  0  0  0  0  0  0  0
    3.4129   70.2427   69.8023 H   0  0  0  0  0  0  0  0  0  0  0  0
    4.7204   68.9327   68.4991 H   0  0  0  0  0  0  0  0  0  0  0  0
    4.0657   68.7271   66.2863 H   0  0  0  0  0  0  0  0  0  0  0  0
    3.8343   70.4489   66.0877 H   0  0  0  0  0  0  0  0  0  0  0  0
    6.4786   68.8800   66.3526 H   0  0  0  0  0  0  0  0  0  0  0  0
    6.0688   70.0060   65.0787 H   0  0  0  0  0  0  0  0  0  0  0  0
    7.5377   70.8644   67.1600 H   0  0  0  0  0  0  0  0  0  0  0  0
    6.2499   71.9292   66.5902 H   0  0  0  0  0  0  0  0  0  0  0  0
    6.4088   70.2902   69.1004 H   0  0  0  0  0  0  0  0  0  0  0  0
    5.4205   71.7199   68.7993 H   0  0  0  0  0  0  0  0  0  0  0  0
  2  1  2  0
  3  2  1  0
  4  3  2  0
  5  4  1  0
  6  5  2  0
  6  1  1  0
  7  4  1  0
  8  7  1  0
  9  3  1  0
  9  8  1  0
 10  9  2  0
 12 11  1  0
 12  1  1  0
 13  6  1  0
 14 13  1  0
 15  8  1  0
 16 15  1  0
 17 16  2  0
 18 17  1  0
 19 18  2  0
 20 19  1  0
 21 20  2  0
 21 16  1  0
 22 20  1  0
 23 22  1  0
 24 23  1  0
 25 24  1  0
 26 25  1  0
 27 26  1  0
 27 23  1  0
  2 28  1  0
  5 29  1  0
  7 30  1  0
  7 31  1  0
  8 32  1  6
 11 33  1  0
 11 34  1  0
 11 35  1  0
 14 36  1  0
 14 37  1  0
 14 38  1  0
 17 39  1  0
 18 40  1  0
 19 41  1  0
 21 42  1  0
 22 43  1  0
 22 44  1  0
 23 45  1  0
 24 46  1  0
 24 47  1  0
 25 48  1  0
 25 49  1  0
 26 50  1  0
 26 51  1  0
 27 52  1  0
 27 53  1  0
M  CHG  1  23   1
M  END
>  <score>  (3) 
-8.624

$$$$
=
     RDKit          3D

 53 56  0  0  0  0  0  0  0  0999 V2000
    3.5240   68.6270   64.3340 C   0  0  0  0  0  0  0  0  0  0  0  0
    3.0720   69.3030   65.4710 C   0  0  0  0  0  0  0  0  0  0  0  0
    2.3480   68.5800   66.4030 C   0  0  0  0  0  0  0  0  0  0  0  0
    2.0580   67.2330   66.2570 C   0  0  0  0  0  0  0  0  0  0  0  0
    2.5000   66.5480   65.1340 C   0  0  0  0  0  0  0  0  0  0  0  0
    3.2380   67.2430   64.1650 C   0  0  0  0  0  0  0  0  0  0  0  0
    1.2530   66.6850   67.3930 C   0  0  0  0  0  0  0  0  0  0  0  0
    1.0670   67.8810   68.3570 C   0  0  2  0  0  0  0  0  0  0  0  0
    1.7810   69.0470   67.6600 C   0  0  0  0  0  0  0  0  0  0  0  0
    1.8980   70.1960   68.0640 O   0  0  0  0  0  0  0  0  0  0  0  0
    5.6310   69.4590   63.5580 C   0  0  0  0  0  0  0  0  0  0  0  0
    4.2520   69.2120   63.3280 O   0  0  0  0  0  0  0  0  0  0  0  0
    3.7280   66.6730   63.0150 O   0  0  0  0  0  0  0  0  0  0  0  0
    4.3440   65.3970   63.1140 C   0  0  0  0  0  0  0  0  0  0  0  0
    1.6490   67.5470   69.6190 O   0  0  0  0  0  0  0  0  0  0  0  0
    1.3130   66.2790   70.0020 C   0  0  0  0  0  0  0  0  0  0  0  0
   -0.0150   65.9230   70.2090 C   0  0  0  0  0  0  0  0  0  0  0  0
   -0.3210   64.6270   70.6190 C   0  0  0  0  0  0  0  0  0  0  0  0
    0.7010   63.6960   70.8260 C   0  0  0  0  0  0  0  0  0  0  0  0
    2.0410   64.0470   70.5920 C   0  0  0  0  0  0  0  0  0  0  0  0
    2.3300   65.3410   70.1450 C   0  0  0  0  0  0  0  0  0  0  0  0
    3.1580   63.0880   70.8980 C   0  0  0  0  0  0  0  0  0  0  0  0
    2.8400   61.6930   70.4380 N   0  0  0  0  0  4  0  0  0  0  0  0
    3.8200   61.1240   69.4530 C   0  0  0  0  0  0  0  0  0  0  0  0
    3.5670   59.6360   69.5550 C   0  0  0  0  0  0  0  0  0  0  0  0
    3.4040   59.4270   71.0480 C   0  0  0  0  0  0  0  0  0  0  0  0
    2.6690   60.6640   71.5450 C   0  0  0  0  0  0  0  0  0  0  0  0
    3.2843   70.3720   65.6198 H   0  0  0  0  0  0  0  0  0  0  0  0
    2.2755   65.4788   65.0062 H   0  0  0  0  0  0  0  0  0  0  0  0
    0.2788   66.3190   67.0368 H   0  0  0  0  0  0  0  0  0  0  0  0
    1.7480   65.8318   67.8798 H   0  0  0  0  0  0  0  0  0  0  0  0
    0.0182   68.1418   68.5622 H   0  0  0  0  0  0  0  0  0  0  0  0
    5.8218   69.4932   64.6408 H   0  0  0  0  0  0  0  0  0  0  0  0
    6.2282   68.6535   63.1057 H   0  0  0  0  0  0  0  0  0  0  0  0
    5.9115   70.4217   63.1057 H   0  0  0  0  0  0  0  0  0  0  0  0
    4.4716   65.1327   64.1741 H   0  0  0  0  0  0  0  0  0  0  0  0
    3.7099   64.6446   62.6223 H   0  0  0  0  0  0  0  0  0  0  0  0
    5.3276   65.4255   62.6223 H   0  0  0  0  0  0  0  0  0  0  0  0
   -0.8175   66.6585   70.0504 H   0  0  0  0  0  0  0  0  0  0  0  0
   -1.3694   64.3357   70.7802 H   0  0  0  0  0  0  0  0  0  0  0  0
    0.4544   62.6822   71.1743 H   0  0  0  0  0  0  0  0  0  0  0  0
    3.3672   65.6180   69.9054 H   0  0  0  0  0  0  0  0  0  0  0  0
    4.0708   63.4310   70.3890 H   0  0  0  0  0  0  0  0  0  0  0  0
    3.2978   63.0640   71.9888 H   0  0  0  0  0  0  0  0  0  0  0  0
    1.9300   61.8470   69.9807 H   0  0  0  0  0  0  0  0  0  0  0  0
    3.6192   61.4918   68.4359 H   0  0  0  0  0  0  0  0  0  0  0  0
    4.8627   61.4051   69.6622 H   0  0  0  0  0  0  0  0  0  0  0  0
    2.6535   59.3509   69.0125 H   0  0  0  0  0  0  0  0  0  0  0  0
    4.3688   59.0257   69.1138 H   0  0  0  0  0  0  0  0  0  0  0  0
    2.8138   58.5207   71.2487 H   0  0  0  0  0  0  0  0  0  0  0  0
    4.3720   59.2927   71.5530 H   0  0  0  0  0  0  0  0  0  0  0  0
    1.6037   60.4424   71.7060 H   0  0  0  0  0  0  0  0  0  0  0  0
    3.0645   61.0217   72.5071 H   0  0  0  0  0  0  0  0  0  0  0  0
  2  1  2  0
  3  2  1  0
  4  3  2  0
  5  4  1  0
  6  5  2  0
  6  1  1  0
  7  4  1  0
  8  7  1  0
  9  3  1  0
  9  8  1  0
 10  9  2  0
 12 11  1  0
 12  1  1  0
 13  6  1  0
 14 13  1  0
 15  8  1  0
 16 15  1  0
 17 16  2  0
 18 17  1  0
 19 18  2  0
 20 19  1  0
 21 20  2  0
 21 16  1  0
 22 20  1  0
 23 22  1  0
 24 23  1  0
 25 24  1  0
 26 25  1  0
 27 26  1  0
 27 23  1  0
  2 28  1  0
  5 29  1  0
  7 30  1  0
  7 31  1  0
  8 32  1  1
 11 33  1  0
 11 34  1  0
 11 35  1  0
 14 36  1  0
 14 37  1  0
 14 38  1  0
 17 39  1  0
 18 40  1  0
 19 41  1  0
 21 42  1  0
 22 43  1  0
 22 44  1  0
 23 45  1  0
 24 46  1  0
 24 47  1  0
 25 48  1  0
 25 49  1  0
 26 50  1  0
 26 51  1  0
 27 52  1  0
 27 53  1  0
M  CHG  1  23   1
M  END
>  <score>  (4) 
-8.432

$$$$
=
     RDKit          3D

 53 56  0  0  0  0  0  0  0  0999 V2000
    0.9140   62.0900   72.5470 C   0  0  0  0  0  0  0  0  0  0  0  0
    0.2660   63.3280   72.5070 C   0  0  0  0  0  0  0  0  0  0  0  0
    0.7170   64.2600   71.5880 C   0  0  0  0  0  0  0  0  0  0  0  0
    1.7690   64.0190   70.7190 C   0  0  0  0  0  0  0  0  0  0  0  0
    2.4220   62.7960   70.7460 C   0  0  0  0  0  0  0  0  0  0  0  0
    1.9950   61.8210   71.6620 C   0  0  0  0  0  0  0  0  0  0  0  0
    2.0720   65.1880   69.8350 C   0  0  0  0  0  0  0  0  0  0  0  0
    1.0280   66.2600   70.2270 C   0  0  2  0  0  0  0  0  0  0  0  0
    0.2110   65.6040   71.3470 C   0  0  0  0  0  0  0  0  0  0  0  0
   -0.7360   66.0840   71.9570 O   0  0  0  0  0  0  0  0  0  0  0  0
    1.0710   61.1270   74.7320 C   0  0  0  0  0  0  0  0  0  0  0  0
    0.5770   61.0720   73.4020 O   0  0  0  0  0  0  0  0  0  0  0  0
    2.5620   60.5750   71.7800 O   0  0  0  0  0  0  0  0  0  0  0  0
    3.1660   60.0060   70.6280 C   0  0  0  0  0  0  0  0  0  0  0  0
    0.2420   66.5760   69.0760 O   0  0  0  0  0  0  0  0  0  0  0  0
    0.9040   67.4280   68.2380 C   0  0  0  0  0  0  0  0  0  0  0  0
    1.6780   68.4680   68.7430 C   0  0  0  0  0  0  0  0  0  0  0  0
    2.3240   69.3310   67.8590 C   0  0  0  0  0  0  0  0  0  0  0  0
    2.1880   69.1550   66.4790 C   0  0  0  0  0  0  0  0  0  0  0  0
    1.4290   68.0890   65.9690 C   0  0  0  0  0  0  0  0  0  0  0  0
    0.8160   67.2080   66.8670 C   0  0  0  0  0  0  0  0  0  0  0  0
    1.1970   67.9400   64.4920 C   0  0  0  0  0  0  0  0  0  0  0  0
    2.2440   68.6570   63.6860 N   0  0  0  0  0  4  0  0  0  0  0  0
    3.5520   67.9300   63.5760 C   0  0  0  0  0  0  0  0  0  0  0  0
    4.1930   68.5800   62.3690 C   0  0  0  0  0  0  0  0  0  0  0  0
    3.0310   68.7120   61.4050 C   0  0  0  0  0  0  0  0  0  0  0  0
    1.8280   69.0460   62.2750 C   0  0  0  0  0  0  0  0  0  0  0  0
   -0.5727   63.5537   73.1820 H   0  0  0  0  0  0  0  0  0  0  0  0
    3.2594   62.5932   70.0622 H   0  0  0  0  0  0  0  0  0  0  0  0
    3.0926   65.5565   70.0158 H   0  0  0  0  0  0  0  0  0  0  0  0
    2.0187   64.9267   68.7678 H   0  0  0  0  0  0  0  0  0  0  0  0
    1.4589   67.2107   70.5742 H   0  0  0  0  0  0  0  0  0  0  0  0
    0.2331   61.0337   75.4385 H   0  0  0  0  0  0  0  0  0  0  0  0
    1.7807   60.3023   74.8939 H   0  0  0  0  0  0  0  0  0  0  0  0
    1.5819   62.0876   74.8939 H   0  0  0  0  0  0  0  0  0  0  0  0
    3.9345   59.2820   70.9366 H   0  0  0  0  0  0  0  0  0  0  0  0
    2.3999   59.4938   70.0274 H   0  0  0  0  0  0  0  0  0  0  0  0
    3.6316   60.8013   70.0274 H   0  0  0  0  0  0  0  0  0  0  0  0
    1.7793   68.6080   69.8293 H   0  0  0  0  0  0  0  0  0  0  0  0
    2.9426   70.1529   68.2486 H   0  0  0  0  0  0  0  0  0  0  0  0
    2.6787   69.8561   65.7878 H   0  0  0  0  0  0  0  0  0  0  0  0
    0.2618   66.3371   66.4870 H   0  0  0  0  0  0  0  0  0  0  0  0
    1.2199   66.8709   64.2343 H   0  0  0  0  0  0  0  0  0  0  0  0
    0.2192   68.3840   64.2535 H   0  0  0  0  0  0  0  0  0  0  0  0
    2.3628   69.5117   64.2484 H   0  0  0  0  0  0  0  0  0  0  0  0
    4.1646   68.0768   64.4778 H   0  0  0  0  0  0  0  0  0  0  0  0
    3.4389   66.8404   63.4766 H   0  0  0  0  0  0  0  0  0  0  0  0
    4.6106   69.5652   62.6240 H   0  0  0  0  0  0  0  0  0  0  0  0
    5.0364   68.0045   61.9597 H   0  0  0  0  0  0  0  0  0  0  0  0
    3.2197   69.5186   60.6813 H   0  0  0  0  0  0  0  0  0  0  0  0
    2.8742   67.7930   60.8212 H   0  0  0  0  0  0  0  0  0  0  0  0
    1.5984   70.1205   62.2217 H   0  0  0  0  0  0  0  0  0  0  0  0
    0.9217   68.5144   61.9495 H   0  0  0  0  0  0  0  0  0  0  0  0
  2  1  2  0
  3  2  1  0
  4  3  2  0
  5  4  1  0
  6  5  2  0
  6  1  1  0
  7  4  1  0
  8  7  1  0
  9  3  1  0
  9  8  1  0
 10  9  2  0
 12 11  1  0
 12  1  1  0
 13  6  1  0
 14 13  1  0
 15  8  1  0
 16 15  1  0
 17 16  2  0
 18 17  1  0
 19 18  2  0
 20 19  1  0
 21 20  2  0
 21 16  1  0
 22 20  1  0
 23 22  1  0
 24 23  1  0
 25 24  1  0
 26 25  1  0
 27 26  1  0
 27 23  1  0
  2 28  1  0
  5 29  1  0
  7 30  1  0
  7 31  1  0
  8 32  1  1
 11 33  1  0
 11 34  1  0
 11 35  1  0
 14 36  1  0
 14 37  1  0
 14 38  1  0
 17 39  1  0
 18 40  1  0
 19 41  1  0
 21 42  1  0
 22 43  1  0
 22 44  1  0
 23 45  1  0
 24 46  1  0
 24 47  1  0
 25 48  1  0
 25 49  1  0
 26 50  1  0
 26 51  1  0
 27 52  1  0
 27 53  1  0
M  CHG  1  23   1
M  END
>  <score>  (5) 
-8.42

$$$$
=
     RDKit          3D

 53 56  0  0  0  0  0  0  0  0999 V2000
   -0.7680   57.1750   74.8890 C   0  0  0  0  0  0  0  0  0  0  0  0
    0.1900   57.8100   74.0940 C   0  0  0  0  0  0  0  0  0  0  0  0
   -0.0870   59.0940   73.6560 C   0  0  0  0  0  0  0  0  0  0  0  0
   -1.2580   59.7650   73.9710 C   0  0  0  0  0  0  0  0  0  0  0  0
   -2.2180   59.1480   74.7600 C   0  0  0  0  0  0  0  0  0  0  0  0
   -1.9760   57.8460   75.2250 C   0  0  0  0  0  0  0  0  0  0  0  0
   -1.3240   61.1330   73.3680 C   0  0  0  0  0  0  0  0  0  0  0  0
    0.0160   61.2950   72.6110 C   0  0  2  0  0  0  0  0  0  0  0  0
    0.7420   59.9620   72.8330 C   0  0  0  0  0  0  0  0  0  0  0  0
    1.8480   59.6410   72.4210 O   0  0  0  0  0  0  0  0  0  0  0  0
    0.0010   54.9290   74.5800 C   0  0  0  0  0  0  0  0  0  0  0  0
   -0.6310   55.9060   75.3940 O   0  0  0  0  0  0  0  0  0  0  0  0
   -2.8500   57.1350   76.0120 O   0  0  0  0  0  0  0  0  0  0  0  0
   -4.2380   57.4000   75.8740 C   0  0  0  0  0  0  0  0  0  0  0  0
    0.7190   62.4110   73.1610 O   0  0  0  0  0  0  0  0  0  0  0  0
    1.2200   63.2180   72.1790 C   0  0  0  0  0  0  0  0  0  0  0  0
    2.4990   63.0160   71.6720 C   0  0  0  0  0  0  0  0  0  0  0  0
    2.9870   63.8700   70.6840 C   0  0  0  0  0  0  0  0  0  0  0  0
    2.1980   64.9230   70.2130 C   0  0  0  0  0  0  0  0  0  0  0  0
    0.8960   65.1120   70.7060 C   0  0  0  0  0  0  0  0  0  0  0  0
    0.4050   64.2240   71.6700 C   0  0  0  0  0  0  0  0  0  0  0  0
    0.0690   66.2920   70.2790 C   0  0  0  0  0  0  0  0  0  0  0  0
    0.1730   66.5420   68.8000 N   0  0  0  0  0  4  0  0  0  0  0  0
   -1.1440   66.7580   68.1110 C   0  0  0  0  0  0  0  0  0  0  0  0
   -0.7380   67.4550   66.8310 C   0  0  0  0  0  0  0  0  0  0  0  0
    0.3230   68.4290   67.3030 C   0  0  0  0  0  0  0  0  0  0  0  0
    1.0840   67.6910   68.3950 C   0  0  0  0  0  0  0  0  0  0  0  0
    1.1310   57.3075   73.8257 H   0  0  0  0  0  0  0  0  0  0  0  0
   -3.1518   59.6697   75.0165 H   0  0  0  0  0  0  0  0  0  0  0  0
   -2.1735   61.2100   72.6734 H   0  0  0  0  0  0  0  0  0  0  0  0
   -1.4697   61.9154   74.1273 H   0  0  0  0  0  0  0  0  0  0  0  0
   -0.0889   61.4985   71.5351 H   0  0  0  0  0  0  0  0  0  0  0  0
    0.4871   54.1776   75.2196 H   0  0  0  0  0  0  0  0  0  0  0  0
   -0.7514   54.4385   73.9449 H   0  0  0  0  0  0  0  0  0  0  0  0
    0.7569   55.4141   73.9449 H   0  0  0  0  0  0  0  0  0  0  0  0
   -4.6955   57.4873   76.8705 H   0  0  0  0  0  0  0  0  0  0  0  0
   -4.3785   58.3412   75.3223 H   0  0  0  0  0  0  0  0  0  0  0  0
   -4.7154   56.5768   75.3223 H   0  0  0  0  0  0  0  0  0  0  0  0
    3.1203   62.1895   72.0473 H   0  0  0  0  0  0  0  0  0  0  0  0
    3.9958   63.7146   70.2740 H   0  0  0  0  0  0  0  0  0  0  0  0
    2.5989   65.6081   69.4515 H   0  0  0  0  0  0  0  0  0  0  0  0
   -0.6308   64.3221   72.0271 H   0  0  0  0  0  0  0  0  0  0  0  0
   -0.9836   66.1000   70.5343 H   0  0  0  0  0  0  0  0  0  0  0  0
    0.4475   67.1819   70.8032 H   0  0  0  0  0  0  0  0  0  0  0  0
    0.5931   65.6552   68.4870 H   0  0  0  0  0  0  0  0  0  0  0  0
   -1.6434   65.8008   67.9004 H   0  0  0  0  0  0  0  0  0  0  0  0
   -1.8628   67.3334   68.7128 H   0  0  0  0  0  0  0  0  0  0  0  0
   -0.3248   66.7402   66.1041 H   0  0  0  0  0  0  0  0  0  0  0  0
   -1.5781   67.9419   66.3141 H   0  0  0  0  0  0  0  0  0  0  0  0
    0.9972   68.6958   66.4758 H   0  0  0  0  0  0  0  0  0  0  0  0
   -0.1154   69.3686   67.6703 H   0  0  0  0  0  0  0  0  0  0  0  0
    2.0406   67.3088   68.0092 H   0  0  0  0  0  0  0  0  0  0  0  0
    1.3269   68.3458   69.2449 H   0  0  0  0  0  0  0  0  0  0  0  0
  2  1  2  0
  3  2  1  0
  4  3  2  0
  5  4  1  0
  6  5  2  0
  6  1  1  0
  7  4  1  0
  8  7  1  0
  9  3  1  0
  9  8  1  0
 10  9  2  0
 12 11  1  0
 12  1  1  0
 13  6  1  0
 14 13  1  0
 15  8  1  0
 16 15  1  0
 17 16  2  0
 18 17  1  0
 19 18  2  0
 20 19  1  0
 21 20  2  0
 21 16  1  0
 22 20  1  0
 23 22  1  0
 24 23  1  0
 25 24  1  0
 26 25  1  0
 27 26  1  0
 27 23  1  0
  2 28  1  0
  5 29  1  0
  7 30  1  0
  7 31  1  0
  8 32  1  6
 11 33  1  0
 11 34  1  0
 11 35  1  0
 14 36  1  0
 14 37  1  0
 14 38  1  0
 17 39  1  0
 18 40  1  0
 19 41  1  0
 21 42  1  0
 22 43  1  0
 22 44  1  0
 23 45  1  0
 24 46  1  0
 24 47  1  0
 25 48  1  0
 25 49  1  0
 26 50  1  0
 26 51  1  0
 27 52  1  0
 27 53  1  0
M  CHG  1  23   1
M  END
>  <score>  (6) 
-8.294

$$$$
=
     RDKit          3D

 53 56  0  0  0  0  0  0  0  0999 V2000
    2.1350   68.8220   65.8980 C   0  0  0  0  0  0  0  0  0  0  0  0
    2.2780   68.3010   67.1880 C   0  0  0  0  0  0  0  0  0  0  0  0
    1.1820   67.6710   67.7520 C   0  0  0  0  0  0  0  0  0  0  0  0
   -0.0330   67.5380   67.1000 C   0  0  0  0  0  0  0  0  0  0  0  0
   -0.1910   68.0500   65.8200 C   0  0  0  0  0  0  0  0  0  0  0  0
    0.8960   68.6950   65.2110 C   0  0  0  0  0  0  0  0  0  0  0  0
   -1.0610   66.8310   67.9270 C   0  0  0  0  0  0  0  0  0  0  0  0
   -0.3320   66.4760   69.2440 C   0  0  2  0  0  0  0  0  0  0  0  0
    1.0800   67.0460   69.0630 C   0  0  0  0  0  0  0  0  0  0  0  0
    2.0110   66.9920   69.8550 O   0  0  0  0  0  0  0  0  0  0  0  0
    4.4360   69.4730   65.7780 C   0  0  0  0  0  0  0  0  0  0  0  0
    3.1330   69.4700   65.2140 O   0  0  0  0  0  0  0  0  0  0  0  0
    0.8600   69.2390   63.9500 O   0  0  0  0  0  0  0  0  0  0  0  0
    0.6300   68.3660   62.8540 C   0  0  0  0  0  0  0  0  0  0  0  0
   -0.3440   65.0560   69.4050 O   0  0  0  0  0  0  0  0  0  0  0  0
   -0.0200   64.6970   70.6820 C   0  0  0  0  0  0  0  0  0  0  0  0
   -0.3030   65.5350   71.7550 C   0  0  0  0  0  0  0  0  0  0  0  0
    0.0600   65.1460   73.0430 C   0  0  0  0  0  0  0  0  0  0  0  0
    0.7080   63.9250   73.2510 C   0  0  0  0  0  0  0  0  0  0  0  0
    0.9700   63.0650   72.1720 C   0  0  0  0  0  0  0  0  0  0  0  0
    0.5680   63.4520   70.8890 C   0  0  0  0  0  0  0  0  0  0  0  0
    1.7470   61.7930   72.3660 C   0  0  0  0  0  0  0  0  0  0  0  0
    3.1870   61.9500   71.9650 N   0  0  0  0  0  4  0  0  0  0  0  0
    4.1620   61.2260   72.8490 C   0  0  0  0  0  0  0  0  0  0  0  0
    5.3940   61.1320   71.9760 C   0  0  0  0  0  0  0  0  0  0  0  0
    4.8160   60.7840   70.6190 C   0  0  0  0  0  0  0  0  0  0  0  0
    3.5110   61.5640   70.5300 C   0  0  0  0  0  0  0  0  0  0  0  0
    3.2281   68.3888   67.7353 H   0  0  0  0  0  0  0  0  0  0  0  0
   -1.1512   67.9519   65.2923 H   0  0  0  0  0  0  0  0  0  0  0  0
   -1.9194   67.4898   68.1246 H   0  0  0  0  0  0  0  0  0  0  0  0
   -1.4608   65.9402   67.4204 H   0  0  0  0  0  0  0  0  0  0  0  0
   -0.7982   66.8908   70.1499 H   0  0  0  0  0  0  0  0  0  0  0  0
    4.3605   69.4728   66.8754 H   0  0  0  0  0  0  0  0  0  0  0  0
    4.9805   68.5761   65.4478 H   0  0  0  0  0  0  0  0  0  0  0  0
    4.9764   70.3724   65.4478 H   0  0  0  0  0  0  0  0  0  0  0  0
    0.3667   67.3665   63.2304 H   0  0  0  0  0  0  0  0  0  0  0  0
   -0.1959   68.7564   62.2413 H   0  0  0  0  0  0  0  0  0  0  0  0
    1.5411   68.2988   62.2413 H   0  0  0  0  0  0  0  0  0  0  0  0
   -0.8093   66.4972   71.5885 H   0  0  0  0  0  0  0  0  0  0  0  0
   -0.1639   65.8012   73.8978 H   0  0  0  0  0  0  0  0  0  0  0  0
    1.0149   63.6357   74.2669 H   0  0  0  0  0  0  0  0  0  0  0  0
    0.7172   62.7692   70.0395 H   0  0  0  0  0  0  0  0  0  0  0  0
    1.7024   61.5072   73.4273 H   0  0  0  0  0  0  0  0  0  0  0  0
    1.2976   61.0180   71.7278 H   0  0  0  0  0  0  0  0  0  0  0  0
    3.3032   62.9678   72.0718 H   0  0  0  0  0  0  0  0  0  0  0  0
    4.3677   61.7986   73.7654 H   0  0  0  0  0  0  0  0  0  0  0  0
    3.7957   60.2481   73.1947 H   0  0  0  0  0  0  0  0  0  0  0  0
    5.9314   62.0913   71.9439 H   0  0  0  0  0  0  0  0  0  0  0  0
    6.1300   60.3988   72.3377 H   0  0  0  0  0  0  0  0  0  0  0  0
    5.5037   61.0896   69.8167 H   0  0  0  0  0  0  0  0  0  0  0  0
    4.6571   59.7016   70.5047 H   0  0  0  0  0  0  0  0  0  0  0  0
    3.6384   62.4617   69.9071 H   0  0  0  0  0  0  0  0  0  0  0  0
    2.7061   60.9731   70.0684 H   0  0  0  0  0  0  0  0  0  0  0  0
  2  1  2  0
  3  2  1  0
  4  3  2  0
  5  4  1  0
  6  5  2  0
  6  1  1  0
  7  4  1  0
  8  7  1  0
  9  3  1  0
  9  8  1  0
 10  9  2  0
 12 11  1  0
 12  1  1  0
 13  6  1  0
 14 13  1  0
 15  8  1  0
 16 15  1  0
 17 16  2  0
 18 17  1  0
 19 18  2  0
 20 19  1  0
 21 20  2  0
 21 16  1  0
 22 20  1  0
 23 22  1  0
 24 23  1  0
 25 24  1  0
 26 25  1  0
 27 26  1  0
 27 23  1  0
  2 28  1  0
  5 29  1  0
  7 30  1  0
  7 31  1  0
  8 32  1  1
 11 33  1  0
 11 34  1  0
 11 35  1  0
 14 36  1  0
 14 37  1  0
 14 38  1  0
 17 39  1  0
 18 40  1  0
 19 41  1  0
 21 42  1  0
 22 43  1  0
 22 44  1  0
 23 45  1  0
 24 46  1  0
 24 47  1  0
 25 48  1  0
 25 49  1  0
 26 50  1  0
 26 51  1  0
 27 52  1  0
 27 53  1  0
M  CHG  1  23   1
M  END
>  <score>  (7) 
-8.037

$$$$
=
     RDKit          3D

 53 56  0  0  0  0  0  0  0  0999 V2000
   -1.9080   57.6670   75.3420 C   0  0  0  0  0  0  0  0  0  0  0  0
   -0.7700   58.0880   74.6480 C   0  0  0  0  0  0  0  0  0  0  0  0
   -0.8160   59.3250   74.0280 C   0  0  0  0  0  0  0  0  0  0  0  0
   -1.9270   60.1510   74.0670 C   0  0  0  0  0  0  0  0  0  0  0  0
   -3.0650   59.7480   74.7520 C   0  0  0  0  0  0  0  0  0  0  0  0
   -3.0600   58.5010   75.3960 C   0  0  0  0  0  0  0  0  0  0  0  0
   -1.7300   61.4270   73.3100 C   0  0  0  0  0  0  0  0  0  0  0  0
   -0.2820   61.3460   72.7720 C   0  0  2  0  0  0  0  0  0  0  0  0
    0.2300   59.9850   73.2600 C   0  0  0  0  0  0  0  0  0  0  0  0
    1.3370   59.4980   73.0750 O   0  0  0  0  0  0  0  0  0  0  0  0
   -2.1580   55.2890   75.2270 C   0  0  0  0  0  0  0  0  0  0  0  0
   -2.0080   56.4690   76.0030 O   0  0  0  0  0  0  0  0  0  0  0  0
   -4.1240   57.9960   76.1030 O   0  0  0  0  0  0  0  0  0  0  0  0
   -5.3540   57.8130   75.4170 C   0  0  0  0  0  0  0  0  0  0  0  0
    0.4640   62.4440   73.2990 O   0  0  0  0  0  0  0  0  0  0  0  0
    1.0180   63.1960   72.3020 C   0  0  0  0  0  0  0  0  0  0  0  0
    0.2560   64.1210   71.5970 C   0  0  0  0  0  0  0  0  0  0  0  0
    0.8480   64.8560   70.5710 C   0  0  0  0  0  0  0  0  0  0  0  0
    2.1950   64.6600   70.2540 C   0  0  0  0  0  0  0  0  0  0  0  0
    2.9730   63.7450   70.9830 C   0  0  0  0  0  0  0  0  0  0  0  0
    2.3740   63.0400   72.0340 C   0  0  0  0  0  0  0  0  0  0  0  0
    4.3950   63.4550   70.5960 C   0  0  0  0  0  0  0  0  0  0  0  0
    4.6310   61.9850   70.3920 N   0  0  0  0  0  4  0  0  0  0  0  0
    4.6370   61.1740   71.6560 C   0  0  0  0  0  0  0  0  0  0  0  0
    4.3890   59.7700   71.1500 C   0  0  0  0  0  0  0  0  0  0  0  0
    3.3220   59.9790   70.0940 C   0  0  0  0  0  0  0  0  0  0  0  0
    3.6780   61.2990   69.4240 C   0  0  0  0  0  0  0  0  0  0  0  0
    0.1306   57.4585   74.5963 H   0  0  0  0  0  0  0  0  0  0  0  0
   -3.9544   60.3941   74.7894 H   0  0  0  0  0  0  0  0  0  0  0  0
   -2.4484   61.5004   72.4802 H   0  0  0  0  0  0  0  0  0  0  0  0
   -1.8902   62.3137   73.9409 H   0  0  0  0  0  0  0  0  0  0  0  0
   -0.1974   61.4160   71.6775 H   0  0  0  0  0  0  0  0  0  0  0  0
   -2.2682   54.4222   75.8953 H   0  0  0  0  0  0  0  0  0  0  0  0
   -3.0520   55.3787   74.5924 H   0  0  0  0  0  0  0  0  0  0  0  0
   -1.2700   55.1522   74.5924 H   0  0  0  0  0  0  0  0  0  0  0  0
   -6.1670   57.6920   76.1480 H   0  0  0  0  0  0  0  0  0  0  0  0
   -5.5560   58.6910   74.7858 H   0  0  0  0  0  0  0  0  0  0  0  0
   -5.2916   56.9142   74.7858 H   0  0  0  0  0  0  0  0  0  0  0  0
   -0.8047   64.2715   71.8467 H   0  0  0  0  0  0  0  0  0  0  0  0
    0.2536   65.5919   70.0096 H   0  0  0  0  0  0  0  0  0  0  0  0
    2.6494   65.2263   69.4277 H   0  0  0  0  0  0  0  0  0  0  0  0
    2.9789   62.3592   72.6510 H   0  0  0  0  0  0  0  0  0  0  0  0
    4.6241   63.9853   69.6599 H   0  0  0  0  0  0  0  0  0  0  0  0
    5.0473   63.7949   71.4139 H   0  0  0  0  0  0  0  0  0  0  0  0
    5.5744   62.0002   69.9788 H   0  0  0  0  0  0  0  0  0  0  0  0
    5.6076   61.2454   72.1687 H   0  0  0  0  0  0  0  0  0  0  0  0
    3.8941   61.5100   72.3943 H   0  0  0  0  0  0  0  0  0  0  0  0
    5.3015   59.3395   70.7119 H   0  0  0  0  0  0  0  0  0  0  0  0
    4.0877   59.0680   71.9415 H   0  0  0  0  0  0  0  0  0  0  0  0
    3.3375   59.1581   69.3619 H   0  0  0  0  0  0  0  0  0  0  0  0
    2.3114   59.9972   70.5281 H   0  0  0  0  0  0  0  0  0  0  0  0
    4.1705   61.1215   68.4565 H   0  0  0  0  0  0  0  0  0  0  0  0
    2.7880   61.9109   69.2157 H   0  0  0  0  0  0  0  0  0  0  0  0
  2  1  2  0
  3  2  1  0
  4  3  2  0
  5  4  1  0
  6  5  2  0
  6  1  1  0
  7  4  1  0
  8  7  1  0
  9  3  1  0
  9  8  1  0
 10  9  2  0
 12 11  1  0
 12  1  1  0
 13  6  1  0
 14 13  1  0
 15  8  1  0
 16 15  1  0
 17 16  2  0
 18 17  1  0
 19 18  2  0
 20 19  1  0
 21 20  2  0
 21 16  1  0
 22 20  1  0
 23 22  1  0
 24 23  1  0
 25 24  1  0
 26 25  1  0
 27 26  1  0
 27 23  1  0
  2 28  1  0
  5 29  1  0
  7 30  1  0
  7 31  1  0
  8 32  1  6
 11 33  1  0
 11 34  1  0
 11 35  1  0
 14 36  1  0
 14 37  1  0
 14 38  1  0
 17 39  1  0
 18 40  1  0
 19 41  1  0
 21 42  1  0
 22 43  1  0
 22 44  1  0
 23 45  1  0
 24 46  1  0
 24 47  1  0
 25 48  1  0
 25 49  1  0
 26 50  1  0
 26 51  1  0
 27 52  1  0
 27 53  1  0
M  CHG  1  23   1
M  END
>  <score>  (8) 
-7.718

$$$$
=
     RDKit          3D

 53 56  0  0  0  0  0  0  0  0999 V2000
   -0.5620   54.6020   74.7500 C   0  0  0  0  0  0  0  0  0  0  0  0
    0.4270   55.2560   74.0100 C   0  0  0  0  0  0  0  0  0  0  0  0
    0.3130   56.6270   73.8570 C   0  0  0  0  0  0  0  0  0  0  0  0
   -0.7250   57.3660   74.3990 C   0  0  0  0  0  0  0  0  0  0  0  0
   -1.7150   56.7320   75.1360 C   0  0  0  0  0  0  0  0  0  0  0  0
   -1.6370   55.3420   75.3160 C   0  0  0  0  0  0  0  0  0  0  0  0
   -0.6290   58.8260   74.0820 C   0  0  0  0  0  0  0  0  0  0  0  0
    0.6710   58.9640   73.2540 C   0  0  2  0  0  0  0  0  0  0  0  0
    1.2080   57.5300   73.1470 C   0  0  0  0  0  0  0  0  0  0  0  0
    2.2290   57.1590   72.5830 O   0  0  0  0  0  0  0  0  0  0  0  0
    0.6610   52.5880   75.1720 C   0  0  0  0  0  0  0  0  0  0  0  0
   -0.5810   53.2500   74.9840 O   0  0  0  0  0  0  0  0  0  0  0  0
   -2.5550   54.6050   76.0250 O   0  0  0  0  0  0  0  0  0  0  0  0
   -3.3290   55.2740   77.0100 C   0  0  0  0  0  0  0  0  0  0  0  0
    1.5620   59.8420   73.9450 O   0  0  0  0  0  0  0  0  0  0  0  0
    1.3070   61.1490   73.6430 C   0  0  0  0  0  0  0  0  0  0  0  0
    1.1010   62.0880   74.6480 C   0  0  0  0  0  0  0  0  0  0  0  0
    0.8230   63.4100   74.3040 C   0  0  0  0  0  0  0  0  0  0  0  0
    0.7470   63.7840   72.9590 C   0  0  0  0  0  0  0  0  0  0  0  0
    0.9800   62.8430   71.9440 C   0  0  0  0  0  0  0  0  0  0  0  0
    1.2950   61.5280   72.3040 C   0  0  0  0  0  0  0  0  0  0  0  0
    0.8120   63.2070   70.4950 C   0  0  0  0  0  0  0  0  0  0  0  0
    2.1290   63.2490   69.7720 N   0  0  0  0  0  4  0  0  0  0  0  0
    3.2690   63.7890   70.5860 C   0  0  0  0  0  0  0  0  0  0  0  0
    4.4810   63.2680   69.8460 C   0  0  0  0  0  0  0  0  0  0  0  0
    4.0750   61.8490   69.4990 C   0  0  0  0  0  0  0  0  0  0  0  0
    2.5900   61.9270   69.1770 C   0  0  0  0  0  0  0  0  0  0  0  0
    1.2660   54.7010   73.5650 H   0  0  0  0  0  0  0  0  0  0  0  0
   -2.5453   57.3077   75.5710 H   0  0  0  0  0  0  0  0  0  0  0  0
   -1.4995   59.1534   73.4946 H   0  0  0  0  0  0  0  0  0  0  0  0
   -0.6127   59.4484   74.9888 H   0  0  0  0  0  0  0  0  0  0  0  0
    0.5303   59.3958   72.2521 H   0  0  0  0  0  0  0  0  0  0  0  0
    0.8605   52.4816   76.2485 H   0  0  0  0  0  0  0  0  0  0  0  0
    0.6199   51.5922   74.7066 H   0  0  0  0  0  0  0  0  0  0  0  0
    1.4648   53.1773   74.7066 H   0  0  0  0  0  0  0  0  0  0  0  0
   -2.9846   54.9764   78.0114 H   0  0  0  0  0  0  0  0  0  0  0  0
   -3.2136   56.3614   76.8908 H   0  0  0  0  0  0  0  0  0  0  0  0
   -4.3883   55.0024   76.8908 H   0  0  0  0  0  0  0  0  0  0  0  0
    1.1570   61.7900   75.7054 H   0  0  0  0  0  0  0  0  0  0  0  0
    0.6631   64.1604   75.0923 H   0  0  0  0  0  0  0  0  0  0  0  0
    0.5028   64.8234   72.6943 H   0  0  0  0  0  0  0  0  0  0  0  0
    1.5344   60.7898   71.5244 H   0  0  0  0  0  0  0  0  0  0  0  0
    0.1653   62.4591   70.0130 H   0  0  0  0  0  0  0  0  0  0  0  0
    0.3632   64.2100   70.4450 H   0  0  0  0  0  0  0  0  0  0  0  0
    1.9035   63.8999   69.0062 H   0  0  0  0  0  0  0  0  0  0  0  0
    3.2576   64.8888   70.6041 H   0  0  0  0  0  0  0  0  0  0  0  0
    3.2362   63.4815   71.6416 H   0  0  0  0  0  0  0  0  0  0  0  0
    4.6755   63.8581   68.9383 H   0  0  0  0  0  0  0  0  0  0  0  0
    5.4092   63.3252   70.4336 H   0  0  0  0  0  0  0  0  0  0  0  0
    4.6404   61.4882   68.6272 H   0  0  0  0  0  0  0  0  0  0  0  0
    4.2812   61.1492   70.3222 H   0  0  0  0  0  0  0  0  0  0  0  0
    2.4289   61.9152   68.0889 H   0  0  0  0  0  0  0  0  0  0  0  0
    2.0322   61.0719   69.5864 H   0  0  0  0  0  0  0  0  0  0  0  0
  2  1  2  0
  3  2  1  0
  4  3  2  0
  5  4  1  0
  6  5  2  0
  6  1  1  0
  7  4  1  0
  8  7  1  0
  9  3  1  0
  9  8  1  0
 10  9  2  0
 12 11  1  0
 12  1  1  0
 13  6  1  0
 14 13  1  0
 15  8  1  0
 16 15  1  0
 17 16  2  0
 18 17  1  0
 19 18  2  0
 20 19  1  0
 21 20  2  0
 21 16  1  0
 22 20  1  0
 23 22  1  0
 24 23  1  0
 25 24  1  0
 26 25  1  0
 27 26  1  0
 27 23  1  0
  2 28  1  0
  5 29  1  0
  7 30  1  0
  7 31  1  0
  8 32  1  6
 11 33  1  0
 11 34  1  0
 11 35  1  0
 14 36  1  0
 14 37  1  0
 14 38  1  0
 17 39  1  0
 18 40  1  0
 19 41  1  0
 21 42  1  0
 22 43  1  0
 22 44  1  0
 23 45  1  0
 24 46  1  0
 24 47  1  0
 25 48  1  0
 25 49  1  0
 26 50  1  0
 26 51  1  0
 27 52  1  0
 27 53  1  0
M  CHG  1  23   1
M  END
>  <score>  (9) 
-7.392

$$$$
