=
     RDKit          3D

 26 27  0  0  0  0  0  0  0  0999 V2000
    6.5770   70.5500   66.5650 N   0  0  0  0  0  0  0  0  0  0  0  0
    5.2940   70.1580   66.8340 C   0  0  0  0  0  0  0  0  0  0  0  0
    4.5240   69.4280   65.8110 C   0  0  0  0  0  0  0  0  0  0  0  0
    3.2770   69.1000   66.1470 C   0  0  0  0  0  0  0  0  0  0  0  0
    2.7630   69.4370   67.3790 N   0  0  0  0  0  0  0  0  0  0  0  0
    3.5440   70.0850   68.3400 C   0  0  0  0  0  0  0  0  0  0  0  0
    3.0970   70.3050   69.4650 O   0  0  0  0  0  0  0  0  0  0  0  0
    4.8250   70.4510   68.0060 N   0  0  0  0  0  0  0  0  0  0  0  0
    1.4170   69.0430   67.7820 C   0  0  2  0  0  0  0  0  0  0  0  0
    1.2890   67.5270   67.9630 C   0  0  0  0  0  0  0  0  0  0  0  0
   -0.4920   67.2420   67.9240 S   0  0  0  0  0  0  0  0  0  0  0  0
   -0.7990   68.8330   67.1010 C   0  0  1  0  0  0  0  0  0  0  0  0
    0.4580   69.4470   66.7890 O   0  0  0  0  0  0  0  0  0  0  0  0
   -1.6080   68.6460   65.8080 C   0  0  0  0  0  0  0  0  0  0  0  0
   -2.8480   69.3630   65.8320 O   0  0  0  0  0  0  0  0  0  0  0  0
    7.1194   71.0604   67.2764 H   0  0  0  0  0  0  0  0  0  0  0  0
    7.0004   70.3347   65.6511 H   0  0  0  0  0  0  0  0  0  0  0  0
    4.9521   69.1700   64.8311 H   0  0  0  0  0  0  0  0  0  0  0  0
    2.6489   68.5518   65.4294 H   0  0  0  0  0  0  0  0  0  0  0  0
    1.2219   69.5402   68.7436 H   0  0  0  0  0  0  0  0  0  0  0  0
    1.7904   66.9903   67.1441 H   0  0  0  0  0  0  0  0  0  0  0  0
    1.7586   67.1667   68.8902 H   0  0  0  0  0  0  0  0  0  0  0  0
   -1.3819   69.4712   67.7813 H   0  0  0  0  0  0  0  0  0  0  0  0
   -1.0074   69.0069   64.9600 H   0  0  0  0  0  0  0  0  0  0  0  0
   -1.8410   67.5755   65.7096 H   0  0  0  0  0  0  0  0  0  0  0  0
   -3.1201   69.5203   66.7708 H   0  0  0  0  0  0  0  0  0  0  0  0
  2  1  1  0
  3  2  1  0
  4  3  2  0
  5  4  1  0
  6  5  1  0
  7  6  2  0
  8  6  1  0
  8  2  2  0
  9  5  1  0
 10  9  1  0
 11 10  1  0
 12 11  1  0
 13 12  1  0
 13  9  1  0
 14 12  1  0
 15 14  1  0
  1 16  1  0
  1 17  1  0
  3 18  1  0
  4 19  1  0
  9 20  1  1
 10 21  1  0
 10 22  1  0
 12 23  1  1
 14 24  1  0
 14 25  1  0
 15 26  1  0
M  END
>  <score>  (1) 
-7.219

$$$$
=
     RDKit          3D

 26 27  0  0  0  0  0  0  0  0999 V2000
    3.0360   70.5720   69.6260 N   0  0  0  0  0  0  0  0  0  0  0  0
    3.2990   70.0970   68.3710 C   0  0  0  0  0  0  0  0  0  0  0  0
    2.2290   69.4370   67.6010 C   0  0  0  0  0  0  0  0  0  0  0  0
    2.5740   68.9870   66.3950 C   0  0  0  0  0  0  0  0  0  0  0  0
    3.8580   69.1390   65.9220 N   0  0  0  0  0  0  0  0  0  0  0  0
    4.8300   69.8150   66.6640 C   0  0  0  0  0  0  0  0  0  0  0  0
    5.9490   70.0150   66.1930 O   0  0  0  0  0  0  0  0  0  0  0  0
    4.5010   70.2680   67.9190 N   0  0  0  0  0  0  0  0  0  0  0  0
    4.2400   68.6960   64.5860 C   0  0  2  0  0  0  0  0  0  0  0  0
    3.1540   68.9920   63.5470 C   0  0  0  0  0  0  0  0  0  0  0  0
    3.5890   67.9230   62.1600 S   0  0  0  0  0  0  0  0  0  0  0  0
    4.6080   66.8510   63.2140 C   0  0  1  0  0  0  0  0  0  0  0  0
    4.4780   67.2780   64.5770 O   0  0  0  0  0  0  0  0  0  0  0  0
    4.1770   65.3810   63.0980 C   0  0  0  0  0  0  0  0  0  0  0  0
    5.2410   64.4750   63.4120 O   0  0  0  0  0  0  0  0  0  0  0  0
    3.7800   71.0339   70.1682 H   0  0  0  0  0  0  0  0  0  0  0  0
    2.0939   70.4679   70.0291 H   0  0  0  0  0  0  0  0  0  0  0  0
    1.2092   69.3231   67.9973 H   0  0  0  0  0  0  0  0  0  0  0  0
    1.8215   68.4865   65.7679 H   0  0  0  0  0  0  0  0  0  0  0  0
    5.1530   69.2506   64.3235 H   0  0  0  0  0  0  0  0  0  0  0  0
    2.1572   68.7408   63.9386 H   0  0  0  0  0  0  0  0  0  0  0  0
    3.1080   70.0552   63.2685 H   0  0  0  0  0  0  0  0  0  0  0  0
    5.6543   66.9283   62.8835 H   0  0  0  0  0  0  0  0  0  0  0  0
    3.3431   65.2012   63.7925 H   0  0  0  0  0  0  0  0  0  0  0  0
    3.8782   65.1998   62.0550 H   0  0  0  0  0  0  0  0  0  0  0  0
    5.3303   64.3989   64.3950 H   0  0  0  0  0  0  0  0  0  0  0  0
  2  1  1  0
  3  2  1  0
  4  3  2  0
  5  4  1  0
  6  5  1  0
  7  6  2  0
  8  6  1  0
  8  2  2  0
  9  5  1  0
 10  9  1  0
 11 10  1  0
 12 11  1  0
 13 12  1  0
 13  9  1  0
 14 12  1  0
 15 14  1  0
  1 16  1  0
  1 17  1  0
  3 18  1  0
  4 19  1  0
  9 20  1  6
 10 21  1  0
 10 22  1  0
 12 23  1  6
 14 24  1  0
 14 25  1  0
 15 26  1  0
M  END
>  <score>  (2) 
-6.934

$$$$
=
     RDKit          3D

 26 27  0  0  0  0  0  0  0  0999 V2000
    5.5620   62.9240   63.3810 N   0  0  0  0  0  0  0  0  0  0  0  0
    4.7770   64.0000   63.6950 C   0  0  0  0  0  0  0  0  0  0  0  0
    3.6750   63.8420   64.6610 C   0  0  0  0  0  0  0  0  0  0  0  0
    2.9490   64.9340   64.8970 C   0  0  0  0  0  0  0  0  0  0  0  0
    3.2290   66.1230   64.2610 N   0  0  0  0  0  0  0  0  0  0  0  0
    4.3150   66.2420   63.3900 C   0  0  0  0  0  0  0  0  0  0  0  0
    4.6020   67.3310   62.8940 O   0  0  0  0  0  0  0  0  0  0  0  0
    5.0640   65.1230   63.1170 N   0  0  0  0  0  0  0  0  0  0  0  0
    2.4750   67.3390   64.5430 C   0  0  2  0  0  0  0  0  0  0  0  0
    1.4100   67.1220   65.6230 C   0  0  0  0  0  0  0  0  0  0  0  0
    0.3040   68.5320   65.4200 S   0  0  0  0  0  0  0  0  0  0  0  0
    0.8930   68.8420   63.7300 C   0  0  1  0  0  0  0  0  0  0  0  0
    1.8060   67.8010   63.3570 O   0  0  0  0  0  0  0  0  0  0  0  0
   -0.2720   68.8790   62.7300 C   0  0  0  0  0  0  0  0  0  0  0  0
   -1.5480   68.8040   63.3770 O   0  0  0  0  0  0  0  0  0  0  0  0
    6.3335   63.0287   62.7066 H   0  0  0  0  0  0  0  0  0  0  0  0
    5.3814   62.0094   63.8190 H   0  0  0  0  0  0  0  0  0  0  0  0
    3.4651   62.8824   65.1562 H   0  0  0  0  0  0  0  0  0  0  0  0
    2.1133   64.8851   65.6106 H   0  0  0  0  0  0  0  0  0  0  0  0
    3.2049   68.0812   64.8985 H   0  0  0  0  0  0  0  0  0  0  0  0
    0.8733   66.1756   65.4605 H   0  0  0  0  0  0  0  0  0  0  0  0
    1.8358   67.0558   66.6351 H   0  0  0  0  0  0  0  0  0  0  0  0
    1.3937   69.8212   63.7085 H   0  0  0  0  0  0  0  0  0  0  0  0
   -0.2192   69.8185   62.1603 H   0  0  0  0  0  0  0  0  0  0  0  0
   -0.1773   68.0031   62.0713 H   0  0  0  0  0  0  0  0  0  0  0  0
   -1.4211   68.8115   64.3588 H   0  0  0  0  0  0  0  0  0  0  0  0
  2  1  1  0
  3  2  1  0
  4  3  2  0
  5  4  1  0
  6  5  1  0
  7  6  2  0
  8  6  1  0
  8  2  2  0
  9  5  1  0
 10  9  1  0
 11 10  1  0
 12 11  1  0
 13 12  1  0
 13  9  1  0
 14 12  1  0
 15 14  1  0
  1 16  1  0
  1 17  1  0
  3 18  1  0
  4 19  1  0
  9 20  1  1
 10 21  1  0
 10 22  1  0
 12 23  1  1
 14 24  1  0
 14 25  1  0
 15 26  1  0
M  END
>  <score>  (3) 
-6.893

$$$$
=
     RDKit          3D

 26 27  0  0  0  0  0  0  0  0999 V2000
    3.7710   70.9100   69.4630 N   0  0  0  0  0  0  0  0  0  0  0  0
    3.7210   70.2130   68.2860 C   0  0  0  0  0  0  0  0  0  0  0  0
    4.8920   70.2090   67.3900 C   0  0  0  0  0  0  0  0  0  0  0  0
    4.7530   69.5220   66.2570 C   0  0  0  0  0  0  0  0  0  0  0  0
    3.5780   68.8680   65.9640 N   0  0  0  0  0  0  0  0  0  0  0  0
    2.5090   68.8550   66.8640 C   0  0  0  0  0  0  0  0  0  0  0  0
    1.4970   68.1980   66.6240 O   0  0  0  0  0  0  0  0  0  0  0  0
    2.6230   69.5750   68.0280 N   0  0  0  0  0  0  0  0  0  0  0  0
    3.4260   68.0710   64.7510 C   0  0  2  0  0  0  0  0  0  0  0  0
    4.7770   67.6950   64.1340 C   0  0  0  0  0  0  0  0  0  0  0  0
    4.3550   67.2130   62.4470 S   0  0  0  0  0  0  0  0  0  0  0  0
    2.7670   68.0910   62.5180 C   0  0  1  0  0  0  0  0  0  0  0  0
    2.6820   68.8010   63.7610 O   0  0  0  0  0  0  0  0  0  0  0  0
    2.6250   69.0840   61.3550 C   0  0  0  0  0  0  0  0  0  0  0  0
    3.7700   69.0830   60.4940 O   0  0  0  0  0  0  0  0  0  0  0  0
    2.9560   70.9163   70.0928 H   0  0  0  0  0  0  0  0  0  0  0  0
    4.6236   71.4281   69.7189 H   0  0  0  0  0  0  0  0  0  0  0  0
    5.8220   70.7399   67.6413 H   0  0  0  0  0  0  0  0  0  0  0  0
    5.5901   69.4768   65.5448 H   0  0  0  0  0  0  0  0  0  0  0  0
    2.8948   67.1541   65.0461 H   0  0  0  0  0  0  0  0  0  0  0  0
    5.4628   68.5551   64.1366 H   0  0  0  0  0  0  0  0  0  0  0  0
    5.2931   66.8980   64.6894 H   0  0  0  0  0  0  0  0  0  0  0  0
    1.9558   67.3523   62.4389 H   0  0  0  0  0  0  0  0  0  0  0  0
    1.7382   68.8115   60.7640 H   0  0  0  0  0  0  0  0  0  0  0  0
    2.5287   70.0922   61.7843 H   0  0  0  0  0  0  0  0  0  0  0  0
    4.5947   69.0823   61.0417 H   0  0  0  0  0  0  0  0  0  0  0  0
  2  1  1  0
  3  2  1  0
  4  3  2  0
  5  4  1  0
  6  5  1  0
  7  6  2  0
  8  6  1  0
  8  2  2  0
  9  5  1  0
 10  9  1  0
 11 10  1  0
 12 11  1  0
 13 12  1  0
 13  9  1  0
 14 12  1  0
 15 14  1  0
  1 16  1  0
  1 17  1  0
  3 18  1  0
  4 19  1  0
  9 20  1  1
 10 21  1  0
 10 22  1  0
 12 23  1  1
 14 24  1  0
 14 25  1  0
 15 26  1  0
M  END
>  <score>  (4) 
-6.819

$$$$
=
     RDKit          3D

 26 27  0  0  0  0  0  0  0  0999 V2000
    5.5830   63.0830   63.2890 N   0  0  0  0  0  0  0  0  0  0  0  0
    4.7320   64.0700   63.7030 C   0  0  0  0  0  0  0  0  0  0  0  0
    3.8460   63.8340   64.8580 C   0  0  0  0  0  0  0  0  0  0  0  0
    3.0360   64.8400   65.1830 C   0  0  0  0  0  0  0  0  0  0  0  0
    3.0420   66.0160   64.4680 N   0  0  0  0  0  0  0  0  0  0  0  0
    3.9330   66.2190   63.4110 C   0  0  0  0  0  0  0  0  0  0  0  0
    3.9840   67.3040   62.8340 O   0  0  0  0  0  0  0  0  0  0  0  0
    4.7630   65.1860   63.0440 N   0  0  0  0  0  0  0  0  0  0  0  0
    2.1970   67.1450   64.8410 C   0  0  2  0  0  0  0  0  0  0  0  0
    2.8630   68.0460   65.8850 C   0  0  0  0  0  0  0  0  0  0  0  0
    1.4920   69.0040   66.5600 S   0  0  0  0  0  0  0  0  0  0  0  0
    0.2670   67.8000   65.9670 C   0  0  1  0  0  0  0  0  0  0  0  0
    0.9540   66.6800   65.3950 O   0  0  0  0  0  0  0  0  0  0  0  0
   -0.6370   67.3140   67.1100 C   0  0  0  0  0  0  0  0  0  0  0  0
    0.1140   66.8280   68.2290 O   0  0  0  0  0  0  0  0  0  0  0  0
    6.2038   63.2429   62.4828 H   0  0  0  0  0  0  0  0  0  0  0  0
    5.6032   62.1796   63.7833 H   0  0  0  0  0  0  0  0  0  0  0  0
    3.8536   62.8862   65.4163 H   0  0  0  0  0  0  0  0  0  0  0  0
    2.3512   64.7292   66.0366 H   0  0  0  0  0  0  0  0  0  0  0  0
    2.0270   67.7226   63.9204 H   0  0  0  0  0  0  0  0  0  0  0  0
    3.3462   67.4459   66.6701 H   0  0  0  0  0  0  0  0  0  0  0  0
    3.6558   68.6783   65.4588 H   0  0  0  0  0  0  0  0  0  0  0  0
   -0.3676   68.2889   65.2132 H   0  0  0  0  0  0  0  0  0  0  0  0
   -1.2665   68.1521   67.4438 H   0  0  0  0  0  0  0  0  0  0  0  0
   -1.2456   66.4818   66.7266 H   0  0  0  0  0  0  0  0  0  0  0  0
   -0.3251   67.1121   69.0696 H   0  0  0  0  0  0  0  0  0  0  0  0
  2  1  1  0
  3  2  1  0
  4  3  2  0
  5  4  1  0
  6  5  1  0
  7  6  2  0
  8  6  1  0
  8  2  2  0
  9  5  1  0
 10  9  1  0
 11 10  1  0
 12 11  1  0
 13 12  1  0
 13  9  1  0
 14 12  1  0
 15 14  1  0
  1 16  1  0
  1 17  1  0
  3 18  1  0
  4 19  1  0
  9 20  1  6
 10 21  1  0
 10 22  1  0
 12 23  1  6
 14 24  1  0
 14 25  1  0
 15 26  1  0
M  END
>  <score>  (5) 
-6.802

$$$$
=
     RDKit          3D

 26 27  0  0  0  0  0  0  0  0999 V2000
    4.5160   68.7820   61.7520 N   0  0  0  0  0  0  0  0  0  0  0  0
    3.5440   68.7490   62.7140 C   0  0  0  0  0  0  0  0  0  0  0  0
    2.1660   68.3730   62.3480 C   0  0  0  0  0  0  0  0  0  0  0  0
    1.2790   68.3830   63.3420 C   0  0  0  0  0  0  0  0  0  0  0  0
    1.6500   68.7300   64.6220 N   0  0  0  0  0  0  0  0  0  0  0  0
    2.9780   69.0310   64.9360 C   0  0  0  0  0  0  0  0  0  0  0  0
    3.3090   69.2590   66.0990 O   0  0  0  0  0  0  0  0  0  0  0  0
    3.9050   69.0480   63.9230 N   0  0  0  0  0  0  0  0  0  0  0  0
    0.7020   68.7000   65.7300 C   0  0  2  0  0  0  0  0  0  0  0  0
    0.5250   67.2890   66.3000 C   0  0  0  0  0  0  0  0  0  0  0  0
   -1.0130   67.3970   67.2370 S   0  0  0  0  0  0  0  0  0  0  0  0
   -1.5380   68.8860   66.3370 C   0  0  1  0  0  0  0  0  0  0  0  0
   -0.5890   69.1610   65.2980 O   0  0  0  0  0  0  0  0  0  0  0  0
   -2.9320   68.7020   65.7180 C   0  0  0  0  0  0  0  0  0  0  0  0
   -2.9690   69.0750   64.3360 O   0  0  0  0  0  0  0  0  0  0  0  0
    5.4800   69.0440   62.0027 H   0  0  0  0  0  0  0  0  0  0  0  0
    4.2838   68.5448   60.7769 H   0  0  0  0  0  0  0  0  0  0  0  0
    1.8879   68.1013   61.3190 H   0  0  0  0  0  0  0  0  0  0  0  0
    0.2334   68.1097   63.1370 H   0  0  0  0  0  0  0  0  0  0  0  0
    1.1143   69.3570   66.5100 H   0  0  0  0  0  0  0  0  0  0  0  0
    0.4410   66.5472   65.4922 H   0  0  0  0  0  0  0  0  0  0  0  0
    1.3780   66.9676   66.9158 H   0  0  0  0  0  0  0  0  0  0  0  0
   -1.5867   69.7249   67.0468 H   0  0  0  0  0  0  0  0  0  0  0  0
   -3.2210   67.6443   65.8063 H   0  0  0  0  0  0  0  0  0  0  0  0
   -3.6293   69.3569   66.2610 H   0  0  0  0  0  0  0  0  0  0  0  0
   -3.0664   70.0574   64.2618 H   0  0  0  0  0  0  0  0  0  0  0  0
  2  1  1  0
  3  2  1  0
  4  3  2  0
  5  4  1  0
  6  5  1  0
  7  6  2  0
  8  6  1  0
  8  2  2  0
  9  5  1  0
 10  9  1  0
 11 10  1  0
 12 11  1  0
 13 12  1  0
 13  9  1  0
 14 12  1  0
 15 14  1  0
  1 16  1  0
  1 17  1  0
  3 18  1  0
  4 19  1  0
  9 20  1  1
 10 21  1  0
 10 22  1  0
 12 23  1  1
 14 24  1  0
 14 25  1  0
 15 26  1  0
M  END
>  <score>  (6) 
-6.761

$$$$
=
     RDKit          3D

 26 27  0  0  0  0  0  0  0  0999 V2000
   -2.8520   68.1750   67.2340 N   0  0  0  0  0  0  0  0  0  0  0  0
   -1.6470   68.1310   66.5880 C   0  0  0  0  0  0  0  0  0  0  0  0
   -1.4730   68.8580   65.3170 C   0  0  0  0  0  0  0  0  0  0  0  0
   -0.2750   68.7490   64.7460 C   0  0  0  0  0  0  0  0  0  0  0  0
    0.7220   67.9950   65.3240 N   0  0  0  0  0  0  0  0  0  0  0  0
    0.5320   67.3630   66.5560 C   0  0  0  0  0  0  0  0  0  0  0  0
    1.4570   66.7610   67.0990 O   0  0  0  0  0  0  0  0  0  0  0  0
   -0.7030   67.4450   67.1520 N   0  0  0  0  0  0  0  0  0  0  0  0
    2.0540   67.9050   64.7370 C   0  0  2  0  0  0  0  0  0  0  0  0
    2.9470   69.0790   65.1470 C   0  0  0  0  0  0  0  0  0  0  0  0
    4.2810   69.0460   63.9330 S   0  0  0  0  0  0  0  0  0  0  0  0
    3.2930   68.0580   62.7710 C   0  0  1  0  0  0  0  0  0  0  0  0
    1.9700   67.9010   63.3010 O   0  0  0  0  0  0  0  0  0  0  0  0
    3.2120   68.7320   61.3930 C   0  0  0  0  0  0  0  0  0  0  0  0
    1.8750   69.1150   61.0500 O   0  0  0  0  0  0  0  0  0  0  0  0
   -2.9790   67.6690   68.1221 H   0  0  0  0  0  0  0  0  0  0  0  0
   -3.6323   68.7141   66.8323 H   0  0  0  0  0  0  0  0  0  0  0  0
   -2.2822   69.4531   64.8686 H   0  0  0  0  0  0  0  0  0  0  0  0
   -0.0785   69.2697   63.7972 H   0  0  0  0  0  0  0  0  0  0  0  0
    2.4946   66.9683   65.1090 H   0  0  0  0  0  0  0  0  0  0  0  0
    2.3942   70.0286   65.0966 H   0  0  0  0  0  0  0  0  0  0  0  0
    3.3104   68.9970   66.1820 H   0  0  0  0  0  0  0  0  0  0  0  0
    3.7775   67.0785   62.6453 H   0  0  0  0  0  0  0  0  0  0  0  0
    3.8457   69.6311   61.4017 H   0  0  0  0  0  0  0  0  0  0  0  0
    3.5551   68.0041   60.6430 H   0  0  0  0  0  0  0  0  0  0  0  0
    1.3521   69.2648   61.8772 H   0  0  0  0  0  0  0  0  0  0  0  0
  2  1  1  0
  3  2  1  0
  4  3  2  0
  5  4  1  0
  6  5  1  0
  7  6  2  0
  8  6  1  0
  8  2  2  0
  9  5  1  0
 10  9  1  0
 11 10  1  0
 12 11  1  0
 13 12  1  0
 13  9  1  0
 14 12  1  0
 15 14  1  0
  1 16  1  0
  1 17  1  0
  3 18  1  0
  4 19  1  0
  9 20  1  1
 10 21  1  0
 10 22  1  0
 12 23  1  6
 14 24  1  0
 14 25  1  0
 15 26  1  0
M  END
>  <score>  (7) 
-6.76

$$$$
=
     RDKit          3D

 26 27  0  0  0  0  0  0  0  0999 V2000
   -2.8100   67.9630   67.2090 N   0  0  0  0  0  0  0  0  0  0  0  0
   -1.5700   68.1370   66.6580 C   0  0  0  0  0  0  0  0  0  0  0  0
   -0.3670   67.8570   67.4640 C   0  0  0  0  0  0  0  0  0  0  0  0
    0.8000   68.0690   66.8570 C   0  0  0  0  0  0  0  0  0  0  0  0
    0.8520   68.5250   65.5590 N   0  0  0  0  0  0  0  0  0  0  0  0
   -0.3120   68.7300   64.8130 C   0  0  0  0  0  0  0  0  0  0  0  0
   -0.2470   69.0580   63.6300 O   0  0  0  0  0  0  0  0  0  0  0  0
   -1.5270   68.5380   65.4270 N   0  0  0  0  0  0  0  0  0  0  0  0
    2.1200   68.7160   64.8640 C   0  0  2  0  0  0  0  0  0  0  0  0
    2.7920   67.3860   64.5120 C   0  0  0  0  0  0  0  0  0  0  0  0
    4.5030   67.8480   64.1730 S   0  0  0  0  0  0  0  0  0  0  0  0
    4.3310   69.4170   65.0750 C   0  0  1  0  0  0  0  0  0  0  0  0
    3.0340   69.4630   65.6850 O   0  0  0  0  0  0  0  0  0  0  0  0
    5.4100   69.5590   66.1590 C   0  0  0  0  0  0  0  0  0  0  0  0
    6.1360   70.7890   66.0480 O   0  0  0  0  0  0  0  0  0  0  0  0
   -3.6535   68.1571   66.6507 H   0  0  0  0  0  0  0  0  0  0  0  0
   -2.9001   67.6379   68.1822 H   0  0  0  0  0  0  0  0  0  0  0  0
   -0.4293   67.4958   68.5011 H   0  0  0  0  0  0  0  0  0  0  0  0
    1.7363   67.8767   67.4013 H   0  0  0  0  0  0  0  0  0  0  0  0
    1.8873   69.2604   63.9369 H   0  0  0  0  0  0  0  0  0  0  0  0
    2.7354   66.6825   65.3557 H   0  0  0  0  0  0  0  0  0  0  0  0
    2.3116   66.8771   63.6633 H   0  0  0  0  0  0  0  0  0  0  0  0
    4.4516   70.2461   64.3622 H   0  0  0  0  0  0  0  0  0  0  0  0
    4.9262   69.5220   67.1462 H   0  0  0  0  0  0  0  0  0  0  0  0
    6.1259   68.7338   66.0303 H   0  0  0  0  0  0  0  0  0  0  0  0
    6.3400   71.1346   66.9530 H   0  0  0  0  0  0  0  0  0  0  0  0
  2  1  1  0
  3  2  1  0
  4  3  2  0
  5  4  1  0
  6  5  1  0
  7  6  2  0
  8  6  1  0
  8  2  2  0
  9  5  1  0
 10  9  1  0
 11 10  1  0
 12 11  1  0
 13 12  1  0
 13  9  1  0
 14 12  1  0
 15 14  1  0
  1 16  1  0
  1 17  1  0
  3 18  1  0
  4 19  1  0
  9 20  1  6
 10 21  1  0
 10 22  1  0
 12 23  1  6
 14 24  1  0
 14 25  1  0
 15 26  1  0
M  END
>  <score>  (8) 
-6.735

$$$$
=
     RDKit          3D

 26 27  0  0  0  0  0  0  0  0999 V2000
    4.6980   66.8420   61.6430 N   0  0  0  0  0  0  0  0  0  0  0  0
    3.7860   67.2910   62.5580 C   0  0  0  0  0  0  0  0  0  0  0  0
    3.9860   67.0020   63.9900 C   0  0  0  0  0  0  0  0  0  0  0  0
    3.0420   67.4600   64.8110 C   0  0  0  0  0  0  0  0  0  0  0  0
    1.9560   68.1550   64.3270 N   0  0  0  0  0  0  0  0  0  0  0  0
    1.8300   68.4510   62.9680 C   0  0  0  0  0  0  0  0  0  0  0  0
    0.8970   69.1420   62.5620 O   0  0  0  0  0  0  0  0  0  0  0  0
    2.7810   67.9700   62.1000 N   0  0  0  0  0  0  0  0  0  0  0  0
    0.9390   68.7050   65.2170 C   0  0  2  0  0  0  0  0  0  0  0  0
    1.4940   69.0050   66.6130 C   0  0  0  0  0  0  0  0  0  0  0  0
    0.0160   69.1480   67.6380 S   0  0  0  0  0  0  0  0  0  0  0  0
   -0.9950   68.2440   66.4280 C   0  0  1  0  0  0  0  0  0  0  0  0
   -0.1490   67.7770   65.3700 O   0  0  0  0  0  0  0  0  0  0  0  0
   -1.7050   67.0460   67.0780 C   0  0  0  0  0  0  0  0  0  0  0  0
   -3.0020   67.3890   67.5810 O   0  0  0  0  0  0  0  0  0  0  0  0
    4.5634   67.0409   60.6414 H   0  0  0  0  0  0  0  0  0  0  0  0
    5.5195   66.3049   61.9555 H   0  0  0  0  0  0  0  0  0  0  0  0
    4.8596   66.4435   64.3573 H   0  0  0  0  0  0  0  0  0  0  0  0
    3.1314   67.2802   65.8925 H   0  0  0  0  0  0  0  0  0  0  0  0
    0.5956   69.6422   64.7547 H   0  0  0  0  0  0  0  0  0  0  0  0
    2.1372   68.1847   66.9642 H   0  0  0  0  0  0  0  0  0  0  0  0
    2.1197   69.9093   66.6381 H   0  0  0  0  0  0  0  0  0  0  0  0
   -1.7632   68.9262   66.0350 H   0  0  0  0  0  0  0  0  0  0  0  0
   -1.8162   66.2506   66.3264 H   0  0  0  0  0  0  0  0  0  0  0  0
   -1.0920   66.7129   67.9284 H   0  0  0  0  0  0  0  0  0  0  0  0
   -2.9839   67.3842   68.5708 H   0  0  0  0  0  0  0  0  0  0  0  0
  2  1  1  0
  3  2  1  0
  4  3  2  0
  5  4  1  0
  6  5  1  0
  7  6  2  0
  8  6  1  0
  8  2  2  0
  9  5  1  0
 10  9  1  0
 11 10  1  0
 12 11  1  0
 13 12  1  0
 13  9  1  0
 14 12  1  0
 15 14  1  0
  1 16  1  0
  1 17  1  0
  3 18  1  0
  4 19  1  0
  9 20  1  6
 10 21  1  0
 10 22  1  0
 12 23  1  6
 14 24  1  0
 14 25  1  0
 15 26  1  0
M  END
>  <score>  (9) 
-6.385

$$$$
