=
     RDKit          3D

 62 64  0  0  0  0  0  0  0  0999 V2000
    5.3520   69.4820   65.9390 C   0  0  1  0  0  0  0  0  0  0  0  0
    6.6230   70.3430   66.0130 C   0  0  0  0  0  0  0  0  0  0  0  0
    7.2140   70.4110   67.4070 C   0  0  0  0  0  0  0  0  0  0  0  0
    6.1710   70.9140   68.3460 C   0  0  0  0  0  0  0  0  0  0  0  0
    4.8860   70.5290   68.2460 C   0  0  0  0  0  0  0  0  0  0  0  0
    4.4560   69.4610   67.2310 C   0  0  1  0  0  0  0  0  0  0  0  0
    2.9140   69.4750   66.9620 C   0  0  2  0  0  0  0  0  0  0  0  0
    2.0670   69.6410   68.2640 C   0  0  2  0  0  0  0  0  0  0  0  0
    2.6240   70.7170   69.1530 C   0  0  0  0  0  0  0  0  0  0  0  0
    3.9030   71.1040   69.1350 C   0  0  0  0  0  0  0  0  0  0  0  0
    1.8920   68.3820   69.1120 C   0  0  0  0  0  0  0  0  0  0  0  0
    4.5970   69.9430   64.7970 O   0  0  0  0  0  0  0  0  0  0  0  0
    4.9350   69.4230   63.5850 C   0  0  0  0  0  0  0  0  0  0  0  0
    5.8880   69.7780   62.9060 O   0  0  0  0  0  0  0  0  0  0  0  0
    3.9620   68.3250   63.1970 C   0  0  1  0  0  0  0  0  0  0  0  0
    3.2880   68.7080   61.8840 C   0  0  0  0  0  0  0  0  0  0  0  0
    4.0220   65.8680   63.8790 C   0  0  0  0  0  0  0  0  0  0  0  0
    4.7180   66.9920   63.1260 C   0  0  0  0  0  0  0  0  0  0  0  0
    2.3070   68.3920   66.0150 C   0  0  0  0  0  0  0  0  0  0  0  0
    1.2070   68.7320   64.9960 C   0  0  0  0  0  0  0  0  0  0  0  0
    0.0550   67.7320   64.8790 C   0  0  2  0  0  0  0  0  0  0  0  0
   -1.3070   68.3710   64.6660 C   0  0  0  0  0  0  0  0  0  0  0  0
   -1.7190   69.2010   65.8680 C   0  0  2  0  0  0  0  0  0  0  0  0
   -1.3020   68.5960   67.2000 C   0  0  0  0  0  0  0  0  0  0  0  0
   -0.7320   67.2050   67.1280 C   0  0  0  0  0  0  0  0  0  0  0  0
   -0.8410   66.4210   68.0660 O   0  0  0  0  0  0  0  0  0  0  0  0
    0.0020   66.8820   66.0390 O   0  0  0  0  0  0  0  0  0  0  0  0
   -3.1350   69.3740   65.8100 O   0  0  0  0  0  0  0  0  0  0  0  0
    5.6732   68.4343   65.8431 H   0  0  0  0  0  0  0  0  0  0  0  0
    7.3755   69.9156   65.3340 H   0  0  0  0  0  0  0  0  0  0  0  0
    6.3430   71.3670   65.7248 H   0  0  0  0  0  0  0  0  0  0  0  0
    7.5405   69.4082   67.7196 H   0  0  0  0  0  0  0  0  0  0  0  0
    8.0809   71.0881   67.4132 H   0  0  0  0  0  0  0  0  0  0  0  0
    6.4595   71.6177   69.1407 H   0  0  0  0  0  0  0  0  0  0  0  0
    4.6411   68.4769   67.6862 H   0  0  0  0  0  0  0  0  0  0  0  0
    2.8312   70.3867   66.3521 H   0  0  0  0  0  0  0  0  0  0  0  0
    1.0734   69.9076   67.8744 H   0  0  0  0  0  0  0  0  0  0  0  0
    1.9409   71.2137   69.8578 H   0  0  0  0  0  0  0  0  0  0  0  0
    4.2217   71.8962   69.8284 H   0  0  0  0  0  0  0  0  0  0  0  0
    1.9292   68.6500   70.1782 H   0  0  0  0  0  0  0  0  0  0  0  0
    0.9208   67.9185   68.8841 H   0  0  0  0  0  0  0  0  0  0  0  0
    2.7000   67.6712   68.8841 H   0  0  0  0  0  0  0  0  0  0  0  0
    3.1662   68.2033   63.9466 H   0  0  0  0  0  0  0  0  0  0  0  0
    2.3495   69.2413   62.0955 H   0  0  0  0  0  0  0  0  0  0  0  0
    3.9579   69.3604   61.3046 H   0  0  0  0  0  0  0  0  0  0  0  0
    3.0704   67.7986   61.3046 H   0  0  0  0  0  0  0  0  0  0  0  0
    4.1245   66.0335   64.9616 H   0  0  0  0  0  0  0  0  0  0  0  0
    2.9555   65.8518   63.6099 H   0  0  0  0  0  0  0  0  0  0  0  0
    4.4828   64.9061   63.6099 H   0  0  0  0  0  0  0  0  0  0  0  0
    5.7196   67.1346   63.5579 H   0  0  0  0  0  0  0  0  0  0  0  0
    4.7631   66.6975   62.0671 H   0  0  0  0  0  0  0  0  0  0  0  0
    3.1476   67.9812   65.4366 H   0  0  0  0  0  0  0  0  0  0  0  0
    1.7765   67.7358   66.7207 H   0  0  0  0  0  0  0  0  0  0  0  0
    0.7782   69.7048   65.2786 H   0  0  0  0  0  0  0  0  0  0  0  0
    1.7042   68.7208   64.0149 H   0  0  0  0  0  0  0  0  0  0  0  0
    0.2743   67.1437   63.9758 H   0  0  0  0  0  0  0  0  0  0  0  0
   -1.2636   69.0207   63.7794 H   0  0  0  0  0  0  0  0  0  0  0  0
   -2.0485   67.5708   64.5252 H   0  0  0  0  0  0  0  0  0  0  0  0
   -1.1955   70.1671   65.8175 H   0  0  0  0  0  0  0  0  0  0  0  0
   -0.5404   69.2519   67.6469 H   0  0  0  0  0  0  0  0  0  0  0  0
   -2.2223   68.5155   67.7972 H   0  0  0  0  0  0  0  0  0  0  0  0
   -3.4999   69.4186   66.7292 H   0  0  0  0  0  0  0  0  0  0  0  0
  2  1  1  0
  3  2  1  0
  4  3  1  0
  5  4  2  0
  6  5  1  0
  6  1  1  0
  7  6  1  0
  8  7  1  0
  9  8  1  0
 10  9  2  0
 10  5  1  0
 11  8  1  0
 12  1  1  0
 13 12  1  0
 14 13  2  0
 15 13  1  0
 16 15  1  0
 18 17  1  0
 18 15  1  0
 19  7  1  0
 20 19  1  0
 21 20  1  0
 22 21  1  0
 23 22  1  0
 24 23  1  0
 25 24  1  0
 26 25  2  0
 27 21  1  0
 27 25  1  0
 28 23  1  0
  1 29  1  6
  2 30  1  0
  2 31  1  0
  3 32  1  0
  3 33  1  0
  4 34  1  0
  6 35  1  1
  7 36  1  6
  8 37  1  6
  9 38  1  0
 10 39  1  0
 11 40  1  0
 11 41  1  0
 11 42  1  0
 15 43  1  1
 16 44  1  0
 16 45  1  0
 16 46  1  0
 17 47  1  0
 17 48  1  0
 17 49  1  0
 18 50  1  0
 18 51  1  0
 19 52  1  0
 19 53  1  0
 20 54  1  0
 20 55  1  0
 21 56  1  6
 22 57  1  0
 22 58  1  0
 23 59  1  6
 24 60  1  0
 24 61  1  0
 28 62  1  0
M  END
>  <score>  (1) 
-9.346

$$$$
=
     RDKit          3D

 62 64  0  0  0  0  0  0  0  0999 V2000
    0.0430   61.6240   73.7620 C   0  0  1  0  0  0  0  0  0  0  0  0
   -1.4730   61.3800   73.6940 C   0  0  0  0  0  0  0  0  0  0  0  0
   -1.9190   60.1820   74.5100 C   0  0  0  0  0  0  0  0  0  0  0  0
   -1.1620   58.9820   74.0510 C   0  0  0  0  0  0  0  0  0  0  0  0
    0.1420   59.0510   73.7290 C   0  0  0  0  0  0  0  0  0  0  0  0
    0.9410   60.3450   73.9320 C   0  0  1  0  0  0  0  0  0  0  0  0
    2.2730   60.3640   73.1090 C   0  0  2  0  0  0  0  0  0  0  0  0
    3.0410   59.0040   73.1590 C   0  0  2  0  0  0  0  0  0  0  0  0
    2.1170   57.8370   72.9530 C   0  0  0  0  0  0  0  0  0  0  0  0
    0.8080   57.8740   73.2190 C   0  0  0  0  0  0  0  0  0  0  0  0
    3.8480   58.7390   74.4290 C   0  0  0  0  0  0  0  0  0  0  0  0
    0.4050   62.3530   72.5690 O   0  0  0  0  0  0  0  0  0  0  0  0
    0.2820   63.7080   72.6130 C   0  0  0  0  0  0  0  0  0  0  0  0
   -0.0480   64.3540   73.5980 O   0  0  0  0  0  0  0  0  0  0  0  0
    0.6270   64.3100   71.2640 C   0  0  1  0  0  0  0  0  0  0  0  0
    0.0420   63.4240   70.1680 C   0  0  0  0  0  0  0  0  0  0  0  0
    0.2030   66.3770   69.8310 C   0  0  0  0  0  0  0  0  0  0  0  0
    0.1130   65.7550   71.2160 C   0  0  0  0  0  0  0  0  0  0  0  0
    3.2400   61.5780   73.2730 C   0  0  0  0  0  0  0  0  0  0  0  0
    3.5040   62.5630   72.1230 C   0  0  0  0  0  0  0  0  0  0  0  0
    4.6530   62.2100   71.1750 C   0  0  2  0  0  0  0  0  0  0  0  0
    4.6930   63.0440   69.9050 C   0  0  0  0  0  0  0  0  0  0  0  0
    3.4710   62.7900   69.0420 C   0  0  2  0  0  0  0  0  0  0  0  0
    3.0050   61.3420   69.0510 C   0  0  0  0  0  0  0  0  0  0  0  0
    3.9260   60.3720   69.7440 C   0  0  0  0  0  0  0  0  0  0  0  0
    3.9820   59.1930   69.4060 O   0  0  0  0  0  0  0  0  0  0  0  0
    4.6090   60.8150   70.8230 O   0  0  0  0  0  0  0  0  0  0  0  0
    3.7810   63.2140   67.7150 O   0  0  0  0  0  0  0  0  0  0  0  0
    0.2419   62.1897   74.6841 H   0  0  0  0  0  0  0  0  0  0  0  0
   -1.9891   62.2742   74.0737 H   0  0  0  0  0  0  0  0  0  0  0  0
   -1.7257   61.1742   72.6434 H   0  0  0  0  0  0  0  0  0  0  0  0
   -1.7147   60.3632   75.5756 H   0  0  0  0  0  0  0  0  0  0  0  0
   -2.9984   60.0181   74.3757 H   0  0  0  0  0  0  0  0  0  0  0  0
   -1.6831   58.0163   73.9739 H   0  0  0  0  0  0  0  0  0  0  0  0
    1.2715   60.3691   74.9809 H   0  0  0  0  0  0  0  0  0  0  0  0
    1.8750   60.5239   72.0961 H   0  0  0  0  0  0  0  0  0  0  0  0
    3.7615   59.1034   72.3338 H   0  0  0  0  0  0  0  0  0  0  0  0
    2.5416   56.9007   72.5617 H   0  0  0  0  0  0  0  0  0  0  0  0
    0.2103   56.9677   73.0418 H   0  0  0  0  0  0  0  0  0  0  0  0
    3.2226   58.9444   75.3103 H   0  0  0  0  0  0  0  0  0  0  0  0
    4.1710   57.6876   74.4455 H   0  0  0  0  0  0  0  0  0  0  0  0
    4.7314   59.3942   74.4455 H   0  0  0  0  0  0  0  0  0  0  0  0
    1.7144   64.3511   71.1033 H   0  0  0  0  0  0  0  0  0  0  0  0
   -0.5090   62.5895   70.6262 H   0  0  0  0  0  0  0  0  0  0  0  0
   -0.6429   64.0168   69.5438 H   0  0  0  0  0  0  0  0  0  0  0  0
    0.8562   63.0270   69.5438 H   0  0  0  0  0  0  0  0  0  0  0  0
    0.3599   67.4616   69.9257 H   0  0  0  0  0  0  0  0  0  0  0  0
    1.0460   65.9310   69.2828 H   0  0  0  0  0  0  0  0  0  0  0  0
   -0.7318   66.1882   69.2828 H   0  0  0  0  0  0  0  0  0  0  0  0
    0.7111   66.3621   71.9115 H   0  0  0  0  0  0  0  0  0  0  0  0
   -0.9505   65.7332   71.4962 H   0  0  0  0  0  0  0  0  0  0  0  0
    2.8463   62.1761   74.1080 H   0  0  0  0  0  0  0  0  0  0  0  0
    4.2167   61.0850   73.3871 H   0  0  0  0  0  0  0  0  0  0  0  0
    2.5844   62.6317   71.5233 H   0  0  0  0  0  0  0  0  0  0  0  0
    3.8033   63.5043   72.6072 H   0  0  0  0  0  0  0  0  0  0  0  0
    5.5709   62.4409   71.7355 H   0  0  0  0  0  0  0  0  0  0  0  0
    4.7252   64.1095   70.1765 H   0  0  0  0  0  0  0  0  0  0  0  0
    5.5885   62.7622   69.3317 H   0  0  0  0  0  0  0  0  0  0  0  0
    2.6296   63.3626   69.4593 H   0  0  0  0  0  0  0  0  0  0  0  0
    2.0285   61.3027   69.5558 H   0  0  0  0  0  0  0  0  0  0  0  0
    2.9704   61.0278   67.9974 H   0  0  0  0  0  0  0  0  0  0  0  0
    4.3649   64.0126   67.7517 H   0  0  0  0  0  0  0  0  0  0  0  0
  2  1  1  0
  3  2  1  0
  4  3  1  0
  5  4  2  0
  6  5  1  0
  6  1  1  0
  7  6  1  0
  8  7  1  0
  9  8  1  0
 10  9  2  0
 10  5  1  0
 11  8  1  0
 12  1  1  0
 13 12  1  0
 14 13  2  0
 15 13  1  0
 16 15  1  0
 18 17  1  0
 18 15  1  0
 19  7  1  0
 20 19  1  0
 21 20  1  0
 22 21  1  0
 23 22  1  0
 24 23  1  0
 25 24  1  0
 26 25  2  0
 27 21  1  0
 27 25  1  0
 28 23  1  0
  1 29  1  1
  2 30  1  0
  2 31  1  0
  3 32  1  0
  3 33  1  0
  4 34  1  0
  6 35  1  1
  7 36  1  6
  8 37  1  6
  9 38  1  0
 10 39  1  0
 11 40  1  0
 11 41  1  0
 11 42  1  0
 15 43  1  6
 16 44  1  0
 16 45  1  0
 16 46  1  0
 17 47  1  0
 17 48  1  0
 17 49  1  0
 18 50  1  0
 18 51  1  0
 19 52  1  0
 19 53  1  0
 20 54  1  0
 20 55  1  0
 21 56  1  1
 22 57  1  0
 22 58  1  0
 23 59  1  1
 24 60  1  0
 24 61  1  0
 28 62  1  0
M  END
>  <score>  (2) 
-8.695

$$$$
=
     RDKit          3D

 62 64  0  0  0  0  0  0  0  0999 V2000
    2.4140   69.1930   67.3360 C   0  0  1  0  0  0  0  0  0  0  0  0
    2.3240   69.6500   68.8010 C   0  0  0  0  0  0  0  0  0  0  0  0
    3.0160   70.9750   69.0530 C   0  0  0  0  0  0  0  0  0  0  0  0
    4.4360   70.8650   68.6120 C   0  0  0  0  0  0  0  0  0  0  0  0
    4.7790   70.2000   67.4950 C   0  0  0  0  0  0  0  0  0  0  0  0
    3.7100   69.6220   66.5570 C   0  0  1  0  0  0  0  0  0  0  0  0
    4.2850   68.5350   65.5890 C   0  0  2  0  0  0  0  0  0  0  0  0
    5.6690   68.9300   64.9790 C   0  0  2  0  0  0  0  0  0  0  0  0
    6.5960   69.4860   66.0230 C   0  0  0  0  0  0  0  0  0  0  0  0
    6.1770   70.0610   67.1540 C   0  0  0  0  0  0  0  0  0  0  0  0
    5.6300   69.9220   63.8180 C   0  0  0  0  0  0  0  0  0  0  0  0
    2.2640   67.7560   67.3340 O   0  0  0  0  0  0  0  0  0  0  0  0
    0.9990   67.2680   67.2210 C   0  0  0  0  0  0  0  0  0  0  0  0
    0.4900   66.8610   66.1860 O   0  0  0  0  0  0  0  0  0  0  0  0
    0.3070   67.2900   68.5700 C   0  0  1  0  0  0  0  0  0  0  0  0
   -1.1000   66.7210   68.4100 C   0  0  0  0  0  0  0  0  0  0  0  0
    0.3740   65.4790   70.3660 C   0  0  0  0  0  0  0  0  0  0  0  0
    1.1630   66.5170   69.5820 C   0  0  0  0  0  0  0  0  0  0  0  0
    3.3400   67.9120   64.5140 C   0  0  0  0  0  0  0  0  0  0  0  0
    2.3060   68.7600   63.7550 C   0  0  0  0  0  0  0  0  0  0  0  0
    1.3450   68.0010   62.8380 C   0  0  2  0  0  0  0  0  0  0  0  0
    1.2140   68.5930   61.4440 C   0  0  0  0  0  0  0  0  0  0  0  0
    0.5930   69.9770   61.4900 C   0  0  2  0  0  0  0  0  0  0  0  0
   -0.4960   70.1240   62.5430 C   0  0  0  0  0  0  0  0  0  0  0  0
   -0.9110   68.8470   63.2250 C   0  0  0  0  0  0  0  0  0  0  0  0
   -2.0470   68.7000   63.6660 O   0  0  0  0  0  0  0  0  0  0  0  0
    0.0400   67.9090   63.4370 O   0  0  0  0  0  0  0  0  0  0  0  0
    0.0820   70.2660   60.1890 O   0  0  0  0  0  0  0  0  0  0  0  0
    1.6128   69.7065   66.7843 H   0  0  0  0  0  0  0  0  0  0  0  0
    1.2627   69.7521   69.0715 H   0  0  0  0  0  0  0  0  0  0  0  0
    2.8335   68.8916   69.4136 H   0  0  0  0  0  0  0  0  0  0  0  0
    2.5122   71.7698   68.4834 H   0  0  0  0  0  0  0  0  0  0  0  0
    2.9746   71.2213   70.1243 H   0  0  0  0  0  0  0  0  0  0  0  0
    5.2231   71.3401   69.2160 H   0  0  0  0  0  0  0  0  0  0  0  0
    3.3823   70.4316   65.8883 H   0  0  0  0  0  0  0  0  0  0  0  0
    4.4183   67.6989   66.2912 H   0  0  0  0  0  0  0  0  0  0  0  0
    6.0353   67.9750   64.5743 H   0  0  0  0  0  0  0  0  0  0  0  0
    7.6794   69.4157   65.8463 H   0  0  0  0  0  0  0  0  0  0  0  0
    6.9299   70.4460   67.8575 H   0  0  0  0  0  0  0  0  0  0  0  0
    5.5897   70.9477   64.2133 H   0  0  0  0  0  0  0  0  0  0  0  0
    6.5336   69.8016   63.2023 H   0  0  0  0  0  0  0  0  0  0  0  0
    4.7387   69.7310   63.2023 H   0  0  0  0  0  0  0  0  0  0  0  0
    0.2009   68.3149   68.9552 H   0  0  0  0  0  0  0  0  0  0  0  0
   -1.5388   66.5435   69.4029 H   0  0  0  0  0  0  0  0  0  0  0  0
   -1.7244   67.4373   67.8559 H   0  0  0  0  0  0  0  0  0  0  0  0
   -1.0509   65.7720   67.8559 H   0  0  0  0  0  0  0  0  0  0  0  0
    0.5073   65.6543   71.4437 H   0  0  0  0  0  0  0  0  0  0  0  0
   -0.6929   65.5596   70.1106 H   0  0  0  0  0  0  0  0  0  0  0  0
    0.7372   64.4726   70.1106 H   0  0  0  0  0  0  0  0  0  0  0  0
    1.5981   67.2352   70.2925 H   0  0  0  0  0  0  0  0  0  0  0  0
    1.9354   65.9789   69.0129 H   0  0  0  0  0  0  0  0  0  0  0  0
    3.9933   67.4649   63.7502 H   0  0  0  0  0  0  0  0  0  0  0  0
    2.7012   67.2522   65.1194 H   0  0  0  0  0  0  0  0  0  0  0  0
    1.7023   69.2981   64.5007 H   0  0  0  0  0  0  0  0  0  0  0  0
    2.8931   69.4098   63.0893 H   0  0  0  0  0  0  0  0  0  0  0  0
    1.7889   67.0017   62.7180 H   0  0  0  0  0  0  0  0  0  0  0  0
    2.2130   68.6632   60.9890 H   0  0  0  0  0  0  0  0  0  0  0  0
    0.5608   67.9385   60.8483 H   0  0  0  0  0  0  0  0  0  0  0  0
    1.3723   70.6959   61.7832 H   0  0  0  0  0  0  0  0  0  0  0  0
   -0.1307   70.8177   63.3146 H   0  0  0  0  0  0  0  0  0  0  0  0
   -1.3870   70.4863   62.0093 H   0  0  0  0  0  0  0  0  0  0  0  0
   -0.7767   70.7516   60.2721 H   0  0  0  0  0  0  0  0  0  0  0  0
  2  1  1  0
  3  2  1  0
  4  3  1  0
  5  4  2  0
  6  5  1  0
  6  1  1  0
  7  6  1  0
  8  7  1  0
  9  8  1  0
 10  9  2  0
 10  5  1  0
 11  8  1  0
 12  1  1  0
 13 12  1  0
 14 13  2  0
 15 13  1  0
 16 15  1  0
 18 17  1  0
 18 15  1  0
 19  7  1  0
 20 19  1  0
 21 20  1  0
 22 21  1  0
 23 22  1  0
 24 23  1  0
 25 24  1  0
 26 25  2  0
 27 21  1  0
 27 25  1  0
 28 23  1  0
  1 29  1  6
  2 30  1  0
  2 31  1  0
  3 32  1  0
  3 33  1  0
  4 34  1  0
  6 35  1  6
  7 36  1  1
  8 37  1  6
  9 38  1  0
 10 39  1  0
 11 40  1  0
 11 41  1  0
 11 42  1  0
 15 43  1  1
 16 44  1  0
 16 45  1  0
 16 46  1  0
 17 47  1  0
 17 48  1  0
 17 49  1  0
 18 50  1  0
 18 51  1  0
 19 52  1  0
 19 53  1  0
 20 54  1  0
 20 55  1  0
 21 56  1  6
 22 57  1  0
 22 58  1  0
 23 59  1  1
 24 60  1  0
 24 61  1  0
 28 62  1  0
M  END
>  <score>  (3) 
-8.421

$$$$
=
     RDKit          3D

 62 64  0  0  0  0  0  0  0  0999 V2000
    0.5700   62.7290   71.7690 C   0  0  1  0  0  0  0  0  0  0  0  0
    0.1360   64.2020   71.8190 C   0  0  0  0  0  0  0  0  0  0  0  0
    0.5370   64.9810   70.5810 C   0  0  0  0  0  0  0  0  0  0  0  0
    2.0120   64.8630   70.3970 C   0  0  0  0  0  0  0  0  0  0  0  0
    2.6610   63.7080   70.6290 C   0  0  0  0  0  0  0  0  0  0  0  0
    1.8960   62.4250   70.9810 C   0  0  1  0  0  0  0  0  0  0  0  0
    2.8140   61.3380   71.6340 C   0  0  2  0  0  0  0  0  0  0  0  0
    4.1990   61.2020   70.9240 C   0  0  2  0  0  0  0  0  0  0  0  0
    4.8110   62.5450   70.6410 C   0  0  0  0  0  0  0  0  0  0  0  0
    4.1010   63.6690   70.5070 C   0  0  0  0  0  0  0  0  0  0  0  0
    4.2080   60.4040   69.6220 C   0  0  0  0  0  0  0  0  0  0  0  0
    0.6680   62.2730   73.1370 O   0  0  0  0  0  0  0  0  0  0  0  0
   -0.4940   62.1820   73.8410 C   0  0  0  0  0  0  0  0  0  0  0  0
   -0.8200   62.9200   74.7610 O   0  0  0  0  0  0  0  0  0  0  0  0
   -1.3380   61.0390   73.3130 C   0  0  1  0  0  0  0  0  0  0  0  0
   -0.6410   59.7220   73.6400 C   0  0  0  0  0  0  0  0  0  0  0  0
   -3.1620   59.9070   74.6920 C   0  0  0  0  0  0  0  0  0  0  0  0
   -2.7490   61.1440   73.9080 C   0  0  0  0  0  0  0  0  0  0  0  0
    2.2020   59.9430   71.9730 C   0  0  0  0  0  0  0  0  0  0  0  0
    2.9280   58.9410   72.8850 C   0  0  0  0  0  0  0  0  0  0  0  0
    3.7450   59.5360   74.0340 C   0  0  2  0  0  0  0  0  0  0  0  0
    4.2670   58.5090   75.0260 C   0  0  0  0  0  0  0  0  0  0  0  0
    3.1290   57.8230   75.7580 C   0  0  2  0  0  0  0  0  0  0  0  0
    1.9650   58.7470   76.0810 C   0  0  0  0  0  0  0  0  0  0  0  0
    2.2030   60.2080   75.8020 C   0  0  0  0  0  0  0  0  0  0  0  0
    1.6350   61.0820   76.4500 O   0  0  0  0  0  0  0  0  0  0  0  0
    2.9780   60.5270   74.7410 O   0  0  0  0  0  0  0  0  0  0  0  0
    3.6650   57.2480   76.9500 O   0  0  0  0  0  0  0  0  0  0  0  0
   -0.1910   62.1845   71.1907 H   0  0  0  0  0  0  0  0  0  0  0  0
   -0.9588   64.2415   71.9186 H   0  0  0  0  0  0  0  0  0  0  0  0
    0.6438   64.6653   72.6778 H   0  0  0  0  0  0  0  0  0  0  0  0
    0.0204   64.5692   69.7015 H   0  0  0  0  0  0  0  0  0  0  0  0
    0.2579   66.0386   70.6977 H   0  0  0  0  0  0  0  0  0  0  0  0
    2.5832   65.7419   70.0634 H   0  0  0  0  0  0  0  0  0  0  0  0
    1.5654   61.9662   70.0375 H   0  0  0  0  0  0  0  0  0  0  0  0
    2.9546   61.7757   72.6333 H   0  0  0  0  0  0  0  0  0  0  0  0
    4.7894   60.6306   71.6554 H   0  0  0  0  0  0  0  0  0  0  0  0
    5.9045   62.6062   70.5384 H   0  0  0  0  0  0  0  0  0  0  0  0
    4.6360   64.6063   70.2944 H   0  0  0  0  0  0  0  0  0  0  0  0
    4.2201   59.3282   69.8514 H   0  0  0  0  0  0  0  0  0  0  0  0
    3.3071   60.6443   69.0384 H   0  0  0  0  0  0  0  0  0  0  0  0
    5.1033   60.6646   69.0384 H   0  0  0  0  0  0  0  0  0  0  0  0
   -1.4467   61.0860   72.2194 H   0  0  0  0  0  0  0  0  0  0  0  0
   -0.5775   59.6019   74.7316 H   0  0  0  0  0  0  0  0  0  0  0  0
   -1.2153   58.8871   73.2121 H   0  0  0  0  0  0  0  0  0  0  0  0
    0.3723   59.7273   73.2121 H   0  0  0  0  0  0  0  0  0  0  0  0
   -3.0923   60.1158   75.7698 H   0  0  0  0  0  0  0  0  0  0  0  0
   -4.1980   59.6399   74.4365 H   0  0  0  0  0  0  0  0  0  0  0  0
   -2.4942   59.0711   74.4365 H   0  0  0  0  0  0  0  0  0  0  0  0
   -3.4649   61.2923   73.0861 H   0  0  0  0  0  0  0  0  0  0  0  0
   -2.7456   61.9905   74.6105 H   0  0  0  0  0  0  0  0  0  0  0  0
    1.2273   60.1392   72.4436 H   0  0  0  0  0  0  0  0  0  0  0  0
    2.2282   59.4334   70.9985 H   0  0  0  0  0  0  0  0  0  0  0  0
    2.1690   58.2762   73.3231 H   0  0  0  0  0  0  0  0  0  0  0  0
    3.6590   58.4335   72.2385 H   0  0  0  0  0  0  0  0  0  0  0  0
    4.6245   59.9925   73.5563 H   0  0  0  0  0  0  0  0  0  0  0  0
    4.8524   57.7519   74.4836 H   0  0  0  0  0  0  0  0  0  0  0  0
    4.8937   59.0280   75.7662 H   0  0  0  0  0  0  0  0  0  0  0  0
    2.7067   57.0527   75.0960 H   0  0  0  0  0  0  0  0  0  0  0  0
    1.0995   58.4241   75.4838 H   0  0  0  0  0  0  0  0  0  0  0  0
    1.8073   58.6676   77.1667 H   0  0  0  0  0  0  0  0  0  0  0  0
    3.2576   57.6851   77.7393 H   0  0  0  0  0  0  0  0  0  0  0  0
  2  1  1  0
  3  2  1  0
  4  3  1  0
  5  4  2  0
  6  5  1  0
  6  1  1  0
  7  6  1  0
  8  7  1  0
  9  8  1  0
 10  9  2  0
 10  5  1  0
 11  8  1  0
 12  1  1  0
 13 12  1  0
 14 13  2  0
 15 13  1  0
 16 15  1  0
 18 17  1  0
 18 15  1  0
 19  7  1  0
 20 19  1  0
 21 20  1  0
 22 21  1  0
 23 22  1  0
 24 23  1  0
 25 24  1  0
 26 25  2  0
 27 21  1  0
 27 25  1  0
 28 23  1  0
  1 29  1  6
  2 30  1  0
  2 31  1  0
  3 32  1  0
  3 33  1  0
  4 34  1  0
  6 35  1  6
  7 36  1  1
  8 37  1  1
  9 38  1  0
 10 39  1  0
 11 40  1  0
 11 41  1  0
 11 42  1  0
 15 43  1  6
 16 44  1  0
 16 45  1  0
 16 46  1  0
 17 47  1  0
 17 48  1  0
 17 49  1  0
 18 50  1  0
 18 51  1  0
 19 52  1  0
 19 53  1  0
 20 54  1  0
 20 55  1  0
 21 56  1  6
 22 57  1  0
 22 58  1  0
 23 59  1  6
 24 60  1  0
 24 61  1  0
 28 62  1  0
M  END
>  <score>  (4) 
-8.349

$$$$
=
     RDKit          3D

 62 64  0  0  0  0  0  0  0  0999 V2000
    0.6020   63.0100   71.8530 C   0  0  1  0  0  0  0  0  0  0  0  0
    0.3770   64.5300   71.8450 C   0  0  0  0  0  0  0  0  0  0  0  0
    0.8420   65.1930   70.5630 C   0  0  0  0  0  0  0  0  0  0  0  0
    2.2800   64.8620   70.3470 C   0  0  0  0  0  0  0  0  0  0  0  0
    2.7710   63.6400   70.6160 C   0  0  0  0  0  0  0  0  0  0  0  0
    1.8480   62.4920   71.0470 C   0  0  1  0  0  0  0  0  0  0  0  0
    2.6280   61.3170   71.7260 C   0  0  2  0  0  0  0  0  0  0  0  0
    3.9580   60.9590   70.9890 C   0  0  2  0  0  0  0  0  0  0  0  0
    4.7400   62.1910   70.6280 C   0  0  0  0  0  0  0  0  0  0  0  0
    4.1870   63.3950   70.4600 C   0  0  0  0  0  0  0  0  0  0  0  0
    3.8160   60.1130   69.7250 C   0  0  0  0  0  0  0  0  0  0  0  0
    0.6790   62.6030   73.2370 O   0  0  0  0  0  0  0  0  0  0  0  0
   -0.4980   62.3340   73.8670 C   0  0  0  0  0  0  0  0  0  0  0  0
   -1.4980   61.8800   73.3280 O   0  0  0  0  0  0  0  0  0  0  0  0
   -0.3900   62.6650   75.3430 C   0  0  1  0  0  0  0  0  0  0  0  0
    0.7550   61.8570   75.9450 C   0  0  0  0  0  0  0  0  0  0  0  0
    1.1990   64.5800   75.9070 C   0  0  0  0  0  0  0  0  0  0  0  0
   -0.2120   64.1810   75.5020 C   0  0  0  0  0  0  0  0  0  0  0  0
    1.8400   60.0360   72.1450 C   0  0  0  0  0  0  0  0  0  0  0  0
    2.0220   59.3910   73.5290 C   0  0  0  0  0  0  0  0  0  0  0  0
    2.3990   57.9070   73.5430 C   0  0  2  0  0  0  0  0  0  0  0  0
    1.3690   56.9950   72.8980 C   0  0  0  0  0  0  0  0  0  0  0  0
    0.0640   57.0050   73.6710 C   0  0  2  0  0  0  0  0  0  0  0  0
    0.2470   57.0870   75.1790 C   0  0  0  0  0  0  0  0  0  0  0  0
    1.6660   56.9510   75.6650 C   0  0  0  0  0  0  0  0  0  0  0  0
    1.9190   56.4860   76.7730 O   0  0  0  0  0  0  0  0  0  0  0  0
    2.6480   57.4610   74.8880 O   0  0  0  0  0  0  0  0  0  0  0  0
   -0.6620   55.8300   73.3120 O   0  0  0  0  0  0  0  0  0  0  0  0
   -0.2448   62.5526   71.3204 H   0  0  0  0  0  0  0  0  0  0  0  0
   -0.6982   64.7255   71.9703 H   0  0  0  0  0  0  0  0  0  0  0  0
    0.9711   64.9540   72.6679 H   0  0  0  0  0  0  0  0  0  0  0  0
    0.2456   64.8213   69.7168 H   0  0  0  0  0  0  0  0  0  0  0  0
    0.7158   66.2832   70.6381 H   0  0  0  0  0  0  0  0  0  0  0  0
    2.9560   65.6375   69.9577 H   0  0  0  0  0  0  0  0  0  0  0  0
    1.4273   62.0441   70.1346 H   0  0  0  0  0  0  0  0  0  0  0  0
    2.8597   61.7738   72.6995 H   0  0  0  0  0  0  0  0  0  0  0  0
    4.4863   60.3425   71.7311 H   0  0  0  0  0  0  0  0  0  0  0  0
    5.8277   62.0956   70.4949 H   0  0  0  0  0  0  0  0  0  0  0  0
    4.8390   64.2390   70.1905 H   0  0  0  0  0  0  0  0  0  0  0  0
    3.6399   59.0636   70.0040 H   0  0  0  0  0  0  0  0  0  0  0  0
    2.9672   60.4818   69.1304 H   0  0  0  0  0  0  0  0  0  0  0  0
    4.7387   60.1844   69.1304 H   0  0  0  0  0  0  0  0  0  0  0  0
   -1.3043   62.3894   75.8889 H   0  0  0  0  0  0  0  0  0  0  0  0
    0.6958   61.8988   77.0426 H   0  0  0  0  0  0  0  0  0  0  0  0
    0.6796   60.8109   75.6133 H   0  0  0  0  0  0  0  0  0  0  0  0
    1.7153   62.2786   75.6133 H   0  0  0  0  0  0  0  0  0  0  0  0
    1.2734   64.6010   77.0043 H   0  0  0  0  0  0  0  0  0  0  0  0
    1.9163   63.8495   75.5048 H   0  0  0  0  0  0  0  0  0  0  0  0
    1.4276   65.5780   75.5048 H   0  0  0  0  0  0  0  0  0  0  0  0
   -0.9107   64.5359   76.2739 H   0  0  0  0  0  0  0  0  0  0  0  0
   -0.4120   64.6380   74.5216 H   0  0  0  0  0  0  0  0  0  0  0  0
    0.7726   60.2877   72.0591 H   0  0  0  0  0  0  0  0  0  0  0  0
    2.2609   59.2726   71.4741 H   0  0  0  0  0  0  0  0  0  0  0  0
    2.8155   59.9431   74.0540 H   0  0  0  0  0  0  0  0  0  0  0  0
    1.0343   59.4466   74.0100 H   0  0  0  0  0  0  0  0  0  0  0  0
    3.3120   57.8353   72.9337 H   0  0  0  0  0  0  0  0  0  0  0  0
    1.1795   57.3386   71.8704 H   0  0  0  0  0  0  0  0  0  0  0  0
    1.7650   55.9688   72.8981 H   0  0  0  0  0  0  0  0  0  0  0  0
   -0.4901   57.9161   73.4009 H   0  0  0  0  0  0  0  0  0  0  0  0
   -0.1349   58.0624   75.5148 H   0  0  0  0  0  0  0  0  0  0  0  0
   -0.3008   56.2302   75.5982 H   0  0  0  0  0  0  0  0  0  0  0  0
   -0.9533   55.3585   74.1324 H   0  0  0  0  0  0  0  0  0  0  0  0
  2  1  1  0
  3  2  1  0
  4  3  1  0
  5  4  2  0
  6  5  1  0
  6  1  1  0
  7  6  1  0
  8  7  1  0
  9  8  1  0
 10  9  2  0
 10  5  1  0
 11  8  1  0
 12  1  1  0
 13 12  1  0
 14 13  2  0
 15 13  1  0
 16 15  1  0
 18 17  1  0
 18 15  1  0
 19  7  1  0
 20 19  1  0
 21 20  1  0
 22 21  1  0
 23 22  1  0
 24 23  1  0
 25 24  1  0
 26 25  2  0
 27 21  1  0
 27 25  1  0
 28 23  1  0
  1 29  1  6
  2 30  1  0
  2 31  1  0
  3 32  1  0
  3 33  1  0
  4 34  1  0
  6 35  1  6
  7 36  1  1
  8 37  1  1
  9 38  1  0
 10 39  1  0
 11 40  1  0
 11 41  1  0
 11 42  1  0
 15 43  1  1
 16 44  1  0
 16 45  1  0
 16 46  1  0
 17 47  1  0
 17 48  1  0
 17 49  1  0
 18 50  1  0
 18 51  1  0
 19 52  1  0
 19 53  1  0
 20 54  1  0
 20 55  1  0
 21 56  1  6
 22 57  1  0
 22 58  1  0
 23 59  1  6
 24 60  1  0
 24 61  1  0
 28 62  1  0
M  END
>  <score>  (5) 
-8.168

$$$$
=
     RDKit          3D

 62 64  0  0  0  0  0  0  0  0999 V2000
    0.9660   62.9670   72.5580 C   0  0  1  0  0  0  0  0  0  0  0  0
    0.3780   64.3040   72.0810 C   0  0  0  0  0  0  0  0  0  0  0  0
    0.5880   64.5510   70.6000 C   0  0  0  0  0  0  0  0  0  0  0  0
    2.0470   64.4710   70.3040 C   0  0  0  0  0  0  0  0  0  0  0  0
    2.8370   63.5530   70.8880 C   0  0  0  0  0  0  0  0  0  0  0  0
    2.2490   62.4670   71.8000 C   0  0  1  0  0  0  0  0  0  0  0  0
    3.3320   61.7970   72.7100 C   0  0  2  0  0  0  0  0  0  0  0  0
    4.6610   61.4850   71.9510 C   0  0  2  0  0  0  0  0  0  0  0  0
    5.0960   62.6430   71.0970 C   0  0  0  0  0  0  0  0  0  0  0  0
    4.2570   63.5680   70.6210 C   0  0  0  0  0  0  0  0  0  0  0  0
    4.6520   60.2370   71.0700 C   0  0  0  0  0  0  0  0  0  0  0  0
    1.2250   63.1020   73.9730 O   0  0  0  0  0  0  0  0  0  0  0  0
    0.1490   63.0360   74.8050 C   0  0  0  0  0  0  0  0  0  0  0  0
   -0.4930   63.9970   75.2060 O   0  0  0  0  0  0  0  0  0  0  0  0
   -0.1510   61.5920   75.1590 C   0  0  1  0  0  0  0  0  0  0  0  0
    0.3160   61.3290   76.5870 C   0  0  0  0  0  0  0  0  0  0  0  0
   -2.0000   60.9750   73.5120 C   0  0  0  0  0  0  0  0  0  0  0  0
   -1.6480   61.3280   74.9500 C   0  0  0  0  0  0  0  0  0  0  0  0
    2.9070   60.6140   73.6350 C   0  0  0  0  0  0  0  0  0  0  0  0
    1.9840   59.4890   73.1370 C   0  0  0  0  0  0  0  0  0  0  0  0
    2.3290   58.0710   73.6020 C   0  0  2  0  0  0  0  0  0  0  0  0
    1.4180   56.9920   73.0390 C   0  0  0  0  0  0  0  0  0  0  0  0
   -0.0060   57.1590   73.5350 C   0  0  2  0  0  0  0  0  0  0  0  0
   -0.0980   57.6310   74.9790 C   0  0  0  0  0  0  0  0  0  0  0  0
    1.2060   57.6700   75.7310 C   0  0  0  0  0  0  0  0  0  0  0  0
    1.2450   57.5130   76.9480 O   0  0  0  0  0  0  0  0  0  0  0  0
    2.3210   57.9930   75.0380 O   0  0  0  0  0  0  0  0  0  0  0  0
   -0.6730   55.9080   73.3680 O   0  0  0  0  0  0  0  0  0  0  0  0
    0.2248   62.1862   72.3322 H   0  0  0  0  0  0  0  0  0  0  0  0
   -0.7027   64.3044   72.2863 H   0  0  0  0  0  0  0  0  0  0  0  0
    0.9006   65.1049   72.6246 H   0  0  0  0  0  0  0  0  0  0  0  0
    0.0499   63.7886   70.0177 H   0  0  0  0  0  0  0  0  0  0  0  0
    0.2044   65.5454   70.3279 H   0  0  0  0  0  0  0  0  0  0  0  0
    2.4885   65.1813   69.5895 H   0  0  0  0  0  0  0  0  0  0  0  0
    1.8945   61.6483   71.1565 H   0  0  0  0  0  0  0  0  0  0  0  0
    3.5052   62.6060   73.4349 H   0  0  0  0  0  0  0  0  0  0  0  0
    5.3679   61.2941   72.7719 H   0  0  0  0  0  0  0  0  0  0  0  0
    6.1641   62.7341   70.8502 H   0  0  0  0  0  0  0  0  0  0  0  0
    4.6658   64.3771   69.9980 H   0  0  0  0  0  0  0  0  0  0  0  0
    4.6455   59.3394   71.7058 H   0  0  0  0  0  0  0  0  0  0  0  0
    3.7539   60.2430   70.4349 H   0  0  0  0  0  0  0  0  0  0  0  0
    5.5501   60.2300   70.4349 H   0  0  0  0  0  0  0  0  0  0  0  0
    0.3921   60.8924   74.5066 H   0  0  0  0  0  0  0  0  0  0  0  0
   -0.4178   61.7422   77.2947 H   0  0  0  0  0  0  0  0  0  0  0  0
    0.4106   60.2450   76.7481 H   0  0  0  0  0  0  0  0  0  0  0  0
    1.2920   61.8101   76.7481 H   0  0  0  0  0  0  0  0  0  0  0  0
   -2.7767   60.1961   73.5053 H   0  0  0  0  0  0  0  0  0  0  0  0
   -2.3748   61.8711   72.9957 H   0  0  0  0  0  0  0  0  0  0  0  0
   -1.1029   60.6027   72.9957 H   0  0  0  0  0  0  0  0  0  0  0  0
   -2.2055   62.2326   75.2343 H   0  0  0  0  0  0  0  0  0  0  0  0
   -1.9174   60.4631   75.5740 H   0  0  0  0  0  0  0  0  0  0  0  0
    3.8378   60.1280   73.9627 H   0  0  0  0  0  0  0  0  0  0  0  0
    2.2788   61.1173   74.3846 H   0  0  0  0  0  0  0  0  0  0  0  0
    0.9641   59.7155   73.4812 H   0  0  0  0  0  0  0  0  0  0  0  0
    2.1024   59.4755   72.0435 H   0  0  0  0  0  0  0  0  0  0  0  0
    3.3370   57.8745   73.2078 H   0  0  0  0  0  0  0  0  0  0  0  0
    1.4246   57.0546   71.9408 H   0  0  0  0  0  0  0  0  0  0  0  0
    1.7903   56.0130   73.3752 H   0  0  0  0  0  0  0  0  0  0  0  0
   -0.4875   57.9515   72.9434 H   0  0  0  0  0  0  0  0  0  0  0  0
   -0.5192   58.6472   74.9775 H   0  0  0  0  0  0  0  0  0  0  0  0
   -0.7256   56.8925   75.4994 H   0  0  0  0  0  0  0  0  0  0  0  0
   -0.8786   55.5225   74.2564 H   0  0  0  0  0  0  0  0  0  0  0  0
  2  1  1  0
  3  2  1  0
  4  3  1  0
  5  4  2  0
  6  5  1  0
  6  1  1  0
  7  6  1  0
  8  7  1  0
  9  8  1  0
 10  9  2  0
 10  5  1  0
 11  8  1  0
 12  1  1  0
 13 12  1  0
 14 13  2  0
 15 13  1  0
 16 15  1  0
 18 17  1  0
 18 15  1  0
 19  7  1  0
 20 19  1  0
 21 20  1  0
 22 21  1  0
 23 22  1  0
 24 23  1  0
 25 24  1  0
 26 25  2  0
 27 21  1  0
 27 25  1  0
 28 23  1  0
  1 29  1  1
  2 30  1  0
  2 31  1  0
  3 32  1  0
  3 33  1  0
  4 34  1  0
  6 35  1  6
  7 36  1  1
  8 37  1  1
  9 38  1  0
 10 39  1  0
 11 40  1  0
 11 41  1  0
 11 42  1  0
 15 43  1  6
 16 44  1  0
 16 45  1  0
 16 46  1  0
 17 47  1  0
 17 48  1  0
 17 49  1  0
 18 50  1  0
 18 51  1  0
 19 52  1  0
 19 53  1  0
 20 54  1  0
 20 55  1  0
 21 56  1  6
 22 57  1  0
 22 58  1  0
 23 59  1  6
 24 60  1  0
 24 61  1  0
 28 62  1  0
M  END
>  <score>  (6) 
-8.046

$$$$
=
     RDKit          3D

 62 64  0  0  0  0  0  0  0  0999 V2000
    3.3110   61.1100   71.8230 C   0  0  1  0  0  0  0  0  0  0  0  0
    4.5620   61.0870   70.9320 C   0  0  0  0  0  0  0  0  0  0  0  0
    5.2790   62.4210   70.8800 C   0  0  0  0  0  0  0  0  0  0  0  0
    4.3160   63.4650   70.4240 C   0  0  0  0  0  0  0  0  0  0  0  0
    3.0370   63.4740   70.8390 C   0  0  0  0  0  0  0  0  0  0  0  0
    2.5390   62.4780   71.8950 C   0  0  1  0  0  0  0  0  0  0  0  0
    0.9790   62.3530   71.9140 C   0  0  2  0  0  0  0  0  0  0  0  0
    0.2540   63.7320   71.7990 C   0  0  2  0  0  0  0  0  0  0  0  0
    0.8660   64.5910   70.7280 C   0  0  0  0  0  0  0  0  0  0  0  0
    2.1270   64.4640   70.3080 C   0  0  0  0  0  0  0  0  0  0  0  0
    0.1870   64.5620   73.0790 C   0  0  0  0  0  0  0  0  0  0  0  0
    2.4420   60.0530   71.3570 O   0  0  0  0  0  0  0  0  0  0  0  0
    2.7130   58.7940   71.7970 C   0  0  0  0  0  0  0  0  0  0  0  0
    3.4360   57.9890   71.2270 O   0  0  0  0  0  0  0  0  0  0  0  0
    1.9950   58.5320   73.1070 C   0  0  1  0  0  0  0  0  0  0  0  0
    1.2460   57.2080   73.0000 C   0  0  0  0  0  0  0  0  0  0  0  0
    2.8170   59.7250   75.2070 C   0  0  0  0  0  0  0  0  0  0  0  0
    3.0190   58.5600   74.2500 C   0  0  0  0  0  0  0  0  0  0  0  0
    0.3120   61.4410   72.9920 C   0  0  0  0  0  0  0  0  0  0  0  0
   -1.2070   61.2080   73.0260 C   0  0  0  0  0  0  0  0  0  0  0  0
   -1.8950   61.4060   74.3790 C   0  0  2  0  0  0  0  0  0  0  0  0
   -1.0910   60.9040   75.5670 C   0  0  0  0  0  0  0  0  0  0  0  0
   -0.9110   59.3980   75.5130 C   0  0  2  0  0  0  0  0  0  0  0  0
   -2.1280   58.6560   74.9810 C   0  0  0  0  0  0  0  0  0  0  0  0
   -3.3610   59.4970   74.7800 C   0  0  0  0  0  0  0  0  0  0  0  0
   -4.4850   59.0130   74.8720 O   0  0  0  0  0  0  0  0  0  0  0  0
   -3.1900   60.7790   74.3870 O   0  0  0  0  0  0  0  0  0  0  0  0
   -0.5810   58.9530   76.8280 O   0  0  0  0  0  0  0  0  0  0  0  0
    3.6470   60.9602   72.8596 H   0  0  0  0  0  0  0  0  0  0  0  0
    5.2576   60.3307   71.3246 H   0  0  0  0  0  0  0  0  0  0  0  0
    4.2322   60.8517   69.9093 H   0  0  0  0  0  0  0  0  0  0  0  0
    5.6563   62.6775   71.8809 H   0  0  0  0  0  0  0  0  0  0  0  0
    6.1271   62.3633   70.1819 H   0  0  0  0  0  0  0  0  0  0  0  0
    4.6607   64.2468   69.7312 H   0  0  0  0  0  0  0  0  0  0  0  0
    2.7874   62.8903   72.8841 H   0  0  0  0  0  0  0  0  0  0  0  0
    0.8180   61.7755   70.9918 H   0  0  0  0  0  0  0  0  0  0  0  0
   -0.7777   63.4424   71.5504 H   0  0  0  0  0  0  0  0  0  0  0  0
    0.2400   65.3676   70.2644 H   0  0  0  0  0  0  0  0  0  0  0  0
    2.4899   65.1432   69.5225 H   0  0  0  0  0  0  0  0  0  0  0  0
    0.2409   63.8948   73.9519 H   0  0  0  0  0  0  0  0  0  0  0  0
    1.0312   65.2668   73.1036 H   0  0  0  0  0  0  0  0  0  0  0  0
   -0.7593   65.1223   73.1036 H   0  0  0  0  0  0  0  0  0  0  0  0
    1.2487   59.3103   73.3244 H   0  0  0  0  0  0  0  0  0  0  0  0
    1.0301   56.8263   74.0088 H   0  0  0  0  0  0  0  0  0  0  0  0
    0.3021   57.3635   72.4570 H   0  0  0  0  0  0  0  0  0  0  0  0
    1.8655   56.4791   72.4570 H   0  0  0  0  0  0  0  0  0  0  0  0
    2.8798   59.3629   76.2438 H   0  0  0  0  0  0  0  0  0  0  0  0
    3.5975   60.4807   75.0346 H   0  0  0  0  0  0  0  0  0  0  0  0
    1.8276   60.1738   75.0346 H   0  0  0  0  0  0  0  0  0  0  0  0
    4.0265   58.6355   73.8150 H   0  0  0  0  0  0  0  0  0  0  0  0
    2.8875   57.6343   74.8295 H   0  0  0  0  0  0  0  0  0  0  0  0
    0.7748   60.4486   72.8867 H   0  0  0  0  0  0  0  0  0  0  0  0
    0.4821   62.0103   73.9177 H   0  0  0  0  0  0  0  0  0  0  0  0
   -1.6687   61.9044   72.3105 H   0  0  0  0  0  0  0  0  0  0  0  0
   -1.3455   60.1448   72.7802 H   0  0  0  0  0  0  0  0  0  0  0  0
   -1.9904   62.4955   74.4966 H   0  0  0  0  0  0  0  0  0  0  0  0
   -0.1012   61.3839   75.5586 H   0  0  0  0  0  0  0  0  0  0  0  0
   -1.6373   61.1560   76.4879 H   0  0  0  0  0  0  0  0  0  0  0  0
   -0.1044   59.1718   74.8001 H   0  0  0  0  0  0  0  0  0  0  0  0
   -1.8579   58.2127   74.0112 H   0  0  0  0  0  0  0  0  0  0  0  0
   -2.3898   57.9135   75.7492 H   0  0  0  0  0  0  0  0  0  0  0  0
   -1.0170   59.5410   77.4945 H   0  0  0  0  0  0  0  0  0  0  0  0
  2  1  1  0
  3  2  1  0
  4  3  1  0
  5  4  2  0
  6  5  1  0
  6  1  1  0
  7  6  1  0
  8  7  1  0
  9  8  1  0
 10  9  2  0
 10  5  1  0
 11  8  1  0
 12  1  1  0
 13 12  1  0
 14 13  2  0
 15 13  1  0
 16 15  1  0
 18 17  1  0
 18 15  1  0
 19  7  1  0
 20 19  1  0
 21 20  1  0
 22 21  1  0
 23 22  1  0
 24 23  1  0
 25 24  1  0
 26 25  2  0
 27 21  1  0
 27 25  1  0
 28 23  1  0
  1 29  1  1
  2 30  1  0
  2 31  1  0
  3 32  1  0
  3 33  1  0
  4 34  1  0
  6 35  1  1
  7 36  1  6
  8 37  1  6
  9 38  1  0
 10 39  1  0
 11 40  1  0
 11 41  1  0
 11 42  1  0
 15 43  1  1
 16 44  1  0
 16 45  1  0
 16 46  1  0
 17 47  1  0
 17 48  1  0
 17 49  1  0
 18 50  1  0
 18 51  1  0
 19 52  1  0
 19 53  1  0
 20 54  1  0
 20 55  1  0
 21 56  1  1
 22 57  1  0
 22 58  1  0
 23 59  1  6
 24 60  1  0
 24 61  1  0
 28 62  1  0
M  END
>  <score>  (7) 
-8.033

$$$$
=
     RDKit          3D

 62 64  0  0  0  0  0  0  0  0999 V2000
    1.3190   62.6590   71.8840 C   0  0  1  0  0  0  0  0  0  0  0  0
    1.5860   64.1500   71.6250 C   0  0  0  0  0  0  0  0  0  0  0  0
    2.3330   64.4040   70.3310 C   0  0  0  0  0  0  0  0  0  0  0  0
    3.6060   63.6280   70.3520 C   0  0  0  0  0  0  0  0  0  0  0  0
    3.6650   62.3830   70.8570 C   0  0  0  0  0  0  0  0  0  0  0  0
    2.3970   61.6580   71.3290 C   0  0  1  0  0  0  0  0  0  0  0  0
    2.7130   60.4450   72.2670 C   0  0  2  0  0  0  0  0  0  0  0  0
    3.9160   59.5820   71.7660 C   0  0  2  0  0  0  0  0  0  0  0  0
    5.0710   60.4410   71.3330 C   0  0  0  0  0  0  0  0  0  0  0  0
    4.9400   61.7050   70.9210 C   0  0  0  0  0  0  0  0  0  0  0  0
    3.6120   58.6050   70.6320 C   0  0  0  0  0  0  0  0  0  0  0  0
    1.1580   62.5020   73.3110 O   0  0  0  0  0  0  0  0  0  0  0  0
    0.0160   63.0000   73.8600 C   0  0  0  0  0  0  0  0  0  0  0  0
   -0.3690   64.1560   73.7580 O   0  0  0  0  0  0  0  0  0  0  0  0
   -0.7220   61.9090   74.6120 C   0  0  1  0  0  0  0  0  0  0  0  0
   -1.4600   62.5370   75.7900 C   0  0  0  0  0  0  0  0  0  0  0  0
   -1.9800   59.7540   74.0790 C   0  0  0  0  0  0  0  0  0  0  0  0
   -1.6500   61.1720   73.6370 C   0  0  0  0  0  0  0  0  0  0  0  0
    1.5320   59.5530   72.7630 C   0  0  0  0  0  0  0  0  0  0  0  0
    1.7730   58.2790   73.5900 C   0  0  0  0  0  0  0  0  0  0  0  0
    1.2870   56.9650   72.9720 C   0  0  2  0  0  0  0  0  0  0  0  0
   -0.1590   56.6240   73.2900 C   0  0  0  0  0  0  0  0  0  0  0  0
   -0.3530   56.3750   74.7740 C   0  0  2  0  0  0  0  0  0  0  0  0
    0.8170   55.6570   75.4310 C   0  0  0  0  0  0  0  0  0  0  0  0
    1.8720   55.1440   74.4870 C   0  0  0  0  0  0  0  0  0  0  0  0
    2.5470   54.1560   74.7600 O   0  0  0  0  0  0  0  0  0  0  0  0
    2.1300   55.8720   73.3770 O   0  0  0  0  0  0  0  0  0  0  0  0
   -1.5600   55.6310   74.9360 O   0  0  0  0  0  0  0  0  0  0  0  0
    0.4145   62.3870   71.3201 H   0  0  0  0  0  0  0  0  0  0  0  0
    0.6209   64.6761   71.5812 H   0  0  0  0  0  0  0  0  0  0  0  0
    2.2185   64.5176   72.4465 H   0  0  0  0  0  0  0  0  0  0  0  0
    1.7170   64.0811   69.4788 H   0  0  0  0  0  0  0  0  0  0  0  0
    2.5507   65.4774   70.2291 H   0  0  0  0  0  0  0  0  0  0  0  0
    4.5196   64.0852   69.9443 H   0  0  0  0  0  0  0  0  0  0  0  0
    1.9280   61.2001   70.4456 H   0  0  0  0  0  0  0  0  0  0  0  0
    3.0011   60.9773   73.1855 H   0  0  0  0  0  0  0  0  0  0  0  0
    4.1657   58.9786   72.6512 H   0  0  0  0  0  0  0  0  0  0  0  0
    6.0804   60.0045   71.3567 H   0  0  0  0  0  0  0  0  0  0  0  0
    5.8430   62.2546   70.6168 H   0  0  0  0  0  0  0  0  0  0  0  0
    3.3103   57.6352   71.0545 H   0  0  0  0  0  0  0  0  0  0  0  0
    2.7958   59.0049   70.0124 H   0  0  0  0  0  0  0  0  0  0  0  0
    4.5110   58.4712   70.0124 H   0  0  0  0  0  0  0  0  0  0  0  0
   -0.0296   61.1605   75.0248 H   0  0  0  0  0  0  0  0  0  0  0  0
   -1.0274   62.1689   76.7320 H   0  0  0  0  0  0  0  0  0  0  0  0
   -1.3603   63.6315   75.7437 H   0  0  0  0  0  0  0  0  0  0  0  0
   -2.5244   62.2635   75.7437 H   0  0  0  0  0  0  0  0  0  0  0  0
   -1.9912   59.7057   75.1779 H   0  0  0  0  0  0  0  0  0  0  0  0
   -2.9684   59.4691   73.6893 H   0  0  0  0  0  0  0  0  0  0  0  0
   -1.2189   59.0620   73.6893 H   0  0  0  0  0  0  0  0  0  0  0  0
   -1.1588   61.1263   72.6538 H   0  0  0  0  0  0  0  0  0  0  0  0
   -2.5964   61.7315   73.6006 H   0  0  0  0  0  0  0  0  0  0  0  0
    0.8899   60.2027   73.3759 H   0  0  0  0  0  0  0  0  0  0  0  0
    1.1326   59.1486   71.8212 H   0  0  0  0  0  0  0  0  0  0  0  0
    2.8563   58.1892   73.7586 H   0  0  0  0  0  0  0  0  0  0  0  0
    1.1789   58.4085   74.5067 H   0  0  0  0  0  0  0  0  0  0  0  0
    1.3458   57.1184   71.8843 H   0  0  0  0  0  0  0  0  0  0  0  0
   -0.8012   57.4617   72.9802 H   0  0  0  0  0  0  0  0  0  0  0  0
   -0.4271   55.7063   72.7460 H   0  0  0  0  0  0  0  0  0  0  0  0
   -0.4128   57.3486   75.2824 H   0  0  0  0  0  0  0  0  0  0  0  0
    1.2978   56.3590   76.1282 H   0  0  0  0  0  0  0  0  0  0  0  0
    0.3912   54.7691   75.9213 H   0  0  0  0  0  0  0  0  0  0  0  0
   -1.7489   55.5146   75.9008 H   0  0  0  0  0  0  0  0  0  0  0  0
  2  1  1  0
  3  2  1  0
  4  3  1  0
  5  4  2  0
  6  5  1  0
  6  1  1  0
  7  6  1  0
  8  7  1  0
  9  8  1  0
 10  9  2  0
 10  5  1  0
 11  8  1  0
 12  1  1  0
 13 12  1  0
 14 13  2  0
 15 13  1  0
 16 15  1  0
 18 17  1  0
 18 15  1  0
 19  7  1  0
 20 19  1  0
 21 20  1  0
 22 21  1  0
 23 22  1  0
 24 23  1  0
 25 24  1  0
 26 25  2  0
 27 21  1  0
 27 25  1  0
 28 23  1  0
  1 29  1  6
  2 30  1  0
  2 31  1  0
  3 32  1  0
  3 33  1  0
  4 34  1  0
  6 35  1  6
  7 36  1  1
  8 37  1  1
  9 38  1  0
 10 39  1  0
 11 40  1  0
 11 41  1  0
 11 42  1  0
 15 43  1  1
 16 44  1  0
 16 45  1  0
 16 46  1  0
 17 47  1  0
 17 48  1  0
 17 49  1  0
 18 50  1  0
 18 51  1  0
 19 52  1  0
 19 53  1  0
 20 54  1  0
 20 55  1  0
 21 56  1  6
 22 57  1  0
 22 58  1  0
 23 59  1  1
 24 60  1  0
 24 61  1  0
 28 62  1  0
M  END
>  <score>  (8) 
-7.838

$$$$
=
     RDKit          3D

 62 64  0  0  0  0  0  0  0  0999 V2000
    3.6940   61.3490   71.8630 C   0  0  1  0  0  0  0  0  0  0  0  0
    4.7780   61.5940   70.8020 C   0  0  0  0  0  0  0  0  0  0  0  0
    5.1490   63.0570   70.6580 C   0  0  0  0  0  0  0  0  0  0  0  0
    3.9140   63.8360   70.3520 C   0  0  0  0  0  0  0  0  0  0  0  0
    2.7390   63.5580   70.9450 C   0  0  0  0  0  0  0  0  0  0  0  0
    2.6420   62.5010   72.0540 C   0  0  1  0  0  0  0  0  0  0  0  0
    1.1730   62.0170   72.2940 C   0  0  2  0  0  0  0  0  0  0  0  0
    0.1360   63.1870   72.2930 C   0  0  2  0  0  0  0  0  0  0  0  0
    0.3740   64.1360   71.1530 C   0  0  0  0  0  0  0  0  0  0  0  0
    1.5580   64.2950   70.5560 C   0  0  0  0  0  0  0  0  0  0  0  0
    0.0570   64.0120   73.5760 C   0  0  0  0  0  0  0  0  0  0  0  0
    3.0400   60.1080   71.5170 O   0  0  0  0  0  0  0  0  0  0  0  0
    3.3040   59.0310   72.3070 C   0  0  0  0  0  0  0  0  0  0  0  0
    4.1750   58.9830   73.1650 O   0  0  0  0  0  0  0  0  0  0  0  0
    2.3530   57.8960   71.9810 C   0  0  1  0  0  0  0  0  0  0  0  0
    3.0330   56.9560   70.9900 C   0  0  0  0  0  0  0  0  0  0  0  0
    0.5060   56.6830   73.2560 C   0  0  0  0  0  0  0  0  0  0  0  0
    1.9350   57.2050   73.2850 C   0  0  0  0  0  0  0  0  0  0  0  0
    0.8960   61.0040   73.4490 C   0  0  0  0  0  0  0  0  0  0  0  0
   -0.4270   60.2250   73.5420 C   0  0  0  0  0  0  0  0  0  0  0  0
   -0.9010   59.8570   74.9500 C   0  0  2  0  0  0  0  0  0  0  0  0
   -2.2500   59.1560   74.9900 C   0  0  0  0  0  0  0  0  0  0  0  0
   -3.3590   60.0690   74.5030 C   0  0  2  0  0  0  0  0  0  0  0  0
   -3.1830   61.5210   74.9210 C   0  0  0  0  0  0  0  0  0  0  0  0
   -2.0650   61.7820   75.8950 C   0  0  0  0  0  0  0  0  0  0  0  0
   -2.1160   62.7160   76.6910 O   0  0  0  0  0  0  0  0  0  0  0  0
   -0.9500   61.0240   75.7900 O   0  0  0  0  0  0  0  0  0  0  0  0
   -4.5950   59.5480   74.9900 O   0  0  0  0  0  0  0  0  0  0  0  0
    4.1974   61.3085   72.8402 H   0  0  0  0  0  0  0  0  0  0  0  0
    5.6792   61.0305   71.0855 H   0  0  0  0  0  0  0  0  0  0  0  0
    4.3719   61.2618   69.8352 H   0  0  0  0  0  0  0  0  0  0  0  0
    5.5928   63.4204   71.5966 H   0  0  0  0  0  0  0  0  0  0  0  0
    5.8804   63.1799   69.8456 H   0  0  0  0  0  0  0  0  0  0  0  0
    3.9655   64.6583   69.6232 H   0  0  0  0  0  0  0  0  0  0  0  0
    2.9243   62.9856   73.0003 H   0  0  0  0  0  0  0  0  0  0  0  0
    1.0238   61.3935   71.4001 H   0  0  0  0  0  0  0  0  0  0  0  0
   -0.8237   62.6592   72.1911 H   0  0  0  0  0  0  0  0  0  0  0  0
   -0.4749   64.7337   70.7895 H   0  0  0  0  0  0  0  0  0  0  0  0
    1.6380   65.0189   69.7317 H   0  0  0  0  0  0  0  0  0  0  0  0
    0.1211   63.3429   74.4467 H   0  0  0  0  0  0  0  0  0  0  0  0
    0.8906   64.7293   73.6026 H   0  0  0  0  0  0  0  0  0  0  0  0
   -0.8975   64.5580   73.6026 H   0  0  0  0  0  0  0  0  0  0  0  0
    1.4324   58.2618   71.5029 H   0  0  0  0  0  0  0  0  0  0  0  0
    3.5912   56.1844   71.5404 H   0  0  0  0  0  0  0  0  0  0  0  0
    2.2713   56.4766   70.3576 H   0  0  0  0  0  0  0  0  0  0  0  0
    3.7267   57.5294   70.3576 H   0  0  0  0  0  0  0  0  0  0  0  0
    0.1431   56.5504   74.2859 H   0  0  0  0  0  0  0  0  0  0  0  0
   -0.1372   57.4042   72.7306 H   0  0  0  0  0  0  0  0  0  0  0  0
    0.4791   55.7170   72.7306 H   0  0  0  0  0  0  0  0  0  0  0  0
    2.0262   57.9284   74.1087 H   0  0  0  0  0  0  0  0  0  0  0  0
    2.5970   56.3372   73.4216 H   0  0  0  0  0  0  0  0  0  0  0  0
    1.6956   60.2503   73.3976 H   0  0  0  0  0  0  0  0  0  0  0  0
    0.8424   61.6617   74.3291 H   0  0  0  0  0  0  0  0  0  0  0  0
   -1.2108   60.8391   73.0746 H   0  0  0  0  0  0  0  0  0  0  0  0
   -0.2384   59.2663   73.0366 H   0  0  0  0  0  0  0  0  0  0  0  0
   -0.1577   59.1389   75.3266 H   0  0  0  0  0  0  0  0  0  0  0  0
   -2.2103   58.2651   74.3460 H   0  0  0  0  0  0  0  0  0  0  0  0
   -2.4643   58.8736   76.0313 H   0  0  0  0  0  0  0  0  0  0  0  0
   -3.3363   60.0837   73.4033 H   0  0  0  0  0  0  0  0  0  0  0  0
   -2.9889   62.1138   74.0149 H   0  0  0  0  0  0  0  0  0  0  0  0
   -4.1104   61.8007   75.4423 H   0  0  0  0  0  0  0  0  0  0  0  0
   -4.5873   59.5512   75.9800 H   0  0  0  0  0  0  0  0  0  0  0  0
  2  1  1  0
  3  2  1  0
  4  3  1  0
  5  4  2  0
  6  5  1  0
  6  1  1  0
  7  6  1  0
  8  7  1  0
  9  8  1  0
 10  9  2  0
 10  5  1  0
 11  8  1  0
 12  1  1  0
 13 12  1  0
 14 13  2  0
 15 13  1  0
 16 15  1  0
 18 17  1  0
 18 15  1  0
 19  7  1  0
 20 19  1  0
 21 20  1  0
 22 21  1  0
 23 22  1  0
 24 23  1  0
 25 24  1  0
 26 25  2  0
 27 21  1  0
 27 25  1  0
 28 23  1  0
  1 29  1  1
  2 30  1  0
  2 31  1  0
  3 32  1  0
  3 33  1  0
  4 34  1  0
  6 35  1  1
  7 36  1  6
  8 37  1  6
  9 38  1  0
 10 39  1  0
 11 40  1  0
 11 41  1  0
 11 42  1  0
 15 43  1  6
 16 44  1  0
 16 45  1  0
 16 46  1  0
 17 47  1  0
 17 48  1  0
 17 49  1  0
 18 50  1  0
 18 51  1  0
 19 52  1  0
 19 53  1  0
 20 54  1  0
 20 55  1  0
 21 56  1  1
 22 57  1  0
 22 58  1  0
 23 59  1  6
 24 60  1  0
 24 61  1  0
 28 62  1  0
M  END
>  <score>  (9) 
-7.751

$$$$
