=
     RDKit          3D

 31 33  0  0  0  0  0  0  0  0999 V2000
    4.0800   67.2280   63.8420 C   0  0  2  0  0  0  0  0  0  0  0  0
    3.4330   65.8750   64.2440 C   0  0  0  0  0  0  0  0  0  0  0  0
    2.2190   66.2410   65.1170 C   0  0  0  0  0  0  0  0  0  0  0  0
    2.6190   67.5240   65.6690 N   0  0  0  0  0  0  0  0  0  0  0  0
    3.6450   68.0980   64.9800 C   0  0  0  0  0  0  0  0  0  0  0  0
    3.9290   69.3030   65.5550 C   0  0  0  0  0  0  0  0  0  0  0  0
    3.0310   69.4230   66.6580 C   0  0  0  0  0  0  0  0  0  0  0  0
    2.2370   68.2750   66.7370 C   0  0  0  0  0  0  0  0  0  0  0  0
    2.7040   68.6890   62.5340 O   0  0  0  0  0  1  0  0  0  0  0  0
    3.5710   67.7670   62.4830 C   0  0  0  0  0  0  0  0  0  0  0  0
    4.0560   67.1880   61.4650 O   0  0  0  0  0  0  0  0  0  0  0  0
    1.1880   67.9020   67.6680 C   0  0  0  0  0  0  0  0  0  0  0  0
    1.3960   67.5400   68.8250 O   0  0  0  0  0  0  0  0  0  0  0  0
   -0.2330   67.9480   67.2320 C   0  0  0  0  0  0  0  0  0  0  0  0
   -0.6830   68.8990   66.3070 C   0  0  0  0  0  0  0  0  0  0  0  0
   -2.0280   68.9290   65.9380 C   0  0  0  0  0  0  0  0  0  0  0  0
   -2.9270   68.0200   66.5000 C   0  0  0  0  0  0  0  0  0  0  0  0
   -2.4860   67.0870   67.4390 C   0  0  0  0  0  0  0  0  0  0  0  0
   -1.1420   67.0530   67.8100 C   0  0  0  0  0  0  0  0  0  0  0  0
    5.1683   67.1672   63.6937 H   0  0  0  0  0  0  0  0  0  0  0  0
    3.1101   65.3227   63.3492 H   0  0  0  0  0  0  0  0  0  0  0  0
    4.1417   65.2284   64.7822 H   0  0  0  0  0  0  0  0  0  0  0  0
    1.3051   66.3338   64.5119 H   0  0  0  0  0  0  0  0  0  0  0  0
    1.9778   65.4860   65.8798 H   0  0  0  0  0  0  0  0  0  0  0  0
    4.6905   70.0295   65.2353 H   0  0  0  0  0  0  0  0  0  0  0  0
    2.9728   70.2844   67.3396 H   0  0  0  0  0  0  0  0  0  0  0  0
    0.0235   69.6213   65.8721 H   0  0  0  0  0  0  0  0  0  0  0  0
   -2.3805   69.6688   65.2042 H   0  0  0  0  0  0  0  0  0  0  0  0
   -3.9856   68.0396   66.2016 H   0  0  0  0  0  0  0  0  0  0  0  0
   -3.1983   66.3783   67.8867 H   0  0  0  0  0  0  0  0  0  0  0  0
   -0.7959   66.3231   68.5567 H   0  0  0  0  0  0  0  0  0  0  0  0
  2  1  1  0
  3  2  1  0
  4  3  1  0
  5  1  1  0
  5  4  1  0
  6  5  2  0
  7  6  1  0
  8  7  2  0
  8  4  1  0
 10  9  1  0
 10  1  1  0
 11 10  2  0
 12  8  1  0
 13 12  2  0
 14 12  1  0
 15 14  2  0
 16 15  1  0
 17 16  2  0
 18 17  1  0
 19 18  2  0
 19 14  1  0
  1 20  1  6
  2 21  1  0
  2 22  1  0
  3 23  1  0
  3 24  1  0
  6 25  1  0
  7 26  1  0
 15 27  1  0
 16 28  1  0
 17 29  1  0
 18 30  1  0
 19 31  1  0
M  CHG  1   9  -1
M  END
>  <score>  (1) 
-8.71

$$$$
=
     RDKit          3D

 31 33  0  0  0  0  0  0  0  0999 V2000
    3.3600   65.6190   63.5880 C   0  0  2  0  0  0  0  0  0  0  0  0
    4.4950   66.2320   62.7240 C   0  0  0  0  0  0  0  0  0  0  0  0
    5.2230   67.2280   63.6450 C   0  0  0  0  0  0  0  0  0  0  0  0
    4.1750   67.5960   64.5820 N   0  0  0  0  0  0  0  0  0  0  0  0
    3.1320   66.7190   64.5770 C   0  0  0  0  0  0  0  0  0  0  0  0
    2.2170   67.1340   65.5020 C   0  0  0  0  0  0  0  0  0  0  0  0
    2.7510   68.3350   66.0580 C   0  0  0  0  0  0  0  0  0  0  0  0
    3.9690   68.6310   65.4400 C   0  0  0  0  0  0  0  0  0  0  0  0
    3.4320   64.1780   65.5000 O   0  0  0  0  0  1  0  0  0  0  0  0
    3.7710   64.3000   64.2860 C   0  0  0  0  0  0  0  0  0  0  0  0
    4.4430   63.5030   63.5650 O   0  0  0  0  0  0  0  0  0  0  0  0
    4.8970   69.7310   65.6350 C   0  0  0  0  0  0  0  0  0  0  0  0
    5.4020   70.3720   64.7150 O   0  0  0  0  0  0  0  0  0  0  0  0
    5.2800   70.1340   67.0140 C   0  0  0  0  0  0  0  0  0  0  0  0
    6.6090   70.4180   67.3500 C   0  0  0  0  0  0  0  0  0  0  0  0
    6.9360   70.7710   68.6600 C   0  0  0  0  0  0  0  0  0  0  0  0
    5.9400   70.8280   69.6380 C   0  0  0  0  0  0  0  0  0  0  0  0
    4.6190   70.5230   69.3110 C   0  0  0  0  0  0  0  0  0  0  0  0
    4.2880   70.1710   68.0020 C   0  0  0  0  0  0  0  0  0  0  0  0
    2.4738   65.3276   63.0052 H   0  0  0  0  0  0  0  0  0  0  0  0
    5.1864   65.4466   62.3847 H   0  0  0  0  0  0  0  0  0  0  0  0
    4.1005   66.7240   61.8227 H   0  0  0  0  0  0  0  0  0  0  0  0
    6.0697   66.7505   64.1599 H   0  0  0  0  0  0  0  0  0  0  0  0
    5.6621   68.0845   63.1124 H   0  0  0  0  0  0  0  0  0  0  0  0
    1.2671   66.6449   65.7637 H   0  0  0  0  0  0  0  0  0  0  0  0
    2.2776   68.9343   66.8497 H   0  0  0  0  0  0  0  0  0  0  0  0
    7.3948   70.3630   66.5822 H   0  0  0  0  0  0  0  0  0  0  0  0
    7.9784   71.0044   68.9226 H   0  0  0  0  0  0  0  0  0  0  0  0
    6.1983   71.1141   70.6683 H   0  0  0  0  0  0  0  0  0  0  0  0
    3.8382   70.5599   70.0849 H   0  0  0  0  0  0  0  0  0  0  0  0
    3.2475   69.9225   67.7459 H   0  0  0  0  0  0  0  0  0  0  0  0
  2  1  1  0
  3  2  1  0
  4  3  1  0
  5  1  1  0
  5  4  1  0
  6  5  2  0
  7  6  1  0
  8  7  2  0
  8  4  1  0
 10  9  1  0
 10  1  1  0
 11 10  2  0
 12  8  1  0
 13 12  2  0
 14 12  1  0
 15 14  2  0
 16 15  1  0
 17 16  2  0
 18 17  1  0
 19 18  2  0
 19 14  1  0
  1 20  1  6
  2 21  1  0
  2 22  1  0
  3 23  1  0
  3 24  1  0
  6 25  1  0
  7 26  1  0
 15 27  1  0
 16 28  1  0
 17 29  1  0
 18 30  1  0
 19 31  1  0
M  CHG  1   9  -1
M  END
>  <score>  (2) 
-8.488

$$$$
=
     RDKit          3D

 31 33  0  0  0  0  0  0  0  0999 V2000
    2.4730   67.8380   63.1450 C   0  0  2  0  0  0  0  0  0  0  0  0
    1.5510   67.4040   64.3170 C   0  0  0  0  0  0  0  0  0  0  0  0
    1.7830   68.4410   65.4310 C   0  0  0  0  0  0  0  0  0  0  0  0
    3.1350   68.8930   65.1480 N   0  0  0  0  0  0  0  0  0  0  0  0
    3.5430   68.5770   63.8860 C   0  0  0  0  0  0  0  0  0  0  0  0
    4.8060   69.0630   63.7090 C   0  0  0  0  0  0  0  0  0  0  0  0
    5.1610   69.6740   64.9490 C   0  0  0  0  0  0  0  0  0  0  0  0
    4.1080   69.5240   65.8570 C   0  0  0  0  0  0  0  0  0  0  0  0
    2.4340   69.0720   61.0930 O   0  0  0  0  0  1  0  0  0  0  0  0
    1.7600   68.7460   62.1140 C   0  0  0  0  0  0  0  0  0  0  0  0
    0.5860   69.0980   62.4360 O   0  0  0  0  0  0  0  0  0  0  0  0
    3.9690   69.9540   67.2370 C   0  0  0  0  0  0  0  0  0  0  0  0
    2.8890   70.0620   67.8150 O   0  0  0  0  0  0  0  0  0  0  0  0
    5.1820   70.2900   68.0280 C   0  0  0  0  0  0  0  0  0  0  0  0
    6.4230   70.4940   67.4120 C   0  0  0  0  0  0  0  0  0  0  0  0
    7.5460   70.7850   68.1870 C   0  0  0  0  0  0  0  0  0  0  0  0
    7.4350   70.8610   69.5770 C   0  0  0  0  0  0  0  0  0  0  0  0
    6.2050   70.6370   70.1950 C   0  0  0  0  0  0  0  0  0  0  0  0
    5.0790   70.3460   69.4230 C   0  0  0  0  0  0  0  0  0  0  0  0
    2.8294   66.9969   62.5321 H   0  0  0  0  0  0  0  0  0  0  0  0
    0.4978   67.4102   63.9997 H   0  0  0  0  0  0  0  0  0  0  0  0
    1.7780   66.3829   64.6573 H   0  0  0  0  0  0  0  0  0  0  0  0
    1.0623   69.2692   65.3622 H   0  0  0  0  0  0  0  0  0  0  0  0
    1.6543   68.0371   66.4460 H   0  0  0  0  0  0  0  0  0  0  0  0
    5.4220   68.9974   62.8000 H   0  0  0  0  0  0  0  0  0  0  0  0
    6.1135   70.1831   65.1578 H   0  0  0  0  0  0  0  0  0  0  0  0
    6.5123   70.4248   66.3178 H   0  0  0  0  0  0  0  0  0  0  0  0
    8.5191   70.9546   67.7030 H   0  0  0  0  0  0  0  0  0  0  0  0
    8.3199   71.0981   70.1859 H   0  0  0  0  0  0  0  0  0  0  0  0
    6.1222   70.6896   71.2906 H   0  0  0  0  0  0  0  0  0  0  0  0
    4.1107   70.1607   69.9108 H   0  0  0  0  0  0  0  0  0  0  0  0
  2  1  1  0
  3  2  1  0
  4  3  1  0
  5  1  1  0
  5  4  1  0
  6  5  2  0
  7  6  1  0
  8  7  2  0
  8  4  1  0
 10  9  1  0
 10  1  1  0
 11 10  2  0
 12  8  1  0
 13 12  2  0
 14 12  1  0
 15 14  2  0
 16 15  1  0
 17 16  2  0
 18 17  1  0
 19 18  2  0
 19 14  1  0
  1 20  1  6
  2 21  1  0
  2 22  1  0
  3 23  1  0
  3 24  1  0
  6 25  1  0
  7 26  1  0
 15 27  1  0
 16 28  1  0
 17 29  1  0
 18 30  1  0
 19 31  1  0
M  CHG  1   9  -1
M  END
>  <score>  (3) 
-8.386

$$$$
=
     RDKit          3D

 31 33  0  0  0  0  0  0  0  0999 V2000
    3.2200   67.3330   62.8370 C   0  0  2  0  0  0  0  0  0  0  0  0
    3.4800   68.8580   62.7010 C   0  0  0  0  0  0  0  0  0  0  0  0
    3.7550   69.3600   64.1300 C   0  0  0  0  0  0  0  0  0  0  0  0
    3.0280   68.3920   64.9350 N   0  0  0  0  0  0  0  0  0  0  0  0
    2.7230   67.2560   64.2460 C   0  0  0  0  0  0  0  0  0  0  0  0
    2.0690   66.4050   65.0900 C   0  0  0  0  0  0  0  0  0  0  0  0
    1.9680   67.0980   66.3330 C   0  0  0  0  0  0  0  0  0  0  0  0
    2.5460   68.3650   66.2060 C   0  0  0  0  0  0  0  0  0  0  0  0
    5.5440   67.1040   62.3020 O   0  0  0  0  0  1  0  0  0  0  0  0
    4.4940   66.4780   62.6320 C   0  0  0  0  0  0  0  0  0  0  0  0
    4.3260   65.2300   62.7790 O   0  0  0  0  0  0  0  0  0  0  0  0
    2.6940   69.4470   67.1630 C   0  0  0  0  0  0  0  0  0  0  0  0
    1.7470   70.0420   67.6760 O   0  0  0  0  0  0  0  0  0  0  0  0
    4.0540   69.8880   67.5690 C   0  0  0  0  0  0  0  0  0  0  0  0
    4.3050   70.4010   68.8480 C   0  0  0  0  0  0  0  0  0  0  0  0
    5.5900   70.8270   69.1880 C   0  0  0  0  0  0  0  0  0  0  0  0
    6.6210   70.7540   68.2490 C   0  0  0  0  0  0  0  0  0  0  0  0
    6.3690   70.2640   66.9670 C   0  0  0  0  0  0  0  0  0  0  0  0
    5.0860   69.8370   66.6240 C   0  0  0  0  0  0  0  0  0  0  0  0
    2.5288   66.9359   62.0790 H   0  0  0  0  0  0  0  0  0  0  0  0
    4.3508   69.0429   62.0548 H   0  0  0  0  0  0  0  0  0  0  0  0
    2.6247   69.3777   62.2445 H   0  0  0  0  0  0  0  0  0  0  0  0
    4.8307   69.3434   64.3595 H   0  0  0  0  0  0  0  0  0  0  0  0
    3.4456   70.4015   64.3016 H   0  0  0  0  0  0  0  0  0  0  0  0
    1.6975   65.3956   64.8596 H   0  0  0  0  0  0  0  0  0  0  0  0
    1.5074   66.6981   67.2484 H   0  0  0  0  0  0  0  0  0  0  0  0
    3.4901   70.4681   69.5839 H   0  0  0  0  0  0  0  0  0  0  0  0
    5.7905   71.2202   70.1956 H   0  0  0  0  0  0  0  0  0  0  0  0
    7.6346   71.0837   68.5207 H   0  0  0  0  0  0  0  0  0  0  0  0
    7.1816   70.2145   66.2272 H   0  0  0  0  0  0  0  0  0  0  0  0
    4.8849   69.4600   65.6104 H   0  0  0  0  0  0  0  0  0  0  0  0
  2  1  1  0
  3  2  1  0
  4  3  1  0
  5  1  1  0
  5  4  1  0
  6  5  2  0
  7  6  1  0
  8  7  2  0
  8  4  1  0
 10  9  1  0
 10  1  1  0
 11 10  2  0
 12  8  1  0
 13 12  2  0
 14 12  1  0
 15 14  2  0
 16 15  1  0
 17 16  2  0
 18 17  1  0
 19 18  2  0
 19 14  1  0
  1 20  1  6
  2 21  1  0
  2 22  1  0
  3 23  1  0
  3 24  1  0
  6 25  1  0
  7 26  1  0
 15 27  1  0
 16 28  1  0
 17 29  1  0
 18 30  1  0
 19 31  1  0
M  CHG  1   9  -1
M  END
>  <score>  (4) 
-8.3

$$$$
=
     RDKit          3D

 31 33  0  0  0  0  0  0  0  0999 V2000
    5.5010   71.3460   68.5800 C   0  0  2  0  0  0  0  0  0  0  0  0
    4.0420   71.3500   69.1120 C   0  0  0  0  0  0  0  0  0  0  0  0
    3.3770   70.1020   68.5050 C   0  0  0  0  0  0  0  0  0  0  0  0
    4.1490   69.9090   67.2880 N   0  0  0  0  0  0  0  0  0  0  0  0
    5.3330   70.5830   67.3030 C   0  0  0  0  0  0  0  0  0  0  0  0
    5.9920   70.3190   66.1360 C   0  0  0  0  0  0  0  0  0  0  0  0
    5.1270   69.4630   65.3920 C   0  0  0  0  0  0  0  0  0  0  0  0
    3.9530   69.2440   66.1180 C   0  0  0  0  0  0  0  0  0  0  0  0
    6.0280   70.2510   70.6440 O   0  0  0  0  0  1  0  0  0  0  0  0
    6.4970   70.6480   69.5370 C   0  0  0  0  0  0  0  0  0  0  0  0
    7.6910   70.5910   69.1140 O   0  0  0  0  0  0  0  0  0  0  0  0
    2.7680   68.4650   65.8070 C   0  0  0  0  0  0  0  0  0  0  0  0
    2.2850   67.6220   66.5610 O   0  0  0  0  0  0  0  0  0  0  0  0
    2.0710   68.6730   64.5100 C   0  0  0  0  0  0  0  0  0  0  0  0
    0.6930   68.9150   64.4520 C   0  0  0  0  0  0  0  0  0  0  0  0
    0.0670   69.0830   63.2160 C   0  0  0  0  0  0  0  0  0  0  0  0
    0.8120   68.9970   62.0380 C   0  0  0  0  0  0  0  0  0  0  0  0
    2.1810   68.7330   62.0920 C   0  0  0  0  0  0  0  0  0  0  0  0
    2.8100   68.5660   63.3260 C   0  0  0  0  0  0  0  0  0  0  0  0
    5.9298   72.3526   68.4666 H   0  0  0  0  0  0  0  0  0  0  0  0
    4.0337   71.2937   70.2105 H   0  0  0  0  0  0  0  0  0  0  0  0
    3.5096   72.2713   68.8332 H   0  0  0  0  0  0  0  0  0  0  0  0
    3.4661   69.2352   69.1764 H   0  0  0  0  0  0  0  0  0  0  0  0
    2.2967   70.2155   68.3313 H   0  0  0  0  0  0  0  0  0  0  0  0
    6.9826   70.6891   65.8333 H   0  0  0  0  0  0  0  0  0  0  0  0
    5.3494   69.0408   64.4009 H   0  0  0  0  0  0  0  0  0  0  0  0
    0.1046   68.9726   65.3796 H   0  0  0  0  0  0  0  0  0  0  0  0
   -1.0136   69.2832   63.1697 H   0  0  0  0  0  0  0  0  0  0  0  0
    0.3183   69.1377   61.0651 H   0  0  0  0  0  0  0  0  0  0  0  0
    2.7639   68.6566   61.1623 H   0  0  0  0  0  0  0  0  0  0  0  0
    3.8877   68.3500   63.3686 H   0  0  0  0  0  0  0  0  0  0  0  0
  2  1  1  0
  3  2  1  0
  4  3  1  0
  5  1  1  0
  5  4  1  0
  6  5  2  0
  7  6  1  0
  8  7  2  0
  8  4  1  0
 10  9  1  0
 10  1  1  0
 11 10  2  0
 12  8  1  0
 13 12  2  0
 14 12  1  0
 15 14  2  0
 16 15  1  0
 17 16  2  0
 18 17  1  0
 19 18  2  0
 19 14  1  0
  1 20  1  6
  2 21  1  0
  2 22  1  0
  3 23  1  0
  3 24  1  0
  6 25  1  0
  7 26  1  0
 15 27  1  0
 16 28  1  0
 17 29  1  0
 18 30  1  0
 19 31  1  0
M  CHG  1   9  -1
M  END
>  <score>  (5) 
-8.259

$$$$
=
     RDKit          3D

 31 33  0  0  0  0  0  0  0  0999 V2000
    3.9260   68.8060   63.2250 C   0  0  2  0  0  0  0  0  0  0  0  0
    4.7950   69.4310   64.3500 C   0  0  0  0  0  0  0  0  0  0  0  0
    4.0790   69.0820   65.6670 C   0  0  0  0  0  0  0  0  0  0  0  0
    2.6980   68.9430   65.2340 N   0  0  0  0  0  0  0  0  0  0  0  0
    2.5830   68.7830   63.8860 C   0  0  0  0  0  0  0  0  0  0  0  0
    1.2600   68.6350   63.5830 C   0  0  0  0  0  0  0  0  0  0  0  0
    0.5670   68.7410   64.8250 C   0  0  0  0  0  0  0  0  0  0  0  0
    1.4870   68.9710   65.8520 C   0  0  0  0  0  0  0  0  0  0  0  0
    4.9890   66.7140   63.7060 O   0  0  0  0  0  1  0  0  0  0  0  0
    4.3870   67.3860   62.8170 C   0  0  0  0  0  0  0  0  0  0  0  0
    4.1430   67.0720   61.6140 O   0  0  0  0  0  0  0  0  0  0  0  0
    1.2990   69.1580   67.2790 C   0  0  0  0  0  0  0  0  0  0  0  0
    1.5620   70.2010   67.8750 O   0  0  0  0  0  0  0  0  0  0  0  0
    0.7560   68.0430   68.1010 C   0  0  0  0  0  0  0  0  0  0  0  0
   -0.5130   67.5060   67.8560 C   0  0  0  0  0  0  0  0  0  0  0  0
   -1.0010   66.4760   68.6610 C   0  0  0  0  0  0  0  0  0  0  0  0
   -0.2280   65.9900   69.7180 C   0  0  0  0  0  0  0  0  0  0  0  0
    1.0280   66.5390   69.9780 C   0  0  0  0  0  0  0  0  0  0  0  0
    1.5190   67.5680   69.1750 C   0  0  0  0  0  0  0  0  0  0  0  0
    3.9676   69.3630   62.2773 H   0  0  0  0  0  0  0  0  0  0  0  0
    5.8073   69.0007   64.3374 H   0  0  0  0  0  0  0  0  0  0  0  0
    4.9064   70.5179   64.2225 H   0  0  0  0  0  0  0  0  0  0  0  0
    4.4608   68.1422   66.0924 H   0  0  0  0  0  0  0  0  0  0  0  0
    4.2213   69.8304   66.4605 H   0  0  0  0  0  0  0  0  0  0  0  0
    0.8203   68.4687   62.5885 H   0  0  0  0  0  0  0  0  0  0  0  0
   -0.5220   68.6551   64.9546 H   0  0  0  0  0  0  0  0  0  0  0  0
   -1.1253   67.8956   67.0294 H   0  0  0  0  0  0  0  0  0  0  0  0
   -1.9943   66.0468   68.4632 H   0  0  0  0  0  0  0  0  0  0  0  0
   -0.6104   65.1725   70.3469 H   0  0  0  0  0  0  0  0  0  0  0  0
    1.6310   66.1602   70.8164 H   0  0  0  0  0  0  0  0  0  0  0  0
    2.5056   68.0066   69.3852 H   0  0  0  0  0  0  0  0  0  0  0  0
  2  1  1  0
  3  2  1  0
  4  3  1  0
  5  1  1  0
  5  4  1  0
  6  5  2  0
  7  6  1  0
  8  7  2  0
  8  4  1  0
 10  9  1  0
 10  1  1  0
 11 10  2  0
 12  8  1  0
 13 12  2  0
 14 12  1  0
 15 14  2  0
 16 15  1  0
 17 16  2  0
 18 17  1  0
 19 18  2  0
 19 14  1  0
  1 20  1  6
  2 21  1  0
  2 22  1  0
  3 23  1  0
  3 24  1  0
  6 25  1  0
  7 26  1  0
 15 27  1  0
 16 28  1  0
 17 29  1  0
 18 30  1  0
 19 31  1  0
M  CHG  1   9  -1
M  END
>  <score>  (6) 
-8.068

$$$$
=
     RDKit          3D

 31 33  0  0  0  0  0  0  0  0999 V2000
   -1.1080   68.8970   66.9500 C   0  0  2  0  0  0  0  0  0  0  0  0
   -1.2630   68.9230   65.4040 C   0  0  0  0  0  0  0  0  0  0  0  0
    0.0480   68.3410   64.8480 C   0  0  0  0  0  0  0  0  0  0  0  0
    0.9930   68.6570   65.9070 N   0  0  0  0  0  0  0  0  0  0  0  0
    0.3810   68.9640   67.0850 C   0  0  0  0  0  0  0  0  0  0  0  0
    1.3460   69.2180   68.0170 C   0  0  0  0  0  0  0  0  0  0  0  0
    2.5890   69.0740   67.3320 C   0  0  0  0  0  0  0  0  0  0  0  0
    2.3470   68.7560   65.9920 C   0  0  0  0  0  0  0  0  0  0  0  0
   -0.8470   66.7170   67.9070 O   0  0  0  0  0  1  0  0  0  0  0  0
   -1.6850   67.6160   67.5990 C   0  0  0  0  0  0  0  0  0  0  0  0
   -2.9470   67.5970   67.7090 O   0  0  0  0  0  0  0  0  0  0  0  0
    3.2580   68.5150   64.8880 C   0  0  0  0  0  0  0  0  0  0  0  0
    3.7810   69.4090   64.2240 O   0  0  0  0  0  0  0  0  0  0  0  0
    3.6020   67.1190   64.5100 C   0  0  0  0  0  0  0  0  0  0  0  0
    4.5720   66.8430   63.5380 C   0  0  0  0  0  0  0  0  0  0  0  0
    4.8540   65.5210   63.1910 C   0  0  0  0  0  0  0  0  0  0  0  0
    4.1610   64.4750   63.8040 C   0  0  0  0  0  0  0  0  0  0  0  0
    3.1790   64.7480   64.7570 C   0  0  0  0  0  0  0  0  0  0  0  0
    2.8940   66.0680   65.1060 C   0  0  0  0  0  0  0  0  0  0  0  0
   -1.6570   69.7023   67.4600 H   0  0  0  0  0  0  0  0  0  0  0  0
   -2.1193   68.3063   65.0933 H   0  0  0  0  0  0  0  0  0  0  0  0
   -1.4478   69.9409   65.0301 H   0  0  0  0  0  0  0  0  0  0  0  0
   -0.0308   67.2547   64.6938 H   0  0  0  0  0  0  0  0  0  0  0  0
    0.3314   68.7465   63.8655 H   0  0  0  0  0  0  0  0  0  0  0  0
    1.1962   69.4791   69.0750 H   0  0  0  0  0  0  0  0  0  0  0  0
    3.5832   69.1944   67.7871 H   0  0  0  0  0  0  0  0  0  0  0  0
    5.1110   67.6676   63.0486 H   0  0  0  0  0  0  0  0  0  0  0  0
    5.6222   65.3029   62.4345 H   0  0  0  0  0  0  0  0  0  0  0  0
    4.3898   63.4333   63.5349 H   0  0  0  0  0  0  0  0  0  0  0  0
    2.6297   63.9223   65.2330 H   0  0  0  0  0  0  0  0  0  0  0  0
    2.1127   66.2836   65.8497 H   0  0  0  0  0  0  0  0  0  0  0  0
  2  1  1  0
  3  2  1  0
  4  3  1  0
  5  1  1  0
  5  4  1  0
  6  5  2  0
  7  6  1  0
  8  7  2  0
  8  4  1  0
 10  9  1  0
 10  1  1  0
 11 10  2  0
 12  8  1  0
 13 12  2  0
 14 12  1  0
 15 14  2  0
 16 15  1  0
 17 16  2  0
 18 17  1  0
 19 18  2  0
 19 14  1  0
  1 20  1  1
  2 21  1  0
  2 22  1  0
  3 23  1  0
  3 24  1  0
  6 25  1  0
  7 26  1  0
 15 27  1  0
 16 28  1  0
 17 29  1  0
 18 30  1  0
 19 31  1  0
M  CHG  1   9  -1
M  END
>  <score>  (7) 
-7.84

$$$$
=
     RDKit          3D

 31 33  0  0  0  0  0  0  0  0999 V2000
    4.4940   70.9420   68.0410 C   0  0  2  0  0  0  0  0  0  0  0  0
    3.1700   70.7200   68.8210 C   0  0  0  0  0  0  0  0  0  0  0  0
    2.6910   69.3110   68.4290 C   0  0  0  0  0  0  0  0  0  0  0  0
    3.2810   69.1460   67.1110 N   0  0  0  0  0  0  0  0  0  0  0  0
    4.2870   70.0330   66.8700 C   0  0  0  0  0  0  0  0  0  0  0  0
    4.7910   69.7820   65.6260 C   0  0  0  0  0  0  0  0  0  0  0  0
    4.0160   68.7030   65.1070 C   0  0  0  0  0  0  0  0  0  0  0  0
    3.0430   68.3380   66.0430 C   0  0  0  0  0  0  0  0  0  0  0  0
    6.8040   70.3240   68.1830 O   0  0  0  0  0  1  0  0  0  0  0  0
    5.7530   70.5510   68.8520 C   0  0  0  0  0  0  0  0  0  0  0  0
    5.5730   70.4620   70.1040 O   0  0  0  0  0  0  0  0  0  0  0  0
    2.0120   67.3170   66.0010 C   0  0  0  0  0  0  0  0  0  0  0  0
    2.2370   66.1250   65.7980 O   0  0  0  0  0  0  0  0  0  0  0  0
    0.5910   67.6990   66.2140 C   0  0  0  0  0  0  0  0  0  0  0  0
   -0.1740   67.1250   67.2360 C   0  0  0  0  0  0  0  0  0  0  0  0
   -1.5120   67.4890   67.3930 C   0  0  0  0  0  0  0  0  0  0  0  0
   -2.0910   68.4150   66.5230 C   0  0  0  0  0  0  0  0  0  0  0  0
   -1.3360   68.9720   65.4890 C   0  0  0  0  0  0  0  0  0  0  0  0
    0.0020   68.6110   65.3300 C   0  0  0  0  0  0  0  0  0  0  0  0
    4.6806   71.9953   67.7847 H   0  0  0  0  0  0  0  0  0  0  0  0
    3.3485   70.7773   69.9049 H   0  0  0  0  0  0  0  0  0  0  0  0
    2.4204   71.4874   68.5778 H   0  0  0  0  0  0  0  0  0  0  0  0
    3.0649   68.5520   69.1319 H   0  0  0  0  0  0  0  0  0  0  0  0
    1.5972   69.1951   68.4425 H   0  0  0  0  0  0  0  0  0  0  0  0
    5.6217   70.3034   65.1279 H   0  0  0  0  0  0  0  0  0  0  0  0
    4.1610   68.2314   64.1238 H   0  0  0  0  0  0  0  0  0  0  0  0
    0.2791   66.3876   67.9149 H   0  0  0  0  0  0  0  0  0  0  0  0
   -2.1108   67.0462   68.2025 H   0  0  0  0  0  0  0  0  0  0  0  0
   -3.1438   68.7062   66.6525 H   0  0  0  0  0  0  0  0  0  0  0  0
   -1.7962   69.6954   64.7999 H   0  0  0  0  0  0  0  0  0  0  0  0
    0.5944   69.0429   64.5100 H   0  0  0  0  0  0  0  0  0  0  0  0
  2  1  1  0
  3  2  1  0
  4  3  1  0
  5  1  1  0
  5  4  1  0
  6  5  2  0
  7  6  1  0
  8  7  2  0
  8  4  1  0
 10  9  1  0
 10  1  1  0
 11 10  2  0
 12  8  1  0
 13 12  2  0
 14 12  1  0
 15 14  2  0
 16 15  1  0
 17 16  2  0
 18 17  1  0
 19 18  2  0
 19 14  1  0
  1 20  1  6
  2 21  1  0
  2 22  1  0
  3 23  1  0
  3 24  1  0
  6 25  1  0
  7 26  1  0
 15 27  1  0
 16 28  1  0
 17 29  1  0
 18 30  1  0
 19 31  1  0
M  CHG  1   9  -1
M  END
>  <score>  (8) 
-7.831

$$$$
=
     RDKit          3D

 31 33  0  0  0  0  0  0  0  0999 V2000
    3.6090   58.5840   72.6000 C   0  0  2  0  0  0  0  0  0  0  0  0
    4.1510   59.5870   73.6550 C   0  0  0  0  0  0  0  0  0  0  0  0
    3.7050   60.9780   73.1690 C   0  0  0  0  0  0  0  0  0  0  0  0
    3.5960   60.7780   71.7340 N   0  0  0  0  0  0  0  0  0  0  0  0
    3.5360   59.4610   71.3890 C   0  0  0  0  0  0  0  0  0  0  0  0
    3.4100   59.3780   70.0320 C   0  0  0  0  0  0  0  0  0  0  0  0
    3.4230   60.7250   69.5610 C   0  0  0  0  0  0  0  0  0  0  0  0
    3.5780   61.5930   70.6460 C   0  0  0  0  0  0  0  0  0  0  0  0
    1.8090   57.0420   72.2520 O   0  0  0  0  0  1  0  0  0  0  0  0
    2.2230   58.0010   72.9680 C   0  0  0  0  0  0  0  0  0  0  0  0
    1.6380   58.5870   73.9280 O   0  0  0  0  0  0  0  0  0  0  0  0
    3.6590   63.0420   70.7060 C   0  0  0  0  0  0  0  0  0  0  0  0
    4.7050   63.6760   70.5720 O   0  0  0  0  0  0  0  0  0  0  0  0
    2.4250   63.8370   70.9380 C   0  0  0  0  0  0  0  0  0  0  0  0
    1.4810   63.4570   71.9010 C   0  0  0  0  0  0  0  0  0  0  0  0
    0.3220   64.2140   72.0770 C   0  0  0  0  0  0  0  0  0  0  0  0
    0.0980   65.3430   71.2850 C   0  0  0  0  0  0  0  0  0  0  0  0
    1.0260   65.7120   70.3110 C   0  0  0  0  0  0  0  0  0  0  0  0
    2.1860   64.9570   70.1330 C   0  0  0  0  0  0  0  0  0  0  0  0
    4.2341   57.6860   72.4866 H   0  0  0  0  0  0  0  0  0  0  0  0
    3.7241   59.3709   74.6455 H   0  0  0  0  0  0  0  0  0  0  0  0
    5.2444   59.5216   73.7556 H   0  0  0  0  0  0  0  0  0  0  0  0
    2.7371   61.2627   73.6072 H   0  0  0  0  0  0  0  0  0  0  0  0
    4.3936   61.7878   73.4522 H   0  0  0  0  0  0  0  0  0  0  0  0
    3.3177   58.4635   69.4278 H   0  0  0  0  0  0  0  0  0  0  0  0
    3.3262   61.0322   68.5092 H   0  0  0  0  0  0  0  0  0  0  0  0
    1.6533   62.5627   72.5178 H   0  0  0  0  0  0  0  0  0  0  0  0
   -0.4153   63.9218   72.8393 H   0  0  0  0  0  0  0  0  0  0  0  0
   -0.8127   65.9426   71.4299 H   0  0  0  0  0  0  0  0  0  0  0  0
    0.8436   66.5972   69.6840 H   0  0  0  0  0  0  0  0  0  0  0  0
    2.9136   65.2424   69.3590 H   0  0  0  0  0  0  0  0  0  0  0  0
  2  1  1  0
  3  2  1  0
  4  3  1  0
  5  1  1  0
  5  4  1  0
  6  5  2  0
  7  6  1  0
  8  7  2  0
  8  4  1  0
 10  9  1  0
 10  1  1  0
 11 10  2  0
 12  8  1  0
 13 12  2  0
 14 12  1  0
 15 14  2  0
 16 15  1  0
 17 16  2  0
 18 17  1  0
 19 18  2  0
 19 14  1  0
  1 20  1  6
  2 21  1  0
  2 22  1  0
  3 23  1  0
  3 24  1  0
  6 25  1  0
  7 26  1  0
 15 27  1  0
 16 28  1  0
 17 29  1  0
 18 30  1  0
 19 31  1  0
M  CHG  1   9  -1
M  END
>  <score>  (9) 
-7.362

$$$$
