=
     RDKit          3D

 32 32  0  0  0  0  0  0  0  0999 V2000
    2.2950   69.2560   67.1340 C   0  0  0  0  0  0  0  0  0  0  0  0
    1.8050   70.0030   67.9800 O   0  0  0  0  0  0  0  0  0  0  0  0
    1.6160   68.1920   66.5310 N   0  0  0  0  0  0  0  0  0  0  0  0
    0.1980   68.0730   66.7220 C   0  0  0  0  0  0  0  0  0  0  0  0
   -0.6670   68.7120   65.8160 C   0  0  0  0  0  0  0  0  0  0  0  0
   -2.0520   68.6160   65.9510 C   0  0  0  0  0  0  0  0  0  0  0  0
   -2.5970   67.8800   66.9960 C   0  0  0  0  0  0  0  0  0  0  0  0
   -1.7550   67.2490   67.9100 C   0  0  0  0  0  0  0  0  0  0  0  0
   -0.3560   67.3500   67.8000 C   0  0  0  0  0  0  0  0  0  0  0  0
    0.4740   66.6800   68.8630 C   0  0  0  0  0  0  0  0  0  0  0  0
    5.9960   70.3900   67.1870 C   0  0  0  0  0  0  0  0  0  0  0  0
    4.5740   70.1010   67.5340 C   0  0  0  0  0  0  0  0  0  0  0  0
    3.7140   69.4700   66.7170 C   0  0  0  0  0  0  0  0  0  0  0  0
    2.2670   67.1360   65.7360 C   0  0  0  0  0  0  0  0  0  0  0  0
    2.1730   67.4170   64.2420 C   0  0  0  0  0  0  0  0  0  0  0  0
   -0.2441   69.2977   64.9865 H   0  0  0  0  0  0  0  0  0  0  0  0
   -2.7119   69.1223   65.2311 H   0  0  0  0  0  0  0  0  0  0  0  0
   -3.6887   67.7957   67.1015 H   0  0  0  0  0  0  0  0  0  0  0  0
   -2.1917   66.6620   68.7314 H   0  0  0  0  0  0  0  0  0  0  0  0
    0.1065   66.9767   69.8564 H   0  0  0  0  0  0  0  0  0  0  0  0
    0.3968   65.5881   68.7545 H   0  0  0  0  0  0  0  0  0  0  0  0
    1.5251   66.9858   68.7545 H   0  0  0  0  0  0  0  0  0  0  0  0
    6.5818   70.5091   68.1104 H   0  0  0  0  0  0  0  0  0  0  0  0
    6.4062   69.5569   66.5974 H   0  0  0  0  0  0  0  0  0  0  0  0
    6.0484   71.3172   66.5974 H   0  0  0  0  0  0  0  0  0  0  0  0
    4.2071   70.4244   68.5193 H   0  0  0  0  0  0  0  0  0  0  0  0
    4.0563   69.1090   65.7359 H   0  0  0  0  0  0  0  0  0  0  0  0
    3.3276   67.0773   66.0217 H   0  0  0  0  0  0  0  0  0  0  0  0
    1.7509   66.1861   65.9395 H   0  0  0  0  0  0  0  0  0  0  0  0
    1.8276   68.4494   64.0841 H   0  0  0  0  0  0  0  0  0  0  0  0
    3.1635   67.2872   63.7815 H   0  0  0  0  0  0  0  0  0  0  0  0
    1.4600   66.7174   63.7815 H   0  0  0  0  0  0  0  0  0  0  0  0
  2  1  2  0
  3  1  1  0
  4  3  1  0
  5  4  2  0
  6  5  1  0
  7  6  2  0
  8  7  1  0
  9  8  2  0
  9  4  1  0
 10  9  1  0
 12 11  1  0
 13 12  2  0
 13  1  1  0
 14  3  1  0
 15 14  1  0
  5 16  1  0
  6 17  1  0
  7 18  1  0
  8 19  1  0
 10 20  1  0
 10 21  1  0
 10 22  1  0
 11 23  1  0
 11 24  1  0
 11 25  1  0
 12 26  1  0
 13 27  1  0
 14 28  1  0
 14 29  1  0
 15 30  1  0
 15 31  1  0
 15 32  1  0
M  END
>  <score>  (1) 
-7.384

$$$$
=
     RDKit          3D

 32 32  0  0  0  0  0  0  0  0999 V2000
    1.4620   67.5100   66.8070 C   0  0  0  0  0  0  0  0  0  0  0  0
    1.9280   66.5180   66.2470 O   0  0  0  0  0  0  0  0  0  0  0  0
    2.0470   68.7800   66.7810 N   0  0  0  0  0  0  0  0  0  0  0  0
    3.1350   69.0280   65.8780 C   0  0  0  0  0  0  0  0  0  0  0  0
    4.4020   69.3300   66.4050 C   0  0  0  0  0  0  0  0  0  0  0  0
    5.4940   69.5670   65.5680 C   0  0  0  0  0  0  0  0  0  0  0  0
    5.3360   69.5070   64.1890 C   0  0  0  0  0  0  0  0  0  0  0  0
    4.0840   69.2190   63.6490 C   0  0  0  0  0  0  0  0  0  0  0  0
    2.9680   68.9960   64.4760 C   0  0  0  0  0  0  0  0  0  0  0  0
    1.6440   68.7450   63.8040 C   0  0  0  0  0  0  0  0  0  0  0  0
   -2.3010   67.1460   67.6410 C   0  0  0  0  0  0  0  0  0  0  0  0
   -0.9840   67.2540   66.9480 C   0  0  0  0  0  0  0  0  0  0  0  0
    0.1940   67.3700   67.5840 C   0  0  0  0  0  0  0  0  0  0  0  0
    1.6540   69.8930   67.6640 C   0  0  0  0  0  0  0  0  0  0  0  0
    2.6320   70.0680   68.8180 C   0  0  0  0  0  0  0  0  0  0  0  0
    4.5358   69.3806   67.4957 H   0  0  0  0  0  0  0  0  0  0  0  0
    6.4783   69.8009   65.9998 H   0  0  0  0  0  0  0  0  0  0  0  0
    6.1955   69.6861   63.5262 H   0  0  0  0  0  0  0  0  0  0  0  0
    3.9663   69.1651   62.5566 H   0  0  0  0  0  0  0  0  0  0  0  0
    0.8669   68.5977   64.5685 H   0  0  0  0  0  0  0  0  0  0  0  0
    1.3817   69.6094   63.1763 H   0  0  0  0  0  0  0  0  0  0  0  0
    1.7163   67.8446   63.1763 H   0  0  0  0  0  0  0  0  0  0  0  0
   -2.1446   67.1588   68.7297 H   0  0  0  0  0  0  0  0  0  0  0  0
   -2.9381   67.9949   67.3521 H   0  0  0  0  0  0  0  0  0  0  0  0
   -2.7913   66.2046   67.3521 H   0  0  0  0  0  0  0  0  0  0  0  0
   -0.9770   67.2376   65.8481 H   0  0  0  0  0  0  0  0  0  0  0  0
    0.2247   67.3618   68.6835 H   0  0  0  0  0  0  0  0  0  0  0  0
    1.6265   70.8222   67.0759 H   0  0  0  0  0  0  0  0  0  0  0  0
    0.6639   69.6639   68.0850 H   0  0  0  0  0  0  0  0  0  0  0  0
    2.0938   69.9717   69.7725 H   0  0  0  0  0  0  0  0  0  0  0  0
    3.4125   69.2953   68.7575 H   0  0  0  0  0  0  0  0  0  0  0  0
    3.0961   71.0635   68.7575 H   0  0  0  0  0  0  0  0  0  0  0  0
  2  1  2  0
  3  1  1  0
  4  3  1  0
  5  4  2  0
  6  5  1  0
  7  6  2  0
  8  7  1  0
  9  8  2  0
  9  4  1  0
 10  9  1  0
 12 11  1  0
 13 12  2  0
 13  1  1  0
 14  3  1  0
 15 14  1  0
  5 16  1  0
  6 17  1  0
  7 18  1  0
  8 19  1  0
 10 20  1  0
 10 21  1  0
 10 22  1  0
 11 23  1  0
 11 24  1  0
 11 25  1  0
 12 26  1  0
 13 27  1  0
 14 28  1  0
 14 29  1  0
 15 30  1  0
 15 31  1  0
 15 32  1  0
M  END
>  <score>  (2) 
-7.208

$$$$
=
     RDKit          3D

 32 32  0  0  0  0  0  0  0  0999 V2000
    2.4910   66.0730   64.6920 C   0  0  0  0  0  0  0  0  0  0  0  0
    1.4910   65.3560   64.6780 O   0  0  0  0  0  0  0  0  0  0  0  0
    2.4940   67.4170   65.0790 N   0  0  0  0  0  0  0  0  0  0  0  0
    1.3280   67.9620   65.7140 C   0  0  0  0  0  0  0  0  0  0  0  0
    1.1750   67.8100   67.1030 C   0  0  0  0  0  0  0  0  0  0  0  0
    0.0650   68.3320   67.7680 C   0  0  0  0  0  0  0  0  0  0  0  0
   -0.9120   69.0150   67.0550 C   0  0  0  0  0  0  0  0  0  0  0  0
   -0.7830   69.1650   65.6760 C   0  0  0  0  0  0  0  0  0  0  0  0
    0.3200   68.6300   64.9850 C   0  0  0  0  0  0  0  0  0  0  0  0
    0.3490   68.7940   63.4890 C   0  0  0  0  0  0  0  0  0  0  0  0
    5.2520   63.5020   63.8190 C   0  0  0  0  0  0  0  0  0  0  0  0
    3.9720   64.1650   64.2080 C   0  0  0  0  0  0  0  0  0  0  0  0
    3.7980   65.4960   64.2550 C   0  0  0  0  0  0  0  0  0  0  0  0
    3.6110   68.3470   64.8380 C   0  0  0  0  0  0  0  0  0  0  0  0
    3.8360   69.2750   66.0250 C   0  0  0  0  0  0  0  0  0  0  0  0
    1.9436   67.2702   67.6756 H   0  0  0  0  0  0  0  0  0  0  0  0
   -0.0363   68.2028   68.8557 H   0  0  0  0  0  0  0  0  0  0  0  0
   -1.7840   69.4357   67.5771 H   0  0  0  0  0  0  0  0  0  0  0  0
   -1.5572   69.7114   65.1173 H   0  0  0  0  0  0  0  0  0  0  0  0
    0.5355   69.8489   63.2393 H   0  0  0  0  0  0  0  0  0  0  0  0
    1.1507   68.1701   63.0672 H   0  0  0  0  0  0  0  0  0  0  0  0
   -0.6181   68.4829   63.0672 H   0  0  0  0  0  0  0  0  0  0  0  0
    5.8063   63.2149   64.7247 H   0  0  0  0  0  0  0  0  0  0  0  0
    5.0333   62.6038   63.2228 H   0  0  0  0  0  0  0  0  0  0  0  0
    5.8595   64.1988   63.2228 H   0  0  0  0  0  0  0  0  0  0  0  0
    3.1184   63.5235   64.4725 H   0  0  0  0  0  0  0  0  0  0  0  0
    4.6230   66.1654   63.9700 H   0  0  0  0  0  0  0  0  0  0  0  0
    4.5277   67.7653   64.6612 H   0  0  0  0  0  0  0  0  0  0  0  0
    3.3614   68.9640   63.9622 H   0  0  0  0  0  0  0  0  0  0  0  0
    3.6997   68.7130   66.9608 H   0  0  0  0  0  0  0  0  0  0  0  0
    4.8582   69.6794   65.9857 H   0  0  0  0  0  0  0  0  0  0  0  0
    3.1125   70.1026   65.9857 H   0  0  0  0  0  0  0  0  0  0  0  0
  2  1  2  0
  3  1  1  0
  4  3  1  0
  5  4  2  0
  6  5  1  0
  7  6  2  0
  8  7  1  0
  9  8  2  0
  9  4  1  0
 10  9  1  0
 12 11  1  0
 13 12  2  0
 13  1  1  0
 14  3  1  0
 15 14  1  0
  5 16  1  0
  6 17  1  0
  7 18  1  0
  8 19  1  0
 10 20  1  0
 10 21  1  0
 10 22  1  0
 11 23  1  0
 11 24  1  0
 11 25  1  0
 12 26  1  0
 13 27  1  0
 14 28  1  0
 14 29  1  0
 15 30  1  0
 15 31  1  0
 15 32  1  0
M  END
>  <score>  (3) 
-6.761

$$$$
=
     RDKit          3D

 32 32  0  0  0  0  0  0  0  0999 V2000
    3.4470   65.5210   64.6900 C   0  0  0  0  0  0  0  0  0  0  0  0
    3.0240   64.9190   65.6770 O   0  0  0  0  0  0  0  0  0  0  0  0
    3.1740   66.8620   64.4050 N   0  0  0  0  0  0  0  0  0  0  0  0
    2.5520   67.6760   65.4110 C   0  0  0  0  0  0  0  0  0  0  0  0
    1.2120   67.4280   65.7550 C   0  0  0  0  0  0  0  0  0  0  0  0
    0.5670   68.1830   66.7350 C   0  0  0  0  0  0  0  0  0  0  0  0
    1.2510   69.2000   67.3890 C   0  0  0  0  0  0  0  0  0  0  0  0
    2.5770   69.4670   67.0530 C   0  0  0  0  0  0  0  0  0  0  0  0
    3.2390   68.7290   66.0550 C   0  0  0  0  0  0  0  0  0  0  0  0
    4.6530   69.1230   65.7210 C   0  0  0  0  0  0  0  0  0  0  0  0
    5.5960   62.7390   63.0660 C   0  0  0  0  0  0  0  0  0  0  0  0
    4.7140   63.5350   63.9700 C   0  0  0  0  0  0  0  0  0  0  0  0
    4.3010   64.7850   63.7080 C   0  0  0  0  0  0  0  0  0  0  0  0
    3.4400   67.5060   63.1060 C   0  0  0  0  0  0  0  0  0  0  0  0
    2.2730   68.3770   62.6610 C   0  0  0  0  0  0  0  0  0  0  0  0
    0.6623   66.6247   65.2427 H   0  0  0  0  0  0  0  0  0  0  0  0
   -0.4823   67.9732   66.9896 H   0  0  0  0  0  0  0  0  0  0  0  0
    0.7485   69.7917   68.1683 H   0  0  0  0  0  0  0  0  0  0  0  0
    3.1158   70.2696   67.5779 H   0  0  0  0  0  0  0  0  0  0  0  0
    5.2191   69.2807   66.6509 H   0  0  0  0  0  0  0  0  0  0  0  0
    5.1277   68.3229   65.1340 H   0  0  0  0  0  0  0  0  0  0  0  0
    4.6455   70.0533   65.1340 H   0  0  0  0  0  0  0  0  0  0  0  0
    6.2788   62.1228   63.6693 H   0  0  0  0  0  0  0  0  0  0  0  0
    4.9778   62.0871   62.4313 H   0  0  0  0  0  0  0  0  0  0  0  0
    6.1813   63.4206   62.4313 H   0  0  0  0  0  0  0  0  0  0  0  0
    4.3820   63.0682   64.9091 H   0  0  0  0  0  0  0  0  0  0  0  0
    4.5926   65.2708   62.7651 H   0  0  0  0  0  0  0  0  0  0  0  0
    4.3391   68.1333   63.1963 H   0  0  0  0  0  0  0  0  0  0  0  0
    3.5850   66.7160   62.3544 H   0  0  0  0  0  0  0  0  0  0  0  0
    1.7491   68.7680   63.5457 H   0  0  0  0  0  0  0  0  0  0  0  0
    2.6506   69.2159   62.0579 H   0  0  0  0  0  0  0  0  0  0  0  0
    1.5762   67.7763   62.0579 H   0  0  0  0  0  0  0  0  0  0  0  0
  2  1  2  0
  3  1  1  0
  4  3  1  0
  5  4  2  0
  6  5  1  0
  7  6  2  0
  8  7  1  0
  9  8  2  0
  9  4  1  0
 10  9  1  0
 12 11  1  0
 13 12  2  0
 13  1  1  0
 14  3  1  0
 15 14  1  0
  5 16  1  0
  6 17  1  0
  7 18  1  0
  8 19  1  0
 10 20  1  0
 10 21  1  0
 10 22  1  0
 11 23  1  0
 11 24  1  0
 11 25  1  0
 12 26  1  0
 13 27  1  0
 14 28  1  0
 14 29  1  0
 15 30  1  0
 15 31  1  0
 15 32  1  0
M  END
>  <score>  (4) 
-6.747

$$$$
=
     RDKit          3D

 32 32  0  0  0  0  0  0  0  0999 V2000
    2.2640   68.1630   66.1580 C   0  0  0  0  0  0  0  0  0  0  0  0
    2.0140   67.0760   65.6380 O   0  0  0  0  0  0  0  0  0  0  0  0
    1.7180   68.6050   67.3670 N   0  0  0  0  0  0  0  0  0  0  0  0
    0.9950   67.6740   68.1870 C   0  0  0  0  0  0  0  0  0  0  0  0
    1.6570   67.0560   69.2610 C   0  0  0  0  0  0  0  0  0  0  0  0
    0.9940   66.1530   70.0940 C   0  0  0  0  0  0  0  0  0  0  0  0
   -0.3430   65.8530   69.8660 C   0  0  0  0  0  0  0  0  0  0  0  0
   -1.0130   66.4490   68.7980 C   0  0  0  0  0  0  0  0  0  0  0  0
   -0.3560   67.3470   67.9360 C   0  0  0  0  0  0  0  0  0  0  0  0
   -1.1420   67.9000   66.7780 C   0  0  0  0  0  0  0  0  0  0  0  0
    5.2720   69.4800   64.1070 C   0  0  0  0  0  0  0  0  0  0  0  0
    4.2670   68.6210   64.8000 C   0  0  0  0  0  0  0  0  0  0  0  0
    3.2000   69.0970   65.4610 C   0  0  0  0  0  0  0  0  0  0  0  0
    1.7910   69.9940   67.8520 C   0  0  0  0  0  0  0  0  0  0  0  0
    2.9880   70.2080   68.7700 C   0  0  0  0  0  0  0  0  0  0  0  0
    2.7158   67.2876   69.4488 H   0  0  0  0  0  0  0  0  0  0  0  0
    1.5297   65.6796   70.9300 H   0  0  0  0  0  0  0  0  0  0  0  0
   -0.8711   65.1482   70.5251 H   0  0  0  0  0  0  0  0  0  0  0  0
   -2.0736   66.2132   68.6262 H   0  0  0  0  0  0  0  0  0  0  0  0
   -1.9862   68.4940   67.1582 H   0  0  0  0  0  0  0  0  0  0  0  0
   -0.4904   68.5397   66.1647 H   0  0  0  0  0  0  0  0  0  0  0  0
   -1.5240   67.0706   66.1647 H   0  0  0  0  0  0  0  0  0  0  0  0
    5.8849   70.0038   64.8553 H   0  0  0  0  0  0  0  0  0  0  0  0
    5.9194   68.8519   63.4775 H   0  0  0  0  0  0  0  0  0  0  0  0
    4.7523   70.2173   63.4775 H   0  0  0  0  0  0  0  0  0  0  0  0
    4.4095   67.5308   64.7670 H   0  0  0  0  0  0  0  0  0  0  0  0
    3.0134   70.1807   65.4899 H   0  0  0  0  0  0  0  0  0  0  0  0
    1.8791   70.6691   66.9880 H   0  0  0  0  0  0  0  0  0  0  0  0
    0.8766   70.2054   68.4258 H   0  0  0  0  0  0  0  0  0  0  0  0
    2.6609   70.1495   69.8186 H   0  0  0  0  0  0  0  0  0  0  0  0
    3.7417   69.4304   68.5771 H   0  0  0  0  0  0  0  0  0  0  0  0
    3.4256   71.1986   68.5771 H   0  0  0  0  0  0  0  0  0  0  0  0
  2  1  2  0
  3  1  1  0
  4  3  1  0
  5  4  2  0
  6  5  1  0
  7  6  2  0
  8  7  1  0
  9  8  2  0
  9  4  1  0
 10  9  1  0
 12 11  1  0
 13 12  2  0
 13  1  1  0
 14  3  1  0
 15 14  1  0
  5 16  1  0
  6 17  1  0
  7 18  1  0
  8 19  1  0
 10 20  1  0
 10 21  1  0
 10 22  1  0
 11 23  1  0
 11 24  1  0
 11 25  1  0
 12 26  1  0
 13 27  1  0
 14 28  1  0
 14 29  1  0
 15 30  1  0
 15 31  1  0
 15 32  1  0
M  END
>  <score>  (5) 
-6.584

$$$$
=
     RDKit          3D

 32 32  0  0  0  0  0  0  0  0999 V2000
    3.1710   68.6270   65.4640 C   0  0  0  0  0  0  0  0  0  0  0  0
    3.1130   69.4530   66.3750 O   0  0  0  0  0  0  0  0  0  0  0  0
    2.1500   67.7240   65.1500 N   0  0  0  0  0  0  0  0  0  0  0  0
    0.8610   67.8900   65.7610 C   0  0  0  0  0  0  0  0  0  0  0  0
    0.6360   67.3450   67.0370 C   0  0  0  0  0  0  0  0  0  0  0  0
   -0.5950   67.4900   67.6760 C   0  0  0  0  0  0  0  0  0  0  0  0
   -1.6240   68.1830   67.0510 C   0  0  0  0  0  0  0  0  0  0  0  0
   -1.4230   68.7210   65.7810 C   0  0  0  0  0  0  0  0  0  0  0  0
   -0.1940   68.5680   65.1120 C   0  0  0  0  0  0  0  0  0  0  0  0
   -0.0850   69.1360   63.7220 C   0  0  0  0  0  0  0  0  0  0  0  0
    5.6320   69.0850   62.5100 C   0  0  0  0  0  0  0  0  0  0  0  0
    4.4510   69.1360   63.4220 C   0  0  0  0  0  0  0  0  0  0  0  0
    4.4100   68.5560   64.6330 C   0  0  0  0  0  0  0  0  0  0  0  0
    2.3140   66.5630   64.2580 C   0  0  0  0  0  0  0  0  0  0  0  0
    3.0050   65.4040   64.9650 C   0  0  0  0  0  0  0  0  0  0  0  0
    1.4448   66.7947   67.5401 H   0  0  0  0  0  0  0  0  0  0  0  0
   -0.7511   67.0558   68.6745 H   0  0  0  0  0  0  0  0  0  0  0  0
   -2.5933   68.3066   67.5562 H   0  0  0  0  0  0  0  0  0  0  0  0
   -2.2388   69.2746   65.2932 H   0  0  0  0  0  0  0  0  0  0  0  0
    0.1220   70.2147   63.7819 H   0  0  0  0  0  0  0  0  0  0  0  0
    0.7334   68.6349   63.1843 H   0  0  0  0  0  0  0  0  0  0  0  0
   -1.0307   68.9734   63.1843 H   0  0  0  0  0  0  0  0  0  0  0  0
    6.5549   69.0451   63.1071 H   0  0  0  0  0  0  0  0  0  0  0  0
    5.5668   68.1888   61.8755 H   0  0  0  0  0  0  0  0  0  0  0  0
    5.6443   69.9834   61.8755 H   0  0  0  0  0  0  0  0  0  0  0  0
    3.5592   69.6824   63.0812 H   0  0  0  0  0  0  0  0  0  0  0  0
    5.2946   68.0254   65.0150 H   0  0  0  0  0  0  0  0  0  0  0  0
    1.3219   66.2323   63.9169 H   0  0  0  0  0  0  0  0  0  0  0  0
    2.9407   66.8692   63.4074 H   0  0  0  0  0  0  0  0  0  0  0  0
    2.9248   65.5385   66.0538 H   0  0  0  0  0  0  0  0  0  0  0  0
    2.5231   64.4584   64.6759 H   0  0  0  0  0  0  0  0  0  0  0  0
    4.0660   65.3783   64.6759 H   0  0  0  0  0  0  0  0  0  0  0  0
  2  1  2  0
  3  1  1  0
  4  3  1  0
  5  4  2  0
  6  5  1  0
  7  6  2  0
  8  7  1  0
  9  8  2  0
  9  4  1  0
 10  9  1  0
 12 11  1  0
 13 12  2  0
 13  1  1  0
 14  3  1  0
 15 14  1  0
  5 16  1  0
  6 17  1  0
  7 18  1  0
  8 19  1  0
 10 20  1  0
 10 21  1  0
 10 22  1  0
 11 23  1  0
 11 24  1  0
 11 25  1  0
 12 26  1  0
 13 27  1  0
 14 28  1  0
 14 29  1  0
 15 30  1  0
 15 31  1  0
 15 32  1  0
M  END
>  <score>  (6) 
-6.539

$$$$
=
     RDKit          3D

 32 32  0  0  0  0  0  0  0  0999 V2000
    1.9850   68.1590   66.0660 C   0  0  0  0  0  0  0  0  0  0  0  0
    2.1780   69.3650   66.2130 O   0  0  0  0  0  0  0  0  0  0  0  0
    2.4770   67.4040   64.9960 N   0  0  0  0  0  0  0  0  0  0  0  0
    3.4500   67.9910   64.1190 C   0  0  0  0  0  0  0  0  0  0  0  0
    4.7930   68.0430   64.5290 C   0  0  0  0  0  0  0  0  0  0  0  0
    5.7780   68.5920   63.7070 C   0  0  0  0  0  0  0  0  0  0  0  0
    5.4360   69.1000   62.4600 C   0  0  0  0  0  0  0  0  0  0  0  0
    4.1070   69.0680   62.0410 C   0  0  0  0  0  0  0  0  0  0  0  0
    3.0970   68.5350   62.8640 C   0  0  0  0  0  0  0  0  0  0  0  0
    1.6820   68.5900   62.3520 C   0  0  0  0  0  0  0  0  0  0  0  0
   -1.0760   66.8760   68.0590 C   0  0  0  0  0  0  0  0  0  0  0  0
   -0.1780   67.5360   67.0670 C   0  0  0  0  0  0  0  0  0  0  0  0
    1.1610   67.4320   67.0790 C   0  0  0  0  0  0  0  0  0  0  0  0
    2.0270   66.0400   64.6670 C   0  0  0  0  0  0  0  0  0  0  0  0
    3.1840   65.0490   64.6770 C   0  0  0  0  0  0  0  0  0  0  0  0
    5.0728   67.6440   65.5152 H   0  0  0  0  0  0  0  0  0  0  0  0
    6.8240   68.6225   64.0460 H   0  0  0  0  0  0  0  0  0  0  0  0
    6.2110   69.5258   61.8058 H   0  0  0  0  0  0  0  0  0  0  0  0
    3.8429   69.4661   61.0502 H   0  0  0  0  0  0  0  0  0  0  0  0
    0.9851   68.6171   63.2026 H   0  0  0  0  0  0  0  0  0  0  0  0
    1.5485   69.4940   61.7397 H   0  0  0  0  0  0  0  0  0  0  0  0
    1.4787   67.6991   61.7397 H   0  0  0  0  0  0  0  0  0  0  0  0
   -0.7411   67.1222   69.0774 H   0  0  0  0  0  0  0  0  0  0  0  0
   -2.1064   67.2333   67.9155 H   0  0  0  0  0  0  0  0  0  0  0  0
   -1.0426   65.7859   67.9155 H   0  0  0  0  0  0  0  0  0  0  0  0
   -0.6412   68.1454   66.2770 H   0  0  0  0  0  0  0  0  0  0  0  0
    1.6541   66.8080   67.8389 H   0  0  0  0  0  0  0  0  0  0  0  0
    1.2789   65.7226   65.4083 H   0  0  0  0  0  0  0  0  0  0  0  0
    1.5962   66.0550   63.6550 H   0  0  0  0  0  0  0  0  0  0  0  0
    3.4573   64.8149   65.7165 H   0  0  0  0  0  0  0  0  0  0  0  0
    2.8808   64.1261   64.1609 H   0  0  0  0  0  0  0  0  0  0  0  0
    4.0493   65.4904   64.1609 H   0  0  0  0  0  0  0  0  0  0  0  0
  2  1  2  0
  3  1  1  0
  4  3  1  0
  5  4  2  0
  6  5  1  0
  7  6  2  0
  8  7  1  0
  9  8  2  0
  9  4  1  0
 10  9  1  0
 12 11  1  0
 13 12  2  0
 13  1  1  0
 14  3  1  0
 15 14  1  0
  5 16  1  0
  6 17  1  0
  7 18  1  0
  8 19  1  0
 10 20  1  0
 10 21  1  0
 10 22  1  0
 11 23  1  0
 11 24  1  0
 11 25  1  0
 12 26  1  0
 13 27  1  0
 14 28  1  0
 14 29  1  0
 15 30  1  0
 15 31  1  0
 15 32  1  0
M  END
>  <score>  (7) 
-6.51

$$$$
=
     RDKit          3D

 32 32  0  0  0  0  0  0  0  0999 V2000
    1.3420   67.0930   65.6420 C   0  0  0  0  0  0  0  0  0  0  0  0
    1.1660   66.0940   64.9450 O   0  0  0  0  0  0  0  0  0  0  0  0
    2.1960   68.1480   65.3080 N   0  0  0  0  0  0  0  0  0  0  0  0
    2.7450   68.2080   63.9830 C   0  0  0  0  0  0  0  0  0  0  0  0
    4.0490   67.7290   63.7630 C   0  0  0  0  0  0  0  0  0  0  0  0
    4.6220   67.7550   62.4910 C   0  0  0  0  0  0  0  0  0  0  0  0
    3.9010   68.2590   61.4160 C   0  0  0  0  0  0  0  0  0  0  0  0
    2.6110   68.7480   61.6170 C   0  0  0  0  0  0  0  0  0  0  0  0
    2.0240   68.7490   62.8960 C   0  0  0  0  0  0  0  0  0  0  0  0
    0.6480   69.3460   63.0280 C   0  0  0  0  0  0  0  0  0  0  0  0
   -1.5270   67.1640   68.2410 C   0  0  0  0  0  0  0  0  0  0  0  0
   -0.7160   67.0380   66.9940 C   0  0  0  0  0  0  0  0  0  0  0  0
    0.6160   67.2020   66.9430 C   0  0  0  0  0  0  0  0  0  0  0  0
    2.6220   69.2000   66.2480 C   0  0  0  0  0  0  0  0  0  0  0  0
    4.1100   69.4990   66.1210 C   0  0  0  0  0  0  0  0  0  0  0  0
    4.6270   67.3270   64.6082 H   0  0  0  0  0  0  0  0  0  0  0  0
    5.6438   67.3767   62.3397 H   0  0  0  0  0  0  0  0  0  0  0  0
    4.3461   68.2722   60.4102 H   0  0  0  0  0  0  0  0  0  0  0  0
    2.0421   69.1399   60.7610 H   0  0  0  0  0  0  0  0  0  0  0  0
    0.3963   69.4552   64.0932 H   0  0  0  0  0  0  0  0  0  0  0  0
    0.6287   70.3334   62.5436 H   0  0  0  0  0  0  0  0  0  0  0  0
   -0.0863   68.6855   62.5436 H   0  0  0  0  0  0  0  0  0  0  0  0
   -0.8702   67.0620   69.1174 H   0  0  0  0  0  0  0  0  0  0  0  0
   -2.0163   68.1489   68.2622 H   0  0  0  0  0  0  0  0  0  0  0  0
   -2.2921   66.3739   68.2622 H   0  0  0  0  0  0  0  0  0  0  0  0
   -1.2421   66.7958   66.0588 H   0  0  0  0  0  0  0  0  0  0  0  0
    1.1758   67.4179   67.8649 H   0  0  0  0  0  0  0  0  0  0  0  0
    2.0544   70.1183   66.0366 H   0  0  0  0  0  0  0  0  0  0  0  0
    2.4294   68.8447   67.2711 H   0  0  0  0  0  0  0  0  0  0  0  0
    4.5530   69.5880   67.1239 H   0  0  0  0  0  0  0  0  0  0  0  0
    4.6028   68.6819   65.5737 H   0  0  0  0  0  0  0  0  0  0  0  0
    4.2489   70.4430   65.5737 H   0  0  0  0  0  0  0  0  0  0  0  0
  2  1  2  0
  3  1  1  0
  4  3  1  0
  5  4  2  0
  6  5  1  0
  7  6  2  0
  8  7  1  0
  9  8  2  0
  9  4  1  0
 10  9  1  0
 12 11  1  0
 13 12  2  0
 13  1  1  0
 14  3  1  0
 15 14  1  0
  5 16  1  0
  6 17  1  0
  7 18  1  0
  8 19  1  0
 10 20  1  0
 10 21  1  0
 10 22  1  0
 11 23  1  0
 11 24  1  0
 11 25  1  0
 12 26  1  0
 13 27  1  0
 14 28  1  0
 14 29  1  0
 15 30  1  0
 15 31  1  0
 15 32  1  0
M  END
>  <score>  (8) 
-6.387

$$$$
=
     RDKit          3D

 32 32  0  0  0  0  0  0  0  0999 V2000
    0.6890   60.8660   72.6350 C   0  0  0  0  0  0  0  0  0  0  0  0
    0.9740   59.6720   72.5440 O   0  0  0  0  0  0  0  0  0  0  0  0
    1.6130   61.9100   72.5280 N   0  0  0  0  0  0  0  0  0  0  0  0
    2.9410   61.6190   72.0650 C   0  0  0  0  0  0  0  0  0  0  0  0
    3.9270   61.2650   73.0020 C   0  0  0  0  0  0  0  0  0  0  0  0
    5.2290   60.9620   72.6010 C   0  0  0  0  0  0  0  0  0  0  0  0
    5.5670   61.0090   71.2540 C   0  0  0  0  0  0  0  0  0  0  0  0
    4.6050   61.3690   70.3120 C   0  0  0  0  0  0  0  0  0  0  0  0
    3.2930   61.6960   70.6990 C   0  0  0  0  0  0  0  0  0  0  0  0
    2.3350   62.1240   69.6190 C   0  0  0  0  0  0  0  0  0  0  0  0
   -2.9180   60.8320   74.0410 C   0  0  0  0  0  0  0  0  0  0  0  0
   -1.4830   60.5430   73.7510 C   0  0  0  0  0  0  0  0  0  0  0  0
   -0.7320   61.2510   72.8920 C   0  0  0  0  0  0  0  0  0  0  0  0
    1.3360   63.3060   72.9070 C   0  0  0  0  0  0  0  0  0  0  0  0
    1.3990   63.5030   74.4160 C   0  0  0  0  0  0  0  0  0  0  0  0
    3.6679   61.2261   74.0703 H   0  0  0  0  0  0  0  0  0  0  0  0
    5.9862   60.6865   73.3498 H   0  0  0  0  0  0  0  0  0  0  0  0
    6.5898   60.7630   70.9324 H   0  0  0  0  0  0  0  0  0  0  0  0
    4.8768   61.3979   69.2465 H   0  0  0  0  0  0  0  0  0  0  0  0
    1.4226   62.5316   70.0787 H   0  0  0  0  0  0  0  0  0  0  0  0
    2.8077   62.8965   68.9947 H   0  0  0  0  0  0  0  0  0  0  0  0
    2.0749   61.2565   68.9947 H   0  0  0  0  0  0  0  0  0  0  0  0
   -3.0730   60.8632   75.1296 H   0  0  0  0  0  0  0  0  0  0  0  0
   -3.1921   61.8034   73.6036 H   0  0  0  0  0  0  0  0  0  0  0  0
   -3.5467   60.0424   73.6036 H   0  0  0  0  0  0  0  0  0  0  0  0
   -1.0112   59.6976   74.2732 H   0  0  0  0  0  0  0  0  0  0  0  0
   -1.1653   62.1195   72.3744 H   0  0  0  0  0  0  0  0  0  0  0  0
    2.0818   63.9594   72.4307 H   0  0  0  0  0  0  0  0  0  0  0  0
    0.3194   63.5575   72.5704 H   0  0  0  0  0  0  0  0  0  0  0  0
    1.1012   62.5718   74.9201 H   0  0  0  0  0  0  0  0  0  0  0  0
    2.4261   63.7662   74.7089 H   0  0  0  0  0  0  0  0  0  0  0  0
    0.7152   64.3133   74.7089 H   0  0  0  0  0  0  0  0  0  0  0  0
  2  1  2  0
  3  1  1  0
  4  3  1  0
  5  4  2  0
  6  5  1  0
  7  6  2  0
  8  7  1  0
  9  8  2  0
  9  4  1  0
 10  9  1  0
 12 11  1  0
 13 12  2  0
 13  1  1  0
 14  3  1  0
 15 14  1  0
  5 16  1  0
  6 17  1  0
  7 18  1  0
  8 19  1  0
 10 20  1  0
 10 21  1  0
 10 22  1  0
 11 23  1  0
 11 24  1  0
 11 25  1  0
 12 26  1  0
 13 27  1  0
 14 28  1  0
 14 29  1  0
 15 30  1  0
 15 31  1  0
 15 32  1  0
M  END
>  <score>  (9) 
-6.2

$$$$
