=
     RDKit          3D

 52 55  0  0  0  0  0  0  0  0999 V2000
   -0.2800   56.7470   74.3280 C   0  0  1  0  0  0  0  0  0  0  0  0
   -1.4850   57.5890   74.8110 C   0  0  0  0  0  0  0  0  0  0  0  0
   -1.2010   59.0420   74.3710 C   0  0  0  0  0  0  0  0  0  0  0  0
    0.0280   58.9360   73.4700 C   0  0  2  0  0  0  0  0  0  0  0  0
    0.8540   57.7920   74.1310 C   0  0  1  0  0  0  0  0  0  0  0  0
    1.5050   58.2400   75.4630 C   0  0  0  0  0  0  0  0  0  0  0  0
    1.9600   57.3970   73.1450 C   0  0  0  0  0  0  0  0  0  0  0  0
    2.7930   58.6280   72.8080 C   0  0  0  0  0  0  0  0  0  0  0  0
    4.0100   58.6090   72.9810 O   0  0  0  0  0  0  0  0  0  0  0  0
    2.0270   59.8330   72.2240 C   0  0  1  0  0  0  0  0  0  0  0  0
    0.8460   60.2030   73.1800 C   0  0  1  0  0  0  0  0  0  0  0  0
   -0.0290   61.3060   72.5660 C   0  0  0  0  0  0  0  0  0  0  0  0
    0.7930   62.5370   72.1950 C   0  0  0  0  0  0  0  0  0  0  0  0
    1.9390   62.1510   71.2930 C   0  0  0  0  0  0  0  0  0  0  0  0
    2.0510   62.7100   70.0740 C   0  0  0  0  0  0  0  0  0  0  0  0
    3.1120   62.3160   69.1260 C   0  0  0  0  0  0  0  0  0  0  0  0
    3.2130   62.8450   68.0260 O   0  0  0  0  0  0  0  0  0  0  0  0
    4.0310   61.2460   69.5530 C   0  0  0  0  0  0  0  0  0  0  0  0
    3.9260   60.6890   70.7660 C   0  0  0  0  0  0  0  0  0  0  0  0
    2.8990   61.0720   71.8290 C   0  0  2  0  0  0  0  0  0  0  0  0
    3.6840   61.6660   73.0200 C   0  0  0  0  0  0  0  0  0  0  0  0
   -0.0470   55.4500   75.1420 C   0  0  0  0  0  0  0  0  0  0  0  0
   -0.2680   55.4640   76.3630 O   0  0  0  0  0  0  0  0  0  0  0  0
    0.4520   54.1650   74.4930 C   0  0  0  0  0  0  0  0  0  0  0  0
   -0.4660   53.4890   73.6660 O   0  0  0  0  0  0  0  0  0  0  0  0
   -0.6520   56.2760   73.0000 O   0  0  0  0  0  0  0  0  0  0  0  0
   -2.4141   57.2253   74.3479 H   0  0  0  0  0  0  0  0  0  0  0  0
   -1.6114   57.5184   75.9014 H   0  0  0  0  0  0  0  0  0  0  0  0
   -2.0561   59.4540   73.8151 H   0  0  0  0  0  0  0  0  0  0  0  0
   -1.0355   59.7132   75.2266 H   0  0  0  0  0  0  0  0  0  0  0  0
   -0.2950   58.7356   72.4378 H   0  0  0  0  0  0  0  0  0  0  0  0
    0.9244   57.8404   76.3075 H   0  0  0  0  0  0  0  0  0  0  0  0
    2.5357   57.8590   75.5138 H   0  0  0  0  0  0  0  0  0  0  0  0
    1.5173   59.3388   75.5138 H   0  0  0  0  0  0  0  0  0  0  0  0
    2.6037   56.6308   73.6016 H   0  0  0  0  0  0  0  0  0  0  0  0
    1.5096   56.9924   72.2266 H   0  0  0  0  0  0  0  0  0  0  0  0
    1.6331   59.5071   71.2500 H   0  0  0  0  0  0  0  0  0  0  0  0
    1.2453   60.5981   74.1258 H   0  0  0  0  0  0  0  0  0  0  0  0
   -0.5129   60.9139   71.6593 H   0  0  0  0  0  0  0  0  0  0  0  0
   -0.7777   61.6061   73.3139 H   0  0  0  0  0  0  0  0  0  0  0  0
    0.1484   63.2596   71.6732 H   0  0  0  0  0  0  0  0  0  0  0  0
    1.1975   62.9865   73.1139 H   0  0  0  0  0  0  0  0  0  0  0  0
    1.3296   63.4846   69.7746 H   0  0  0  0  0  0  0  0  0  0  0  0
    4.8156   60.8995   68.8643 H   0  0  0  0  0  0  0  0  0  0  0  0
    4.6384   59.8895   71.0175 H   0  0  0  0  0  0  0  0  0  0  0  0
    3.2328   61.3246   73.9633 H   0  0  0  0  0  0  0  0  0  0  0  0
    4.7310   61.3319   72.9723 H   0  0  0  0  0  0  0  0  0  0  0  0
    3.6471   62.7643   72.9723 H   0  0  0  0  0  0  0  0  0  0  0  0
    1.3315   54.4170   73.8823 H   0  0  0  0  0  0  0  0  0  0  0  0
    0.6608   53.4767   75.3252 H   0  0  0  0  0  0  0  0  0  0  0  0
   -1.1224   53.0056   74.2278 H   0  0  0  0  0  0  0  0  0  0  0  0
   -1.2634   55.5019   73.0837 H   0  0  0  0  0  0  0  0  0  0  0  0
  2  1  1  0
  3  2  1  0
  4  3  1  0
  5  4  1  0
  5  1  1  0
  5  6  1  1
  7  5  1  0
  8  7  1  0
  9  8  2  0
 10  8  1  0
 11 10  1  0
 11  4  1  0
 12 11  1  0
 13 12  1  0
 14 13  1  0
 15 14  2  0
 16 15  1  0
 17 16  2  0
 18 16  1  0
 19 18  2  0
 20 10  1  0
 20 19  1  0
 20 14  1  0
 20 21  1  1
 22  1  1  0
 23 22  2  0
 24 22  1  0
 25 24  1  0
  1 26  1  6
  2 27  1  0
  2 28  1  0
  3 29  1  0
  3 30  1  0
  4 31  1  6
  6 32  1  0
  6 33  1  0
  6 34  1  0
  7 35  1  0
  7 36  1  0
 10 37  1  6
 11 38  1  1
 12 39  1  0
 12 40  1  0
 13 41  1  0
 13 42  1  0
 15 43  1  0
 18 44  1  0
 19 45  1  0
 21 46  1  0
 21 47  1  0
 21 48  1  0
 24 49  1  0
 24 50  1  0
 25 51  1  0
 26 52  1  0
M  END
>  <score>  (1) 
-8.92

$$$$
=
     RDKit          3D

 52 55  0  0  0  0  0  0  0  0999 V2000
    0.8210   64.0210   70.9470 C   0  0  1  0  0  0  0  0  0  0  0  0
    2.2850   63.9610   70.4500 C   0  0  0  0  0  0  0  0  0  0  0  0
    2.8770   62.6460   71.0060 C   0  0  0  0  0  0  0  0  0  0  0  0
    1.6780   61.9090   71.6000 C   0  0  2  0  0  0  0  0  0  0  0  0
    0.7990   63.0620   72.1700 C   0  0  1  0  0  0  0  0  0  0  0  0
    1.4180   63.6880   73.4440 C   0  0  0  0  0  0  0  0  0  0  0  0
   -0.5680   62.4640   72.5240 C   0  0  0  0  0  0  0  0  0  0  0  0
   -0.3720   61.3120   73.5020 C   0  0  0  0  0  0  0  0  0  0  0  0
   -0.9620   61.3190   74.5800 O   0  0  0  0  0  0  0  0  0  0  0  0
    0.5530   60.1690   73.0360 C   0  0  1  0  0  0  0  0  0  0  0  0
    1.9290   60.7690   72.5990 C   0  0  1  0  0  0  0  0  0  0  0  0
    2.8320   59.6830   71.9930 C   0  0  0  0  0  0  0  0  0  0  0  0
    3.0160   58.5070   72.9470 C   0  0  0  0  0  0  0  0  0  0  0  0
    1.6760   57.9610   73.3740 C   0  0  0  0  0  0  0  0  0  0  0  0
    1.3690   56.6730   73.1350 C   0  0  0  0  0  0  0  0  0  0  0  0
    0.0470   56.1080   73.4680 C   0  0  0  0  0  0  0  0  0  0  0  0
   -0.2130   54.9290   73.2620 O   0  0  0  0  0  0  0  0  0  0  0  0
   -0.9520   57.0280   74.0410 C   0  0  0  0  0  0  0  0  0  0  0  0
   -0.6510   58.3100   74.2830 C   0  0  0  0  0  0  0  0  0  0  0  0
    0.7030   58.9640   74.0240 C   0  0  2  0  0  0  0  0  0  0  0  0
    1.2750   59.3750   75.4000 C   0  0  0  0  0  0  0  0  0  0  0  0
    0.2410   65.4540   71.0370 C   0  0  0  0  0  0  0  0  0  0  0  0
   -0.3640   65.7890   72.0680 O   0  0  0  0  0  0  0  0  0  0  0  0
    0.3820   66.4590   69.9000 C   0  0  0  0  0  0  0  0  0  0  0  0
   -0.4120   66.2230   68.7610 O   0  0  0  0  0  0  0  0  0  0  0  0
    0.0360   63.3810   69.8980 O   0  0  0  0  0  0  0  0  0  0  0  0
    2.3143   63.9572   69.3504 H   0  0  0  0  0  0  0  0  0  0  0  0
    2.8597   64.8346   70.7914 H   0  0  0  0  0  0  0  0  0  0  0  0
    3.3366   62.0550   70.2001 H   0  0  0  0  0  0  0  0  0  0  0  0
    3.6687   62.8243   71.7486 H   0  0  0  0  0  0  0  0  0  0  0  0
    1.1972   61.3073   70.8147 H   0  0  0  0  0  0  0  0  0  0  0  0
    0.9647   63.2295   74.3352 H   0  0  0  0  0  0  0  0  0  0  0  0
    2.5032   63.5081   73.4509 H   0  0  0  0  0  0  0  0  0  0  0  0
    1.2259   64.7711   73.4509 H   0  0  0  0  0  0  0  0  0  0  0  0
   -1.1990   63.2368   72.9873 H   0  0  0  0  0  0  0  0  0  0  0  0
   -1.0579   62.0948   71.6109 H   0  0  0  0  0  0  0  0  0  0  0  0
    0.0565   59.7005   72.1734 H   0  0  0  0  0  0  0  0  0  0  0  0
    2.4534   61.1698   73.4790 H   0  0  0  0  0  0  0  0  0  0  0  0
    2.3752   59.3183   71.0612 H   0  0  0  0  0  0  0  0  0  0  0  0
    3.8200   60.1263   71.7997 H   0  0  0  0  0  0  0  0  0  0  0  0
    3.5852   57.7143   72.4395 H   0  0  0  0  0  0  0  0  0  0  0  0
    3.5607   58.8525   73.8380 H   0  0  0  0  0  0  0  0  0  0  0  0
    2.1272   56.0207   72.6771 H   0  0  0  0  0  0  0  0  0  0  0  0
   -1.9606   56.6555   74.2734 H   0  0  0  0  0  0  0  0  0  0  0  0
   -1.4455   58.9442   74.7033 H   0  0  0  0  0  0  0  0  0  0  0  0
    0.6610   58.9338   76.1989 H   0  0  0  0  0  0  0  0  0  0  0  0
    2.3096   59.0125   75.4901 H   0  0  0  0  0  0  0  0  0  0  0  0
    1.2615   60.4712   75.4901 H   0  0  0  0  0  0  0  0  0  0  0  0
    0.1174   67.4513   70.2941 H   0  0  0  0  0  0  0  0  0  0  0  0
    1.4234   66.3718   69.5568 H   0  0  0  0  0  0  0  0  0  0  0  0
   -1.3216   65.9526   69.0431 H   0  0  0  0  0  0  0  0  0  0  0  0
   -0.6621   62.8119   70.3089 H   0  0  0  0  0  0  0  0  0  0  0  0
  2  1  1  0
  3  2  1  0
  4  3  1  0
  5  4  1  0
  5  1  1  0
  5  6  1  1
  7  5  1  0
  8  7  1  0
  9  8  2  0
 10  8  1  0
 11 10  1  0
 11  4  1  0
 12 11  1  0
 13 12  1  0
 14 13  1  0
 15 14  2  0
 16 15  1  0
 17 16  2  0
 18 16  1  0
 19 18  2  0
 20 10  1  0
 20 19  1  0
 20 14  1  0
 20 21  1  1
 22  1  1  0
 23 22  2  0
 24 22  1  0
 25 24  1  0
  1 26  1  6
  2 27  1  0
  2 28  1  0
  3 29  1  0
  3 30  1  0
  4 31  1  6
  6 32  1  0
  6 33  1  0
  6 34  1  0
  7 35  1  0
  7 36  1  0
 10 37  1  6
 11 38  1  1
 12 39  1  0
 12 40  1  0
 13 41  1  0
 13 42  1  0
 15 43  1  0
 18 44  1  0
 19 45  1  0
 21 46  1  0
 21 47  1  0
 21 48  1  0
 24 49  1  0
 24 50  1  0
 25 51  1  0
 26 52  1  0
M  END
>  <score>  (2) 
-8.406

$$$$
=
     RDKit          3D

 52 55  0  0  0  0  0  0  0  0999 V2000
    3.1680   61.8120   70.5260 C   0  0  1  0  0  0  0  0  0  0  0  0
    4.0340   60.7740   69.7740 C   0  0  0  0  0  0  0  0  0  0  0  0
    3.7970   59.4210   70.4790 C   0  0  0  0  0  0  0  0  0  0  0  0
    2.6490   59.6920   71.4500 C   0  0  2  0  0  0  0  0  0  0  0  0
    2.9120   61.1560   71.9120 C   0  0  1  0  0  0  0  0  0  0  0  0
    4.1300   61.2540   72.8640 C   0  0  0  0  0  0  0  0  0  0  0  0
    1.6590   61.6340   72.6550 C   0  0  0  0  0  0  0  0  0  0  0  0
    1.3660   60.6800   73.8070 C   0  0  0  0  0  0  0  0  0  0  0  0
    1.2680   61.1160   74.9520 O   0  0  0  0  0  0  0  0  0  0  0  0
    1.1730   59.1960   73.4330 C   0  0  1  0  0  0  0  0  0  0  0  0
    2.4090   58.7100   72.6070 C   0  0  1  0  0  0  0  0  0  0  0  0
    2.1940   57.2790   72.0910 C   0  0  0  0  0  0  0  0  0  0  0  0
    1.8700   56.3130   73.2280 C   0  0  0  0  0  0  0  0  0  0  0  0
    0.6910   56.8150   74.0240 C   0  0  0  0  0  0  0  0  0  0  0  0
   -0.4110   56.0520   74.1450 C   0  0  0  0  0  0  0  0  0  0  0  0
   -1.6170   56.5250   74.8530 C   0  0  0  0  0  0  0  0  0  0  0  0
   -2.6070   55.8130   74.9720 O   0  0  0  0  0  0  0  0  0  0  0  0
   -1.5850   57.8960   75.3940 C   0  0  0  0  0  0  0  0  0  0  0  0
   -0.4910   58.6580   75.2780 C   0  0  0  0  0  0  0  0  0  0  0  0
    0.8170   58.2330   74.6150 C   0  0  2  0  0  0  0  0  0  0  0  0
    1.8950   58.2060   75.7210 C   0  0  0  0  0  0  0  0  0  0  0  0
    3.6800   63.2690   70.4080 C   0  0  0  0  0  0  0  0  0  0  0  0
    4.8740   63.4610   70.1280 O   0  0  0  0  0  0  0  0  0  0  0  0
    2.7690   64.4690   70.6330 C   0  0  0  0  0  0  0  0  0  0  0  0
    1.5910   64.5080   69.8630 O   0  0  0  0  0  0  0  0  0  0  0  0
    1.8900   61.8220   69.8250 O   0  0  0  0  0  0  0  0  0  0  0  0
    3.7263   60.7133   68.7197 H   0  0  0  0  0  0  0  0  0  0  0  0
    5.0979   61.0531   69.7909 H   0  0  0  0  0  0  0  0  0  0  0  0
    3.5153   58.6468   69.7501 H   0  0  0  0  0  0  0  0  0  0  0  0
    4.6986   59.0516   70.9896 H   0  0  0  0  0  0  0  0  0  0  0  0
    1.6915   59.5373   70.9310 H   0  0  0  0  0  0  0  0  0  0  0  0
    3.7830   61.2261   73.9075 H   0  0  0  0  0  0  0  0  0  0  0  0
    4.8080   60.4075   72.6803 H   0  0  0  0  0  0  0  0  0  0  0  0
    4.6639   62.1980   72.6803 H   0  0  0  0  0  0  0  0  0  0  0  0
    1.8290   62.6465   73.0498 H   0  0  0  0  0  0  0  0  0  0  0  0
    0.8036   61.6529   71.9636 H   0  0  0  0  0  0  0  0  0  0  0  0
    0.2651   59.1482   72.8137 H   0  0  0  0  0  0  0  0  0  0  0  0
    3.2996   58.6888   73.2523 H   0  0  0  0  0  0  0  0  0  0  0  0
    1.3592   57.2797   71.3747 H   0  0  0  0  0  0  0  0  0  0  0  0
    3.1248   56.9437   71.6101 H   0  0  0  0  0  0  0  0  0  0  0  0
    1.6294   55.3255   72.8073 H   0  0  0  0  0  0  0  0  0  0  0  0
    2.7434   56.2379   73.8924 H   0  0  0  0  0  0  0  0  0  0  0  0
   -0.4132   55.0448   73.7027 H   0  0  0  0  0  0  0  0  0  0  0  0
   -2.4742   58.2989   75.9009 H   0  0  0  0  0  0  0  0  0  0  0  0
   -0.5380   59.6749   75.6949 H   0  0  0  0  0  0  0  0  0  0  0  0
    1.4086   58.2182   76.7075 H   0  0  0  0  0  0  0  0  0  0  0  0
    2.4996   57.2924   75.6215 H   0  0  0  0  0  0  0  0  0  0  0  0
    2.5445   59.0882   75.6215 H   0  0  0  0  0  0  0  0  0  0  0  0
    2.4771   64.4746   71.6935 H   0  0  0  0  0  0  0  0  0  0  0  0
    3.3546   65.3460   70.3199 H   0  0  0  0  0  0  0  0  0  0  0  0
    0.8047   64.5340   70.4639 H   0  0  0  0  0  0  0  0  0  0  0  0
    1.1518   61.8278   70.4847 H   0  0  0  0  0  0  0  0  0  0  0  0
  2  1  1  0
  3  2  1  0
  4  3  1  0
  5  4  1  0
  5  1  1  0
  5  6  1  1
  7  5  1  0
  8  7  1  0
  9  8  2  0
 10  8  1  0
 11 10  1  0
 11  4  1  0
 12 11  1  0
 13 12  1  0
 14 13  1  0
 15 14  2  0
 16 15  1  0
 17 16  2  0
 18 16  1  0
 19 18  2  0
 20 10  1  0
 20 19  1  0
 20 14  1  0
 20 21  1  1
 22  1  1  0
 23 22  2  0
 24 22  1  0
 25 24  1  0
  1 26  1  6
  2 27  1  0
  2 28  1  0
  3 29  1  0
  3 30  1  0
  4 31  1  6
  6 32  1  0
  6 33  1  0
  6 34  1  0
  7 35  1  0
  7 36  1  0
 10 37  1  6
 11 38  1  1
 12 39  1  0
 12 40  1  0
 13 41  1  0
 13 42  1  0
 15 43  1  0
 18 44  1  0
 19 45  1  0
 21 46  1  0
 21 47  1  0
 21 48  1  0
 24 49  1  0
 24 50  1  0
 25 51  1  0
 26 52  1  0
M  END
>  <score>  (3) 
-8.014

$$$$
=
     RDKit          3D

 52 55  0  0  0  0  0  0  0  0999 V2000
    3.3380   60.8430   71.0540 C   0  0  1  0  0  0  0  0  0  0  0  0
    3.8950   59.4060   71.1880 C   0  0  0  0  0  0  0  0  0  0  0  0
    2.9840   58.6820   72.2040 C   0  0  0  0  0  0  0  0  0  0  0  0
    1.8250   59.6500   72.4350 C   0  0  2  0  0  0  0  0  0  0  0  0
    2.5070   61.0480   72.3520 C   0  0  1  0  0  0  0  0  0  0  0  0
    3.3850   61.3400   73.5940 C   0  0  0  0  0  0  0  0  0  0  0  0
    1.3930   62.0980   72.2720 C   0  0  0  0  0  0  0  0  0  0  0  0
    0.4730   61.9440   73.4780 C   0  0  0  0  0  0  0  0  0  0  0  0
    0.2650   62.9060   74.2140 O   0  0  0  0  0  0  0  0  0  0  0  0
   -0.1770   60.5590   73.6700 C   0  0  1  0  0  0  0  0  0  0  0  0
    0.9410   59.4640   73.6780 C   0  0  1  0  0  0  0  0  0  0  0  0
    0.3270   58.0560   73.7230 C   0  0  0  0  0  0  0  0  0  0  0  0
   -0.6200   57.8920   74.9080 C   0  0  0  0  0  0  0  0  0  0  0  0
   -1.6730   58.9730   74.8920 C   0  0  0  0  0  0  0  0  0  0  0  0
   -2.9760   58.6390   74.8440 C   0  0  0  0  0  0  0  0  0  0  0  0
   -4.0430   59.6560   74.7560 C   0  0  0  0  0  0  0  0  0  0  0  0
   -5.2250   59.3390   74.7300 O   0  0  0  0  0  0  0  0  0  0  0  0
   -3.6210   61.0670   74.6800 C   0  0  0  0  0  0  0  0  0  0  0  0
   -2.3260   61.4030   74.7310 C   0  0  0  0  0  0  0  0  0  0  0  0
   -1.1630   60.4270   74.8780 C   0  0  2  0  0  0  0  0  0  0  0  0
   -0.4970   60.7220   76.2410 C   0  0  0  0  0  0  0  0  0  0  0  0
    4.3840   61.8880   70.5950 C   0  0  0  0  0  0  0  0  0  0  0  0
    5.5730   61.7230   70.9150 O   0  0  0  0  0  0  0  0  0  0  0  0
    4.0010   63.1120   69.7740 C   0  0  0  0  0  0  0  0  0  0  0  0
    3.4920   62.8620   68.4850 O   0  0  0  0  0  0  0  0  0  0  0  0
    2.3850   60.7810   69.9530 O   0  0  0  0  0  0  0  0  0  0  0  0
    3.8641   58.8931   70.2154 H   0  0  0  0  0  0  0  0  0  0  0  0
    4.9426   59.4125   71.5234 H   0  0  0  0  0  0  0  0  0  0  0  0
    2.6193   57.7303   71.7902 H   0  0  0  0  0  0  0  0  0  0  0  0
    3.5123   58.4317   73.1358 H   0  0  0  0  0  0  0  0  0  0  0  0
    1.0471   59.4712   71.6781 H   0  0  0  0  0  0  0  0  0  0  0  0
    2.8037   61.1467   74.5076 H   0  0  0  0  0  0  0  0  0  0  0  0
    4.2709   60.6881   73.5782 H   0  0  0  0  0  0  0  0  0  0  0  0
    3.7040   62.3926   73.5782 H   0  0  0  0  0  0  0  0  0  0  0  0
    1.8356   63.1050   72.2728 H   0  0  0  0  0  0  0  0  0  0  0  0
    0.8163   61.9559   71.3461 H   0  0  0  0  0  0  0  0  0  0  0  0
   -0.8446   60.4083   72.8088 H   0  0  0  0  0  0  0  0  0  0  0  0
    1.5604   59.5738   74.5804 H   0  0  0  0  0  0  0  0  0  0  0  0
   -0.2327   57.8810   72.7923 H   0  0  0  0  0  0  0  0  0  0  0  0
    1.1445   57.3283   73.8335 H   0  0  0  0  0  0  0  0  0  0  0  0
   -1.1090   56.9085   74.8480 H   0  0  0  0  0  0  0  0  0  0  0  0
   -0.0421   57.9699   75.8407 H   0  0  0  0  0  0  0  0  0  0  0  0
   -3.2547   57.5752   74.8712 H   0  0  0  0  0  0  0  0  0  0  0  0
   -4.3816   61.8553   74.5799 H   0  0  0  0  0  0  0  0  0  0  0  0
   -2.0800   62.4729   74.6610 H   0  0  0  0  0  0  0  0  0  0  0  0
   -1.1753   60.4216   77.0532 H   0  0  0  0  0  0  0  0  0  0  0  0
    0.4429   60.1560   76.3200 H   0  0  0  0  0  0  0  0  0  0  0  0
   -0.2846   61.7984   76.3200 H   0  0  0  0  0  0  0  0  0  0  0  0
    3.2347   63.6664   70.3356 H   0  0  0  0  0  0  0  0  0  0  0  0
    4.9381   63.6665   69.6179 H   0  0  0  0  0  0  0  0  0  0  0  0
    2.6059   62.4268   68.5588 H   0  0  0  0  0  0  0  0  0  0  0  0
    1.4656   60.7212   70.3153 H   0  0  0  0  0  0  0  0  0  0  0  0
  2  1  1  0
  3  2  1  0
  4  3  1  0
  5  4  1  0
  5  1  1  0
  5  6  1  1
  7  5  1  0
  8  7  1  0
  9  8  2  0
 10  8  1  0
 11 10  1  0
 11  4  1  0
 12 11  1  0
 13 12  1  0
 14 13  1  0
 15 14  2  0
 16 15  1  0
 17 16  2  0
 18 16  1  0
 19 18  2  0
 20 10  1  0
 20 19  1  0
 20 14  1  0
 20 21  1  1
 22  1  1  0
 23 22  2  0
 24 22  1  0
 25 24  1  0
  1 26  1  6
  2 27  1  0
  2 28  1  0
  3 29  1  0
  3 30  1  0
  4 31  1  6
  6 32  1  0
  6 33  1  0
  6 34  1  0
  7 35  1  0
  7 36  1  0
 10 37  1  6
 11 38  1  1
 12 39  1  0
 12 40  1  0
 13 41  1  0
 13 42  1  0
 15 43  1  0
 18 44  1  0
 19 45  1  0
 21 46  1  0
 21 47  1  0
 21 48  1  0
 24 49  1  0
 24 50  1  0
 25 51  1  0
 26 52  1  0
M  END
>  <score>  (4) 
-7.537

$$$$
=
     RDKit          3D

 52 55  0  0  0  0  0  0  0  0999 V2000
    3.4440   62.1150   70.7420 C   0  0  1  0  0  0  0  0  0  0  0  0
    4.8830   62.1880   71.3060 C   0  0  0  0  0  0  0  0  0  0  0  0
    4.9050   61.2790   72.5550 C   0  0  0  0  0  0  0  0  0  0  0  0
    3.5600   60.5570   72.5250 C   0  0  2  0  0  0  0  0  0  0  0  0
    2.5910   61.6320   71.9490 C   0  0  1  0  0  0  0  0  0  0  0  0
    2.2970   62.7570   72.9720 C   0  0  0  0  0  0  0  0  0  0  0  0
    1.2770   60.9240   71.5960 C   0  0  0  0  0  0  0  0  0  0  0  0
    0.7360   60.2270   72.8380 C   0  0  0  0  0  0  0  0  0  0  0  0
   -0.4030   60.4730   73.2300 O   0  0  0  0  0  0  0  0  0  0  0  0
    1.6740   59.2040   73.5110 C   0  0  1  0  0  0  0  0  0  0  0  0
    3.0490   59.8880   73.8110 C   0  0  1  0  0  0  0  0  0  0  0  0
    4.0620   58.8670   74.3510 C   0  0  0  0  0  0  0  0  0  0  0  0
    3.5260   58.1360   75.5790 C   0  0  0  0  0  0  0  0  0  0  0  0
    2.1890   57.5060   75.2730 C   0  0  0  0  0  0  0  0  0  0  0  0
    2.0250   56.1780   75.4140 C   0  0  0  0  0  0  0  0  0  0  0  0
    0.7610   55.5030   75.0620 C   0  0  0  0  0  0  0  0  0  0  0  0
    0.6200   54.2960   75.2120 O   0  0  0  0  0  0  0  0  0  0  0  0
   -0.3160   56.3410   74.5040 C   0  0  0  0  0  0  0  0  0  0  0  0
   -0.1580   57.6630   74.3640 C   0  0  0  0  0  0  0  0  0  0  0  0
    1.0890   58.4520   74.7530 C   0  0  2  0  0  0  0  0  0  0  0  0
    0.6810   59.4020   75.9010 C   0  0  0  0  0  0  0  0  0  0  0  0
    3.0280   63.3490   69.9040 C   0  0  0  0  0  0  0  0  0  0  0  0
    3.2740   63.3550   68.6870 O   0  0  0  0  0  0  0  0  0  0  0  0
    2.3390   64.5560   70.5270 C   0  0  0  0  0  0  0  0  0  0  0  0
    1.5600   65.3450   69.6580 O   0  0  0  0  0  0  0  0  0  0  0  0
    3.4670   61.0190   69.7800 O   0  0  0  0  0  0  0  0  0  0  0  0
    5.6041   61.8258   70.5584 H   0  0  0  0  0  0  0  0  0  0  0  0
    5.1618   63.2217   71.5585 H   0  0  0  0  0  0  0  0  0  0  0  0
    5.7344   60.5588   72.4973 H   0  0  0  0  0  0  0  0  0  0  0  0
    5.0540   61.8482   73.4844 H   0  0  0  0  0  0  0  0  0  0  0  0
    3.6522   59.6458   71.9158 H   0  0  0  0  0  0  0  0  0  0  0  0
    2.4006   62.3606   73.9928 H   0  0  0  0  0  0  0  0  0  0  0  0
    3.0098   63.5818   72.8249 H   0  0  0  0  0  0  0  0  0  0  0  0
    1.2718   63.1276   72.8249 H   0  0  0  0  0  0  0  0  0  0  0  0
    0.5444   61.6634   71.2402 H   0  0  0  0  0  0  0  0  0  0  0  0
    1.4573   60.1821   70.8041 H   0  0  0  0  0  0  0  0  0  0  0  0
    1.8099   58.3867   72.7874 H   0  0  0  0  0  0  0  0  0  0  0  0
    2.9189   60.6543   74.5893 H   0  0  0  0  0  0  0  0  0  0  0  0
    4.2794   58.1299   73.5639 H   0  0  0  0  0  0  0  0  0  0  0  0
    4.9726   59.4096   74.6450 H   0  0  0  0  0  0  0  0  0  0  0  0
    4.2380   57.3508   75.8732 H   0  0  0  0  0  0  0  0  0  0  0  0
    3.4012   58.8587   76.3988 H   0  0  0  0  0  0  0  0  0  0  0  0
    2.8594   55.5766   75.8039 H   0  0  0  0  0  0  0  0  0  0  0  0
   -1.2634   55.8731   74.1982 H   0  0  0  0  0  0  0  0  0  0  0  0
   -0.9974   58.2279   73.9324 H   0  0  0  0  0  0  0  0  0  0  0  0
    0.8883   58.9194   76.8675 H   0  0  0  0  0  0  0  0  0  0  0  0
    1.2574   60.3359   75.8264 H   0  0  0  0  0  0  0  0  0  0  0  0
   -0.3931   59.6271   75.8264 H   0  0  0  0  0  0  0  0  0  0  0  0
    1.6807   64.1899   71.3286 H   0  0  0  0  0  0  0  0  0  0  0  0
    3.1511   65.2127   70.8722 H   0  0  0  0  0  0  0  0  0  0  0  0
    0.9730   65.9395   70.1891 H   0  0  0  0  0  0  0  0  0  0  0  0
    3.4851   60.1555   70.2639 H   0  0  0  0  0  0  0  0  0  0  0  0
  2  1  1  0
  3  2  1  0
  4  3  1  0
  5  4  1  0
  5  1  1  0
  5  6  1  1
  7  5  1  0
  8  7  1  0
  9  8  2  0
 10  8  1  0
 11 10  1  0
 11  4  1  0
 12 11  1  0
 13 12  1  0
 14 13  1  0
 15 14  2  0
 16 15  1  0
 17 16  2  0
 18 16  1  0
 19 18  2  0
 20 10  1  0
 20 19  1  0
 20 14  1  0
 20 21  1  1
 22  1  1  0
 23 22  2  0
 24 22  1  0
 25 24  1  0
  1 26  1  6
  2 27  1  0
  2 28  1  0
  3 29  1  0
  3 30  1  0
  4 31  1  6
  6 32  1  0
  6 33  1  0
  6 34  1  0
  7 35  1  0
  7 36  1  0
 10 37  1  6
 11 38  1  1
 12 39  1  0
 12 40  1  0
 13 41  1  0
 13 42  1  0
 15 43  1  0
 18 44  1  0
 19 45  1  0
 21 46  1  0
 21 47  1  0
 21 48  1  0
 24 49  1  0
 24 50  1  0
 25 51  1  0
 26 52  1  0
M  END
>  <score>  (5) 
-7.321

$$$$
=
     RDKit          3D

 52 55  0  0  0  0  0  0  0  0999 V2000
    3.8960   61.6430   71.6150 C   0  0  1  0  0  0  0  0  0  0  0  0
    3.1720   62.8370   70.9470 C   0  0  0  0  0  0  0  0  0  0  0  0
    2.0970   63.3080   71.9510 C   0  0  0  0  0  0  0  0  0  0  0  0
    2.3940   62.5210   73.2260 C   0  0  2  0  0  0  0  0  0  0  0  0
    2.8870   61.1450   72.6880 C   0  0  1  0  0  0  0  0  0  0  0  0
    1.7290   60.3070   72.0900 C   0  0  0  0  0  0  0  0  0  0  0  0
    3.4940   60.3810   73.8710 C   0  0  0  0  0  0  0  0  0  0  0  0
    2.4530   60.2600   74.9760 C   0  0  0  0  0  0  0  0  0  0  0  0
    2.1530   59.1520   75.4150 O   0  0  0  0  0  0  0  0  0  0  0  0
    1.8600   61.5830   75.5040 C   0  0  1  0  0  0  0  0  0  0  0  0
    1.3020   62.4110   74.3000 C   0  0  1  0  0  0  0  0  0  0  0  0
    0.8310   63.7990   74.7630 C   0  0  0  0  0  0  0  0  0  0  0  0
   -0.1920   63.6990   75.8920 C   0  0  0  0  0  0  0  0  0  0  0  0
    0.3590   62.8760   77.0290 C   0  0  0  0  0  0  0  0  0  0  0  0
    0.4590   63.4120   78.2590 C   0  0  0  0  0  0  0  0  0  0  0  0
    1.0560   62.6740   79.3900 C   0  0  0  0  0  0  0  0  0  0  0  0
    1.1240   63.1680   80.5080 O   0  0  0  0  0  0  0  0  0  0  0  0
    1.5820   61.3260   79.1100 C   0  0  0  0  0  0  0  0  0  0  0  0
    1.4820   60.7870   77.8880 C   0  0  0  0  0  0  0  0  0  0  0  0
    0.8320   61.4520   76.6780 C   0  0  2  0  0  0  0  0  0  0  0  0
   -0.4060   60.6040   76.3090 C   0  0  0  0  0  0  0  0  0  0  0  0
    4.5570   60.6630   70.6150 C   0  0  0  0  0  0  0  0  0  0  0  0
    5.7650   60.4060   70.7410 O   0  0  0  0  0  0  0  0  0  0  0  0
    3.7760   60.0140   69.4790 C   0  0  0  0  0  0  0  0  0  0  0  0
    3.7600   58.6060   69.4620 O   0  0  0  0  0  0  0  0  0  0  0  0
    5.0170   62.2320   72.3360 O   0  0  0  0  0  0  0  0  0  0  0  0
    3.8851   63.6494   70.7434 H   0  0  0  0  0  0  0  0  0  0  0  0
    2.7220   62.5454   69.9865 H   0  0  0  0  0  0  0  0  0  0  0  0
    2.1820   64.3895   72.1329 H   0  0  0  0  0  0  0  0  0  0  0  0
    1.0753   63.1359   71.5815 H   0  0  0  0  0  0  0  0  0  0  0  0
    3.1317   63.0718   73.8280 H   0  0  0  0  0  0  0  0  0  0  0  0
    1.1307   59.8740   72.9052 H   0  0  0  0  0  0  0  0  0  0  0  0
    1.0906   60.9536   71.4701 H   0  0  0  0  0  0  0  0  0  0  0  0
    2.1436   59.4984   71.4701 H   0  0  0  0  0  0  0  0  0  0  0  0
    3.8001   59.3769   73.5424 H   0  0  0  0  0  0  0  0  0  0  0  0
    4.3732   60.9233   74.2492 H   0  0  0  0  0  0  0  0  0  0  0  0
    2.6891   62.1258   75.9815 H   0  0  0  0  0  0  0  0  0  0  0  0
    0.4269   61.8993   73.8730 H   0  0  0  0  0  0  0  0  0  0  0  0
    1.7008   64.3704   75.1193 H   0  0  0  0  0  0  0  0  0  0  0  0
    0.3527   64.3018   73.9095 H   0  0  0  0  0  0  0  0  0  0  0  0
   -0.4287   64.7092   76.2572 H   0  0  0  0  0  0  0  0  0  0  0  0
   -1.1012   63.2134   75.5078 H   0  0  0  0  0  0  0  0  0  0  0  0
    0.0841   64.4324   78.4274 H   0  0  0  0  0  0  0  0  0  0  0  0
    2.0639   60.7541   79.9167 H   0  0  0  0  0  0  0  0  0  0  0  0
    1.9035   59.7811   77.7446 H   0  0  0  0  0  0  0  0  0  0  0  0
   -0.9041   60.2628   77.2285 H   0  0  0  0  0  0  0  0  0  0  0  0
   -1.1052   61.2137   75.7179 H   0  0  0  0  0  0  0  0  0  0  0  0
   -0.0900   59.7318   75.7179 H   0  0  0  0  0  0  0  0  0  0  0  0
    2.7343   60.3609   69.5465 H   0  0  0  0  0  0  0  0  0  0  0  0
    4.2936   60.3142   68.5560 H   0  0  0  0  0  0  0  0  0  0  0  0
    3.7561   58.2648   70.3913 H   0  0  0  0  0  0  0  0  0  0  0  0
    4.8620   62.1506   73.3104 H   0  0  0  0  0  0  0  0  0  0  0  0
  2  1  1  0
  3  2  1  0
  4  3  1  0
  5  4  1  0
  5  1  1  0
  5  6  1  6
  7  5  1  0
  8  7  1  0
  9  8  2  0
 10  8  1  0
 11 10  1  0
 11  4  1  0
 12 11  1  0
 13 12  1  0
 14 13  1  0
 15 14  2  0
 16 15  1  0
 17 16  2  0
 18 16  1  0
 19 18  2  0
 20 10  1  0
 20 19  1  0
 20 14  1  0
 20 21  1  6
 22  1  1  0
 23 22  2  0
 24 22  1  0
 25 24  1  0
  1 26  1  1
  2 27  1  0
  2 28  1  0
  3 29  1  0
  3 30  1  0
  4 31  1  1
  6 32  1  0
  6 33  1  0
  6 34  1  0
  7 35  1  0
  7 36  1  0
 10 37  1  1
 11 38  1  6
 12 39  1  0
 12 40  1  0
 13 41  1  0
 13 42  1  0
 15 43  1  0
 18 44  1  0
 19 45  1  0
 21 46  1  0
 21 47  1  0
 21 48  1  0
 24 49  1  0
 24 50  1  0
 25 51  1  0
 26 52  1  0
M  END
>  <score>  (6) 
-7.141

$$$$
=
     RDKit          3D

 52 55  0  0  0  0  0  0  0  0999 V2000
    1.1170   62.1830   78.0560 C   0  0  1  0  0  0  0  0  0  0  0  0
    1.1770   60.6410   78.1600 C   0  0  0  0  0  0  0  0  0  0  0  0
    1.2280   60.1120   76.7090 C   0  0  0  0  0  0  0  0  0  0  0  0
    1.4200   61.3620   75.8530 C   0  0  2  0  0  0  0  0  0  0  0  0
    0.5970   62.4440   76.6140 C   0  0  1  0  0  0  0  0  0  0  0  0
   -0.9290   62.2200   76.4690 C   0  0  0  0  0  0  0  0  0  0  0  0
    0.9600   63.8050   76.0090 C   0  0  0  0  0  0  0  0  0  0  0  0
    0.6820   63.7780   74.5110 C   0  0  0  0  0  0  0  0  0  0  0  0
   -0.0580   64.6220   74.0110 O   0  0  0  0  0  0  0  0  0  0  0  0
    1.4030   62.6790   73.7030 C   0  0  1  0  0  0  0  0  0  0  0  0
    1.1050   61.2870   74.3510 C   0  0  1  0  0  0  0  0  0  0  0  0
    1.9180   60.1790   73.6630 C   0  0  0  0  0  0  0  0  0  0  0  0
    1.6760   60.1540   72.1570 C   0  0  0  0  0  0  0  0  0  0  0  0
    1.9450   61.5130   71.5590 C   0  0  0  0  0  0  0  0  0  0  0  0
    2.8700   61.6480   70.5910 C   0  0  0  0  0  0  0  0  0  0  0  0
    3.2220   62.9640   70.0220 C   0  0  0  0  0  0  0  0  0  0  0  0
    4.0520   63.0710   69.1290 O   0  0  0  0  0  0  0  0  0  0  0  0
    2.5440   64.1450   70.5900 C   0  0  0  0  0  0  0  0  0  0  0  0
    1.6220   64.0140   71.5510 C   0  0  0  0  0  0  0  0  0  0  0  0
    1.1560   62.6930   72.1570 C   0  0  2  0  0  0  0  0  0  0  0  0
   -0.3330   62.5250   71.7790 C   0  0  0  0  0  0  0  0  0  0  0  0
    0.4710   62.8760   79.2820 C   0  0  0  0  0  0  0  0  0  0  0  0
   -0.6510   62.4990   79.6570 O   0  0  0  0  0  0  0  0  0  0  0  0
    1.1630   64.0070   80.0310 C   0  0  0  0  0  0  0  0  0  0  0  0
    1.7900   64.9860   79.2370 O   0  0  0  0  0  0  0  0  0  0  0  0
    2.5060   62.6230   78.0860 O   0  0  0  0  0  0  0  0  0  0  0  0
    2.0773   60.3308   78.7107 H   0  0  0  0  0  0  0  0  0  0  0  0
    0.3067   60.2419   78.7015 H   0  0  0  0  0  0  0  0  0  0  0  0
    2.0709   59.4176   76.5777 H   0  0  0  0  0  0  0  0  0  0  0  0
    0.3211   59.5529   76.4354 H   0  0  0  0  0  0  0  0  0  0  0  0
    2.4948   61.5783   75.7636 H   0  0  0  0  0  0  0  0  0  0  0  0
   -1.3862   62.1529   77.4672 H   0  0  0  0  0  0  0  0  0  0  0  0
   -1.3726   63.0627   75.9184 H   0  0  0  0  0  0  0  0  0  0  0  0
   -1.1117   61.2854   75.9184 H   0  0  0  0  0  0  0  0  0  0  0  0
    0.3531   64.5913   76.4816 H   0  0  0  0  0  0  0  0  0  0  0  0
    2.0258   64.0143   76.1832 H   0  0  0  0  0  0  0  0  0  0  0  0
    2.4783   62.9015   73.7682 H   0  0  0  0  0  0  0  0  0  0  0  0
    0.0422   61.0366   74.2181 H   0  0  0  0  0  0  0  0  0  0  0  0
    2.9879   60.3539   73.8493 H   0  0  0  0  0  0  0  0  0  0  0  0
    1.5987   59.2115   74.0777 H   0  0  0  0  0  0  0  0  0  0  0  0
    2.3467   59.4151   71.6942 H   0  0  0  0  0  0  0  0  0  0  0  0
    0.6269   59.8822   71.9684 H   0  0  0  0  0  0  0  0  0  0  0  0
    3.3797   60.7499   70.2119 H   0  0  0  0  0  0  0  0  0  0  0  0
    2.8002   65.1480   70.2180 H   0  0  0  0  0  0  0  0  0  0  0  0
    1.1614   64.9356   71.9365 H   0  0  0  0  0  0  0  0  0  0  0  0
   -0.9384   62.4567   72.6949 H   0  0  0  0  0  0  0  0  0  0  0  0
   -0.6609   63.3918   71.1865 H   0  0  0  0  0  0  0  0  0  0  0  0
   -0.4596   61.6069   71.1865 H   0  0  0  0  0  0  0  0  0  0  0  0
    0.4068   64.5112   80.6506 H   0  0  0  0  0  0  0  0  0  0  0  0
    1.9721   63.5295   80.6031 H   0  0  0  0  0  0  0  0  0  0  0  0
    2.2209   65.6588   79.8217 H   0  0  0  0  0  0  0  0  0  0  0  0
    2.8022   62.7168   79.0260 H   0  0  0  0  0  0  0  0  0  0  0  0
  2  1  1  0
  3  2  1  0
  4  3  1  0
  5  4  1  0
  5  1  1  0
  5  6  1  1
  7  5  1  0
  8  7  1  0
  9  8  2  0
 10  8  1  0
 11 10  1  0
 11  4  1  0
 12 11  1  0
 13 12  1  0
 14 13  1  0
 15 14  2  0
 16 15  1  0
 17 16  2  0
 18 16  1  0
 19 18  2  0
 20 10  1  0
 20 19  1  0
 20 14  1  0
 20 21  1  1
 22  1  1  0
 23 22  2  0
 24 22  1  0
 25 24  1  0
  1 26  1  6
  2 27  1  0
  2 28  1  0
  3 29  1  0
  3 30  1  0
  4 31  1  6
  6 32  1  0
  6 33  1  0
  6 34  1  0
  7 35  1  0
  7 36  1  0
 10 37  1  6
 11 38  1  1
 12 39  1  0
 12 40  1  0
 13 41  1  0
 13 42  1  0
 15 43  1  0
 18 44  1  0
 19 45  1  0
 21 46  1  0
 21 47  1  0
 21 48  1  0
 24 49  1  0
 24 50  1  0
 25 51  1  0
 26 52  1  0
M  END
>  <score>  (7) 
-6.975

$$$$
=
     RDKit          3D

 52 55  0  0  0  0  0  0  0  0999 V2000
    2.1130   62.4530   71.8020 C   0  0  1  0  0  0  0  0  0  0  0  0
    1.5770   63.6150   72.6730 C   0  0  0  0  0  0  0  0  0  0  0  0
    1.4300   63.0520   74.1030 C   0  0  0  0  0  0  0  0  0  0  0  0
    2.0900   61.6760   74.0420 C   0  0  2  0  0  0  0  0  0  0  0  0
    1.7400   61.1770   72.6090 C   0  0  1  0  0  0  0  0  0  0  0  0
    0.2460   60.7910   72.4770 C   0  0  0  0  0  0  0  0  0  0  0  0
    2.6000   59.9380   72.3310 C   0  0  0  0  0  0  0  0  0  0  0  0
    2.3410   58.8970   73.4140 C   0  0  0  0  0  0  0  0  0  0  0  0
    1.9840   57.7640   73.0990 O   0  0  0  0  0  0  0  0  0  0  0  0
    2.5900   59.3470   74.8680 C   0  0  1  0  0  0  0  0  0  0  0  0
    1.7790   60.6540   75.1470 C   0  0  1  0  0  0  0  0  0  0  0  0
    2.1090   61.2170   76.5380 C   0  0  0  0  0  0  0  0  0  0  0  0
    1.8840   60.1790   77.6340 C   0  0  0  0  0  0  0  0  0  0  0  0
    2.6570   58.9190   77.3300 C   0  0  0  0  0  0  0  0  0  0  0  0
    3.5680   58.4620   78.2090 C   0  0  0  0  0  0  0  0  0  0  0  0
    4.4000   57.2750   77.9300 C   0  0  0  0  0  0  0  0  0  0  0  0
    5.2130   56.8600   78.7460 O   0  0  0  0  0  0  0  0  0  0  0  0
    4.2230   56.6240   76.6190 C   0  0  0  0  0  0  0  0  0  0  0  0
    3.3160   57.0730   75.7420 C   0  0  0  0  0  0  0  0  0  0  0  0
    2.3760   58.2540   75.9680 C   0  0  2  0  0  0  0  0  0  0  0  0
    0.9380   57.6880   75.9900 C   0  0  0  0  0  0  0  0  0  0  0  0
    1.7750   62.5820   70.2970 C   0  0  0  0  0  0  0  0  0  0  0  0
    0.7580   63.2120   69.9650 O   0  0  0  0  0  0  0  0  0  0  0  0
    2.6430   61.9520   69.2150 C   0  0  0  0  0  0  0  0  0  0  0  0
    3.8370   62.6300   68.9040 O   0  0  0  0  0  0  0  0  0  0  0  0
    3.5640   62.5730   71.8570 O   0  0  0  0  0  0  0  0  0  0  0  0
    2.2867   64.4554   72.6656 H   0  0  0  0  0  0  0  0  0  0  0  0
    0.6167   63.9914   72.2907 H   0  0  0  0  0  0  0  0  0  0  0  0
    1.9441   63.6979   74.8299 H   0  0  0  0  0  0  0  0  0  0  0  0
    0.3797   62.9982   74.4254 H   0  0  0  0  0  0  0  0  0  0  0  0
    3.1661   61.7818   74.2440 H   0  0  0  0  0  0  0  0  0  0  0  0
   -0.1933   60.6775   73.4791 H   0  0  0  0  0  0  0  0  0  0  0  0
   -0.2896   61.5803   71.9291 H   0  0  0  0  0  0  0  0  0  0  0  0
    0.1597   59.8411   71.9291 H   0  0  0  0  0  0  0  0  0  0  0  0
    2.3369   59.5201   71.3481 H   0  0  0  0  0  0  0  0  0  0  0  0
    3.6639   60.2176   72.3330 H   0  0  0  0  0  0  0  0  0  0  0  0
    3.6680   59.5501   74.9493 H   0  0  0  0  0  0  0  0  0  0  0  0
    0.7022   60.4293   75.1379 H   0  0  0  0  0  0  0  0  0  0  0  0
    3.1632   61.5307   76.5549 H   0  0  0  0  0  0  0  0  0  0  0  0
    1.4413   62.0697   76.7305 H   0  0  0  0  0  0  0  0  0  0  0  0
    2.2228   60.5890   78.5969 H   0  0  0  0  0  0  0  0  0  0  0  0
    0.8119   59.9376   77.6830 H   0  0  0  0  0  0  0  0  0  0  0  0
    3.6966   58.9897   79.1655 H   0  0  0  0  0  0  0  0  0  0  0  0
    4.8457   55.7559   76.3572 H   0  0  0  0  0  0  0  0  0  0  0  0
    3.2423   56.5470   74.7788 H   0  0  0  0  0  0  0  0  0  0  0  0
    0.6106   57.5591   77.0322 H   0  0  0  0  0  0  0  0  0  0  0  0
    0.2610   58.3868   75.4767 H   0  0  0  0  0  0  0  0  0  0  0  0
    0.9189   56.7153   75.4767 H   0  0  0  0  0  0  0  0  0  0  0  0
    2.9095   60.9376   69.5466 H   0  0  0  0  0  0  0  0  0  0  0  0
    2.0384   61.9834   68.2966 H   0  0  0  0  0  0  0  0  0  0  0  0
    4.2962   62.8907   69.7414 H   0  0  0  0  0  0  0  0  0  0  0  0
    3.8575   62.5973   72.8022 H   0  0  0  0  0  0  0  0  0  0  0  0
  2  1  1  0
  3  2  1  0
  4  3  1  0
  5  4  1  0
  5  1  1  0
  5  6  1  1
  7  5  1  0
  8  7  1  0
  9  8  2  0
 10  8  1  0
 11 10  1  0
 11  4  1  0
 12 11  1  0
 13 12  1  0
 14 13  1  0
 15 14  2  0
 16 15  1  0
 17 16  2  0
 18 16  1  0
 19 18  2  0
 20 10  1  0
 20 19  1  0
 20 14  1  0
 20 21  1  1
 22  1  1  0
 23 22  2  0
 24 22  1  0
 25 24  1  0
  1 26  1  6
  2 27  1  0
  2 28  1  0
  3 29  1  0
  3 30  1  0
  4 31  1  6
  6 32  1  0
  6 33  1  0
  6 34  1  0
  7 35  1  0
  7 36  1  0
 10 37  1  6
 11 38  1  1
 12 39  1  0
 12 40  1  0
 13 41  1  0
 13 42  1  0
 15 43  1  0
 18 44  1  0
 19 45  1  0
 21 46  1  0
 21 47  1  0
 21 48  1  0
 24 49  1  0
 24 50  1  0
 25 51  1  0
 26 52  1  0
M  END
>  <score>  (8) 
-6.603

$$$$
=
     RDKit          3D

 52 55  0  0  0  0  0  0  0  0999 V2000
    2.6300   61.4710   72.2450 C   0  0  1  0  0  0  0  0  0  0  0  0
    2.2870   60.0270   71.8080 C   0  0  0  0  0  0  0  0  0  0  0  0
    1.0230   59.6240   72.6000 C   0  0  0  0  0  0  0  0  0  0  0  0
    0.5710   60.9150   73.2800 C   0  0  2  0  0  0  0  0  0  0  0  0
    1.9130   61.6290   73.6170 C   0  0  1  0  0  0  0  0  0  0  0  0
    2.6660   60.9340   74.7780 C   0  0  0  0  0  0  0  0  0  0  0  0
    1.5770   63.0660   74.0310 C   0  0  0  0  0  0  0  0  0  0  0  0
    0.6000   63.0340   75.2000 C   0  0  0  0  0  0  0  0  0  0  0  0
    0.8770   63.6210   76.2440 O   0  0  0  0  0  0  0  0  0  0  0  0
   -0.7210   62.2730   74.9660 C   0  0  1  0  0  0  0  0  0  0  0  0
   -0.3980   60.8250   74.4690 C   0  0  1  0  0  0  0  0  0  0  0  0
   -1.6860   60.0790   74.0870 C   0  0  0  0  0  0  0  0  0  0  0  0
   -2.6890   60.0610   75.2360 C   0  0  0  0  0  0  0  0  0  0  0  0
   -2.9660   61.4650   75.7140 C   0  0  0  0  0  0  0  0  0  0  0  0
   -4.2220   61.9450   75.6960 C   0  0  0  0  0  0  0  0  0  0  0  0
   -4.5370   63.3340   76.0860 C   0  0  0  0  0  0  0  0  0  0  0  0
   -5.6880   63.7520   76.0810 O   0  0  0  0  0  0  0  0  0  0  0  0
   -3.4040   64.1990   76.4620 C   0  0  0  0  0  0  0  0  0  0  0  0
   -2.1520   63.7250   76.4840 C   0  0  0  0  0  0  0  0  0  0  0  0
   -1.7420   62.2930   76.1530 C   0  0  2  0  0  0  0  0  0  0  0  0
   -1.1750   61.6740   77.4510 C   0  0  0  0  0  0  0  0  0  0  0  0
    4.1220   61.8490   72.0690 C   0  0  0  0  0  0  0  0  0  0  0  0
    4.9330   61.5030   72.9430 O   0  0  0  0  0  0  0  0  0  0  0  0
    4.6210   62.6370   70.8640 C   0  0  0  0  0  0  0  0  0  0  0  0
    4.0300   63.8990   70.6600 O   0  0  0  0  0  0  0  0  0  0  0  0
    1.9270   62.3320   71.3040 O   0  0  0  0  0  0  0  0  0  0  0  0
    2.0861   59.9936   70.7270 H   0  0  0  0  0  0  0  0  0  0  0  0
    3.1215   59.3391   72.0091 H   0  0  0  0  0  0  0  0  0  0  0  0
    0.2427   59.2477   71.9221 H   0  0  0  0  0  0  0  0  0  0  0  0
    1.2206   58.8177   73.3217 H   0  0  0  0  0  0  0  0  0  0  0  0
   -0.0884   61.4719   72.5981 H   0  0  0  0  0  0  0  0  0  0  0  0
    2.2729   61.2968   75.7392 H   0  0  0  0  0  0  0  0  0  0  0  0
    2.5208   59.8458   74.7098 H   0  0  0  0  0  0  0  0  0  0  0  0
    3.7391   61.1657   74.7098 H   0  0  0  0  0  0  0  0  0  0  0  0
    2.4974   63.5864   74.3346 H   0  0  0  0  0  0  0  0  0  0  0  0
    1.1220   63.5986   73.1829 H   0  0  0  0  0  0  0  0  0  0  0  0
   -1.2630   62.8262   74.1848 H   0  0  0  0  0  0  0  0  0  0  0  0
    0.0776   60.2522   75.2787 H   0  0  0  0  0  0  0  0  0  0  0  0
   -2.1445   60.5794   73.2213 H   0  0  0  0  0  0  0  0  0  0  0  0
   -1.4214   59.0388   73.8463 H   0  0  0  0  0  0  0  0  0  0  0  0
   -3.6279   59.6038   74.8904 H   0  0  0  0  0  0  0  0  0  0  0  0
   -2.2683   59.4772   76.0680 H   0  0  0  0  0  0  0  0  0  0  0  0
   -5.0410   61.2818   75.3807 H   0  0  0  0  0  0  0  0  0  0  0  0
   -3.5900   65.2499   76.7285 H   0  0  0  0  0  0  0  0  0  0  0  0
   -1.3523   64.4264   76.7641 H   0  0  0  0  0  0  0  0  0  0  0  0
   -1.6287   62.1693   78.3221 H   0  0  0  0  0  0  0  0  0  0  0  0
   -1.4087   60.5994   77.4773 H   0  0  0  0  0  0  0  0  0  0  0  0
   -0.0841   61.8127   77.4773 H   0  0  0  0  0  0  0  0  0  0  0  0
    5.7035   62.7889   70.9869 H   0  0  0  0  0  0  0  0  0  0  0  0
    4.3458   62.0366   69.9843 H   0  0  0  0  0  0  0  0  0  0  0  0
    3.8342   64.3171   71.5357 H   0  0  0  0  0  0  0  0  0  0  0  0
    1.3863   62.9942   71.8032 H   0  0  0  0  0  0  0  0  0  0  0  0
  2  1  1  0
  3  2  1  0
  4  3  1  0
  5  4  1  0
  5  1  1  0
  5  6  1  1
  7  5  1  0
  8  7  1  0
  9  8  2  0
 10  8  1  0
 11 10  1  0
 11  4  1  0
 12 11  1  0
 13 12  1  0
 14 13  1  0
 15 14  2  0
 16 15  1  0
 17 16  2  0
 18 16  1  0
 19 18  2  0
 20 10  1  0
 20 19  1  0
 20 14  1  0
 20 21  1  1
 22  1  1  0
 23 22  2  0
 24 22  1  0
 25 24  1  0
  1 26  1  6
  2 27  1  0
  2 28  1  0
  3 29  1  0
  3 30  1  0
  4 31  1  6
  6 32  1  0
  6 33  1  0
  6 34  1  0
  7 35  1  0
  7 36  1  0
 10 37  1  6
 11 38  1  1
 12 39  1  0
 12 40  1  0
 13 41  1  0
 13 42  1  0
 15 43  1  0
 18 44  1  0
 19 45  1  0
 21 46  1  0
 21 47  1  0
 21 48  1  0
 24 49  1  0
 24 50  1  0
 25 51  1  0
 26 52  1  0
M  END
>  <score>  (9) 
-6.016

$$$$
