=
     RDKit          3D

 29 28  0  0  0  0  0  0  0  0999 V2000
    4.0610   69.0090   62.4090 C   0  0  0  0  0  0  0  0  0  0  0  0
    3.8630   69.0450   63.7430 C   0  0  0  0  0  0  0  0  0  0  0  0
    2.5450   68.7180   64.4030 C   0  0  0  0  0  0  0  0  0  0  0  0
    3.1010   68.6070   61.3340 C   0  0  0  0  0  0  0  0  0  0  0  0
    3.6380   69.0150   60.0860 O   0  0  0  0  0  0  0  0  0  0  0  0
    4.9370   69.4440   64.7520 C   0  0  0  0  0  0  0  0  0  0  0  0
    4.5640   69.6220   66.2330 C   0  0  0  0  0  0  0  0  0  0  0  0
    5.7280   70.0540   67.0870 C   0  0  0  0  0  0  0  0  0  0  0  0
    5.6890   70.6170   68.3110 C   0  0  0  0  0  0  0  0  0  0  0  0
    6.9620   71.0190   69.0090 C   0  0  0  0  0  0  0  0  0  0  0  0
    4.4390   70.8870   69.1020 C   0  0  0  0  0  0  0  0  0  0  0  0
    5.0602   69.3157   62.0663 H   0  0  0  0  0  0  0  0  0  0  0  0
    2.6649   68.7478   65.4960 H   0  0  0  0  0  0  0  0  0  0  0  0
    1.7886   69.4557   64.0969 H   0  0  0  0  0  0  0  0  0  0  0  0
    2.2212   67.7123   64.0969 H   0  0  0  0  0  0  0  0  0  0  0  0
    2.9675   67.5152   61.3430 H   0  0  0  0  0  0  0  0  0  0  0  0
    2.1228   69.0818   61.5006 H   0  0  0  0  0  0  0  0  0  0  0  0
    4.4168   69.6067   60.2394 H   0  0  0  0  0  0  0  0  0  0  0  0
    5.7168   68.6693   64.7106 H   0  0  0  0  0  0  0  0  0  0  0  0
    5.2202   70.4589   64.4360 H   0  0  0  0  0  0  0  0  0  0  0  0
    3.7741   70.3840   66.3061 H   0  0  0  0  0  0  0  0  0  0  0  0
    4.2277   68.6437   66.6068 H   0  0  0  0  0  0  0  0  0  0  0  0
    6.7287   69.8904   66.6607 H   0  0  0  0  0  0  0  0  0  0  0  0
    6.8136   70.9721   70.0979 H   0  0  0  0  0  0  0  0  0  0  0  0
    7.7714   70.3327   68.7194 H   0  0  0  0  0  0  0  0  0  0  0  0
    7.2305   72.0457   68.7194 H   0  0  0  0  0  0  0  0  0  0  0  0
    4.6675   70.8377   70.1769 H   0  0  0  0  0  0  0  0  0  0  0  0
    4.0572   71.8883   68.8539 H   0  0  0  0  0  0  0  0  0  0  0  0
    3.6779   70.1325   68.8539 H   0  0  0  0  0  0  0  0  0  0  0  0
  2  1  2  0
  3  2  1  0
  4  1  1  0
  5  4  1  0
  6  2  1  0
  7  6  1  0
  8  7  1  0
  9  8  2  3
 10  9  1  0
 11  9  1  0
  1 12  1  0
  3 13  1  0
  3 14  1  0
  3 15  1  0
  4 16  1  0
  4 17  1  0
  5 18  1  0
  6 19  1  0
  6 20  1  0
  7 21  1  0
  7 22  1  0
  8 23  1  0
 10 24  1  0
 10 25  1  0
 10 26  1  0
 11 27  1  0
 11 28  1  0
 11 29  1  0
M  END
>  <score>  (1) 
-7.097

$$$$
=
     RDKit          3D

 29 28  0  0  0  0  0  0  0  0999 V2000
    3.0270   69.4600   67.2380 C   0  0  0  0  0  0  0  0  0  0  0  0
    3.5750   69.2360   66.0250 C   0  0  0  0  0  0  0  0  0  0  0  0
    2.7700   68.9070   64.7910 C   0  0  0  0  0  0  0  0  0  0  0  0
    1.5800   69.4910   67.6160 C   0  0  0  0  0  0  0  0  0  0  0  0
    1.3760   70.5840   68.4970 O   0  0  0  0  0  0  0  0  0  0  0  0
    5.0770   69.2610   65.7520 C   0  0  0  0  0  0  0  0  0  0  0  0
    5.8830   70.5380   66.0430 C   0  0  0  0  0  0  0  0  0  0  0  0
    6.7220   70.4340   67.2900 C   0  0  0  0  0  0  0  0  0  0  0  0
    6.4260   70.8910   68.5240 C   0  0  0  0  0  0  0  0  0  0  0  0
    7.4070   70.7280   69.6560 C   0  0  0  0  0  0  0  0  0  0  0  0
    5.1430   71.5720   68.9120 C   0  0  0  0  0  0  0  0  0  0  0  0
    3.7383   69.6440   68.0566 H   0  0  0  0  0  0  0  0  0  0  0  0
    1.7898   68.5064   65.0887 H   0  0  0  0  0  0  0  0  0  0  0  0
    2.6271   69.8188   64.1926 H   0  0  0  0  0  0  0  0  0  0  0  0
    3.3066   68.1561   64.1926 H   0  0  0  0  0  0  0  0  0  0  0  0
    0.9623   69.6186   66.7148 H   0  0  0  0  0  0  0  0  0  0  0  0
    1.2949   68.5487   68.1067 H   0  0  0  0  0  0  0  0  0  0  0  0
    1.4349   70.2684   69.4335 H   0  0  0  0  0  0  0  0  0  0  0  0
    5.5243   68.4571   66.3550 H   0  0  0  0  0  0  0  0  0  0  0  0
    5.1403   69.1617   64.6583 H   0  0  0  0  0  0  0  0  0  0  0  0
    6.5476   70.7351   65.1889 H   0  0  0  0  0  0  0  0  0  0  0  0
    5.1616   71.3536   66.1992 H   0  0  0  0  0  0  0  0  0  0  0  0
    7.6910   69.9249   67.1812 H   0  0  0  0  0  0  0  0  0  0  0  0
    6.8771   70.8160   70.6159 H   0  0  0  0  0  0  0  0  0  0  0  0
    7.8828   69.7385   69.5892 H   0  0  0  0  0  0  0  0  0  0  0  0
    8.1772   71.5105   69.5892 H   0  0  0  0  0  0  0  0  0  0  0  0
    5.0665   71.6126   70.0086 H   0  0  0  0  0  0  0  0  0  0  0  0
    5.1330   72.5941   68.5056 H   0  0  0  0  0  0  0  0  0  0  0  0
    4.2908   71.0075   68.5056 H   0  0  0  0  0  0  0  0  0  0  0  0
  2  1  2  0
  3  2  1  0
  4  1  1  0
  5  4  1  0
  6  2  1  0
  7  6  1  0
  8  7  1  0
  9  8  2  3
 10  9  1  0
 11  9  1  0
  1 12  1  0
  3 13  1  0
  3 14  1  0
  3 15  1  0
  4 16  1  0
  4 17  1  0
  5 18  1  0
  6 19  1  0
  6 20  1  0
  7 21  1  0
  7 22  1  0
  8 23  1  0
 10 24  1  0
 10 25  1  0
 10 26  1  0
 11 27  1  0
 11 28  1  0
 11 29  1  0
M  END
>  <score>  (2) 
-6.849

$$$$
=
     RDKit          3D

 29 28  0  0  0  0  0  0  0  0999 V2000
    6.1500   70.5210   66.9380 C   0  0  0  0  0  0  0  0  0  0  0  0
    5.0390   69.9340   66.4470 C   0  0  0  0  0  0  0  0  0  0  0  0
    3.7560   69.7850   67.2280 C   0  0  0  0  0  0  0  0  0  0  0  0
    6.3490   71.1740   68.2690 C   0  0  0  0  0  0  0  0  0  0  0  0
    5.8190   72.4880   68.2010 O   0  0  0  0  0  0  0  0  0  0  0  0
    4.9450   69.3250   65.0490 C   0  0  0  0  0  0  0  0  0  0  0  0
    3.8810   68.2560   64.7540 C   0  0  0  0  0  0  0  0  0  0  0  0
    2.8180   68.7310   63.7970 C   0  0  0  0  0  0  0  0  0  0  0  0
    1.4870   68.7850   64.0030 C   0  0  0  0  0  0  0  0  0  0  0  0
    0.5620   69.2610   62.9130 C   0  0  0  0  0  0  0  0  0  0  0  0
    0.7920   68.4120   65.2830 C   0  0  0  0  0  0  0  0  0  0  0  0
    7.0251   70.5192   66.2716 H   0  0  0  0  0  0  0  0  0  0  0  0
    3.9774   69.8107   68.3052 H   0  0  0  0  0  0  0  0  0  0  0  0
    3.0742   70.6100   66.9740 H   0  0  0  0  0  0  0  0  0  0  0  0
    3.2814   68.8257   66.9740 H   0  0  0  0  0  0  0  0  0  0  0  0
    5.8243   70.6006   69.0474 H   0  0  0  0  0  0  0  0  0  0  0  0
    7.4196   71.2083   68.5194 H   0  0  0  0  0  0  0  0  0  0  0  0
    5.6790   72.8352   69.1175 H   0  0  0  0  0  0  0  0  0  0  0  0
    4.7648   70.1556   64.3507 H   0  0  0  0  0  0  0  0  0  0  0  0
    5.8936   68.7781   64.9436 H   0  0  0  0  0  0  0  0  0  0  0  0
    4.3785   67.3775   64.3173 H   0  0  0  0  0  0  0  0  0  0  0  0
    3.3836   68.0158   65.7052 H   0  0  0  0  0  0  0  0  0  0  0  0
    3.1703   69.0745   62.8132 H   0  0  0  0  0  0  0  0  0  0  0  0
   -0.3302   69.7201   63.3638 H   0  0  0  0  0  0  0  0  0  0  0  0
    1.0814   70.0038   62.2897 H   0  0  0  0  0  0  0  0  0  0  0  0
    0.2595   68.4066   62.2897 H   0  0  0  0  0  0  0  0  0  0  0  0
    1.4005   68.7386   66.1392 H   0  0  0  0  0  0  0  0  0  0  0  0
   -0.1912   68.9036   65.3231 H   0  0  0  0  0  0  0  0  0  0  0  0
    0.6583   67.3209   65.3231 H   0  0  0  0  0  0  0  0  0  0  0  0
  2  1  2  0
  3  2  1  0
  4  1  1  0
  5  4  1  0
  6  2  1  0
  7  6  1  0
  8  7  1  0
  9  8  2  3
 10  9  1  0
 11  9  1  0
  1 12  1  0
  3 13  1  0
  3 14  1  0
  3 15  1  0
  4 16  1  0
  4 17  1  0
  5 18  1  0
  6 19  1  0
  6 20  1  0
  7 21  1  0
  7 22  1  0
  8 23  1  0
 10 24  1  0
 10 25  1  0
 10 26  1  0
 11 27  1  0
 11 28  1  0
 11 29  1  0
M  END
>  <score>  (3) 
-6.763

$$$$
=
     RDKit          3D

 29 28  0  0  0  0  0  0  0  0999 V2000
    5.7020   70.4860   67.1940 C   0  0  0  0  0  0  0  0  0  0  0  0
    4.4980   69.8950   67.0440 C   0  0  0  0  0  0  0  0  0  0  0  0
    3.4050   69.9470   68.0830 C   0  0  0  0  0  0  0  0  0  0  0  0
    6.1920   71.3270   68.3300 C   0  0  0  0  0  0  0  0  0  0  0  0
    5.7770   72.6640   68.1020 O   0  0  0  0  0  0  0  0  0  0  0  0
    4.0970   69.0800   65.8160 C   0  0  0  0  0  0  0  0  0  0  0  0
    5.0460   69.0040   64.6090 C   0  0  0  0  0  0  0  0  0  0  0  0
    4.3400   69.1850   63.2910 C   0  0  0  0  0  0  0  0  0  0  0  0
    4.0690   68.2450   62.3630 C   0  0  0  0  0  0  0  0  0  0  0  0
    3.3780   68.6150   61.0760 C   0  0  0  0  0  0  0  0  0  0  0  0
    4.3910   66.7820   62.4920 C   0  0  0  0  0  0  0  0  0  0  0  0
    6.4170   70.3286   66.3730 H   0  0  0  0  0  0  0  0  0  0  0  0
    3.8527   69.9257   69.0875 H   0  0  0  0  0  0  0  0  0  0  0  0
    2.8254   70.8737   67.9594 H   0  0  0  0  0  0  0  0  0  0  0  0
    2.7401   69.0795   67.9594 H   0  0  0  0  0  0  0  0  0  0  0  0
    5.7656   70.9608   69.2756 H   0  0  0  0  0  0  0  0  0  0  0  0
    7.2888   71.2753   68.3959 H   0  0  0  0  0  0  0  0  0  0  0  0
    5.6360   73.1184   68.9702 H   0  0  0  0  0  0  0  0  0  0  0  0
    3.9328   68.0475   66.1581 H   0  0  0  0  0  0  0  0  0  0  0  0
    3.2249   69.6225   65.4222 H   0  0  0  0  0  0  0  0  0  0  0  0
    5.8057   69.7930   64.7106 H   0  0  0  0  0  0  0  0  0  0  0  0
    5.4939   67.9993   64.6063 H   0  0  0  0  0  0  0  0  0  0  0  0
    4.0053   70.2065   63.0574 H   0  0  0  0  0  0  0  0  0  0  0  0
    2.4290   69.1231   61.3023 H   0  0  0  0  0  0  0  0  0  0  0  0
    4.0243   69.2878   60.4931 H   0  0  0  0  0  0  0  0  0  0  0  0
    3.1763   67.7042   60.4931 H   0  0  0  0  0  0  0  0  0  0  0  0
    4.4504   66.5121   63.5567 H   0  0  0  0  0  0  0  0  0  0  0  0
    3.6019   66.1887   62.0068 H   0  0  0  0  0  0  0  0  0  0  0  0
    5.3562   66.5748   62.0068 H   0  0  0  0  0  0  0  0  0  0  0  0
  2  1  2  0
  3  2  1  0
  4  1  1  0
  5  4  1  0
  6  2  1  0
  7  6  1  0
  8  7  1  0
  9  8  2  3
 10  9  1  0
 11  9  1  0
  1 12  1  0
  3 13  1  0
  3 14  1  0
  3 15  1  0
  4 16  1  0
  4 17  1  0
  5 18  1  0
  6 19  1  0
  6 20  1  0
  7 21  1  0
  7 22  1  0
  8 23  1  0
 10 24  1  0
 10 25  1  0
 10 26  1  0
 11 27  1  0
 11 28  1  0
 11 29  1  0
M  END
>  <score>  (4) 
-6.707

$$$$
=
     RDKit          3D

 29 28  0  0  0  0  0  0  0  0999 V2000
    6.0180   70.5240   66.7230 C   0  0  0  0  0  0  0  0  0  0  0  0
    5.0780   69.8700   66.0080 C   0  0  0  0  0  0  0  0  0  0  0  0
    3.7270   69.4830   66.5590 C   0  0  0  0  0  0  0  0  0  0  0  0
    5.9330   71.0380   68.1250 C   0  0  0  0  0  0  0  0  0  0  0  0
    5.7710   72.4460   68.0710 O   0  0  0  0  0  0  0  0  0  0  0  0
    5.2700   69.4190   64.5620 C   0  0  0  0  0  0  0  0  0  0  0  0
    4.1480   68.6470   63.8490 C   0  0  0  0  0  0  0  0  0  0  0  0
    4.4830   67.1950   63.6250 C   0  0  0  0  0  0  0  0  0  0  0  0
    3.8300   66.1150   64.0990 C   0  0  0  0  0  0  0  0  0  0  0  0
    4.3300   64.7250   63.8000 C   0  0  0  0  0  0  0  0  0  0  0  0
    2.5780   66.1540   64.9300 C   0  0  0  0  0  0  0  0  0  0  0  0
    6.9725   70.7024   66.2062 H   0  0  0  0  0  0  0  0  0  0  0  0
    3.7628   69.4932   67.6584 H   0  0  0  0  0  0  0  0  0  0  0  0
    2.9695   70.2003   66.2101 H   0  0  0  0  0  0  0  0  0  0  0  0
    3.4642   68.4735   66.2101 H   0  0  0  0  0  0  0  0  0  0  0  0
    5.0720   70.5833   68.6369 H   0  0  0  0  0  0  0  0  0  0  0  0
    6.8473   70.7814   68.6802 H   0  0  0  0  0  0  0  0  0  0  0  0
    5.7292   72.8089   68.9911 H   0  0  0  0  0  0  0  0  0  0  0  0
    5.4609   70.3250   63.9681 H   0  0  0  0  0  0  0  0  0  0  0  0
    6.0843   68.6826   64.6296 H   0  0  0  0  0  0  0  0  0  0  0  0
    3.2371   68.7060   64.4628 H   0  0  0  0  0  0  0  0  0  0  0  0
    4.0076   69.1087   62.8605 H   0  0  0  0  0  0  0  0  0  0  0  0
    5.3654   66.9921   63.0004 H   0  0  0  0  0  0  0  0  0  0  0  0
    4.5213   64.1932   64.7437 H   0  0  0  0  0  0  0  0  0  0  0  0
    3.5717   64.1796   63.2190 H   0  0  0  0  0  0  0  0  0  0  0  0
    5.2620   64.7876   63.2190 H   0  0  0  0  0  0  0  0  0  0  0  0
    2.8457   66.1457   65.9969 H   0  0  0  0  0  0  0  0  0  0  0  0
    2.0140   67.0701   64.7006 H   0  0  0  0  0  0  0  0  0  0  0  0
    1.9581   65.2747   64.7006 H   0  0  0  0  0  0  0  0  0  0  0  0
  2  1  2  0
  3  2  1  0
  4  1  1  0
  5  4  1  0
  6  2  1  0
  7  6  1  0
  8  7  1  0
  9  8  2  3
 10  9  1  0
 11  9  1  0
  1 12  1  0
  3 13  1  0
  3 14  1  0
  3 15  1  0
  4 16  1  0
  4 17  1  0
  5 18  1  0
  6 19  1  0
  6 20  1  0
  7 21  1  0
  7 22  1  0
  8 23  1  0
 10 24  1  0
 10 25  1  0
 10 26  1  0
 11 27  1  0
 11 28  1  0
 11 29  1  0
M  END
>  <score>  (5) 
-6.706

$$$$
=
     RDKit          3D

 29 28  0  0  0  0  0  0  0  0999 V2000
    4.4920   65.3980   63.6320 C   0  0  0  0  0  0  0  0  0  0  0  0
    3.7120   66.4340   64.0050 C   0  0  0  0  0  0  0  0  0  0  0  0
    2.6140   66.3250   65.0350 C   0  0  0  0  0  0  0  0  0  0  0  0
    4.4940   63.9960   64.1540 C   0  0  0  0  0  0  0  0  0  0  0  0
    4.8780   63.1320   63.0970 O   0  0  0  0  0  0  0  0  0  0  0  0
    3.8250   67.8390   63.4190 C   0  0  0  0  0  0  0  0  0  0  0  0
    3.6090   69.0630   64.3240 C   0  0  0  0  0  0  0  0  0  0  0  0
    4.8410   69.4420   65.1050 C   0  0  0  0  0  0  0  0  0  0  0  0
    4.9250   69.7510   66.4140 C   0  0  0  0  0  0  0  0  0  0  0  0
    6.2450   70.1430   67.0260 C   0  0  0  0  0  0  0  0  0  0  0  0
    3.7770   69.7290   67.3850 C   0  0  0  0  0  0  0  0  0  0  0  0
    5.2234   65.6128   62.8389 H   0  0  0  0  0  0  0  0  0  0  0  0
    3.0515   66.3684   66.0433 H   0  0  0  0  0  0  0  0  0  0  0  0
    1.9064   67.1573   64.9061 H   0  0  0  0  0  0  0  0  0  0  0  0
    2.0839   65.3698   64.9061 H   0  0  0  0  0  0  0  0  0  0  0  0
    5.2092   63.9088   64.9852 H   0  0  0  0  0  0  0  0  0  0  0  0
    3.4935   63.7255   64.5224 H   0  0  0  0  0  0  0  0  0  0  0  0
    5.2499   62.2952   63.4733 H   0  0  0  0  0  0  0  0  0  0  0  0
    4.8375   67.9284   62.9983 H   0  0  0  0  0  0  0  0  0  0  0  0
    2.9820   67.8904   62.7143 H   0  0  0  0  0  0  0  0  0  0  0  0
    3.3161   69.9167   63.6952 H   0  0  0  0  0  0  0  0  0  0  0  0
    2.8260   68.8010   65.0509 H   0  0  0  0  0  0  0  0  0  0  0  0
    5.7839   69.4697   64.5392 H   0  0  0  0  0  0  0  0  0  0  0  0
    6.1624   70.1185   68.1226 H   0  0  0  0  0  0  0  0  0  0  0  0
    7.0238   69.4374   66.7011 H   0  0  0  0  0  0  0  0  0  0  0  0
    6.5124   71.1593   66.7011 H   0  0  0  0  0  0  0  0  0  0  0  0
    4.1666   69.7365   68.4137 H   0  0  0  0  0  0  0  0  0  0  0  0
    3.1451   70.6152   67.2258 H   0  0  0  0  0  0  0  0  0  0  0  0
    3.1795   68.8192   67.2258 H   0  0  0  0  0  0  0  0  0  0  0  0
  2  1  2  0
  3  2  1  0
  4  1  1  0
  5  4  1  0
  6  2  1  0
  7  6  1  0
  8  7  1  0
  9  8  2  3
 10  9  1  0
 11  9  1  0
  1 12  1  0
  3 13  1  0
  3 14  1  0
  3 15  1  0
  4 16  1  0
  4 17  1  0
  5 18  1  0
  6 19  1  0
  6 20  1  0
  7 21  1  0
  7 22  1  0
  8 23  1  0
 10 24  1  0
 10 25  1  0
 10 26  1  0
 11 27  1  0
 11 28  1  0
 11 29  1  0
M  END
>  <score>  (6) 
-6.533

$$$$
=
     RDKit          3D

 29 28  0  0  0  0  0  0  0  0999 V2000
   -0.9800   68.2830   67.1380 C   0  0  0  0  0  0  0  0  0  0  0  0
    0.3110   68.2940   67.5290 C   0  0  0  0  0  0  0  0  0  0  0  0
    0.9060   67.2820   68.4780 C   0  0  0  0  0  0  0  0  0  0  0  0
   -2.0520   67.2980   67.4850 C   0  0  0  0  0  0  0  0  0  0  0  0
   -3.3050   67.9530   67.3790 O   0  0  0  0  0  0  0  0  0  0  0  0
    1.3270   69.3420   67.0810 C   0  0  0  0  0  0  0  0  0  0  0  0
    2.5750   68.9070   66.2960 C   0  0  0  0  0  0  0  0  0  0  0  0
    3.8480   69.5090   66.8320 C   0  0  0  0  0  0  0  0  0  0  0  0
    4.9930   69.7500   66.1610 C   0  0  0  0  0  0  0  0  0  0  0  0
    6.1880   70.3310   66.8710 C   0  0  0  0  0  0  0  0  0  0  0  0
    5.2080   69.4990   64.6950 C   0  0  0  0  0  0  0  0  0  0  0  0
   -1.2853   69.1072   66.4765 H   0  0  0  0  0  0  0  0  0  0  0  0
    0.7201   67.5982   69.5150 H   0  0  0  0  0  0  0  0  0  0  0  0
    0.4415   66.3000   68.3052 H   0  0  0  0  0  0  0  0  0  0  0  0
    1.9900   67.2104   68.3052 H   0  0  0  0  0  0  0  0  0  0  0  0
   -2.0161   66.4474   66.7884 H   0  0  0  0  0  0  0  0  0  0  0  0
   -1.9053   66.9205   68.5077 H   0  0  0  0  0  0  0  0  0  0  0  0
   -3.6585   68.1378   68.2851 H   0  0  0  0  0  0  0  0  0  0  0  0
    0.7860   70.0602   66.4473 H   0  0  0  0  0  0  0  0  0  0  0  0
    1.7394   69.7199   68.0282 H   0  0  0  0  0  0  0  0  0  0  0  0
    2.6569   67.8112   66.3472 H   0  0  0  0  0  0  0  0  0  0  0  0
    2.4533   69.2622   65.2620 H   0  0  0  0  0  0  0  0  0  0  0  0
    3.8430   69.7847   67.8969 H   0  0  0  0  0  0  0  0  0  0  0  0
    6.0393   70.2587   67.9585 H   0  0  0  0  0  0  0  0  0  0  0  0
    7.0913   69.7715   66.5865 H   0  0  0  0  0  0  0  0  0  0  0  0
    6.3059   71.3870   66.5865 H   0  0  0  0  0  0  0  0  0  0  0  0
    5.9186   68.6694   64.5654 H   0  0  0  0  0  0  0  0  0  0  0  0
    4.2493   69.2377   64.2233 H   0  0  0  0  0  0  0  0  0  0  0  0
    5.6135   70.4062   64.2233 H   0  0  0  0  0  0  0  0  0  0  0  0
  2  1  2  0
  3  2  1  0
  4  1  1  0
  5  4  1  0
  6  2  1  0
  7  6  1  0
  8  7  1  0
  9  8  2  3
 10  9  1  0
 11  9  1  0
  1 12  1  0
  3 13  1  0
  3 14  1  0
  3 15  1  0
  4 16  1  0
  4 17  1  0
  5 18  1  0
  6 19  1  0
  6 20  1  0
  7 21  1  0
  7 22  1  0
  8 23  1  0
 10 24  1  0
 10 25  1  0
 10 26  1  0
 11 27  1  0
 11 28  1  0
 11 29  1  0
M  END
>  <score>  (7) 
-6.422

$$$$
=
     RDKit          3D

 29 28  0  0  0  0  0  0  0  0999 V2000
    3.2000   69.5260   67.1490 C   0  0  0  0  0  0  0  0  0  0  0  0
    4.4670   69.7810   66.7600 C   0  0  0  0  0  0  0  0  0  0  0  0
    5.5380   70.3030   67.6870 C   0  0  0  0  0  0  0  0  0  0  0  0
    2.6040   69.6390   68.5160 C   0  0  0  0  0  0  0  0  0  0  0  0
    1.6570   70.6950   68.5000 O   0  0  0  0  0  0  0  0  0  0  0  0
    4.9710   69.5970   65.3300 C   0  0  0  0  0  0  0  0  0  0  0  0
    4.0340   69.0170   64.2600 C   0  0  0  0  0  0  0  0  0  0  0  0
    4.3520   67.5860   63.9110 C   0  0  0  0  0  0  0  0  0  0  0  0
    3.6460   66.4820   64.2280 C   0  0  0  0  0  0  0  0  0  0  0  0
    4.1360   65.1160   63.8210 C   0  0  0  0  0  0  0  0  0  0  0  0
    2.3410   66.4730   64.9750 C   0  0  0  0  0  0  0  0  0  0  0  0
    2.5154   69.1908   66.3559 H   0  0  0  0  0  0  0  0  0  0  0  0
    5.2257   70.1508   68.7307 H   0  0  0  0  0  0  0  0  0  0  0  0
    6.4779   69.7619   67.5029 H   0  0  0  0  0  0  0  0  0  0  0  0
    5.6909   71.3767   67.5029 H   0  0  0  0  0  0  0  0  0  0  0  0
    2.1056   68.6958   68.7842 H   0  0  0  0  0  0  0  0  0  0  0  0
    3.3900   69.8443   69.2577 H   0  0  0  0  0  0  0  0  0  0  0  0
    1.4297   70.9485   69.4296 H   0  0  0  0  0  0  0  0  0  0  0  0
    5.2869   70.5885   64.9734 H   0  0  0  0  0  0  0  0  0  0  0  0
    5.7507   68.8276   65.4310 H   0  0  0  0  0  0  0  0  0  0  0  0
    3.0012   69.0649   64.6355 H   0  0  0  0  0  0  0  0  0  0  0  0
    4.1675   69.6155   63.3468 H   0  0  0  0  0  0  0  0  0  0  0  0
    5.2702   67.4225   63.3277 H   0  0  0  0  0  0  0  0  0  0  0  0
    4.3498   64.5201   64.7206 H   0  0  0  0  0  0  0  0  0  0  0  0
    3.3625   64.6122   63.2227 H   0  0  0  0  0  0  0  0  0  0  0  0
    5.0533   65.2187   63.2227 H   0  0  0  0  0  0  0  0  0  0  0  0
    2.5380   66.4744   66.0572 H   0  0  0  0  0  0  0  0  0  0  0  0
    1.7590   67.3672   64.7071 H   0  0  0  0  0  0  0  0  0  0  0  0
    1.7714   65.5709   64.7071 H   0  0  0  0  0  0  0  0  0  0  0  0
  2  1  2  0
  3  2  1  0
  4  1  1  0
  5  4  1  0
  6  2  1  0
  7  6  1  0
  8  7  1  0
  9  8  2  3
 10  9  1  0
 11  9  1  0
  1 12  1  0
  3 13  1  0
  3 14  1  0
  3 15  1  0
  4 16  1  0
  4 17  1  0
  5 18  1  0
  6 19  1  0
  6 20  1  0
  7 21  1  0
  7 22  1  0
  8 23  1  0
 10 24  1  0
 10 25  1  0
 10 26  1  0
 11 27  1  0
 11 28  1  0
 11 29  1  0
M  END
>  <score>  (8) 
-6.41

$$$$
=
     RDKit          3D

 29 28  0  0  0  0  0  0  0  0999 V2000
   -0.1750   68.1460   66.4370 C   0  0  0  0  0  0  0  0  0  0  0  0
    0.8240   68.2580   65.5370 C   0  0  0  0  0  0  0  0  0  0  0  0
    0.6200   68.7040   64.1100 C   0  0  0  0  0  0  0  0  0  0  0  0
   -1.6250   68.4690   66.2640 C   0  0  0  0  0  0  0  0  0  0  0  0
   -1.8020   69.8550   66.5110 O   0  0  0  0  0  0  0  0  0  0  0  0
    2.2840   67.9250   65.8400 C   0  0  0  0  0  0  0  0  0  0  0  0
    3.3380   69.0430   65.8310 C   0  0  0  0  0  0  0  0  0  0  0  0
    3.5500   69.6650   67.1870 C   0  0  0  0  0  0  0  0  0  0  0  0
    4.7040   70.1200   67.7150 C   0  0  0  0  0  0  0  0  0  0  0  0
    4.7370   70.6850   69.1120 C   0  0  0  0  0  0  0  0  0  0  0  0
    6.0320   70.1370   67.0110 C   0  0  0  0  0  0  0  0  0  0  0  0
    0.1152   67.7674   67.4282 H   0  0  0  0  0  0  0  0  0  0  0  0
    0.1625   69.7043   64.1003 H   0  0  0  0  0  0  0  0  0  0  0  0
    1.5912   68.7400   63.5947 H   0  0  0  0  0  0  0  0  0  0  0  0
   -0.0424   67.9928   63.5947 H   0  0  0  0  0  0  0  0  0  0  0  0
   -1.9400   68.2303   65.2374 H   0  0  0  0  0  0  0  0  0  0  0  0
   -2.2327   67.8772   66.9643 H   0  0  0  0  0  0  0  0  0  0  0  0
   -1.8226   70.0162   67.4876 H   0  0  0  0  0  0  0  0  0  0  0  0
    2.3066   67.4735   66.8428 H   0  0  0  0  0  0  0  0  0  0  0  0
    2.5814   67.2861   64.9954 H   0  0  0  0  0  0  0  0  0  0  0  0
    4.2934   68.6209   65.4860 H   0  0  0  0  0  0  0  0  0  0  0  0
    2.9718   69.8342   65.1603 H   0  0  0  0  0  0  0  0  0  0  0  0
    2.6566   69.7590   67.8218 H   0  0  0  0  0  0  0  0  0  0  0  0
    4.6890   69.8629   69.8412 H   0  0  0  0  0  0  0  0  0  0  0  0
    5.6697   71.2499   69.2571 H   0  0  0  0  0  0  0  0  0  0  0  0
    3.8764   71.3546   69.2571 H   0  0  0  0  0  0  0  0  0  0  0  0
    6.8416   70.1474   67.7556 H   0  0  0  0  0  0  0  0  0  0  0  0
    6.1246   69.2400   66.3811 H   0  0  0  0  0  0  0  0  0  0  0  0
    6.1016   71.0361   66.3811 H   0  0  0  0  0  0  0  0  0  0  0  0
  2  1  2  0
  3  2  1  0
  4  1  1  0
  5  4  1  0
  6  2  1  0
  7  6  1  0
  8  7  1  0
  9  8  2  3
 10  9  1  0
 11  9  1  0
  1 12  1  0
  3 13  1  0
  3 14  1  0
  3 15  1  0
  4 16  1  0
  4 17  1  0
  5 18  1  0
  6 19  1  0
  6 20  1  0
  7 21  1  0
  7 22  1  0
  8 23  1  0
 10 24  1  0
 10 25  1  0
 10 26  1  0
 11 27  1  0
 11 28  1  0
 11 29  1  0
M  END
>  <score>  (9) 
-6.238

$$$$
