=
     RDKit          3D

 32 33  0  0  0  0  0  0  0  0999 V2000
    1.1680   68.8470   66.7620 O   0  0  0  0  0  0  0  0  0  0  0  0
    2.2380   68.9090   66.1680 C   0  0  0  0  0  0  0  0  0  0  0  0
    3.4550   69.4830   66.7990 C   0  0  0  0  0  0  0  0  0  0  0  0
    4.6750   69.5760   66.1190 C   0  0  0  0  0  0  0  0  0  0  0  0
    5.7880   70.1400   66.7520 C   0  0  0  0  0  0  0  0  0  0  0  0
    5.6950   70.6250   68.0630 C   0  0  0  0  0  0  0  0  0  0  0  0
    4.4780   70.5150   68.7440 C   0  0  0  0  0  0  0  0  0  0  0  0
    3.3650   69.9520   68.1160 C   0  0  0  0  0  0  0  0  0  0  0  0
    6.9010   71.1940   68.7490 C   0  0  0  0  0  0  0  0  0  0  0  0
    2.2940   68.4250   64.7370 C   0  0  0  0  0  0  0  0  0  0  0  0
    1.7400   69.0950   63.8740 O   0  0  0  0  0  0  0  0  0  0  0  0
    2.9770   67.1430   64.4210 C   0  0  0  0  0  0  0  0  0  0  0  0
    2.6420   66.0080   65.1710 C   0  0  0  0  0  0  0  0  0  0  0  0
    3.2690   64.7860   64.9210 C   0  0  0  0  0  0  0  0  0  0  0  0
    4.2330   64.6790   63.9130 C   0  0  0  0  0  0  0  0  0  0  0  0
    4.5760   65.8170   63.1730 C   0  0  0  0  0  0  0  0  0  0  0  0
    3.9490   67.0430   63.4210 C   0  0  0  0  0  0  0  0  0  0  0  0
    4.9300   63.3730   63.6630 C   0  0  0  0  0  0  0  0  0  0  0  0
    4.7587   69.2055   65.0866 H   0  0  0  0  0  0  0  0  0  0  0  0
    6.7458   70.2032   66.2148 H   0  0  0  0  0  0  0  0  0  0  0  0
    4.3973   70.8742   69.7806 H   0  0  0  0  0  0  0  0  0  0  0  0
    2.4114   69.8763   68.6590 H   0  0  0  0  0  0  0  0  0  0  0  0
    6.7668   71.1307   69.8389 H   0  0  0  0  0  0  0  0  0  0  0  0
    7.7937   70.6221   68.4556 H   0  0  0  0  0  0  0  0  0  0  0  0
    7.0272   72.2466   68.4556 H   0  0  0  0  0  0  0  0  0  0  0  0
    1.8805   66.0802   65.9615 H   0  0  0  0  0  0  0  0  0  0  0  0
    3.0035   63.9024   65.5200 H   0  0  0  0  0  0  0  0  0  0  0  0
    5.3452   65.7466   62.3898 H   0  0  0  0  0  0  0  0  0  0  0  0
    4.2211   67.9290   62.8286 H   0  0  0  0  0  0  0  0  0  0  0  0
    5.1815   62.9017   64.6246 H   0  0  0  0  0  0  0  0  0  0  0  0
    4.2672   62.7073   63.0906 H   0  0  0  0  0  0  0  0  0  0  0  0
    5.8519   63.5531   63.0906 H   0  0  0  0  0  0  0  0  0  0  0  0
  2  1  2  0
  3  2  1  0
  4  3  2  0
  5  4  1  0
  6  5  2  0
  7  6  1  0
  8  7  2  0
  8  3  1  0
  9  6  1  0
 10  2  1  0
 11 10  2  0
 12 10  1  0
 13 12  2  0
 14 13  1  0
 15 14  2  0
 16 15  1  0
 17 16  2  0
 17 12  1  0
 18 15  1  0
  4 19  1  0
  5 20  1  0
  7 21  1  0
  8 22  1  0
  9 23  1  0
  9 24  1  0
  9 25  1  0
 13 26  1  0
 14 27  1  0
 16 28  1  0
 17 29  1  0
 18 30  1  0
 18 31  1  0
 18 32  1  0
M  END
>  <score>  (1) 
-9.985

$$$$
=
     RDKit          3D

 32 33  0  0  0  0  0  0  0  0999 V2000
    1.7960   69.0860   64.0070 O   0  0  0  0  0  0  0  0  0  0  0  0
    2.3280   68.4190   64.8870 C   0  0  0  0  0  0  0  0  0  0  0  0
    2.9700   67.1100   64.6010 C   0  0  0  0  0  0  0  0  0  0  0  0
    2.6340   65.9450   65.3000 C   0  0  0  0  0  0  0  0  0  0  0  0
    3.2560   64.7330   64.9820 C   0  0  0  0  0  0  0  0  0  0  0  0
    4.2090   64.6670   63.9570 C   0  0  0  0  0  0  0  0  0  0  0  0
    4.5530   65.8370   63.2720 C   0  0  0  0  0  0  0  0  0  0  0  0
    3.9350   67.0490   63.5880 C   0  0  0  0  0  0  0  0  0  0  0  0
    4.8990   63.3720   63.6450 C   0  0  0  0  0  0  0  0  0  0  0  0
    2.2830   68.9370   66.3070 C   0  0  0  0  0  0  0  0  0  0  0  0
    1.2110   68.9170   66.9000 O   0  0  0  0  0  0  0  0  0  0  0  0
    3.5160   69.4870   66.9280 C   0  0  0  0  0  0  0  0  0  0  0  0
    3.4340   69.9930   68.2320 C   0  0  0  0  0  0  0  0  0  0  0  0
    4.5620   70.5360   68.8510 C   0  0  0  0  0  0  0  0  0  0  0  0
    5.7890   70.5720   68.1800 C   0  0  0  0  0  0  0  0  0  0  0  0
    5.8650   70.0770   66.8720 C   0  0  0  0  0  0  0  0  0  0  0  0
    4.7370   69.5330   66.2490 C   0  0  0  0  0  0  0  0  0  0  0  0
    6.9940   71.1830   68.8320 C   0  0  0  0  0  0  0  0  0  0  0  0
    1.8801   65.9824   66.1002 H   0  0  0  0  0  0  0  0  0  0  0  0
    2.9944   63.8231   65.5420 H   0  0  0  0  0  0  0  0  0  0  0  0
    5.3150   65.8024   62.4795 H   0  0  0  0  0  0  0  0  0  0  0  0
    4.2080   67.9615   63.0377 H   0  0  0  0  0  0  0  0  0  0  0  0
    5.1691   62.8651   64.5832 H   0  0  0  0  0  0  0  0  0  0  0  0
    4.2243   62.7283   63.0615 H   0  0  0  0  0  0  0  0  0  0  0  0
    5.8096   63.5730   63.0615 H   0  0  0  0  0  0  0  0  0  0  0  0
    2.4757   69.9624   68.7712 H   0  0  0  0  0  0  0  0  0  0  0  0
    4.4852   70.9377   69.8721 H   0  0  0  0  0  0  0  0  0  0  0  0
    6.8211   70.1164   66.3294 H   0  0  0  0  0  0  0  0  0  0  0  0
    4.8108   69.1410   65.2239 H   0  0  0  0  0  0  0  0  0  0  0  0
    6.8865   71.1285   69.9254 H   0  0  0  0  0  0  0  0  0  0  0  0
    7.8957   70.6332   68.5244 H   0  0  0  0  0  0  0  0  0  0  0  0
    7.0834   72.2353   68.5244 H   0  0  0  0  0  0  0  0  0  0  0  0
  2  1  2  0
  3  2  1  0
  4  3  2  0
  5  4  1  0
  6  5  2  0
  7  6  1  0
  8  7  2  0
  8  3  1  0
  9  6  1  0
 10  2  1  0
 11 10  2  0
 12 10  1  0
 13 12  2  0
 14 13  1  0
 15 14  2  0
 16 15  1  0
 17 16  2  0
 17 12  1  0
 18 15  1  0
  4 19  1  0
  5 20  1  0
  7 21  1  0
  8 22  1  0
  9 23  1  0
  9 24  1  0
  9 25  1  0
 13 26  1  0
 14 27  1  0
 16 28  1  0
 17 29  1  0
 18 30  1  0
 18 31  1  0
 18 32  1  0
M  END
>  <score>  (2) 
-9.907

$$$$
=
     RDKit          3D

 32 33  0  0  0  0  0  0  0  0999 V2000
    1.8990   66.7560   66.1220 O   0  0  0  0  0  0  0  0  0  0  0  0
    1.6350   67.9340   65.9150 C   0  0  0  0  0  0  0  0  0  0  0  0
    1.2700   68.4320   64.5630 C   0  0  0  0  0  0  0  0  0  0  0  0
    2.2080   68.5510   63.5330 C   0  0  0  0  0  0  0  0  0  0  0  0
    1.8110   69.0090   62.2720 C   0  0  0  0  0  0  0  0  0  0  0  0
    0.4730   69.3420   62.0230 C   0  0  0  0  0  0  0  0  0  0  0  0
   -0.4590   69.2360   63.0600 C   0  0  0  0  0  0  0  0  0  0  0  0
   -0.0650   68.7800   64.3200 C   0  0  0  0  0  0  0  0  0  0  0  0
    0.0590   69.8680   60.6800 C   0  0  0  0  0  0  0  0  0  0  0  0
    1.7310   68.9050   67.0690 C   0  0  0  0  0  0  0  0  0  0  0  0
    0.7010   69.2130   67.6570 O   0  0  0  0  0  0  0  0  0  0  0  0
    3.0490   69.4860   67.4350 C   0  0  0  0  0  0  0  0  0  0  0  0
    3.1970   70.0470   68.7100 C   0  0  0  0  0  0  0  0  0  0  0  0
    4.4120   70.6200   69.0930 C   0  0  0  0  0  0  0  0  0  0  0  0
    5.4970   70.6320   68.2100 C   0  0  0  0  0  0  0  0  0  0  0  0
    5.3430   70.0820   66.9320 C   0  0  0  0  0  0  0  0  0  0  0  0
    4.1280   69.5070   66.5460 C   0  0  0  0  0  0  0  0  0  0  0  0
    6.7940   71.2750   68.6090 C   0  0  0  0  0  0  0  0  0  0  0  0
    3.2596   68.2841   63.7143 H   0  0  0  0  0  0  0  0  0  0  0  0
    2.5560   69.1085   61.4689 H   0  0  0  0  0  0  0  0  0  0  0  0
   -1.5085   69.5133   62.8824 H   0  0  0  0  0  0  0  0  0  0  0  0
   -0.8078   68.6936   65.1267 H   0  0  0  0  0  0  0  0  0  0  0  0
   -0.6162   70.7259   60.8145 H   0  0  0  0  0  0  0  0  0  0  0  0
    0.9506   70.1873   60.1205 H   0  0  0  0  0  0  0  0  0  0  0  0
   -0.4609   69.0764   60.1205 H   0  0  0  0  0  0  0  0  0  0  0  0
    2.3516   70.0362   69.4137 H   0  0  0  0  0  0  0  0  0  0  0  0
    4.5162   71.0640   70.0940 H   0  0  0  0  0  0  0  0  0  0  0  0
    6.1853   70.1023   66.2249 H   0  0  0  0  0  0  0  0  0  0  0  0
    4.0211   69.0708   65.5419 H   0  0  0  0  0  0  0  0  0  0  0  0
    6.8638   71.3096   69.7062 H   0  0  0  0  0  0  0  0  0  0  0  0
    7.6331   70.6885   68.2065 H   0  0  0  0  0  0  0  0  0  0  0  0
    6.8352   72.2979   68.2065 H   0  0  0  0  0  0  0  0  0  0  0  0
  2  1  2  0
  3  2  1  0
  4  3  2  0
  5  4  1  0
  6  5  2  0
  7  6  1  0
  8  7  2  0
  8  3  1  0
  9  6  1  0
 10  2  1  0
 11 10  2  0
 12 10  1  0
 13 12  2  0
 14 13  1  0
 15 14  2  0
 16 15  1  0
 17 16  2  0
 17 12  1  0
 18 15  1  0
  4 19  1  0
  5 20  1  0
  7 21  1  0
  8 22  1  0
  9 23  1  0
  9 24  1  0
  9 25  1  0
 13 26  1  0
 14 27  1  0
 16 28  1  0
 17 29  1  0
 18 30  1  0
 18 31  1  0
 18 32  1  0
M  END
>  <score>  (3) 
-9.829

$$$$
=
     RDKit          3D

 32 33  0  0  0  0  0  0  0  0999 V2000
    0.6250   69.2980   67.6290 O   0  0  0  0  0  0  0  0  0  0  0  0
    1.6570   68.9560   67.0640 C   0  0  0  0  0  0  0  0  0  0  0  0
    2.9820   69.5100   67.4450 C   0  0  0  0  0  0  0  0  0  0  0  0
    4.0750   69.4990   66.5700 C   0  0  0  0  0  0  0  0  0  0  0  0
    5.2970   70.0490   66.9710 C   0  0  0  0  0  0  0  0  0  0  0  0
    5.4410   70.6230   68.2400 C   0  0  0  0  0  0  0  0  0  0  0  0
    4.3510   70.6170   69.1160 C   0  0  0  0  0  0  0  0  0  0  0  0
    3.1290   70.0690   68.7210 C   0  0  0  0  0  0  0  0  0  0  0  0
    6.7640   71.1770   68.6770 C   0  0  0  0  0  0  0  0  0  0  0  0
    1.5570   67.9730   65.9200 C   0  0  0  0  0  0  0  0  0  0  0  0
    1.8040   66.7930   66.1430 O   0  0  0  0  0  0  0  0  0  0  0  0
    1.2050   68.4590   64.5610 C   0  0  0  0  0  0  0  0  0  0  0  0
   -0.1270   68.8130   64.3050 C   0  0  0  0  0  0  0  0  0  0  0  0
   -0.5090   69.2580   63.0380 C   0  0  0  0  0  0  0  0  0  0  0  0
    0.4360   69.3670   62.0120 C   0  0  0  0  0  0  0  0  0  0  0  0
    1.7630   69.0010   62.2660 C   0  0  0  0  0  0  0  0  0  0  0  0
    2.1490   68.5540   63.5340 C   0  0  0  0  0  0  0  0  0  0  0  0
    0.0210   69.8160   60.6410 C   0  0  0  0  0  0  0  0  0  0  0  0
    3.9727   69.0580   65.5675 H   0  0  0  0  0  0  0  0  0  0  0  0
    6.1542   70.0304   66.2819 H   0  0  0  0  0  0  0  0  0  0  0  0
    4.4570   71.0469   70.1230 H   0  0  0  0  0  0  0  0  0  0  0  0
    2.2765   70.0763   69.4161 H   0  0  0  0  0  0  0  0  0  0  0  0
    6.8087   71.1957   69.7759 H   0  0  0  0  0  0  0  0  0  0  0  0
    7.5738   70.5424   68.2878 H   0  0  0  0  0  0  0  0  0  0  0  0
    6.8800   72.1993   68.2878 H   0  0  0  0  0  0  0  0  0  0  0  0
   -0.8759   68.7397   65.1074 H   0  0  0  0  0  0  0  0  0  0  0  0
   -1.5587   69.5244   62.8453 H   0  0  0  0  0  0  0  0  0  0  0  0
    2.5095   69.0655   61.4607 H   0  0  0  0  0  0  0  0  0  0  0  0
    3.1965   68.2769   63.7234 H   0  0  0  0  0  0  0  0  0  0  0  0
   -0.7233   70.6212   60.7285 H   0  0  0  0  0  0  0  0  0  0  0  0
    0.9006   70.1875   60.0949 H   0  0  0  0  0  0  0  0  0  0  0  0
   -0.4185   68.9683   60.0949 H   0  0  0  0  0  0  0  0  0  0  0  0
  2  1  2  0
  3  2  1  0
  4  3  2  0
  5  4  1  0
  6  5  2  0
  7  6  1  0
  8  7  2  0
  8  3  1  0
  9  6  1  0
 10  2  1  0
 11 10  2  0
 12 10  1  0
 13 12  2  0
 14 13  1  0
 15 14  2  0
 16 15  1  0
 17 16  2  0
 17 12  1  0
 18 15  1  0
  4 19  1  0
  5 20  1  0
  7 21  1  0
  8 22  1  0
  9 23  1  0
  9 24  1  0
  9 25  1  0
 13 26  1  0
 14 27  1  0
 16 28  1  0
 17 29  1  0
 18 30  1  0
 18 31  1  0
 18 32  1  0
M  END
>  <score>  (4) 
-9.812

$$$$
=
     RDKit          3D

 32 33  0  0  0  0  0  0  0  0999 V2000
    1.5530   67.0540   66.9160 O   0  0  0  0  0  0  0  0  0  0  0  0
    1.9010   68.1270   66.4360 C   0  0  0  0  0  0  0  0  0  0  0  0
    2.2110   68.2780   64.9910 C   0  0  0  0  0  0  0  0  0  0  0  0
    1.2900   68.8120   64.0820 C   0  0  0  0  0  0  0  0  0  0  0  0
    1.6370   68.9500   62.7330 C   0  0  0  0  0  0  0  0  0  0  0  0
    2.9050   68.5680   62.2800 C   0  0  0  0  0  0  0  0  0  0  0  0
    3.8170   68.0200   63.1880 C   0  0  0  0  0  0  0  0  0  0  0  0
    3.4740   67.8800   64.5350 C   0  0  0  0  0  0  0  0  0  0  0  0
    3.2580   68.6820   60.8260 C   0  0  0  0  0  0  0  0  0  0  0  0
    2.0550   69.3110   67.3630 C   0  0  0  0  0  0  0  0  0  0  0  0
    1.0430   69.8930   67.7370 O   0  0  0  0  0  0  0  0  0  0  0  0
    3.4140   69.7600   67.7630 C   0  0  0  0  0  0  0  0  0  0  0  0
    3.6110   70.1870   69.0830 C   0  0  0  0  0  0  0  0  0  0  0  0
    4.8670   70.6350   69.5000 C   0  0  0  0  0  0  0  0  0  0  0  0
    5.9440   70.6520   68.6070 C   0  0  0  0  0  0  0  0  0  0  0  0
    5.7410   70.2380   67.2860 C   0  0  0  0  0  0  0  0  0  0  0  0
    4.4850   69.7890   66.8640 C   0  0  0  0  0  0  0  0  0  0  0  0
    7.2860   71.1610   69.0450 C   0  0  0  0  0  0  0  0  0  0  0  0
    0.2933   69.1233   64.4280 H   0  0  0  0  0  0  0  0  0  0  0  0
    0.9061   69.3627   62.0220 H   0  0  0  0  0  0  0  0  0  0  0  0
    4.8093   67.6976   62.8397 H   0  0  0  0  0  0  0  0  0  0  0  0
    4.2009   67.4542   65.2423 H   0  0  0  0  0  0  0  0  0  0  0  0
    4.3005   69.0187   60.7271 H   0  0  0  0  0  0  0  0  0  0  0  0
    3.1421   67.7008   60.3425 H   0  0  0  0  0  0  0  0  0  0  0  0
    2.5901   69.4101   60.3425 H   0  0  0  0  0  0  0  0  0  0  0  0
    2.7724   70.1694   69.7946 H   0  0  0  0  0  0  0  0  0  0  0  0
    5.0099   70.9762   70.5359 H   0  0  0  0  0  0  0  0  0  0  0  0
    6.5774   70.2658   66.5721 H   0  0  0  0  0  0  0  0  0  0  0  0
    4.3397   69.4587   65.8249 H   0  0  0  0  0  0  0  0  0  0  0  0
    7.3309   71.1780   70.1440 H   0  0  0  0  0  0  0  0  0  0  0  0
    8.0739   70.4993   68.6561 H   0  0  0  0  0  0  0  0  0  0  0  0
    7.4369   72.1788   68.6561 H   0  0  0  0  0  0  0  0  0  0  0  0
  2  1  2  0
  3  2  1  0
  4  3  2  0
  5  4  1  0
  6  5  2  0
  7  6  1  0
  8  7  2  0
  8  3  1  0
  9  6  1  0
 10  2  1  0
 11 10  2  0
 12 10  1  0
 13 12  2  0
 14 13  1  0
 15 14  2  0
 16 15  1  0
 17 16  2  0
 17 12  1  0
 18 15  1  0
  4 19  1  0
  5 20  1  0
  7 21  1  0
  8 22  1  0
  9 23  1  0
  9 24  1  0
  9 25  1  0
 13 26  1  0
 14 27  1  0
 16 28  1  0
 17 29  1  0
 18 30  1  0
 18 31  1  0
 18 32  1  0
M  END
>  <score>  (5) 
-9.549

$$$$
=
     RDKit          3D

 32 33  0  0  0  0  0  0  0  0999 V2000
    2.2470   66.5870   66.3860 O   0  0  0  0  0  0  0  0  0  0  0  0
    1.7340   67.6450   66.0400 C   0  0  0  0  0  0  0  0  0  0  0  0
    0.2680   67.8740   66.1330 C   0  0  0  0  0  0  0  0  0  0  0  0
   -0.5180   67.2840   67.1280 C   0  0  0  0  0  0  0  0  0  0  0  0
   -1.8910   67.5440   67.1830 C   0  0  0  0  0  0  0  0  0  0  0  0
   -2.4920   68.4040   66.2550 C   0  0  0  0  0  0  0  0  0  0  0  0
   -1.7050   68.9800   65.2520 C   0  0  0  0  0  0  0  0  0  0  0  0
   -0.3340   68.7210   65.1940 C   0  0  0  0  0  0  0  0  0  0  0  0
   -3.9720   68.6510   66.2960 C   0  0  0  0  0  0  0  0  0  0  0  0
    2.6250   68.7210   65.4640 C   0  0  0  0  0  0  0  0  0  0  0  0
    2.4930   69.0140   64.2810 O   0  0  0  0  0  0  0  0  0  0  0  0
    3.6530   69.3630   66.3230 C   0  0  0  0  0  0  0  0  0  0  0  0
    4.9410   69.5400   65.8000 C   0  0  0  0  0  0  0  0  0  0  0  0
    5.9450   70.1230   66.5760 C   0  0  0  0  0  0  0  0  0  0  0  0
    5.6730   70.5460   67.8810 C   0  0  0  0  0  0  0  0  0  0  0  0
    4.3890   70.3570   68.4060 C   0  0  0  0  0  0  0  0  0  0  0  0
    3.3810   69.7730   67.6320 C   0  0  0  0  0  0  0  0  0  0  0  0
    6.7580   71.1450   68.7280 C   0  0  0  0  0  0  0  0  0  0  0  0
   -0.0556   66.6146   67.8683 H   0  0  0  0  0  0  0  0  0  0  0  0
   -2.5047   67.0687   67.9624 H   0  0  0  0  0  0  0  0  0  0  0  0
   -2.1688   69.6407   64.5048 H   0  0  0  0  0  0  0  0  0  0  0  0
    0.2770   69.1852   64.4058 H   0  0  0  0  0  0  0  0  0  0  0  0
   -4.3056   68.7067   67.3427 H   0  0  0  0  0  0  0  0  0  0  0  0
   -4.1997   69.5996   65.7877 H   0  0  0  0  0  0  0  0  0  0  0  0
   -4.4954   67.8278   65.7877 H   0  0  0  0  0  0  0  0  0  0  0  0
    5.1625   69.2177   64.7719 H   0  0  0  0  0  0  0  0  0  0  0  0
    6.9548   70.2502   66.1588 H   0  0  0  0  0  0  0  0  0  0  0  0
    4.1708   70.6709   69.4374 H   0  0  0  0  0  0  0  0  0  0  0  0
    2.3740   69.6362   68.0530 H   0  0  0  0  0  0  0  0  0  0  0  0
    6.5107   71.0085   69.7911 H   0  0  0  0  0  0  0  0  0  0  0  0
    7.7132   70.6464   68.5068 H   0  0  0  0  0  0  0  0  0  0  0  0
    6.8451   72.2190   68.5068 H   0  0  0  0  0  0  0  0  0  0  0  0
  2  1  2  0
  3  2  1  0
  4  3  2  0
  5  4  1  0
  6  5  2  0
  7  6  1  0
  8  7  2  0
  8  3  1  0
  9  6  1  0
 10  2  1  0
 11 10  2  0
 12 10  1  0
 13 12  2  0
 14 13  1  0
 15 14  2  0
 16 15  1  0
 17 16  2  0
 17 12  1  0
 18 15  1  0
  4 19  1  0
  5 20  1  0
  7 21  1  0
  8 22  1  0
  9 23  1  0
  9 24  1  0
  9 25  1  0
 13 26  1  0
 14 27  1  0
 16 28  1  0
 17 29  1  0
 18 30  1  0
 18 31  1  0
 18 32  1  0
M  END
>  <score>  (6) 
-9.176

$$$$
=
     RDKit          3D

 32 33  0  0  0  0  0  0  0  0999 V2000
    2.0230   69.9070   68.0660 O   0  0  0  0  0  0  0  0  0  0  0  0
    2.1190   69.0090   67.2380 C   0  0  0  0  0  0  0  0  0  0  0  0
    3.0600   69.0950   66.0910 C   0  0  0  0  0  0  0  0  0  0  0  0
    4.3760   69.5500   66.2370 C   0  0  0  0  0  0  0  0  0  0  0  0
    5.2280   69.5960   65.1280 C   0  0  0  0  0  0  0  0  0  0  0  0
    4.7830   69.1810   63.8670 C   0  0  0  0  0  0  0  0  0  0  0  0
    3.4620   68.7420   63.7230 C   0  0  0  0  0  0  0  0  0  0  0  0
    2.6080   68.6950   64.8270 C   0  0  0  0  0  0  0  0  0  0  0  0
    5.6890   69.2680   62.6750 C   0  0  0  0  0  0  0  0  0  0  0  0
    1.2170   67.8040   67.3770 C   0  0  0  0  0  0  0  0  0  0  0  0
    1.7170   66.7410   67.7240 O   0  0  0  0  0  0  0  0  0  0  0  0
   -0.2280   67.9260   67.0570 C   0  0  0  0  0  0  0  0  0  0  0  0
   -0.6210   68.8810   66.1100 C   0  0  0  0  0  0  0  0  0  0  0  0
   -1.9710   69.0440   65.7890 C   0  0  0  0  0  0  0  0  0  0  0  0
   -2.9450   68.2490   66.4030 C   0  0  0  0  0  0  0  0  0  0  0  0
   -2.5510   67.3050   67.3580 C   0  0  0  0  0  0  0  0  0  0  0  0
   -1.2000   67.1390   67.6820 C   0  0  0  0  0  0  0  0  0  0  0  0
   -4.3980   68.4440   66.0820 C   0  0  0  0  0  0  0  0  0  0  0  0
    4.7403   69.8714   67.2239 H   0  0  0  0  0  0  0  0  0  0  0  0
    6.2583   69.9621   65.2481 H   0  0  0  0  0  0  0  0  0  0  0  0
    3.0940   68.4320   62.7339 H   0  0  0  0  0  0  0  0  0  0  0  0
    1.5737   68.3416   64.7031 H   0  0  0  0  0  0  0  0  0  0  0  0
    6.7310   69.3681   63.0130 H   0  0  0  0  0  0  0  0  0  0  0  0
    5.5861   68.3558   62.0689 H   0  0  0  0  0  0  0  0  0  0  0  0
    5.4144   70.1439   62.0689 H   0  0  0  0  0  0  0  0  0  0  0  0
    0.1377   69.5060   65.6164 H   0  0  0  0  0  0  0  0  0  0  0  0
   -2.2698   69.8015   65.0495 H   0  0  0  0  0  0  0  0  0  0  0  0
   -3.3110   66.6873   67.8589 H   0  0  0  0  0  0  0  0  0  0  0  0
   -0.9023   66.3886   68.4292 H   0  0  0  0  0  0  0  0  0  0  0  0
   -4.9728   68.5211   67.0167 H   0  0  0  0  0  0  0  0  0  0  0  0
   -4.5236   69.3671   65.4970 H   0  0  0  0  0  0  0  0  0  0  0  0
   -4.7625   67.5867   65.4970 H   0  0  0  0  0  0  0  0  0  0  0  0
  2  1  2  0
  3  2  1  0
  4  3  2  0
  5  4  1  0
  6  5  2  0
  7  6  1  0
  8  7  2  0
  8  3  1  0
  9  6  1  0
 10  2  1  0
 11 10  2  0
 12 10  1  0
 13 12  2  0
 14 13  1  0
 15 14  2  0
 16 15  1  0
 17 16  2  0
 17 12  1  0
 18 15  1  0
  4 19  1  0
  5 20  1  0
  7 21  1  0
  8 22  1  0
  9 23  1  0
  9 24  1  0
  9 25  1  0
 13 26  1  0
 14 27  1  0
 16 28  1  0
 17 29  1  0
 18 30  1  0
 18 31  1  0
 18 32  1  0
M  END
>  <score>  (7) 
-8.698

$$$$
=
     RDKit          3D

 32 33  0  0  0  0  0  0  0  0999 V2000
   -0.4680   68.0720   65.2060 O   0  0  0  0  0  0  0  0  0  0  0  0
    0.4730   68.5200   65.8500 C   0  0  0  0  0  0  0  0  0  0  0  0
    1.8090   68.7440   65.2380 C   0  0  0  0  0  0  0  0  0  0  0  0
    2.9300   69.0940   65.9990 C   0  0  0  0  0  0  0  0  0  0  0  0
    4.1690   69.2780   65.3770 C   0  0  0  0  0  0  0  0  0  0  0  0
    4.3070   69.1040   63.9940 C   0  0  0  0  0  0  0  0  0  0  0  0
    3.1800   68.7700   63.2350 C   0  0  0  0  0  0  0  0  0  0  0  0
    1.9410   68.5860   63.8520 C   0  0  0  0  0  0  0  0  0  0  0  0
    5.6300   69.3390   63.3270 C   0  0  0  0  0  0  0  0  0  0  0  0
    0.2660   68.8070   67.3200 C   0  0  0  0  0  0  0  0  0  0  0  0
    0.0440   69.9630   67.6600 O   0  0  0  0  0  0  0  0  0  0  0  0
    0.3730   67.7030   68.3080 C   0  0  0  0  0  0  0  0  0  0  0  0
   -0.7100   66.8250   68.4440 C   0  0  0  0  0  0  0  0  0  0  0  0
   -0.6620   65.7830   69.3720 C   0  0  0  0  0  0  0  0  0  0  0  0
    0.4720   65.5970   70.1690 C   0  0  0  0  0  0  0  0  0  0  0  0
    1.5480   66.4830   70.0400 C   0  0  0  0  0  0  0  0  0  0  0  0
    1.5040   67.5280   69.1120 C   0  0  0  0  0  0  0  0  0  0  0  0
    0.5130   64.4960   71.1880 C   0  0  0  0  0  0  0  0  0  0  0  0
    2.8366   69.2245   67.0872 H   0  0  0  0  0  0  0  0  0  0  0  0
    5.0440   69.5622   65.9800 H   0  0  0  0  0  0  0  0  0  0  0  0
    3.2707   68.6516   62.1452 H   0  0  0  0  0  0  0  0  0  0  0  0
    1.0634   68.3154   63.2465 H   0  0  0  0  0  0  0  0  0  0  0  0
    6.4074   69.4771   64.0929 H   0  0  0  0  0  0  0  0  0  0  0  0
    5.8834   68.4718   62.6995 H   0  0  0  0  0  0  0  0  0  0  0  0
    5.5693   70.2404   62.6995 H   0  0  0  0  0  0  0  0  0  0  0  0
   -1.6034   66.9573   67.8160 H   0  0  0  0  0  0  0  0  0  0  0  0
   -1.5213   65.1043   69.4769 H   0  0  0  0  0  0  0  0  0  0  0  0
    2.4371   66.3559   70.6751 H   0  0  0  0  0  0  0  0  0  0  0  0
    2.3593   68.2128   69.0142 H   0  0  0  0  0  0  0  0  0  0  0  0
    0.4968   64.9307   72.1983 H   0  0  0  0  0  0  0  0  0  0  0  0
   -0.3614   63.8417   71.0563 H   0  0  0  0  0  0  0  0  0  0  0  0
    1.4336   63.9086   71.0563 H   0  0  0  0  0  0  0  0  0  0  0  0
  2  1  2  0
  3  2  1  0
  4  3  2  0
  5  4  1  0
  6  5  2  0
  7  6  1  0
  8  7  2  0
  8  3  1  0
  9  6  1  0
 10  2  1  0
 11 10  2  0
 12 10  1  0
 13 12  2  0
 14 13  1  0
 15 14  2  0
 16 15  1  0
 17 16  2  0
 17 12  1  0
 18 15  1  0
  4 19  1  0
  5 20  1  0
  7 21  1  0
  8 22  1  0
  9 23  1  0
  9 24  1  0
  9 25  1  0
 13 26  1  0
 14 27  1  0
 16 28  1  0
 17 29  1  0
 18 30  1  0
 18 31  1  0
 18 32  1  0
M  END
>  <score>  (8) 
-8.485

$$$$
=
     RDKit          3D

 32 33  0  0  0  0  0  0  0  0999 V2000
    0.2860   67.7410   66.2820 O   0  0  0  0  0  0  0  0  0  0  0  0
    0.6790   68.0250   67.4080 C   0  0  0  0  0  0  0  0  0  0  0  0
    0.6320   67.0470   68.5260 C   0  0  0  0  0  0  0  0  0  0  0  0
    1.7690   66.7080   69.2690 C   0  0  0  0  0  0  0  0  0  0  0  0
    1.6690   65.7950   70.3230 C   0  0  0  0  0  0  0  0  0  0  0  0
    0.4370   65.2180   70.6550 C   0  0  0  0  0  0  0  0  0  0  0  0
   -0.6940   65.5470   69.8990 C   0  0  0  0  0  0  0  0  0  0  0  0
   -0.5980   66.4590   68.8450 C   0  0  0  0  0  0  0  0  0  0  0  0
    0.3430   64.2100   71.7620 C   0  0  0  0  0  0  0  0  0  0  0  0
    1.1830   69.4270   67.6600 C   0  0  0  0  0  0  0  0  0  0  0  0
    0.3600   70.3140   67.8580 O   0  0  0  0  0  0  0  0  0  0  0  0
    2.6430   69.7020   67.6240 C   0  0  0  0  0  0  0  0  0  0  0  0
    3.2380   70.2840   68.7510 C   0  0  0  0  0  0  0  0  0  0  0  0
    4.6030   70.5770   68.7560 C   0  0  0  0  0  0  0  0  0  0  0  0
    5.3940   70.2840   67.6400 C   0  0  0  0  0  0  0  0  0  0  0  0
    4.7950   69.7140   66.5110 C   0  0  0  0  0  0  0  0  0  0  0  0
    3.4280   69.4200   66.5010 C   0  0  0  0  0  0  0  0  0  0  0  0
    6.8560   70.6260   67.6330 C   0  0  0  0  0  0  0  0  0  0  0  0
    2.7413   67.1601   69.0235 H   0  0  0  0  0  0  0  0  0  0  0  0
    2.5678   65.5270   70.8977 H   0  0  0  0  0  0  0  0  0  0  0  0
   -1.6637   65.0850   70.1360 H   0  0  0  0  0  0  0  0  0  0  0  0
   -1.4945   66.7168   68.2620 H   0  0  0  0  0  0  0  0  0  0  0  0
    0.3911   64.7256   72.7325 H   0  0  0  0  0  0  0  0  0  0  0  0
   -0.6098   63.6660   71.6826 H   0  0  0  0  0  0  0  0  0  0  0  0
    1.1788   63.4992   71.6826 H   0  0  0  0  0  0  0  0  0  0  0  0
    2.6264   70.5113   69.6366 H   0  0  0  0  0  0  0  0  0  0  0  0
    5.0593   71.0411   69.6428 H   0  0  0  0  0  0  0  0  0  0  0  0
    5.4056   69.4951   65.6226 H   0  0  0  0  0  0  0  0  0  0  0  0
    2.9697   68.9668   65.6096 H   0  0  0  0  0  0  0  0  0  0  0  0
    7.2177   70.7106   68.6684 H   0  0  0  0  0  0  0  0  0  0  0  0
    7.4152   69.8344   67.1128 H   0  0  0  0  0  0  0  0  0  0  0  0
    7.0061   71.5835   67.1128 H   0  0  0  0  0  0  0  0  0  0  0  0
  2  1  2  0
  3  2  1  0
  4  3  2  0
  5  4  1  0
  6  5  2  0
  7  6  1  0
  8  7  2  0
  8  3  1  0
  9  6  1  0
 10  2  1  0
 11 10  2  0
 12 10  1  0
 13 12  2  0
 14 13  1  0
 15 14  2  0
 16 15  1  0
 17 16  2  0
 17 12  1  0
 18 15  1  0
  4 19  1  0
  5 20  1  0
  7 21  1  0
  8 22  1  0
  9 23  1  0
  9 24  1  0
  9 25  1  0
 13 26  1  0
 14 27  1  0
 16 28  1  0
 17 29  1  0
 18 30  1  0
 18 31  1  0
 18 32  1  0
M  END
>  <score>  (9) 
-8.229

$$$$
