=
     RDKit          3D

 50 52  0  0  0  0  0  0  0  0999 V2000
    0.2770   67.0240   68.0330 N   0  0  0  0  0  4  0  0  0  0  0  0
   -0.4830   67.2480   66.7390 C   0  0  0  0  0  0  0  0  0  0  0  0
    0.4100   67.9140   65.6890 C   0  0  0  0  0  0  0  0  0  0  0  0
    1.9050   67.7550   65.9990 C   0  0  0  0  0  0  0  0  0  0  0  0
    2.2090   68.4210   67.3560 C   0  0  0  0  0  0  0  0  0  0  0  0
    1.0980   68.2300   68.3850 C   0  0  0  0  0  0  0  0  0  0  0  0
    2.8640   68.2690   64.9280 C   0  0  0  0  0  0  0  0  0  0  0  0
    4.0180   69.0100   65.2300 C   0  0  0  0  0  0  0  0  0  0  0  0
    4.8730   69.4590   64.2150 C   0  0  0  0  0  0  0  0  0  0  0  0
    4.5880   69.1710   62.8850 C   0  0  0  0  0  0  0  0  0  0  0  0
    3.4540   68.4390   62.5570 C   0  0  0  0  0  0  0  0  0  0  0  0
    2.6010   67.9910   63.5700 C   0  0  0  0  0  0  0  0  0  0  0  0
    5.6420   69.7240   61.6440 Cl  0  0  0  0  0  0  0  0  0  0  0  0
    2.1210   66.3360   66.1660 O   0  0  0  0  0  0  0  0  0  0  0  0
   -0.6170   66.5610   69.1580 C   0  0  0  0  0  0  0  0  0  0  0  0
    0.2120   66.2010   70.3960 C   0  0  0  0  0  0  0  0  0  0  0  0
    1.4240   65.3290   70.0490 C   0  0  0  0  0  0  0  0  0  0  0  0
    1.3160   63.9580   70.7000 C   0  0  0  0  0  0  0  0  0  0  0  0
    0.2340   63.5460   71.1240 O   0  0  0  0  0  0  0  0  0  0  0  0
    6.0140   60.9090   71.1850 F   0  0  0  0  0  0  0  0  0  0  0  0
    4.8900   61.6270   71.0740 C   0  0  0  0  0  0  0  0  0  0  0  0
    3.6640   61.0260   71.3380 C   0  0  0  0  0  0  0  0  0  0  0  0
    2.4850   61.7700   71.2230 C   0  0  0  0  0  0  0  0  0  0  0  0
    2.5420   63.1180   70.8430 C   0  0  0  0  0  0  0  0  0  0  0  0
    3.7890   63.7080   70.5760 C   0  0  0  0  0  0  0  0  0  0  0  0
    4.9630   62.9610   70.6940 C   0  0  0  0  0  0  0  0  0  0  0  0
    0.9354   66.2468   67.8800 H   0  0  0  0  0  0  0  0  0  0  0  0
   -0.8308   66.2784   66.3532 H   0  0  0  0  0  0  0  0  0  0  0  0
   -1.3379   67.9093   66.9436 H   0  0  0  0  0  0  0  0  0  0  0  0
    0.2028   67.4578   64.7098 H   0  0  0  0  0  0  0  0  0  0  0  0
    0.1818   68.9901   65.6917 H   0  0  0  0  0  0  0  0  0  0  0  0
    3.1359   67.9863   67.7583 H   0  0  0  0  0  0  0  0  0  0  0  0
    2.3025   69.5019   67.1746 H   0  0  0  0  0  0  0  0  0  0  0  0
    1.5435   68.0898   69.3809 H   0  0  0  0  0  0  0  0  0  0  0  0
    0.4512   69.1197   68.3887 H   0  0  0  0  0  0  0  0  0  0  0  0
    4.2542   69.2414   66.2791 H   0  0  0  0  0  0  0  0  0  0  0  0
    5.7712   70.0403   64.4707 H   0  0  0  0  0  0  0  0  0  0  0  0
    3.2280   68.2127   61.5045 H   0  0  0  0  0  0  0  0  0  0  0  0
    1.7062   67.4097   63.3027 H   0  0  0  0  0  0  0  0  0  0  0  0
    2.1541   66.1186   67.1313 H   0  0  0  0  0  0  0  0  0  0  0  0
   -1.3196   67.3671   69.4159 H   0  0  0  0  0  0  0  0  0  0  0  0
   -1.1662   65.6669   68.8280 H   0  0  0  0  0  0  0  0  0  0  0  0
    0.5671   67.1297   70.8666 H   0  0  0  0  0  0  0  0  0  0  0  0
   -0.4323   65.6269   71.0781 H   0  0  0  0  0  0  0  0  0  0  0  0
    1.4769   65.2053   68.9573 H   0  0  0  0  0  0  0  0  0  0  0  0
    2.3308   65.8246   70.4260 H   0  0  0  0  0  0  0  0  0  0  0  0
    3.6215   59.9681   71.6365 H   0  0  0  0  0  0  0  0  0  0  0  0
    1.5136   61.2974   71.4307 H   0  0  0  0  0  0  0  0  0  0  0  0
    3.8407   64.7640   70.2724 H   0  0  0  0  0  0  0  0  0  0  0  0
    5.9384   63.4257   70.4875 H   0  0  0  0  0  0  0  0  0  0  0  0
  2  1  1  0
  3  2  1  0
  4  3  1  0
  5  4  1  0
  6  5  1  0
  6  1  1  0
  7  4  1  0
  8  7  2  0
  9  8  1  0
 10  9  2  0
 11 10  1  0
 12 11  2  0
 12  7  1  0
 13 10  1  0
 14  4  1  0
 15  1  1  0
 16 15  1  0
 17 16  1  0
 18 17  1  0
 19 18  2  0
 21 20  1  0
 22 21  2  0
 23 22  1  0
 24 18  1  0
 24 23  2  0
 25 24  1  0
 26 25  2  0
 26 21  1  0
  1 27  1  0
  2 28  1  0
  2 29  1  0
  3 30  1  0
  3 31  1  0
  5 32  1  0
  5 33  1  0
  6 34  1  0
  6 35  1  0
  8 36  1  0
  9 37  1  0
 11 38  1  0
 12 39  1  0
 14 40  1  0
 15 41  1  0
 15 42  1  0
 16 43  1  0
 16 44  1  0
 17 45  1  0
 17 46  1  0
 22 47  1  0
 23 48  1  0
 25 49  1  0
 26 50  1  0
M  CHG  1   1   1
M  END
>  <score>  (1) 
-9.727

$$$$
=
     RDKit          3D

 50 52  0  0  0  0  0  0  0  0999 V2000
    1.1700   65.4480   70.5330 N   0  0  0  0  0  4  0  0  0  0  0  0
   -0.0410   64.8030   69.8840 C   0  0  0  0  0  0  0  0  0  0  0  0
   -0.2690   63.3920   70.4310 C   0  0  0  0  0  0  0  0  0  0  0  0
    0.4310   63.1610   71.7770 C   0  0  0  0  0  0  0  0  0  0  0  0
    1.9510   63.3460   71.5900 C   0  0  0  0  0  0  0  0  0  0  0  0
    2.3070   64.4730   70.6230 C   0  0  0  0  0  0  0  0  0  0  0  0
    0.1390   61.8260   72.4580 C   0  0  0  0  0  0  0  0  0  0  0  0
   -1.1070   61.5160   73.0280 C   0  0  0  0  0  0  0  0  0  0  0  0
   -1.3330   60.2760   73.6380 C   0  0  0  0  0  0  0  0  0  0  0  0
   -0.3180   59.3260   73.6840 C   0  0  0  0  0  0  0  0  0  0  0  0
    0.9240   59.6040   73.1260 C   0  0  0  0  0  0  0  0  0  0  0  0
    1.1490   60.8420   72.5180 C   0  0  0  0  0  0  0  0  0  0  0  0
   -0.6020   57.8050   74.4330 Cl  0  0  0  0  0  0  0  0  0  0  0  0
   -0.0210   64.2260   72.6420 O   0  0  0  0  0  0  0  0  0  0  0  0
    1.5530   66.7530   69.8780 C   0  0  0  0  0  0  0  0  0  0  0  0
    0.5130   67.1560   68.8260 C   0  0  0  0  0  0  0  0  0  0  0  0
    1.1610   67.6790   67.5400 C   0  0  0  0  0  0  0  0  0  0  0  0
    1.4820   69.1630   67.6530 C   0  0  0  0  0  0  0  0  0  0  0  0
    0.5780   69.9990   67.7060 O   0  0  0  0  0  0  0  0  0  0  0  0
    6.8720   70.7590   67.6040 F   0  0  0  0  0  0  0  0  0  0  0  0
    5.5870   70.3840   67.6250 C   0  0  0  0  0  0  0  0  0  0  0  0
    4.8350   70.5780   68.7780 C   0  0  0  0  0  0  0  0  0  0  0  0
    3.4930   70.1870   68.8080 C   0  0  0  0  0  0  0  0  0  0  0  0
    2.9080   69.6030   67.6750 C   0  0  0  0  0  0  0  0  0  0  0  0
    3.6840   69.4110   66.5200 C   0  0  0  0  0  0  0  0  0  0  0  0
    5.0230   69.8040   66.4960 C   0  0  0  0  0  0  0  0  0  0  0  0
    0.9129   65.7011   71.4978 H   0  0  0  0  0  0  0  0  0  0  0  0
   -0.9299   65.4171   70.0907 H   0  0  0  0  0  0  0  0  0  0  0  0
    0.1363   64.7348   68.8005 H   0  0  0  0  0  0  0  0  0  0  0  0
   -1.3497   63.2362   70.5645 H   0  0  0  0  0  0  0  0  0  0  0  0
    0.1568   62.6812   69.7075 H   0  0  0  0  0  0  0  0  0  0  0  0
    2.3985   63.5715   72.5692 H   0  0  0  0  0  0  0  0  0  0  0  0
    2.3429   62.4120   71.1609 H   0  0  0  0  0  0  0  0  0  0  0  0
    3.2059   64.9936   70.9849 H   0  0  0  0  0  0  0  0  0  0  0  0
    2.4988   64.0479   69.6268 H   0  0  0  0  0  0  0  0  0  0  0  0
   -1.9176   62.2588   72.9946 H   0  0  0  0  0  0  0  0  0  0  0  0
   -2.3146   60.0529   74.0814 H   0  0  0  0  0  0  0  0  0  0  0  0
    1.7266   58.8527   73.1627 H   0  0  0  0  0  0  0  0  0  0  0  0
    2.1341   61.0540   72.0769 H   0  0  0  0  0  0  0  0  0  0  0  0
    0.0941   63.9548   73.5871 H   0  0  0  0  0  0  0  0  0  0  0  0
    1.6134   67.5385   70.6457 H   0  0  0  0  0  0  0  0  0  0  0  0
    2.5273   66.6281   69.3829 H   0  0  0  0  0  0  0  0  0  0  0  0
   -0.1013   66.2771   68.5807 H   0  0  0  0  0  0  0  0  0  0  0  0
   -0.0979   67.9669   69.2494 H   0  0  0  0  0  0  0  0  0  0  0  0
    2.0919   67.1230   67.3548 H   0  0  0  0  0  0  0  0  0  0  0  0
    0.4542   67.5364   66.7093 H   0  0  0  0  0  0  0  0  0  0  0  0
    5.2949   71.0382   69.6650 H   0  0  0  0  0  0  0  0  0  0  0  0
    2.8963   70.3373   69.7198 H   0  0  0  0  0  0  0  0  0  0  0  0
    3.2338   68.9483   65.6294 H   0  0  0  0  0  0  0  0  0  0  0  0
    5.6275   69.6554   65.5891 H   0  0  0  0  0  0  0  0  0  0  0  0
  2  1  1  0
  3  2  1  0
  4  3  1  0
  5  4  1  0
  6  5  1  0
  6  1  1  0
  7  4  1  0
  8  7  2  0
  9  8  1  0
 10  9  2  0
 11 10  1  0
 12 11  2  0
 12  7  1  0
 13 10  1  0
 14  4  1  0
 15  1  1  0
 16 15  1  0
 17 16  1  0
 18 17  1  0
 19 18  2  0
 21 20  1  0
 22 21  2  0
 23 22  1  0
 24 18  1  0
 24 23  2  0
 25 24  1  0
 26 25  2  0
 26 21  1  0
  1 27  1  0
  2 28  1  0
  2 29  1  0
  3 30  1  0
  3 31  1  0
  5 32  1  0
  5 33  1  0
  6 34  1  0
  6 35  1  0
  8 36  1  0
  9 37  1  0
 11 38  1  0
 12 39  1  0
 14 40  1  0
 15 41  1  0
 15 42  1  0
 16 43  1  0
 16 44  1  0
 17 45  1  0
 17 46  1  0
 22 47  1  0
 23 48  1  0
 25 49  1  0
 26 50  1  0
M  CHG  1   1   1
M  END
>  <score>  (2) 
-9.705

$$$$
=
     RDKit          3D

 50 52  0  0  0  0  0  0  0  0999 V2000
    0.7860   65.4550   70.0380 N   0  0  0  0  0  4  0  0  0  0  0  0
    2.2740   65.2290   70.2270 C   0  0  0  0  0  0  0  0  0  0  0  0
    2.5390   63.9220   70.9770 C   0  0  0  0  0  0  0  0  0  0  0  0
    1.3430   62.9600   70.9270 C   0  0  0  0  0  0  0  0  0  0  0  0
    0.1270   63.6390   71.5910 C   0  0  0  0  0  0  0  0  0  0  0  0
    0.0350   65.1340   71.2970 C   0  0  0  0  0  0  0  0  0  0  0  0
    1.5760   61.5780   71.5330 C   0  0  0  0  0  0  0  0  0  0  0  0
    2.6790   60.7750   71.2000 C   0  0  0  0  0  0  0  0  0  0  0  0
    2.8570   59.5150   71.7840 C   0  0  0  0  0  0  0  0  0  0  0  0
    1.9360   59.0400   72.7110 C   0  0  0  0  0  0  0  0  0  0  0  0
    0.8360   59.8140   73.0620 C   0  0  0  0  0  0  0  0  0  0  0  0
    0.6600   61.0720   72.4780 C   0  0  0  0  0  0  0  0  0  0  0  0
    2.1590   57.4930   73.4260 Cl  0  0  0  0  0  0  0  0  0  0  0  0
    1.0260   62.8020   69.5270 O   0  0  0  0  0  0  0  0  0  0  0  0
    0.4720   66.8250   69.4880 C   0  0  0  0  0  0  0  0  0  0  0  0
    1.5060   67.2350   68.4340 C   0  0  0  0  0  0  0  0  0  0  0  0
    1.3720   68.7080   68.0310 C   0  0  0  0  0  0  0  0  0  0  0  0
    2.4430   69.0990   67.0220 C   0  0  0  0  0  0  0  0  0  0  0  0
    2.2860   68.8760   65.8200 O   0  0  0  0  0  0  0  0  0  0  0  0
    7.2520   71.4670   68.7160 F   0  0  0  0  0  0  0  0  0  0  0  0
    6.1020   70.9070   68.3220 C   0  0  0  0  0  0  0  0  0  0  0  0
    5.0240   70.8640   69.1990 C   0  0  0  0  0  0  0  0  0  0  0  0
    3.8200   70.2780   68.7940 C   0  0  0  0  0  0  0  0  0  0  0  0
    3.7030   69.7390   67.5060 C   0  0  0  0  0  0  0  0  0  0  0  0
    4.8020   69.7890   66.6330 C   0  0  0  0  0  0  0  0  0  0  0  0
    6.0020   70.3750   67.0430 C   0  0  0  0  0  0  0  0  0  0  0  0
    0.4575   64.7982   69.3157 H   0  0  0  0  0  0  0  0  0  0  0  0
    2.7589   65.1825   69.2408 H   0  0  0  0  0  0  0  0  0  0  0  0
    2.6827   66.0616   70.8184 H   0  0  0  0  0  0  0  0  0  0  0  0
    3.4096   63.4257   70.5234 H   0  0  0  0  0  0  0  0  0  0  0  0
    2.7202   64.1741   72.0323 H   0  0  0  0  0  0  0  0  0  0  0  0
   -0.7885   63.1536   71.2219 H   0  0  0  0  0  0  0  0  0  0  0  0
    0.2456   63.5277   72.6789 H   0  0  0  0  0  0  0  0  0  0  0  0
   -1.0208   65.4171   71.1739 H   0  0  0  0  0  0  0  0  0  0  0  0
    0.4757   65.6951   72.1342 H   0  0  0  0  0  0  0  0  0  0  0  0
    3.4146   61.1417   70.4689 H   0  0  0  0  0  0  0  0  0  0  0  0
    3.7266   58.9001   71.5091 H   0  0  0  0  0  0  0  0  0  0  0  0
    0.1075   59.4385   73.7957 H   0  0  0  0  0  0  0  0  0  0  0  0
   -0.2117   61.6800   72.7618 H   0  0  0  0  0  0  0  0  0  0  0  0
    0.1437   62.3622   69.4360 H   0  0  0  0  0  0  0  0  0  0  0  0
   -0.5267   66.8090   69.0272 H   0  0  0  0  0  0  0  0  0  0  0  0
    0.4999   67.5523   70.3127 H   0  0  0  0  0  0  0  0  0  0  0  0
    2.5135   67.0704   68.8438 H   0  0  0  0  0  0  0  0  0  0  0  0
    1.3330   66.6231   67.5364 H   0  0  0  0  0  0  0  0  0  0  0  0
    0.3803   68.8693   67.5832 H   0  0  0  0  0  0  0  0  0  0  0  0
    1.4954   69.3292   68.9304 H   0  0  0  0  0  0  0  0  0  0  0  0
    5.1176   71.2898   70.2089 H   0  0  0  0  0  0  0  0  0  0  0  0
    2.9659   70.2404   69.4861 H   0  0  0  0  0  0  0  0  0  0  0  0
    4.7175   69.3647   65.6216 H   0  0  0  0  0  0  0  0  0  0  0  0
    6.8616   70.4148   66.3577 H   0  0  0  0  0  0  0  0  0  0  0  0
  2  1  1  0
  3  2  1  0
  4  3  1  0
  5  4  1  0
  6  5  1  0
  6  1  1  0
  7  4  1  0
  8  7  2  0
  9  8  1  0
 10  9  2  0
 11 10  1  0
 12 11  2  0
 12  7  1  0
 13 10  1  0
 14  4  1  0
 15  1  1  0
 16 15  1  0
 17 16  1  0
 18 17  1  0
 19 18  2  0
 21 20  1  0
 22 21  2  0
 23 22  1  0
 24 18  1  0
 24 23  2  0
 25 24  1  0
 26 25  2  0
 26 21  1  0
  1 27  1  0
  2 28  1  0
  2 29  1  0
  3 30  1  0
  3 31  1  0
  5 32  1  0
  5 33  1  0
  6 34  1  0
  6 35  1  0
  8 36  1  0
  9 37  1  0
 11 38  1  0
 12 39  1  0
 14 40  1  0
 15 41  1  0
 15 42  1  0
 16 43  1  0
 16 44  1  0
 17 45  1  0
 17 46  1  0
 22 47  1  0
 23 48  1  0
 25 49  1  0
 26 50  1  0
M  CHG  1   1   1
M  END
>  <score>  (3) 
-9.652

$$$$
=
     RDKit          3D

 50 52  0  0  0  0  0  0  0  0999 V2000
    0.7910   65.4060   70.0590 N   0  0  0  0  0  4  0  0  0  0  0  0
    2.2810   65.1920   70.2470 C   0  0  0  0  0  0  0  0  0  0  0  0
    2.5570   63.8810   70.9880 C   0  0  0  0  0  0  0  0  0  0  0  0
    1.3690   62.9100   70.9300 C   0  0  0  0  0  0  0  0  0  0  0  0
    0.1460   63.5730   71.5970 C   0  0  0  0  0  0  0  0  0  0  0  0
    0.0420   65.0690   71.3150 C   0  0  0  0  0  0  0  0  0  0  0  0
    1.6140   61.5250   71.5250 C   0  0  0  0  0  0  0  0  0  0  0  0
    2.6940   60.7110   71.1450 C   0  0  0  0  0  0  0  0  0  0  0  0
    2.8830   59.4490   71.7220 C   0  0  0  0  0  0  0  0  0  0  0  0
    1.9980   58.9830   72.6880 C   0  0  0  0  0  0  0  0  0  0  0  0
    0.9220   59.7680   73.0850 C   0  0  0  0  0  0  0  0  0  0  0  0
    0.7340   61.0280   72.5090 C   0  0  0  0  0  0  0  0  0  0  0  0
    2.2360   57.4340   73.3920 Cl  0  0  0  0  0  0  0  0  0  0  0  0
    1.0550   62.7590   69.5280 O   0  0  0  0  0  0  0  0  0  0  0  0
    0.4660   66.7780   69.5190 C   0  0  0  0  0  0  0  0  0  0  0  0
    1.5200   67.2220   68.5000 C   0  0  0  0  0  0  0  0  0  0  0  0
    1.2870   68.6550   68.0090 C   0  0  0  0  0  0  0  0  0  0  0  0
    2.5760   69.4630   68.0440 C   0  0  0  0  0  0  0  0  0  0  0  0
    2.8890   70.1050   69.0490 O   0  0  0  0  0  0  0  0  0  0  0  0
    5.7720   69.5040   63.4190 F   0  0  0  0  0  0  0  0  0  0  0  0
    5.0190   69.5000   64.5260 C   0  0  0  0  0  0  0  0  0  0  0  0
    5.5710   69.9140   65.7330 C   0  0  0  0  0  0  0  0  0  0  0  0
    4.7900   69.9100   66.8930 C   0  0  0  0  0  0  0  0  0  0  0  0
    3.4540   69.4910   66.8370 C   0  0  0  0  0  0  0  0  0  0  0  0
    2.9130   69.0730   65.6100 C   0  0  0  0  0  0  0  0  0  0  0  0
    3.6970   69.0790   64.4540 C   0  0  0  0  0  0  0  0  0  0  0  0
    0.4682   64.7516   69.3321 H   0  0  0  0  0  0  0  0  0  0  0  0
    2.7668   65.1571   69.2607 H   0  0  0  0  0  0  0  0  0  0  0  0
    2.6822   66.0239   70.8445 H   0  0  0  0  0  0  0  0  0  0  0  0
    3.4319   63.3953   70.5312 H   0  0  0  0  0  0  0  0  0  0  0  0
    2.7360   64.1265   72.0452 H   0  0  0  0  0  0  0  0  0  0  0  0
   -0.7646   63.0829   71.2221 H   0  0  0  0  0  0  0  0  0  0  0  0
    0.2632   63.4537   72.6842 H   0  0  0  0  0  0  0  0  0  0  0  0
   -1.0160   65.3445   71.1936 H   0  0  0  0  0  0  0  0  0  0  0  0
    0.4777   65.6271   72.1569 H   0  0  0  0  0  0  0  0  0  0  0  0
    3.4015   61.0701   70.3831 H   0  0  0  0  0  0  0  0  0  0  0  0
    3.7335   58.8249   71.4103 H   0  0  0  0  0  0  0  0  0  0  0  0
    0.2215   59.3996   73.8489 H   0  0  0  0  0  0  0  0  0  0  0  0
   -0.1183   61.6449   72.8300 H   0  0  0  0  0  0  0  0  0  0  0  0
    0.1669   62.3319   69.4329 H   0  0  0  0  0  0  0  0  0  0  0  0
   -0.5192   66.7498   69.0306 H   0  0  0  0  0  0  0  0  0  0  0  0
    0.4575   67.4940   70.3540 H   0  0  0  0  0  0  0  0  0  0  0  0
    2.5126   67.1664   68.9707 H   0  0  0  0  0  0  0  0  0  0  0  0
    1.4499   66.5526   67.6300 H   0  0  0  0  0  0  0  0  0  0  0  0
    0.9105   68.6239   66.9759 H   0  0  0  0  0  0  0  0  0  0  0  0
    0.5546   69.1370   68.6733 H   0  0  0  0  0  0  0  0  0  0  0  0
    6.6195   70.2439   65.7754 H   0  0  0  0  0  0  0  0  0  0  0  0
    5.2245   70.2358   67.8496 H   0  0  0  0  0  0  0  0  0  0  0  0
    1.8661   68.7391   65.5592 H   0  0  0  0  0  0  0  0  0  0  0  0
    3.2709   68.7528   63.4938 H   0  0  0  0  0  0  0  0  0  0  0  0
  2  1  1  0
  3  2  1  0
  4  3  1  0
  5  4  1  0
  6  5  1  0
  6  1  1  0
  7  4  1  0
  8  7  2  0
  9  8  1  0
 10  9  2  0
 11 10  1  0
 12 11  2  0
 12  7  1  0
 13 10  1  0
 14  4  1  0
 15  1  1  0
 16 15  1  0
 17 16  1  0
 18 17  1  0
 19 18  2  0
 21 20  1  0
 22 21  2  0
 23 22  1  0
 24 18  1  0
 24 23  2  0
 25 24  1  0
 26 25  2  0
 26 21  1  0
  1 27  1  0
  2 28  1  0
  2 29  1  0
  3 30  1  0
  3 31  1  0
  5 32  1  0
  5 33  1  0
  6 34  1  0
  6 35  1  0
  8 36  1  0
  9 37  1  0
 11 38  1  0
 12 39  1  0
 14 40  1  0
 15 41  1  0
 15 42  1  0
 16 43  1  0
 16 44  1  0
 17 45  1  0
 17 46  1  0
 22 47  1  0
 23 48  1  0
 25 49  1  0
 26 50  1  0
M  CHG  1   1   1
M  END
>  <score>  (4) 
-9.62

$$$$
=
     RDKit          3D

 50 52  0  0  0  0  0  0  0  0999 V2000
    1.0880   67.1510   68.4600 N   0  0  0  0  0  4  0  0  0  0  0  0
   -0.3750   67.2130   68.0630 C   0  0  0  0  0  0  0  0  0  0  0  0
   -0.5440   67.8810   66.6960 C   0  0  0  0  0  0  0  0  0  0  0  0
    0.7540   67.8790   65.8760 C   0  0  0  0  0  0  0  0  0  0  0  0
    1.8350   68.6650   66.6460 C   0  0  0  0  0  0  0  0  0  0  0  0
    1.7780   68.4480   68.1560 C   0  0  0  0  0  0  0  0  0  0  0  0
    0.6360   68.4010   64.4460 C   0  0  0  0  0  0  0  0  0  0  0  0
    1.6880   68.3300   63.5180 C   0  0  0  0  0  0  0  0  0  0  0  0
    1.5340   68.8170   62.2140 C   0  0  0  0  0  0  0  0  0  0  0  0
    0.3260   69.3800   61.8180 C   0  0  0  0  0  0  0  0  0  0  0  0
   -0.7330   69.4620   62.7130 C   0  0  0  0  0  0  0  0  0  0  0  0
   -0.5790   68.9750   64.0150 C   0  0  0  0  0  0  0  0  0  0  0  0
    0.1430   69.9750   60.2160 Cl  0  0  0  0  0  0  0  0  0  0  0  0
    1.1860   66.5020   65.8290 O   0  0  0  0  0  0  0  0  0  0  0  0
    1.2830   66.6900   69.8850 C   0  0  0  0  0  0  0  0  0  0  0  0
    0.1060   65.8200   70.3380 C   0  0  0  0  0  0  0  0  0  0  0  0
    0.4330   64.3230   70.2750 C   0  0  0  0  0  0  0  0  0  0  0  0
    1.1190   63.8590   71.5510 C   0  0  0  0  0  0  0  0  0  0  0  0
    0.6250   64.0990   72.6550 O   0  0  0  0  0  0  0  0  0  0  0  0
    6.0490   61.1940   71.1040 F   0  0  0  0  0  0  0  0  0  0  0  0
    4.8720   61.8210   71.2180 C   0  0  0  0  0  0  0  0  0  0  0  0
    3.8470   61.2290   71.9480 C   0  0  0  0  0  0  0  0  0  0  0  0
    2.6140   61.8780   72.0700 C   0  0  0  0  0  0  0  0  0  0  0  0
    2.4150   63.1230   71.4580 C   0  0  0  0  0  0  0  0  0  0  0  0
    3.4600   63.7050   70.7220 C   0  0  0  0  0  0  0  0  0  0  0  0
    4.6890   63.0530   70.6040 C   0  0  0  0  0  0  0  0  0  0  0  0
    1.5402   66.4278   67.8826 H   0  0  0  0  0  0  0  0  0  0  0  0
   -0.7788   66.1909   68.0164 H   0  0  0  0  0  0  0  0  0  0  0  0
   -0.9171   67.8074   68.8132 H   0  0  0  0  0  0  0  0  0  0  0  0
   -1.3182   67.3399   66.1323 H   0  0  0  0  0  0  0  0  0  0  0  0
   -0.8282   68.9294   66.8692 H   0  0  0  0  0  0  0  0  0  0  0  0
    2.8234   68.3453   66.2843 H   0  0  0  0  0  0  0  0  0  0  0  0
    1.6530   69.7343   66.4632 H   0  0  0  0  0  0  0  0  0  0  0  0
    2.8010   68.4201   68.5593 H   0  0  0  0  0  0  0  0  0  0  0  0
    1.2178   69.2734   68.6195 H   0  0  0  0  0  0  0  0  0  0  0  0
    2.6476   67.8850   63.8201 H   0  0  0  0  0  0  0  0  0  0  0  0
    2.3701   68.7540   61.5020 H   0  0  0  0  0  0  0  0  0  0  0  0
   -1.6884   69.9079   62.3992 H   0  0  0  0  0  0  0  0  0  0  0  0
   -1.4226   69.0408   64.7178 H   0  0  0  0  0  0  0  0  0  0  0  0
    1.2938   66.1583   66.7511 H   0  0  0  0  0  0  0  0  0  0  0  0
    2.2117   66.1042   69.9512 H   0  0  0  0  0  0  0  0  0  0  0  0
    1.3420   67.5734   70.5378 H   0  0  0  0  0  0  0  0  0  0  0  0
   -0.1503   66.0831   71.3749 H   0  0  0  0  0  0  0  0  0  0  0  0
   -0.7361   66.0103   69.6563 H   0  0  0  0  0  0  0  0  0  0  0  0
   -0.5005   63.7565   70.1424 H   0  0  0  0  0  0  0  0  0  0  0  0
    1.1139   64.1490   69.4287 H   0  0  0  0  0  0  0  0  0  0  0  0
    4.0056   60.2523   72.4285 H   0  0  0  0  0  0  0  0  0  0  0  0
    1.8011   61.4116   72.6459 H   0  0  0  0  0  0  0  0  0  0  0  0
    3.3094   64.6801   70.2357 H   0  0  0  0  0  0  0  0  0  0  0  0
    5.5065   63.5120   70.0287 H   0  0  0  0  0  0  0  0  0  0  0  0
  2  1  1  0
  3  2  1  0
  4  3  1  0
  5  4  1  0
  6  5  1  0
  6  1  1  0
  7  4  1  0
  8  7  2  0
  9  8  1  0
 10  9  2  0
 11 10  1  0
 12 11  2  0
 12  7  1  0
 13 10  1  0
 14  4  1  0
 15  1  1  0
 16 15  1  0
 17 16  1  0
 18 17  1  0
 19 18  2  0
 21 20  1  0
 22 21  2  0
 23 22  1  0
 24 18  1  0
 24 23  2  0
 25 24  1  0
 26 25  2  0
 26 21  1  0
  1 27  1  0
  2 28  1  0
  2 29  1  0
  3 30  1  0
  3 31  1  0
  5 32  1  0
  5 33  1  0
  6 34  1  0
  6 35  1  0
  8 36  1  0
  9 37  1  0
 11 38  1  0
 12 39  1  0
 14 40  1  0
 15 41  1  0
 15 42  1  0
 16 43  1  0
 16 44  1  0
 17 45  1  0
 17 46  1  0
 22 47  1  0
 23 48  1  0
 25 49  1  0
 26 50  1  0
M  CHG  1   1   1
M  END
>  <score>  (5) 
-9.544

$$$$
=
     RDKit          3D

 50 52  0  0  0  0  0  0  0  0999 V2000
    1.3930   65.3450   70.5600 N   0  0  0  0  0  4  0  0  0  0  0  0
    0.0460   64.7070   70.2760 C   0  0  0  0  0  0  0  0  0  0  0  0
    0.0530   63.2220   70.6470 C   0  0  0  0  0  0  0  0  0  0  0  0
    1.1850   62.8630   71.6200 C   0  0  0  0  0  0  0  0  0  0  0  0
    2.5390   63.1820   70.9530 C   0  0  0  0  0  0  0  0  0  0  0  0
    2.5110   64.4520   70.1060 C   0  0  0  0  0  0  0  0  0  0  0  0
    1.1780   61.4310   72.1480 C   0  0  0  0  0  0  0  0  0  0  0  0
    2.2450   60.5390   71.9500 C   0  0  0  0  0  0  0  0  0  0  0  0
    2.1980   59.2340   72.4570 C   0  0  0  0  0  0  0  0  0  0  0  0
    1.0850   58.8020   73.1690 C   0  0  0  0  0  0  0  0  0  0  0  0
    0.0160   59.6630   73.3820 C   0  0  0  0  0  0  0  0  0  0  0  0
    0.0630   60.9660   72.8760 C   0  0  0  0  0  0  0  0  0  0  0  0
    1.0340   57.2000   73.7890 Cl  0  0  0  0  0  0  0  0  0  0  0  0
    1.0420   63.7660   72.7380 O   0  0  0  0  0  0  0  0  0  0  0  0
    1.4950   66.7510   70.0200 C   0  0  0  0  0  0  0  0  0  0  0  0
    0.6700   66.8990   68.7380 C   0  0  0  0  0  0  0  0  0  0  0  0
    0.9400   68.2270   68.0220 C   0  0  0  0  0  0  0  0  0  0  0  0
    1.0730   68.0230   66.5200 C   0  0  0  0  0  0  0  0  0  0  0  0
    0.1960   67.4350   65.8850 O   0  0  0  0  0  0  0  0  0  0  0  0
    5.7100   69.9740   64.0110 F   0  0  0  0  0  0  0  0  0  0  0  0
    4.6040   69.5050   64.5990 C   0  0  0  0  0  0  0  0  0  0  0  0
    3.6410   68.8580   63.8320 C   0  0  0  0  0  0  0  0  0  0  0  0
    2.4810   68.3670   64.4400 C   0  0  0  0  0  0  0  0  0  0  0  0
    2.2930   68.5250   65.8200 C   0  0  0  0  0  0  0  0  0  0  0  0
    3.2740   69.1830   66.5790 C   0  0  0  0  0  0  0  0  0  0  0  0
    4.4300   69.6720   65.9670 C   0  0  0  0  0  0  0  0  0  0  0  0
    1.4839   65.4462   71.5810 H   0  0  0  0  0  0  0  0  0  0  0  0
   -0.7271   65.2214   70.8657 H   0  0  0  0  0  0  0  0  0  0  0  0
   -0.1651   64.7984   69.2003 H   0  0  0  0  0  0  0  0  0  0  0  0
   -0.9091   62.9717   71.1178 H   0  0  0  0  0  0  0  0  0  0  0  0
    0.2131   62.6479   69.7225 H   0  0  0  0  0  0  0  0  0  0  0  0
    3.2962   63.3048   71.7414 H   0  0  0  0  0  0  0  0  0  0  0  0
    2.7747   62.3458   70.2784 H   0  0  0  0  0  0  0  0  0  0  0  0
    3.4683   64.9830   70.2133 H   0  0  0  0  0  0  0  0  0  0  0  0
    2.3521   64.1806   69.0519 H   0  0  0  0  0  0  0  0  0  0  0  0
    3.1309   60.8703   71.3883 H   0  0  0  0  0  0  0  0  0  0  0  0
    3.0433   58.5499   72.2914 H   0  0  0  0  0  0  0  0  0  0  0  0
   -0.8641   59.3213   73.9465 H   0  0  0  0  0  0  0  0  0  0  0  0
   -0.7872   61.6421   73.0494 H   0  0  0  0  0  0  0  0  0  0  0  0
    1.1223   63.2587   73.5843 H   0  0  0  0  0  0  0  0  0  0  0  0
    1.1183   67.4563   70.7754 H   0  0  0  0  0  0  0  0  0  0  0  0
    2.5489   66.9661   69.7895 H   0  0  0  0  0  0  0  0  0  0  0  0
    0.9227   66.0726   68.0575 H   0  0  0  0  0  0  0  0  0  0  0  0
   -0.3935   66.8782   69.0182 H   0  0  0  0  0  0  0  0  0  0  0  0
    0.1060   68.9169   68.2183 H   0  0  0  0  0  0  0  0  0  0  0  0
    1.8843   68.6433   68.4028 H   0  0  0  0  0  0  0  0  0  0  0  0
    3.7913   68.7327   62.7495 H   0  0  0  0  0  0  0  0  0  0  0  0
    1.7165   67.8570   63.8354 H   0  0  0  0  0  0  0  0  0  0  0  0
    3.1311   69.3140   67.6618 H   0  0  0  0  0  0  0  0  0  0  0  0
    5.1976   70.1860   66.5642 H   0  0  0  0  0  0  0  0  0  0  0  0
  2  1  1  0
  3  2  1  0
  4  3  1  0
  5  4  1  0
  6  5  1  0
  6  1  1  0
  7  4  1  0
  8  7  2  0
  9  8  1  0
 10  9  2  0
 11 10  1  0
 12 11  2  0
 12  7  1  0
 13 10  1  0
 14  4  1  0
 15  1  1  0
 16 15  1  0
 17 16  1  0
 18 17  1  0
 19 18  2  0
 21 20  1  0
 22 21  2  0
 23 22  1  0
 24 18  1  0
 24 23  2  0
 25 24  1  0
 26 25  2  0
 26 21  1  0
  1 27  1  0
  2 28  1  0
  2 29  1  0
  3 30  1  0
  3 31  1  0
  5 32  1  0
  5 33  1  0
  6 34  1  0
  6 35  1  0
  8 36  1  0
  9 37  1  0
 11 38  1  0
 12 39  1  0
 14 40  1  0
 15 41  1  0
 15 42  1  0
 16 43  1  0
 16 44  1  0
 17 45  1  0
 17 46  1  0
 22 47  1  0
 23 48  1  0
 25 49  1  0
 26 50  1  0
M  CHG  1   1   1
M  END
>  <score>  (6) 
-9.192

$$$$
=
     RDKit          3D

 50 52  0  0  0  0  0  0  0  0999 V2000
    0.5390   66.8470   68.0420 N   0  0  0  0  0  4  0  0  0  0  0  0
    1.4720   67.5160   69.0350 C   0  0  0  0  0  0  0  0  0  0  0  0
    1.5120   66.7430   70.3550 C   0  0  0  0  0  0  0  0  0  0  0  0
    1.0210   65.2960   70.2070 C   0  0  0  0  0  0  0  0  0  0  0  0
   -0.4430   65.3110   69.7210 C   0  0  0  0  0  0  0  0  0  0  0  0
   -0.7340   66.4200   68.7130 C   0  0  0  0  0  0  0  0  0  0  0  0
    1.1600   64.4170   71.4480 C   0  0  0  0  0  0  0  0  0  0  0  0
    2.1610   63.4410   71.5830 C   0  0  0  0  0  0  0  0  0  0  0  0
    2.2550   62.6600   72.7420 C   0  0  0  0  0  0  0  0  0  0  0  0
    1.3520   62.8450   73.7830 C   0  0  0  0  0  0  0  0  0  0  0  0
    0.3530   63.8060   73.6780 C   0  0  0  0  0  0  0  0  0  0  0  0
    0.2600   64.5850   72.5210 C   0  0  0  0  0  0  0  0  0  0  0  0
    1.4730   61.8850   75.2030 Cl  0  0  0  0  0  0  0  0  0  0  0  0
    1.8130   64.7210   69.1450 O   0  0  0  0  0  0  0  0  0  0  0  0
    0.3110   67.6830   66.8060 C   0  0  0  0  0  0  0  0  0  0  0  0
    1.5870   67.7610   65.9620 C   0  0  0  0  0  0  0  0  0  0  0  0
    2.2240   69.1540   65.9990 C   0  0  0  0  0  0  0  0  0  0  0  0
    3.7190   69.0810   65.7230 C   0  0  0  0  0  0  0  0  0  0  0  0
    4.1460   68.5020   64.7220 O   0  0  0  0  0  0  0  0  0  0  0  0
    7.1930   71.4370   69.4630 F   0  0  0  0  0  0  0  0  0  0  0  0
    6.3740   70.8730   68.5670 C   0  0  0  0  0  0  0  0  0  0  0  0
    6.8800   70.4650   67.3370 C   0  0  0  0  0  0  0  0  0  0  0  0
    6.0310   69.8780   66.3950 C   0  0  0  0  0  0  0  0  0  0  0  0
    4.6720   69.6990   66.6930 C   0  0  0  0  0  0  0  0  0  0  0  0
    4.1770   70.1200   67.9380 C   0  0  0  0  0  0  0  0  0  0  0  0
    5.0300   70.7060   68.8750 C   0  0  0  0  0  0  0  0  0  0  0  0
    1.0019   65.9920   67.7020 H   0  0  0  0  0  0  0  0  0  0  0  0
    2.4853   67.5525   68.6085 H   0  0  0  0  0  0  0  0  0  0  0  0
    1.1016   68.5323   69.2347 H   0  0  0  0  0  0  0  0  0  0  0  0
    2.5486   66.7274   70.7228 H   0  0  0  0  0  0  0  0  0  0  0  0
    0.8389   67.2527   71.0601 H   0  0  0  0  0  0  0  0  0  0  0  0
   -0.6637   64.3427   69.2480 H   0  0  0  0  0  0  0  0  0  0  0  0
   -1.0762   65.4967   70.6011 H   0  0  0  0  0  0  0  0  0  0  0  0
   -1.4390   66.0481   67.9549 H   0  0  0  0  0  0  0  0  0  0  0  0
   -1.1731   67.2810   69.2383 H   0  0  0  0  0  0  0  0  0  0  0  0
    2.8819   63.2877   70.7664 H   0  0  0  0  0  0  0  0  0  0  0  0
    3.0445   61.8990   72.8288 H   0  0  0  0  0  0  0  0  0  0  0  0
   -0.3611   63.9528   74.5017 H   0  0  0  0  0  0  0  0  0  0  0  0
   -0.5317   65.3450   72.4458 H   0  0  0  0  0  0  0  0  0  0  0  0
    2.5494   64.1864   69.5349 H   0  0  0  0  0  0  0  0  0  0  0  0
   -0.4915   67.2291   66.2061 H   0  0  0  0  0  0  0  0  0  0  0  0
    0.0283   68.7003   67.1144 H   0  0  0  0  0  0  0  0  0  0  0  0
    2.3122   67.0299   66.3487 H   0  0  0  0  0  0  0  0  0  0  0  0
    1.3145   67.5430   64.9188 H   0  0  0  0  0  0  0  0  0  0  0  0
    1.7483   69.7869   65.2353 H   0  0  0  0  0  0  0  0  0  0  0  0
    2.0746   69.5797   67.0022 H   0  0  0  0  0  0  0  0  0  0  0  0
    7.9465   70.6042   67.1064 H   0  0  0  0  0  0  0  0  0  0  0  0
    6.4280   69.5566   65.4208 H   0  0  0  0  0  0  0  0  0  0  0  0
    3.1113   69.9873   68.1762 H   0  0  0  0  0  0  0  0  0  0  0  0
    4.6404   71.0331   69.8503 H   0  0  0  0  0  0  0  0  0  0  0  0
  2  1  1  0
  3  2  1  0
  4  3  1  0
  5  4  1  0
  6  5  1  0
  6  1  1  0
  7  4  1  0
  8  7  2  0
  9  8  1  0
 10  9  2  0
 11 10  1  0
 12 11  2  0
 12  7  1  0
 13 10  1  0
 14  4  1  0
 15  1  1  0
 16 15  1  0
 17 16  1  0
 18 17  1  0
 19 18  2  0
 21 20  1  0
 22 21  2  0
 23 22  1  0
 24 18  1  0
 24 23  2  0
 25 24  1  0
 26 25  2  0
 26 21  1  0
  1 27  1  0
  2 28  1  0
  2 29  1  0
  3 30  1  0
  3 31  1  0
  5 32  1  0
  5 33  1  0
  6 34  1  0
  6 35  1  0
  8 36  1  0
  9 37  1  0
 11 38  1  0
 12 39  1  0
 14 40  1  0
 15 41  1  0
 15 42  1  0
 16 43  1  0
 16 44  1  0
 17 45  1  0
 17 46  1  0
 22 47  1  0
 23 48  1  0
 25 49  1  0
 26 50  1  0
M  CHG  1   1   1
M  END
>  <score>  (7) 
-8.951

$$$$
=
     RDKit          3D

 50 52  0  0  0  0  0  0  0  0999 V2000
    0.7620   66.9020   68.5370 N   0  0  0  0  0  4  0  0  0  0  0  0
   -0.4300   66.8960   67.5980 C   0  0  0  0  0  0  0  0  0  0  0  0
   -0.0590   67.4920   66.2380 C   0  0  0  0  0  0  0  0  0  0  0  0
    1.4550   67.4960   65.9890 C   0  0  0  0  0  0  0  0  0  0  0  0
    2.1390   68.3540   67.0740 C   0  0  0  0  0  0  0  0  0  0  0  0
    1.5000   68.2060   68.4530 C   0  0  0  0  0  0  0  0  0  0  0  0
    1.8990   67.9460   64.5990 C   0  0  0  0  0  0  0  0  0  0  0  0
    0.9920   68.2770   63.5790 C   0  0  0  0  0  0  0  0  0  0  0  0
    1.4420   68.6900   62.3190 C   0  0  0  0  0  0  0  0  0  0  0  0
    2.8060   68.7810   62.0610 C   0  0  0  0  0  0  0  0  0  0  0  0
    3.7260   68.4630   63.0520 C   0  0  0  0  0  0  0  0  0  0  0  0
    3.2750   68.0500   64.3100 C   0  0  0  0  0  0  0  0  0  0  0  0
    3.3530   69.2900   60.5140 Cl  0  0  0  0  0  0  0  0  0  0  0  0
    1.8890   66.1340   66.1920 O   0  0  0  0  0  0  0  0  0  0  0  0
    0.3910   66.5160   69.9490 C   0  0  0  0  0  0  0  0  0  0  0  0
    0.8080   65.0710   70.2410 C   0  0  0  0  0  0  0  0  0  0  0  0
    2.3010   64.9520   70.5670 C   0  0  0  0  0  0  0  0  0  0  0  0
    2.8810   63.6570   70.0160 C   0  0  0  0  0  0  0  0  0  0  0  0
    2.9130   63.4500   68.8010 O   0  0  0  0  0  0  0  0  0  0  0  0
    4.6760   59.7610   73.6490 F   0  0  0  0  0  0  0  0  0  0  0  0
    4.2590   60.6890   72.7790 C   0  0  0  0  0  0  0  0  0  0  0  0
    5.1730   61.2760   71.9110 C   0  0  0  0  0  0  0  0  0  0  0  0
    4.7430   62.2460   71.0010 C   0  0  0  0  0  0  0  0  0  0  0  0
    3.3940   62.6240   70.9640 C   0  0  0  0  0  0  0  0  0  0  0  0
    2.4840   62.0230   71.8500 C   0  0  0  0  0  0  0  0  0  0  0  0
    2.9190   61.0540   72.7570 C   0  0  0  0  0  0  0  0  0  0  0  0
    1.4123   66.1674   68.2233 H   0  0  0  0  0  0  0  0  0  0  0  0
   -0.7709   65.8599   67.4559 H   0  0  0  0  0  0  0  0  0  0  0  0
   -1.2296   67.5069   68.0423 H   0  0  0  0  0  0  0  0  0  0  0  0
   -0.5443   66.8986   65.4491 H   0  0  0  0  0  0  0  0  0  0  0  0
   -0.4012   68.5374   66.2277 H   0  0  0  0  0  0  0  0  0  0  0  0
    3.1944   68.0520   67.1440 H   0  0  0  0  0  0  0  0  0  0  0  0
    2.0281   69.4067   66.7748 H   0  0  0  0  0  0  0  0  0  0  0  0
    2.2849   68.2311   69.2232 H   0  0  0  0  0  0  0  0  0  0  0  0
    0.7932   69.0331   68.6151 H   0  0  0  0  0  0  0  0  0  0  0  0
   -0.0887   68.2108   63.7730 H   0  0  0  0  0  0  0  0  0  0  0  0
    0.7161   68.9428   61.5322 H   0  0  0  0  0  0  0  0  0  0  0  0
    4.8045   68.5357   62.8483 H   0  0  0  0  0  0  0  0  0  0  0  0
    4.0094   67.8011   65.0902 H   0  0  0  0  0  0  0  0  0  0  0  0
    1.9484   65.9477   67.1625 H   0  0  0  0  0  0  0  0  0  0  0  0
    0.9016   67.1889   70.6536 H   0  0  0  0  0  0  0  0  0  0  0  0
   -0.6997   66.6002   70.0644 H   0  0  0  0  0  0  0  0  0  0  0  0
    0.2278   64.7018   71.0995 H   0  0  0  0  0  0  0  0  0  0  0  0
    0.6118   64.4746   69.3378 H   0  0  0  0  0  0  0  0  0  0  0  0
    2.8352   65.8035   70.1203 H   0  0  0  0  0  0  0  0  0  0  0  0
    2.4207   64.9509   71.6605 H   0  0  0  0  0  0  0  0  0  0  0  0
    6.2314   60.9779   71.9404 H   0  0  0  0  0  0  0  0  0  0  0  0
    5.4638   62.7129   70.3136 H   0  0  0  0  0  0  0  0  0  0  0  0
    1.4242   62.3170   71.8292 H   0  0  0  0  0  0  0  0  0  0  0  0
    2.2053   60.5832   73.4491 H   0  0  0  0  0  0  0  0  0  0  0  0
  2  1  1  0
  3  2  1  0
  4  3  1  0
  5  4  1  0
  6  5  1  0
  6  1  1  0
  7  4  1  0
  8  7  2  0
  9  8  1  0
 10  9  2  0
 11 10  1  0
 12 11  2  0
 12  7  1  0
 13 10  1  0
 14  4  1  0
 15  1  1  0
 16 15  1  0
 17 16  1  0
 18 17  1  0
 19 18  2  0
 21 20  1  0
 22 21  2  0
 23 22  1  0
 24 18  1  0
 24 23  2  0
 25 24  1  0
 26 25  2  0
 26 21  1  0
  1 27  1  0
  2 28  1  0
  2 29  1  0
  3 30  1  0
  3 31  1  0
  5 32  1  0
  5 33  1  0
  6 34  1  0
  6 35  1  0
  8 36  1  0
  9 37  1  0
 11 38  1  0
 12 39  1  0
 14 40  1  0
 15 41  1  0
 15 42  1  0
 16 43  1  0
 16 44  1  0
 17 45  1  0
 17 46  1  0
 22 47  1  0
 23 48  1  0
 25 49  1  0
 26 50  1  0
M  CHG  1   1   1
M  END
>  <score>  (8) 
-8.782

$$$$
=
     RDKit          3D

 50 52  0  0  0  0  0  0  0  0999 V2000
    3.6040   60.3080   72.7220 N   0  0  0  0  0  4  0  0  0  0  0  0
    2.4270   60.5830   73.6380 C   0  0  0  0  0  0  0  0  0  0  0  0
    1.5460   59.3400   73.7860 C   0  0  0  0  0  0  0  0  0  0  0  0
    2.2800   58.0480   73.4010 C   0  0  0  0  0  0  0  0  0  0  0  0
    2.7110   58.1390   71.9220 C   0  0  0  0  0  0  0  0  0  0  0  0
    3.1680   59.5360   71.5110 C   0  0  0  0  0  0  0  0  0  0  0  0
    1.5160   56.7510   73.6530 C   0  0  0  0  0  0  0  0  0  0  0  0
    2.1550   55.5200   73.8780 C   0  0  0  0  0  0  0  0  0  0  0  0
    1.4150   54.3540   74.1100 C   0  0  0  0  0  0  0  0  0  0  0  0
    0.0250   54.4020   74.1220 C   0  0  0  0  0  0  0  0  0  0  0  0
   -0.6340   55.6050   73.9050 C   0  0  0  0  0  0  0  0  0  0  0  0
    0.1050   56.7690   73.6730 C   0  0  0  0  0  0  0  0  0  0  0  0
   -0.8780   52.9680   74.4080 Cl  0  0  0  0  0  0  0  0  0  0  0  0
    3.4870   58.0330   74.1930 O   0  0  0  0  0  0  0  0  0  0  0  0
    4.3810   61.5580   72.3840 C   0  0  0  0  0  0  0  0  0  0  0  0
    4.8380   61.5330   70.9220 C   0  0  0  0  0  0  0  0  0  0  0  0
    4.4860   62.8280   70.1810 C   0  0  0  0  0  0  0  0  0  0  0  0
    3.0380   62.8150   69.7140 C   0  0  0  0  0  0  0  0  0  0  0  0
    2.6750   62.0590   68.8110 O   0  0  0  0  0  0  0  0  0  0  0  0
   -0.6990   66.2140   72.1800 F   0  0  0  0  0  0  0  0  0  0  0  0
    0.1940   65.4130   71.5870 C   0  0  0  0  0  0  0  0  0  0  0  0
    0.9490   65.8970   70.5240 C   0  0  0  0  0  0  0  0  0  0  0  0
    1.8830   65.0650   69.8990 C   0  0  0  0  0  0  0  0  0  0  0  0
    2.0580   63.7480   70.3460 C   0  0  0  0  0  0  0  0  0  0  0  0
    1.2850   63.2750   71.4200 C   0  0  0  0  0  0  0  0  0  0  0  0
    0.3540   64.1100   72.0400 C   0  0  0  0  0  0  0  0  0  0  0  0
    4.2688   59.7123   73.2358 H   0  0  0  0  0  0  0  0  0  0  0  0
    2.8032   60.8775   74.6288 H   0  0  0  0  0  0  0  0  0  0  0  0
    1.8228   61.3911   73.1999 H   0  0  0  0  0  0  0  0  0  0  0  0
    1.2204   59.2615   74.8338 H   0  0  0  0  0  0  0  0  0  0  0  0
    0.6910   59.4540   73.1033 H   0  0  0  0  0  0  0  0  0  0  0  0
    3.5417   57.4372   71.7567 H   0  0  0  0  0  0  0  0  0  0  0  0
    1.8309   57.8911   71.3104 H   0  0  0  0  0  0  0  0  0  0  0  0
    4.0107   59.4522   70.8090 H   0  0  0  0  0  0  0  0  0  0  0  0
    2.3321   60.0627   71.0275 H   0  0  0  0  0  0  0  0  0  0  0  0
    3.2539   55.4714   73.8718 H   0  0  0  0  0  0  0  0  0  0  0  0
    1.9334   53.3994   74.2829 H   0  0  0  0  0  0  0  0  0  0  0  0
   -1.7333   55.6420   73.9156 H   0  0  0  0  0  0  0  0  0  0  0  0
   -0.4242   57.7182   73.5026 H   0  0  0  0  0  0  0  0  0  0  0  0
    3.2509   58.0359   75.1544 H   0  0  0  0  0  0  0  0  0  0  0  0
    3.7398   62.4368   72.5469 H   0  0  0  0  0  0  0  0  0  0  0  0
    5.2690   61.6082   73.0312 H   0  0  0  0  0  0  0  0  0  0  0  0
    5.9290   61.3949   70.8946 H   0  0  0  0  0  0  0  0  0  0  0  0
    4.3159   60.7051   70.4200 H   0  0  0  0  0  0  0  0  0  0  0  0
    4.6377   63.6818   70.8577 H   0  0  0  0  0  0  0  0  0  0  0  0
    5.1372   62.9139   69.2986 H   0  0  0  0  0  0  0  0  0  0  0  0
    0.8118   66.9314   70.1759 H   0  0  0  0  0  0  0  0  0  0  0  0
    2.4804   65.4439   69.0566 H   0  0  0  0  0  0  0  0  0  0  0  0
    1.4142   62.2415   71.7739 H   0  0  0  0  0  0  0  0  0  0  0  0
   -0.2489   63.7385   72.8817 H   0  0  0  0  0  0  0  0  0  0  0  0
  2  1  1  0
  3  2  1  0
  4  3  1  0
  5  4  1  0
  6  5  1  0
  6  1  1  0
  7  4  1  0
  8  7  2  0
  9  8  1  0
 10  9  2  0
 11 10  1  0
 12 11  2  0
 12  7  1  0
 13 10  1  0
 14  4  1  0
 15  1  1  0
 16 15  1  0
 17 16  1  0
 18 17  1  0
 19 18  2  0
 21 20  1  0
 22 21  2  0
 23 22  1  0
 24 18  1  0
 24 23  2  0
 25 24  1  0
 26 25  2  0
 26 21  1  0
  1 27  1  0
  2 28  1  0
  2 29  1  0
  3 30  1  0
  3 31  1  0
  5 32  1  0
  5 33  1  0
  6 34  1  0
  6 35  1  0
  8 36  1  0
  9 37  1  0
 11 38  1  0
 12 39  1  0
 14 40  1  0
 15 41  1  0
 15 42  1  0
 16 43  1  0
 16 44  1  0
 17 45  1  0
 17 46  1  0
 22 47  1  0
 23 48  1  0
 25 49  1  0
 26 50  1  0
M  CHG  1   1   1
M  END
>  <score>  (9) 
-8.583

$$$$
