=
     RDKit          3D

119121  0  0  0  0  0  0  0  0999 V2000
    2.0440   57.6310   79.0550 C   0  0  1  0  0  0  0  0  0  0  0  0
    2.8820   58.8160   79.0460 O   0  0  0  0  0  0  0  0  0  0  0  0
    2.7640   59.7710   78.0930 C   0  0  0  0  0  0  0  0  0  0  0  0
    3.7470   60.0880   77.4200 O   0  0  0  0  0  0  0  0  0  0  0  0
    1.4440   60.5450   77.9260 C   0  0  2  0  0  0  0  0  0  0  0  0
    0.3840   60.3620   79.0020 C   0  0  0  0  0  0  0  0  0  0  0  0
    1.0070   60.5830   76.4220 C   0  0  2  0  0  0  0  0  0  0  0  0
   -0.4730   60.8650   75.9760 C   0  0  2  0  0  0  0  0  0  0  0  0
   -0.8100   62.3290   76.3280 C   0  0  0  0  0  0  0  0  0  0  0  0
   -1.6640   59.8970   76.3450 C   0  0  2  0  0  0  0  0  0  0  0  0
   -1.4340   58.3430   76.2230 C   0  0  2  0  0  0  0  0  0  0  0  0
   -1.0940   57.8100   74.8140 C   0  0  0  0  0  0  0  0  0  0  0  0
   -0.9040   56.2720   74.6960 C   0  0  2  0  0  0  0  0  0  0  0  0
   -0.1060   55.5000   75.7800 C   0  0  0  0  0  0  0  0  0  0  0  0
   -0.6450   54.5290   76.3320 O   0  0  0  0  0  0  0  0  0  0  0  0
    1.3640   55.8220   76.1110 C   0  0  1  0  0  0  0  0  0  0  0  0
    1.6260   55.4920   77.6230 C   0  0  2  0  0  0  0  0  0  0  0  0
    2.7060   56.3460   78.4150 C   0  0  1  0  0  0  0  0  0  0  0  0
    3.9560   56.6590   77.6000 C   0  0  0  0  0  0  0  0  0  0  0  0
    2.2490   55.0110   75.1590 C   0  0  0  0  0  0  0  0  0  0  0  0
   -0.4160   55.9030   73.2960 C   0  0  0  0  0  0  0  0  0  0  0  0
   -2.6490   57.6020   76.7960 C   0  0  0  0  0  0  0  0  0  0  0  0
    0.0500   57.0160   80.5840 C   0  0  0  0  0  0  0  0  0  0  0  0
    1.5200   57.4100   80.4920 C   0  0  0  0  0  0  0  0  0  0  0  0
    3.1830   55.4910   79.4820 O   0  0  0  0  0  0  0  0  0  0  0  0
    2.0130   54.1010   77.7350 O   0  0  0  0  0  0  0  0  0  0  0  0
   -0.3410   58.0000   77.0450 O   0  0  0  0  0  0  0  0  0  0  0  0
    1.5020   59.4180   75.7190 O   0  0  0  0  0  0  0  0  0  0  0  0
    1.7460   59.7110   74.3180 C   0  0  2  0  0  0  0  0  0  0  0  0
    2.0420   58.4920   73.6370 O   0  0  0  0  0  0  0  0  0  0  0  0
    2.8480   58.6180   72.4550 C   0  0  1  0  0  0  0  0  0  0  0  0
    2.4800   57.4540   71.5400 C   0  0  0  0  0  0  0  0  0  0  0  0
    2.6640   59.9790   71.7710 C   0  0  1  0  0  0  0  0  0  0  0  0
    3.1360   61.1120   72.7310 C   0  0  2  0  0  0  0  0  0  0  0  0
    2.8930   60.7040   74.1970 C   0  0  0  0  0  0  0  0  0  0  0  0
    2.3880   62.4040   72.3640 C   0  0  0  0  0  0  0  0  0  0  0  0
    4.5620   61.2480   72.5050 O   0  0  0  0  0  0  0  0  0  0  0  0
    4.9710   62.3670   71.7260 C   0  0  0  0  0  0  0  0  0  0  0  0
    3.3830   60.0470   70.5390 O   0  0  0  0  0  0  0  0  0  0  0  0
   -2.8040   60.2330   75.5070 O   0  0  0  0  0  0  0  0  0  0  0  0
   -3.9600   60.6840   76.2200 C   0  0  2  0  0  0  0  0  0  0  0  0
   -4.8630   59.6310   76.5490 O   0  0  0  0  0  0  0  0  0  0  0  0
   -6.1240   59.5630   75.8860 C   0  0  2  0  0  0  0  0  0  0  0  0
   -5.9990   58.9720   74.4820 C   0  0  0  0  0  0  0  0  0  0  0  0
   -6.8970   60.8930   75.9110 C   0  0  0  0  0  0  0  0  0  0  0  0
   -5.9700   62.0930   76.0050 C   0  0  1  0  0  0  0  0  0  0  0  0
   -4.6020   61.8110   75.3900 C   0  0  1  0  0  0  0  0  0  0  0  0
   -6.5500   63.3800   75.4110 N   0  0  0  0  0  4  0  0  0  0  0  0
   -7.6120   63.2290   74.3610 C   0  0  0  0  0  0  0  0  0  0  0  0
   -6.9270   64.3950   76.4510 C   0  0  0  0  0  0  0  0  0  0  0  0
   -3.8390   63.0290   75.4010 O   0  0  0  0  0  0  0  0  0  0  0  0
    1.1924   57.8117   78.3826 H   0  0  0  0  0  0  0  0  0  0  0  0
    1.6511   61.5953   78.1791 H   0  0  0  0  0  0  0  0  0  0  0  0
    0.8513   60.4427   79.9945 H   0  0  0  0  0  0  0  0  0  0  0  0
   -0.3856   61.1406   78.8947 H   0  0  0  0  0  0  0  0  0  0  0  0
   -0.0800   59.3705   78.8947 H   0  0  0  0  0  0  0  0  0  0  0  0
    1.4785   61.5366   76.1421 H   0  0  0  0  0  0  0  0  0  0  0  0
   -0.4283   60.6398   74.9002 H   0  0  0  0  0  0  0  0  0  0  0  0
   -0.8370   62.4463   77.4214 H   0  0  0  0  0  0  0  0  0  0  0  0
   -0.0414   62.9937   75.9068 H   0  0  0  0  0  0  0  0  0  0  0  0
   -1.7919   62.5907   75.9068 H   0  0  0  0  0  0  0  0  0  0  0  0
   -1.8055   60.0693   77.4222 H   0  0  0  0  0  0  0  0  0  0  0  0
   -1.9111   58.1012   74.1376 H   0  0  0  0  0  0  0  0  0  0  0  0
   -0.1192   58.2502   74.5572 H   0  0  0  0  0  0  0  0  0  0  0  0
   -1.9237   55.9129   74.8993 H   0  0  0  0  0  0  0  0  0  0  0  0
    1.5992   56.8870   75.9683 H   0  0  0  0  0  0  0  0  0  0  0  0
    0.6688   55.7528   78.0982 H   0  0  0  0  0  0  0  0  0  0  0  0
    4.7944   56.8689   78.2805 H   0  0  0  0  0  0  0  0  0  0  0  0
    4.2059   55.7957   76.9658 H   0  0  0  0  0  0  0  0  0  0  0  0
    3.7696   57.5382   76.9658 H   0  0  0  0  0  0  0  0  0  0  0  0
    2.9359   54.3815   75.7437 H   0  0  0  0  0  0  0  0  0  0  0  0
    1.6165   54.3724   74.5249 H   0  0  0  0  0  0  0  0  0  0  0  0
    2.8300   55.6968   74.5249 H   0  0  0  0  0  0  0  0  0  0  0  0
    0.4591   55.2413   73.3753 H   0  0  0  0  0  0  0  0  0  0  0  0
   -1.2196   55.3846   72.7524 H   0  0  0  0  0  0  0  0  0  0  0  0
   -0.1362   56.8174   72.7524 H   0  0  0  0  0  0  0  0  0  0  0  0
   -2.6087   57.6266   77.8950 H   0  0  0  0  0  0  0  0  0  0  0  0
   -3.5724   58.0908   76.4519 H   0  0  0  0  0  0  0  0  0  0  0  0
   -2.6371   56.5573   76.4519 H   0  0  0  0  0  0  0  0  0  0  0  0
   -0.2431   56.9374   81.6413 H   0  0  0  0  0  0  0  0  0  0  0  0
   -0.5663   57.7807   80.0885 H   0  0  0  0  0  0  0  0  0  0  0  0
   -0.1012   56.0456   80.0885 H   0  0  0  0  0  0  0  0  0  0  0  0
    1.6593   58.3450   81.0544 H   0  0  0  0  0  0  0  0  0  0  0  0
    2.0927   56.5659   80.9036 H   0  0  0  0  0  0  0  0  0  0  0  0
    2.9566   55.8968   80.3562 H   0  0  0  0  0  0  0  0  0  0  0  0
    2.0818   53.8536   78.6911 H   0  0  0  0  0  0  0  0  0  0  0  0
   -0.6044   58.0827   77.9957 H   0  0  0  0  0  0  0  0  0  0  0  0
    0.8549   60.1643   73.8592 H   0  0  0  0  0  0  0  0  0  0  0  0
    3.9165   58.5759   72.7128 H   0  0  0  0  0  0  0  0  0  0  0  0
    2.2041   56.5812   72.1500 H   0  0  0  0  0  0  0  0  0  0  0  0
    1.6289   57.7415   70.9052 H   0  0  0  0  0  0  0  0  0  0  0  0
    3.3417   57.2000   70.9052 H   0  0  0  0  0  0  0  0  0  0  0  0
    1.5961   60.1085   71.5413 H   0  0  0  0  0  0  0  0  0  0  0  0
    2.6504   61.6031   74.7825 H   0  0  0  0  0  0  0  0  0  0  0  0
    3.8066   60.2233   74.5769 H   0  0  0  0  0  0  0  0  0  0  0  0
    2.0856   62.9264   73.2836 H   0  0  0  0  0  0  0  0  0  0  0  0
    3.0489   63.0550   71.7729 H   0  0  0  0  0  0  0  0  0  0  0  0
    1.4943   62.1550   71.7729 H   0  0  0  0  0  0  0  0  0  0  0  0
    5.2712   63.1883   72.3934 H   0  0  0  0  0  0  0  0  0  0  0  0
    5.8225   62.0804   71.0913 H   0  0  0  0  0  0  0  0  0  0  0  0
    4.1354   62.6970   71.0913 H   0  0  0  0  0  0  0  0  0  0  0  0
    4.3508   60.1385   70.7263 H   0  0  0  0  0  0  0  0  0  0  0  0
   -3.6640   61.0767   77.2040 H   0  0  0  0  0  0  0  0  0  0  0  0
   -6.7412   58.8632   76.4686 H   0  0  0  0  0  0  0  0  0  0  0  0
   -5.7719   57.8982   74.5551 H   0  0  0  0  0  0  0  0  0  0  0  0
   -6.9463   59.1104   73.9402 H   0  0  0  0  0  0  0  0  0  0  0  0
   -5.1889   59.4821   73.9402 H   0  0  0  0  0  0  0  0  0  0  0  0
   -7.4907   60.9752   74.9886 H   0  0  0  0  0  0  0  0  0  0  0  0
   -7.5412   60.8928   76.8026 H   0  0  0  0  0  0  0  0  0  0  0  0
   -5.8528   62.2632   77.0854 H   0  0  0  0  0  0  0  0  0  0  0  0
   -4.6587   61.4798   74.3426 H   0  0  0  0  0  0  0  0  0  0  0  0
   -5.7458   63.7473   74.8826 H   0  0  0  0  0  0  0  0  0  0  0  0
   -8.5896   63.0900   74.8456 H   0  0  0  0  0  0  0  0  0  0  0  0
   -7.6387   64.1324   73.7339 H   0  0  0  0  0  0  0  0  0  0  0  0
   -7.3859   62.3540   73.7339 H   0  0  0  0  0  0  0  0  0  0  0  0
   -6.7689   63.9694   77.4529 H   0  0  0  0  0  0  0  0  0  0  0  0
   -6.3022   65.2923   76.3310 H   0  0  0  0  0  0  0  0  0  0  0  0
   -7.9861   64.6669   76.3310 H   0  0  0  0  0  0  0  0  0  0  0  0
   -3.6676   63.3026   76.3369 H   0  0  0  0  0  0  0  0  0  0  0  0
  2  1  1  0
  3  2  1  0
  4  3  2  0
  5  3  1  0
  6  5  1  0
  7  5  1  0
  8  7  1  0
  9  8  1  0
 10  8  1  0
 11 10  1  0
 12 11  1  0
 13 12  1  0
 14 13  1  0
 15 14  2  0
 16 14  1  0
 17 16  1  0
 18 17  1  0
 18  1  1  0
 19 18  1  0
 20 16  1  0
 21 13  1  0
 22 11  1  0
 24 23  1  0
 24  1  1  0
 18 25  1  1
 26 17  1  0
 11 27  1  1
 28  7  1  0
 29 28  1  0
 30 29  1  0
 31 30  1  0
 32 31  1  0
 33 31  1  0
 34 33  1  0
 35 29  1  0
 35 34  1  0
 36 34  1  0
 34 37  1  1
 38 37  1  0
 39 33  1  0
 40 10  1  0
 41 40  1  0
 42 41  1  0
 43 42  1  0
 44 43  1  0
 45 43  1  0
 46 45  1  0
 47 46  1  0
 47 41  1  0
 48 46  1  0
 49 48  1  0
 50 48  1  0
 51 47  1  0
  1 52  1  6
  5 53  1  1
  6 54  1  0
  6 55  1  0
  6 56  1  0
  7 57  1  6
  8 58  1  6
  9 59  1  0
  9 60  1  0
  9 61  1  0
 10 62  1  1
 12 63  1  0
 12 64  1  0
 13 65  1  6
 16 66  1  1
 17 67  1  1
 19 68  1  0
 19 69  1  0
 19 70  1  0
 20 71  1  0
 20 72  1  0
 20 73  1  0
 21 74  1  0
 21 75  1  0
 21 76  1  0
 22 77  1  0
 22 78  1  0
 22 79  1  0
 23 80  1  0
 23 81  1  0
 23 82  1  0
 24 83  1  0
 24 84  1  0
 25 85  1  0
 26 86  1  0
 27 87  1  0
 29 88  1  6
 31 89  1  1
 32 90  1  0
 32 91  1  0
 32 92  1  0
 33 93  1  6
 35 94  1  0
 35 95  1  0
 36 96  1  0
 36 97  1  0
 36 98  1  0
 38 99  1  0
 38100  1  0
 38101  1  0
 39102  1  0
 41103  1  1
 43104  1  1
 44105  1  0
 44106  1  0
 44107  1  0
 45108  1  0
 45109  1  0
 46110  1  1
 47111  1  6
 48112  1  0
 49113  1  0
 49114  1  0
 49115  1  0
 50116  1  0
 50117  1  0
 50118  1  0
 51119  1  0
M  CHG  1  48   1
M  END
>  <score>  (1) 
-7.056

$$$$
=
     RDKit          3D

119121  0  0  0  0  0  0  0  0999 V2000
    0.1800   55.0300   76.7800 C   0  0  1  0  0  0  0  0  0  0  0  0
   -1.2380   55.3010   76.6260 O   0  0  0  0  0  0  0  0  0  0  0  0
   -1.7080   56.5500   76.3940 C   0  0  0  0  0  0  0  0  0  0  0  0
   -2.5470   57.0380   77.1520 O   0  0  0  0  0  0  0  0  0  0  0  0
   -1.2910   57.3150   75.1240 C   0  0  2  0  0  0  0  0  0  0  0  0
   -0.5370   56.5390   74.0550 C   0  0  0  0  0  0  0  0  0  0  0  0
   -0.8330   58.7710   75.4760 C   0  0  2  0  0  0  0  0  0  0  0  0
    0.0710   59.6300   74.5200 C   0  0  2  0  0  0  0  0  0  0  0  0
   -0.7490   59.9680   73.2580 C   0  0  0  0  0  0  0  0  0  0  0  0
    1.5470   59.2060   74.1510 C   0  0  2  0  0  0  0  0  0  0  0  0
    2.4780   58.6540   75.2950 C   0  0  2  0  0  0  0  0  0  0  0  0
    2.7710   59.6170   76.4650 C   0  0  0  0  0  0  0  0  0  0  0  0
    3.7200   59.0770   77.5710 C   0  0  2  0  0  0  0  0  0  0  0  0
    3.5650   57.6210   78.0870 C   0  0  0  0  0  0  0  0  0  0  0  0
    4.5590   56.8800   78.0700 O   0  0  0  0  0  0  0  0  0  0  0  0
    2.2600   57.1030   78.7220 C   0  0  1  0  0  0  0  0  0  0  0  0
    2.1300   55.5670   78.4260 C   0  0  2  0  0  0  0  0  0  0  0  0
    0.6780   54.9400   78.2780 C   0  0  1  0  0  0  0  0  0  0  0  0
   -0.3320   55.4900   79.2790 C   0  0  0  0  0  0  0  0  0  0  0  0
    2.3080   57.4220   80.2200 C   0  0  0  0  0  0  0  0  0  0  0  0
    3.7920   60.0610   78.7370 C   0  0  0  0  0  0  0  0  0  0  0  0
    3.7890   58.1440   74.6820 C   0  0  0  0  0  0  0  0  0  0  0  0
    1.8180   53.9240   75.1110 C   0  0  0  0  0  0  0  0  0  0  0  0
    0.5390   53.7900   75.9300 C   0  0  0  0  0  0  0  0  0  0  0  0
    0.8110   53.5430   78.6390 O   0  0  0  0  0  0  0  0  0  0  0  0
    2.8100   54.8320   79.4720 O   0  0  0  0  0  0  0  0  0  0  0  0
    1.8470   57.5280   75.8630 O   0  0  0  0  0  0  0  0  0  0  0  0
   -0.2920   58.8240   76.8180 O   0  0  0  0  0  0  0  0  0  0  0  0
   -0.4030   60.1580   77.3800 C   0  0  2  0  0  0  0  0  0  0  0  0
    0.1780   60.1590   78.6840 O   0  0  0  0  0  0  0  0  0  0  0  0
   -0.3260   61.1510   79.5910 C   0  0  1  0  0  0  0  0  0  0  0  0
    0.7980   61.4690   80.5720 C   0  0  0  0  0  0  0  0  0  0  0  0
   -0.8330   62.4010   78.8580 C   0  0  1  0  0  0  0  0  0  0  0  0
   -2.0300   62.0160   77.9390 C   0  0  2  0  0  0  0  0  0  0  0  0
   -1.8670   60.5710   77.4280 C   0  0  0  0  0  0  0  0  0  0  0  0
   -2.1030   63.0290   76.7840 C   0  0  0  0  0  0  0  0  0  0  0  0
   -3.2090   62.0920   78.7800 O   0  0  0  0  0  0  0  0  0  0  0  0
   -4.0070   60.9150   78.8540 C   0  0  0  0  0  0  0  0  0  0  0  0
   -1.2250   63.4220   79.7770 O   0  0  0  0  0  0  0  0  0  0  0  0
    2.2180   60.3540   73.5620 O   0  0  0  0  0  0  0  0  0  0  0  0
    2.4800   60.2410   72.1600 C   0  0  2  0  0  0  0  0  0  0  0  0
    3.6930   59.5490   71.8700 O   0  0  0  0  0  0  0  0  0  0  0  0
    4.7990   60.2760   71.3380 C   0  0  2  0  0  0  0  0  0  0  0  0
    5.5430   61.0580   72.4200 C   0  0  0  0  0  0  0  0  0  0  0  0
    4.4280   61.1420   70.1200 C   0  0  0  0  0  0  0  0  0  0  0  0
    2.9700   61.5700   70.1440 C   0  0  1  0  0  0  0  0  0  0  0  0
    2.4220   61.6600   71.5650 C   0  0  1  0  0  0  0  0  0  0  0  0
    2.6890   62.8760   69.3950 N   0  0  0  0  0  4  0  0  0  0  0  0
    2.7030   64.1420   70.2020 C   0  0  0  0  0  0  0  0  0  0  0  0
    3.4750   63.0110   68.1230 C   0  0  0  0  0  0  0  0  0  0  0  0
    1.0890   62.1950   71.5040 O   0  0  0  0  0  0  0  0  0  0  0  0
    0.7361   55.9008   76.4027 H   0  0  0  0  0  0  0  0  0  0  0  0
   -2.1980   57.4507   74.5166 H   0  0  0  0  0  0  0  0  0  0  0  0
    0.1527   55.8292   74.5350 H   0  0  0  0  0  0  0  0  0  0  0  0
   -1.2534   55.9874   73.4284 H   0  0  0  0  0  0  0  0  0  0  0  0
    0.0349   57.2392   73.4284 H   0  0  0  0  0  0  0  0  0  0  0  0
   -1.7983   59.2801   75.3382 H   0  0  0  0  0  0  0  0  0  0  0  0
    0.3197   60.4897   75.1596 H   0  0  0  0  0  0  0  0  0  0  0  0
   -1.7284   60.3717   73.5543 H   0  0  0  0  0  0  0  0  0  0  0  0
   -0.2094   60.7170   72.6598 H   0  0  0  0  0  0  0  0  0  0  0  0
   -0.8940   59.0563   72.6598 H   0  0  0  0  0  0  0  0  0  0  0  0
    1.4038   58.3480   73.4777 H   0  0  0  0  0  0  0  0  0  0  0  0
    3.2258   60.5268   76.0461 H   0  0  0  0  0  0  0  0  0  0  0  0
    1.8033   59.7844   76.9605 H   0  0  0  0  0  0  0  0  0  0  0  0
    4.6696   58.9999   77.0211 H   0  0  0  0  0  0  0  0  0  0  0  0
    1.3686   57.5897   78.2995 H   0  0  0  0  0  0  0  0  0  0  0  0
    2.5733   55.4735   77.4236 H   0  0  0  0  0  0  0  0  0  0  0  0
    0.0231   55.2966   80.3020 H   0  0  0  0  0  0  0  0  0  0  0  0
   -0.4444   56.5739   79.1286 H   0  0  0  0  0  0  0  0  0  0  0  0
   -1.3034   54.9963   79.1286 H   0  0  0  0  0  0  0  0  0  0  0  0
    2.1686   56.4958   80.7968 H   0  0  0  0  0  0  0  0  0  0  0  0
    3.2831   57.8660   80.4693 H   0  0  0  0  0  0  0  0  0  0  0  0
    1.5068   58.1333   80.4693 H   0  0  0  0  0  0  0  0  0  0  0  0
    3.7515   59.5076   79.6868 H   0  0  0  0  0  0  0  0  0  0  0  0
    4.7339   60.6265   78.6820 H   0  0  0  0  0  0  0  0  0  0  0  0
    2.9424   60.7576   78.6820 H   0  0  0  0  0  0  0  0  0  0  0  0
    4.4884   57.8719   75.4863 H   0  0  0  0  0  0  0  0  0  0  0  0
    3.5836   57.2602   74.0601 H   0  0  0  0  0  0  0  0  0  0  0  0
    4.2348   58.9343   74.0601 H   0  0  0  0  0  0  0  0  0  0  0  0
    2.6797   54.0143   75.7888 H   0  0  0  0  0  0  0  0  0  0  0  0
    1.9421   53.0339   74.4767 H   0  0  0  0  0  0  0  0  0  0  0  0
    1.7550   54.8205   74.4767 H   0  0  0  0  0  0  0  0  0  0  0  0
   -0.2929   53.5983   75.2363 H   0  0  0  0  0  0  0  0  0  0  0  0
    0.7109   52.9675   76.6399 H   0  0  0  0  0  0  0  0  0  0  0  0
    0.8193   53.4563   79.6252 H   0  0  0  0  0  0  0  0  0  0  0  0
    2.5071   55.1594   80.3558 H   0  0  0  0  0  0  0  0  0  0  0  0
    1.8831   57.5925   76.8502 H   0  0  0  0  0  0  0  0  0  0  0  0
    0.1346   60.8847   76.7532 H   0  0  0  0  0  0  0  0  0  0  0  0
   -1.2039   60.7667   80.1311 H   0  0  0  0  0  0  0  0  0  0  0  0
    0.4264   61.3639   81.6020 H   0  0  0  0  0  0  0  0  0  0  0  0
    1.6336   60.7720   80.4107 H   0  0  0  0  0  0  0  0  0  0  0  0
    1.1446   62.5004   80.4107 H   0  0  0  0  0  0  0  0  0  0  0  0
   -0.0111   62.8008   78.2460 H   0  0  0  0  0  0  0  0  0  0  0  0
   -2.2918   60.4998   76.4158 H   0  0  0  0  0  0  0  0  0  0  0  0
   -2.3927   59.8983   78.1217 H   0  0  0  0  0  0  0  0  0  0  0  0
   -2.1764   64.0473   77.1935 H   0  0  0  0  0  0  0  0  0  0  0  0
   -1.1966   62.9467   76.1662 H   0  0  0  0  0  0  0  0  0  0  0  0
   -2.9882   62.8175   76.1662 H   0  0  0  0  0  0  0  0  0  0  0  0
   -4.1822   60.6565   79.9087 H   0  0  0  0  0  0  0  0  0  0  0  0
   -4.9710   61.0936   78.3552 H   0  0  0  0  0  0  0  0  0  0  0  0
   -3.4842   60.0856   78.3552 H   0  0  0  0  0  0  0  0  0  0  0  0
   -1.1003   63.0973   80.7039 H   0  0  0  0  0  0  0  0  0  0  0  0
    1.7125   59.6128   71.6844 H   0  0  0  0  0  0  0  0  0  0  0  0
    5.5038   59.5247   70.9521 H   0  0  0  0  0  0  0  0  0  0  0  0
    5.2154   60.7137   73.4120 H   0  0  0  0  0  0  0  0  0  0  0  0
    6.6252   60.8925   72.3134 H   0  0  0  0  0  0  0  0  0  0  0  0
    5.3238   62.1307   72.3134 H   0  0  0  0  0  0  0  0  0  0  0  0
    5.0614   62.0413   70.1184 H   0  0  0  0  0  0  0  0  0  0  0  0
    4.5884   60.5384   69.2145 H   0  0  0  0  0  0  0  0  0  0  0  0
    2.4416   60.7711   69.6032 H   0  0  0  0  0  0  0  0  0  0  0  0
    3.0064   62.3304   72.2123 H   0  0  0  0  0  0  0  0  0  0  0  0
    1.6957   62.7645   69.1464 H   0  0  0  0  0  0  0  0  0  0  0  0
    2.7003   63.8938   71.2736 H   0  0  0  0  0  0  0  0  0  0  0  0
    3.6076   64.7199   69.9618 H   0  0  0  0  0  0  0  0  0  0  0  0
    1.8114   64.7398   69.9618 H   0  0  0  0  0  0  0  0  0  0  0  0
    4.5330   63.1927   68.3632 H   0  0  0  0  0  0  0  0  0  0  0  0
    3.3860   62.0844   67.5369 H   0  0  0  0  0  0  0  0  0  0  0  0
    3.0819   63.8548   67.5369 H   0  0  0  0  0  0  0  0  0  0  0  0
    0.7463   62.3326   72.4225 H   0  0  0  0  0  0  0  0  0  0  0  0
  2  1  1  0
  3  2  1  0
  4  3  2  0
  5  3  1  0
  6  5  1  0
  7  5  1  0
  8  7  1  0
  9  8  1  0
 10  8  1  0
 11 10  1  0
 12 11  1  0
 13 12  1  0
 14 13  1  0
 15 14  2  0
 16 14  1  0
 17 16  1  0
 18 17  1  0
 18  1  1  0
 19 18  1  0
 20 16  1  0
 21 13  1  0
 22 11  1  0
 24 23  1  0
 24  1  1  0
 18 25  1  1
 26 17  1  0
 11 27  1  1
 28  7  1  0
 29 28  1  0
 30 29  1  0
 31 30  1  0
 32 31  1  0
 33 31  1  0
 34 33  1  0
 35 29  1  0
 35 34  1  0
 36 34  1  0
 34 37  1  1
 38 37  1  0
 39 33  1  0
 40 10  1  0
 41 40  1  0
 42 41  1  0
 43 42  1  0
 44 43  1  0
 45 43  1  0
 46 45  1  0
 47 46  1  0
 47 41  1  0
 48 46  1  0
 49 48  1  0
 50 48  1  0
 51 47  1  0
  1 52  1  6
  5 53  1  6
  6 54  1  0
  6 55  1  0
  6 56  1  0
  7 57  1  1
  8 58  1  1
  9 59  1  0
  9 60  1  0
  9 61  1  0
 10 62  1  6
 12 63  1  0
 12 64  1  0
 13 65  1  6
 16 66  1  6
 17 67  1  6
 19 68  1  0
 19 69  1  0
 19 70  1  0
 20 71  1  0
 20 72  1  0
 20 73  1  0
 21 74  1  0
 21 75  1  0
 21 76  1  0
 22 77  1  0
 22 78  1  0
 22 79  1  0
 23 80  1  0
 23 81  1  0
 23 82  1  0
 24 83  1  0
 24 84  1  0
 25 85  1  0
 26 86  1  0
 27 87  1  0
 29 88  1  6
 31 89  1  1
 32 90  1  0
 32 91  1  0
 32 92  1  0
 33 93  1  6
 35 94  1  0
 35 95  1  0
 36 96  1  0
 36 97  1  0
 36 98  1  0
 38 99  1  0
 38100  1  0
 38101  1  0
 39102  1  0
 41103  1  6
 43104  1  6
 44105  1  0
 44106  1  0
 44107  1  0
 45108  1  0
 45109  1  0
 46110  1  6
 47111  1  1
 48112  1  0
 49113  1  0
 49114  1  0
 49115  1  0
 50116  1  0
 50117  1  0
 50118  1  0
 51119  1  0
M  CHG  1  48   1
M  END
>  <score>  (2) 
-6.945

$$$$
=
     RDKit          3D

119121  0  0  0  0  0  0  0  0999 V2000
   -1.5670   55.7350   77.5610 C   0  0  1  0  0  0  0  0  0  0  0  0
   -2.4840   56.6310   78.2410 O   0  0  0  0  0  0  0  0  0  0  0  0
   -2.4300   57.9740   78.0760 C   0  0  0  0  0  0  0  0  0  0  0  0
   -2.2990   58.7060   79.0580 O   0  0  0  0  0  0  0  0  0  0  0  0
   -2.6490   58.5960   76.6850 C   0  0  2  0  0  0  0  0  0  0  0  0
   -3.1500   57.6800   75.5790 C   0  0  0  0  0  0  0  0  0  0  0  0
   -1.5300   59.6440   76.3610 C   0  0  2  0  0  0  0  0  0  0  0  0
   -1.1920   60.0970   74.8950 C   0  0  2  0  0  0  0  0  0  0  0  0
   -2.3930   60.8990   74.3500 C   0  0  0  0  0  0  0  0  0  0  0  0
   -0.6320   59.0950   73.8110 C   0  0  2  0  0  0  0  0  0  0  0  0
    0.4790   58.0660   74.2430 C   0  0  2  0  0  0  0  0  0  0  0  0
    1.8080   58.6660   74.7530 C   0  0  0  0  0  0  0  0  0  0  0  0
    2.9120   57.6430   75.1430 C   0  0  2  0  0  0  0  0  0  0  0  0
    2.5430   56.3690   75.9490 C   0  0  0  0  0  0  0  0  0  0  0  0
    2.8810   55.2650   75.4960 O   0  0  0  0  0  0  0  0  0  0  0  0
    1.8780   56.4320   77.3380 C   0  0  1  0  0  0  0  0  0  0  0  0
    0.9770   55.1600   77.5240 C   0  0  2  0  0  0  0  0  0  0  0  0
   -0.3260   55.2740   78.4260 C   0  0  1  0  0  0  0  0  0  0  0  0
   -0.1290   56.1120   79.6840 C   0  0  0  0  0  0  0  0  0  0  0  0
    2.9900   56.5370   78.3870 C   0  0  0  0  0  0  0  0  0  0  0  0
    4.1010   58.3620   75.7780 C   0  0  0  0  0  0  0  0  0  0  0  0
    0.7420   57.0870   73.0920 C   0  0  0  0  0  0  0  0  0  0  0  0
   -1.9940   54.1830   75.5360 C   0  0  0  0  0  0  0  0  0  0  0  0
   -2.3770   54.5630   76.9620 C   0  0  0  0  0  0  0  0  0  0  0  0
   -0.5810   53.9380   78.9250 O   0  0  0  0  0  0  0  0  0  0  0  0
    1.7870   54.0930   78.0740 O   0  0  0  0  0  0  0  0  0  0  0  0
   -0.0340   57.2930   75.3060 O   0  0  0  0  0  0  0  0  0  0  0  0
   -0.3020   59.3070   77.0500 O   0  0  0  0  0  0  0  0  0  0  0  0
    0.2700   60.4670   77.7080 C   0  0  2  0  0  0  0  0  0  0  0  0
    0.3830   61.5270   76.7590 O   0  0  0  0  0  0  0  0  0  0  0  0
    1.4060   62.4980   77.0260 C   0  0  1  0  0  0  0  0  0  0  0  0
    0.9460   63.8120   76.4030 C   0  0  0  0  0  0  0  0  0  0  0  0
    1.6960   62.6340   78.5270 C   0  0  1  0  0  0  0  0  0  0  0  0
    2.2390   61.2810   79.0770 C   0  0  2  0  0  0  0  0  0  0  0  0
    1.6270   60.1040   78.2930 C   0  0  0  0  0  0  0  0  0  0  0  0
    1.9150   61.2020   80.5780 C   0  0  0  0  0  0  0  0  0  0  0  0
    3.6710   61.3120   78.8480 O   0  0  0  0  0  0  0  0  0  0  0  0
    4.4020   60.1690   79.2820 C   0  0  0  0  0  0  0  0  0  0  0  0
    2.6320   63.6820   78.7850 O   0  0  0  0  0  0  0  0  0  0  0  0
   -0.0960   59.8710   72.7040 O   0  0  0  0  0  0  0  0  0  0  0  0
    1.0490   60.6660   73.0290 C   0  0  2  0  0  0  0  0  0  0  0  0
    0.7130   61.9710   73.4950 O   0  0  0  0  0  0  0  0  0  0  0  0
    0.9960   63.0990   72.6700 C   0  0  2  0  0  0  0  0  0  0  0  0
   -0.0370   63.2670   71.5560 C   0  0  0  0  0  0  0  0  0  0  0  0
    2.4460   63.1250   72.1530 C   0  0  0  0  0  0  0  0  0  0  0  0
    3.0400   61.7310   72.0420 C   0  0  1  0  0  0  0  0  0  0  0  0
    1.9720   60.6700   71.7960 C   0  0  1  0  0  0  0  0  0  0  0  0
    4.1480   61.6050   70.9930 N   0  0  0  0  0  4  0  0  0  0  0  0
    4.2390   62.6930   69.9620 C   0  0  0  0  0  0  0  0  0  0  0  0
    5.4890   61.2760   71.5830 C   0  0  0  0  0  0  0  0  0  0  0  0
    2.6260   59.4100   71.5730 O   0  0  0  0  0  0  0  0  0  0  0  0
   -1.0855   56.2959   76.7465 H   0  0  0  0  0  0  0  0  0  0  0  0
   -3.5742   59.1886   76.7383 H   0  0  0  0  0  0  0  0  0  0  0  0
   -3.6327   56.7975   76.0243 H   0  0  0  0  0  0  0  0  0  0  0  0
   -3.8778   58.2210   74.9564 H   0  0  0  0  0  0  0  0  0  0  0  0
   -2.3019   57.3590   74.9564 H   0  0  0  0  0  0  0  0  0  0  0  0
   -2.0429   60.5449   76.7289 H   0  0  0  0  0  0  0  0  0  0  0  0
   -0.2712   60.6788   75.0488 H   0  0  0  0  0  0  0  0  0  0  0  0
   -2.9828   61.2929   75.1908 H   0  0  0  0  0  0  0  0  0  0  0  0
   -2.0273   61.7348   73.7354 H   0  0  0  0  0  0  0  0  0  0  0  0
   -3.0248   60.2409   73.7354 H   0  0  0  0  0  0  0  0  0  0  0  0
   -1.5046   58.4706   73.5688 H   0  0  0  0  0  0  0  0  0  0  0  0
    2.2124   59.3115   73.9594 H   0  0  0  0  0  0  0  0  0  0  0  0
    1.5559   59.1990   75.6817 H   0  0  0  0  0  0  0  0  0  0  0  0
    3.1545   57.2028   74.1645 H   0  0  0  0  0  0  0  0  0  0  0  0
    1.2240   57.3096   77.4480 H   0  0  0  0  0  0  0  0  0  0  0  0
    0.5934   54.9821   76.5085 H   0  0  0  0  0  0  0  0  0  0  0  0
   -0.2775   55.4804   80.5723 H   0  0  0  0  0  0  0  0  0  0  0  0
    0.8906   56.5246   79.6938 H   0  0  0  0  0  0  0  0  0  0  0  0
   -0.8580   56.9357   79.6938 H   0  0  0  0  0  0  0  0  0  0  0  0
    2.5493   56.4954   79.3940 H   0  0  0  0  0  0  0  0  0  0  0  0
    3.6939   55.7013   78.2600 H   0  0  0  0  0  0  0  0  0  0  0  0
    3.5251   57.4897   78.2600 H   0  0  0  0  0  0  0  0  0  0  0  0
    4.0175   58.3115   76.8737 H   0  0  0  0  0  0  0  0  0  0  0  0
    5.0356   57.8775   75.4588 H   0  0  0  0  0  0  0  0  0  0  0  0
    4.1061   59.4146   75.4588 H   0  0  0  0  0  0  0  0  0  0  0  0
    1.0068   56.1013   73.5023 H   0  0  0  0  0  0  0  0  0  0  0  0
   -0.1635   56.9958   72.4741 H   0  0  0  0  0  0  0  0  0  0  0  0
    1.5713   57.4618   72.4741 H   0  0  0  0  0  0  0  0  0  0  0  0
   -1.2133   53.4084   75.5601 H   0  0  0  0  0  0  0  0  0  0  0  0
   -2.8788   53.7956   75.0096 H   0  0  0  0  0  0  0  0  0  0  0  0
   -1.6136   55.0708   75.0096 H   0  0  0  0  0  0  0  0  0  0  0  0
   -3.4404   54.8443   76.9671 H   0  0  0  0  0  0  0  0  0  0  0  0
   -2.1570   53.6842   77.5860 H   0  0  0  0  0  0  0  0  0  0  0  0
   -0.5788   53.9495   79.9149 H   0  0  0  0  0  0  0  0  0  0  0  0
    1.7572   54.1322   79.0628 H   0  0  0  0  0  0  0  0  0  0  0  0
    0.2349   57.6981   76.1684 H   0  0  0  0  0  0  0  0  0  0  0  0
   -0.3781   60.7987   78.5326 H   0  0  0  0  0  0  0  0  0  0  0  0
    2.3613   62.1812   76.5821 H   0  0  0  0  0  0  0  0  0  0  0  0
    0.6954   64.5277   77.1999 H   0  0  0  0  0  0  0  0  0  0  0  0
    1.7531   64.2247   75.7799 H   0  0  0  0  0  0  0  0  0  0  0  0
    0.0577   63.6312   75.7799 H   0  0  0  0  0  0  0  0  0  0  0  0
    0.7571   62.8914   79.0391 H   0  0  0  0  0  0  0  0  0  0  0  0
    1.5055   59.2472   78.9721 H   0  0  0  0  0  0  0  0  0  0  0  0
    2.3041   59.8539   77.4630 H   0  0  0  0  0  0  0  0  0  0  0  0
    2.8213   61.4230   81.1609 H   0  0  0  0  0  0  0  0  0  0  0  0
    1.1332   61.9358   80.8235 H   0  0  0  0  0  0  0  0  0  0  0  0
    1.5587   60.1907   80.8235 H   0  0  0  0  0  0  0  0  0  0  0  0
    4.4199   60.1410   80.3815 H   0  0  0  0  0  0  0  0  0  0  0  0
    3.9186   59.2578   78.8998 H   0  0  0  0  0  0  0  0  0  0  0  0
    5.4319   60.2256   78.8998 H   0  0  0  0  0  0  0  0  0  0  0  0
    2.7359   63.7984   79.7626 H   0  0  0  0  0  0  0  0  0  0  0  0
    1.5814   60.2238   73.8840 H   0  0  0  0  0  0  0  0  0  0  0  0
    0.9061   63.9838   73.3173 H   0  0  0  0  0  0  0  0  0  0  0  0
   -1.0309   63.4286   71.9989 H   0  0  0  0  0  0  0  0  0  0  0  0
    0.2324   64.1331   70.9337 H   0  0  0  0  0  0  0  0  0  0  0  0
   -0.0560   62.3601   70.9337 H   0  0  0  0  0  0  0  0  0  0  0  0
    2.4595   63.5961   71.1591 H   0  0  0  0  0  0  0  0  0  0  0  0
    3.0517   63.6941   72.8736 H   0  0  0  0  0  0  0  0  0  0  0  0
    3.5058   61.5539   73.0226 H   0  0  0  0  0  0  0  0  0  0  0  0
    1.3584   60.8729   70.9058 H   0  0  0  0  0  0  0  0  0  0  0  0
    3.8291   60.7899   70.4500 H   0  0  0  0  0  0  0  0  0  0  0  0
    4.3206   63.6682   70.4643 H   0  0  0  0  0  0  0  0  0  0  0  0
    5.1266   62.5290   69.3332 H   0  0  0  0  0  0  0  0  0  0  0  0
    3.3365   62.6787   69.3332 H   0  0  0  0  0  0  0  0  0  0  0  0
    5.4207   61.2928   72.6807 H   0  0  0  0  0  0  0  0  0  0  0  0
    5.8003   60.2748   71.2502 H   0  0  0  0  0  0  0  0  0  0  0  0
    6.2284   62.0194   71.2502 H   0  0  0  0  0  0  0  0  0  0  0  0
    2.8429   58.9921   72.4439 H   0  0  0  0  0  0  0  0  0  0  0  0
  2  1  1  0
  3  2  1  0
  4  3  2  0
  5  3  1  0
  6  5  1  0
  7  5  1  0
  8  7  1  0
  9  8  1  0
 10  8  1  0
 11 10  1  0
 12 11  1  0
 13 12  1  0
 14 13  1  0
 15 14  2  0
 16 14  1  0
 17 16  1  0
 18 17  1  0
 18  1  1  0
 19 18  1  0
 20 16  1  0
 21 13  1  0
 22 11  1  0
 24 23  1  0
 24  1  1  0
 18 25  1  1
 26 17  1  0
 11 27  1  1
 28  7  1  0
 29 28  1  0
 30 29  1  0
 31 30  1  0
 32 31  1  0
 33 31  1  0
 34 33  1  0
 35 29  1  0
 35 34  1  0
 36 34  1  0
 34 37  1  1
 38 37  1  0
 39 33  1  0
 40 10  1  0
 41 40  1  0
 42 41  1  0
 43 42  1  0
 44 43  1  0
 45 43  1  0
 46 45  1  0
 47 46  1  0
 47 41  1  0
 48 46  1  0
 49 48  1  0
 50 48  1  0
 51 47  1  0
  1 52  1  6
  5 53  1  1
  6 54  1  0
  6 55  1  0
  6 56  1  0
  7 57  1  1
  8 58  1  1
  9 59  1  0
  9 60  1  0
  9 61  1  0
 10 62  1  6
 12 63  1  0
 12 64  1  0
 13 65  1  6
 16 66  1  6
 17 67  1  6
 19 68  1  0
 19 69  1  0
 19 70  1  0
 20 71  1  0
 20 72  1  0
 20 73  1  0
 21 74  1  0
 21 75  1  0
 21 76  1  0
 22 77  1  0
 22 78  1  0
 22 79  1  0
 23 80  1  0
 23 81  1  0
 23 82  1  0
 24 83  1  0
 24 84  1  0
 25 85  1  0
 26 86  1  0
 27 87  1  0
 29 88  1  1
 31 89  1  6
 32 90  1  0
 32 91  1  0
 32 92  1  0
 33 93  1  1
 35 94  1  0
 35 95  1  0
 36 96  1  0
 36 97  1  0
 36 98  1  0
 38 99  1  0
 38100  1  0
 38101  1  0
 39102  1  0
 41103  1  1
 43104  1  1
 44105  1  0
 44106  1  0
 44107  1  0
 45108  1  0
 45109  1  0
 46110  1  1
 47111  1  6
 48112  1  0
 49113  1  0
 49114  1  0
 49115  1  0
 50116  1  0
 50117  1  0
 50118  1  0
 51119  1  0
M  CHG  1  48   1
M  END
>  <score>  (3) 
-6.921

$$$$
=
     RDKit          3D

119121  0  0  0  0  0  0  0  0999 V2000
    0.2220   55.0500   76.8100 C   0  0  1  0  0  0  0  0  0  0  0  0
   -1.1980   55.2980   76.6380 O   0  0  0  0  0  0  0  0  0  0  0  0
   -1.6850   56.5380   76.3930 C   0  0  0  0  0  0  0  0  0  0  0  0
   -2.5390   57.0180   77.1390 O   0  0  0  0  0  0  0  0  0  0  0  0
   -1.2660   57.3000   75.1220 C   0  0  2  0  0  0  0  0  0  0  0  0
   -0.4890   56.5290   74.0660 C   0  0  0  0  0  0  0  0  0  0  0  0
   -0.8350   58.7660   75.4700 C   0  0  2  0  0  0  0  0  0  0  0  0
    0.0660   59.6320   74.5180 C   0  0  2  0  0  0  0  0  0  0  0  0
   -0.7460   59.9500   73.2440 C   0  0  0  0  0  0  0  0  0  0  0  0
    1.5520   59.2300   74.1660 C   0  0  2  0  0  0  0  0  0  0  0  0
    2.4800   58.6990   75.3230 C   0  0  2  0  0  0  0  0  0  0  0  0
    2.7450   59.6750   76.4910 C   0  0  0  0  0  0  0  0  0  0  0  0
    3.6910   59.1570   77.6100 C   0  0  2  0  0  0  0  0  0  0  0  0
    3.5530   57.7030   78.1340 C   0  0  0  0  0  0  0  0  0  0  0  0
    4.5580   56.9770   78.1330 O   0  0  0  0  0  0  0  0  0  0  0  0
    2.2500   57.1690   78.7590 C   0  0  1  0  0  0  0  0  0  0  0  0
    2.1460   55.6290   78.4720 C   0  0  2  0  0  0  0  0  0  0  0  0
    0.7060   54.9780   78.3130 C   0  0  1  0  0  0  0  0  0  0  0  0
   -0.3230   55.5180   79.3000 C   0  0  0  0  0  0  0  0  0  0  0  0
    2.2760   57.4980   80.2550 C   0  0  0  0  0  0  0  0  0  0  0  0
    3.7350   60.1500   78.7700 C   0  0  0  0  0  0  0  0  0  0  0  0
    3.8040   58.2060   74.7280 C   0  0  0  0  0  0  0  0  0  0  0  0
    1.8820   53.9680   75.1460 C   0  0  0  0  0  0  0  0  0  0  0  0
    0.6100   53.8100   75.9710 C   0  0  0  0  0  0  0  0  0  0  0  0
    0.8570   53.5860   78.6840 O   0  0  0  0  0  0  0  0  0  0  0  0
    2.8270   54.9120   79.5300 O   0  0  0  0  0  0  0  0  0  0  0  0
    1.8600   57.5680   75.8930 O   0  0  0  0  0  0  0  0  0  0  0  0
   -0.3090   58.8360   76.8170 O   0  0  0  0  0  0  0  0  0  0  0  0
   -0.9460   59.8960   77.5780 C   0  0  2  0  0  0  0  0  0  0  0  0
   -2.0940   60.3520   76.8630 O   0  0  0  0  0  0  0  0  0  0  0  0
   -2.4950   61.7050   77.1240 C   0  0  1  0  0  0  0  0  0  0  0  0
   -4.0000   61.7770   76.8840 C   0  0  0  0  0  0  0  0  0  0  0  0
   -2.1070   62.1610   78.5380 C   0  0  1  0  0  0  0  0  0  0  0  0
   -0.5560   62.1410   78.6830 C   0  0  2  0  0  0  0  0  0  0  0  0
    0.0470   61.0270   77.8060 C   0  0  0  0  0  0  0  0  0  0  0  0
   -0.2100   61.9520   80.1700 C   0  0  0  0  0  0  0  0  0  0  0  0
   -0.1010   63.4290   78.1970 O   0  0  0  0  0  0  0  0  0  0  0  0
    0.8820   63.4010   77.1660 C   0  0  0  0  0  0  0  0  0  0  0  0
   -2.6120   63.4670   78.8220 O   0  0  0  0  0  0  0  0  0  0  0  0
    2.2120   60.3840   73.5770 O   0  0  0  0  0  0  0  0  0  0  0  0
    2.4930   60.2640   72.1790 C   0  0  2  0  0  0  0  0  0  0  0  0
    3.7120   59.5760   71.9090 O   0  0  0  0  0  0  0  0  0  0  0  0
    4.8220   60.3040   71.3880 C   0  0  2  0  0  0  0  0  0  0  0  0
    5.5490   61.0940   72.4760 C   0  0  0  0  0  0  0  0  0  0  0  0
    4.4650   61.1620   70.1610 C   0  0  0  0  0  0  0  0  0  0  0  0
    3.0060   61.5850   70.1630 C   0  0  1  0  0  0  0  0  0  0  0  0
    2.4370   61.6800   71.5750 C   0  0  1  0  0  0  0  0  0  0  0  0
    2.7300   62.8850   69.4030 N   0  0  0  0  0  4  0  0  0  0  0  0
    2.7570   64.1590   70.1980 C   0  0  0  0  0  0  0  0  0  0  0  0
    3.5100   63.0030   68.1260 C   0  0  0  0  0  0  0  0  0  0  0  0
    1.1040   62.2090   71.4940 O   0  0  0  0  0  0  0  0  0  0  0  0
    0.7683   55.9276   76.4339 H   0  0  0  0  0  0  0  0  0  0  0  0
   -2.1675   57.4163   74.5025 H   0  0  0  0  0  0  0  0  0  0  0  0
    0.2094   55.8360   74.5578 H   0  0  0  0  0  0  0  0  0  0  0  0
   -1.1899   55.9592   73.4382 H   0  0  0  0  0  0  0  0  0  0  0  0
    0.0754   57.2343   73.4382 H   0  0  0  0  0  0  0  0  0  0  0  0
   -1.8067   59.2591   75.3197 H   0  0  0  0  0  0  0  0  0  0  0  0
    0.2948   60.4981   75.1564 H   0  0  0  0  0  0  0  0  0  0  0  0
   -1.7357   60.3376   73.5272 H   0  0  0  0  0  0  0  0  0  0  0  0
   -0.2129   60.7058   72.6485 H   0  0  0  0  0  0  0  0  0  0  0  0
   -0.8679   59.0332   72.6485 H   0  0  0  0  0  0  0  0  0  0  0  0
    1.4282   58.3667   73.4956 H   0  0  0  0  0  0  0  0  0  0  0  0
    3.1893   60.5895   76.0712 H   0  0  0  0  0  0  0  0  0  0  0  0
    1.7696   59.8300   76.9753 H   0  0  0  0  0  0  0  0  0  0  0  0
    4.6475   59.0908   77.0708 H   0  0  0  0  0  0  0  0  0  0  0  0
    1.3563   57.6398   78.3236 H   0  0  0  0  0  0  0  0  0  0  0  0
    2.6000   55.5359   77.4744 H   0  0  0  0  0  0  0  0  0  0  0  0
    0.0240   55.3359   80.3278 H   0  0  0  0  0  0  0  0  0  0  0  0
   -0.4504   56.5991   79.1421 H   0  0  0  0  0  0  0  0  0  0  0  0
   -1.2851   55.0086   79.1421 H   0  0  0  0  0  0  0  0  0  0  0  0
    2.2024   56.5672   80.8365 H   0  0  0  0  0  0  0  0  0  0  0  0
    3.2175   58.0108   80.5014 H   0  0  0  0  0  0  0  0  0  0  0  0
    1.4268   58.1523   80.5014 H   0  0  0  0  0  0  0  0  0  0  0  0
    3.7107   59.6016   79.7232 H   0  0  0  0  0  0  0  0  0  0  0  0
    4.6603   60.7420   78.7110 H   0  0  0  0  0  0  0  0  0  0  0  0
    2.8657   60.8215   78.7110 H   0  0  0  0  0  0  0  0  0  0  0  0
    4.4979   57.9476   75.5415 H   0  0  0  0  0  0  0  0  0  0  0  0
    3.6187   57.3166   74.1078 H   0  0  0  0  0  0  0  0  0  0  0  0
    4.2455   59.0000   74.1078 H   0  0  0  0  0  0  0  0  0  0  0  0
    2.7450   54.0752   75.8196 H   0  0  0  0  0  0  0  0  0  0  0  0
    2.0202   53.0801   74.5115 H   0  0  0  0  0  0  0  0  0  0  0  0
    1.7988   54.8627   74.5115 H   0  0  0  0  0  0  0  0  0  0  0  0
   -0.2191   53.5898   75.2825 H   0  0  0  0  0  0  0  0  0  0  0  0
    0.8055   52.9997   76.6888 H   0  0  0  0  0  0  0  0  0  0  0  0
    0.8656   53.5065   79.6708 H   0  0  0  0  0  0  0  0  0  0  0  0
    2.5126   55.2430   80.4084 H   0  0  0  0  0  0  0  0  0  0  0  0
    1.8963   57.6342   76.8801 H   0  0  0  0  0  0  0  0  0  0  0  0
   -1.2680   59.5225   78.5612 H   0  0  0  0  0  0  0  0  0  0  0  0
   -1.9691   62.3979   76.4507 H   0  0  0  0  0  0  0  0  0  0  0  0
   -4.5246   61.8021   77.8505 H   0  0  0  0  0  0  0  0  0  0  0  0
   -4.2373   62.6875   76.3142 H   0  0  0  0  0  0  0  0  0  0  0  0
   -4.3231   60.8933   76.3142 H   0  0  0  0  0  0  0  0  0  0  0  0
   -2.5555   61.4651   79.2623 H   0  0  0  0  0  0  0  0  0  0  0  0
    0.9400   60.6231   78.3054 H   0  0  0  0  0  0  0  0  0  0  0  0
    0.3065   61.4601   76.8287 H   0  0  0  0  0  0  0  0  0  0  0  0
   -1.0073   62.3875   80.7902 H   0  0  0  0  0  0  0  0  0  0  0  0
   -0.1182   60.8785   80.3915 H   0  0  0  0  0  0  0  0  0  0  0  0
    0.7429   62.4549   80.3915 H   0  0  0  0  0  0  0  0  0  0  0  0
    1.8851   63.3724   77.6165 H   0  0  0  0  0  0  0  0  0  0  0  0
    0.7343   62.5067   76.5428 H   0  0  0  0  0  0  0  0  0  0  0  0
    0.7855   64.3023   76.5428 H   0  0  0  0  0  0  0  0  0  0  0  0
   -2.6617   63.5956   79.8024 H   0  0  0  0  0  0  0  0  0  0  0  0
    1.7345   59.6297   71.6970 H   0  0  0  0  0  0  0  0  0  0  0  0
    5.5342   59.5531   71.0151 H   0  0  0  0  0  0  0  0  0  0  0  0
    5.2235   60.7403   73.4654 H   0  0  0  0  0  0  0  0  0  0  0  0
    6.6342   60.9469   72.3728 H   0  0  0  0  0  0  0  0  0  0  0  0
    5.3124   62.1633   72.3728 H   0  0  0  0  0  0  0  0  0  0  0  0
    5.0954   62.0634   70.1632 H   0  0  0  0  0  0  0  0  0  0  0  0
    4.6397   60.5543   69.2609 H   0  0  0  0  0  0  0  0  0  0  0  0
    2.4887   60.7808   69.6192 H   0  0  0  0  0  0  0  0  0  0  0  0
    3.0094   62.3569   72.2263 H   0  0  0  0  0  0  0  0  0  0  0  0
    1.7348   62.7773   69.1604 H   0  0  0  0  0  0  0  0  0  0  0  0
    2.7520   63.9212   71.2720 H   0  0  0  0  0  0  0  0  0  0  0  0
    3.6674   64.7254   69.9521 H   0  0  0  0  0  0  0  0  0  0  0  0
    1.8715   64.7635   69.9521 H   0  0  0  0  0  0  0  0  0  0  0  0
    4.5729   63.1638   68.3591 H   0  0  0  0  0  0  0  0  0  0  0  0
    3.3987   62.0778   67.5415 H   0  0  0  0  0  0  0  0  0  0  0  0
    3.1300   63.8539   67.5415 H   0  0  0  0  0  0  0  0  0  0  0  0
    0.7488   62.3499   72.4073 H   0  0  0  0  0  0  0  0  0  0  0  0
  2  1  1  0
  3  2  1  0
  4  3  2  0
  5  3  1  0
  6  5  1  0
  7  5  1  0
  8  7  1  0
  9  8  1  0
 10  8  1  0
 11 10  1  0
 12 11  1  0
 13 12  1  0
 14 13  1  0
 15 14  2  0
 16 14  1  0
 17 16  1  0
 18 17  1  0
 18  1  1  0
 19 18  1  0
 20 16  1  0
 21 13  1  0
 22 11  1  0
 24 23  1  0
 24  1  1  0
 18 25  1  1
 26 17  1  0
 11 27  1  1
 28  7  1  0
 29 28  1  0
 30 29  1  0
 31 30  1  0
 32 31  1  0
 33 31  1  0
 34 33  1  0
 35 29  1  0
 35 34  1  0
 36 34  1  0
 34 37  1  6
 38 37  1  0
 39 33  1  0
 40 10  1  0
 41 40  1  0
 42 41  1  0
 43 42  1  0
 44 43  1  0
 45 43  1  0
 46 45  1  0
 47 46  1  0
 47 41  1  0
 48 46  1  0
 49 48  1  0
 50 48  1  0
 51 47  1  0
  1 52  1  6
  5 53  1  6
  6 54  1  0
  6 55  1  0
  6 56  1  0
  7 57  1  1
  8 58  1  1
  9 59  1  0
  9 60  1  0
  9 61  1  0
 10 62  1  6
 12 63  1  0
 12 64  1  0
 13 65  1  6
 16 66  1  6
 17 67  1  6
 19 68  1  0
 19 69  1  0
 19 70  1  0
 20 71  1  0
 20 72  1  0
 20 73  1  0
 21 74  1  0
 21 75  1  0
 21 76  1  0
 22 77  1  0
 22 78  1  0
 22 79  1  0
 23 80  1  0
 23 81  1  0
 23 82  1  0
 24 83  1  0
 24 84  1  0
 25 85  1  0
 26 86  1  0
 27 87  1  0
 29 88  1  1
 31 89  1  6
 32 90  1  0
 32 91  1  0
 32 92  1  0
 33 93  1  1
 35 94  1  0
 35 95  1  0
 36 96  1  0
 36 97  1  0
 36 98  1  0
 38 99  1  0
 38100  1  0
 38101  1  0
 39102  1  0
 41103  1  6
 43104  1  6
 44105  1  0
 44106  1  0
 44107  1  0
 45108  1  0
 45109  1  0
 46110  1  6
 47111  1  1
 48112  1  0
 49113  1  0
 49114  1  0
 49115  1  0
 50116  1  0
 50117  1  0
 50118  1  0
 51119  1  0
M  CHG  1  48   1
M  END
>  <score>  (4) 
-6.904

$$$$
=
     RDKit          3D

119121  0  0  0  0  0  0  0  0999 V2000
   -2.4360   60.8010   79.1950 C   0  0  1  0  0  0  0  0  0  0  0  0
   -1.3280   61.4260   79.8950 O   0  0  0  0  0  0  0  0  0  0  0  0
   -0.1440   61.6740   79.2860 C   0  0  0  0  0  0  0  0  0  0  0  0
    0.8970   61.2200   79.7640 O   0  0  0  0  0  0  0  0  0  0  0  0
   -0.0760   62.6160   78.0700 C   0  0  2  0  0  0  0  0  0  0  0  0
   -1.3250   63.4190   77.7360 C   0  0  0  0  0  0  0  0  0  0  0  0
    0.7460   61.9660   76.9060 C   0  0  2  0  0  0  0  0  0  0  0  0
    0.6140   62.4310   75.4110 C   0  0  2  0  0  0  0  0  0  0  0  0
    1.1870   63.8590   75.2990 C   0  0  0  0  0  0  0  0  0  0  0  0
   -0.7330   62.2880   74.6000 C   0  0  2  0  0  0  0  0  0  0  0  0
   -1.5570   60.9530   74.7420 C   0  0  2  0  0  0  0  0  0  0  0  0
   -0.8460   59.6580   74.2940 C   0  0  0  0  0  0  0  0  0  0  0  0
   -1.6800   58.3500   74.4040 C   0  0  2  0  0  0  0  0  0  0  0  0
   -2.5530   58.0870   75.6590 C   0  0  0  0  0  0  0  0  0  0  0  0
   -3.7550   57.8250   75.4980 O   0  0  0  0  0  0  0  0  0  0  0  0
   -1.9620   58.0260   77.0800 C   0  0  1  0  0  0  0  0  0  0  0  0
   -3.0490   58.5150   78.1010 C   0  0  2  0  0  0  0  0  0  0  0  0
   -2.5750   59.2440   79.4300 C   0  0  1  0  0  0  0  0  0  0  0  0
   -1.3350   58.6210   80.0620 C   0  0  0  0  0  0  0  0  0  0  0  0
   -1.5040   56.5860   77.3370 C   0  0  0  0  0  0  0  0  0  0  0  0
   -0.8080   57.1370   74.0850 C   0  0  0  0  0  0  0  0  0  0  0  0
   -2.9000   61.1040   74.0170 C   0  0  0  0  0  0  0  0  0  0  0  0
   -4.6330   61.8400   78.3080 C   0  0  0  0  0  0  0  0  0  0  0  0
   -3.7250   61.5950   79.5080 C   0  0  0  0  0  0  0  0  0  0  0  0
   -3.6220   59.0150   80.4040 O   0  0  0  0  0  0  0  0  0  0  0  0
   -3.8570   57.3810   78.4990 O   0  0  0  0  0  0  0  0  0  0  0  0
   -1.8660   60.7770   76.1070 O   0  0  0  0  0  0  0  0  0  0  0  0
    0.6570   60.5220   76.9650 O   0  0  0  0  0  0  0  0  0  0  0  0
    1.9680   59.9070   76.8640 C   0  0  2  0  0  0  0  0  0  0  0  0
    2.2690   59.6840   75.4870 O   0  0  0  0  0  0  0  0  0  0  0  0
    3.1870   58.6150   75.2140 C   0  0  1  0  0  0  0  0  0  0  0  0
    3.8990   58.9610   73.9110 C   0  0  0  0  0  0  0  0  0  0  0  0
    4.1680   58.3840   76.3720 C   0  0  1  0  0  0  0  0  0  0  0  0
    3.3790   57.9540   77.6440 C   0  0  2  0  0  0  0  0  0  0  0  0
    1.9810   58.6040   77.6500 C   0  0  0  0  0  0  0  0  0  0  0  0
    4.2010   58.3490   78.8830 C   0  0  0  0  0  0  0  0  0  0  0  0
    3.2340   56.5140   77.5470 O   0  0  0  0  0  0  0  0  0  0  0  0
    2.0760   55.9550   78.1590 C   0  0  0  0  0  0  0  0  0  0  0  0
    5.1440   57.3950   76.0400 O   0  0  0  0  0  0  0  0  0  0  0  0
   -0.4380   62.4660   73.1870 O   0  0  0  0  0  0  0  0  0  0  0  0
    0.8780   62.9530   72.9070 C   0  0  2  0  0  0  0  0  0  0  0  0
    0.8870   64.2870   72.4040 O   0  0  0  0  0  0  0  0  0  0  0  0
    1.2380   64.5140   71.0400 C   0  0  2  0  0  0  0  0  0  0  0  0
    0.0800   64.2020   70.0940 C   0  0  0  0  0  0  0  0  0  0  0  0
    2.5520   63.8290   70.6280 C   0  0  0  0  0  0  0  0  0  0  0  0
    2.8350   62.5870   71.4560 C   0  0  1  0  0  0  0  0  0  0  0  0
    1.5560   61.9360   71.9700 C   0  0  1  0  0  0  0  0  0  0  0  0
    3.6990   61.5430   70.7430 N   0  0  0  0  0  4  0  0  0  0  0  0
    3.6620   61.5360   69.2420 C   0  0  0  0  0  0  0  0  0  0  0  0
    5.1030   61.4730   71.2710 C   0  0  0  0  0  0  0  0  0  0  0  0
    1.9040   60.7050   72.6250 O   0  0  0  0  0  0  0  0  0  0  0  0
   -2.2305   60.8540   78.1157 H   0  0  0  0  0  0  0  0  0  0  0  0
    0.5193   63.4901   78.3727 H   0  0  0  0  0  0  0  0  0  0  0  0
   -1.8173   63.7355   78.6673 H   0  0  0  0  0  0  0  0  0  0  0  0
   -1.0445   64.3064   77.1496 H   0  0  0  0  0  0  0  0  0  0  0  0
   -2.0159   62.7954   77.1496 H   0  0  0  0  0  0  0  0  0  0  0  0
    1.7319   62.3871   77.1525 H   0  0  0  0  0  0  0  0  0  0  0  0
    1.1874   61.6538   74.8845 H   0  0  0  0  0  0  0  0  0  0  0  0
    1.3512   64.2683   76.3067 H   0  0  0  0  0  0  0  0  0  0  0  0
    2.1427   63.8290   74.7552 H   0  0  0  0  0  0  0  0  0  0  0  0
    0.4756   64.4979   74.7552 H   0  0  0  0  0  0  0  0  0  0  0  0
   -1.3796   63.0579   75.0462 H   0  0  0  0  0  0  0  0  0  0  0  0
   -0.5520   59.7823   73.2413 H   0  0  0  0  0  0  0  0  0  0  0  0
    0.0000   59.5296   74.9852 H   0  0  0  0  0  0  0  0  0  0  0  0
   -2.4584   58.5252   73.6468 H   0  0  0  0  0  0  0  0  0  0  0  0
   -1.0898   58.6859   77.1971 H   0  0  0  0  0  0  0  0  0  0  0  0
   -3.5803   59.2947   77.5354 H   0  0  0  0  0  0  0  0  0  0  0  0
   -1.4209   58.6642   81.1578 H   0  0  0  0  0  0  0  0  0  0  0  0
   -1.2480   57.5722   79.7421 H   0  0  0  0  0  0  0  0  0  0  0  0
   -0.4416   59.1773   79.7421 H   0  0  0  0  0  0  0  0  0  0  0  0
   -1.4471   56.4072   78.4209 H   0  0  0  0  0  0  0  0  0  0  0  0
   -2.2240   55.8864   76.8873 H   0  0  0  0  0  0  0  0  0  0  0  0
   -0.5122   56.4309   76.8873 H   0  0  0  0  0  0  0  0  0  0  0  0
   -0.4723   56.6700   75.0227 H   0  0  0  0  0  0  0  0  0  0  0  0
   -1.3912   56.4095   73.5013 H   0  0  0  0  0  0  0  0  0  0  0  0
    0.0674   57.4580   73.5013 H   0  0  0  0  0  0  0  0  0  0  0  0
   -3.7083   61.1949   74.7576 H   0  0  0  0  0  0  0  0  0  0  0  0
   -2.8771   62.0052   73.3867 H   0  0  0  0  0  0  0  0  0  0  0  0
   -3.0778   60.2202   73.3867 H   0  0  0  0  0  0  0  0  0  0  0  0
   -5.6395   62.1116   78.6591 H   0  0  0  0  0  0  0  0  0  0  0  0
   -4.2234   62.6597   77.6995 H   0  0  0  0  0  0  0  0  0  0  0  0
   -4.6913   60.9255   77.6995 H   0  0  0  0  0  0  0  0  0  0  0  0
   -3.4332   62.5718   79.9213 H   0  0  0  0  0  0  0  0  0  0  0  0
   -4.3035   60.9802   80.2133 H   0  0  0  0  0  0  0  0  0  0  0  0
   -3.2473   59.0969   81.3167 H   0  0  0  0  0  0  0  0  0  0  0  0
   -3.8923   57.3315   79.4871 H   0  0  0  0  0  0  0  0  0  0  0  0
   -1.1534   61.1829   76.6616 H   0  0  0  0  0  0  0  0  0  0  0  0
    2.7365   60.5689   77.2898 H   0  0  0  0  0  0  0  0  0  0  0  0
    2.6462   57.6628   75.1098 H   0  0  0  0  0  0  0  0  0  0  0  0
    4.8674   59.4316   74.1361 H   0  0  0  0  0  0  0  0  0  0  0  0
    4.0642   58.0427   73.3284 H   0  0  0  0  0  0  0  0  0  0  0  0
    3.2791   59.6583   73.3284 H   0  0  0  0  0  0  0  0  0  0  0  0
    4.7008   59.3262   76.5678 H   0  0  0  0  0  0  0  0  0  0  0  0
    1.6876   58.8109   78.6898 H   0  0  0  0  0  0  0  0  0  0  0  0
    1.2746   57.9074   77.1748 H   0  0  0  0  0  0  0  0  0  0  0  0
    3.6441   58.0814   79.7931 H   0  0  0  0  0  0  0  0  0  0  0  0
    5.1623   57.8145   78.8709 H   0  0  0  0  0  0  0  0  0  0  0  0
    4.3843   59.4336   78.8709 H   0  0  0  0  0  0  0  0  0  0  0  0
    2.1792   56.0048   79.2530 H   0  0  0  0  0  0  0  0  0  0  0  0
    1.1867   56.5230   77.8484 H   0  0  0  0  0  0  0  0  0  0  0  0
    1.9676   54.9054   77.8484 H   0  0  0  0  0  0  0  0  0  0  0  0
    5.5218   57.0122   76.8711 H   0  0  0  0  0  0  0  0  0  0  0  0
    1.4548   63.0323   73.8403 H   0  0  0  0  0  0  0  0  0  0  0  0
    1.4377   65.5918   70.9481 H   0  0  0  0  0  0  0  0  0  0  0  0
   -0.8181   63.9600   70.6812 H   0  0  0  0  0  0  0  0  0  0  0  0
   -0.1215   65.0779   69.4598 H   0  0  0  0  0  0  0  0  0  0  0  0
    0.3458   63.3434   69.4598 H   0  0  0  0  0  0  0  0  0  0  0  0
    2.4844   63.5408   69.5686 H   0  0  0  0  0  0  0  0  0  0  0  0
    3.3724   64.5421   70.7970 H   0  0  0  0  0  0  0  0  0  0  0  0
    3.4202   62.9568   72.3108 H   0  0  0  0  0  0  0  0  0  0  0  0
    0.8483   61.6811   71.1673 H   0  0  0  0  0  0  0  0  0  0  0  0
    3.2186   60.6678   70.9962 H   0  0  0  0  0  0  0  0  0  0  0  0
    2.6343   61.3416   68.9015 H   0  0  0  0  0  0  0  0  0  0  0  0
    3.9954   62.5131   68.8624 H   0  0  0  0  0  0  0  0  0  0  0  0
    4.3293   60.7482   68.8624 H   0  0  0  0  0  0  0  0  0  0  0  0
    5.0816   61.4741   72.3708 H   0  0  0  0  0  0  0  0  0  0  0  0
    5.5832   60.5498   70.9145 H   0  0  0  0  0  0  0  0  0  0  0  0
    5.6727   62.3439   70.9145 H   0  0  0  0  0  0  0  0  0  0  0  0
    1.8682   60.8317   73.6062 H   0  0  0  0  0  0  0  0  0  0  0  0
  2  1  1  0
  3  2  1  0
  4  3  2  0
  5  3  1  0
  6  5  1  0
  7  5  1  0
  8  7  1  0
  9  8  1  0
 10  8  1  0
 11 10  1  0
 12 11  1  0
 13 12  1  0
 14 13  1  0
 15 14  2  0
 16 14  1  0
 17 16  1  0
 18 17  1  0
 18  1  1  0
 19 18  1  0
 20 16  1  0
 21 13  1  0
 22 11  1  0
 24 23  1  0
 24  1  1  0
 18 25  1  1
 26 17  1  0
 11 27  1  1
 28  7  1  0
 29 28  1  0
 30 29  1  0
 31 30  1  0
 32 31  1  0
 33 31  1  0
 34 33  1  0
 35 29  1  0
 35 34  1  0
 36 34  1  0
 34 37  1  6
 38 37  1  0
 39 33  1  0
 40 10  1  0
 41 40  1  0
 42 41  1  0
 43 42  1  0
 44 43  1  0
 45 43  1  0
 46 45  1  0
 47 46  1  0
 47 41  1  0
 48 46  1  0
 49 48  1  0
 50 48  1  0
 51 47  1  0
  1 52  1  6
  5 53  1  1
  6 54  1  0
  6 55  1  0
  6 56  1  0
  7 57  1  1
  8 58  1  6
  9 59  1  0
  9 60  1  0
  9 61  1  0
 10 62  1  1
 12 63  1  0
 12 64  1  0
 13 65  1  6
 16 66  1  6
 17 67  1  6
 19 68  1  0
 19 69  1  0
 19 70  1  0
 20 71  1  0
 20 72  1  0
 20 73  1  0
 21 74  1  0
 21 75  1  0
 21 76  1  0
 22 77  1  0
 22 78  1  0
 22 79  1  0
 23 80  1  0
 23 81  1  0
 23 82  1  0
 24 83  1  0
 24 84  1  0
 25 85  1  0
 26 86  1  0
 27 87  1  0
 29 88  1  1
 31 89  1  6
 32 90  1  0
 32 91  1  0
 32 92  1  0
 33 93  1  1
 35 94  1  0
 35 95  1  0
 36 96  1  0
 36 97  1  0
 36 98  1  0
 38 99  1  0
 38100  1  0
 38101  1  0
 39102  1  0
 41103  1  1
 43104  1  1
 44105  1  0
 44106  1  0
 44107  1  0
 45108  1  0
 45109  1  0
 46110  1  1
 47111  1  6
 48112  1  0
 49113  1  0
 49114  1  0
 49115  1  0
 50116  1  0
 50117  1  0
 50118  1  0
 51119  1  0
M  CHG  1  48   1
M  END
>  <score>  (5) 
-6.44

$$$$
=
     RDKit          3D

119121  0  0  0  0  0  0  0  0999 V2000
    2.7590   58.7190   74.6960 C   0  0  1  0  0  0  0  0  0  0  0  0
    2.1100   57.9650   73.6390 O   0  0  0  0  0  0  0  0  0  0  0  0
    0.7830   57.6970   73.6590 C   0  0  0  0  0  0  0  0  0  0  0  0
    0.3930   56.5300   73.5900 O   0  0  0  0  0  0  0  0  0  0  0  0
   -0.2430   58.8460   73.6460 C   0  0  2  0  0  0  0  0  0  0  0  0
    0.2800   60.2490   73.3790 C   0  0  0  0  0  0  0  0  0  0  0  0
   -1.3290   58.6340   74.7550 C   0  0  2  0  0  0  0  0  0  0  0  0
   -2.2120   59.8090   75.3110 C   0  0  2  0  0  0  0  0  0  0  0  0
   -3.1540   60.2780   74.1830 C   0  0  0  0  0  0  0  0  0  0  0  0
   -1.5910   61.0340   76.0890 C   0  0  2  0  0  0  0  0  0  0  0  0
   -0.4690   60.7550   77.1580 C   0  0  2  0  0  0  0  0  0  0  0  0
   -0.8690   59.8640   78.3550 C   0  0  0  0  0  0  0  0  0  0  0  0
    0.2340   59.6230   79.4230 C   0  0  2  0  0  0  0  0  0  0  0  0
    1.6920   59.3240   78.9840 C   0  0  0  0  0  0  0  0  0  0  0  0
    2.6030   60.0290   79.4420 O   0  0  0  0  0  0  0  0  0  0  0  0
    2.0570   58.1200   78.0950 C   0  0  1  0  0  0  0  0  0  0  0  0
    3.3160   58.4910   77.2340 C   0  0  2  0  0  0  0  0  0  0  0  0
    3.4760   57.8370   75.7950 C   0  0  1  0  0  0  0  0  0  0  0  0
    3.0720   56.3680   75.7420 C   0  0  0  0  0  0  0  0  0  0  0  0
    2.2930   56.9140   79.0100 C   0  0  0  0  0  0  0  0  0  0  0  0
   -0.2420   58.6030   80.4560 C   0  0  0  0  0  0  0  0  0  0  0  0
    0.1060   62.0870   77.6530 C   0  0  0  0  0  0  0  0  0  0  0  0
    3.9940   59.5420   72.5780 C   0  0  0  0  0  0  0  0  0  0  0  0
    3.6800   59.7790   74.0500 C   0  0  0  0  0  0  0  0  0  0  0  0
    4.8990   57.8240   75.5210 O   0  0  0  0  0  0  0  0  0  0  0  0
    4.5080   58.1660   77.9880 O   0  0  0  0  0  0  0  0  0  0  0  0
    0.5900   60.0860   76.5110 O   0  0  0  0  0  0  0  0  0  0  0  0
   -0.7840   57.8810   75.8650 O   0  0  0  0  0  0  0  0  0  0  0  0
   -1.6850   56.8210   76.2770 C   0  0  2  0  0  0  0  0  0  0  0  0
   -2.3380   57.2130   77.4850 O   0  0  0  0  0  0  0  0  0  0  0  0
   -2.7860   56.1420   78.3280 C   0  0  1  0  0  0  0  0  0  0  0  0
   -3.9870   56.6650   79.1100 C   0  0  0  0  0  0  0  0  0  0  0  0
   -3.1170   54.8740   77.5280 C   0  0  1  0  0  0  0  0  0  0  0  0
   -1.8280   54.3530   76.8260 C   0  0  2  0  0  0  0  0  0  0  0  0
   -0.9010   55.5310   76.4680 C   0  0  0  0  0  0  0  0  0  0  0  0
   -2.2440   53.5520   75.5800 C   0  0  0  0  0  0  0  0  0  0  0  0
   -1.1680   53.5050   77.7990 O   0  0  0  0  0  0  0  0  0  0  0  0
    0.2040   53.7910   78.0540 C   0  0  0  0  0  0  0  0  0  0  0  0
   -3.6680   53.8570   78.3660 O   0  0  0  0  0  0  0  0  0  0  0  0
   -2.6680   61.7390   76.7660 O   0  0  0  0  0  0  0  0  0  0  0  0
   -3.2040   62.8510   76.0430 C   0  0  2  0  0  0  0  0  0  0  0  0
   -2.4680   64.0560   76.2390 O   0  0  0  0  0  0  0  0  0  0  0  0
   -3.0560   65.1180   76.9880 C   0  0  2  0  0  0  0  0  0  0  0  0
   -2.9790   64.8650   78.4930 C   0  0  0  0  0  0  0  0  0  0  0  0
   -4.4730   65.4850   76.5130 C   0  0  0  0  0  0  0  0  0  0  0  0
   -5.1850   64.3060   75.8710 C   0  0  1  0  0  0  0  0  0  0  0  0
   -4.6930   62.9710   76.4180 C   0  0  1  0  0  0  0  0  0  0  0  0
   -6.7130   64.3740   75.9610 N   0  0  0  0  0  4  0  0  0  0  0  0
   -7.2960   65.0710   77.1560 C   0  0  0  0  0  0  0  0  0  0  0  0
   -7.3640   64.8110   74.6810 C   0  0  0  0  0  0  0  0  0  0  0  0
   -5.5040   61.9240   75.8600 O   0  0  0  0  0  0  0  0  0  0  0  0
    1.9780   59.2268   75.2810 H   0  0  0  0  0  0  0  0  0  0  0  0
   -0.7976   58.7737   72.6988 H   0  0  0  0  0  0  0  0  0  0  0  0
    0.4697   60.7578   74.3356 H   0  0  0  0  0  0  0  0  0  0  0  0
    1.2159   60.1882   72.8041 H   0  0  0  0  0  0  0  0  0  0  0  0
   -0.4673   60.8157   72.8041 H   0  0  0  0  0  0  0  0  0  0  0  0
   -2.0755   58.1004   74.1484 H   0  0  0  0  0  0  0  0  0  0  0  0
   -2.7099   59.3289   76.1663 H   0  0  0  0  0  0  0  0  0  0  0  0
   -4.0568   60.7275   74.6223 H   0  0  0  0  0  0  0  0  0  0  0  0
   -2.6382   61.0245   73.5612 H   0  0  0  0  0  0  0  0  0  0  0  0
   -3.4388   59.4165   73.5612 H   0  0  0  0  0  0  0  0  0  0  0  0
   -1.0796   61.6026   75.2983 H   0  0  0  0  0  0  0  0  0  0  0  0
   -1.7253   60.3386   78.8566 H   0  0  0  0  0  0  0  0  0  0  0  0
   -1.0896   58.8746   77.9278 H   0  0  0  0  0  0  0  0  0  0  0  0
    0.3509   60.6326   79.8438 H   0  0  0  0  0  0  0  0  0  0  0  0
    1.2505   57.8612   77.3932 H   0  0  0  0  0  0  0  0  0  0  0  0
    3.1660   59.5620   77.0331 H   0  0  0  0  0  0  0  0  0  0  0  0
    2.9653   55.9799   76.7657 H   0  0  0  0  0  0  0  0  0  0  0  0
    2.1136   56.2702   75.2110 H   0  0  0  0  0  0  0  0  0  0  0  0
    3.8456   55.7939   75.2110 H   0  0  0  0  0  0  0  0  0  0  0  0
    2.2305   57.2332   80.0608 H   0  0  0  0  0  0  0  0  0  0  0  0
    1.5275   56.1490   78.8131 H   0  0  0  0  0  0  0  0  0  0  0  0
    3.2904   56.4939   78.8131 H   0  0  0  0  0  0  0  0  0  0  0  0
   -0.0597   58.9936   81.4680 H   0  0  0  0  0  0  0  0  0  0  0  0
   -1.3184   58.4203   80.3219 H   0  0  0  0  0  0  0  0  0  0  0  0
    0.3094   57.6607   80.3219 H   0  0  0  0  0  0  0  0  0  0  0  0
    0.1108   62.0981   78.7529 H   0  0  0  0  0  0  0  0  0  0  0  0
    1.1345   62.2034   77.2806 H   0  0  0  0  0  0  0  0  0  0  0  0
   -0.5147   62.9153   77.2806 H   0  0  0  0  0  0  0  0  0  0  0  0
    4.8693   58.8814   72.4915 H   0  0  0  0  0  0  0  0  0  0  0  0
    3.1286   59.0699   72.0899 H   0  0  0  0  0  0  0  0  0  0  0  0
    4.2108   60.5036   72.0899 H   0  0  0  0  0  0  0  0  0  0  0  0
    4.6298   59.7906   74.6048 H   0  0  0  0  0  0  0  0  0  0  0  0
    3.1357   60.7336   74.1003 H   0  0  0  0  0  0  0  0  0  0  0  0
    5.3995   57.8194   76.3752 H   0  0  0  0  0  0  0  0  0  0  0  0
    4.3107   58.2198   78.9566 H   0  0  0  0  0  0  0  0  0  0  0  0
    1.2000   59.7006   77.1888 H   0  0  0  0  0  0  0  0  0  0  0  0
   -2.4479   56.6443   75.5045 H   0  0  0  0  0  0  0  0  0  0  0  0
   -1.9860   55.8368   79.0185 H   0  0  0  0  0  0  0  0  0  0  0  0
   -3.7883   56.5785   80.1884 H   0  0  0  0  0  0  0  0  0  0  0  0
   -4.1608   57.7203   78.8527 H   0  0  0  0  0  0  0  0  0  0  0  0
   -4.8779   56.0734   78.8527 H   0  0  0  0  0  0  0  0  0  0  0  0
   -3.8740   55.1281   76.7715 H   0  0  0  0  0  0  0  0  0  0  0  0
   -0.3681   55.2954   75.5350 H   0  0  0  0  0  0  0  0  0  0  0  0
   -0.1936   55.6773   77.2976 H   0  0  0  0  0  0  0  0  0  0  0  0
   -2.7302   52.6158   75.8915 H   0  0  0  0  0  0  0  0  0  0  0  0
   -2.9467   54.1477   74.9789 H   0  0  0  0  0  0  0  0  0  0  0  0
   -1.3525   53.3198   74.9789 H   0  0  0  0  0  0  0  0  0  0  0  0
    0.3754   53.8267   79.1400 H   0  0  0  0  0  0  0  0  0  0  0  0
    0.8313   53.0043   77.6095 H   0  0  0  0  0  0  0  0  0  0  0  0
    0.4647   54.7628   77.6095 H   0  0  0  0  0  0  0  0  0  0  0  0
   -3.5344   54.1035   79.3155 H   0  0  0  0  0  0  0  0  0  0  0  0
   -3.1115   62.6730   74.9615 H   0  0  0  0  0  0  0  0  0  0  0  0
   -2.4465   66.0114   76.7869 H   0  0  0  0  0  0  0  0  0  0  0  0
   -3.2579   65.7815   79.0336 H   0  0  0  0  0  0  0  0  0  0  0  0
   -3.6711   64.0542   78.7644 H   0  0  0  0  0  0  0  0  0  0  0  0
   -1.9526   64.5772   78.7644 H   0  0  0  0  0  0  0  0  0  0  0  0
   -5.0602   65.8251   77.3788 H   0  0  0  0  0  0  0  0  0  0  0  0
   -4.3813   66.2779   75.7561 H   0  0  0  0  0  0  0  0  0  0  0  0
   -4.9236   64.3765   74.8048 H   0  0  0  0  0  0  0  0  0  0  0  0
   -4.7810   62.8944   77.5118 H   0  0  0  0  0  0  0  0  0  0  0  0
   -6.9565   63.3861   76.1214 H   0  0  0  0  0  0  0  0  0  0  0  0
   -6.9087   64.6080   78.0756 H   0  0  0  0  0  0  0  0  0  0  0  0
   -7.0143   66.1341   77.1340 H   0  0  0  0  0  0  0  0  0  0  0  0
   -8.3921   64.9816   77.1340 H   0  0  0  0  0  0  0  0  0  0  0  0
   -8.2573   65.4106   74.9101 H   0  0  0  0  0  0  0  0  0  0  0  0
   -6.6553   65.4170   74.0975 H   0  0  0  0  0  0  0  0  0  0  0  0
   -7.6565   63.9256   74.0975 H   0  0  0  0  0  0  0  0  0  0  0  0
   -5.9122   61.3971   76.5920 H   0  0  0  0  0  0  0  0  0  0  0  0
  2  1  1  0
  3  2  1  0
  4  3  2  0
  5  3  1  0
  6  5  1  0
  7  5  1  0
  8  7  1  0
  9  8  1  0
 10  8  1  0
 11 10  1  0
 12 11  1  0
 13 12  1  0
 14 13  1  0
 15 14  2  0
 16 14  1  0
 17 16  1  0
 18 17  1  0
 18  1  1  0
 19 18  1  0
 20 16  1  0
 21 13  1  0
 22 11  1  0
 24 23  1  0
 24  1  1  0
 18 25  1  6
 26 17  1  0
 11 27  1  6
 28  7  1  0
 29 28  1  0
 30 29  1  0
 31 30  1  0
 32 31  1  0
 33 31  1  0
 34 33  1  0
 35 29  1  0
 35 34  1  0
 36 34  1  0
 34 37  1  1
 38 37  1  0
 39 33  1  0
 40 10  1  0
 41 40  1  0
 42 41  1  0
 43 42  1  0
 44 43  1  0
 45 43  1  0
 46 45  1  0
 47 46  1  0
 47 41  1  0
 48 46  1  0
 49 48  1  0
 50 48  1  0
 51 47  1  0
  1 52  1  1
  5 53  1  6
  6 54  1  0
  6 55  1  0
  6 56  1  0
  7 57  1  6
  8 58  1  1
  9 59  1  0
  9 60  1  0
  9 61  1  0
 10 62  1  6
 12 63  1  0
 12 64  1  0
 13 65  1  1
 16 66  1  6
 17 67  1  6
 19 68  1  0
 19 69  1  0
 19 70  1  0
 20 71  1  0
 20 72  1  0
 20 73  1  0
 21 74  1  0
 21 75  1  0
 21 76  1  0
 22 77  1  0
 22 78  1  0
 22 79  1  0
 23 80  1  0
 23 81  1  0
 23 82  1  0
 24 83  1  0
 24 84  1  0
 25 85  1  0
 26 86  1  0
 27 87  1  0
 29 88  1  6
 31 89  1  1
 32 90  1  0
 32 91  1  0
 32 92  1  0
 33 93  1  6
 35 94  1  0
 35 95  1  0
 36 96  1  0
 36 97  1  0
 36 98  1  0
 38 99  1  0
 38100  1  0
 38101  1  0
 39102  1  0
 41103  1  6
 43104  1  1
 44105  1  0
 44106  1  0
 44107  1  0
 45108  1  0
 45109  1  0
 46110  1  6
 47111  1  1
 48112  1  0
 49113  1  0
 49114  1  0
 49115  1  0
 50116  1  0
 50117  1  0
 50118  1  0
 51119  1  0
M  CHG  1  48   1
M  END
>  <score>  (6) 
-6.416

$$$$
=
     RDKit          3D

119121  0  0  0  0  0  0  0  0999 V2000
    3.4640   57.5790   78.1580 C   0  0  1  0  0  0  0  0  0  0  0  0
    3.7590   58.9720   78.4430 O   0  0  0  0  0  0  0  0  0  0  0  0
    2.8490   59.9540   78.2390 C   0  0  0  0  0  0  0  0  0  0  0  0
    3.1330   60.9080   77.5120 O   0  0  0  0  0  0  0  0  0  0  0  0
    1.5110   59.9470   79.0000 C   0  0  2  0  0  0  0  0  0  0  0  0
    1.3580   58.9460   80.1360 C   0  0  0  0  0  0  0  0  0  0  0  0
    0.3120   60.1800   78.0210 C   0  0  2  0  0  0  0  0  0  0  0  0
   -1.1640   59.7730   78.3750 C   0  0  2  0  0  0  0  0  0  0  0  0
   -1.6510   60.6820   79.5230 C   0  0  0  0  0  0  0  0  0  0  0  0
   -1.5900   58.2710   78.6120 C   0  0  2  0  0  0  0  0  0  0  0  0
   -1.0280   57.1690   77.6360 C   0  0  2  0  0  0  0  0  0  0  0  0
   -1.4090   57.3140   76.1460 C   0  0  0  0  0  0  0  0  0  0  0  0
   -0.8810   56.2020   75.1970 C   0  0  2  0  0  0  0  0  0  0  0  0
    0.5740   55.6820   75.3410 C   0  0  0  0  0  0  0  0  0  0  0  0
    0.7540   54.4620   75.4740 O   0  0  0  0  0  0  0  0  0  0  0  0
    1.8000   56.6060   75.2110 C   0  0  1  0  0  0  0  0  0  0  0  0
    2.9550   56.0430   76.1130 C   0  0  2  0  0  0  0  0  0  0  0  0
    3.9860   57.0650   76.7570 C   0  0  1  0  0  0  0  0  0  0  0  0
    4.3970   58.1940   75.8190 C   0  0  0  0  0  0  0  0  0  0  0  0
    2.1800   56.6770   73.7280 C   0  0  0  0  0  0  0  0  0  0  0  0
   -1.1900   56.5550   73.7430 C   0  0  0  0  0  0  0  0  0  0  0  0
   -1.4240   55.7810   78.1550 C   0  0  0  0  0  0  0  0  0  0  0  0
    4.8790   57.4340   80.3180 C   0  0  0  0  0  0  0  0  0  0  0  0
    3.9390   56.7210   79.3530 C   0  0  0  0  0  0  0  0  0  0  0  0
    5.2090   56.3160   76.9660 O   0  0  0  0  0  0  0  0  0  0  0  0
    3.7220   55.0860   75.3430 O   0  0  0  0  0  0  0  0  0  0  0  0
    0.3800   57.2200   77.6870 O   0  0  0  0  0  0  0  0  0  0  0  0
    0.6340   59.6940   76.6960 O   0  0  0  0  0  0  0  0  0  0  0  0
    0.2630   60.6570   75.6750 C   0  0  2  0  0  0  0  0  0  0  0  0
   -1.0540   60.3560   75.2130 O   0  0  0  0  0  0  0  0  0  0  0  0
   -1.3600   60.7820   73.8780 C   0  0  1  0  0  0  0  0  0  0  0  0
   -2.8640   61.0280   73.8230 C   0  0  0  0  0  0  0  0  0  0  0  0
   -0.5510   62.0200   73.4650 C   0  0  1  0  0  0  0  0  0  0  0  0
    0.9670   61.6720   73.4640 C   0  0  2  0  0  0  0  0  0  0  0  0
    1.2710   60.6070   74.5360 C   0  0  0  0  0  0  0  0  0  0  0  0
    1.7630   62.9670   73.7000 C   0  0  0  0  0  0  0  0  0  0  0  0
    1.2410   61.1190   72.1520 O   0  0  0  0  0  0  0  0  0  0  0  0
    2.2340   60.0990   72.0940 C   0  0  0  0  0  0  0  0  0  0  0  0
   -0.9480   62.4990   72.1790 O   0  0  0  0  0  0  0  0  0  0  0  0
   -3.0410   58.1940   78.5630 O   0  0  0  0  0  0  0  0  0  0  0  0
   -3.6210   58.5980   77.3190 C   0  0  2  0  0  0  0  0  0  0  0  0
   -3.9350   59.9880   77.2720 O   0  0  0  0  0  0  0  0  0  0  0  0
   -5.3020   60.3940   77.2740 C   0  0  2  0  0  0  0  0  0  0  0  0
   -5.9120   60.3380   78.6740 C   0  0  0  0  0  0  0  0  0  0  0  0
   -6.1540   59.6660   76.2190 C   0  0  0  0  0  0  0  0  0  0  0  0
   -5.6030   58.2900   75.8870 C   0  0  1  0  0  0  0  0  0  0  0  0
   -4.8320   57.6840   77.0550 C   0  0  1  0  0  0  0  0  0  0  0  0
   -6.6570   57.2970   75.3890 N   0  0  0  0  0  4  0  0  0  0  0  0
   -7.9620   57.2590   76.1300 C   0  0  0  0  0  0  0  0  0  0  0  0
   -6.8550   57.3380   73.9020 C   0  0  0  0  0  0  0  0  0  0  0  0
   -4.4620   56.3400   76.7060 O   0  0  0  0  0  0  0  0  0  0  0  0
    2.3741   57.4764   78.0502 H   0  0  0  0  0  0  0  0  0  0  0  0
    1.5062   60.8311   79.6544 H   0  0  0  0  0  0  0  0  0  0  0  0
    1.4381   59.4701   81.0998 H   0  0  0  0  0  0  0  0  0  0  0  0
    0.3748   58.4579   80.0647 H   0  0  0  0  0  0  0  0  0  0  0  0
    2.1505   58.1865   80.0647 H   0  0  0  0  0  0  0  0  0  0  0  0
    0.2397   61.2735   78.1161 H   0  0  0  0  0  0  0  0  0  0  0  0
   -1.6738   59.9215   77.4116 H   0  0  0  0  0  0  0  0  0  0  0  0
   -1.4024   60.2179   80.4888 H   0  0  0  0  0  0  0  0  0  0  0  0
   -1.1572   61.6622   79.4493 H   0  0  0  0  0  0  0  0  0  0  0  0
   -2.7406   60.8139   79.4493 H   0  0  0  0  0  0  0  0  0  0  0  0
   -1.1394   58.0299   79.5861 H   0  0  0  0  0  0  0  0  0  0  0  0
   -2.5069   57.3210   76.0784 H   0  0  0  0  0  0  0  0  0  0  0  0
   -0.9315   58.2451   75.8068 H   0  0  0  0  0  0  0  0  0  0  0  0
   -1.4467   55.3279   75.5520 H   0  0  0  0  0  0  0  0  0  0  0  0
    1.5893   57.6286   75.5572 H   0  0  0  0  0  0  0  0  0  0  0  0
    2.4114   55.6243   76.9727 H   0  0  0  0  0  0  0  0  0  0  0  0
    4.7142   59.0653   76.4108 H   0  0  0  0  0  0  0  0  0  0  0  0
    5.2307   57.8585   75.1846 H   0  0  0  0  0  0  0  0  0  0  0  0
    3.5427   58.4730   75.1846 H   0  0  0  0  0  0  0  0  0  0  0  0
    3.2574   56.8783   73.6348 H   0  0  0  0  0  0  0  0  0  0  0  0
    1.9426   55.7190   73.2424 H   0  0  0  0  0  0  0  0  0  0  0  0
    1.6127   57.4847   73.2424 H   0  0  0  0  0  0  0  0  0  0  0  0
   -1.9142   57.3824   73.7125 H   0  0  0  0  0  0  0  0  0  0  0  0
   -0.2633   56.8600   73.2348 H   0  0  0  0  0  0  0  0  0  0  0  0
   -1.6149   55.6768   73.2348 H   0  0  0  0  0  0  0  0  0  0  0  0
   -1.4224   55.7867   79.2550 H   0  0  0  0  0  0  0  0  0  0  0  0
   -2.4305   55.5269   77.7911 H   0  0  0  0  0  0  0  0  0  0  0  0
   -0.7031   55.0341   77.7911 H   0  0  0  0  0  0  0  0  0  0  0  0
    4.5820   57.2087   81.3529 H   0  0  0  0  0  0  0  0  0  0  0  0
    5.9095   57.0883   80.1488 H   0  0  0  0  0  0  0  0  0  0  0  0
    4.8239   58.5195   80.1488 H   0  0  0  0  0  0  0  0  0  0  0  0
    4.4620   55.8391   78.9546 H   0  0  0  0  0  0  0  0  0  0  0  0
    3.0374   56.4671   79.9297 H   0  0  0  0  0  0  0  0  0  0  0  0
    5.3727   56.2158   77.9372 H   0  0  0  0  0  0  0  0  0  0  0  0
    4.2072   54.4806   75.9580 H   0  0  0  0  0  0  0  0  0  0  0  0
    0.6758   57.2307   78.6317 H   0  0  0  0  0  0  0  0  0  0  0  0
    0.2680   61.6760   76.0892 H   0  0  0  0  0  0  0  0  0  0  0  0
   -1.0750   60.0052   73.1532 H   0  0  0  0  0  0  0  0  0  0  0  0
   -3.2625   61.0932   74.8462 H   0  0  0  0  0  0  0  0  0  0  0  0
   -3.0622   61.9705   73.2916 H   0  0  0  0  0  0  0  0  0  0  0  0
   -3.3521   60.1978   73.2916 H   0  0  0  0  0  0  0  0  0  0  0  0
   -0.7469   62.8206   74.1935 H   0  0  0  0  0  0  0  0  0  0  0  0
    2.2777   60.7858   74.9418 H   0  0  0  0  0  0  0  0  0  0  0  0
    1.2088   59.6154   74.0640 H   0  0  0  0  0  0  0  0  0  0  0  0
    1.8694   63.1401   74.7811 H   0  0  0  0  0  0  0  0  0  0  0  0
    2.7596   62.8731   73.2438 H   0  0  0  0  0  0  0  0  0  0  0  0
    1.2292   63.8138   73.2438 H   0  0  0  0  0  0  0  0  0  0  0  0
    2.5190   59.8062   73.1153 H   0  0  0  0  0  0  0  0  0  0  0  0
    1.8313   59.2251   71.5610 H   0  0  0  0  0  0  0  0  0  0  0  0
    3.1184   60.4781   71.5610 H   0  0  0  0  0  0  0  0  0  0  0  0
   -1.5759   63.2566   72.2884 H   0  0  0  0  0  0  0  0  0  0  0  0
   -2.8878   58.4772   76.5079 H   0  0  0  0  0  0  0  0  0  0  0  0
   -5.3098   61.4508   76.9690 H   0  0  0  0  0  0  0  0  0  0  0  0
   -5.1122   60.4114   79.4256 H   0  0  0  0  0  0  0  0  0  0  0  0
   -6.6135   61.1755   78.8021 H   0  0  0  0  0  0  0  0  0  0  0  0
   -6.4493   59.3867   78.8021 H   0  0  0  0  0  0  0  0  0  0  0  0
   -7.1775   59.5539   76.6061 H   0  0  0  0  0  0  0  0  0  0  0  0
   -6.1381   60.2675   75.2982 H   0  0  0  0  0  0  0  0  0  0  0  0
   -4.9109   58.4675   75.0506 H   0  0  0  0  0  0  0  0  0  0  0  0
   -5.4259   57.6227   77.9788 H   0  0  0  0  0  0  0  0  0  0  0  0
   -6.2226   56.3941   75.6278 H   0  0  0  0  0  0  0  0  0  0  0  0
   -7.7690   57.2646   77.2129 H   0  0  0  0  0  0  0  0  0  0  0  0
   -8.5627   58.1400   75.8600 H   0  0  0  0  0  0  0  0  0  0  0  0
   -8.5105   56.3445   75.8600 H   0  0  0  0  0  0  0  0  0  0  0  0
   -7.9097   57.5564   73.6784 H   0  0  0  0  0  0  0  0  0  0  0  0
   -6.2181   58.1233   73.4688 H   0  0  0  0  0  0  0  0  0  0  0  0
   -6.5824   56.3643   73.4688 H   0  0  0  0  0  0  0  0  0  0  0  0
   -4.3169   55.8128   77.5313 H   0  0  0  0  0  0  0  0  0  0  0  0
  2  1  1  0
  3  2  1  0
  4  3  2  0
  5  3  1  0
  6  5  1  0
  7  5  1  0
  8  7  1  0
  9  8  1  0
 10  8  1  0
 11 10  1  0
 12 11  1  0
 13 12  1  0
 14 13  1  0
 15 14  2  0
 16 14  1  0
 17 16  1  0
 18 17  1  0
 18  1  1  0
 19 18  1  0
 20 16  1  0
 21 13  1  0
 22 11  1  0
 24 23  1  0
 24  1  1  0
 18 25  1  1
 26 17  1  0
 11 27  1  6
 28  7  1  0
 29 28  1  0
 30 29  1  0
 31 30  1  0
 32 31  1  0
 33 31  1  0
 34 33  1  0
 35 29  1  0
 35 34  1  0
 36 34  1  0
 34 37  1  6
 38 37  1  0
 39 33  1  0
 40 10  1  0
 41 40  1  0
 42 41  1  0
 43 42  1  0
 44 43  1  0
 45 43  1  0
 46 45  1  0
 47 46  1  0
 47 41  1  0
 48 46  1  0
 49 48  1  0
 50 48  1  0
 51 47  1  0
  1 52  1  6
  5 53  1  1
  6 54  1  0
  6 55  1  0
  6 56  1  0
  7 57  1  6
  8 58  1  6
  9 59  1  0
  9 60  1  0
  9 61  1  0
 10 62  1  1
 12 63  1  0
 12 64  1  0
 13 65  1  1
 16 66  1  1
 17 67  1  1
 19 68  1  0
 19 69  1  0
 19 70  1  0
 20 71  1  0
 20 72  1  0
 20 73  1  0
 21 74  1  0
 21 75  1  0
 21 76  1  0
 22 77  1  0
 22 78  1  0
 22 79  1  0
 23 80  1  0
 23 81  1  0
 23 82  1  0
 24 83  1  0
 24 84  1  0
 25 85  1  0
 26 86  1  0
 27 87  1  0
 29 88  1  1
 31 89  1  6
 32 90  1  0
 32 91  1  0
 32 92  1  0
 33 93  1  1
 35 94  1  0
 35 95  1  0
 36 96  1  0
 36 97  1  0
 36 98  1  0
 38 99  1  0
 38100  1  0
 38101  1  0
 39102  1  0
 41103  1  6
 43104  1  6
 44105  1  0
 44106  1  0
 44107  1  0
 45108  1  0
 45109  1  0
 46110  1  6
 47111  1  1
 48112  1  0
 49113  1  0
 49114  1  0
 49115  1  0
 50116  1  0
 50117  1  0
 50118  1  0
 51119  1  0
M  CHG  1  48   1
M  END
>  <score>  (7) 
-6.192

$$$$
=
     RDKit          3D

119121  0  0  0  0  0  0  0  0999 V2000
    2.0270   56.8880   78.7110 C   0  0  1  0  0  0  0  0  0  0  0  0
    1.7540   57.8230   79.7870 O   0  0  0  0  0  0  0  0  0  0  0  0
    0.9420   58.8930   79.6190 C   0  0  0  0  0  0  0  0  0  0  0  0
    1.3630   60.0250   79.8620 O   0  0  0  0  0  0  0  0  0  0  0  0
   -0.5380   58.6960   79.2410 C   0  0  2  0  0  0  0  0  0  0  0  0
   -1.0920   57.2800   79.2960 C   0  0  0  0  0  0  0  0  0  0  0  0
   -0.9360   59.6260   78.0460 C   0  0  2  0  0  0  0  0  0  0  0  0
   -2.1860   59.3470   77.1340 C   0  0  2  0  0  0  0  0  0  0  0  0
   -3.4570   59.5460   77.9860 C   0  0  0  0  0  0  0  0  0  0  0  0
   -2.2970   58.0590   76.2280 C   0  0  2  0  0  0  0  0  0  0  0  0
   -1.0250   57.5950   75.4230 C   0  0  2  0  0  0  0  0  0  0  0  0
   -0.4700   58.5940   74.3840 C   0  0  0  0  0  0  0  0  0  0  0  0
    0.7630   58.1140   73.5690 C   0  0  2  0  0  0  0  0  0  0  0  0
    1.9210   57.3630   74.2780 C   0  0  0  0  0  0  0  0  0  0  0  0
    2.2710   56.2600   73.8310 O   0  0  0  0  0  0  0  0  0  0  0  0
    2.7230   57.9850   75.4380 C   0  0  1  0  0  0  0  0  0  0  0  0
    3.2110   56.8340   76.3880 C   0  0  2  0  0  0  0  0  0  0  0  0
    3.3810   57.1450   77.9370 C   0  0  1  0  0  0  0  0  0  0  0  0
    3.9840   58.5150   78.2240 C   0  0  0  0  0  0  0  0  0  0  0  0
    3.8770   58.7910   74.8330 C   0  0  0  0  0  0  0  0  0  0  0  0
    1.3030   59.2510   72.7040 C   0  0  0  0  0  0  0  0  0  0  0  0
   -1.3070   56.2400   74.7620 C   0  0  0  0  0  0  0  0  0  0  0  0
    1.1700   54.4760   78.3340 C   0  0  0  0  0  0  0  0  0  0  0  0
    1.8880   55.4500   79.2620 C   0  0  0  0  0  0  0  0  0  0  0  0
    4.3760   56.2100   78.4220 O   0  0  0  0  0  0  0  0  0  0  0  0
    4.4850   56.3430   75.9070 O   0  0  0  0  0  0  0  0  0  0  0  0
    0.0170   57.3720   76.3470 O   0  0  0  0  0  0  0  0  0  0  0  0
    0.2120   59.8990   77.2080 O   0  0  0  0  0  0  0  0  0  0  0  0
    0.2510   61.2920   76.8020 C   0  0  2  0  0  0  0  0  0  0  0  0
   -0.7930   61.9980   77.4710 O   0  0  0  0  0  0  0  0  0  0  0  0
   -1.2800   63.1720   76.8050 C   0  0  1  0  0  0  0  0  0  0  0  0
   -1.8010   64.1130   77.8870 C   0  0  0  0  0  0  0  0  0  0  0  0
   -0.2040   63.8290   75.9290 C   0  0  1  0  0  0  0  0  0  0  0  0
    0.2190   62.8430   74.8000 C   0  0  2  0  0  0  0  0  0  0  0  0
    0.1000   61.3870   75.2900 C   0  0  0  0  0  0  0  0  0  0  0  0
    1.6550   63.1870   74.3670 C   0  0  0  0  0  0  0  0  0  0  0  0
   -0.7220   63.0600   73.7180 O   0  0  0  0  0  0  0  0  0  0  0  0
   -0.3540   62.5290   72.4480 C   0  0  0  0  0  0  0  0  0  0  0  0
   -0.6680   65.0560   75.3640 O   0  0  0  0  0  0  0  0  0  0  0  0
   -3.3670   58.2670   75.2660 O   0  0  0  0  0  0  0  0  0  0  0  0
   -4.5360   58.8970   75.7970 C   0  0  2  0  0  0  0  0  0  0  0  0
   -5.5790   57.9750   76.1050 O   0  0  0  0  0  0  0  0  0  0  0  0
   -6.7610   57.9690   75.3070 C   0  0  2  0  0  0  0  0  0  0  0  0
   -6.5510   57.2360   73.9820 C   0  0  0  0  0  0  0  0  0  0  0  0
   -7.3820   59.3650   75.1280 C   0  0  0  0  0  0  0  0  0  0  0  0
   -6.3450   60.4710   75.2280 C   0  0  1  0  0  0  0  0  0  0  0  0
   -4.9580   59.9970   74.8040 C   0  0  1  0  0  0  0  0  0  0  0  0
   -6.7140   61.7450   74.4640 N   0  0  0  0  0  4  0  0  0  0  0  0
   -7.7660   61.6230   73.4000 C   0  0  0  0  0  0  0  0  0  0  0  0
   -6.9530   62.9260   75.3590 C   0  0  0  0  0  0  0  0  0  0  0  0
   -4.0720   61.1280   74.8020 O   0  0  0  0  0  0  0  0  0  0  0  0
    1.2767   57.0478   77.9226 H   0  0  0  0  0  0  0  0  0  0  0  0
   -1.1392   59.0623   80.0862 H   0  0  0  0  0  0  0  0  0  0  0  0
   -1.2118   56.9737   80.3457 H   0  0  0  0  0  0  0  0  0  0  0  0
   -2.0687   57.2485   78.7910 H   0  0  0  0  0  0  0  0  0  0  0  0
   -0.3959   56.5941   78.7910 H   0  0  0  0  0  0  0  0  0  0  0  0
   -1.3070   60.4827   78.6278 H   0  0  0  0  0  0  0  0  0  0  0  0
   -2.0431   60.0822   76.3284 H   0  0  0  0  0  0  0  0  0  0  0  0
   -3.1933   59.5047   79.0531 H   0  0  0  0  0  0  0  0  0  0  0  0
   -3.9030   60.5249   77.7561 H   0  0  0  0  0  0  0  0  0  0  0  0
   -4.1808   58.7502   77.7561 H   0  0  0  0  0  0  0  0  0  0  0  0
   -2.4693   57.2520   76.9554 H   0  0  0  0  0  0  0  0  0  0  0  0
   -1.2766   58.8216   73.6715 H   0  0  0  0  0  0  0  0  0  0  0  0
   -0.1230   59.4624   74.9632 H   0  0  0  0  0  0  0  0  0  0  0  0
    0.3243   57.2989   72.9748 H   0  0  0  0  0  0  0  0  0  0  0  0
    2.1134   58.6695   76.0462 H   0  0  0  0  0  0  0  0  0  0  0  0
    2.3826   56.1118   76.3421 H   0  0  0  0  0  0  0  0  0  0  0  0
    4.0504   58.6658   79.3116 H   0  0  0  0  0  0  0  0  0  0  0  0
    4.9904   58.5721   77.7838 H   0  0  0  0  0  0  0  0  0  0  0  0
    3.3464   59.2958   77.7838 H   0  0  0  0  0  0  0  0  0  0  0  0
    4.4889   59.2184   75.6410 H   0  0  0  0  0  0  0  0  0  0  0  0
    4.4996   58.1303   74.2118 H   0  0  0  0  0  0  0  0  0  0  0  0
    3.4710   59.6030   74.2118 H   0  0  0  0  0  0  0  0  0  0  0  0
    1.6846   60.0545   73.3511 H   0  0  0  0  0  0  0  0  0  0  0  0
    2.1179   58.8734   72.0690 H   0  0  0  0  0  0  0  0  0  0  0  0
    0.4954   59.6440   72.0690 H   0  0  0  0  0  0  0  0  0  0  0  0
   -1.4655   55.4785   75.5398 H   0  0  0  0  0  0  0  0  0  0  0  0
   -2.2082   56.3179   74.1361 H   0  0  0  0  0  0  0  0  0  0  0  0
   -0.4496   55.9519   74.1361 H   0  0  0  0  0  0  0  0  0  0  0  0
    0.6229   53.7338   78.9338 H   0  0  0  0  0  0  0  0  0  0  0  0
    0.4617   55.0287   77.6994 H   0  0  0  0  0  0  0  0  0  0  0  0
    1.9075   53.9629   77.6994 H   0  0  0  0  0  0  0  0  0  0  0  0
    1.3274   55.4984   80.2072 H   0  0  0  0  0  0  0  0  0  0  0  0
    2.9112   55.0648   79.3834 H   0  0  0  0  0  0  0  0  0  0  0  0
    4.3749   56.2110   79.4120 H   0  0  0  0  0  0  0  0  0  0  0  0
    5.0648   56.1195   76.6777 H   0  0  0  0  0  0  0  0  0  0  0  0
   -0.3371   57.4478   77.2684 H   0  0  0  0  0  0  0  0  0  0  0  0
    1.2152   61.7445   77.0769 H   0  0  0  0  0  0  0  0  0  0  0  0
   -2.0889   62.9097   76.1073 H   0  0  0  0  0  0  0  0  0  0  0  0
   -1.5699   63.6957   78.8782 H   0  0  0  0  0  0  0  0  0  0  0  0
   -1.3186   65.0959   77.7815 H   0  0  0  0  0  0  0  0  0  0  0  0
   -2.8901   64.2258   77.7815 H   0  0  0  0  0  0  0  0  0  0  0  0
    0.6647   64.0617   76.5624 H   0  0  0  0  0  0  0  0  0  0  0  0
    0.8874   60.7843   74.8138 H   0  0  0  0  0  0  0  0  0  0  0  0
   -0.8982   61.0126   75.0191 H   0  0  0  0  0  0  0  0  0  0  0  0
    2.2810   63.3370   75.2590 H   0  0  0  0  0  0  0  0  0  0  0  0
    2.0645   62.3615   73.7662 H   0  0  0  0  0  0  0  0  0  0  0  0
    1.6460   64.1084   73.7662 H   0  0  0  0  0  0  0  0  0  0  0  0
    0.2672   61.6326   72.5914 H   0  0  0  0  0  0  0  0  0  0  0  0
   -1.2608   62.2606   71.8861 H   0  0  0  0  0  0  0  0  0  0  0  0
    0.2156   63.2838   71.8861 H   0  0  0  0  0  0  0  0  0  0  0  0
   -0.9058   65.6848   76.0907 H   0  0  0  0  0  0  0  0  0  0  0  0
   -4.3068   59.3520   76.7719 H   0  0  0  0  0  0  0  0  0  0  0  0
   -7.5099   57.3936   75.8709 H   0  0  0  0  0  0  0  0  0  0  0  0
   -6.2531   56.1961   74.1815 H   0  0  0  0  0  0  0  0  0  0  0  0
   -7.4878   57.2449   73.4056 H   0  0  0  0  0  0  0  0  0  0  0  0
   -5.7610   57.7396   73.4056 H   0  0  0  0  0  0  0  0  0  0  0  0
   -7.8601   59.4159   74.1386 H   0  0  0  0  0  0  0  0  0  0  0  0
   -8.1147   59.5149   75.9346 H   0  0  0  0  0  0  0  0  0  0  0  0
   -6.3265   60.7324   76.2963 H   0  0  0  0  0  0  0  0  0  0  0  0
   -4.9377   59.5738   73.7889 H   0  0  0  0  0  0  0  0  0  0  0  0
   -5.8533   61.9213   73.9263 H   0  0  0  0  0  0  0  0  0  0  0  0
   -8.7531   61.5085   73.8717 H   0  0  0  0  0  0  0  0  0  0  0  0
   -7.7613   62.5277   72.7743 H   0  0  0  0  0  0  0  0  0  0  0  0
   -7.5544   60.7434   72.7743 H   0  0  0  0  0  0  0  0  0  0  0  0
   -6.8887   62.6084   76.4102 H   0  0  0  0  0  0  0  0  0  0  0  0
   -6.1924   63.6957   75.1614 H   0  0  0  0  0  0  0  0  0  0  0  0
   -7.9530   63.3394   75.1614 H   0  0  0  0  0  0  0  0  0  0  0  0
   -3.8677   61.3888   75.7349 H   0  0  0  0  0  0  0  0  0  0  0  0
  2  1  1  0
  3  2  1  0
  4  3  2  0
  5  3  1  0
  6  5  1  0
  7  5  1  0
  8  7  1  0
  9  8  1  0
 10  8  1  0
 11 10  1  0
 12 11  1  0
 13 12  1  0
 14 13  1  0
 15 14  2  0
 16 14  1  0
 17 16  1  0
 18 17  1  0
 18  1  1  0
 19 18  1  0
 20 16  1  0
 21 13  1  0
 22 11  1  0
 24 23  1  0
 24  1  1  0
 18 25  1  1
 26 17  1  0
 11 27  1  1
 28  7  1  0
 29 28  1  0
 30 29  1  0
 31 30  1  0
 32 31  1  0
 33 31  1  0
 34 33  1  0
 35 29  1  0
 35 34  1  0
 36 34  1  0
 34 37  1  6
 38 37  1  0
 39 33  1  0
 40 10  1  0
 41 40  1  0
 42 41  1  0
 43 42  1  0
 44 43  1  0
 45 43  1  0
 46 45  1  0
 47 46  1  0
 47 41  1  0
 48 46  1  0
 49 48  1  0
 50 48  1  0
 51 47  1  0
  1 52  1  6
  5 53  1  1
  6 54  1  0
  6 55  1  0
  6 56  1  0
  7 57  1  1
  8 58  1  6
  9 59  1  0
  9 60  1  0
  9 61  1  0
 10 62  1  1
 12 63  1  0
 12 64  1  0
 13 65  1  6
 16 66  1  1
 17 67  1  1
 19 68  1  0
 19 69  1  0
 19 70  1  0
 20 71  1  0
 20 72  1  0
 20 73  1  0
 21 74  1  0
 21 75  1  0
 21 76  1  0
 22 77  1  0
 22 78  1  0
 22 79  1  0
 23 80  1  0
 23 81  1  0
 23 82  1  0
 24 83  1  0
 24 84  1  0
 25 85  1  0
 26 86  1  0
 27 87  1  0
 29 88  1  6
 31 89  1  6
 32 90  1  0
 32 91  1  0
 32 92  1  0
 33 93  1  1
 35 94  1  0
 35 95  1  0
 36 96  1  0
 36 97  1  0
 36 98  1  0
 38 99  1  0
 38100  1  0
 38101  1  0
 39102  1  0
 41103  1  1
 43104  1  1
 44105  1  0
 44106  1  0
 44107  1  0
 45108  1  0
 45109  1  0
 46110  1  1
 47111  1  6
 48112  1  0
 49113  1  0
 49114  1  0
 49115  1  0
 50116  1  0
 50117  1  0
 50118  1  0
 51119  1  0
M  CHG  1  48   1
M  END
>  <score>  (8) 
-6.041

$$$$
=
     RDKit          3D

119121  0  0  0  0  0  0  0  0999 V2000
    0.4630   57.0100   74.5980 C   0  0  1  0  0  0  0  0  0  0  0  0
    0.5730   56.3520   75.8870 O   0  0  0  0  0  0  0  0  0  0  0  0
    0.3300   57.0040   77.0490 C   0  0  0  0  0  0  0  0  0  0  0  0
    1.1950   57.0360   77.9260 O   0  0  0  0  0  0  0  0  0  0  0  0
   -1.0610   57.6030   77.3280 C   0  0  2  0  0  0  0  0  0  0  0  0
   -2.1860   57.2360   76.3730 C   0  0  0  0  0  0  0  0  0  0  0  0
   -0.9400   59.0810   77.8330 C   0  0  2  0  0  0  0  0  0  0  0  0
   -2.1310   60.1030   77.7580 C   0  0  2  0  0  0  0  0  0  0  0  0
   -3.2270   59.6370   78.7380 C   0  0  0  0  0  0  0  0  0  0  0  0
   -2.7510   60.5750   76.3850 C   0  0  2  0  0  0  0  0  0  0  0  0
   -1.7730   60.9170   75.1980 C   0  0  2  0  0  0  0  0  0  0  0  0
   -0.7760   62.0710   75.4420 C   0  0  0  0  0  0  0  0  0  0  0  0
    0.1590   62.4260   74.2530 C   0  0  2  0  0  0  0  0  0  0  0  0
    0.8240   61.2960   73.4210 C   0  0  0  0  0  0  0  0  0  0  0  0
    0.6740   61.3020   72.1900 O   0  0  0  0  0  0  0  0  0  0  0  0
    1.7530   60.2410   74.0530 C   0  0  1  0  0  0  0  0  0  0  0  0
    1.6280   58.9060   73.2380 C   0  0  2  0  0  0  0  0  0  0  0  0
    1.8310   57.5260   73.9980 C   0  0  1  0  0  0  0  0  0  0  0  0
    2.9620   57.5510   75.0200 C   0  0  0  0  0  0  0  0  0  0  0  0
    3.1760   60.8090   74.0570 C   0  0  0  0  0  0  0  0  0  0  0  0
    1.1940   63.4640   74.6830 C   0  0  0  0  0  0  0  0  0  0  0  0
   -2.5890   61.1760   73.9250 C   0  0  0  0  0  0  0  0  0  0  0  0
   -0.4520   54.6410   74.1050 C   0  0  0  0  0  0  0  0  0  0  0  0
   -0.3280   56.0880   73.6420 C   0  0  0  0  0  0  0  0  0  0  0  0
    2.2810   56.5820   72.9950 O   0  0  0  0  0  0  0  0  0  0  0  0
    2.5770   58.9370   72.1440 O   0  0  0  0  0  0  0  0  0  0  0  0
   -0.9910   59.7730   74.9360 O   0  0  0  0  0  0  0  0  0  0  0  0
    0.2560   59.7030   77.3040 O   0  0  0  0  0  0  0  0  0  0  0  0
    0.9370   60.4860   78.3190 C   0  0  2  0  0  0  0  0  0  0  0  0
    0.7710   61.8720   78.0220 O   0  0  0  0  0  0  0  0  0  0  0  0
    1.7950   62.7450   78.5210 C   0  0  1  0  0  0  0  0  0  0  0  0
    1.1490   64.1090   78.7410 C   0  0  0  0  0  0  0  0  0  0  0  0
    2.4520   62.1970   79.7960 C   0  0  1  0  0  0  0  0  0  0  0  0
    3.1600   60.8470   79.4770 C   0  0  2  0  0  0  0  0  0  0  0  0
    2.4090   60.1020   78.3560 C   0  0  0  0  0  0  0  0  0  0  0  0
    3.2310   60.0170   80.7700 C   0  0  0  0  0  0  0  0  0  0  0  0
    4.4860   61.2020   79.0070 O   0  0  0  0  0  0  0  0  0  0  0  0
    5.5600   60.9540   79.9090 C   0  0  0  0  0  0  0  0  0  0  0  0
    3.3870   63.1280   80.3430 O   0  0  0  0  0  0  0  0  0  0  0  0
   -3.5630   61.7560   76.6310 O   0  0  0  0  0  0  0  0  0  0  0  0
   -4.9710   61.5120   76.6930 C   0  0  2  0  0  0  0  0  0  0  0  0
   -5.2950   60.1340   76.8590 O   0  0  0  0  0  0  0  0  0  0  0  0
   -5.8970   59.4240   75.7780 C   0  0  2  0  0  0  0  0  0  0  0  0
   -4.8720   59.0200   74.7190 C   0  0  0  0  0  0  0  0  0  0  0  0
   -7.1210   60.1450   75.1850 C   0  0  0  0  0  0  0  0  0  0  0  0
   -7.0440   61.6510   75.3680 C   0  0  1  0  0  0  0  0  0  0  0  0
   -5.6040   62.1470   75.4410 C   0  0  1  0  0  0  0  0  0  0  0  0
   -7.8170   62.4490   74.3150 N   0  0  0  0  0  4  0  0  0  0  0  0
   -8.2280   61.7180   73.0700 C   0  0  0  0  0  0  0  0  0  0  0  0
   -8.9430   63.2570   74.8900 C   0  0  0  0  0  0  0  0  0  0  0  0
   -5.6200   63.5840   75.4800 O   0  0  0  0  0  0  0  0  0  0  0  0
   -0.0941   57.9477   74.7406 H   0  0  0  0  0  0  0  0  0  0  0  0
   -1.4833   57.0535   78.1822 H   0  0  0  0  0  0  0  0  0  0  0  0
   -3.0765   56.9455   76.9498 H   0  0  0  0  0  0  0  0  0  0  0  0
   -2.4262   58.1024   75.7392 H   0  0  0  0  0  0  0  0  0  0  0  0
   -1.8691   56.3946   75.7392 H   0  0  0  0  0  0  0  0  0  0  0  0
   -0.9262   58.8802   78.9144 H   0  0  0  0  0  0  0  0  0  0  0  0
   -1.6328   61.0460   78.0272 H   0  0  0  0  0  0  0  0  0  0  0  0
   -2.8811   59.7841   79.7718 H   0  0  0  0  0  0  0  0  0  0  0  0
   -4.1422   60.2238   78.5706 H   0  0  0  0  0  0  0  0  0  0  0  0
   -3.4393   58.5708   78.5706 H   0  0  0  0  0  0  0  0  0  0  0  0
   -3.3032   59.6889   76.0386 H   0  0  0  0  0  0  0  0  0  0  0  0
   -1.3572   62.9705   75.6933 H   0  0  0  0  0  0  0  0  0  0  0  0
   -0.1124   61.7242   76.2479 H   0  0  0  0  0  0  0  0  0  0  0  0
   -0.5617   62.8217   73.5223 H   0  0  0  0  0  0  0  0  0  0  0  0
    1.4767   60.0117   75.0927 H   0  0  0  0  0  0  0  0  0  0  0  0
    0.5691   58.9018   72.9401 H   0  0  0  0  0  0  0  0  0  0  0  0
    2.5390   57.5416   76.0354 H   0  0  0  0  0  0  0  0  0  0  0  0
    3.6014   56.6668   74.8810 H   0  0  0  0  0  0  0  0  0  0  0  0
    3.5617   58.4626   74.8810 H   0  0  0  0  0  0  0  0  0  0  0  0
    3.5140   60.9439   75.0950 H   0  0  0  0  0  0  0  0  0  0  0  0
    3.8508   60.1113   73.5394 H   0  0  0  0  0  0  0  0  0  0  0  0
    3.1848   61.7796   73.5394 H   0  0  0  0  0  0  0  0  0  0  0  0
    1.2363   63.5064   75.7814 H   0  0  0  0  0  0  0  0  0  0  0  0
    2.1815   63.1823   74.2886 H   0  0  0  0  0  0  0  0  0  0  0  0
    0.9095   64.4507   74.2886 H   0  0  0  0  0  0  0  0  0  0  0  0
   -3.6043   61.4983   74.1995 H   0  0  0  0  0  0  0  0  0  0  0  0
   -2.1022   61.9638   73.3314 H   0  0  0  0  0  0  0  0  0  0  0  0
   -2.6456   60.2517   73.3314 H   0  0  0  0  0  0  0  0  0  0  0  0
   -0.4549   54.6068   75.2045 H   0  0  0  0  0  0  0  0  0  0  0  0
   -1.3901   54.2127   73.7223 H   0  0  0  0  0  0  0  0  0  0  0  0
    0.3996   54.0593   73.7223 H   0  0  0  0  0  0  0  0  0  0  0  0
    0.1785   56.0925   72.6656 H   0  0  0  0  0  0  0  0  0  0  0  0
   -1.3516   56.4888   73.6024 H   0  0  0  0  0  0  0  0  0  0  0  0
    2.6615   55.7838   73.4402 H   0  0  0  0  0  0  0  0  0  0  0  0
    3.4977   58.9671   72.5066 H   0  0  0  0  0  0  0  0  0  0  0  0
   -0.7102   59.3622   75.7918 H   0  0  0  0  0  0  0  0  0  0  0  0
    0.5078   60.2843   79.3115 H   0  0  0  0  0  0  0  0  0  0  0  0
    2.6168   62.8271   77.7945 H   0  0  0  0  0  0  0  0  0  0  0  0
    1.0577   64.3017   79.8201 H   0  0  0  0  0  0  0  0  0  0  0  0
    1.7734   64.8889   78.2808 H   0  0  0  0  0  0  0  0  0  0  0  0
    0.1500   64.1201   78.2808 H   0  0  0  0  0  0  0  0  0  0  0  0
    1.6663   62.0334   80.5482 H   0  0  0  0  0  0  0  0  0  0  0  0
    2.4914   59.0189   78.5294 H   0  0  0  0  0  0  0  0  0  0  0  0
    2.8623   60.3805   77.3932 H   0  0  0  0  0  0  0  0  0  0  0  0
    3.1736   60.6878   81.6399 H   0  0  0  0  0  0  0  0  0  0  0  0
    2.3902   59.3083   80.7974 H   0  0  0  0  0  0  0  0  0  0  0  0
    4.1800   59.4614   80.7974 H   0  0  0  0  0  0  0  0  0  0  0  0
    5.1965   61.0379   80.9438 H   0  0  0  0  0  0  0  0  0  0  0  0
    5.9544   59.9412   79.7399 H   0  0  0  0  0  0  0  0  0  0  0  0
    6.3585   61.6914   79.7399 H   0  0  0  0  0  0  0  0  0  0  0  0
    3.3497   63.0909   81.3316 H   0  0  0  0  0  0  0  0  0  0  0  0
   -5.3927   61.9799   77.5948 H   0  0  0  0  0  0  0  0  0  0  0  0
   -6.2929   58.4905   76.2043 H   0  0  0  0  0  0  0  0  0  0  0  0
   -3.9574   58.6595   75.2126 H   0  0  0  0  0  0  0  0  0  0  0  0
   -5.2897   58.2193   74.0911 H   0  0  0  0  0  0  0  0  0  0  0  0
   -4.6310   59.8904   74.0911 H   0  0  0  0  0  0  0  0  0  0  0  0
   -7.1773   59.9212   74.1095 H   0  0  0  0  0  0  0  0  0  0  0  0
   -8.0148   59.7855   75.7160 H   0  0  0  0  0  0  0  0  0  0  0  0
   -7.5376   61.8349   76.3337 H   0  0  0  0  0  0  0  0  0  0  0  0
   -5.0029   61.8578   74.5663 H   0  0  0  0  0  0  0  0  0  0  0  0
   -7.0950   63.1022   73.9789 H   0  0  0  0  0  0  0  0  0  0  0  0
   -8.7499   60.7897   73.3453 H   0  0  0  0  0  0  0  0  0  0  0  0
   -8.9005   62.3545   72.4762 H   0  0  0  0  0  0  0  0  0  0  0  0
   -7.3347   61.4742   72.4762 H   0  0  0  0  0  0  0  0  0  0  0  0
   -8.8953   63.2227   75.9884 H   0  0  0  0  0  0  0  0  0  0  0  0
   -8.8560   64.3000   74.5516 H   0  0  0  0  0  0  0  0  0  0  0  0
   -9.9032   62.8406   74.5516 H   0  0  0  0  0  0  0  0  0  0  0  0
   -5.6234   63.8885   76.4220 H   0  0  0  0  0  0  0  0  0  0  0  0
  2  1  1  0
  3  2  1  0
  4  3  2  0
  5  3  1  0
  6  5  1  0
  7  5  1  0
  8  7  1  0
  9  8  1  0
 10  8  1  0
 11 10  1  0
 12 11  1  0
 13 12  1  0
 14 13  1  0
 15 14  2  0
 16 14  1  0
 17 16  1  0
 18 17  1  0
 18  1  1  0
 19 18  1  0
 20 16  1  0
 21 13  1  0
 22 11  1  0
 24 23  1  0
 24  1  1  0
 18 25  1  6
 26 17  1  0
 11 27  1  6
 28  7  1  0
 29 28  1  0
 30 29  1  0
 31 30  1  0
 32 31  1  0
 33 31  1  0
 34 33  1  0
 35 29  1  0
 35 34  1  0
 36 34  1  0
 34 37  1  6
 38 37  1  0
 39 33  1  0
 40 10  1  0
 41 40  1  0
 42 41  1  0
 43 42  1  0
 44 43  1  0
 45 43  1  0
 46 45  1  0
 47 46  1  0
 47 41  1  0
 48 46  1  0
 49 48  1  0
 50 48  1  0
 51 47  1  0
  1 52  1  1
  5 53  1  1
  6 54  1  0
  6 55  1  0
  6 56  1  0
  7 57  1  1
  8 58  1  1
  9 59  1  0
  9 60  1  0
  9 61  1  0
 10 62  1  6
 12 63  1  0
 12 64  1  0
 13 65  1  6
 16 66  1  1
 17 67  1  6
 19 68  1  0
 19 69  1  0
 19 70  1  0
 20 71  1  0
 20 72  1  0
 20 73  1  0
 21 74  1  0
 21 75  1  0
 21 76  1  0
 22 77  1  0
 22 78  1  0
 22 79  1  0
 23 80  1  0
 23 81  1  0
 23 82  1  0
 24 83  1  0
 24 84  1  0
 25 85  1  0
 26 86  1  0
 27 87  1  0
 29 88  1  1
 31 89  1  6
 32 90  1  0
 32 91  1  0
 32 92  1  0
 33 93  1  1
 35 94  1  0
 35 95  1  0
 36 96  1  0
 36 97  1  0
 36 98  1  0
 38 99  1  0
 38100  1  0
 38101  1  0
 39102  1  0
 41103  1  1
 43104  1  1
 44105  1  0
 44106  1  0
 44107  1  0
 45108  1  0
 45109  1  0
 46110  1  1
 47111  1  6
 48112  1  0
 49113  1  0
 49114  1  0
 49115  1  0
 50116  1  0
 50117  1  0
 50118  1  0
 51119  1  0
M  CHG  1  48   1
M  END
>  <score>  (9) 
-5.994

$$$$
