=
     RDKit          3D

 16 17  0  0  0  0  0  0  0  0999 V2000
    1.4340   68.4140   65.2190 Cl  0  0  0  0  0  0  0  0  0  0  0  0
    2.9870   69.0270   65.6400 C   0  0  0  0  0  0  0  0  0  0  0  0
    4.0030   69.0620   64.6610 C   0  0  0  0  0  0  0  0  0  0  0  0
    5.2790   69.5540   64.9640 C   0  0  0  0  0  0  0  0  0  0  0  0
    5.4950   69.9980   66.2510 C   0  0  0  0  0  0  0  0  0  0  0  0
    4.4830   69.9580   67.2090 C   0  0  0  0  0  0  0  0  0  0  0  0
    3.2160   69.4800   66.9390 C   0  0  0  0  0  0  0  0  0  0  0  0
    5.0430   70.4970   68.4490 C   0  0  0  0  0  0  0  0  0  0  0  0
    4.4770   70.6280   69.5080 O   0  0  0  0  0  0  0  0  0  0  0  0
    6.5150   70.8620   68.1050 C   0  0  0  0  0  0  0  0  0  0  0  0
    7.3340   71.3400   68.8570 O   0  0  0  0  0  0  0  0  0  0  0  0
    6.6720   70.5220   66.7750 N   0  0  0  0  0  0  0  0  0  0  0  0
    3.7897   68.6976   63.6453 H   0  0  0  0  0  0  0  0  0  0  0  0
    6.0758   69.5848   64.2062 H   0  0  0  0  0  0  0  0  0  0  0  0
    2.4293   69.4577   67.7075 H   0  0  0  0  0  0  0  0  0  0  0  0
    7.5453   70.6409   66.2420 H   0  0  0  0  0  0  0  0  0  0  0  0
  2  1  1  0
  3  2  2  0
  4  3  1  0
  5  4  2  0
  6  5  1  0
  7  6  2  0
  7  2  1  0
  8  6  1  0
  9  8  2  0
 10  8  1  0
 11 10  2  0
 12  5  1  0
 12 10  1  0
  3 13  1  0
  4 14  1  0
  7 15  1  0
 12 16  1  0
M  END
>  <score>  (1) 
-7.774

$$$$
=
     RDKit          3D

 16 17  0  0  0  0  0  0  0  0999 V2000
    7.5210   71.1280   69.3470 Cl  0  0  0  0  0  0  0  0  0  0  0  0
    6.0630   70.6230   68.5830 C   0  0  0  0  0  0  0  0  0  0  0  0
    4.8640   70.6100   69.3260 C   0  0  0  0  0  0  0  0  0  0  0  0
    3.6570   70.2070   68.7410 C   0  0  0  0  0  0  0  0  0  0  0  0
    3.6940   69.8270   67.4170 C   0  0  0  0  0  0  0  0  0  0  0  0
    4.8860   69.8450   66.6930 C   0  0  0  0  0  0  0  0  0  0  0  0
    6.0890   70.2380   67.2430 C   0  0  0  0  0  0  0  0  0  0  0  0
    4.5730   69.3880   65.3380 C   0  0  0  0  0  0  0  0  0  0  0  0
    5.3420   69.2670   64.4140 O   0  0  0  0  0  0  0  0  0  0  0  0
    3.0450   69.0980   65.3500 C   0  0  0  0  0  0  0  0  0  0  0  0
    2.3800   68.6980   64.4210 O   0  0  0  0  0  0  0  0  0  0  0  0
    2.6300   69.3930   66.6340 N   0  0  0  0  0  0  0  0  0  0  0  0
    4.8772   70.9211   70.3810 H   0  0  0  0  0  0  0  0  0  0  0  0
    2.7185   70.1944   69.3146 H   0  0  0  0  0  0  0  0  0  0  0  0
    7.0190   70.2471   66.6556 H   0  0  0  0  0  0  0  0  0  0  0  0
    1.6597   69.3033   66.9677 H   0  0  0  0  0  0  0  0  0  0  0  0
  2  1  1  0
  3  2  2  0
  4  3  1  0
  5  4  2  0
  6  5  1  0
  7  6  2  0
  7  2  1  0
  8  6  1  0
  9  8  2  0
 10  8  1  0
 11 10  2  0
 12  5  1  0
 12 10  1  0
  3 13  1  0
  4 14  1  0
  7 15  1  0
 12 16  1  0
M  END
>  <score>  (2) 
-7.755

$$$$
=
     RDKit          3D

 16 17  0  0  0  0  0  0  0  0999 V2000
    5.6240   68.9270   62.7940 Cl  0  0  0  0  0  0  0  0  0  0  0  0
    4.7860   69.1550   64.2810 C   0  0  0  0  0  0  0  0  0  0  0  0
    3.4250   68.7930   64.3680 C   0  0  0  0  0  0  0  0  0  0  0  0
    2.7090   68.9620   65.5600 C   0  0  0  0  0  0  0  0  0  0  0  0
    3.3900   69.4940   66.6340 C   0  0  0  0  0  0  0  0  0  0  0  0
    4.7350   69.8470   66.5350 C   0  0  0  0  0  0  0  0  0  0  0  0
    5.4650   69.6910   65.3740 C   0  0  0  0  0  0  0  0  0  0  0  0
    5.1400   70.3720   67.8400 C   0  0  0  0  0  0  0  0  0  0  0  0
    6.2320   70.7820   68.1540 O   0  0  0  0  0  0  0  0  0  0  0  0
    3.8640   70.2850   68.7260 C   0  0  0  0  0  0  0  0  0  0  0  0
    3.7660   70.6210   69.8850 O   0  0  0  0  0  0  0  0  0  0  0  0
    2.8890   69.7500   67.9060 N   0  0  0  0  0  0  0  0  0  0  0  0
    2.9188   68.3719   63.4868 H   0  0  0  0  0  0  0  0  0  0  0  0
    1.6479   68.6820   65.6359 H   0  0  0  0  0  0  0  0  0  0  0  0
    6.5262   69.9746   65.3145 H   0  0  0  0  0  0  0  0  0  0  0  0
    1.9188   69.5651   68.1983 H   0  0  0  0  0  0  0  0  0  0  0  0
  2  1  1  0
  3  2  2  0
  4  3  1  0
  5  4  2  0
  6  5  1  0
  7  6  2  0
  7  2  1  0
  8  6  1  0
  9  8  2  0
 10  8  1  0
 11 10  2  0
 12  5  1  0
 12 10  1  0
  3 13  1  0
  4 14  1  0
  7 15  1  0
 12 16  1  0
M  END
>  <score>  (3) 
-7.581

$$$$
=
     RDKit          3D

 16 17  0  0  0  0  0  0  0  0999 V2000
    3.0070   69.9780   69.1720 Cl  0  0  0  0  0  0  0  0  0  0  0  0
    3.8800   69.8800   67.6910 C   0  0  0  0  0  0  0  0  0  0  0  0
    5.2340   70.2740   67.6610 C   0  0  0  0  0  0  0  0  0  0  0  0
    5.9790   70.2090   66.4770 C   0  0  0  0  0  0  0  0  0  0  0  0
    5.3320   69.7470   65.3500 C   0  0  0  0  0  0  0  0  0  0  0  0
    3.9930   69.3610   65.3930 C   0  0  0  0  0  0  0  0  0  0  0  0
    3.2360   69.4140   66.5460 C   0  0  0  0  0  0  0  0  0  0  0  0
    3.6270   68.9280   64.0430 C   0  0  0  0  0  0  0  0  0  0  0  0
    2.5510   68.5200   63.6750 O   0  0  0  0  0  0  0  0  0  0  0  0
    4.9190   69.1060   63.1960 C   0  0  0  0  0  0  0  0  0  0  0  0
    5.0480   68.8610   62.0170 O   0  0  0  0  0  0  0  0  0  0  0  0
    5.8650   69.5980   64.0750 N   0  0  0  0  0  0  0  0  0  0  0  0
    5.7123   70.6381   68.5822 H   0  0  0  0  0  0  0  0  0  0  0  0
    7.0356   70.5136   66.4471 H   0  0  0  0  0  0  0  0  0  0  0  0
    2.1804   69.1049   66.5605 H   0  0  0  0  0  0  0  0  0  0  0  0
    6.8367   69.8244   63.8191 H   0  0  0  0  0  0  0  0  0  0  0  0
  2  1  1  0
  3  2  2  0
  4  3  1  0
  5  4  2  0
  6  5  1  0
  7  6  2  0
  7  2  1  0
  8  6  1  0
  9  8  2  0
 10  8  1  0
 11 10  2  0
 12  5  1  0
 12 10  1  0
  3 13  1  0
  4 14  1  0
  7 15  1  0
 12 16  1  0
M  END
>  <score>  (4) 
-7.548

$$$$
=
     RDKit          3D

 16 17  0  0  0  0  0  0  0  0999 V2000
    6.1200   70.9150   68.7780 Cl  0  0  0  0  0  0  0  0  0  0  0  0
    5.0950   70.2480   67.5670 C   0  0  0  0  0  0  0  0  0  0  0  0
    5.6150   70.0120   66.2770 C   0  0  0  0  0  0  0  0  0  0  0  0
    4.8140   69.4700   65.2640 C   0  0  0  0  0  0  0  0  0  0  0  0
    3.5050   69.1800   65.5830 C   0  0  0  0  0  0  0  0  0  0  0  0
    3.0030   69.4170   66.8620 C   0  0  0  0  0  0  0  0  0  0  0  0
    3.7690   69.9490   67.8790 C   0  0  0  0  0  0  0  0  0  0  0  0
    1.5990   69.0010   66.8570 C   0  0  0  0  0  0  0  0  0  0  0  0
    0.8220   69.0480   67.7800 O   0  0  0  0  0  0  0  0  0  0  0  0
    1.3340   68.4860   65.4130 C   0  0  0  0  0  0  0  0  0  0  0  0
    0.2890   68.0490   64.9850 O   0  0  0  0  0  0  0  0  0  0  0  0
    2.5330   68.6410   64.7460 N   0  0  0  0  0  0  0  0  0  0  0  0
    6.6658   70.2575   66.0635 H   0  0  0  0  0  0  0  0  0  0  0  0
    5.2130   69.2836   64.2560 H   0  0  0  0  0  0  0  0  0  0  0  0
    3.3557   70.1278   68.8826 H   0  0  0  0  0  0  0  0  0  0  0  0
    2.6875   68.3906   63.7589 H   0  0  0  0  0  0  0  0  0  0  0  0
  2  1  1  0
  3  2  2  0
  4  3  1  0
  5  4  2  0
  6  5  1  0
  7  6  2  0
  7  2  1  0
  8  6  1  0
  9  8  2  0
 10  8  1  0
 11 10  2  0
 12  5  1  0
 12 10  1  0
  3 13  1  0
  4 14  1  0
  7 15  1  0
 12 16  1  0
M  END
>  <score>  (5) 
-7.499

$$$$
=
     RDKit          3D

 16 17  0  0  0  0  0  0  0  0999 V2000
    5.8740   69.8370   66.6860 Cl  0  0  0  0  0  0  0  0  0  0  0  0
    4.7990   69.4440   65.3990 C   0  0  0  0  0  0  0  0  0  0  0  0
    5.3000   69.3630   64.0830 C   0  0  0  0  0  0  0  0  0  0  0  0
    4.4590   69.0460   63.0090 C   0  0  0  0  0  0  0  0  0  0  0  0
    3.1300   68.8170   63.2960 C   0  0  0  0  0  0  0  0  0  0  0  0
    2.6480   68.9000   64.6010 C   0  0  0  0  0  0  0  0  0  0  0  0
    3.4540   69.2100   65.6780 C   0  0  0  0  0  0  0  0  0  0  0  0
    1.2150   68.6040   64.5500 C   0  0  0  0  0  0  0  0  0  0  0  0
    0.4430   68.5750   65.4790 O   0  0  0  0  0  0  0  0  0  0  0  0
    0.9100   68.3350   63.0490 C   0  0  0  0  0  0  0  0  0  0  0  0
   -0.1660   68.0520   62.5710 O   0  0  0  0  0  0  0  0  0  0  0  0
    2.1190   68.4900   62.3990 N   0  0  0  0  0  0  0  0  0  0  0  0
    6.3677   69.5517   63.8974 H   0  0  0  0  0  0  0  0  0  0  0  0
    4.8425   68.9824   61.9800 H   0  0  0  0  0  0  0  0  0  0  0  0
    3.0558   69.2691   66.7017 H   0  0  0  0  0  0  0  0  0  0  0  0
    2.2538   68.3781   61.3840 H   0  0  0  0  0  0  0  0  0  0  0  0
  2  1  1  0
  3  2  2  0
  4  3  1  0
  5  4  2  0
  6  5  1  0
  7  6  2  0
  7  2  1  0
  8  6  1  0
  9  8  2  0
 10  8  1  0
 11 10  2  0
 12  5  1  0
 12 10  1  0
  3 13  1  0
  4 14  1  0
  7 15  1  0
 12 16  1  0
M  END
>  <score>  (6) 
-7.451

$$$$
=
     RDKit          3D

 16 17  0  0  0  0  0  0  0  0999 V2000
    6.7820   70.5400   67.3300 Cl  0  0  0  0  0  0  0  0  0  0  0  0
    5.1090   70.2300   67.5920 C   0  0  0  0  0  0  0  0  0  0  0  0
    4.5220   70.6080   68.8180 C   0  0  0  0  0  0  0  0  0  0  0  0
    3.1640   70.3750   69.0700 C   0  0  0  0  0  0  0  0  0  0  0  0
    2.4340   69.7630   68.0740 C   0  0  0  0  0  0  0  0  0  0  0  0
    3.0260   69.3940   66.8670 C   0  0  0  0  0  0  0  0  0  0  0  0
    4.3610   69.6130   66.5910 C   0  0  0  0  0  0  0  0  0  0  0  0
    1.9820   68.7790   66.0460 C   0  0  0  0  0  0  0  0  0  0  0  0
    2.1010   68.3310   64.9300 O   0  0  0  0  0  0  0  0  0  0  0  0
    0.6960   68.8300   66.9190 C   0  0  0  0  0  0  0  0  0  0  0  0
   -0.4010   68.4220   66.6120 O   0  0  0  0  0  0  0  0  0  0  0  0
    1.0830   69.4340   68.1000 N   0  0  0  0  0  0  0  0  0  0  0  0
    5.1402   71.0931   69.5877 H   0  0  0  0  0  0  0  0  0  0  0  0
    2.6996   70.6682   70.0231 H   0  0  0  0  0  0  0  0  0  0  0  0
    4.8104   69.3162   65.6318 H   0  0  0  0  0  0  0  0  0  0  0  0
    0.4538   69.6165   68.8948 H   0  0  0  0  0  0  0  0  0  0  0  0
  2  1  1  0
  3  2  2  0
  4  3  1  0
  5  4  2  0
  6  5  1  0
  7  6  2  0
  7  2  1  0
  8  6  1  0
  9  8  2  0
 10  8  1  0
 11 10  2  0
 12  5  1  0
 12 10  1  0
  3 13  1  0
  4 14  1  0
  7 15  1  0
 12 16  1  0
M  END
>  <score>  (7) 
-7.447

$$$$
=
     RDKit          3D

 16 17  0  0  0  0  0  0  0  0999 V2000
    6.7180   70.4370   67.2320 Cl  0  0  0  0  0  0  0  0  0  0  0  0
    5.1230   69.9240   66.8340 C   0  0  0  0  0  0  0  0  0  0  0  0
    4.1310   69.9180   67.8370 C   0  0  0  0  0  0  0  0  0  0  0  0
    2.8220   69.5090   67.5530 C   0  0  0  0  0  0  0  0  0  0  0  0
    2.5500   69.1160   66.2600 C   0  0  0  0  0  0  0  0  0  0  0  0
    3.5400   69.1270   65.2790 C   0  0  0  0  0  0  0  0  0  0  0  0
    4.8370   69.5260   65.5290 C   0  0  0  0  0  0  0  0  0  0  0  0
    2.9210   68.6570   64.0380 C   0  0  0  0  0  0  0  0  0  0  0  0
    3.4530   68.5280   62.9610 O   0  0  0  0  0  0  0  0  0  0  0  0
    1.4380   68.3670   64.4090 C   0  0  0  0  0  0  0  0  0  0  0  0
    0.5760   67.9580   63.6650 O   0  0  0  0  0  0  0  0  0  0  0  0
    1.3340   68.6740   65.7520 N   0  0  0  0  0  0  0  0  0  0  0  0
    4.3893   70.2392   68.8569 H   0  0  0  0  0  0  0  0  0  0  0  0
    2.0431   69.5017   68.3297 H   0  0  0  0  0  0  0  0  0  0  0  0
    5.6042   69.5298   64.7407 H   0  0  0  0  0  0  0  0  0  0  0  0
    0.4690   68.5868   66.3043 H   0  0  0  0  0  0  0  0  0  0  0  0
  2  1  1  0
  3  2  2  0
  4  3  1  0
  5  4  2  0
  6  5  1  0
  7  6  2  0
  7  2  1  0
  8  6  1  0
  9  8  2  0
 10  8  1  0
 11 10  2  0
 12  5  1  0
 12 10  1  0
  3 13  1  0
  4 14  1  0
  7 15  1  0
 12 16  1  0
M  END
>  <score>  (8) 
-7.278

$$$$
=
     RDKit          3D

 16 17  0  0  0  0  0  0  0  0999 V2000
    3.6340   68.2670   62.0940 Cl  0  0  0  0  0  0  0  0  0  0  0  0
    3.9930   68.8200   63.6850 C   0  0  0  0  0  0  0  0  0  0  0  0
    5.2930   69.2850   63.9760 C   0  0  0  0  0  0  0  0  0  0  0  0
    5.6250   69.7430   65.2570 C   0  0  0  0  0  0  0  0  0  0  0  0
    4.6310   69.7200   66.2120 C   0  0  0  0  0  0  0  0  0  0  0  0
    3.3500   69.2590   65.9110 C   0  0  0  0  0  0  0  0  0  0  0  0
    2.9950   68.8020   64.6580 C   0  0  0  0  0  0  0  0  0  0  0  0
    2.5550   69.3700   67.1350 C   0  0  0  0  0  0  0  0  0  0  0  0
    1.3930   69.0700   67.2790 O   0  0  0  0  0  0  0  0  0  0  0  0
    3.5260   69.9560   68.1990 C   0  0  0  0  0  0  0  0  0  0  0  0
    3.2650   70.2050   69.3540 O   0  0  0  0  0  0  0  0  0  0  0  0
    4.7290   70.1230   67.5390 N   0  0  0  0  0  0  0  0  0  0  0  0
    6.0571   69.2878   63.1847 H   0  0  0  0  0  0  0  0  0  0  0  0
    6.6366   70.1059   65.4915 H   0  0  0  0  0  0  0  0  0  0  0  0
    1.9787   68.4427   64.4389 H   0  0  0  0  0  0  0  0  0  0  0  0
    5.5851   70.4967   67.9730 H   0  0  0  0  0  0  0  0  0  0  0  0
  2  1  1  0
  3  2  2  0
  4  3  1  0
  5  4  2  0
  6  5  1  0
  7  6  2  0
  7  2  1  0
  8  6  1  0
  9  8  2  0
 10  8  1  0
 11 10  2  0
 12  5  1  0
 12 10  1  0
  3 13  1  0
  4 14  1  0
  7 15  1  0
 12 16  1  0
M  END
>  <score>  (9) 
-7.152

$$$$
