=
     RDKit          3D

 63 65  0  0  0  0  0  0  0  0999 V2000
    1.1130   65.6680   70.2780 C   0  0  1  0  0  0  0  0  0  0  0  0
   -0.0060   65.0900   71.1320 C   0  0  0  0  0  0  0  0  0  0  0  0
    0.6170   64.2080   72.1740 C   0  0  0  0  0  0  0  0  0  0  0  0
    0.1320   64.0510   73.2920 O   0  0  0  0  0  0  0  0  0  0  0  0
    1.8340   63.4680   71.7840 C   0  0  0  0  0  0  0  0  0  0  0  0
    2.3690   63.7070   70.5200 C   0  0  0  0  0  0  0  0  0  0  0  0
    1.8600   64.6220   69.6380 O   0  0  0  0  0  0  0  0  0  0  0  0
    3.4650   62.9710   70.0880 C   0  0  0  0  0  0  0  0  0  0  0  0
    4.0560   62.0320   70.9370 C   0  0  0  0  0  0  0  0  0  0  0  0
    3.5580   61.7820   72.2290 C   0  0  0  0  0  0  0  0  0  0  0  0
    2.4220   62.5120   72.6320 C   0  0  0  0  0  0  0  0  0  0  0  0
   -0.4710   68.3620   67.2470 C   0  0  0  0  0  0  0  0  0  0  0  0
    0.8460   68.4900   67.6950 C   0  0  0  0  0  0  0  0  0  0  0  0
    1.3540   67.6140   68.6690 C   0  0  0  0  0  0  0  0  0  0  0  0
    0.5580   66.5900   69.2100 C   0  0  0  0  0  0  0  0  0  0  0  0
   -0.7620   66.4620   68.7610 C   0  0  0  0  0  0  0  0  0  0  0  0
   -1.2540   67.3380   67.7980 C   0  0  0  0  0  0  0  0  0  0  0  0
   -0.8780   68.8620   64.9420 C   0  0  0  0  0  0  0  0  0  0  0  0
   -1.1410   69.1140   66.3150 O   0  0  0  0  0  0  0  0  0  0  0  0
    1.6740   69.4640   67.2100 O   0  0  0  0  0  0  0  0  0  0  0  0
   -2.5540   67.1730   67.3940 O   0  0  0  0  0  0  0  0  0  0  0  0
    1.8960   62.2520   73.8740 O   0  0  0  0  0  0  0  0  0  0  0  0
    5.1310   61.3750   70.4080 O   0  0  0  0  0  0  0  0  0  0  0  0
    4.1360   60.7130   73.1370 C   0  0  0  0  0  0  0  0  0  0  0  0
    3.2620   59.5060   73.3690 C   0  0  0  0  0  0  0  0  0  0  0  0
    2.8920   58.5650   72.4780 C   0  0  0  0  0  0  0  0  0  0  0  0
    3.3790   58.5070   71.0560 C   0  0  0  0  0  0  0  0  0  0  0  0
    1.9330   57.4600   72.8860 C   0  0  0  0  0  0  0  0  0  0  0  0
    0.7940   57.9270   73.8060 C   0  0  0  0  0  0  0  0  0  0  0  0
    0.1840   59.2390   73.3870 C   0  0  0  0  0  0  0  0  0  0  0  0
   -1.0040   59.7490   73.7630 C   0  0  0  0  0  0  0  0  0  0  0  0
   -1.9530   59.0960   74.7290 C   0  0  0  0  0  0  0  0  0  0  0  0
   -1.4770   61.0750   73.2250 C   0  0  0  0  0  0  0  0  0  0  0  0
    1.7742   66.2371   70.9480 H   0  0  0  0  0  0  0  0  0  0  0  0
   -0.5645   65.9041   71.6170 H   0  0  0  0  0  0  0  0  0  0  0  0
   -0.7040   64.5120   70.5086 H   0  0  0  0  0  0  0  0  0  0  0  0
    3.8679   63.1276   69.0765 H   0  0  0  0  0  0  0  0  0  0  0  0
    2.3919   67.7317   69.0138 H   0  0  0  0  0  0  0  0  0  0  0  0
   -1.4086   65.6709   69.1685 H   0  0  0  0  0  0  0  0  0  0  0  0
   -0.0863   68.1034   64.8535 H   0  0  0  0  0  0  0  0  0  0  0  0
   -1.7934   68.4952   64.4546 H   0  0  0  0  0  0  0  0  0  0  0  0
   -0.5506   69.7922   64.4546 H   0  0  0  0  0  0  0  0  0  0  0  0
    2.6036   69.5346   67.5432 H   0  0  0  0  0  0  0  0  0  0  0  0
   -2.9404   67.7763   66.7108 H   0  0  0  0  0  0  0  0  0  0  0  0
    1.0982   62.7475   74.1873 H   0  0  0  0  0  0  0  0  0  0  0  0
    5.6074   60.6930   70.9446 H   0  0  0  0  0  0  0  0  0  0  0  0
    5.0797   60.3656   72.6912 H   0  0  0  0  0  0  0  0  0  0  0  0
    4.2548   61.1894   74.1213 H   0  0  0  0  0  0  0  0  0  0  0  0
    2.8791   59.3778   74.3922 H   0  0  0  0  0  0  0  0  0  0  0  0
    4.4712   58.3769   71.0475 H   0  0  0  0  0  0  0  0  0  0  0  0
    2.9047   57.6590   70.5403 H   0  0  0  0  0  0  0  0  0  0  0  0
    3.1172   59.4427   70.5403 H   0  0  0  0  0  0  0  0  0  0  0  0
    1.4884   57.0342   71.9744 H   0  0  0  0  0  0  0  0  0  0  0  0
    2.5199   56.7243   73.4555 H   0  0  0  0  0  0  0  0  0  0  0  0
    0.0061   57.1594   73.8020 H   0  0  0  0  0  0  0  0  0  0  0  0
    1.2260   58.0755   74.8066 H   0  0  0  0  0  0  0  0  0  0  0  0
    0.7782   59.8517   72.6931 H   0  0  0  0  0  0  0  0  0  0  0  0
   -1.6355   59.3145   75.7593 H   0  0  0  0  0  0  0  0  0  0  0  0
   -2.9681   59.4878   74.5673 H   0  0  0  0  0  0  0  0  0  0  0  0
   -1.9498   58.0080   74.5673 H   0  0  0  0  0  0  0  0  0  0  0  0
   -1.7165   61.7463   74.0629 H   0  0  0  0  0  0  0  0  0  0  0  0
   -0.6839   61.5250   72.6097 H   0  0  0  0  0  0  0  0  0  0  0  0
   -2.3758   60.9215   72.6097 H   0  0  0  0  0  0  0  0  0  0  0  0
  2  1  1  0
  3  2  1  0
  4  3  2  0
  5  3  1  0
  6  5  2  0
  7  6  1  0
  7  1  1  0
  8  6  1  0
  9  8  2  0
 10  9  1  0
 11 10  2  0
 11  5  1  0
 13 12  2  0
 14 13  1  0
 15 14  2  0
 15  1  1  0
 16 15  1  0
 17 16  2  0
 17 12  1  0
 19 18  1  0
 19 12  1  0
 20 13  1  0
 21 17  1  0
 22 11  1  0
 23  9  1  0
 24 10  1  0
 25 24  1  0
 26 25  2  0
 27 26  1  0
 28 26  1  0
 29 28  1  0
 30 29  1  0
 31 30  2  3
 32 31  1  0
 33 31  1  0
  1 34  1  1
  2 35  1  0
  2 36  1  0
  8 37  1  0
 14 38  1  0
 16 39  1  0
 18 40  1  0
 18 41  1  0
 18 42  1  0
 20 43  1  0
 21 44  1  0
 22 45  1  0
 23 46  1  0
 24 47  1  0
 24 48  1  0
 25 49  1  0
 27 50  1  0
 27 51  1  0
 27 52  1  0
 28 53  1  0
 28 54  1  0
 29 55  1  0
 29 56  1  0
 30 57  1  0
 32 58  1  0
 32 59  1  0
 32 60  1  0
 33 61  1  0
 33 62  1  0
 33 63  1  0
M  END
>  <score>  (1) 
-9.843

$$$$
=
     RDKit          3D

 63 65  0  0  0  0  0  0  0  0999 V2000
    1.1190   65.6870   70.3020 C   0  0  1  0  0  0  0  0  0  0  0  0
    0.0000   65.1010   71.1500 C   0  0  0  0  0  0  0  0  0  0  0  0
    0.6240   64.2120   72.1860 C   0  0  0  0  0  0  0  0  0  0  0  0
    0.1380   64.0450   73.3020 O   0  0  0  0  0  0  0  0  0  0  0  0
    1.8420   63.4760   71.7910 C   0  0  0  0  0  0  0  0  0  0  0  0
    2.3780   63.7260   70.5300 C   0  0  0  0  0  0  0  0  0  0  0  0
    1.8680   64.6470   69.6540 O   0  0  0  0  0  0  0  0  0  0  0  0
    3.4760   62.9960   70.0940 C   0  0  0  0  0  0  0  0  0  0  0  0
    4.0670   62.0510   70.9360 C   0  0  0  0  0  0  0  0  0  0  0  0
    3.5690   61.7900   72.2250 C   0  0  0  0  0  0  0  0  0  0  0  0
    2.4310   62.5160   72.6320 C   0  0  0  0  0  0  0  0  0  0  0  0
   -0.4890   68.3050   67.2160 C   0  0  0  0  0  0  0  0  0  0  0  0
   -1.2820   67.3050   67.7870 C   0  0  0  0  0  0  0  0  0  0  0  0
   -0.7600   66.4680   68.7860 C   0  0  0  0  0  0  0  0  0  0  0  0
    0.5630   66.6160   69.2400 C   0  0  0  0  0  0  0  0  0  0  0  0
    1.3570   67.6160   68.6680 C   0  0  0  0  0  0  0  0  0  0  0  0
    0.8290   68.4380   67.6770 C   0  0  0  0  0  0  0  0  0  0  0  0
   -0.7930   68.7700   64.8880 C   0  0  0  0  0  0  0  0  0  0  0  0
   -0.8150   69.2100   66.2390 O   0  0  0  0  0  0  0  0  0  0  0  0
   -2.5760   67.1090   67.3920 O   0  0  0  0  0  0  0  0  0  0  0  0
    1.6480   69.4010   67.1470 O   0  0  0  0  0  0  0  0  0  0  0  0
    1.9040   62.2450   73.8720 O   0  0  0  0  0  0  0  0  0  0  0  0
    5.1440   61.4000   70.4030 O   0  0  0  0  0  0  0  0  0  0  0  0
    4.1480   60.7150   73.1260 C   0  0  0  0  0  0  0  0  0  0  0  0
    3.2730   59.5090   73.3530 C   0  0  0  0  0  0  0  0  0  0  0  0
    2.8990   58.5730   72.4580 C   0  0  0  0  0  0  0  0  0  0  0  0
    3.3800   58.5240   71.0340 C   0  0  0  0  0  0  0  0  0  0  0  0
    1.9390   57.4680   72.8630 C   0  0  0  0  0  0  0  0  0  0  0  0
    0.7940   57.9340   73.7750 C   0  0  0  0  0  0  0  0  0  0  0  0
    0.1850   59.2450   73.3510 C   0  0  0  0  0  0  0  0  0  0  0  0
   -0.9840   59.7760   73.7570 C   0  0  0  0  0  0  0  0  0  0  0  0
   -1.9080   59.1520   74.7660 C   0  0  0  0  0  0  0  0  0  0  0  0
   -1.4590   61.0970   73.2100 C   0  0  0  0  0  0  0  0  0  0  0  0
    1.7788   66.2516   70.9772 H   0  0  0  0  0  0  0  0  0  0  0  0
   -0.5604   65.9105   71.6406 H   0  0  0  0  0  0  0  0  0  0  0  0
   -0.6968   64.5269   70.5216 H   0  0  0  0  0  0  0  0  0  0  0  0
    3.8807   63.1621   69.0847 H   0  0  0  0  0  0  0  0  0  0  0  0
   -1.3964   65.6833   69.2210 H   0  0  0  0  0  0  0  0  0  0  0  0
    2.3965   67.7522   69.0010 H   0  0  0  0  0  0  0  0  0  0  0  0
   -0.7381   67.6717   64.8609 H   0  0  0  0  0  0  0  0  0  0  0  0
   -1.7090   69.1040   64.3786 H   0  0  0  0  0  0  0  0  0  0  0  0
    0.0851   69.1937   64.3786 H   0  0  0  0  0  0  0  0  0  0  0  0
   -3.1185   66.3945   67.8107 H   0  0  0  0  0  0  0  0  0  0  0  0
    1.3086   70.0052   66.4400 H   0  0  0  0  0  0  0  0  0  0  0  0
    1.1052   62.7367   74.1886 H   0  0  0  0  0  0  0  0  0  0  0  0
    5.6207   60.7142   70.9346 H   0  0  0  0  0  0  0  0  0  0  0  0
    5.0901   60.3687   72.6760 H   0  0  0  0  0  0  0  0  0  0  0  0
    4.2703   61.1857   74.1127 H   0  0  0  0  0  0  0  0  0  0  0  0
    2.8922   59.3761   74.3764 H   0  0  0  0  0  0  0  0  0  0  0  0
    4.4743   58.4125   71.0202 H   0  0  0  0  0  0  0  0  0  0  0  0
    2.9178   57.6683   70.5201 H   0  0  0  0  0  0  0  0  0  0  0  0
    3.0998   59.4553   70.5201 H   0  0  0  0  0  0  0  0  0  0  0  0
    1.5005   57.0396   71.9497 H   0  0  0  0  0  0  0  0  0  0  0  0
    2.5239   56.7351   73.4381 H   0  0  0  0  0  0  0  0  0  0  0  0
    0.0071   57.1654   73.7666 H   0  0  0  0  0  0  0  0  0  0  0  0
    1.2194   58.0838   74.7783 H   0  0  0  0  0  0  0  0  0  0  0  0
    0.7622   59.8372   72.6256 H   0  0  0  0  0  0  0  0  0  0  0  0
   -1.5566   59.3893   75.7810 H   0  0  0  0  0  0  0  0  0  0  0  0
   -2.9243   59.5494   74.6275 H   0  0  0  0  0  0  0  0  0  0  0  0
   -1.9190   58.0608   74.6275 H   0  0  0  0  0  0  0  0  0  0  0  0
   -1.7020   61.7728   74.0432 H   0  0  0  0  0  0  0  0  0  0  0  0
   -0.6657   61.5452   72.5937 H   0  0  0  0  0  0  0  0  0  0  0  0
   -2.3561   60.9374   72.5937 H   0  0  0  0  0  0  0  0  0  0  0  0
  2  1  1  0
  3  2  1  0
  4  3  2  0
  5  3  1  0
  6  5  2  0
  7  6  1  0
  7  1  1  0
  8  6  1  0
  9  8  2  0
 10  9  1  0
 11 10  2  0
 11  5  1  0
 13 12  2  0
 14 13  1  0
 15 14  2  0
 15  1  1  0
 16 15  1  0
 17 16  2  0
 17 12  1  0
 19 18  1  0
 19 12  1  0
 20 13  1  0
 21 17  1  0
 22 11  1  0
 23  9  1  0
 24 10  1  0
 25 24  1  0
 26 25  2  0
 27 26  1  0
 28 26  1  0
 29 28  1  0
 30 29  1  0
 31 30  2  3
 32 31  1  0
 33 31  1  0
  1 34  1  1
  2 35  1  0
  2 36  1  0
  8 37  1  0
 14 38  1  0
 16 39  1  0
 18 40  1  0
 18 41  1  0
 18 42  1  0
 20 43  1  0
 21 44  1  0
 22 45  1  0
 23 46  1  0
 24 47  1  0
 24 48  1  0
 25 49  1  0
 27 50  1  0
 27 51  1  0
 27 52  1  0
 28 53  1  0
 28 54  1  0
 29 55  1  0
 29 56  1  0
 30 57  1  0
 32 58  1  0
 32 59  1  0
 32 60  1  0
 33 61  1  0
 33 62  1  0
 33 63  1  0
M  END
>  <score>  (2) 
-9.825

$$$$
=
     RDKit          3D

 63 65  0  0  0  0  0  0  0  0999 V2000
    0.9750   56.8230   74.0870 C   0  0  1  0  0  0  0  0  0  0  0  0
    1.9110   57.2240   75.2190 C   0  0  0  0  0  0  0  0  0  0  0  0
    2.6280   58.4740   74.8040 C   0  0  0  0  0  0  0  0  0  0  0  0
    2.9900   59.3330   75.6050 O   0  0  0  0  0  0  0  0  0  0  0  0
    2.9480   58.6190   73.3690 C   0  0  0  0  0  0  0  0  0  0  0  0
    2.4840   57.6400   72.4940 C   0  0  0  0  0  0  0  0  0  0  0  0
    1.7110   56.5770   72.8790 O   0  0  0  0  0  0  0  0  0  0  0  0
    2.8320   57.7000   71.1500 C   0  0  0  0  0  0  0  0  0  0  0  0
    3.6020   58.7640   70.6740 C   0  0  0  0  0  0  0  0  0  0  0  0
    4.0670   59.7830   71.5240 C   0  0  0  0  0  0  0  0  0  0  0  0
    3.7330   59.6820   72.8900 C   0  0  0  0  0  0  0  0  0  0  0  0
   -1.2420   53.2040   75.0580 C   0  0  0  0  0  0  0  0  0  0  0  0
    0.1200   53.1440   74.7480 C   0  0  0  0  0  0  0  0  0  0  0  0
    0.8310   54.3160   74.4420 C   0  0  0  0  0  0  0  0  0  0  0  0
    0.1990   55.5710   74.4450 C   0  0  0  0  0  0  0  0  0  0  0  0
   -1.1650   55.6310   74.7540 C   0  0  0  0  0  0  0  0  0  0  0  0
   -1.8600   54.4630   75.0530 C   0  0  0  0  0  0  0  0  0  0  0  0
   -2.2520   51.8460   76.7500 C   0  0  0  0  0  0  0  0  0  0  0  0
   -2.0980   52.1820   75.3780 O   0  0  0  0  0  0  0  0  0  0  0  0
    0.7960   51.9560   74.7290 O   0  0  0  0  0  0  0  0  0  0  0  0
   -3.1940   54.5740   75.3470 O   0  0  0  0  0  0  0  0  0  0  0  0
    4.2130   60.6460   73.7430 O   0  0  0  0  0  0  0  0  0  0  0  0
    3.8750   58.7210   69.3350 O   0  0  0  0  0  0  0  0  0  0  0  0
    4.9670   60.9060   71.0420 C   0  0  0  0  0  0  0  0  0  0  0  0
    4.3150   62.2590   70.9110 C   0  0  0  0  0  0  0  0  0  0  0  0
    3.5540   62.7190   69.8980 C   0  0  0  0  0  0  0  0  0  0  0  0
    3.1360   61.8960   68.7110 C   0  0  0  0  0  0  0  0  0  0  0  0
    3.0500   64.1520   69.9120 C   0  0  0  0  0  0  0  0  0  0  0  0
    1.9120   64.4070   70.9120 C   0  0  0  0  0  0  0  0  0  0  0  0
    1.0820   63.1830   71.2010 C   0  0  0  0  0  0  0  0  0  0  0  0
    0.9350   62.5530   72.3830 C   0  0  0  0  0  0  0  0  0  0  0  0
    1.5640   62.9910   73.6760 C   0  0  0  0  0  0  0  0  0  0  0  0
    0.0800   61.3170   72.4920 C   0  0  0  0  0  0  0  0  0  0  0  0
    0.2754   57.6572   73.9298 H   0  0  0  0  0  0  0  0  0  0  0  0
    1.3310   57.4124   76.1345 H   0  0  0  0  0  0  0  0  0  0  0  0
    2.6320   56.4188   75.4231 H   0  0  0  0  0  0  0  0  0  0  0  0
    2.5010   56.9093   70.4606 H   0  0  0  0  0  0  0  0  0  0  0  0
    1.9011   54.2503   74.1957 H   0  0  0  0  0  0  0  0  0  0  0  0
   -1.6865   56.5995   74.7605 H   0  0  0  0  0  0  0  0  0  0  0  0
   -1.8745   52.6696   77.3738 H   0  0  0  0  0  0  0  0  0  0  0  0
   -3.3168   51.6783   76.9692 H   0  0  0  0  0  0  0  0  0  0  0  0
   -1.6839   50.9299   76.9692 H   0  0  0  0  0  0  0  0  0  0  0  0
    1.7605   51.9388   74.5065 H   0  0  0  0  0  0  0  0  0  0  0  0
   -3.7218   53.7653   75.5648 H   0  0  0  0  0  0  0  0  0  0  0  0
    3.9972   60.6047   74.7083 H   0  0  0  0  0  0  0  0  0  0  0  0
    4.4153   59.4374   68.9167 H   0  0  0  0  0  0  0  0  0  0  0  0
    5.7999   61.0003   71.7543 H   0  0  0  0  0  0  0  0  0  0  0  0
    5.2776   60.6243   70.0251 H   0  0  0  0  0  0  0  0  0  0  0  0
    4.4808   62.9569   71.7450 H   0  0  0  0  0  0  0  0  0  0  0  0
    2.6633   60.9654   69.0582 H   0  0  0  0  0  0  0  0  0  0  0  0
    2.4187   62.4670   68.1032 H   0  0  0  0  0  0  0  0  0  0  0  0
    4.0202   61.6536   68.1032 H   0  0  0  0  0  0  0  0  0  0  0  0
    3.8914   64.8116   70.1707 H   0  0  0  0  0  0  0  0  0  0  0  0
    2.6434   64.3550   68.9103 H   0  0  0  0  0  0  0  0  0  0  0  0
    2.3509   64.7613   71.8564 H   0  0  0  0  0  0  0  0  0  0  0  0
    1.2427   65.1527   70.4581 H   0  0  0  0  0  0  0  0  0  0  0  0
    0.5332   62.7547   70.3494 H   0  0  0  0  0  0  0  0  0  0  0  0
    0.9853   62.5880   74.5203 H   0  0  0  0  0  0  0  0  0  0  0  0
    2.5967   62.6157   73.7270 H   0  0  0  0  0  0  0  0  0  0  0  0
    1.5703   64.0898   73.7270 H   0  0  0  0  0  0  0  0  0  0  0  0
   -0.0854   61.0779   73.5529 H   0  0  0  0  0  0  0  0  0  0  0  0
   -0.8880   61.4963   72.0013 H   0  0  0  0  0  0  0  0  0  0  0  0
    0.5893   60.4744   72.0013 H   0  0  0  0  0  0  0  0  0  0  0  0
  2  1  1  0
  3  2  1  0
  4  3  2  0
  5  3  1  0
  6  5  2  0
  7  6  1  0
  7  1  1  0
  8  6  1  0
  9  8  2  0
 10  9  1  0
 11 10  2  0
 11  5  1  0
 13 12  2  0
 14 13  1  0
 15 14  2  0
 15  1  1  0
 16 15  1  0
 17 16  2  0
 17 12  1  0
 19 18  1  0
 19 12  1  0
 20 13  1  0
 21 17  1  0
 22 11  1  0
 23  9  1  0
 24 10  1  0
 25 24  1  0
 26 25  2  0
 27 26  1  0
 28 26  1  0
 29 28  1  0
 30 29  1  0
 31 30  2  3
 32 31  1  0
 33 31  1  0
  1 34  1  6
  2 35  1  0
  2 36  1  0
  8 37  1  0
 14 38  1  0
 16 39  1  0
 18 40  1  0
 18 41  1  0
 18 42  1  0
 20 43  1  0
 21 44  1  0
 22 45  1  0
 23 46  1  0
 24 47  1  0
 24 48  1  0
 25 49  1  0
 27 50  1  0
 27 51  1  0
 27 52  1  0
 28 53  1  0
 28 54  1  0
 29 55  1  0
 29 56  1  0
 30 57  1  0
 32 58  1  0
 32 59  1  0
 32 60  1  0
 33 61  1  0
 33 62  1  0
 33 63  1  0
M  END
>  <score>  (3) 
-9.38

$$$$
=
     RDKit          3D

 63 65  0  0  0  0  0  0  0  0999 V2000
    0.3500   60.2050   73.2220 C   0  0  1  0  0  0  0  0  0  0  0  0
    0.1550   61.1230   74.4190 C   0  0  0  0  0  0  0  0  0  0  0  0
   -0.1430   62.4990   73.9010 C   0  0  0  0  0  0  0  0  0  0  0  0
   -0.8620   63.2960   74.5000 O   0  0  0  0  0  0  0  0  0  0  0  0
    0.5200   62.9000   72.6440 C   0  0  0  0  0  0  0  0  0  0  0  0
    1.2960   61.9510   71.9820 C   0  0  0  0  0  0  0  0  0  0  0  0
    1.4400   60.6560   72.4030 O   0  0  0  0  0  0  0  0  0  0  0  0
    1.9980   62.3150   70.8400 C   0  0  0  0  0  0  0  0  0  0  0  0
    1.8880   63.6120   70.3330 C   0  0  0  0  0  0  0  0  0  0  0  0
    1.0950   64.5890   70.9620 C   0  0  0  0  0  0  0  0  0  0  0  0
    0.4210   64.2090   72.1400 C   0  0  0  0  0  0  0  0  0  0  0  0
    1.1310   56.1320   74.5500 C   0  0  0  0  0  0  0  0  0  0  0  0
   -0.1190   56.4870   74.0350 C   0  0  0  0  0  0  0  0  0  0  0  0
   -0.3630   57.8000   73.6030 C   0  0  0  0  0  0  0  0  0  0  0  0
    0.6380   58.7850   73.6700 C   0  0  0  0  0  0  0  0  0  0  0  0
    1.8890   58.4300   74.1870 C   0  0  0  0  0  0  0  0  0  0  0  0
    2.1180   57.1260   74.6150 C   0  0  0  0  0  0  0  0  0  0  0  0
    1.8530   53.9020   74.0710 C   0  0  0  0  0  0  0  0  0  0  0  0
    1.5560   54.9160   75.0200 O   0  0  0  0  0  0  0  0  0  0  0  0
   -1.1360   55.5770   73.9410 O   0  0  0  0  0  0  0  0  0  0  0  0
    3.3600   56.8300   75.1150 O   0  0  0  0  0  0  0  0  0  0  0  0
   -0.3250   65.1620   72.7910 O   0  0  0  0  0  0  0  0  0  0  0  0
    2.6170   63.8510   69.2030 O   0  0  0  0  0  0  0  0  0  0  0  0
    1.0220   66.0240   70.4730 C   0  0  0  0  0  0  0  0  0  0  0  0
    0.1430   66.2630   69.2710 C   0  0  0  0  0  0  0  0  0  0  0  0
    0.2510   67.2340   68.3430 C   0  0  0  0  0  0  0  0  0  0  0  0
    1.3660   68.2420   68.2980 C   0  0  0  0  0  0  0  0  0  0  0  0
   -0.7880   67.3580   67.2410 C   0  0  0  0  0  0  0  0  0  0  0  0
   -0.8860   68.7620   66.6260 C   0  0  0  0  0  0  0  0  0  0  0  0
   -0.8780   68.7580   65.1200 C   0  0  0  0  0  0  0  0  0  0  0  0
    0.1940   68.7740   64.3050 C   0  0  0  0  0  0  0  0  0  0  0  0
    1.6250   68.7610   64.7660 C   0  0  0  0  0  0  0  0  0  0  0  0
    0.0220   68.7920   62.8080 C   0  0  0  0  0  0  0  0  0  0  0  0
   -0.5831   60.2263   72.6398 H   0  0  0  0  0  0  0  0  0  0  0  0
   -0.6850   60.7644   75.0321 H   0  0  0  0  0  0  0  0  0  0  0  0
    1.0606   61.1363   75.0432 H   0  0  0  0  0  0  0  0  0  0  0  0
    2.6418   61.5805   70.3339 H   0  0  0  0  0  0  0  0  0  0  0  0
   -1.3543   58.0628   73.2052 H   0  0  0  0  0  0  0  0  0  0  0  0
    2.6901   59.1807   74.2549 H   0  0  0  0  0  0  0  0  0  0  0  0
    2.1245   52.9752   74.5976 H   0  0  0  0  0  0  0  0  0  0  0  0
    0.9703   53.7203   73.4402 H   0  0  0  0  0  0  0  0  0  0  0  0
    2.6942   54.2252   73.4402 H   0  0  0  0  0  0  0  0  0  0  0  0
   -2.0131   55.8512   73.5728 H   0  0  0  0  0  0  0  0  0  0  0  0
    3.5613   55.9132   75.4296 H   0  0  0  0  0  0  0  0  0  0  0  0
   -0.8110   64.9282   73.6212 H   0  0  0  0  0  0  0  0  0  0  0  0
    2.5946   64.7455   68.7794 H   0  0  0  0  0  0  0  0  0  0  0  0
    0.6408   66.6431   71.2985 H   0  0  0  0  0  0  0  0  0  0  0  0
    2.0422   66.2836   70.1539 H   0  0  0  0  0  0  0  0  0  0  0  0
   -0.6896   65.5571   69.1350 H   0  0  0  0  0  0  0  0  0  0  0  0
    1.6609   68.5086   69.3237 H   0  0  0  0  0  0  0  0  0  0  0  0
    2.2287   67.8111   67.7687 H   0  0  0  0  0  0  0  0  0  0  0  0
    1.0241   69.1436   67.7687 H   0  0  0  0  0  0  0  0  0  0  0  0
   -0.5298   66.6480   66.4415 H   0  0  0  0  0  0  0  0  0  0  0  0
   -1.7644   67.1443   67.7004 H   0  0  0  0  0  0  0  0  0  0  0  0
   -1.8218   69.2279   66.9683 H   0  0  0  0  0  0  0  0  0  0  0  0
    0.0021   69.3224   66.9536 H   0  0  0  0  0  0  0  0  0  0  0  0
   -1.8620   68.7399   64.6287 H   0  0  0  0  0  0  0  0  0  0  0  0
    1.6560   68.7607   65.8656 H   0  0  0  0  0  0  0  0  0  0  0  0
    2.1248   67.8583   64.3849 H   0  0  0  0  0  0  0  0  0  0  0  0
    2.1411   69.6545   64.3849 H   0  0  0  0  0  0  0  0  0  0  0  0
   -1.0445   68.9036   62.5628 H   0  0  0  0  0  0  0  0  0  0  0  0
    0.5860   69.6360   62.3842 H   0  0  0  0  0  0  0  0  0  0  0  0
    0.3990   67.8495   62.3842 H   0  0  0  0  0  0  0  0  0  0  0  0
  2  1  1  0
  3  2  1  0
  4  3  2  0
  5  3  1  0
  6  5  2  0
  7  6  1  0
  7  1  1  0
  8  6  1  0
  9  8  2  0
 10  9  1  0
 11 10  2  0
 11  5  1  0
 13 12  2  0
 14 13  1  0
 15 14  2  0
 15  1  1  0
 16 15  1  0
 17 16  2  0
 17 12  1  0
 19 18  1  0
 19 12  1  0
 20 13  1  0
 21 17  1  0
 22 11  1  0
 23  9  1  0
 24 10  1  0
 25 24  1  0
 26 25  2  0
 27 26  1  0
 28 26  1  0
 29 28  1  0
 30 29  1  0
 31 30  2  3
 32 31  1  0
 33 31  1  0
  1 34  1  6
  2 35  1  0
  2 36  1  0
  8 37  1  0
 14 38  1  0
 16 39  1  0
 18 40  1  0
 18 41  1  0
 18 42  1  0
 20 43  1  0
 21 44  1  0
 22 45  1  0
 23 46  1  0
 24 47  1  0
 24 48  1  0
 25 49  1  0
 27 50  1  0
 27 51  1  0
 27 52  1  0
 28 53  1  0
 28 54  1  0
 29 55  1  0
 29 56  1  0
 30 57  1  0
 32 58  1  0
 32 59  1  0
 32 60  1  0
 33 61  1  0
 33 62  1  0
 33 63  1  0
M  END
>  <score>  (4) 
-9.199

$$$$
=
     RDKit          3D

 63 65  0  0  0  0  0  0  0  0999 V2000
    1.4770   61.6470   74.7130 C   0  0  1  0  0  0  0  0  0  0  0  0
    1.0880   62.9310   75.4320 C   0  0  0  0  0  0  0  0  0  0  0  0
    0.4120   63.8290   74.4380 C   0  0  0  0  0  0  0  0  0  0  0  0
   -0.4710   64.6250   74.7520 O   0  0  0  0  0  0  0  0  0  0  0  0
    0.8940   63.7690   73.0440 C   0  0  0  0  0  0  0  0  0  0  0  0
    1.8700   62.8260   72.7290 C   0  0  0  0  0  0  0  0  0  0  0  0
    2.3730   61.9210   73.6250 O   0  0  0  0  0  0  0  0  0  0  0  0
    2.4050   62.7940   71.4470 C   0  0  0  0  0  0  0  0  0  0  0  0
    1.9300   63.6710   70.4690 C   0  0  0  0  0  0  0  0  0  0  0  0
    0.9290   64.6200   70.7440 C   0  0  0  0  0  0  0  0  0  0  0  0
    0.4280   64.6600   72.0610 C   0  0  0  0  0  0  0  0  0  0  0  0
    3.3930   58.8170   77.4100 C   0  0  0  0  0  0  0  0  0  0  0  0
    3.6960   58.8180   76.0460 C   0  0  0  0  0  0  0  0  0  0  0  0
    3.0790   59.7370   75.1810 C   0  0  0  0  0  0  0  0  0  0  0  0
    2.1520   60.6780   75.6640 C   0  0  0  0  0  0  0  0  0  0  0  0
    1.8480   60.6760   77.0300 C   0  0  0  0  0  0  0  0  0  0  0  0
    2.4640   59.7580   77.8750 C   0  0  0  0  0  0  0  0  0  0  0  0
    3.3610   56.6890   78.5050 C   0  0  0  0  0  0  0  0  0  0  0  0
    3.8840   58.0050   78.4010 O   0  0  0  0  0  0  0  0  0  0  0  0
    4.5890   57.9310   75.5120 O   0  0  0  0  0  0  0  0  0  0  0  0
    2.1310   59.7960   79.2050 O   0  0  0  0  0  0  0  0  0  0  0  0
   -0.5210   65.6080   72.3600 O   0  0  0  0  0  0  0  0  0  0  0  0
    2.5250   63.5420   69.2450 O   0  0  0  0  0  0  0  0  0  0  0  0
    0.4540   65.6320   69.7180 C   0  0  0  0  0  0  0  0  0  0  0  0
    1.2300   66.9240   69.6650 C   0  0  0  0  0  0  0  0  0  0  0  0
    1.2450   67.8440   68.6800 C   0  0  0  0  0  0  0  0  0  0  0  0
    0.3880   67.7780   67.4460 C   0  0  0  0  0  0  0  0  0  0  0  0
    2.1620   69.0510   68.7760 C   0  0  0  0  0  0  0  0  0  0  0  0
    2.8130   69.4530   67.4430 C   0  0  0  0  0  0  0  0  0  0  0  0
    4.2230   69.9600   67.5940 C   0  0  0  0  0  0  0  0  0  0  0  0
    5.1910   69.9860   66.6570 C   0  0  0  0  0  0  0  0  0  0  0  0
    5.0220   69.5300   65.2340 C   0  0  0  0  0  0  0  0  0  0  0  0
    6.5650   70.5090   66.9860 C   0  0  0  0  0  0  0  0  0  0  0  0
    0.5515   61.1973   74.3242 H   0  0  0  0  0  0  0  0  0  0  0  0
    0.3990   62.7026   76.2585 H   0  0  0  0  0  0  0  0  0  0  0  0
    1.9797   63.4225   75.8483 H   0  0  0  0  0  0  0  0  0  0  0  0
    3.2030   62.0776   71.2021 H   0  0  0  0  0  0  0  0  0  0  0  0
    3.3248   59.7204   74.1089 H   0  0  0  0  0  0  0  0  0  0  0  0
    1.1239   61.3984   77.4347 H   0  0  0  0  0  0  0  0  0  0  0  0
    3.2540   56.4198   79.5662 H   0  0  0  0  0  0  0  0  0  0  0  0
    2.3773   56.6456   78.0147 H   0  0  0  0  0  0  0  0  0  0  0  0
    4.0466   55.9822   78.0147 H   0  0  0  0  0  0  0  0  0  0  0  0
    4.7872   57.9514   74.5423 H   0  0  0  0  0  0  0  0  0  0  0  0
    2.5478   59.1591   79.8380 H   0  0  0  0  0  0  0  0  0  0  0  0
   -0.8939   65.6636   73.2754 H   0  0  0  0  0  0  0  0  0  0  0  0
    2.2467   64.1257   68.4954 H   0  0  0  0  0  0  0  0  0  0  0  0
    0.5141   65.1609   68.7258 H   0  0  0  0  0  0  0  0  0  0  0  0
   -0.5671   65.9080   70.0200 H   0  0  0  0  0  0  0  0  0  0  0  0
    1.8620   67.1427   70.5383 H   0  0  0  0  0  0  0  0  0  0  0  0
   -0.6694   67.6966   67.7379 H   0  0  0  0  0  0  0  0  0  0  0  0
    0.5343   68.6901   66.8487 H   0  0  0  0  0  0  0  0  0  0  0  0
    0.6723   66.8991   66.8487 H   0  0  0  0  0  0  0  0  0  0  0  0
    1.5727   69.9040   69.1436 H   0  0  0  0  0  0  0  0  0  0  0  0
    2.9800   68.7741   69.4573 H   0  0  0  0  0  0  0  0  0  0  0  0
    2.8278   68.5731   66.7830 H   0  0  0  0  0  0  0  0  0  0  0  0
    2.2152   70.2765   67.0254 H   0  0  0  0  0  0  0  0  0  0  0  0
    4.4942   70.3550   68.5842 H   0  0  0  0  0  0  0  0  0  0  0  0
    4.6398   68.4986   65.2224 H   0  0  0  0  0  0  0  0  0  0  0  0
    4.3091   70.1910   64.7193 H   0  0  0  0  0  0  0  0  0  0  0  0
    5.9935   69.5668   64.7193 H   0  0  0  0  0  0  0  0  0  0  0  0
    6.6877   70.5557   68.0781 H   0  0  0  0  0  0  0  0  0  0  0  0
    7.3248   69.8372   66.5600 H   0  0  0  0  0  0  0  0  0  0  0  0
    6.6857   71.5160   66.5600 H   0  0  0  0  0  0  0  0  0  0  0  0
  2  1  1  0
  3  2  1  0
  4  3  2  0
  5  3  1  0
  6  5  2  0
  7  6  1  0
  7  1  1  0
  8  6  1  0
  9  8  2  0
 10  9  1  0
 11 10  2  0
 11  5  1  0
 13 12  2  0
 14 13  1  0
 15 14  2  0
 15  1  1  0
 16 15  1  0
 17 16  2  0
 17 12  1  0
 19 18  1  0
 19 12  1  0
 20 13  1  0
 21 17  1  0
 22 11  1  0
 23  9  1  0
 24 10  1  0
 25 24  1  0
 26 25  2  0
 27 26  1  0
 28 26  1  0
 29 28  1  0
 30 29  1  0
 31 30  2  3
 32 31  1  0
 33 31  1  0
  1 34  1  6
  2 35  1  0
  2 36  1  0
  8 37  1  0
 14 38  1  0
 16 39  1  0
 18 40  1  0
 18 41  1  0
 18 42  1  0
 20 43  1  0
 21 44  1  0
 22 45  1  0
 23 46  1  0
 24 47  1  0
 24 48  1  0
 25 49  1  0
 27 50  1  0
 27 51  1  0
 27 52  1  0
 28 53  1  0
 28 54  1  0
 29 55  1  0
 29 56  1  0
 30 57  1  0
 32 58  1  0
 32 59  1  0
 32 60  1  0
 33 61  1  0
 33 62  1  0
 33 63  1  0
M  END
>  <score>  (5) 
-9.14

$$$$
=
     RDKit          3D

 63 65  0  0  0  0  0  0  0  0999 V2000
    1.9100   59.6120   72.5940 C   0  0  1  0  0  0  0  0  0  0  0  0
    2.5470   59.4270   71.2240 C   0  0  0  0  0  0  0  0  0  0  0  0
    3.0060   60.7730   70.7440 C   0  0  0  0  0  0  0  0  0  0  0  0
    3.9880   60.9230   70.0190 O   0  0  0  0  0  0  0  0  0  0  0  0
    2.1850   61.9380   71.1290 C   0  0  0  0  0  0  0  0  0  0  0  0
    1.1050   61.7240   71.9820 C   0  0  0  0  0  0  0  0  0  0  0  0
    0.7880   60.5040   72.5200 O   0  0  0  0  0  0  0  0  0  0  0  0
    0.2630   62.7810   72.3030 C   0  0  0  0  0  0  0  0  0  0  0  0
    0.5300   64.0620   71.8110 C   0  0  0  0  0  0  0  0  0  0  0  0
    1.6260   64.3200   70.9680 C   0  0  0  0  0  0  0  0  0  0  0  0
    2.4440   63.2250   70.6250 C   0  0  0  0  0  0  0  0  0  0  0  0
    0.5460   55.8270   74.2570 C   0  0  0  0  0  0  0  0  0  0  0  0
   -0.2600   56.9670   74.3250 C   0  0  0  0  0  0  0  0  0  0  0  0
    0.1830   58.1840   73.7810 C   0  0  0  0  0  0  0  0  0  0  0  0
    1.4370   58.2850   73.1540 C   0  0  0  0  0  0  0  0  0  0  0  0
    2.2440   57.1430   73.0870 C   0  0  0  0  0  0  0  0  0  0  0  0
    1.7960   55.9440   73.6320 C   0  0  0  0  0  0  0  0  0  0  0  0
    0.3760   54.3430   76.1270 C   0  0  0  0  0  0  0  0  0  0  0  0
    0.2920   54.5630   74.7270 O   0  0  0  0  0  0  0  0  0  0  0  0
   -1.4900   56.9360   74.9200 O   0  0  0  0  0  0  0  0  0  0  0  0
    2.6240   54.8560   73.5430 O   0  0  0  0  0  0  0  0  0  0  0  0
    3.4950   63.4490   69.7690 O   0  0  0  0  0  0  0  0  0  0  0  0
   -0.3610   65.0230   72.1990 O   0  0  0  0  0  0  0  0  0  0  0  0
    1.8890   65.6860   70.3610 C   0  0  0  0  0  0  0  0  0  0  0  0
    0.9520   66.1040   69.2570 C   0  0  0  0  0  0  0  0  0  0  0  0
    0.9000   67.2880   68.6140 C   0  0  0  0  0  0  0  0  0  0  0  0
    1.8680   68.4170   68.8410 C   0  0  0  0  0  0  0  0  0  0  0  0
   -0.1780   67.5480   67.5760 C   0  0  0  0  0  0  0  0  0  0  0  0
    0.3310   68.2420   66.3040 C   0  0  0  0  0  0  0  0  0  0  0  0
    1.2930   67.4010   65.5060 C   0  0  0  0  0  0  0  0  0  0  0  0
    2.5370   67.7320   65.1070 C   0  0  0  0  0  0  0  0  0  0  0  0
    3.2250   69.0300   65.4270 C   0  0  0  0  0  0  0  0  0  0  0  0
    3.3610   66.7740   64.2870 C   0  0  0  0  0  0  0  0  0  0  0  0
    2.6778   60.0388   73.2560 H   0  0  0  0  0  0  0  0  0  0  0  0
    3.4061   58.7443   71.3002 H   0  0  0  0  0  0  0  0  0  0  0  0
    1.8215   58.9953   70.5189 H   0  0  0  0  0  0  0  0  0  0  0  0
   -0.6141   62.6101   72.9445 H   0  0  0  0  0  0  0  0  0  0  0  0
   -0.4621   59.0726   73.8468 H   0  0  0  0  0  0  0  0  0  0  0  0
    3.2310   57.1937   72.6041 H   0  0  0  0  0  0  0  0  0  0  0  0
    0.0329   55.2416   76.6606 H   0  0  0  0  0  0  0  0  0  0  0  0
   -0.2590   53.4881   76.4026 H   0  0  0  0  0  0  0  0  0  0  0  0
    1.4192   54.1288   76.4026 H   0  0  0  0  0  0  0  0  0  0  0  0
   -2.0432   57.7562   74.9562 H   0  0  0  0  0  0  0  0  0  0  0  0
    2.3397   53.9855   73.9193 H   0  0  0  0  0  0  0  0  0  0  0  0
    4.0889   62.7011   69.5080 H   0  0  0  0  0  0  0  0  0  0  0  0
   -0.2447   65.9578   71.8945 H   0  0  0  0  0  0  0  0  0  0  0  0
    1.8170   66.4325   71.1657 H   0  0  0  0  0  0  0  0  0  0  0  0
    2.8852   65.6212   69.8991 H   0  0  0  0  0  0  0  0  0  0  0  0
    0.2192   65.3491   68.9358 H   0  0  0  0  0  0  0  0  0  0  0  0
    2.0021   68.5734   69.9215 H   0  0  0  0  0  0  0  0  0  0  0  0
    2.8367   68.1670   68.3837 H   0  0  0  0  0  0  0  0  0  0  0  0
    1.4730   69.3362   68.3837 H   0  0  0  0  0  0  0  0  0  0  0  0
   -0.6214   66.5830   67.2892 H   0  0  0  0  0  0  0  0  0  0  0  0
   -0.9068   68.2294   68.0392 H   0  0  0  0  0  0  0  0  0  0  0  0
   -0.5338   68.4808   65.6675 H   0  0  0  0  0  0  0  0  0  0  0  0
    0.8754   69.1433   66.6223 H   0  0  0  0  0  0  0  0  0  0  0  0
    0.9391   66.4009   65.2153 H   0  0  0  0  0  0  0  0  0  0  0  0
    3.2894   69.1515   66.5184 H   0  0  0  0  0  0  0  0  0  0  0  0
    4.2380   69.0234   64.9984 H   0  0  0  0  0  0  0  0  0  0  0  0
    2.6509   69.8647   64.9984 H   0  0  0  0  0  0  0  0  0  0  0  0
    3.9297   66.1128   64.9574 H   0  0  0  0  0  0  0  0  0  0  0  0
    2.6966   66.1691   63.6524 H   0  0  0  0  0  0  0  0  0  0  0  0
    4.0584   67.3405   63.6524 H   0  0  0  0  0  0  0  0  0  0  0  0
  2  1  1  0
  3  2  1  0
  4  3  2  0
  5  3  1  0
  6  5  2  0
  7  6  1  0
  7  1  1  0
  8  6  1  0
  9  8  2  0
 10  9  1  0
 11 10  2  0
 11  5  1  0
 13 12  2  0
 14 13  1  0
 15 14  2  0
 15  1  1  0
 16 15  1  0
 17 16  2  0
 17 12  1  0
 19 18  1  0
 19 12  1  0
 20 13  1  0
 21 17  1  0
 22 11  1  0
 23  9  1  0
 24 10  1  0
 25 24  1  0
 26 25  2  0
 27 26  1  0
 28 26  1  0
 29 28  1  0
 30 29  1  0
 31 30  2  3
 32 31  1  0
 33 31  1  0
  1 34  1  1
  2 35  1  0
  2 36  1  0
  8 37  1  0
 14 38  1  0
 16 39  1  0
 18 40  1  0
 18 41  1  0
 18 42  1  0
 20 43  1  0
 21 44  1  0
 22 45  1  0
 23 46  1  0
 24 47  1  0
 24 48  1  0
 25 49  1  0
 27 50  1  0
 27 51  1  0
 27 52  1  0
 28 53  1  0
 28 54  1  0
 29 55  1  0
 29 56  1  0
 30 57  1  0
 32 58  1  0
 32 59  1  0
 32 60  1  0
 33 61  1  0
 33 62  1  0
 33 63  1  0
M  END
>  <score>  (6) 
-8.927

$$$$
=
     RDKit          3D

 63 65  0  0  0  0  0  0  0  0999 V2000
    2.4840   61.1620   72.5460 C   0  0  1  0  0  0  0  0  0  0  0  0
    2.6360   60.8710   71.0600 C   0  0  0  0  0  0  0  0  0  0  0  0
    2.6560   62.1830   70.3330 C   0  0  0  0  0  0  0  0  0  0  0  0
    3.2880   62.3600   69.2940 O   0  0  0  0  0  0  0  0  0  0  0  0
    1.8230   63.2690   70.8870 C   0  0  0  0  0  0  0  0  0  0  0  0
    1.1560   63.0350   72.0870 C   0  0  0  0  0  0  0  0  0  0  0  0
    1.2640   61.8730   72.8050 O   0  0  0  0  0  0  0  0  0  0  0  0
    0.3010   64.0030   72.5980 C   0  0  0  0  0  0  0  0  0  0  0  0
    0.1510   65.2240   71.9350 C   0  0  0  0  0  0  0  0  0  0  0  0
    0.8280   65.5050   70.7350 C   0  0  0  0  0  0  0  0  0  0  0  0
    1.6610   64.4930   70.2150 C   0  0  0  0  0  0  0  0  0  0  0  0
    2.4040   57.4890   74.8830 C   0  0  0  0  0  0  0  0  0  0  0  0
    1.3690   57.7910   73.9940 C   0  0  0  0  0  0  0  0  0  0  0  0
    1.4030   58.9740   73.2380 C   0  0  0  0  0  0  0  0  0  0  0  0
    2.4740   59.8760   73.3510 C   0  0  0  0  0  0  0  0  0  0  0  0
    3.5110   59.5750   74.2420 C   0  0  0  0  0  0  0  0  0  0  0  0
    3.4640   58.4010   74.9870 C   0  0  0  0  0  0  0  0  0  0  0  0
    2.5330   55.1090   75.1010 C   0  0  0  0  0  0  0  0  0  0  0  0
    2.5470   56.3960   75.7000 O   0  0  0  0  0  0  0  0  0  0  0  0
    0.2980   56.9550   73.8360 O   0  0  0  0  0  0  0  0  0  0  0  0
    4.5030   58.1520   75.8470 O   0  0  0  0  0  0  0  0  0  0  0  0
    2.2980   64.7340   69.0220 O   0  0  0  0  0  0  0  0  0  0  0  0
   -0.7090   66.1010   72.5340 O   0  0  0  0  0  0  0  0  0  0  0  0
    0.6210   66.7920   69.9590 C   0  0  0  0  0  0  0  0  0  0  0  0
    1.4560   66.9490   68.7130 C   0  0  0  0  0  0  0  0  0  0  0  0
    1.1120   67.5360   67.5500 C   0  0  0  0  0  0  0  0  0  0  0  0
   -0.1950   68.2420   67.3120 C   0  0  0  0  0  0  0  0  0  0  0  0
    2.0720   67.5220   66.3730 C   0  0  0  0  0  0  0  0  0  0  0  0
    2.4940   68.9190   65.8910 C   0  0  0  0  0  0  0  0  0  0  0  0
    3.7170   69.4500   66.5930 C   0  0  0  0  0  0  0  0  0  0  0  0
    4.9340   69.6770   66.0620 C   0  0  0  0  0  0  0  0  0  0  0  0
    5.2950   69.4670   64.6180 C   0  0  0  0  0  0  0  0  0  0  0  0
    6.0620   70.1920   66.9180 C   0  0  0  0  0  0  0  0  0  0  0  0
    3.3431   61.7793   72.8475 H   0  0  0  0  0  0  0  0  0  0  0  0
    3.5762   60.3293   70.8795 H   0  0  0  0  0  0  0  0  0  0  0  0
    1.8019   60.2484   70.7042 H   0  0  0  0  0  0  0  0  0  0  0  0
   -0.2583   63.8084   73.5250 H   0  0  0  0  0  0  0  0  0  0  0  0
    0.5776   59.1979   72.5462 H   0  0  0  0  0  0  0  0  0  0  0  0
    4.3606   60.2648   74.3527 H   0  0  0  0  0  0  0  0  0  0  0  0
    2.5246   54.3390   75.8865 H   0  0  0  0  0  0  0  0  0  0  0  0
    1.6337   55.0051   74.4762 H   0  0  0  0  0  0  0  0  0  0  0  0
    3.4299   54.9856   74.4762 H   0  0  0  0  0  0  0  0  0  0  0  0
   -0.4236   57.1897   73.2002 H   0  0  0  0  0  0  0  0  0  0  0  0
    4.5057   57.3271   76.3944 H   0  0  0  0  0  0  0  0  0  0  0  0
    2.8900   64.0448   68.6289 H   0  0  0  0  0  0  0  0  0  0  0  0
   -0.8720   66.9894   72.1286 H   0  0  0  0  0  0  0  0  0  0  0  0
   -0.4376   66.8418   69.6643 H   0  0  0  0  0  0  0  0  0  0  0  0
    0.9363   67.6015   70.6337 H   0  0  0  0  0  0  0  0  0  0  0  0
    2.4729   66.5322   68.7594 H   0  0  0  0  0  0  0  0  0  0  0  0
   -0.6579   68.4920   68.2780 H   0  0  0  0  0  0  0  0  0  0  0  0
   -0.0145   69.1653   66.7420 H   0  0  0  0  0  0  0  0  0  0  0  0
   -0.8682   67.5849   66.7420 H   0  0  0  0  0  0  0  0  0  0  0  0
    2.9765   66.9717   66.6714 H   0  0  0  0  0  0  0  0  0  0  0  0
    1.5411   67.0446   65.5362 H   0  0  0  0  0  0  0  0  0  0  0  0
    2.7060   68.8666   64.8129 H   0  0  0  0  0  0  0  0  0  0  0  0
    1.6651   69.6053   66.1189 H   0  0  0  0  0  0  0  0  0  0  0  0
    3.6028   69.6787   67.6629 H   0  0  0  0  0  0  0  0  0  0  0  0
    6.2442   68.9148   64.5539 H   0  0  0  0  0  0  0  0  0  0  0  0
    4.5009   68.8899   64.1217 H   0  0  0  0  0  0  0  0  0  0  0  0
    5.4041   70.4426   64.1217 H   0  0  0  0  0  0  0  0  0  0  0  0
    5.8005   70.0726   67.9798 H   0  0  0  0  0  0  0  0  0  0  0  0
    6.9775   69.6227   66.6996 H   0  0  0  0  0  0  0  0  0  0  0  0
    6.2315   71.2567   66.6996 H   0  0  0  0  0  0  0  0  0  0  0  0
  2  1  1  0
  3  2  1  0
  4  3  2  0
  5  3  1  0
  6  5  2  0
  7  6  1  0
  7  1  1  0
  8  6  1  0
  9  8  2  0
 10  9  1  0
 11 10  2  0
 11  5  1  0
 13 12  2  0
 14 13  1  0
 15 14  2  0
 15  1  1  0
 16 15  1  0
 17 16  2  0
 17 12  1  0
 19 18  1  0
 19 12  1  0
 20 13  1  0
 21 17  1  0
 22 11  1  0
 23  9  1  0
 24 10  1  0
 25 24  1  0
 26 25  2  0
 27 26  1  0
 28 26  1  0
 29 28  1  0
 30 29  1  0
 31 30  2  3
 32 31  1  0
 33 31  1  0
  1 34  1  1
  2 35  1  0
  2 36  1  0
  8 37  1  0
 14 38  1  0
 16 39  1  0
 18 40  1  0
 18 41  1  0
 18 42  1  0
 20 43  1  0
 21 44  1  0
 22 45  1  0
 23 46  1  0
 24 47  1  0
 24 48  1  0
 25 49  1  0
 27 50  1  0
 27 51  1  0
 27 52  1  0
 28 53  1  0
 28 54  1  0
 29 55  1  0
 29 56  1  0
 30 57  1  0
 32 58  1  0
 32 59  1  0
 32 60  1  0
 33 61  1  0
 33 62  1  0
 33 63  1  0
M  END
>  <score>  (7) 
-8.612

$$$$
=
     RDKit          3D

 63 65  0  0  0  0  0  0  0  0999 V2000
   -3.1200   60.3110   74.2950 C   0  0  1  0  0  0  0  0  0  0  0  0
   -2.4440   61.5230   74.9200 C   0  0  0  0  0  0  0  0  0  0  0  0
   -1.0710   61.6420   74.3260 C   0  0  0  0  0  0  0  0  0  0  0  0
   -0.5060   62.7210   74.1650 O   0  0  0  0  0  0  0  0  0  0  0  0
   -0.3760   60.3840   73.9860 C   0  0  0  0  0  0  0  0  0  0  0  0
   -1.0700   59.1880   74.1510 C   0  0  0  0  0  0  0  0  0  0  0  0
   -2.3740   59.1140   74.5640 O   0  0  0  0  0  0  0  0  0  0  0  0
   -0.4230   57.9810   73.9180 C   0  0  0  0  0  0  0  0  0  0  0  0
    0.9020   57.9720   73.4740 C   0  0  0  0  0  0  0  0  0  0  0  0
    1.6260   59.1610   73.2730 C   0  0  0  0  0  0  0  0  0  0  0  0
    0.9620   60.3720   73.5520 C   0  0  0  0  0  0  0  0  0  0  0  0
   -7.1750   59.7940   75.7930 C   0  0  0  0  0  0  0  0  0  0  0  0
   -6.4800   58.7190   75.2320 C   0  0  0  0  0  0  0  0  0  0  0  0
   -5.1700   58.8900   74.7550 C   0  0  0  0  0  0  0  0  0  0  0  0
   -4.5260   60.1370   74.8360 C   0  0  0  0  0  0  0  0  0  0  0  0
   -5.2210   61.2140   75.3980 C   0  0  0  0  0  0  0  0  0  0  0  0
   -6.5200   61.0320   75.8630 C   0  0  0  0  0  0  0  0  0  0  0  0
   -8.6990   59.1120   77.5080 C   0  0  0  0  0  0  0  0  0  0  0  0
   -8.4470   59.8240   76.3050 O   0  0  0  0  0  0  0  0  0  0  0  0
   -7.0480   57.4800   75.1240 O   0  0  0  0  0  0  0  0  0  0  0  0
   -7.1600   62.1180   76.4020 O   0  0  0  0  0  0  0  0  0  0  0  0
    1.6660   61.5420   73.4020 O   0  0  0  0  0  0  0  0  0  0  0  0
    1.4310   56.7280   73.2710 O   0  0  0  0  0  0  0  0  0  0  0  0
    3.0880   59.1710   72.8660 C   0  0  0  0  0  0  0  0  0  0  0  0
    3.3620   59.4910   71.4180 C   0  0  0  0  0  0  0  0  0  0  0  0
    4.2070   60.4130   70.9170 C   0  0  0  0  0  0  0  0  0  0  0  0
    5.1260   61.2630   71.7510 C   0  0  0  0  0  0  0  0  0  0  0  0
    4.2860   60.6430   69.4170 C   0  0  0  0  0  0  0  0  0  0  0  0
    3.6720   61.9720   68.9530 C   0  0  0  0  0  0  0  0  0  0  0  0
    2.2860   62.2130   69.4920 C   0  0  0  0  0  0  0  0  0  0  0  0
    1.8720   63.2390   70.2600 C   0  0  0  0  0  0  0  0  0  0  0  0
    2.7370   64.3860   70.7030 C   0  0  0  0  0  0  0  0  0  0  0  0
    0.4440   63.3140   70.7370 C   0  0  0  0  0  0  0  0  0  0  0  0
   -3.1616   60.4839   73.2095 H   0  0  0  0  0  0  0  0  0  0  0  0
   -3.0261   62.4302   74.7007 H   0  0  0  0  0  0  0  0  0  0  0  0
   -2.3806   61.4060   76.0119 H   0  0  0  0  0  0  0  0  0  0  0  0
   -0.9539   57.0319   74.0831 H   0  0  0  0  0  0  0  0  0  0  0  0
   -4.6396   58.0347   74.3110 H   0  0  0  0  0  0  0  0  0  0  0  0
   -4.7419   62.2014   75.4719 H   0  0  0  0  0  0  0  0  0  0  0  0
   -8.4710   59.7562   78.3700 H   0  0  0  0  0  0  0  0  0  0  0  0
   -9.7573   58.8139   77.5428 H   0  0  0  0  0  0  0  0  0  0  0  0
   -8.0639   58.2145   77.5428 H   0  0  0  0  0  0  0  0  0  0  0  0
   -6.5357   56.7339   74.7228 H   0  0  0  0  0  0  0  0  0  0  0  0
   -8.0849   62.0283   76.7436 H   0  0  0  0  0  0  0  0  0  0  0  0
    1.2290   62.4102   73.5899 H   0  0  0  0  0  0  0  0  0  0  0  0
    2.3648   56.6325   72.9563 H   0  0  0  0  0  0  0  0  0  0  0  0
    3.6050   59.9218   73.4816 H   0  0  0  0  0  0  0  0  0  0  0  0
    3.4487   58.1432   73.0192 H   0  0  0  0  0  0  0  0  0  0  0  0
    2.8026   58.8982   70.6793 H   0  0  0  0  0  0  0  0  0  0  0  0
    4.9279   61.0798   72.8174 H   0  0  0  0  0  0  0  0  0  0  0  0
    6.1709   61.0061   71.5228 H   0  0  0  0  0  0  0  0  0  0  0  0
    4.9512   62.3248   71.5228 H   0  0  0  0  0  0  0  0  0  0  0  0
    5.3453   60.6299   69.1209 H   0  0  0  0  0  0  0  0  0  0  0  0
    3.7020   59.8409   68.9420 H   0  0  0  0  0  0  0  0  0  0  0  0
    4.3236   62.7925   69.2879 H   0  0  0  0  0  0  0  0  0  0  0  0
    3.5900   61.9259   67.8570 H   0  0  0  0  0  0  0  0  0  0  0  0
    1.5243   61.4647   69.2278 H   0  0  0  0  0  0  0  0  0  0  0  0
    2.7640   64.4218   71.8021 H   0  0  0  0  0  0  0  0  0  0  0  0
    3.7571   64.2470   70.3155 H   0  0  0  0  0  0  0  0  0  0  0  0
    2.3229   65.3285   70.3155 H   0  0  0  0  0  0  0  0  0  0  0  0
    0.4244   63.3150   71.8368 H   0  0  0  0  0  0  0  0  0  0  0  0
   -0.0201   64.2378   70.3611 H   0  0  0  0  0  0  0  0  0  0  0  0
   -0.1143   62.4439   70.3611 H   0  0  0  0  0  0  0  0  0  0  0  0
  2  1  1  0
  3  2  1  0
  4  3  2  0
  5  3  1  0
  6  5  2  0
  7  6  1  0
  7  1  1  0
  8  6  1  0
  9  8  2  0
 10  9  1  0
 11 10  2  0
 11  5  1  0
 13 12  2  0
 14 13  1  0
 15 14  2  0
 15  1  1  0
 16 15  1  0
 17 16  2  0
 17 12  1  0
 19 18  1  0
 19 12  1  0
 20 13  1  0
 21 17  1  0
 22 11  1  0
 23  9  1  0
 24 10  1  0
 25 24  1  0
 26 25  2  0
 27 26  1  0
 28 26  1  0
 29 28  1  0
 30 29  1  0
 31 30  2  3
 32 31  1  0
 33 31  1  0
  1 34  1  6
  2 35  1  0
  2 36  1  0
  8 37  1  0
 14 38  1  0
 16 39  1  0
 18 40  1  0
 18 41  1  0
 18 42  1  0
 20 43  1  0
 21 44  1  0
 22 45  1  0
 23 46  1  0
 24 47  1  0
 24 48  1  0
 25 49  1  0
 27 50  1  0
 27 51  1  0
 27 52  1  0
 28 53  1  0
 28 54  1  0
 29 55  1  0
 29 56  1  0
 30 57  1  0
 32 58  1  0
 32 59  1  0
 32 60  1  0
 33 61  1  0
 33 62  1  0
 33 63  1  0
M  END
>  <score>  (8) 
-8.32

$$$$
=
     RDKit          3D

 63 65  0  0  0  0  0  0  0  0999 V2000
   -2.1900   59.4100   74.8020 C   0  0  1  0  0  0  0  0  0  0  0  0
   -1.5670   60.1440   75.9800 C   0  0  0  0  0  0  0  0  0  0  0  0
   -0.1920   60.5870   75.5720 C   0  0  0  0  0  0  0  0  0  0  0  0
    0.3340   61.6100   76.0050 O   0  0  0  0  0  0  0  0  0  0  0  0
    0.5530   59.7020   74.6540 C   0  0  0  0  0  0  0  0  0  0  0  0
   -0.0990   58.5740   74.1600 C   0  0  0  0  0  0  0  0  0  0  0  0
   -1.4040   58.2650   74.4380 O   0  0  0  0  0  0  0  0  0  0  0  0
    0.5950   57.6770   73.3580 C   0  0  0  0  0  0  0  0  0  0  0  0
    1.9240   57.9310   73.0110 C   0  0  0  0  0  0  0  0  0  0  0  0
    2.6060   59.0720   73.4720 C   0  0  0  0  0  0  0  0  0  0  0  0
    1.8950   59.9490   74.3150 C   0  0  0  0  0  0  0  0  0  0  0  0
   -6.2350   58.1330   75.7830 C   0  0  0  0  0  0  0  0  0  0  0  0
   -6.0180   59.2130   74.9230 C   0  0  0  0  0  0  0  0  0  0  0  0
   -4.7100   59.6170   74.6050 C   0  0  0  0  0  0  0  0  0  0  0  0
   -3.5950   58.9460   75.1350 C   0  0  0  0  0  0  0  0  0  0  0  0
   -3.8120   57.8650   75.9970 C   0  0  0  0  0  0  0  0  0  0  0  0
   -5.1120   57.4760   76.3060 C   0  0  0  0  0  0  0  0  0  0  0  0
   -8.1630   58.3090   77.1910 C   0  0  0  0  0  0  0  0  0  0  0  0
   -7.4240   57.5970   76.2090 O   0  0  0  0  0  0  0  0  0  0  0  0
   -7.0590   59.9070   74.3720 O   0  0  0  0  0  0  0  0  0  0  0  0
   -5.2730   56.4130   77.1570 O   0  0  0  0  0  0  0  0  0  0  0  0
    2.5570   61.0480   74.8080 O   0  0  0  0  0  0  0  0  0  0  0  0
    2.5010   56.9840   72.2130 O   0  0  0  0  0  0  0  0  0  0  0  0
    4.0710   59.3280   73.1700 C   0  0  0  0  0  0  0  0  0  0  0  0
    4.3550   60.4470   72.2000 C   0  0  0  0  0  0  0  0  0  0  0  0
    4.1760   60.4530   70.8640 C   0  0  0  0  0  0  0  0  0  0  0  0
    3.5550   59.3240   70.0880 C   0  0  0  0  0  0  0  0  0  0  0  0
    4.6000   61.6570   70.0410 C   0  0  0  0  0  0  0  0  0  0  0  0
    4.5450   62.9890   70.8040 C   0  0  0  0  0  0  0  0  0  0  0  0
    3.3680   63.8490   70.4250 C   0  0  0  0  0  0  0  0  0  0  0  0
    2.1620   63.9010   71.0250 C   0  0  0  0  0  0  0  0  0  0  0  0
    1.7730   63.1090   72.2420 C   0  0  0  0  0  0  0  0  0  0  0  0
    1.0800   64.8070   70.4970 C   0  0  0  0  0  0  0  0  0  0  0  0
   -2.2248   60.1166   73.9596 H   0  0  0  0  0  0  0  0  0  0  0  0
   -2.1796   61.0194   76.2413 H   0  0  0  0  0  0  0  0  0  0  0  0
   -1.5122   59.4834   76.8578 H   0  0  0  0  0  0  0  0  0  0  0  0
    0.0973   56.7654   72.9957 H   0  0  0  0  0  0  0  0  0  0  0  0
   -4.5567   60.4722   73.9304 H   0  0  0  0  0  0  0  0  0  0  0  0
   -2.9572   57.3242   76.4292 H   0  0  0  0  0  0  0  0  0  0  0  0
   -7.8374   57.9953   78.1938 H   0  0  0  0  0  0  0  0  0  0  0  0
   -7.9888   59.3883   77.0699 H   0  0  0  0  0  0  0  0  0  0  0  0
   -9.2351   58.0948   77.0699 H   0  0  0  0  0  0  0  0  0  0  0  0
   -6.8802   60.6687   73.7654 H   0  0  0  0  0  0  0  0  0  0  0  0
   -6.1826   56.1070   77.4003 H   0  0  0  0  0  0  0  0  0  0  0  0
    2.0861   61.6838   75.4030 H   0  0  0  0  0  0  0  0  0  0  0  0
    3.4413   57.0885   71.9214 H   0  0  0  0  0  0  0  0  0  0  0  0
    4.5743   59.5675   74.1183 H   0  0  0  0  0  0  0  0  0  0  0  0
    4.4409   58.4120   72.6862 H   0  0  0  0  0  0  0  0  0  0  0  0
    4.7580   61.3727   72.6365 H   0  0  0  0  0  0  0  0  0  0  0  0
    3.1458   58.5800   70.7873 H   0  0  0  0  0  0  0  0  0  0  0  0
    2.7456   59.7160   69.4546 H   0  0  0  0  0  0  0  0  0  0  0  0
    4.3195   58.8503   69.4546 H   0  0  0  0  0  0  0  0  0  0  0  0
    5.6336   61.4962   69.7008 H   0  0  0  0  0  0  0  0  0  0  0  0
    3.8864   61.7390   69.2079 H   0  0  0  0  0  0  0  0  0  0  0  0
    4.4853   62.7716   71.8806 H   0  0  0  0  0  0  0  0  0  0  0  0
    5.4541   63.5502   70.5422 H   0  0  0  0  0  0  0  0  0  0  0  0
    3.5088   64.5114   69.5582 H   0  0  0  0  0  0  0  0  0  0  0  0
    2.0483   63.6694   73.1476 H   0  0  0  0  0  0  0  0  0  0  0  0
    0.6869   62.9350   72.2345 H   0  0  0  0  0  0  0  0  0  0  0  0
    2.2992   62.1430   72.2345 H   0  0  0  0  0  0  0  0  0  0  0  0
    0.5381   65.2608   71.3398 H   0  0  0  0  0  0  0  0  0  0  0  0
    1.5326   65.5994   69.8828 H   0  0  0  0  0  0  0  0  0  0  0  0
    0.3794   64.2222   69.8828 H   0  0  0  0  0  0  0  0  0  0  0  0
  2  1  1  0
  3  2  1  0
  4  3  2  0
  5  3  1  0
  6  5  2  0
  7  6  1  0
  7  1  1  0
  8  6  1  0
  9  8  2  0
 10  9  1  0
 11 10  2  0
 11  5  1  0
 13 12  2  0
 14 13  1  0
 15 14  2  0
 15  1  1  0
 16 15  1  0
 17 16  2  0
 17 12  1  0
 19 18  1  0
 19 12  1  0
 20 13  1  0
 21 17  1  0
 22 11  1  0
 23  9  1  0
 24 10  1  0
 25 24  1  0
 26 25  2  0
 27 26  1  0
 28 26  1  0
 29 28  1  0
 30 29  1  0
 31 30  2  3
 32 31  1  0
 33 31  1  0
  1 34  1  6
  2 35  1  0
  2 36  1  0
  8 37  1  0
 14 38  1  0
 16 39  1  0
 18 40  1  0
 18 41  1  0
 18 42  1  0
 20 43  1  0
 21 44  1  0
 22 45  1  0
 23 46  1  0
 24 47  1  0
 24 48  1  0
 25 49  1  0
 27 50  1  0
 27 51  1  0
 27 52  1  0
 28 53  1  0
 28 54  1  0
 29 55  1  0
 29 56  1  0
 30 57  1  0
 32 58  1  0
 32 59  1  0
 32 60  1  0
 33 61  1  0
 33 62  1  0
 33 63  1  0
M  END
>  <score>  (9) 
-8.09

$$$$
