=
     RDKit          3D

 49 52  0  0  0  0  0  0  0  0999 V2000
    3.1520   68.4920   65.8220 C   0  0  0  0  0  0  0  0  0  0  0  0
    3.7780   68.1430   64.4830 C   0  0  0  0  0  0  0  0  0  0  0  0
    4.0710   66.8060   64.1700 C   0  0  0  0  0  0  0  0  0  0  0  0
    4.6470   66.4710   62.9420 C   0  0  0  0  0  0  0  0  0  0  0  0
    4.9400   67.4680   62.0140 C   0  0  0  0  0  0  0  0  0  0  0  0
    4.6630   68.8000   62.3130 C   0  0  0  0  0  0  0  0  0  0  0  0
    4.0870   69.1360   63.5390 C   0  0  0  0  0  0  0  0  0  0  0  0
    4.0260   69.3870   66.6840 C   0  0  0  0  0  0  0  0  0  0  0  0
    5.3390   69.7200   66.3130 C   0  0  0  0  0  0  0  0  0  0  0  0
    6.1240   70.5400   67.1270 C   0  0  0  0  0  0  0  0  0  0  0  0
    5.6100   71.0320   68.3240 C   0  0  0  0  0  0  0  0  0  0  0  0
    4.3130   70.7020   68.7110 C   0  0  0  0  0  0  0  0  0  0  0  0
    3.5270   69.8830   67.9000 C   0  0  0  0  0  0  0  0  0  0  0  0
    1.8820   69.1270   65.5590 O   0  0  0  0  0  0  0  0  0  0  0  0
   -2.5900   67.3170   67.4830 C   0  0  0  0  0  0  0  0  0  0  0  0
   -1.4590   67.5620   66.5250 N   0  0  2  0  0  4  0  0  0  0  0  0
   -0.0870   67.1750   67.0480 C   0  0  2  0  0  0  0  0  0  0  0  0
    0.2870   68.3620   67.9390 C   0  0  0  0  0  0  0  0  0  0  0  0
   -0.4670   69.5620   67.3580 C   0  0  0  0  0  0  0  0  0  0  0  0
   -1.2380   69.0160   66.1560 C   0  0  1  0  0  0  0  0  0  0  0  0
   -0.4350   69.0170   64.8450 C   0  0  0  0  0  0  0  0  0  0  0  0
    0.9110   68.2760   64.9500 C   0  0  2  0  0  0  0  0  0  0  0  0
    0.8140   67.0090   65.8150 C   0  0  0  0  0  0  0  0  0  0  0  0
    3.0265   67.5637   66.3986 H   0  0  0  0  0  0  0  0  0  0  0  0
    3.8447   66.0141   64.8992 H   0  0  0  0  0  0  0  0  0  0  0  0
    4.8693   65.4195   62.7077 H   0  0  0  0  0  0  0  0  0  0  0  0
    5.3899   67.2035   61.0457 H   0  0  0  0  0  0  0  0  0  0  0  0
    4.8985   69.5877   61.5822 H   0  0  0  0  0  0  0  0  0  0  0  0
    3.8726   70.1902   63.7685 H   0  0  0  0  0  0  0  0  0  0  0  0
    5.7536   69.3309   65.3714 H   0  0  0  0  0  0  0  0  0  0  0  0
    7.1491   70.7973   66.8222 H   0  0  0  0  0  0  0  0  0  0  0  0
    6.2273   71.6804   68.9632 H   0  0  0  0  0  0  0  0  0  0  0  0
    3.9078   71.0880   69.6580 H   0  0  0  0  0  0  0  0  0  0  0  0
    2.5060   69.6229   68.2159 H   0  0  0  0  0  0  0  0  0  0  0  0
   -2.2197   67.3972   68.5157 H   0  0  0  0  0  0  0  0  0  0  0  0
   -3.3794   68.0650   67.3174 H   0  0  0  0  0  0  0  0  0  0  0  0
   -2.9991   66.3094   67.3174 H   0  0  0  0  0  0  0  0  0  0  0  0
   -1.7763   66.9831   65.7344 H   0  0  0  0  0  0  0  0  0  0  0  0
   -0.0133   66.2391   67.6213 H   0  0  0  0  0  0  0  0  0  0  0  0
   -0.0259   68.1772   68.9772 H   0  0  0  0  0  0  0  0  0  0  0  0
    1.3736   68.5324   67.9577 H   0  0  0  0  0  0  0  0  0  0  0  0
   -1.1609   69.9777   68.1034 H   0  0  0  0  0  0  0  0  0  0  0  0
    0.2172   70.3737   67.0699 H   0  0  0  0  0  0  0  0  0  0  0  0
   -2.1343   69.6277   65.9761 H   0  0  0  0  0  0  0  0  0  0  0  0
   -1.0402   68.5313   64.0654 H   0  0  0  0  0  0  0  0  0  0  0  0
   -0.2094   70.0663   64.6039 H   0  0  0  0  0  0  0  0  0  0  0  0
    1.1967   67.9946   63.9257 H   0  0  0  0  0  0  0  0  0  0  0  0
    0.4096   66.1949   65.1956 H   0  0  0  0  0  0  0  0  0  0  0  0
    1.8275   66.7904   66.1825 H   0  0  0  0  0  0  0  0  0  0  0  0
  2  1  1  0
  3  2  2  0
  4  3  1  0
  5  4  2  0
  6  5  1  0
  7  6  2  0
  7  2  1  0
  8  1  1  0
  9  8  2  0
 10  9  1  0
 11 10  2  0
 12 11  1  0
 13 12  2  0
 13  8  1  0
 14  1  1  0
 16 15  1  0
 17 16  1  0
 18 17  1  0
 19 18  1  0
 20 19  1  0
 20 16  1  0
 21 20  1  0
 22 21  1  0
 22 14  1  0
 23 22  1  0
 23 17  1  0
  1 24  1  0
  3 25  1  0
  4 26  1  0
  5 27  1  0
  6 28  1  0
  7 29  1  0
  9 30  1  0
 10 31  1  0
 11 32  1  0
 12 33  1  0
 13 34  1  0
 15 35  1  0
 15 36  1  0
 15 37  1  0
 16 38  1  6
 17 39  1  1
 18 40  1  0
 18 41  1  0
 19 42  1  0
 19 43  1  0
 20 44  1  6
 21 45  1  0
 21 46  1  0
 22 47  1  6
 23 48  1  0
 23 49  1  0
M  CHG  1  16   1
M  END
>  <score>  (1) 
-10.532

$$$$
=
     RDKit          3D

 49 52  0  0  0  0  0  0  0  0999 V2000
    3.2290   68.7990   66.4140 C   0  0  0  0  0  0  0  0  0  0  0  0
    3.4200   68.3690   64.9710 C   0  0  0  0  0  0  0  0  0  0  0  0
    4.2710   67.2950   64.6620 C   0  0  0  0  0  0  0  0  0  0  0  0
    4.4550   66.8900   63.3370 C   0  0  0  0  0  0  0  0  0  0  0  0
    3.7940   67.5530   62.3060 C   0  0  0  0  0  0  0  0  0  0  0  0
    2.9520   68.6250   62.5950 C   0  0  0  0  0  0  0  0  0  0  0  0
    2.7670   69.0320   63.9180 C   0  0  0  0  0  0  0  0  0  0  0  0
    4.3530   69.6750   66.9380 C   0  0  0  0  0  0  0  0  0  0  0  0
    5.5030   69.9400   66.1770 C   0  0  0  0  0  0  0  0  0  0  0  0
    6.5250   70.7460   66.6840 C   0  0  0  0  0  0  0  0  0  0  0  0
    6.4150   71.2920   67.9610 C   0  0  0  0  0  0  0  0  0  0  0  0
    5.2850   71.0300   68.7330 C   0  0  0  0  0  0  0  0  0  0  0  0
    4.2620   70.2250   68.2280 C   0  0  0  0  0  0  0  0  0  0  0  0
    1.9650   69.4900   66.5030 O   0  0  0  0  0  0  0  0  0  0  0  0
   -2.6130   67.1880   67.3500 C   0  0  0  0  0  0  0  0  0  0  0  0
   -1.3220   67.9090   67.6160 N   0  0  2  0  0  4  0  0  0  0  0  0
   -1.1500   69.2090   66.8500 C   0  0  2  0  0  0  0  0  0  0  0  0
   -0.7080   68.7340   65.4640 C   0  0  0  0  0  0  0  0  0  0  0  0
   -0.0080   67.3910   65.6960 C   0  0  0  0  0  0  0  0  0  0  0  0
   -0.0730   67.1530   67.2050 C   0  0  1  0  0  0  0  0  0  0  0  0
    1.0930   67.7790   67.9880 C   0  0  0  0  0  0  0  0  0  0  0  0
    1.2640   69.2880   67.7300 C   0  0  2  0  0  0  0  0  0  0  0  0
   -0.0840   70.0160   67.6060 C   0  0  0  0  0  0  0  0  0  0  0  0
    3.2402   67.8997   67.0473 H   0  0  0  0  0  0  0  0  0  0  0  0
    4.7978   66.7675   65.4708 H   0  0  0  0  0  0  0  0  0  0  0  0
    5.1228   66.0464   63.1082 H   0  0  0  0  0  0  0  0  0  0  0  0
    3.9365   67.2306   61.2640 H   0  0  0  0  0  0  0  0  0  0  0  0
    2.4326   69.1511   61.7804 H   0  0  0  0  0  0  0  0  0  0  0  0
    2.1029   69.8808   64.1383 H   0  0  0  0  0  0  0  0  0  0  0  0
    5.6002   69.5079   65.1701 H   0  0  0  0  0  0  0  0  0  0  0  0
    7.4176   70.9498   66.0743 H   0  0  0  0  0  0  0  0  0  0  0  0
    7.2188   71.9288   68.3591 H   0  0  0  0  0  0  0  0  0  0  0  0
    5.1987   71.4583   69.7425 H   0  0  0  0  0  0  0  0  0  0  0  0
    3.3758   70.0192   68.8462 H   0  0  0  0  0  0  0  0  0  0  0  0
   -3.0884   66.9225   68.3058 H   0  0  0  0  0  0  0  0  0  0  0  0
   -3.2858   67.8409   66.7747 H   0  0  0  0  0  0  0  0  0  0  0  0
   -2.4100   66.2727   66.7747 H   0  0  0  0  0  0  0  0  0  0  0  0
   -1.4048   68.0398   68.6343 H   0  0  0  0  0  0  0  0  0  0  0  0
   -2.0323   69.8594   66.7577 H   0  0  0  0  0  0  0  0  0  0  0  0
   -1.5798   68.6046   64.8058 H   0  0  0  0  0  0  0  0  0  0  0  0
   -0.0433   69.4619   64.9757 H   0  0  0  0  0  0  0  0  0  0  0  0
   -0.5303   66.5869   65.1569 H   0  0  0  0  0  0  0  0  0  0  0  0
    1.0287   67.4018   65.3284 H   0  0  0  0  0  0  0  0  0  0  0  0
   -0.0499   66.0735   67.4153 H   0  0  0  0  0  0  0  0  0  0  0  0
    0.9125   67.6274   69.0624 H   0  0  0  0  0  0  0  0  0  0  0  0
    2.0149   67.2851   67.6470 H   0  0  0  0  0  0  0  0  0  0  0  0
    1.8171   69.6936   68.5900 H   0  0  0  0  0  0  0  0  0  0  0  0
   -0.4600   70.2269   68.6180 H   0  0  0  0  0  0  0  0  0  0  0  0
    0.0966   70.9341   67.0277 H   0  0  0  0  0  0  0  0  0  0  0  0
  2  1  1  0
  3  2  2  0
  4  3  1  0
  5  4  2  0
  6  5  1  0
  7  6  2  0
  7  2  1  0
  8  1  1  0
  9  8  2  0
 10  9  1  0
 11 10  2  0
 12 11  1  0
 13 12  2  0
 13  8  1  0
 14  1  1  0
 16 15  1  0
 17 16  1  0
 18 17  1  0
 19 18  1  0
 20 19  1  0
 20 16  1  0
 21 20  1  0
 22 21  1  0
 22 14  1  0
 23 22  1  0
 23 17  1  0
  1 24  1  0
  3 25  1  0
  4 26  1  0
  5 27  1  0
  6 28  1  0
  7 29  1  0
  9 30  1  0
 10 31  1  0
 11 32  1  0
 12 33  1  0
 13 34  1  0
 15 35  1  0
 15 36  1  0
 15 37  1  0
 16 38  1  1
 17 39  1  6
 18 40  1  0
 18 41  1  0
 19 42  1  0
 19 43  1  0
 20 44  1  6
 21 45  1  0
 21 46  1  0
 22 47  1  1
 23 48  1  0
 23 49  1  0
M  CHG  1  16   1
M  END
>  <score>  (2) 
-10.001

$$$$
=
     RDKit          3D

 49 52  0  0  0  0  0  0  0  0999 V2000
    3.2520   69.3970   65.4430 C   0  0  0  0  0  0  0  0  0  0  0  0
    4.2970   69.8080   66.4650 C   0  0  0  0  0  0  0  0  0  0  0  0
    3.9170   70.0840   67.7880 C   0  0  0  0  0  0  0  0  0  0  0  0
    4.8690   70.4630   68.7380 C   0  0  0  0  0  0  0  0  0  0  0  0
    6.2100   70.5730   68.3780 C   0  0  0  0  0  0  0  0  0  0  0  0
    6.6020   70.3100   67.0670 C   0  0  0  0  0  0  0  0  0  0  0  0
    5.6520   69.9310   66.1160 C   0  0  0  0  0  0  0  0  0  0  0  0
    3.7940   68.4860   64.3560 C   0  0  0  0  0  0  0  0  0  0  0  0
    4.0920   67.1350   64.6010 C   0  0  0  0  0  0  0  0  0  0  0  0
    4.5950   66.3190   63.5850 C   0  0  0  0  0  0  0  0  0  0  0  0
    4.8130   66.8430   62.3130 C   0  0  0  0  0  0  0  0  0  0  0  0
    4.5330   68.1830   62.0560 C   0  0  0  0  0  0  0  0  0  0  0  0
    4.0300   69.0010   63.0700 C   0  0  0  0  0  0  0  0  0  0  0  0
    2.1740   68.7520   66.1530 O   0  0  0  0  0  0  0  0  0  0  0  0
   -2.7980   67.6110   67.1310 C   0  0  0  0  0  0  0  0  0  0  0  0
   -1.4890   67.7200   66.4010 N   0  0  2  0  0  4  0  0  0  0  0  0
   -0.3110   67.0730   67.1060 C   0  0  2  0  0  0  0  0  0  0  0  0
    0.0780   68.1180   68.1540 C   0  0  0  0  0  0  0  0  0  0  0  0
   -0.3620   69.4650   67.5700 C   0  0  0  0  0  0  0  0  0  0  0  0
   -0.9810   69.1370   66.2110 C   0  0  1  0  0  0  0  0  0  0  0  0
    0.0340   69.0860   65.0570 C   0  0  0  0  0  0  0  0  0  0  0  0
    1.2060   68.1210   65.3150 C   0  0  2  0  0  0  0  0  0  0  0  0
    0.7590   66.8360   66.0300 C   0  0  0  0  0  0  0  0  0  0  0  0
    2.9050   70.3005   64.9202 H   0  0  0  0  0  0  0  0  0  0  0  0
    2.8596   70.0011   68.0796 H   0  0  0  0  0  0  0  0  0  0  0  0
    4.5589   70.6748   69.7719 H   0  0  0  0  0  0  0  0  0  0  0  0
    6.9590   70.8672   69.1280 H   0  0  0  0  0  0  0  0  0  0  0  0
    7.6602   70.4009   66.7809 H   0  0  0  0  0  0  0  0  0  0  0  0
    5.9683   69.7266   65.0825 H   0  0  0  0  0  0  0  0  0  0  0  0
    3.9273   66.7151   65.6043 H   0  0  0  0  0  0  0  0  0  0  0  0
    4.8191   65.2617   63.7896 H   0  0  0  0  0  0  0  0  0  0  0  0
    5.2059   66.1992   61.5122 H   0  0  0  0  0  0  0  0  0  0  0  0
    4.7084   68.5978   61.0524 H   0  0  0  0  0  0  0  0  0  0  0  0
    3.8163   70.0594   62.8599 H   0  0  0  0  0  0  0  0  0  0  0  0
   -2.6153   67.6262   68.2156 H   0  0  0  0  0  0  0  0  0  0  0  0
   -3.4430   68.4585   66.8559 H   0  0  0  0  0  0  0  0  0  0  0  0
   -3.2939   66.6685   66.8559 H   0  0  0  0  0  0  0  0  0  0  0  0
   -1.7456   67.2547   65.5186 H   0  0  0  0  0  0  0  0  0  0  0  0
   -0.4884   66.1032   67.5938 H   0  0  0  0  0  0  0  0  0  0  0  0
   -0.4415   67.9223   69.1036 H   0  0  0  0  0  0  0  0  0  0  0  0
    1.1565   68.0988   68.3696 H   0  0  0  0  0  0  0  0  0  0  0  0
   -1.1043   69.9442   68.2252 H   0  0  0  0  0  0  0  0  0  0  0  0
    0.4815   70.1649   67.4766 H   0  0  0  0  0  0  0  0  0  0  0  0
   -1.7238   69.9027   65.9428 H   0  0  0  0  0  0  0  0  0  0  0  0
   -0.4902   68.7621   64.1458 H   0  0  0  0  0  0  0  0  0  0  0  0
    0.4606   70.0948   64.9552 H   0  0  0  0  0  0  0  0  0  0  0  0
    1.6220   67.8620   64.3302 H   0  0  0  0  0  0  0  0  0  0  0  0
    0.3500   66.1442   65.2790 H   0  0  0  0  0  0  0  0  0  0  0  0
    1.6434   66.4250   66.5388 H   0  0  0  0  0  0  0  0  0  0  0  0
  2  1  1  0
  3  2  2  0
  4  3  1  0
  5  4  2  0
  6  5  1  0
  7  6  2  0
  7  2  1  0
  8  1  1  0
  9  8  2  0
 10  9  1  0
 11 10  2  0
 12 11  1  0
 13 12  2  0
 13  8  1  0
 14  1  1  0
 16 15  1  0
 17 16  1  0
 18 17  1  0
 19 18  1  0
 20 19  1  0
 20 16  1  0
 21 20  1  0
 22 21  1  0
 22 14  1  0
 23 22  1  0
 23 17  1  0
  1 24  1  0
  3 25  1  0
  4 26  1  0
  5 27  1  0
  6 28  1  0
  7 29  1  0
  9 30  1  0
 10 31  1  0
 11 32  1  0
 12 33  1  0
 13 34  1  0
 15 35  1  0
 15 36  1  0
 15 37  1  0
 16 38  1  6
 17 39  1  1
 18 40  1  0
 18 41  1  0
 19 42  1  0
 19 43  1  0
 20 44  1  6
 21 45  1  0
 21 46  1  0
 22 47  1  6
 23 48  1  0
 23 49  1  0
M  CHG  1  16   1
M  END
>  <score>  (3) 
-9.857

$$$$
=
     RDKit          3D

 49 52  0  0  0  0  0  0  0  0999 V2000
    2.1180   68.5880   66.6650 C   0  0  0  0  0  0  0  0  0  0  0  0
    1.1150   67.8500   67.5340 C   0  0  0  0  0  0  0  0  0  0  0  0
    1.5300   67.2530   68.7350 C   0  0  0  0  0  0  0  0  0  0  0  0
    0.6170   66.5700   69.5440 C   0  0  0  0  0  0  0  0  0  0  0  0
   -0.7190   66.4730   69.1610 C   0  0  0  0  0  0  0  0  0  0  0  0
   -1.1440   67.0530   67.9670 C   0  0  0  0  0  0  0  0  0  0  0  0
   -0.2340   67.7360   67.1580 C   0  0  0  0  0  0  0  0  0  0  0  0
    3.0650   69.4750   67.4540 C   0  0  0  0  0  0  0  0  0  0  0  0
    2.6510   70.1580   68.6100 C   0  0  0  0  0  0  0  0  0  0  0  0
    3.5400   70.9720   69.3140 C   0  0  0  0  0  0  0  0  0  0  0  0
    4.8530   71.1190   68.8710 C   0  0  0  0  0  0  0  0  0  0  0  0
    5.2760   70.4560   67.7210 C   0  0  0  0  0  0  0  0  0  0  0  0
    4.3890   69.6430   67.0150 C   0  0  0  0  0  0  0  0  0  0  0  0
    2.8560   67.6020   65.9120 O   0  0  0  0  0  0  0  0  0  0  0  0
    3.9870   68.1420   60.8730 C   0  0  0  0  0  0  0  0  0  0  0  0
    3.2710   67.7200   62.1230 N   0  0  2  0  0  4  0  0  0  0  0  0
    2.8450   68.8620   63.0290 C   0  0  2  0  0  0  0  0  0  0  0  0
    4.1360   69.2090   63.7730 C   0  0  0  0  0  0  0  0  0  0  0  0
    4.9520   67.9130   63.8010 C   0  0  0  0  0  0  0  0  0  0  0  0
    4.0950   66.8750   63.0760 C   0  0  1  0  0  0  0  0  0  0  0  0
    3.0940   66.1430   63.9870 C   0  0  0  0  0  0  0  0  0  0  0  0
    2.1690   67.0940   64.7690 C   0  0  2  0  0  0  0  0  0  0  0  0
    1.7310   68.3060   63.9290 C   0  0  0  0  0  0  0  0  0  0  0  0
    1.5657   69.2692   66.0010 H   0  0  0  0  0  0  0  0  0  0  0  0
    2.5838   67.3233   69.0425 H   0  0  0  0  0  0  0  0  0  0  0  0
    0.9539   66.1087   70.4840 H   0  0  0  0  0  0  0  0  0  0  0  0
   -1.4377   65.9392   69.8002 H   0  0  0  0  0  0  0  0  0  0  0  0
   -2.1977   66.9725   67.6617 H   0  0  0  0  0  0  0  0  0  0  0  0
   -0.5767   68.1897   66.2163 H   0  0  0  0  0  0  0  0  0  0  0  0
    1.6151   70.0501   68.9641 H   0  0  0  0  0  0  0  0  0  0  0  0
    3.2037   71.4981   70.2196 H   0  0  0  0  0  0  0  0  0  0  0  0
    5.5543   71.7574   69.4283 H   0  0  0  0  0  0  0  0  0  0  0  0
    6.3115   70.5738   67.3690 H   0  0  0  0  0  0  0  0  0  0  0  0
    4.7299   69.1279   66.1048 H   0  0  0  0  0  0  0  0  0  0  0  0
    4.9059   68.6836   61.1419 H   0  0  0  0  0  0  0  0  0  0  0  0
    4.2459   67.2521   60.2806 H   0  0  0  0  0  0  0  0  0  0  0  0
    3.3339   68.7996   60.2806 H   0  0  0  0  0  0  0  0  0  0  0  0
    2.4799   67.2108   61.7037 H   0  0  0  0  0  0  0  0  0  0  0  0
    2.4394   69.7632   62.5459 H   0  0  0  0  0  0  0  0  0  0  0  0
    4.6864   69.9986   63.2405 H   0  0  0  0  0  0  0  0  0  0  0  0
    3.9346   69.5869   64.7862 H   0  0  0  0  0  0  0  0  0  0  0  0
    5.9110   68.0512   63.2802 H   0  0  0  0  0  0  0  0  0  0  0  0
    5.1877   67.6013   64.8292 H   0  0  0  0  0  0  0  0  0  0  0  0
    4.7387   66.1021   62.6307 H   0  0  0  0  0  0  0  0  0  0  0  0
    2.4708   65.4857   63.3628 H   0  0  0  0  0  0  0  0  0  0  0  0
    3.6810   65.5798   64.7274 H   0  0  0  0  0  0  0  0  0  0  0  0
    1.2815   66.5082   65.0505 H   0  0  0  0  0  0  0  0  0  0  0  0
    0.8877   68.0015   63.2916 H   0  0  0  0  0  0  0  0  0  0  0  0
    1.4545   69.1048   64.6329 H   0  0  0  0  0  0  0  0  0  0  0  0
  2  1  1  0
  3  2  2  0
  4  3  1  0
  5  4  2  0
  6  5  1  0
  7  6  2  0
  7  2  1  0
  8  1  1  0
  9  8  2  0
 10  9  1  0
 11 10  2  0
 12 11  1  0
 13 12  2  0
 13  8  1  0
 14  1  1  0
 16 15  1  0
 17 16  1  0
 18 17  1  0
 19 18  1  0
 20 19  1  0
 20 16  1  0
 21 20  1  0
 22 21  1  0
 22 14  1  0
 23 22  1  0
 23 17  1  0
  1 24  1  0
  3 25  1  0
  4 26  1  0
  5 27  1  0
  6 28  1  0
  7 29  1  0
  9 30  1  0
 10 31  1  0
 11 32  1  0
 12 33  1  0
 13 34  1  0
 15 35  1  0
 15 36  1  0
 15 37  1  0
 16 38  1  6
 17 39  1  6
 18 40  1  0
 18 41  1  0
 19 42  1  0
 19 43  1  0
 20 44  1  6
 21 45  1  0
 21 46  1  0
 22 47  1  1
 23 48  1  0
 23 49  1  0
M  CHG  1  16   1
M  END
>  <score>  (4) 
-9.753

$$$$
=
     RDKit          3D

 49 52  0  0  0  0  0  0  0  0999 V2000
    2.4220   68.4860   66.5780 C   0  0  0  0  0  0  0  0  0  0  0  0
    3.2120   69.4560   67.4380 C   0  0  0  0  0  0  0  0  0  0  0  0
    4.5340   69.7830   67.0980 C   0  0  0  0  0  0  0  0  0  0  0  0
    5.2720   70.6750   67.8810 C   0  0  0  0  0  0  0  0  0  0  0  0
    4.6990   71.2470   69.0150 C   0  0  0  0  0  0  0  0  0  0  0  0
    3.3910   70.9260   69.3700 C   0  0  0  0  0  0  0  0  0  0  0  0
    2.6520   70.0360   68.5890 C   0  0  0  0  0  0  0  0  0  0  0  0
    1.0740   68.1120   67.1680 C   0  0  0  0  0  0  0  0  0  0  0  0
   -0.1210   68.6980   66.7180 C   0  0  0  0  0  0  0  0  0  0  0  0
   -1.3480   68.3410   67.2810 C   0  0  0  0  0  0  0  0  0  0  0  0
   -1.3970   67.4000   68.3070 C   0  0  0  0  0  0  0  0  0  0  0  0
   -0.2200   66.8170   68.7730 C   0  0  0  0  0  0  0  0  0  0  0  0
    1.0070   67.1730   68.2110 C   0  0  0  0  0  0  0  0  0  0  0  0
    2.2560   69.0890   65.2770 O   0  0  0  0  0  0  0  0  0  0  0  0
    4.9160   66.8660   61.4100 C   0  0  0  0  0  0  0  0  0  0  0  0
    3.7690   67.2390   62.3050 N   0  0  2  0  0  4  0  0  0  0  0  0
    3.5030   68.7300   62.4110 C   0  0  2  0  0  0  0  0  0  0  0  0
    4.5600   69.1970   63.4140 C   0  0  0  0  0  0  0  0  0  0  0  0
    4.8530   67.9780   64.2950 C   0  0  0  0  0  0  0  0  0  0  0  0
    3.9500   66.8650   63.7640 C   0  0  1  0  0  0  0  0  0  0  0  0
    2.5440   66.8490   64.3880 C   0  0  0  0  0  0  0  0  0  0  0  0
    1.8030   68.1930   64.2620 C   0  0  2  0  0  0  0  0  0  0  0  0
    2.0580   68.8770   62.9090 C   0  0  0  0  0  0  0  0  0  0  0  0
    2.9838   67.5424   66.5153 H   0  0  0  0  0  0  0  0  0  0  0  0
    4.9939   69.3326   66.2061 H   0  0  0  0  0  0  0  0  0  0  0  0
    6.3060   70.9257   67.6018 H   0  0  0  0  0  0  0  0  0  0  0  0
    5.2791   71.9514   69.6293 H   0  0  0  0  0  0  0  0  0  0  0  0
    2.9397   71.3746   70.2673 H   0  0  0  0  0  0  0  0  0  0  0  0
    1.6204   69.7860   68.8775 H   0  0  0  0  0  0  0  0  0  0  0  0
   -0.0897   69.4468   65.9128 H   0  0  0  0  0  0  0  0  0  0  0  0
   -2.2764   68.8031   66.9141 H   0  0  0  0  0  0  0  0  0  0  0  0
   -2.3638   67.1173   68.7490 H   0  0  0  0  0  0  0  0  0  0  0  0
   -0.2581   66.0755   69.5846 H   0  0  0  0  0  0  0  0  0  0  0  0
    1.9321   66.7132   68.5890 H   0  0  0  0  0  0  0  0  0  0  0  0
    5.7837   66.5838   62.0243 H   0  0  0  0  0  0  0  0  0  0  0  0
    4.6244   66.0164   60.7751 H   0  0  0  0  0  0  0  0  0  0  0  0
    5.1799   67.7246   60.7751 H   0  0  0  0  0  0  0  0  0  0  0  0
    3.0123   66.7182   61.8392 H   0  0  0  0  0  0  0  0  0  0  0  0
    3.5793   69.3206   61.4861 H   0  0  0  0  0  0  0  0  0  0  0  0
    5.4713   69.5208   62.8898 H   0  0  0  0  0  0  0  0  0  0  0  0
    4.2101   70.0550   64.0067 H   0  0  0  0  0  0  0  0  0  0  0  0
    5.9108   67.6881   64.2109 H   0  0  0  0  0  0  0  0  0  0  0  0
    4.6619   68.1869   65.3579 H   0  0  0  0  0  0  0  0  0  0  0  0
    4.4001   65.8840   63.9763 H   0  0  0  0  0  0  0  0  0  0  0  0
    1.9479   66.0738   63.8843 H   0  0  0  0  0  0  0  0  0  0  0  0
    2.6680   66.6463   65.4620 H   0  0  0  0  0  0  0  0  0  0  0  0
    0.7301   67.9708   64.3591 H   0  0  0  0  0  0  0  0  0  0  0  0
    1.3851   68.4316   62.1614 H   0  0  0  0  0  0  0  0  0  0  0  0
    1.8721   69.9520   63.0498 H   0  0  0  0  0  0  0  0  0  0  0  0
  2  1  1  0
  3  2  2  0
  4  3  1  0
  5  4  2  0
  6  5  1  0
  7  6  2  0
  7  2  1  0
  8  1  1  0
  9  8  2  0
 10  9  1  0
 11 10  2  0
 12 11  1  0
 13 12  2  0
 13  8  1  0
 14  1  1  0
 16 15  1  0
 17 16  1  0
 18 17  1  0
 19 18  1  0
 20 19  1  0
 20 16  1  0
 21 20  1  0
 22 21  1  0
 22 14  1  0
 23 22  1  0
 23 17  1  0
  1 24  1  0
  3 25  1  0
  4 26  1  0
  5 27  1  0
  6 28  1  0
  7 29  1  0
  9 30  1  0
 10 31  1  0
 11 32  1  0
 12 33  1  0
 13 34  1  0
 15 35  1  0
 15 36  1  0
 15 37  1  0
 16 38  1  6
 17 39  1  6
 18 40  1  0
 18 41  1  0
 19 42  1  0
 19 43  1  0
 20 44  1  6
 21 45  1  0
 21 46  1  0
 22 47  1  1
 23 48  1  0
 23 49  1  0
M  CHG  1  16   1
M  END
>  <score>  (5) 
-8.508

$$$$
=
     RDKit          3D

 49 52  0  0  0  0  0  0  0  0999 V2000
    2.8400   61.5340   72.6950 C   0  0  0  0  0  0  0  0  0  0  0  0
    3.2100   62.0100   71.3010 C   0  0  0  0  0  0  0  0  0  0  0  0
    2.4490   61.6030   70.1930 C   0  0  0  0  0  0  0  0  0  0  0  0
    2.7790   62.0340   68.9050 C   0  0  0  0  0  0  0  0  0  0  0  0
    3.8740   62.8730   68.7080 C   0  0  0  0  0  0  0  0  0  0  0  0
    4.6430   63.2780   69.7970 C   0  0  0  0  0  0  0  0  0  0  0  0
    4.3150   62.8500   71.0840 C   0  0  0  0  0  0  0  0  0  0  0  0
    1.8920   62.4720   73.4220 C   0  0  0  0  0  0  0  0  0  0  0  0
    1.1880   63.4840   72.7490 C   0  0  0  0  0  0  0  0  0  0  0  0
    0.3260   64.3360   73.4420 C   0  0  0  0  0  0  0  0  0  0  0  0
    0.1610   64.1930   74.8180 C   0  0  0  0  0  0  0  0  0  0  0  0
    0.8600   63.2010   75.5020 C   0  0  0  0  0  0  0  0  0  0  0  0
    1.7220   62.3480   74.8110 C   0  0  0  0  0  0  0  0  0  0  0  0
    2.2550   60.2210   72.5680 O   0  0  0  0  0  0  0  0  0  0  0  0
    2.0240   55.6650   75.0520 C   0  0  0  0  0  0  0  0  0  0  0  0
    2.5410   56.7790   74.1870 N   0  0  2  0  0  4  0  0  0  0  0  0
    2.6530   58.1250   74.8820 C   0  0  2  0  0  0  0  0  0  0  0  0
    1.2140   58.6450   74.8550 C   0  0  0  0  0  0  0  0  0  0  0  0
    0.5660   57.9920   73.6300 C   0  0  0  0  0  0  0  0  0  0  0  0
    1.6600   57.1280   73.0020 C   0  0  1  0  0  0  0  0  0  0  0  0
    2.5540   57.8790   72.0010 C   0  0  0  0  0  0  0  0  0  0  0  0
    3.1980   59.1490   72.5870 C   0  0  2  0  0  0  0  0  0  0  0  0
    3.6370   58.9600   74.0490 C   0  0  0  0  0  0  0  0  0  0  0  0
    3.7533   61.5095   73.3076 H   0  0  0  0  0  0  0  0  0  0  0  0
    1.5848   60.9385   70.3403 H   0  0  0  0  0  0  0  0  0  0  0  0
    2.1734   61.7104   68.0456 H   0  0  0  0  0  0  0  0  0  0  0  0
    4.1308   63.2150   67.6945 H   0  0  0  0  0  0  0  0  0  0  0  0
    5.5104   63.9364   69.6419 H   0  0  0  0  0  0  0  0  0  0  0  0
    4.9282   63.1738   71.9379 H   0  0  0  0  0  0  0  0  0  0  0  0
    1.3173   63.6067   71.6635 H   0  0  0  0  0  0  0  0  0  0  0  0
   -0.2233   65.1208   72.9012 H   0  0  0  0  0  0  0  0  0  0  0  0
   -0.5203   64.8625   75.3635 H   0  0  0  0  0  0  0  0  0  0  0  0
    0.7324   63.0897   76.5889 H   0  0  0  0  0  0  0  0  0  0  0  0
    2.2739   61.5706   75.3597 H   0  0  0  0  0  0  0  0  0  0  0  0
    2.1492   55.9348   76.1110 H   0  0  0  0  0  0  0  0  0  0  0  0
    0.9574   55.5003   74.8392 H   0  0  0  0  0  0  0  0  0  0  0  0
    2.5868   54.7441   74.8392 H   0  0  0  0  0  0  0  0  0  0  0  0
    3.4508   56.3786   73.9172 H   0  0  0  0  0  0  0  0  0  0  0  0
    3.0320   58.1278   75.9146 H   0  0  0  0  0  0  0  0  0  0  0  0
    0.6824   58.3530   75.7727 H   0  0  0  0  0  0  0  0  0  0  0  0
    1.1777   59.7430   74.7994 H   0  0  0  0  0  0  0  0  0  0  0  0
   -0.2890   57.3697   73.9330 H   0  0  0  0  0  0  0  0  0  0  0  0
    0.1815   58.7418   72.9229 H   0  0  0  0  0  0  0  0  0  0  0  0
    1.2060   56.2906   72.4519 H   0  0  0  0  0  0  0  0  0  0  0  0
    3.3560   57.2011   71.6734 H   0  0  0  0  0  0  0  0  0  0  0  0
    1.9108   58.1970   71.1673 H   0  0  0  0  0  0  0  0  0  0  0  0
    4.0804   59.3680   71.9678 H   0  0  0  0  0  0  0  0  0  0  0  0
    4.6145   58.4556   74.0564 H   0  0  0  0  0  0  0  0  0  0  0  0
    3.6795   59.9599   74.5055 H   0  0  0  0  0  0  0  0  0  0  0  0
  2  1  1  0
  3  2  2  0
  4  3  1  0
  5  4  2  0
  6  5  1  0
  7  6  2  0
  7  2  1  0
  8  1  1  0
  9  8  2  0
 10  9  1  0
 11 10  2  0
 12 11  1  0
 13 12  2  0
 13  8  1  0
 14  1  1  0
 16 15  1  0
 17 16  1  0
 18 17  1  0
 19 18  1  0
 20 19  1  0
 20 16  1  0
 21 20  1  0
 22 21  1  0
 22 14  1  0
 23 22  1  0
 23 17  1  0
  1 24  1  0
  3 25  1  0
  4 26  1  0
  5 27  1  0
  6 28  1  0
  7 29  1  0
  9 30  1  0
 10 31  1  0
 11 32  1  0
 12 33  1  0
 13 34  1  0
 15 35  1  0
 15 36  1  0
 15 37  1  0
 16 38  1  6
 17 39  1  1
 18 40  1  0
 18 41  1  0
 19 42  1  0
 19 43  1  0
 20 44  1  6
 21 45  1  0
 21 46  1  0
 22 47  1  6
 23 48  1  0
 23 49  1  0
M  CHG  1  16   1
M  END
>  <score>  (6) 
-8.28

$$$$
=
     RDKit          3D

 49 52  0  0  0  0  0  0  0  0999 V2000
    1.8400   61.7360   72.4130 C   0  0  0  0  0  0  0  0  0  0  0  0
    1.2310   62.8830   73.2010 C   0  0  0  0  0  0  0  0  0  0  0  0
    1.4350   62.9710   74.5880 C   0  0  0  0  0  0  0  0  0  0  0  0
    0.8810   64.0210   75.3240 C   0  0  0  0  0  0  0  0  0  0  0  0
    0.1140   64.9930   74.6850 C   0  0  0  0  0  0  0  0  0  0  0  0
   -0.1040   64.9160   73.3110 C   0  0  0  0  0  0  0  0  0  0  0  0
    0.4500   63.8670   72.5740 C   0  0  0  0  0  0  0  0  0  0  0  0
    2.6690   62.1910   71.2250 C   0  0  0  0  0  0  0  0  0  0  0  0
    3.8490   62.9370   71.3860 C   0  0  0  0  0  0  0  0  0  0  0  0
    4.5900   63.3480   70.2760 C   0  0  0  0  0  0  0  0  0  0  0  0
    4.1610   63.0250   68.9910 C   0  0  0  0  0  0  0  0  0  0  0  0
    2.9870   62.2950   68.8140 C   0  0  0  0  0  0  0  0  0  0  0  0
    2.2440   61.8840   69.9220 C   0  0  0  0  0  0  0  0  0  0  0  0
    2.6450   60.9570   73.3240 O   0  0  0  0  0  0  0  0  0  0  0  0
    2.6390   56.3500   75.7210 C   0  0  0  0  0  0  0  0  0  0  0  0
    2.8200   57.3850   74.6480 N   0  0  2  0  0  4  0  0  0  0  0  0
    3.7270   58.5420   75.0260 C   0  0  2  0  0  0  0  0  0  0  0  0
    2.8110   59.4360   75.8640 C   0  0  0  0  0  0  0  0  0  0  0  0
    1.3930   59.1570   75.3580 C   0  0  0  0  0  0  0  0  0  0  0  0
    1.5530   58.1180   74.2480 C   0  0  1  0  0  0  0  0  0  0  0  0
    1.8200   58.7220   72.8590 C   0  0  0  0  0  0  0  0  0  0  0  0
    3.0280   59.6760   72.8270 C   0  0  2  0  0  0  0  0  0  0  0  0
    4.1880   59.1790   73.7060 C   0  0  0  0  0  0  0  0  0  0  0  0
    1.0226   61.1366   71.9857 H   0  0  0  0  0  0  0  0  0  0  0  0
    2.0369   62.2055   75.0996 H   0  0  0  0  0  0  0  0  0  0  0  0
    1.0504   64.0806   76.4092 H   0  0  0  0  0  0  0  0  0  0  0  0
   -0.3193   65.8210   75.2652 H   0  0  0  0  0  0  0  0  0  0  0  0
   -0.7124   65.6813   72.8068 H   0  0  0  0  0  0  0  0  0  0  0  0
    0.2724   63.8111   71.4899 H   0  0  0  0  0  0  0  0  0  0  0  0
    4.1927   63.2000   72.3973 H   0  0  0  0  0  0  0  0  0  0  0  0
    5.5141   63.9278   70.4168 H   0  0  0  0  0  0  0  0  0  0  0  0
    4.7476   63.3454   68.1174 H   0  0  0  0  0  0  0  0  0  0  0  0
    2.6453   62.0423   67.7994 H   0  0  0  0  0  0  0  0  0  0  0  0
    1.3154   61.3134   69.7730 H   0  0  0  0  0  0  0  0  0  0  0  0
    2.7225   56.8272   76.7086 H   0  0  0  0  0  0  0  0  0  0  0  0
    1.6463   55.8871   75.6202 H   0  0  0  0  0  0  0  0  0  0  0  0
    3.4157   55.5776   75.6202 H   0  0  0  0  0  0  0  0  0  0  0  0
    3.2029   56.7902   73.8993 H   0  0  0  0  0  0  0  0  0  0  0  0
    4.6371   58.3016   75.5951 H   0  0  0  0  0  0  0  0  0  0  0  0
    2.8957   59.1809   76.9307 H   0  0  0  0  0  0  0  0  0  0  0  0
    3.0774   60.4988   75.7666 H   0  0  0  0  0  0  0  0  0  0  0  0
    0.7664   58.7590   76.1698 H   0  0  0  0  0  0  0  0  0  0  0  0
    0.9022   60.0715   74.9936 H   0  0  0  0  0  0  0  0  0  0  0  0
    0.6345   57.5192   74.1601 H   0  0  0  0  0  0  0  0  0  0  0  0
    2.0062   57.9003   72.1518 H   0  0  0  0  0  0  0  0  0  0  0  0
    0.9331   59.3131   72.5869 H   0  0  0  0  0  0  0  0  0  0  0  0
    3.3607   59.7258   71.7797 H   0  0  0  0  0  0  0  0  0  0  0  0
    4.7587   58.4294   73.1382 H   0  0  0  0  0  0  0  0  0  0  0  0
    4.7967   60.0576   73.9658 H   0  0  0  0  0  0  0  0  0  0  0  0
  2  1  1  0
  3  2  2  0
  4  3  1  0
  5  4  2  0
  6  5  1  0
  7  6  2  0
  7  2  1  0
  8  1  1  0
  9  8  2  0
 10  9  1  0
 11 10  2  0
 12 11  1  0
 13 12  2  0
 13  8  1  0
 14  1  1  0
 16 15  1  0
 17 16  1  0
 18 17  1  0
 19 18  1  0
 20 19  1  0
 20 16  1  0
 21 20  1  0
 22 21  1  0
 22 14  1  0
 23 22  1  0
 23 17  1  0
  1 24  1  0
  3 25  1  0
  4 26  1  0
  5 27  1  0
  6 28  1  0
  7 29  1  0
  9 30  1  0
 10 31  1  0
 11 32  1  0
 12 33  1  0
 13 34  1  0
 15 35  1  0
 15 36  1  0
 15 37  1  0
 16 38  1  6
 17 39  1  1
 18 40  1  0
 18 41  1  0
 19 42  1  0
 19 43  1  0
 20 44  1  6
 21 45  1  0
 21 46  1  0
 22 47  1  6
 23 48  1  0
 23 49  1  0
M  CHG  1  16   1
M  END
>  <score>  (7) 
-7.993

$$$$
