=
     RDKit          3D

 46 49  0  0  0  0  0  0  0  0999 V2000
   -0.0100   66.8640   69.2410 C   0  0  0  0  0  0  0  0  0  0  0  0
    0.5810   65.8000   70.1390 C   0  0  0  0  0  0  0  0  0  0  0  0
    1.8760   65.3290   69.9180 C   0  0  0  0  0  0  0  0  0  0  0  0
    2.4010   64.3310   70.7280 C   0  0  0  0  0  0  0  0  0  0  0  0
    1.6750   63.8170   71.7460 N   0  0  0  0  0  4  0  0  0  0  0  0
    0.4180   64.2610   71.9860 C   0  0  0  0  0  0  0  0  0  0  0  0
   -0.1500   65.2550   71.1930 C   0  0  0  0  0  0  0  0  0  0  0  0
    2.2470   62.7420   72.5930 C   0  0  0  0  0  0  0  0  0  0  0  0
    3.1430   61.8330   71.7910 C   0  0  0  0  0  0  0  0  0  0  0  0
    4.5140   61.7600   72.0800 C   0  0  0  0  0  0  0  0  0  0  0  0
    5.3500   60.9240   71.3370 C   0  0  0  0  0  0  0  0  0  0  0  0
    4.8240   60.1500   70.3050 C   0  0  0  0  0  0  0  0  0  0  0  0
    3.4630   60.2050   70.0160 C   0  0  0  0  0  0  0  0  0  0  0  0
    2.6230   61.0390   70.7570 C   0  0  0  0  0  0  0  0  0  0  0  0
    0.8300   67.1690   67.9960 C   0  0  0  0  0  0  0  0  0  0  0  0
    0.0720   69.4440   67.7250 O   0  0  0  0  0  0  0  0  0  0  0  0
    1.0170   68.6590   67.7440 C   0  0  0  0  0  0  0  0  0  0  0  0
    2.4030   69.1820   67.5320 C   0  0  0  0  0  0  0  0  0  0  0  0
    2.9910   69.0200   66.2550 C   0  0  0  0  0  0  0  0  0  0  0  0
    4.2820   69.4910   65.9910 C   0  0  0  0  0  0  0  0  0  0  0  0
    4.9550   70.1170   67.0160 C   0  0  0  0  0  0  0  0  0  0  0  0
    4.3880   70.2800   68.2580 C   0  0  0  0  0  0  0  0  0  0  0  0
    3.1170   69.8270   68.5520 C   0  0  0  0  0  0  0  0  0  0  0  0
    5.2150   70.9240   69.1230 O   0  0  0  0  0  0  0  0  0  0  0  0
    6.3750   71.1360   68.2880 C   0  0  0  0  0  0  0  0  0  0  0  0
    6.2070   70.6360   66.9450 O   0  0  0  0  0  0  0  0  0  0  0  0
   -1.0040   66.5260   68.9128 H   0  0  0  0  0  0  0  0  0  0  0  0
   -0.0502   67.7911   69.8316 H   0  0  0  0  0  0  0  0  0  0  0  0
    2.4814   65.7489   69.1012 H   0  0  0  0  0  0  0  0  0  0  0  0
    3.4174   63.9549   70.5396 H   0  0  0  0  0  0  0  0  0  0  0  0
   -0.1609   63.8315   72.8169 H   0  0  0  0  0  0  0  0  0  0  0  0
   -1.1713   65.6085   71.3977 H   0  0  0  0  0  0  0  0  0  0  0  0
    2.8330   63.1983   73.4044 H   0  0  0  0  0  0  0  0  0  0  0  0
    1.4194   62.1431   73.0009 H   0  0  0  0  0  0  0  0  0  0  0  0
    4.9331   62.3653   72.8973 H   0  0  0  0  0  0  0  0  0  0  0  0
    6.4247   60.8765   71.5667 H   0  0  0  0  0  0  0  0  0  0  0  0
    5.4844   59.4948   69.7179 H   0  0  0  0  0  0  0  0  0  0  0  0
    3.0489   59.5907   69.2029 H   0  0  0  0  0  0  0  0  0  0  0  0
    1.5475   61.0739   70.5290 H   0  0  0  0  0  0  0  0  0  0  0  0
    1.8214   66.7095   68.1229 H   0  0  0  0  0  0  0  0  0  0  0  0
    0.2896   66.7582   67.1305 H   0  0  0  0  0  0  0  0  0  0  0  0
    2.4247   68.5162   65.4579 H   0  0  0  0  0  0  0  0  0  0  0  0
    4.7426   69.3656   65.0000 H   0  0  0  0  0  0  0  0  0  0  0  0
    2.6799   69.9673   69.5516 H   0  0  0  0  0  0  0  0  0  0  0  0
    6.5760   72.2162   68.2364 H   0  0  0  0  0  0  0  0  0  0  0  0
    7.2101   70.5818   68.7413 H   0  0  0  0  0  0  0  0  0  0  0  0
  2  1  1  0
  3  2  2  0
  4  3  1  0
  5  4  2  0
  6  5  1  0
  7  6  2  0
  7  2  1  0
  8  5  1  0
  9  8  1  0
 10  9  2  0
 11 10  1  0
 12 11  2  0
 13 12  1  0
 14 13  2  0
 14  9  1  0
 15  1  1  0
 17 16  2  0
 17 15  1  0
 18 17  1  0
 19 18  2  0
 20 19  1  0
 21 20  2  0
 22 21  1  0
 23 22  2  0
 23 18  1  0
 24 22  1  0
 25 24  1  0
 26 21  1  0
 26 25  1  0
  1 27  1  0
  1 28  1  0
  3 29  1  0
  4 30  1  0
  6 31  1  0
  7 32  1  0
  8 33  1  0
  8 34  1  0
 10 35  1  0
 11 36  1  0
 12 37  1  0
 13 38  1  0
 14 39  1  0
 15 40  1  0
 15 41  1  0
 19 42  1  0
 20 43  1  0
 23 44  1  0
 25 45  1  0
 25 46  1  0
M  CHG  1   5   1
M  END
>  <score>  (1) 
-9.906

$$$$
=
     RDKit          3D

 46 49  0  0  0  0  0  0  0  0999 V2000
   -0.0770   64.6820   70.3120 C   0  0  0  0  0  0  0  0  0  0  0  0
    0.3100   65.9640   69.6090 C   0  0  0  0  0  0  0  0  0  0  0  0
    1.4630   66.6550   69.9840 C   0  0  0  0  0  0  0  0  0  0  0  0
    1.7950   67.8470   69.3540 C   0  0  0  0  0  0  0  0  0  0  0  0
    1.0180   68.3430   68.3640 N   0  0  0  0  0  4  0  0  0  0  0  0
   -0.1030   67.6890   67.9780 C   0  0  0  0  0  0  0  0  0  0  0  0
   -0.4770   66.4950   68.5880 C   0  0  0  0  0  0  0  0  0  0  0  0
    1.3810   69.6250   67.7120 C   0  0  0  0  0  0  0  0  0  0  0  0
    2.6720   69.5020   66.9450 C   0  0  0  0  0  0  0  0  0  0  0  0
    3.8680   69.9920   67.4940 C   0  0  0  0  0  0  0  0  0  0  0  0
    5.0660   69.8860   66.7850 C   0  0  0  0  0  0  0  0  0  0  0  0
    5.0830   69.2870   65.5280 C   0  0  0  0  0  0  0  0  0  0  0  0
    3.9050   68.7860   64.9780 C   0  0  0  0  0  0  0  0  0  0  0  0
    2.7040   68.8890   65.6830 C   0  0  0  0  0  0  0  0  0  0  0  0
    0.3250   64.6340   71.7910 C   0  0  0  0  0  0  0  0  0  0  0  0
   -0.5930   62.7780   73.0300 O   0  0  0  0  0  0  0  0  0  0  0  0
    0.3410   63.2250   72.3670 C   0  0  0  0  0  0  0  0  0  0  0  0
    1.5260   62.3520   72.0990 C   0  0  0  0  0  0  0  0  0  0  0  0
    1.3470   60.9500   72.1380 C   0  0  0  0  0  0  0  0  0  0  0  0
    2.4150   60.0790   71.8910 C   0  0  0  0  0  0  0  0  0  0  0  0
    3.6400   60.6370   71.6080 C   0  0  0  0  0  0  0  0  0  0  0  0
    3.8210   62.0000   71.5660 C   0  0  0  0  0  0  0  0  0  0  0  0
    2.7890   62.8860   71.8050 C   0  0  0  0  0  0  0  0  0  0  0  0
    5.1010   62.3430   71.2670 O   0  0  0  0  0  0  0  0  0  0  0  0
    5.7130   61.0400   71.1400 C   0  0  0  0  0  0  0  0  0  0  0  0
    4.7830   59.9540   71.3430 O   0  0  0  0  0  0  0  0  0  0  0  0
   -1.1692   64.5683   70.2469 H   0  0  0  0  0  0  0  0  0  0  0  0
    0.4653   63.8678   69.8090 H   0  0  0  0  0  0  0  0  0  0  0  0
    2.1093   66.2551   70.7792 H   0  0  0  0  0  0  0  0  0  0  0  0
    2.6985   68.3932   69.6629 H   0  0  0  0  0  0  0  0  0  0  0  0
   -0.7256   68.1062   67.1728 H   0  0  0  0  0  0  0  0  0  0  0  0
   -1.3898   65.9725   68.2658 H   0  0  0  0  0  0  0  0  0  0  0  0
    0.5780   69.9142   67.0181 H   0  0  0  0  0  0  0  0  0  0  0  0
    1.5126   70.3875   68.4939 H   0  0  0  0  0  0  0  0  0  0  0  0
    3.8609   70.4621   68.4885 H   0  0  0  0  0  0  0  0  0  0  0  0
    5.9979   70.2763   67.2200 H   0  0  0  0  0  0  0  0  0  0  0  0
    6.0271   69.2093   64.9689 H   0  0  0  0  0  0  0  0  0  0  0  0
    3.9210   68.3087   63.9871 H   0  0  0  0  0  0  0  0  0  0  0  0
    1.7776   68.4873   65.2466 H   0  0  0  0  0  0  0  0  0  0  0  0
    1.3324   65.0639   71.8928 H   0  0  0  0  0  0  0  0  0  0  0  0
   -0.4292   65.2058   72.3516 H   0  0  0  0  0  0  0  0  0  0  0  0
    0.3532   60.5372   72.3659 H   0  0  0  0  0  0  0  0  0  0  0  0
    2.2794   58.9878   71.9221 H   0  0  0  0  0  0  0  0  0  0  0  0
    2.9520   63.9732   71.7661 H   0  0  0  0  0  0  0  0  0  0  0  0
    6.1399   60.9509   70.1302 H   0  0  0  0  0  0  0  0  0  0  0  0
    6.4830   60.9622   71.9217 H   0  0  0  0  0  0  0  0  0  0  0  0
  2  1  1  0
  3  2  2  0
  4  3  1  0
  5  4  2  0
  6  5  1  0
  7  6  2  0
  7  2  1  0
  8  5  1  0
  9  8  1  0
 10  9  2  0
 11 10  1  0
 12 11  2  0
 13 12  1  0
 14 13  2  0
 14  9  1  0
 15  1  1  0
 17 16  2  0
 17 15  1  0
 18 17  1  0
 19 18  2  0
 20 19  1  0
 21 20  2  0
 22 21  1  0
 23 22  2  0
 23 18  1  0
 24 22  1  0
 25 24  1  0
 26 21  1  0
 26 25  1  0
  1 27  1  0
  1 28  1  0
  3 29  1  0
  4 30  1  0
  6 31  1  0
  7 32  1  0
  8 33  1  0
  8 34  1  0
 10 35  1  0
 11 36  1  0
 12 37  1  0
 13 38  1  0
 14 39  1  0
 15 40  1  0
 15 41  1  0
 19 42  1  0
 20 43  1  0
 23 44  1  0
 25 45  1  0
 25 46  1  0
M  CHG  1   5   1
M  END
>  <score>  (2) 
-9.844

$$$$
=
     RDKit          3D

 46 49  0  0  0  0  0  0  0  0999 V2000
    0.0930   65.6130   71.0010 C   0  0  0  0  0  0  0  0  0  0  0  0
    0.2710   66.4220   69.7350 C   0  0  0  0  0  0  0  0  0  0  0  0
   -0.7190   66.4200   68.7510 C   0  0  0  0  0  0  0  0  0  0  0  0
   -0.5340   67.1400   67.5780 C   0  0  0  0  0  0  0  0  0  0  0  0
    0.5920   67.8610   67.3830 N   0  0  0  0  0  4  0  0  0  0  0  0
    1.5650   67.8840   68.3240 C   0  0  0  0  0  0  0  0  0  0  0  0
    1.4250   67.1700   69.5110 C   0  0  0  0  0  0  0  0  0  0  0  0
    0.7780   68.6140   66.1180 C   0  0  0  0  0  0  0  0  0  0  0  0
    2.0160   68.1600   65.3890 C   0  0  0  0  0  0  0  0  0  0  0  0
    3.0650   69.0620   65.1500 C   0  0  0  0  0  0  0  0  0  0  0  0
    4.2120   68.6480   64.4700 C   0  0  0  0  0  0  0  0  0  0  0  0
    4.3240   67.3320   64.0270 C   0  0  0  0  0  0  0  0  0  0  0  0
    3.2950   66.4260   64.2670 C   0  0  0  0  0  0  0  0  0  0  0  0
    2.1460   66.8340   64.9470 C   0  0  0  0  0  0  0  0  0  0  0  0
    0.1130   64.0960   70.7820 C   0  0  0  0  0  0  0  0  0  0  0  0
    1.2300   63.6960   72.8840 O   0  0  0  0  0  0  0  0  0  0  0  0
    1.0730   63.3640   71.7110 C   0  0  0  0  0  0  0  0  0  0  0  0
    1.8330   62.1910   71.1770 C   0  0  0  0  0  0  0  0  0  0  0  0
    2.5040   62.3360   69.9400 C   0  0  0  0  0  0  0  0  0  0  0  0
    3.2360   61.2780   69.3890 C   0  0  0  0  0  0  0  0  0  0  0  0
    3.2800   60.0970   70.0940 C   0  0  0  0  0  0  0  0  0  0  0  0
    2.6310   59.9500   71.2980 C   0  0  0  0  0  0  0  0  0  0  0  0
    1.9000   60.9740   71.8690 C   0  0  0  0  0  0  0  0  0  0  0  0
    2.8020   58.7120   71.8300 O   0  0  0  0  0  0  0  0  0  0  0  0
    3.6210   58.0880   70.8160 C   0  0  0  0  0  0  0  0  0  0  0  0
    3.9370   58.9700   69.7190 O   0  0  0  0  0  0  0  0  0  0  0  0
    0.9066   65.8727   71.6943 H   0  0  0  0  0  0  0  0  0  0  0  0
   -0.9011   65.8629   71.4001 H   0  0  0  0  0  0  0  0  0  0  0  0
   -1.6459   65.8480   68.9047 H   0  0  0  0  0  0  0  0  0  0  0  0
   -1.3116   67.1232   66.8001 H   0  0  0  0  0  0  0  0  0  0  0  0
    2.4769   68.4737   68.1487 H   0  0  0  0  0  0  0  0  0  0  0  0
    2.2220   67.1963   70.2687 H   0  0  0  0  0  0  0  0  0  0  0  0
   -0.0978   68.4523   65.4724 H   0  0  0  0  0  0  0  0  0  0  0  0
    0.8895   69.6809   66.3616 H   0  0  0  0  0  0  0  0  0  0  0  0
    2.9827   70.1014   65.5007 H   0  0  0  0  0  0  0  0  0  0  0  0
    5.0281   69.3617   64.2839 H   0  0  0  0  0  0  0  0  0  0  0  0
    5.2262   67.0087   63.4872 H   0  0  0  0  0  0  0  0  0  0  0  0
    3.3873   65.3862   63.9201 H   0  0  0  0  0  0  0  0  0  0  0  0
    1.3380   66.1123   65.1375 H   0  0  0  0  0  0  0  0  0  0  0  0
   -0.9015   63.7058   70.9509 H   0  0  0  0  0  0  0  0  0  0  0  0
    0.4595   63.9207   69.7528 H   0  0  0  0  0  0  0  0  0  0  0  0
    2.4496   63.2946   69.4032 H   0  0  0  0  0  0  0  0  0  0  0  0
    3.7576   61.3866   68.4266 H   0  0  0  0  0  0  0  0  0  0  0  0
    1.3883   60.8388   72.8333 H   0  0  0  0  0  0  0  0  0  0  0  0
    4.5615   57.7573   71.2808 H   0  0  0  0  0  0  0  0  0  0  0  0
    3.0458   57.2460   70.4034 H   0  0  0  0  0  0  0  0  0  0  0  0
  2  1  1  0
  3  2  2  0
  4  3  1  0
  5  4  2  0
  6  5  1  0
  7  6  2  0
  7  2  1  0
  8  5  1  0
  9  8  1  0
 10  9  2  0
 11 10  1  0
 12 11  2  0
 13 12  1  0
 14 13  2  0
 14  9  1  0
 15  1  1  0
 17 16  2  0
 17 15  1  0
 18 17  1  0
 19 18  2  0
 20 19  1  0
 21 20  2  0
 22 21  1  0
 23 22  2  0
 23 18  1  0
 24 22  1  0
 25 24  1  0
 26 21  1  0
 26 25  1  0
  1 27  1  0
  1 28  1  0
  3 29  1  0
  4 30  1  0
  6 31  1  0
  7 32  1  0
  8 33  1  0
  8 34  1  0
 10 35  1  0
 11 36  1  0
 12 37  1  0
 13 38  1  0
 14 39  1  0
 15 40  1  0
 15 41  1  0
 19 42  1  0
 20 43  1  0
 23 44  1  0
 25 45  1  0
 25 46  1  0
M  CHG  1   5   1
M  END
>  <score>  (3) 
-9.839

$$$$
=
     RDKit          3D

 46 49  0  0  0  0  0  0  0  0999 V2000
    3.0060   68.2950   62.4900 C   0  0  0  0  0  0  0  0  0  0  0  0
    1.9590   68.1340   63.5700 C   0  0  0  0  0  0  0  0  0  0  0  0
    0.9510   69.0870   63.7250 C   0  0  0  0  0  0  0  0  0  0  0  0
    0.0120   68.9480   64.7380 C   0  0  0  0  0  0  0  0  0  0  0  0
    0.0520   67.8850   65.5730 N   0  0  0  0  0  4  0  0  0  0  0  0
    1.0160   66.9430   65.4400 C   0  0  0  0  0  0  0  0  0  0  0  0
    1.9820   67.0480   64.4430 C   0  0  0  0  0  0  0  0  0  0  0  0
   -0.9510   67.7600   66.6580 C   0  0  0  0  0  0  0  0  0  0  0  0
   -0.3190   67.2640   67.9330 C   0  0  0  0  0  0  0  0  0  0  0  0
    0.9240   67.7690   68.3470 C   0  0  0  0  0  0  0  0  0  0  0  0
    1.5170   67.3090   69.5240 C   0  0  0  0  0  0  0  0  0  0  0  0
    0.8740   66.3480   70.3010 C   0  0  0  0  0  0  0  0  0  0  0  0
   -0.3640   65.8480   69.9070 C   0  0  0  0  0  0  0  0  0  0  0  0
   -0.9620   66.3050   68.7310 C   0  0  0  0  0  0  0  0  0  0  0  0
    4.2530   69.0660   62.9380 C   0  0  0  0  0  0  0  0  0  0  0  0
    5.5320   67.3260   64.0140 O   0  0  0  0  0  0  0  0  0  0  0  0
    4.9760   68.4170   64.1100 C   0  0  0  0  0  0  0  0  0  0  0  0
    5.0240   69.1470   65.4150 C   0  0  0  0  0  0  0  0  0  0  0  0
    6.2680   69.6660   65.8460 C   0  0  0  0  0  0  0  0  0  0  0  0
    6.3780   70.3630   67.0550 C   0  0  0  0  0  0  0  0  0  0  0  0
    5.2360   70.5230   67.8050 C   0  0  0  0  0  0  0  0  0  0  0  0
    4.0240   70.0220   67.3920 C   0  0  0  0  0  0  0  0  0  0  0  0
    3.8800   69.3310   66.2050 C   0  0  0  0  0  0  0  0  0  0  0  0
    3.0250   70.2920   68.2730 O   0  0  0  0  0  0  0  0  0  0  0  0
    3.7490   71.0080   69.2990 C   0  0  0  0  0  0  0  0  0  0  0  0
    5.1520   71.1670   68.9980 O   0  0  0  0  0  0  0  0  0  0  0  0
    3.3190   67.2934   62.1601 H   0  0  0  0  0  0  0  0  0  0  0  0
    2.5425   68.8821   61.6835 H   0  0  0  0  0  0  0  0  0  0  0  0
    0.9006   69.9491   63.0437 H   0  0  0  0  0  0  0  0  0  0  0  0
   -0.7719   69.7096   64.8626 H   0  0  0  0  0  0  0  0  0  0  0  0
    1.0359   66.0848   66.1279 H   0  0  0  0  0  0  0  0  0  0  0  0
    2.7603   66.2769   64.3447 H   0  0  0  0  0  0  0  0  0  0  0  0
   -1.4042   68.7452   66.8423 H   0  0  0  0  0  0  0  0  0  0  0  0
   -1.7145   67.0333   66.3432 H   0  0  0  0  0  0  0  0  0  0  0  0
    1.4337   68.5318   67.7401 H   0  0  0  0  0  0  0  0  0  0  0  0
    2.4935   67.7059   69.8384 H   0  0  0  0  0  0  0  0  0  0  0  0
    1.3447   65.9841   71.2262 H   0  0  0  0  0  0  0  0  0  0  0  0
   -0.8720   65.0916   70.5232 H   0  0  0  0  0  0  0  0  0  0  0  0
   -1.9433   65.9110   68.4280 H   0  0  0  0  0  0  0  0  0  0  0  0
    4.9495   69.1264   62.0888 H   0  0  0  0  0  0  0  0  0  0  0  0
    3.9183   70.0591   63.2724 H   0  0  0  0  0  0  0  0  0  0  0  0
    7.1618   69.5195   65.2217 H   0  0  0  0  0  0  0  0  0  0  0  0
    7.3431   70.7682   67.3932 H   0  0  0  0  0  0  0  0  0  0  0  0
    2.9018   68.9385   65.8901 H   0  0  0  0  0  0  0  0  0  0  0  0
    3.3002   72.0059   69.4121 H   0  0  0  0  0  0  0  0  0  0  0  0
    3.6776   70.4162   70.2235 H   0  0  0  0  0  0  0  0  0  0  0  0
  2  1  1  0
  3  2  2  0
  4  3  1  0
  5  4  2  0
  6  5  1  0
  7  6  2  0
  7  2  1  0
  8  5  1  0
  9  8  1  0
 10  9  2  0
 11 10  1  0
 12 11  2  0
 13 12  1  0
 14 13  2  0
 14  9  1  0
 15  1  1  0
 17 16  2  0
 17 15  1  0
 18 17  1  0
 19 18  2  0
 20 19  1  0
 21 20  2  0
 22 21  1  0
 23 22  2  0
 23 18  1  0
 24 22  1  0
 25 24  1  0
 26 21  1  0
 26 25  1  0
  1 27  1  0
  1 28  1  0
  3 29  1  0
  4 30  1  0
  6 31  1  0
  7 32  1  0
  8 33  1  0
  8 34  1  0
 10 35  1  0
 11 36  1  0
 12 37  1  0
 13 38  1  0
 14 39  1  0
 15 40  1  0
 15 41  1  0
 19 42  1  0
 20 43  1  0
 23 44  1  0
 25 45  1  0
 25 46  1  0
M  CHG  1   5   1
M  END
>  <score>  (4) 
-9.788

$$$$
=
     RDKit          3D

 46 49  0  0  0  0  0  0  0  0999 V2000
    0.0370   68.0650   65.7150 C   0  0  0  0  0  0  0  0  0  0  0  0
    0.0660   67.4780   67.1080 C   0  0  0  0  0  0  0  0  0  0  0  0
   -1.0620   66.8420   67.6300 C   0  0  0  0  0  0  0  0  0  0  0  0
   -1.0370   66.3330   68.9220 C   0  0  0  0  0  0  0  0  0  0  0  0
    0.0780   66.4300   69.6800 N   0  0  0  0  0  4  0  0  0  0  0  0
    1.1880   67.0370   69.1950 C   0  0  0  0  0  0  0  0  0  0  0  0
    1.2040   67.5690   67.9080 C   0  0  0  0  0  0  0  0  0  0  0  0
    0.0820   65.8920   71.0620 C   0  0  0  0  0  0  0  0  0  0  0  0
    0.7460   64.5410   71.1210 C   0  0  0  0  0  0  0  0  0  0  0  0
    0.0710   63.4470   71.6840 C   0  0  0  0  0  0  0  0  0  0  0  0
    0.6840   62.1940   71.7460 C   0  0  0  0  0  0  0  0  0  0  0  0
    1.9710   62.0210   71.2440 C   0  0  0  0  0  0  0  0  0  0  0  0
    2.6470   63.0950   70.6720 C   0  0  0  0  0  0  0  0  0  0  0  0
    2.0380   64.3500   70.6070 C   0  0  0  0  0  0  0  0  0  0  0  0
    1.1670   67.5720   64.8040 C   0  0  0  0  0  0  0  0  0  0  0  0
    1.6620   69.2980   63.1910 O   0  0  0  0  0  0  0  0  0  0  0  0
    2.0000   68.7000   64.2100 C   0  0  0  0  0  0  0  0  0  0  0  0
    3.2620   69.1020   64.9060 C   0  0  0  0  0  0  0  0  0  0  0  0
    4.4630   69.1170   64.1570 C   0  0  0  0  0  0  0  0  0  0  0  0
    5.6760   69.4880   64.7480 C   0  0  0  0  0  0  0  0  0  0  0  0
    5.6570   69.8380   66.0780 C   0  0  0  0  0  0  0  0  0  0  0  0
    4.4940   69.8270   66.8110 C   0  0  0  0  0  0  0  0  0  0  0  0
    3.2810   69.4660   66.2590 C   0  0  0  0  0  0  0  0  0  0  0  0
    4.6910   70.2080   68.1010 O   0  0  0  0  0  0  0  0  0  0  0  0
    6.1170   70.4460   68.1020 C   0  0  0  0  0  0  0  0  0  0  0  0
    6.7300   70.2240   66.8150 O   0  0  0  0  0  0  0  0  0  0  0  0
   -0.9233   67.8000   65.2485 H   0  0  0  0  0  0  0  0  0  0  0  0
    0.1702   69.1513   65.8259 H   0  0  0  0  0  0  0  0  0  0  0  0
   -1.9707   66.7440   67.0179 H   0  0  0  0  0  0  0  0  0  0  0  0
   -1.9337   65.8459   69.3326 H   0  0  0  0  0  0  0  0  0  0  0  0
    2.0868   67.1105   69.8249 H   0  0  0  0  0  0  0  0  0  0  0  0
    2.1110   68.0590   67.5243 H   0  0  0  0  0  0  0  0  0  0  0  0
    0.6273   66.5883   71.7161 H   0  0  0  0  0  0  0  0  0  0  0  0
   -0.9606   65.7815   71.3948 H   0  0  0  0  0  0  0  0  0  0  0  0
   -0.9473   63.5774   72.0789 H   0  0  0  0  0  0  0  0  0  0  0  0
    0.1493   61.3424   72.1921 H   0  0  0  0  0  0  0  0  0  0  0  0
    2.4543   61.0344   71.2995 H   0  0  0  0  0  0  0  0  0  0  0  0
    3.6617   62.9550   70.2709 H   0  0  0  0  0  0  0  0  0  0  0  0
    2.5745   65.1945   70.1499 H   0  0  0  0  0  0  0  0  0  0  0  0
    1.8304   66.9210   65.3923 H   0  0  0  0  0  0  0  0  0  0  0  0
    0.6980   67.0376   63.9647 H   0  0  0  0  0  0  0  0  0  0  0  0
    4.4425   68.8328   63.0945 H   0  0  0  0  0  0  0  0  0  0  0  0
    6.6115   69.4993   64.1694 H   0  0  0  0  0  0  0  0  0  0  0  0
    2.3604   69.4642   66.8611 H   0  0  0  0  0  0  0  0  0  0  0  0
    6.2973   71.4894   68.4001 H   0  0  0  0  0  0  0  0  0  0  0  0
    6.5676   69.7318   68.8069 H   0  0  0  0  0  0  0  0  0  0  0  0
  2  1  1  0
  3  2  2  0
  4  3  1  0
  5  4  2  0
  6  5  1  0
  7  6  2  0
  7  2  1  0
  8  5  1  0
  9  8  1  0
 10  9  2  0
 11 10  1  0
 12 11  2  0
 13 12  1  0
 14 13  2  0
 14  9  1  0
 15  1  1  0
 17 16  2  0
 17 15  1  0
 18 17  1  0
 19 18  2  0
 20 19  1  0
 21 20  2  0
 22 21  1  0
 23 22  2  0
 23 18  1  0
 24 22  1  0
 25 24  1  0
 26 21  1  0
 26 25  1  0
  1 27  1  0
  1 28  1  0
  3 29  1  0
  4 30  1  0
  6 31  1  0
  7 32  1  0
  8 33  1  0
  8 34  1  0
 10 35  1  0
 11 36  1  0
 12 37  1  0
 13 38  1  0
 14 39  1  0
 15 40  1  0
 15 41  1  0
 19 42  1  0
 20 43  1  0
 23 44  1  0
 25 45  1  0
 25 46  1  0
M  CHG  1   5   1
M  END
>  <score>  (5) 
-9.77

$$$$
=
     RDKit          3D

 46 49  0  0  0  0  0  0  0  0999 V2000
   -0.1630   68.7970   66.8520 C   0  0  0  0  0  0  0  0  0  0  0  0
    0.0750   67.7700   67.9370 C   0  0  0  0  0  0  0  0  0  0  0  0
    1.2510   67.7960   68.6880 C   0  0  0  0  0  0  0  0  0  0  0  0
    1.4760   66.8320   69.6620 C   0  0  0  0  0  0  0  0  0  0  0  0
    0.5570   65.8710   69.9040 N   0  0  0  0  0  4  0  0  0  0  0  0
   -0.5950   65.8270   69.1940 C   0  0  0  0  0  0  0  0  0  0  0  0
   -0.8580   66.7690   68.2030 C   0  0  0  0  0  0  0  0  0  0  0  0
    0.8200   64.8410   70.9380 C   0  0  0  0  0  0  0  0  0  0  0  0
    1.8940   63.8820   70.4940 C   0  0  0  0  0  0  0  0  0  0  0  0
    3.2440   64.1600   70.7620 C   0  0  0  0  0  0  0  0  0  0  0  0
    4.2430   63.2780   70.3470 C   0  0  0  0  0  0  0  0  0  0  0  0
    3.9050   62.1090   69.6690 C   0  0  0  0  0  0  0  0  0  0  0  0
    2.5690   61.8160   69.4080 C   0  0  0  0  0  0  0  0  0  0  0  0
    1.5660   62.6950   69.8210 C   0  0  0  0  0  0  0  0  0  0  0  0
    0.5010   68.4580   65.5130 C   0  0  0  0  0  0  0  0  0  0  0  0
    2.5930   69.5150   66.0910 O   0  0  0  0  0  0  0  0  0  0  0  0
    2.0190   68.5750   65.5440 C   0  0  0  0  0  0  0  0  0  0  0  0
    2.8350   67.4970   64.9030 C   0  0  0  0  0  0  0  0  0  0  0  0
    3.7830   67.8710   63.9220 C   0  0  0  0  0  0  0  0  0  0  0  0
    4.5810   66.9110   63.2880 C   0  0  0  0  0  0  0  0  0  0  0  0
    4.4090   65.5960   63.6550 C   0  0  0  0  0  0  0  0  0  0  0  0
    3.4900   65.2260   64.6090 C   0  0  0  0  0  0  0  0  0  0  0  0
    2.6880   66.1480   65.2530 C   0  0  0  0  0  0  0  0  0  0  0  0
    3.4810   63.8850   64.8270 O   0  0  0  0  0  0  0  0  0  0  0  0
    4.4900   63.4470   63.8880 C   0  0  0  0  0  0  0  0  0  0  0  0
    5.0900   64.5340   63.1520 O   0  0  0  0  0  0  0  0  0  0  0  0
   -1.2475   68.8815   66.6882 H   0  0  0  0  0  0  0  0  0  0  0  0
    0.2885   69.7374   67.2009 H   0  0  0  0  0  0  0  0  0  0  0  0
    2.0005   68.5809   68.5083 H   0  0  0  0  0  0  0  0  0  0  0  0
    2.4106   66.8507   70.2418 H   0  0  0  0  0  0  0  0  0  0  0  0
   -1.3320   65.0375   69.4026 H   0  0  0  0  0  0  0  0  0  0  0  0
   -1.7975   66.7235   67.6327 H   0  0  0  0  0  0  0  0  0  0  0  0
    1.1438   65.3377   71.8645 H   0  0  0  0  0  0  0  0  0  0  0  0
   -0.1064   64.2720   71.1051 H   0  0  0  0  0  0  0  0  0  0  0  0
    3.5160   65.0787   71.3024 H   0  0  0  0  0  0  0  0  0  0  0  0
    5.2986   63.5063   70.5556 H   0  0  0  0  0  0  0  0  0  0  0  0
    4.6940   61.4169   69.3396 H   0  0  0  0  0  0  0  0  0  0  0  0
    2.3035   60.8907   68.8757 H   0  0  0  0  0  0  0  0  0  0  0  0
    0.5118   62.4556   69.6176 H   0  0  0  0  0  0  0  0  0  0  0  0
    0.2363   67.4247   65.2443 H   0  0  0  0  0  0  0  0  0  0  0  0
    0.1341   69.1865   64.7750 H   0  0  0  0  0  0  0  0  0  0  0  0
    3.8949   68.9318   63.6533 H   0  0  0  0  0  0  0  0  0  0  0  0
    5.3188   67.1976   62.5241 H   0  0  0  0  0  0  0  0  0  0  0  0
    1.9589   65.8341   66.0145 H   0  0  0  0  0  0  0  0  0  0  0  0
    5.2810   62.9222   64.4438 H   0  0  0  0  0  0  0  0  0  0  0  0
    3.9945   62.7908   63.1573 H   0  0  0  0  0  0  0  0  0  0  0  0
  2  1  1  0
  3  2  2  0
  4  3  1  0
  5  4  2  0
  6  5  1  0
  7  6  2  0
  7  2  1  0
  8  5  1  0
  9  8  1  0
 10  9  2  0
 11 10  1  0
 12 11  2  0
 13 12  1  0
 14 13  2  0
 14  9  1  0
 15  1  1  0
 17 16  2  0
 17 15  1  0
 18 17  1  0
 19 18  2  0
 20 19  1  0
 21 20  2  0
 22 21  1  0
 23 22  2  0
 23 18  1  0
 24 22  1  0
 25 24  1  0
 26 21  1  0
 26 25  1  0
  1 27  1  0
  1 28  1  0
  3 29  1  0
  4 30  1  0
  6 31  1  0
  7 32  1  0
  8 33  1  0
  8 34  1  0
 10 35  1  0
 11 36  1  0
 12 37  1  0
 13 38  1  0
 14 39  1  0
 15 40  1  0
 15 41  1  0
 19 42  1  0
 20 43  1  0
 23 44  1  0
 25 45  1  0
 25 46  1  0
M  CHG  1   5   1
M  END
>  <score>  (6) 
-9.732

$$$$
=
     RDKit          3D

 46 49  0  0  0  0  0  0  0  0999 V2000
    0.0560   66.8300   69.2140 C   0  0  0  0  0  0  0  0  0  0  0  0
    0.6270   65.7780   70.1390 C   0  0  0  0  0  0  0  0  0  0  0  0
    1.9220   65.2940   69.9440 C   0  0  0  0  0  0  0  0  0  0  0  0
    2.4280   64.3060   70.7790 C   0  0  0  0  0  0  0  0  0  0  0  0
    1.6840   63.8170   71.7960 N   0  0  0  0  0  4  0  0  0  0  0  0
    0.4280   64.2740   72.0110 C   0  0  0  0  0  0  0  0  0  0  0  0
   -0.1220   65.2580   71.1930 C   0  0  0  0  0  0  0  0  0  0  0  0
    2.2360   62.7530   72.6700 C   0  0  0  0  0  0  0  0  0  0  0  0
    3.1730   61.8510   71.9080 C   0  0  0  0  0  0  0  0  0  0  0  0
    2.6840   61.0380   70.8730 C   0  0  0  0  0  0  0  0  0  0  0  0
    3.5470   60.1970   70.1680 C   0  0  0  0  0  0  0  0  0  0  0  0
    4.9030   60.1630   70.4840 C   0  0  0  0  0  0  0  0  0  0  0  0
    5.4020   60.9740   71.5010 C   0  0  0  0  0  0  0  0  0  0  0  0
    4.5440   61.8180   72.2090 C   0  0  0  0  0  0  0  0  0  0  0  0
    1.1130   67.6000   68.4130 C   0  0  0  0  0  0  0  0  0  0  0  0
   -0.0310   66.9190   66.4000 O   0  0  0  0  0  0  0  0  0  0  0  0
    0.9500   67.4590   66.9060 C   0  0  0  0  0  0  0  0  0  0  0  0
    2.0150   68.0150   66.0150 C   0  0  0  0  0  0  0  0  0  0  0  0
    2.9330   68.9400   66.5660 C   0  0  0  0  0  0  0  0  0  0  0  0
    3.9550   69.4940   65.7870 C   0  0  0  0  0  0  0  0  0  0  0  0
    4.0340   69.1050   64.4690 C   0  0  0  0  0  0  0  0  0  0  0  0
    3.1460   68.2050   63.9270 C   0  0  0  0  0  0  0  0  0  0  0  0
    2.1270   67.6410   64.6680 C   0  0  0  0  0  0  0  0  0  0  0  0
    3.4000   67.9530   62.6160 O   0  0  0  0  0  0  0  0  0  0  0  0
    4.5410   68.8100   62.3880 C   0  0  0  0  0  0  0  0  0  0  0  0
    4.9540   69.5330   63.5670 O   0  0  0  0  0  0  0  0  0  0  0  0
   -0.6221   66.3342   68.5038 H   0  0  0  0  0  0  0  0  0  0  0  0
   -0.4584   67.5658   69.8497 H   0  0  0  0  0  0  0  0  0  0  0  0
    2.5419   65.6953   69.1287 H   0  0  0  0  0  0  0  0  0  0  0  0
    3.4435   63.9180   70.6111 H   0  0  0  0  0  0  0  0  0  0  0  0
   -0.1651   63.8634   72.8414 H   0  0  0  0  0  0  0  0  0  0  0  0
   -1.1430   65.6231   71.3780 H   0  0  0  0  0  0  0  0  0  0  0  0
    2.7848   63.2204   73.5009 H   0  0  0  0  0  0  0  0  0  0  0  0
    1.4005   62.1460   73.0488 H   0  0  0  0  0  0  0  0  0  0  0  0
    1.6147   61.0638   70.6161 H   0  0  0  0  0  0  0  0  0  0  0  0
    3.1552   59.5600   69.3613 H   0  0  0  0  0  0  0  0  0  0  0  0
    5.5801   59.4957   69.9305 H   0  0  0  0  0  0  0  0  0  0  0  0
    6.4739   60.9494   71.7467 H   0  0  0  0  0  0  0  0  0  0  0  0
    4.9444   62.4606   73.0070 H   0  0  0  0  0  0  0  0  0  0  0  0
    1.0398   68.6662   68.6735 H   0  0  0  0  0  0  0  0  0  0  0  0
    2.0930   67.1746   68.6751 H   0  0  0  0  0  0  0  0  0  0  0  0
    2.8419   69.2283   67.6236 H   0  0  0  0  0  0  0  0  0  0  0  0
    4.6693   70.2142   66.2125 H   0  0  0  0  0  0  0  0  0  0  0  0
    1.4266   66.9225   64.2172 H   0  0  0  0  0  0  0  0  0  0  0  0
    5.3821   68.1888   62.0464 H   0  0  0  0  0  0  0  0  0  0  0  0
    4.2448   69.5550   61.6349 H   0  0  0  0  0  0  0  0  0  0  0  0
  2  1  1  0
  3  2  2  0
  4  3  1  0
  5  4  2  0
  6  5  1  0
  7  6  2  0
  7  2  1  0
  8  5  1  0
  9  8  1  0
 10  9  2  0
 11 10  1  0
 12 11  2  0
 13 12  1  0
 14 13  2  0
 14  9  1  0
 15  1  1  0
 17 16  2  0
 17 15  1  0
 18 17  1  0
 19 18  2  0
 20 19  1  0
 21 20  2  0
 22 21  1  0
 23 22  2  0
 23 18  1  0
 24 22  1  0
 25 24  1  0
 26 21  1  0
 26 25  1  0
  1 27  1  0
  1 28  1  0
  3 29  1  0
  4 30  1  0
  6 31  1  0
  7 32  1  0
  8 33  1  0
  8 34  1  0
 10 35  1  0
 11 36  1  0
 12 37  1  0
 13 38  1  0
 14 39  1  0
 15 40  1  0
 15 41  1  0
 19 42  1  0
 20 43  1  0
 23 44  1  0
 25 45  1  0
 25 46  1  0
M  CHG  1   5   1
M  END
>  <score>  (7) 
-9.711

$$$$
=
     RDKit          3D

 46 49  0  0  0  0  0  0  0  0999 V2000
    0.3970   64.8010   70.9500 C   0  0  0  0  0  0  0  0  0  0  0  0
    0.4380   65.9100   69.9220 C   0  0  0  0  0  0  0  0  0  0  0  0
    1.5130   66.8000   69.8880 C   0  0  0  0  0  0  0  0  0  0  0  0
    1.5290   67.8350   68.9620 C   0  0  0  0  0  0  0  0  0  0  0  0
    0.5180   67.9820   68.0760 N   0  0  0  0  0  4  0  0  0  0  0  0
   -0.5330   67.1280   68.0840 C   0  0  0  0  0  0  0  0  0  0  0  0
   -0.5930   66.0820   69.0010 C   0  0  0  0  0  0  0  0  0  0  0  0
    0.5460   69.1000   67.1020 C   0  0  0  0  0  0  0  0  0  0  0  0
    1.8170   69.0890   66.2930 C   0  0  0  0  0  0  0  0  0  0  0  0
    3.0350   69.4570   66.8860 C   0  0  0  0  0  0  0  0  0  0  0  0
    4.2140   69.4540   66.1390 C   0  0  0  0  0  0  0  0  0  0  0  0
    4.1900   69.0800   64.7970 C   0  0  0  0  0  0  0  0  0  0  0  0
    2.9900   68.7020   64.2010 C   0  0  0  0  0  0  0  0  0  0  0  0
    1.8080   68.7030   64.9430 C   0  0  0  0  0  0  0  0  0  0  0  0
    1.7750   64.2500   71.3330 C   0  0  0  0  0  0  0  0  0  0  0  0
    2.6840   63.5470   69.2100 O   0  0  0  0  0  0  0  0  0  0  0  0
    2.3160   63.2310   70.3400 C   0  0  0  0  0  0  0  0  0  0  0  0
    2.4190   61.8000   70.7650 C   0  0  0  0  0  0  0  0  0  0  0  0
    1.7210   61.3960   71.9270 C   0  0  0  0  0  0  0  0  0  0  0  0
    1.7720   60.0710   72.3750 C   0  0  0  0  0  0  0  0  0  0  0  0
    2.5240   59.1790   71.6440 C   0  0  0  0  0  0  0  0  0  0  0  0
    3.2030   59.5650   70.5130 C   0  0  0  0  0  0  0  0  0  0  0  0
    3.1740   60.8640   70.0440 C   0  0  0  0  0  0  0  0  0  0  0  0
    3.8800   58.5350   69.9380 O   0  0  0  0  0  0  0  0  0  0  0  0
    3.5610   57.4570   70.8470 C   0  0  0  0  0  0  0  0  0  0  0  0
    2.6890   57.8610   71.9240 O   0  0  0  0  0  0  0  0  0  0  0  0
   -0.0839   65.1908   71.8593 H   0  0  0  0  0  0  0  0  0  0  0  0
   -0.1618   63.9692   70.4964 H   0  0  0  0  0  0  0  0  0  0  0  0
    2.3475   66.6815   70.5948 H   0  0  0  0  0  0  0  0  0  0  0  0
    2.3719   68.5417   68.9492 H   0  0  0  0  0  0  0  0  0  0  0  0
   -1.3484   67.2622   67.3579 H   0  0  0  0  0  0  0  0  0  0  0  0
   -1.4513   65.3940   68.9983 H   0  0  0  0  0  0  0  0  0  0  0  0
   -0.3129   69.0040   66.4214 H   0  0  0  0  0  0  0  0  0  0  0  0
    0.4970   70.0473   67.6590 H   0  0  0  0  0  0  0  0  0  0  0  0
    3.0604   69.7496   67.9461 H   0  0  0  0  0  0  0  0  0  0  0  0
    5.1636   69.7473   66.6105 H   0  0  0  0  0  0  0  0  0  0  0  0
    5.1193   69.0834   64.2084 H   0  0  0  0  0  0  0  0  0  0  0  0
    2.9734   68.4019   63.1429 H   0  0  0  0  0  0  0  0  0  0  0  0
    0.8637   68.3996   64.4674 H   0  0  0  0  0  0  0  0  0  0  0  0
    2.4827   65.0902   71.3909 H   0  0  0  0  0  0  0  0  0  0  0  0
    1.6618   63.7345   72.2981 H   0  0  0  0  0  0  0  0  0  0  0  0
    1.1289   62.1346   72.4873 H   0  0  0  0  0  0  0  0  0  0  0  0
    1.2308   59.7538   73.2786 H   0  0  0  0  0  0  0  0  0  0  0  0
    3.7240   61.1540   69.1366 H   0  0  0  0  0  0  0  0  0  0  0  0
    3.0666   56.6553   70.2788 H   0  0  0  0  0  0  0  0  0  0  0  0
    4.5055   57.1206   71.2996 H   0  0  0  0  0  0  0  0  0  0  0  0
  2  1  1  0
  3  2  2  0
  4  3  1  0
  5  4  2  0
  6  5  1  0
  7  6  2  0
  7  2  1  0
  8  5  1  0
  9  8  1  0
 10  9  2  0
 11 10  1  0
 12 11  2  0
 13 12  1  0
 14 13  2  0
 14  9  1  0
 15  1  1  0
 17 16  2  0
 17 15  1  0
 18 17  1  0
 19 18  2  0
 20 19  1  0
 21 20  2  0
 22 21  1  0
 23 22  2  0
 23 18  1  0
 24 22  1  0
 25 24  1  0
 26 21  1  0
 26 25  1  0
  1 27  1  0
  1 28  1  0
  3 29  1  0
  4 30  1  0
  6 31  1  0
  7 32  1  0
  8 33  1  0
  8 34  1  0
 10 35  1  0
 11 36  1  0
 12 37  1  0
 13 38  1  0
 14 39  1  0
 15 40  1  0
 15 41  1  0
 19 42  1  0
 20 43  1  0
 23 44  1  0
 25 45  1  0
 25 46  1  0
M  CHG  1   5   1
M  END
>  <score>  (8) 
-9.681

$$$$
=
     RDKit          3D

 46 49  0  0  0  0  0  0  0  0999 V2000
    0.3080   65.6340   70.1940 C   0  0  0  0  0  0  0  0  0  0  0  0
    1.2240   64.5860   70.7870 C   0  0  0  0  0  0  0  0  0  0  0  0
    0.7990   63.8060   71.8630 C   0  0  0  0  0  0  0  0  0  0  0  0
    1.6560   62.8670   72.4220 C   0  0  0  0  0  0  0  0  0  0  0  0
    2.9000   62.6860   71.9220 N   0  0  0  0  0  4  0  0  0  0  0  0
    3.3330   63.4260   70.8750 C   0  0  0  0  0  0  0  0  0  0  0  0
    2.5100   64.3840   70.2900 C   0  0  0  0  0  0  0  0  0  0  0  0
    3.8060   61.6880   72.5400 C   0  0  0  0  0  0  0  0  0  0  0  0
    3.4200   60.2840   72.1520 C   0  0  0  0  0  0  0  0  0  0  0  0
    3.8340   59.7530   70.9200 C   0  0  0  0  0  0  0  0  0  0  0  0
    3.4740   58.4550   70.5540 C   0  0  0  0  0  0  0  0  0  0  0  0
    2.7040   57.6750   71.4130 C   0  0  0  0  0  0  0  0  0  0  0  0
    2.2970   58.1860   72.6430 C   0  0  0  0  0  0  0  0  0  0  0  0
    2.6550   59.4830   73.0150 C   0  0  0  0  0  0  0  0  0  0  0  0
    1.0430   66.8280   69.5730 C   0  0  0  0  0  0  0  0  0  0  0  0
   -0.5820   66.9470   67.7930 O   0  0  0  0  0  0  0  0  0  0  0  0
    0.5690   67.1650   68.1660 C   0  0  0  0  0  0  0  0  0  0  0  0
    1.5350   67.7990   67.2170 C   0  0  0  0  0  0  0  0  0  0  0  0
    2.2920   68.9050   67.6720 C   0  0  0  0  0  0  0  0  0  0  0  0
    3.2160   69.5400   66.8340 C   0  0  0  0  0  0  0  0  0  0  0  0
    3.3600   69.0500   65.5560 C   0  0  0  0  0  0  0  0  0  0  0  0
    2.6290   67.9750   65.1080 C   0  0  0  0  0  0  0  0  0  0  0  0
    1.7100   67.3260   65.9080 C   0  0  0  0  0  0  0  0  0  0  0  0
    2.9240   67.6480   63.8220 O   0  0  0  0  0  0  0  0  0  0  0  0
    3.9150   68.6510   63.5040 C   0  0  0  0  0  0  0  0  0  0  0  0
    4.2030   69.5340   64.6090 O   0  0  0  0  0  0  0  0  0  0  0  0
   -0.3008   65.1579   69.4113 H   0  0  0  0  0  0  0  0  0  0  0  0
   -0.2988   66.0302   71.0215 H   0  0  0  0  0  0  0  0  0  0  0  0
   -0.2153   63.9349   72.2687 H   0  0  0  0  0  0  0  0  0  0  0  0
    1.3203   62.2649   73.2792 H   0  0  0  0  0  0  0  0  0  0  0  0
    4.3480   63.2684   70.4814 H   0  0  0  0  0  0  0  0  0  0  0  0
    2.8732   64.9790   69.4391 H   0  0  0  0  0  0  0  0  0  0  0  0
    4.8354   61.8823   72.2045 H   0  0  0  0  0  0  0  0  0  0  0  0
    3.7293   61.7796   73.6335 H   0  0  0  0  0  0  0  0  0  0  0  0
    4.4456   60.3634   70.2393 H   0  0  0  0  0  0  0  0  0  0  0  0
    3.7991   58.0475   69.5854 H   0  0  0  0  0  0  0  0  0  0  0  0
    2.4170   56.6544   71.1198 H   0  0  0  0  0  0  0  0  0  0  0  0
    1.6927   57.5668   73.3222 H   0  0  0  0  0  0  0  0  0  0  0  0
    2.3359   59.8799   73.9900 H   0  0  0  0  0  0  0  0  0  0  0  0
    0.8838   67.7073   70.2145 H   0  0  0  0  0  0  0  0  0  0  0  0
    2.1056   66.5530   69.5004 H   0  0  0  0  0  0  0  0  0  0  0  0
    2.1521   69.2711   68.6998 H   0  0  0  0  0  0  0  0  0  0  0  0
    3.8059   70.3998   67.1843 H   0  0  0  0  0  0  0  0  0  0  0  0
    1.1346   66.4673   65.5318 H   0  0  0  0  0  0  0  0  0  0  0  0
    4.8454   68.1429   63.2104 H   0  0  0  0  0  0  0  0  0  0  0  0
    3.5073   69.2677   62.6895 H   0  0  0  0  0  0  0  0  0  0  0  0
  2  1  1  0
  3  2  2  0
  4  3  1  0
  5  4  2  0
  6  5  1  0
  7  6  2  0
  7  2  1  0
  8  5  1  0
  9  8  1  0
 10  9  2  0
 11 10  1  0
 12 11  2  0
 13 12  1  0
 14 13  2  0
 14  9  1  0
 15  1  1  0
 17 16  2  0
 17 15  1  0
 18 17  1  0
 19 18  2  0
 20 19  1  0
 21 20  2  0
 22 21  1  0
 23 22  2  0
 23 18  1  0
 24 22  1  0
 25 24  1  0
 26 21  1  0
 26 25  1  0
  1 27  1  0
  1 28  1  0
  3 29  1  0
  4 30  1  0
  6 31  1  0
  7 32  1  0
  8 33  1  0
  8 34  1  0
 10 35  1  0
 11 36  1  0
 12 37  1  0
 13 38  1  0
 14 39  1  0
 15 40  1  0
 15 41  1  0
 19 42  1  0
 20 43  1  0
 23 44  1  0
 25 45  1  0
 25 46  1  0
M  CHG  1   5   1
M  END
>  <score>  (9) 
-9.647

$$$$
