=
     RDKit          3D

 55 58  0  0  0  0  0  0  0  0999 V2000
    0.5320   66.8400   69.5910 C   0  0  1  0  0  0  0  0  0  0  0  0
    1.5140   67.6910   68.7770 C   0  0  0  0  0  0  0  0  0  0  0  0
    0.8050   68.7030   67.8820 C   0  0  0  0  0  0  0  0  0  0  0  0
   -0.2200   68.0410   66.9540 N   0  0  1  0  0  4  0  0  0  0  0  0
   -1.2170   67.2320   67.7850 C   0  0  0  0  0  0  0  0  0  0  0  0
   -0.5190   66.2060   68.6690 C   0  0  0  0  0  0  0  0  0  0  0  0
   -0.9990   69.1630   66.2540 C   0  0  0  0  0  0  0  0  0  0  0  0
    1.2440   65.7340   70.3910 C   0  0  0  0  0  0  0  0  0  0  0  0
    0.3950   64.4790   70.6280 C   0  0  0  0  0  0  0  0  0  0  0  0
    0.9830   63.6960   72.8250 O   0  0  0  0  0  0  0  0  0  0  0  0
    1.0730   63.5340   71.6090 C   0  0  0  0  0  0  0  0  0  0  0  0
    1.8540   62.3750   71.0780 C   0  0  0  0  0  0  0  0  0  0  0  0
    2.5910   62.4550   69.8750 C   0  0  0  0  0  0  0  0  0  0  0  0
    3.3110   61.3500   69.4050 C   0  0  0  0  0  0  0  0  0  0  0  0
    3.2730   60.1920   70.1510 C   0  0  0  0  0  0  0  0  0  0  0  0
    2.5560   60.1070   71.3190 C   0  0  0  0  0  0  0  0  0  0  0  0
    1.8360   61.1760   71.8100 C   0  0  0  0  0  0  0  0  0  0  0  0
    2.6500   58.8810   71.8980 O   0  0  0  0  0  0  0  0  0  0  0  0
    3.5090   58.1990   70.9590 C   0  0  0  0  0  0  0  0  0  0  0  0
    3.9080   59.0290   69.8460 O   0  0  0  0  0  0  0  0  0  0  0  0
    0.5100   67.1880   65.8780 C   0  0  0  0  0  0  0  0  0  0  0  0
    1.6200   67.8600   65.1070 C   0  0  0  0  0  0  0  0  0  0  0  0
    2.8060   68.2550   65.7460 C   0  0  0  0  0  0  0  0  0  0  0  0
    3.8310   68.8690   65.0260 C   0  0  0  0  0  0  0  0  0  0  0  0
    3.6830   69.1060   63.6620 C   0  0  0  0  0  0  0  0  0  0  0  0
    2.5060   68.7360   63.0170 C   0  0  0  0  0  0  0  0  0  0  0  0
    1.4780   68.1230   63.7330 C   0  0  0  0  0  0  0  0  0  0  0  0
    0.0419   67.5153   70.3078 H   0  0  0  0  0  0  0  0  0  0  0  0
    2.1711   68.2340   69.4723 H   0  0  0  0  0  0  0  0  0  0  0  0
    2.0864   67.0125   68.1273 H   0  0  0  0  0  0  0  0  0  0  0  0
    0.2856   69.4349   68.5180 H   0  0  0  0  0  0  0  0  0  0  0  0
    1.5662   69.1868   67.2522 H   0  0  0  0  0  0  0  0  0  0  0  0
   -1.7893   67.9209   68.4236 H   0  0  0  0  0  0  0  0  0  0  0  0
   -1.8787   66.6913   67.0923 H   0  0  0  0  0  0  0  0  0  0  0  0
   -1.2751   65.7031   69.2898 H   0  0  0  0  0  0  0  0  0  0  0  0
    0.0010   65.4960   68.0091 H   0  0  0  0  0  0  0  0  0  0  0  0
   -1.4549   69.8196   67.0097 H   0  0  0  0  0  0  0  0  0  0  0  0
   -0.3125   69.7490   65.6253 H   0  0  0  0  0  0  0  0  0  0  0  0
   -1.7880   68.7246   65.6253 H   0  0  0  0  0  0  0  0  0  0  0  0
    2.1489   65.4385   69.8397 H   0  0  0  0  0  0  0  0  0  0  0  0
    1.4654   66.1558   71.3825 H   0  0  0  0  0  0  0  0  0  0  0  0
   -0.5822   64.7783   71.0349 H   0  0  0  0  0  0  0  0  0  0  0  0
    0.2713   63.9555   69.6685 H   0  0  0  0  0  0  0  0  0  0  0  0
    2.5991   63.3942   69.3024 H   0  0  0  0  0  0  0  0  0  0  0  0
    3.8884   61.4045   68.4703 H   0  0  0  0  0  0  0  0  0  0  0  0
    1.2649   61.0923   72.7464 H   0  0  0  0  0  0  0  0  0  0  0  0
    4.4136   57.8675   71.4898 H   0  0  0  0  0  0  0  0  0  0  0  0
    2.9378   57.3535   70.5480 H   0  0  0  0  0  0  0  0  0  0  0  0
    0.9414   66.3125   66.3854 H   0  0  0  0  0  0  0  0  0  0  0  0
   -0.2596   66.9566   65.1269 H   0  0  0  0  0  0  0  0  0  0  0  0
    2.9282   68.0786   66.8249 H   0  0  0  0  0  0  0  0  0  0  0  0
    4.7584   69.1666   65.5371 H   0  0  0  0  0  0  0  0  0  0  0  0
    4.4948   69.5849   63.0949 H   0  0  0  0  0  0  0  0  0  0  0  0
    2.3866   68.9275   61.9404 H   0  0  0  0  0  0  0  0  0  0  0  0
    0.5473   67.8426   63.2180 H   0  0  0  0  0  0  0  0  0  0  0  0
  2  1  1  0
  3  2  1  0
  4  3  1  0
  5  4  1  0
  6  5  1  0
  6  1  1  0
  4  7  1  6
  8  1  1  0
  9  8  1  0
 11  9  1  0
 11 10  2  0
 12 11  1  0
 13 12  2  0
 14 13  1  0
 15 14  2  0
 16 15  1  0
 17 16  2  0
 17 12  1  0
 18 16  1  0
 19 18  1  0
 20 19  1  0
 20 15  1  0
 21  4  1  0
 22 21  1  0
 23 22  2  0
 24 23  1  0
 25 24  2  0
 26 25  1  0
 27 26  2  0
 27 22  1  0
  1 28  1  1
  2 29  1  0
  2 30  1  0
  3 31  1  0
  3 32  1  0
  5 33  1  0
  5 34  1  0
  6 35  1  0
  6 36  1  0
  7 37  1  0
  7 38  1  0
  7 39  1  0
  8 40  1  0
  8 41  1  0
  9 42  1  0
  9 43  1  0
 13 44  1  0
 14 45  1  0
 17 46  1  0
 19 47  1  0
 19 48  1  0
 21 49  1  0
 21 50  1  0
 23 51  1  0
 24 52  1  0
 25 53  1  0
 26 54  1  0
 27 55  1  0
M  CHG  1   4   1
M  END
>  <score>  (1) 
-9.88

$$$$
=
     RDKit          3D

 55 58  0  0  0  0  0  0  0  0999 V2000
    0.5060   62.3070   72.7380 C   0  0  1  0  0  0  0  0  0  0  0  0
    0.3630   60.7970   72.5100 C   0  0  0  0  0  0  0  0  0  0  0  0
    1.2450   59.9810   73.4490 C   0  0  0  0  0  0  0  0  0  0  0  0
    2.7200   60.3940   73.3690 N   0  0  1  0  0  4  0  0  0  0  0  0
    2.8480   61.8930   73.6410 C   0  0  0  0  0  0  0  0  0  0  0  0
    1.9840   62.7180   72.6960 C   0  0  0  0  0  0  0  0  0  0  0  0
    3.4660   59.6520   74.4850 C   0  0  0  0  0  0  0  0  0  0  0  0
   -0.2830   63.1300   71.7020 C   0  0  0  0  0  0  0  0  0  0  0  0
    0.5820   64.0600   70.8430 C   0  0  0  0  0  0  0  0  0  0  0  0
   -0.3870   65.9520   71.9680 O   0  0  0  0  0  0  0  0  0  0  0  0
    0.0950   65.4990   70.9310 C   0  0  0  0  0  0  0  0  0  0  0  0
    0.2210   66.3830   69.7310 C   0  0  0  0  0  0  0  0  0  0  0  0
    1.3690   67.1750   69.5010 C   0  0  0  0  0  0  0  0  0  0  0  0
    1.4540   67.9940   68.3680 C   0  0  0  0  0  0  0  0  0  0  0  0
    0.3870   67.9970   67.4950 C   0  0  0  0  0  0  0  0  0  0  0  0
   -0.7310   67.2320   67.7150 C   0  0  0  0  0  0  0  0  0  0  0  0
   -0.8470   66.4160   68.8210 C   0  0  0  0  0  0  0  0  0  0  0  0
   -1.6630   67.3820   66.7380 O   0  0  0  0  0  0  0  0  0  0  0  0
   -1.0050   68.3330   65.8740 C   0  0  0  0  0  0  0  0  0  0  0  0
    0.3000   68.7270   66.3520 O   0  0  0  0  0  0  0  0  0  0  0  0
    3.3160   59.9700   71.9960 C   0  0  0  0  0  0  0  0  0  0  0  0
    3.5980   61.0700   71.0020 C   0  0  0  0  0  0  0  0  0  0  0  0
    2.8330   61.1990   69.8330 C   0  0  0  0  0  0  0  0  0  0  0  0
    3.0940   62.2230   68.9210 C   0  0  0  0  0  0  0  0  0  0  0  0
    4.1280   63.1250   69.1600 C   0  0  0  0  0  0  0  0  0  0  0  0
    4.9070   63.0000   70.3070 C   0  0  0  0  0  0  0  0  0  0  0  0
    4.6500   61.9770   71.2200 C   0  0  0  0  0  0  0  0  0  0  0  0
    0.0869   62.5208   73.7323 H   0  0  0  0  0  0  0  0  0  0  0  0
   -0.6867   60.5127   72.6752 H   0  0  0  0  0  0  0  0  0  0  0  0
    0.6815   60.5819   71.4793 H   0  0  0  0  0  0  0  0  0  0  0  0
    0.8925   60.1265   74.4808 H   0  0  0  0  0  0  0  0  0  0  0  0
    1.1742   58.9263   73.1449 H   0  0  0  0  0  0  0  0  0  0  0  0
    2.5351   62.0945   74.6761 H   0  0  0  0  0  0  0  0  0  0  0  0
    3.8978   62.1799   73.4809 H   0  0  0  0  0  0  0  0  0  0  0  0
    2.0633   63.7776   72.9805 H   0  0  0  0  0  0  0  0  0  0  0  0
    2.3493   62.5444   71.6731 H   0  0  0  0  0  0  0  0  0  0  0  0
    3.1093   60.0068   75.4632 H   0  0  0  0  0  0  0  0  0  0  0  0
    3.2785   58.5718   74.3961 H   0  0  0  0  0  0  0  0  0  0  0  0
    4.5452   59.8453   74.3961 H   0  0  0  0  0  0  0  0  0  0  0  0
   -0.8062   62.4309   71.0330 H   0  0  0  0  0  0  0  0  0  0  0  0
   -0.9704   63.7746   72.2695 H   0  0  0  0  0  0  0  0  0  0  0  0
    1.6225   64.0108   71.1965 H   0  0  0  0  0  0  0  0  0  0  0  0
    0.5132   63.7317   69.7954 H   0  0  0  0  0  0  0  0  0  0  0  0
    2.2028   67.1479   70.2180 H   0  0  0  0  0  0  0  0  0  0  0  0
    2.3429   68.6144   68.1809 H   0  0  0  0  0  0  0  0  0  0  0  0
   -1.7497   65.8092   68.9849 H   0  0  0  0  0  0  0  0  0  0  0  0
   -0.8906   67.8800   64.8781 H   0  0  0  0  0  0  0  0  0  0  0  0
   -1.6303   69.2376   65.8467 H   0  0  0  0  0  0  0  0  0  0  0  0
    4.2648   59.4494   72.1927 H   0  0  0  0  0  0  0  0  0  0  0  0
    2.5370   59.3525   71.5251 H   0  0  0  0  0  0  0  0  0  0  0  0
    2.0195   60.4861   69.6332 H   0  0  0  0  0  0  0  0  0  0  0  0
    2.4820   62.3177   68.0119 H   0  0  0  0  0  0  0  0  0  0  0  0
    4.3288   63.9351   68.4434 H   0  0  0  0  0  0  0  0  0  0  0  0
    5.7268   63.7093   70.4938 H   0  0  0  0  0  0  0  0  0  0  0  0
    5.2763   61.8790   72.1190 H   0  0  0  0  0  0  0  0  0  0  0  0
  2  1  1  0
  3  2  1  0
  4  3  1  0
  5  4  1  0
  6  5  1  0
  6  1  1  0
  4  7  1  1
  8  1  1  0
  9  8  1  0
 11  9  1  0
 11 10  2  0
 12 11  1  0
 13 12  2  0
 14 13  1  0
 15 14  2  0
 16 15  1  0
 17 16  2  0
 17 12  1  0
 18 16  1  0
 19 18  1  0
 20 19  1  0
 20 15  1  0
 21  4  1  0
 22 21  1  0
 23 22  2  0
 24 23  1  0
 25 24  2  0
 26 25  1  0
 27 26  2  0
 27 22  1  0
  1 28  1  1
  2 29  1  0
  2 30  1  0
  3 31  1  0
  3 32  1  0
  5 33  1  0
  5 34  1  0
  6 35  1  0
  6 36  1  0
  7 37  1  0
  7 38  1  0
  7 39  1  0
  8 40  1  0
  8 41  1  0
  9 42  1  0
  9 43  1  0
 13 44  1  0
 14 45  1  0
 17 46  1  0
 19 47  1  0
 19 48  1  0
 21 49  1  0
 21 50  1  0
 23 51  1  0
 24 52  1  0
 25 53  1  0
 26 54  1  0
 27 55  1  0
M  CHG  1   4   1
M  END
>  <score>  (2) 
-9.772

$$$$
=
     RDKit          3D

 55 58  0  0  0  0  0  0  0  0999 V2000
    1.7950   64.5340   70.9730 C   0  0  1  0  0  0  0  0  0  0  0  0
    1.2030   63.5630   72.0020 C   0  0  0  0  0  0  0  0  0  0  0  0
    2.2790   62.8080   72.7750 C   0  0  0  0  0  0  0  0  0  0  0  0
    3.2530   62.0710   71.8480 N   0  0  1  0  0  4  0  0  0  0  0  0
    3.8660   63.0610   70.8580 C   0  0  0  0  0  0  0  0  0  0  0  0
    2.8000   63.8080   70.0670 C   0  0  0  0  0  0  0  0  0  0  0  0
    4.3890   61.5200   72.7200 C   0  0  0  0  0  0  0  0  0  0  0  0
    0.7090   65.1960   70.1040 C   0  0  0  0  0  0  0  0  0  0  0  0
    0.9230   66.6940   69.8580 C   0  0  0  0  0  0  0  0  0  0  0  0
   -0.5540   66.7990   67.9620 O   0  0  0  0  0  0  0  0  0  0  0  0
    0.5480   67.0750   68.4330 C   0  0  0  0  0  0  0  0  0  0  0  0
    1.5400   67.8160   67.5950 C   0  0  0  0  0  0  0  0  0  0  0  0
    2.2300   68.9510   68.0770 C   0  0  0  0  0  0  0  0  0  0  0  0
    3.1530   69.6230   67.2650 C   0  0  0  0  0  0  0  0  0  0  0  0
    3.3600   69.1400   65.9910 C   0  0  0  0  0  0  0  0  0  0  0  0
    2.6900   68.0390   65.5160 C   0  0  0  0  0  0  0  0  0  0  0  0
    1.7760   67.3550   66.2900 C   0  0  0  0  0  0  0  0  0  0  0  0
    3.0380   67.7310   64.2390 O   0  0  0  0  0  0  0  0  0  0  0  0
    4.0050   68.7660   63.9600 C   0  0  0  0  0  0  0  0  0  0  0  0
    4.2130   69.6650   65.0720 O   0  0  0  0  0  0  0  0  0  0  0  0
    2.5300   60.8820   71.1540 C   0  0  0  0  0  0  0  0  0  0  0  0
    1.9520   59.8130   72.0490 C   0  0  0  0  0  0  0  0  0  0  0  0
    2.5570   58.5510   72.1500 C   0  0  0  0  0  0  0  0  0  0  0  0
    2.0230   57.5700   72.9850 C   0  0  0  0  0  0  0  0  0  0  0  0
    0.8730   57.8320   73.7240 C   0  0  0  0  0  0  0  0  0  0  0  0
    0.2500   59.0730   73.6230 C   0  0  0  0  0  0  0  0  0  0  0  0
    0.7810   60.0560   72.7880 C   0  0  0  0  0  0  0  0  0  0  0  0
    2.3065   65.3263   71.5392 H   0  0  0  0  0  0  0  0  0  0  0  0
    0.5907   64.1342   72.7153 H   0  0  0  0  0  0  0  0  0  0  0  0
    0.6001   62.8223   71.4561 H   0  0  0  0  0  0  0  0  0  0  0  0
    2.8463   63.5265   73.3848 H   0  0  0  0  0  0  0  0  0  0  0  0
    1.7776   62.0562   73.4022 H   0  0  0  0  0  0  0  0  0  0  0  0
    4.4724   63.7908   71.4145 H   0  0  0  0  0  0  0  0  0  0  0  0
    4.4829   62.4930   70.1461 H   0  0  0  0  0  0  0  0  0  0  0  0
    3.2942   64.5502   69.4229 H   0  0  0  0  0  0  0  0  0  0  0  0
    2.2420   63.0667   69.4761 H   0  0  0  0  0  0  0  0  0  0  0  0
    4.1302   61.6455   73.7817 H   0  0  0  0  0  0  0  0  0  0  0  0
    4.5336   60.4516   72.5017 H   0  0  0  0  0  0  0  0  0  0  0  0
    5.3176   62.0678   72.5017 H   0  0  0  0  0  0  0  0  0  0  0  0
    0.6897   64.6863   69.1294 H   0  0  0  0  0  0  0  0  0  0  0  0
   -0.2376   65.0999   70.6560 H   0  0  0  0  0  0  0  0  0  0  0  0
    0.2975   67.2660   70.5591 H   0  0  0  0  0  0  0  0  0  0  0  0
    1.9874   66.9246   70.0124 H   0  0  0  0  0  0  0  0  0  0  0  0
    2.0407   69.3103   69.0993 H   0  0  0  0  0  0  0  0  0  0  0  0
    3.6947   70.5071   67.6323 H   0  0  0  0  0  0  0  0  0  0  0  0
    1.2475   66.4742   65.8964 H   0  0  0  0  0  0  0  0  0  0  0  0
    4.9648   68.2898   63.7110 H   0  0  0  0  0  0  0  0  0  0  0  0
    3.6119   69.3643   63.1249 H   0  0  0  0  0  0  0  0  0  0  0  0
    1.7040   61.2982   70.5586 H   0  0  0  0  0  0  0  0  0  0  0  0
    3.3124   60.3736   70.5715 H   0  0  0  0  0  0  0  0  0  0  0  0
    3.4622   58.3331   71.5642 H   0  0  0  0  0  0  0  0  0  0  0  0
    2.5116   56.5873   73.0597 H   0  0  0  0  0  0  0  0  0  0  0  0
    0.4568   57.0594   74.3872 H   0  0  0  0  0  0  0  0  0  0  0  0
   -0.6621   59.2785   74.2025 H   0  0  0  0  0  0  0  0  0  0  0  0
    0.2785   61.0311   72.7069 H   0  0  0  0  0  0  0  0  0  0  0  0
  2  1  1  0
  3  2  1  0
  4  3  1  0
  5  4  1  0
  6  5  1  0
  6  1  1  0
  4  7  1  1
  8  1  1  0
  9  8  1  0
 11  9  1  0
 11 10  2  0
 12 11  1  0
 13 12  2  0
 14 13  1  0
 15 14  2  0
 16 15  1  0
 17 16  2  0
 17 12  1  0
 18 16  1  0
 19 18  1  0
 20 19  1  0
 20 15  1  0
 21  4  1  0
 22 21  1  0
 23 22  2  0
 24 23  1  0
 25 24  2  0
 26 25  1  0
 27 26  2  0
 27 22  1  0
  1 28  1  1
  2 29  1  0
  2 30  1  0
  3 31  1  0
  3 32  1  0
  5 33  1  0
  5 34  1  0
  6 35  1  0
  6 36  1  0
  7 37  1  0
  7 38  1  0
  7 39  1  0
  8 40  1  0
  8 41  1  0
  9 42  1  0
  9 43  1  0
 13 44  1  0
 14 45  1  0
 17 46  1  0
 19 47  1  0
 19 48  1  0
 21 49  1  0
 21 50  1  0
 23 51  1  0
 24 52  1  0
 25 53  1  0
 26 54  1  0
 27 55  1  0
M  CHG  1   4   1
M  END
>  <score>  (3) 
-9.763

$$$$
=
     RDKit          3D

 55 58  0  0  0  0  0  0  0  0999 V2000
   -0.2030   66.3480   68.6740 C   0  0  1  0  0  0  0  0  0  0  0  0
   -1.0470   67.5070   68.1310 C   0  0  0  0  0  0  0  0  0  0  0  0
   -0.6650   67.8860   66.7030 C   0  0  0  0  0  0  0  0  0  0  0  0
    0.8290   68.2050   66.5650 N   0  0  1  0  0  4  0  0  0  0  0  0
    1.6540   67.0220   67.0720 C   0  0  0  0  0  0  0  0  0  0  0  0
    1.2930   66.6480   68.5030 C   0  0  0  0  0  0  0  0  0  0  0  0
    1.1250   68.3750   65.0700 C   0  0  0  0  0  0  0  0  0  0  0  0
   -0.4990   66.0570   70.1580 C   0  0  0  0  0  0  0  0  0  0  0  0
    0.7420   65.7370   70.9990 C   0  0  0  0  0  0  0  0  0  0  0  0
   -0.1850   63.9160   72.2680 O   0  0  0  0  0  0  0  0  0  0  0  0
    0.7040   64.3050   71.5120 C   0  0  0  0  0  0  0  0  0  0  0  0
    1.7650   63.3470   71.0720 C   0  0  0  0  0  0  0  0  0  0  0  0
    2.8750   63.7600   70.3010 C   0  0  0  0  0  0  0  0  0  0  0  0
    3.8510   62.8370   69.9050 C   0  0  0  0  0  0  0  0  0  0  0  0
    3.6890   61.5240   70.2910 C   0  0  0  0  0  0  0  0  0  0  0  0
    2.6120   61.1170   71.0390 C   0  0  0  0  0  0  0  0  0  0  0  0
    1.6330   62.0000   71.4450 C   0  0  0  0  0  0  0  0  0  0  0  0
    2.6420   59.7860   71.3110 O   0  0  0  0  0  0  0  0  0  0  0  0
    3.8640   59.3980   70.6470 C   0  0  0  0  0  0  0  0  0  0  0  0
    4.5330   60.5000   69.9970 O   0  0  0  0  0  0  0  0  0  0  0  0
    1.1570   69.5360   67.2990 C   0  0  0  0  0  0  0  0  0  0  0  0
    2.6110   69.8180   67.5900 C   0  0  0  0  0  0  0  0  0  0  0  0
    3.0150   70.3040   68.8430 C   0  0  0  0  0  0  0  0  0  0  0  0
    4.3610   70.5550   69.1100 C   0  0  0  0  0  0  0  0  0  0  0  0
    5.3210   70.3330   68.1250 C   0  0  0  0  0  0  0  0  0  0  0  0
    4.9360   69.8690   66.8710 C   0  0  0  0  0  0  0  0  0  0  0  0
    3.5900   69.6170   66.6010 C   0  0  0  0  0  0  0  0  0  0  0  0
   -0.4744   65.4552   68.0915 H   0  0  0  0  0  0  0  0  0  0  0  0
   -2.1061   67.2102   68.1464 H   0  0  0  0  0  0  0  0  0  0  0  0
   -0.8645   68.3831   68.7706 H   0  0  0  0  0  0  0  0  0  0  0  0
   -0.9104   67.0461   66.0365 H   0  0  0  0  0  0  0  0  0  0  0  0
   -1.2286   68.7912   66.4330 H   0  0  0  0  0  0  0  0  0  0  0  0
    1.4694   66.1549   66.4207 H   0  0  0  0  0  0  0  0  0  0  0  0
    2.7144   67.3140   67.0538 H   0  0  0  0  0  0  0  0  0  0  0  0
    1.8668   65.7542   68.7892 H   0  0  0  0  0  0  0  0  0  0  0  0
    1.5363   67.5080   69.1442 H   0  0  0  0  0  0  0  0  0  0  0  0
    2.0725   68.9192   64.9434 H   0  0  0  0  0  0  0  0  0  0  0  0
    1.2047   67.3850   64.5971 H   0  0  0  0  0  0  0  0  0  0  0  0
    0.3101   68.9427   64.5971 H   0  0  0  0  0  0  0  0  0  0  0  0
   -0.9897   66.9412   70.5910 H   0  0  0  0  0  0  0  0  0  0  0  0
   -1.1349   65.1598   70.1818 H   0  0  0  0  0  0  0  0  0  0  0  0
    1.6404   65.8724   70.3790 H   0  0  0  0  0  0  0  0  0  0  0  0
    0.7618   66.4166   71.8637 H   0  0  0  0  0  0  0  0  0  0  0  0
    2.9733   64.8160   70.0093 H   0  0  0  0  0  0  0  0  0  0  0  0
    4.7186   63.1498   69.3054 H   0  0  0  0  0  0  0  0  0  0  0  0
    0.7749   61.6590   72.0429 H   0  0  0  0  0  0  0  0  0  0  0  0
    4.5462   58.9667   71.3944 H   0  0  0  0  0  0  0  0  0  0  0  0
    3.5950   58.6722   69.8654 H   0  0  0  0  0  0  0  0  0  0  0  0
    0.7772   70.3601   66.6772 H   0  0  0  0  0  0  0  0  0  0  0  0
    0.6811   69.4424   68.2863 H   0  0  0  0  0  0  0  0  0  0  0  0
    2.2620   70.4891   69.6232 H   0  0  0  0  0  0  0  0  0  0  0  0
    4.6647   70.9285   70.0991 H   0  0  0  0  0  0  0  0  0  0  0  0
    6.3829   70.5245   68.3386 H   0  0  0  0  0  0  0  0  0  0  0  0
    5.6935   69.7005   66.0913 H   0  0  0  0  0  0  0  0  0  0  0  0
    3.2922   69.2577   65.6049 H   0  0  0  0  0  0  0  0  0  0  0  0
  2  1  1  0
  3  2  1  0
  4  3  1  0
  5  4  1  0
  6  5  1  0
  6  1  1  0
  4  7  1  6
  8  1  1  0
  9  8  1  0
 11  9  1  0
 11 10  2  0
 12 11  1  0
 13 12  2  0
 14 13  1  0
 15 14  2  0
 16 15  1  0
 17 16  2  0
 17 12  1  0
 18 16  1  0
 19 18  1  0
 20 19  1  0
 20 15  1  0
 21  4  1  0
 22 21  1  0
 23 22  2  0
 24 23  1  0
 25 24  2  0
 26 25  1  0
 27 26  2  0
 27 22  1  0
  1 28  1  6
  2 29  1  0
  2 30  1  0
  3 31  1  0
  3 32  1  0
  5 33  1  0
  5 34  1  0
  6 35  1  0
  6 36  1  0
  7 37  1  0
  7 38  1  0
  7 39  1  0
  8 40  1  0
  8 41  1  0
  9 42  1  0
  9 43  1  0
 13 44  1  0
 14 45  1  0
 17 46  1  0
 19 47  1  0
 19 48  1  0
 21 49  1  0
 21 50  1  0
 23 51  1  0
 24 52  1  0
 25 53  1  0
 26 54  1  0
 27 55  1  0
M  CHG  1   4   1
M  END
>  <score>  (4) 
-9.695

$$$$
=
     RDKit          3D

 55 58  0  0  0  0  0  0  0  0999 V2000
    0.4210   67.3740   68.9590 C   0  0  1  0  0  0  0  0  0  0  0  0
    1.5350   68.2530   68.3790 C   0  0  0  0  0  0  0  0  0  0  0  0
    1.0720   69.0590   67.1700 C   0  0  0  0  0  0  0  0  0  0  0  0
    0.4720   68.1710   66.0730 N   0  0  1  0  0  4  0  0  0  0  0  0
   -0.6660   67.3330   66.6580 C   0  0  0  0  0  0  0  0  0  0  0  0
   -0.2080   66.5110   67.8560 C   0  0  0  0  0  0  0  0  0  0  0  0
   -0.1310   69.0980   65.0100 C   0  0  0  0  0  0  0  0  0  0  0  0
    0.9270   66.4640   70.0940 C   0  0  0  0  0  0  0  0  0  0  0  0
    0.2250   65.1030   70.1720 C   0  0  0  0  0  0  0  0  0  0  0  0
   -0.0500   64.7880   72.5410 O   0  0  0  0  0  0  0  0  0  0  0  0
    0.5000   64.4200   71.5040 C   0  0  0  0  0  0  0  0  0  0  0  0
    1.4500   63.2660   71.5460 C   0  0  0  0  0  0  0  0  0  0  0  0
    1.0400   61.9700   71.9340 C   0  0  0  0  0  0  0  0  0  0  0  0
    1.9560   60.9120   71.9640 C   0  0  0  0  0  0  0  0  0  0  0  0
    3.2590   61.1780   71.6030 C   0  0  0  0  0  0  0  0  0  0  0  0
    3.6640   62.4350   71.2280 C   0  0  0  0  0  0  0  0  0  0  0  0
    2.7870   63.4990   71.1880 C   0  0  0  0  0  0  0  0  0  0  0  0
    4.9850   62.4830   70.9140 O   0  0  0  0  0  0  0  0  0  0  0  0
    5.3700   61.1090   71.1360 C   0  0  0  0  0  0  0  0  0  0  0  0
    4.2750   60.2760   71.5750 O   0  0  0  0  0  0  0  0  0  0  0  0
    1.5880   67.3100   65.4170 C   0  0  0  0  0  0  0  0  0  0  0  0
    2.7400   68.0500   64.7810 C   0  0  0  0  0  0  0  0  0  0  0  0
    2.9100   68.0600   63.3880 C   0  0  0  0  0  0  0  0  0  0  0  0
    3.9720   68.7520   62.8050 C   0  0  0  0  0  0  0  0  0  0  0  0
    4.8840   69.4350   63.6060 C   0  0  0  0  0  0  0  0  0  0  0  0
    4.7400   69.4200   64.9900 C   0  0  0  0  0  0  0  0  0  0  0  0
    3.6790   68.7290   65.5770 C   0  0  0  0  0  0  0  0  0  0  0  0
   -0.3350   68.0528   69.3805 H   0  0  0  0  0  0  0  0  0  0  0  0
    1.8762   68.9503   69.1583 H   0  0  0  0  0  0  0  0  0  0  0  0
    2.3468   67.5889   68.0475 H   0  0  0  0  0  0  0  0  0  0  0  0
    0.3092   69.7809   67.4973 H   0  0  0  0  0  0  0  0  0  0  0  0
    1.9515   69.5672   66.7478 H   0  0  0  0  0  0  0  0  0  0  0  0
   -1.4756   68.0059   66.9770 H   0  0  0  0  0  0  0  0  0  0  0  0
   -1.0123   66.6374   65.8794 H   0  0  0  0  0  0  0  0  0  0  0  0
   -1.0778   65.9835   68.2745 H   0  0  0  0  0  0  0  0  0  0  0  0
    0.5616   65.8086   67.5032 H   0  0  0  0  0  0  0  0  0  0  0  0
   -0.6670   69.9220   65.5036 H   0  0  0  0  0  0  0  0  0  0  0  0
    0.6737   69.5081   64.3821 H   0  0  0  0  0  0  0  0  0  0  0  0
   -0.8321   68.5286   64.3821 H   0  0  0  0  0  0  0  0  0  0  0  0
    2.0022   66.2888   69.9417 H   0  0  0  0  0  0  0  0  0  0  0  0
    0.7083   66.9858   71.0373 H   0  0  0  0  0  0  0  0  0  0  0  0
   -0.8593   65.2512   70.0614 H   0  0  0  0  0  0  0  0  0  0  0  0
    0.6122   64.4635   69.3650 H   0  0  0  0  0  0  0  0  0  0  0  0
   -0.0084   61.7913   72.2149 H   0  0  0  0  0  0  0  0  0  0  0  0
    1.6457   59.9008   72.2660 H   0  0  0  0  0  0  0  0  0  0  0  0
    3.1255   64.5006   70.8845 H   0  0  0  0  0  0  0  0  0  0  0  0
    5.7650   60.6999   70.1944 H   0  0  0  0  0  0  0  0  0  0  0  0
    6.1248   61.1058   71.9362 H   0  0  0  0  0  0  0  0  0  0  0  0
    2.0042   66.6558   66.1973 H   0  0  0  0  0  0  0  0  0  0  0  0
    1.0928   66.7848   64.5870 H   0  0  0  0  0  0  0  0  0  0  0  0
    2.1984   67.5165   62.7490 H   0  0  0  0  0  0  0  0  0  0  0  0
    4.0892   68.7582   61.7113 H   0  0  0  0  0  0  0  0  0  0  0  0
    5.7172   69.9857   63.1451 H   0  0  0  0  0  0  0  0  0  0  0  0
    5.4641   69.9540   65.6228 H   0  0  0  0  0  0  0  0  0  0  0  0
    3.5766   68.7155   66.6721 H   0  0  0  0  0  0  0  0  0  0  0  0
  2  1  1  0
  3  2  1  0
  4  3  1  0
  5  4  1  0
  6  5  1  0
  6  1  1  0
  4  7  1  6
  8  1  1  0
  9  8  1  0
 11  9  1  0
 11 10  2  0
 12 11  1  0
 13 12  2  0
 14 13  1  0
 15 14  2  0
 16 15  1  0
 17 16  2  0
 17 12  1  0
 18 16  1  0
 19 18  1  0
 20 19  1  0
 20 15  1  0
 21  4  1  0
 22 21  1  0
 23 22  2  0
 24 23  1  0
 25 24  2  0
 26 25  1  0
 27 26  2  0
 27 22  1  0
  1 28  1  1
  2 29  1  0
  2 30  1  0
  3 31  1  0
  3 32  1  0
  5 33  1  0
  5 34  1  0
  6 35  1  0
  6 36  1  0
  7 37  1  0
  7 38  1  0
  7 39  1  0
  8 40  1  0
  8 41  1  0
  9 42  1  0
  9 43  1  0
 13 44  1  0
 14 45  1  0
 17 46  1  0
 19 47  1  0
 19 48  1  0
 21 49  1  0
 21 50  1  0
 23 51  1  0
 24 52  1  0
 25 53  1  0
 26 54  1  0
 27 55  1  0
M  CHG  1   4   1
M  END
>  <score>  (5) 
-9.667

$$$$
=
     RDKit          3D

 55 58  0  0  0  0  0  0  0  0999 V2000
   -0.7150   61.1680   74.3800 C   0  0  1  0  0  0  0  0  0  0  0  0
    0.1730   62.2340   75.0320 C   0  0  0  0  0  0  0  0  0  0  0  0
    0.1640   63.5510   74.2630 C   0  0  0  0  0  0  0  0  0  0  0  0
    0.5480   63.3670   72.7890 N   0  0  1  0  0  4  0  0  0  0  0  0
   -0.3760   62.3340   72.1440 C   0  0  0  0  0  0  0  0  0  0  0  0
   -0.3590   61.0090   72.8950 C   0  0  0  0  0  0  0  0  0  0  0  0
    0.3130   64.7090   72.0830 C   0  0  0  0  0  0  0  0  0  0  0  0
   -0.5990   59.8020   75.0830 C   0  0  0  0  0  0  0  0  0  0  0  0
    0.7820   59.5180   75.6860 C   0  0  0  0  0  0  0  0  0  0  0  0
    1.3350   57.2210   75.2350 O   0  0  0  0  0  0  0  0  0  0  0  0
    1.4910   58.4020   74.9310 C   0  0  0  0  0  0  0  0  0  0  0  0
    2.3840   58.7550   73.7860 C   0  0  0  0  0  0  0  0  0  0  0  0
    2.2580   58.1390   72.5190 C   0  0  0  0  0  0  0  0  0  0  0  0
    3.1130   58.4920   71.4680 C   0  0  0  0  0  0  0  0  0  0  0  0
    4.0730   59.4510   71.7120 C   0  0  0  0  0  0  0  0  0  0  0  0
    4.2010   60.0490   72.9400 C   0  0  0  0  0  0  0  0  0  0  0  0
    3.3760   59.7250   73.9970 C   0  0  0  0  0  0  0  0  0  0  0  0
    5.2070   60.9630   72.9690 O   0  0  0  0  0  0  0  0  0  0  0  0
    5.7000   60.8720   71.6160 C   0  0  0  0  0  0  0  0  0  0  0  0
    4.9820   59.9110   70.8120 O   0  0  0  0  0  0  0  0  0  0  0  0
    2.0530   62.9950   72.6750 C   0  0  0  0  0  0  0  0  0  0  0  0
    2.6260   62.8700   71.2840 C   0  0  0  0  0  0  0  0  0  0  0  0
    3.7080   63.6640   70.8750 C   0  0  0  0  0  0  0  0  0  0  0  0
    4.2380   63.5380   69.5910 C   0  0  0  0  0  0  0  0  0  0  0  0
    3.6890   62.6240   68.6950 C   0  0  0  0  0  0  0  0  0  0  0  0
    2.6040   61.8420   69.0790 C   0  0  0  0  0  0  0  0  0  0  0  0
    2.0710   61.9650   70.3620 C   0  0  0  0  0  0  0  0  0  0  0  0
   -1.7544   61.5137   74.4804 H   0  0  0  0  0  0  0  0  0  0  0  0
   -0.1905   62.4194   76.0535 H   0  0  0  0  0  0  0  0  0  0  0  0
    1.2054   61.8543   75.0330 H   0  0  0  0  0  0  0  0  0  0  0  0
   -0.8461   63.9836   74.3141 H   0  0  0  0  0  0  0  0  0  0  0  0
    0.9093   64.2154   74.7246 H   0  0  0  0  0  0  0  0  0  0  0  0
   -1.4030   62.7281   72.1414 H   0  0  0  0  0  0  0  0  0  0  0  0
   -0.0191   62.1499   71.1199 H   0  0  0  0  0  0  0  0  0  0  0  0
   -1.0881   60.3302   72.4285 H   0  0  0  0  0  0  0  0  0  0  0  0
    0.6633   60.6068   72.8385 H   0  0  0  0  0  0  0  0  0  0  0  0
    0.1745   65.4997   72.8351 H   0  0  0  0  0  0  0  0  0  0  0  0
    1.1827   64.9496   71.4539 H   0  0  0  0  0  0  0  0  0  0  0  0
   -0.5867   64.6398   71.4539 H   0  0  0  0  0  0  0  0  0  0  0  0
   -1.3424   59.7672   75.8930 H   0  0  0  0  0  0  0  0  0  0  0  0
   -0.7700   59.0357   74.3126 H   0  0  0  0  0  0  0  0  0  0  0  0
    1.3921   60.4318   75.6327 H   0  0  0  0  0  0  0  0  0  0  0  0
    0.6486   59.2026   76.7313 H   0  0  0  0  0  0  0  0  0  0  0  0
    1.4819   57.3763   72.3581 H   0  0  0  0  0  0  0  0  0  0  0  0
    3.0217   58.0192   70.4790 H   0  0  0  0  0  0  0  0  0  0  0  0
    3.4922   60.2125   74.9762 H   0  0  0  0  0  0  0  0  0  0  0  0
    5.6085   61.8611   71.1434 H   0  0  0  0  0  0  0  0  0  0  0  0
    6.7458   60.5354   71.6712 H   0  0  0  0  0  0  0  0  0  0  0  0
    2.6273   63.7715   73.2016 H   0  0  0  0  0  0  0  0  0  0  0  0
    2.1308   61.9864   73.1070 H   0  0  0  0  0  0  0  0  0  0  0  0
    4.1428   64.3934   71.5742 H   0  0  0  0  0  0  0  0  0  0  0  0
    5.0911   64.1616   69.2855 H   0  0  0  0  0  0  0  0  0  0  0  0
    4.1125   62.5204   67.6851 H   0  0  0  0  0  0  0  0  0  0  0  0
    2.1656   61.1252   68.3691 H   0  0  0  0  0  0  0  0  0  0  0  0
    1.2086   61.3484   70.6553 H   0  0  0  0  0  0  0  0  0  0  0  0
  2  1  1  0
  3  2  1  0
  4  3  1  0
  5  4  1  0
  6  5  1  0
  6  1  1  0
  4  7  1  6
  8  1  1  0
  9  8  1  0
 11  9  1  0
 11 10  2  0
 12 11  1  0
 13 12  2  0
 14 13  1  0
 15 14  2  0
 16 15  1  0
 17 16  2  0
 17 12  1  0
 18 16  1  0
 19 18  1  0
 20 19  1  0
 20 15  1  0
 21  4  1  0
 22 21  1  0
 23 22  2  0
 24 23  1  0
 25 24  2  0
 26 25  1  0
 27 26  2  0
 27 22  1  0
  1 28  1  6
  2 29  1  0
  2 30  1  0
  3 31  1  0
  3 32  1  0
  5 33  1  0
  5 34  1  0
  6 35  1  0
  6 36  1  0
  7 37  1  0
  7 38  1  0
  7 39  1  0
  8 40  1  0
  8 41  1  0
  9 42  1  0
  9 43  1  0
 13 44  1  0
 14 45  1  0
 17 46  1  0
 19 47  1  0
 19 48  1  0
 21 49  1  0
 21 50  1  0
 23 51  1  0
 24 52  1  0
 25 53  1  0
 26 54  1  0
 27 55  1  0
M  CHG  1   4   1
M  END
>  <score>  (6) 
-9.657

$$$$
=
     RDKit          3D

 55 58  0  0  0  0  0  0  0  0999 V2000
    3.1910   63.3380   71.4130 C   0  0  1  0  0  0  0  0  0  0  0  0
    2.1900   62.6860   72.3740 C   0  0  0  0  0  0  0  0  0  0  0  0
    2.8430   61.6450   73.2770 C   0  0  0  0  0  0  0  0  0  0  0  0
    3.5920   60.5700   72.4800 N   0  0  1  0  0  4  0  0  0  0  0  0
    4.6150   61.2350   71.5600 C   0  0  0  0  0  0  0  0  0  0  0  0
    3.9700   62.2640   70.6410 C   0  0  0  0  0  0  0  0  0  0  0  0
    4.3620   59.7050   73.4860 C   0  0  0  0  0  0  0  0  0  0  0  0
    2.5050   64.2900   70.4150 C   0  0  0  0  0  0  0  0  0  0  0  0
    0.9750   64.1990   70.4060 C   0  0  0  0  0  0  0  0  0  0  0  0
   -0.0850   65.9200   71.7100 O   0  0  0  0  0  0  0  0  0  0  0  0
    0.3420   65.5680   70.6120 C   0  0  0  0  0  0  0  0  0  0  0  0
    0.2540   66.5090   69.4540 C   0  0  0  0  0  0  0  0  0  0  0  0
    1.3260   67.3570   69.0930 C   0  0  0  0  0  0  0  0  0  0  0  0
    1.2100   68.2280   68.0020 C   0  0  0  0  0  0  0  0  0  0  0  0
    0.0230   68.2280   67.3020 C   0  0  0  0  0  0  0  0  0  0  0  0
   -1.0220   67.4090   67.6500 C   0  0  0  0  0  0  0  0  0  0  0  0
   -0.9410   66.5400   68.7180 C   0  0  0  0  0  0  0  0  0  0  0  0
   -2.0980   67.5650   66.8340 O   0  0  0  0  0  0  0  0  0  0  0  0
   -1.6110   68.5800   65.9290 C   0  0  0  0  0  0  0  0  0  0  0  0
   -0.2620   69.0050   66.2240 O   0  0  0  0  0  0  0  0  0  0  0  0
    2.5780   59.6720   71.7160 C   0  0  0  0  0  0  0  0  0  0  0  0
    1.6200   58.8570   72.5510 C   0  0  0  0  0  0  0  0  0  0  0  0
    0.5490   59.4660   73.2230 C   0  0  0  0  0  0  0  0  0  0  0  0
   -0.3380   58.7060   73.9860 C   0  0  0  0  0  0  0  0  0  0  0  0
   -0.1620   57.3290   74.0960 C   0  0  0  0  0  0  0  0  0  0  0  0
    0.9050   56.7110   73.4500 C   0  0  0  0  0  0  0  0  0  0  0  0
    1.7940   57.4680   72.6860 C   0  0  0  0  0  0  0  0  0  0  0  0
    3.8835   63.9322   72.0273 H   0  0  0  0  0  0  0  0  0  0  0  0
    1.7436   63.4696   73.0039 H   0  0  0  0  0  0  0  0  0  0  0  0
    1.4289   62.1732   71.7676 H   0  0  0  0  0  0  0  0  0  0  0  0
    3.5562   62.1523   73.9433 H   0  0  0  0  0  0  0  0  0  0  0  0
    2.0452   61.1463   73.8469 H   0  0  0  0  0  0  0  0  0  0  0  0
    5.3749   61.7366   72.1772 H   0  0  0  0  0  0  0  0  0  0  0  0
    5.0665   60.4531   70.9316 H   0  0  0  0  0  0  0  0  0  0  0  0
    4.7593   62.7554   70.0532 H   0  0  0  0  0  0  0  0  0  0  0  0
    3.2550   61.7328   69.9955 H   0  0  0  0  0  0  0  0  0  0  0  0
    4.0938   60.0063   74.5094 H   0  0  0  0  0  0  0  0  0  0  0  0
    4.1013   58.6471   73.3350 H   0  0  0  0  0  0  0  0  0  0  0  0
    5.4430   59.8414   73.3350 H   0  0  0  0  0  0  0  0  0  0  0  0
    2.7872   65.3214   70.6732 H   0  0  0  0  0  0  0  0  0  0  0  0
    2.8441   63.9922   69.4118 H   0  0  0  0  0  0  0  0  0  0  0  0
    0.6452   63.7929   69.4384 H   0  0  0  0  0  0  0  0  0  0  0  0
    0.6598   63.5415   71.2296 H   0  0  0  0  0  0  0  0  0  0  0  0
    2.2597   67.3327   69.6741 H   0  0  0  0  0  0  0  0  0  0  0  0
    2.0394   68.8904   67.7135 H   0  0  0  0  0  0  0  0  0  0  0  0
   -1.7876   65.8905   68.9851 H   0  0  0  0  0  0  0  0  0  0  0  0
   -1.6348   68.1768   64.9058 H   0  0  0  0  0  0  0  0  0  0  0  0
   -2.2629   69.4588   66.0417 H   0  0  0  0  0  0  0  0  0  0  0  0
    1.9782   60.3268   71.0669 H   0  0  0  0  0  0  0  0  0  0  0  0
    3.1950   58.9322   71.1850 H   0  0  0  0  0  0  0  0  0  0  0  0
    0.4073   60.5542   73.1473 H   0  0  0  0  0  0  0  0  0  0  0  0
   -1.1776   59.1952   74.5014 H   0  0  0  0  0  0  0  0  0  0  0  0
   -0.8656   56.7301   74.6929 H   0  0  0  0  0  0  0  0  0  0  0  0
    1.0476   55.6242   73.5419 H   0  0  0  0  0  0  0  0  0  0  0  0
    2.6390   56.9736   72.1845 H   0  0  0  0  0  0  0  0  0  0  0  0
  2  1  1  0
  3  2  1  0
  4  3  1  0
  5  4  1  0
  6  5  1  0
  6  1  1  0
  4  7  1  1
  8  1  1  0
  9  8  1  0
 11  9  1  0
 11 10  2  0
 12 11  1  0
 13 12  2  0
 14 13  1  0
 15 14  2  0
 16 15  1  0
 17 16  2  0
 17 12  1  0
 18 16  1  0
 19 18  1  0
 20 19  1  0
 20 15  1  0
 21  4  1  0
 22 21  1  0
 23 22  2  0
 24 23  1  0
 25 24  2  0
 26 25  1  0
 27 26  2  0
 27 22  1  0
  1 28  1  1
  2 29  1  0
  2 30  1  0
  3 31  1  0
  3 32  1  0
  5 33  1  0
  5 34  1  0
  6 35  1  0
  6 36  1  0
  7 37  1  0
  7 38  1  0
  7 39  1  0
  8 40  1  0
  8 41  1  0
  9 42  1  0
  9 43  1  0
 13 44  1  0
 14 45  1  0
 17 46  1  0
 19 47  1  0
 19 48  1  0
 21 49  1  0
 21 50  1  0
 23 51  1  0
 24 52  1  0
 25 53  1  0
 26 54  1  0
 27 55  1  0
M  CHG  1   4   1
M  END
>  <score>  (7) 
-9.583

$$$$
=
     RDKit          3D

 55 58  0  0  0  0  0  0  0  0999 V2000
    0.9970   66.3860   69.6480 C   0  0  1  0  0  0  0  0  0  0  0  0
   -0.2450   65.6960   70.2240 C   0  0  0  0  0  0  0  0  0  0  0  0
    0.0160   65.0750   71.5920 C   0  0  0  0  0  0  0  0  0  0  0  0
    1.2030   64.1040   71.5740 N   0  0  1  0  0  4  0  0  0  0  0  0
    2.4430   64.8210   71.0380 C   0  0  0  0  0  0  0  0  0  0  0  0
    2.1970   65.4290   69.6630 C   0  0  0  0  0  0  0  0  0  0  0  0
    1.4890   63.7010   73.0260 C   0  0  0  0  0  0  0  0  0  0  0  0
    0.7680   66.8960   68.2120 C   0  0  0  0  0  0  0  0  0  0  0  0
    0.8400   68.4200   68.0640 C   0  0  0  0  0  0  0  0  0  0  0  0
    0.9420   68.7780   65.6880 O   0  0  0  0  0  0  0  0  0  0  0  0
    1.5310   68.8130   66.7670 C   0  0  0  0  0  0  0  0  0  0  0  0
    2.9560   69.2660   66.8110 C   0  0  0  0  0  0  0  0  0  0  0  0
    3.8190   69.1370   65.6990 C   0  0  0  0  0  0  0  0  0  0  0  0
    5.1480   69.5700   65.7750 C   0  0  0  0  0  0  0  0  0  0  0  0
    5.5790   70.1210   66.9620 C   0  0  0  0  0  0  0  0  0  0  0  0
    4.7460   70.2460   68.0460 C   0  0  0  0  0  0  0  0  0  0  0  0
    3.4320   69.8300   68.0050 C   0  0  0  0  0  0  0  0  0  0  0  0
    5.3660   70.8120   69.1150 O   0  0  0  0  0  0  0  0  0  0  0  0
    6.6900   71.0290   68.5810 C   0  0  0  0  0  0  0  0  0  0  0  0
    6.8300   70.5910   67.2120 O   0  0  0  0  0  0  0  0  0  0  0  0
    0.8350   62.8310   70.7610 C   0  0  0  0  0  0  0  0  0  0  0  0
    1.9240   61.8040   70.5640 C   0  0  0  0  0  0  0  0  0  0  0  0
    2.1800   60.8270   71.5390 C   0  0  0  0  0  0  0  0  0  0  0  0
    3.1820   59.8760   71.3480 C   0  0  0  0  0  0  0  0  0  0  0  0
    3.9490   59.8930   70.1850 C   0  0  0  0  0  0  0  0  0  0  0  0
    3.7200   60.8650   69.2160 C   0  0  0  0  0  0  0  0  0  0  0  0
    2.7190   61.8190   69.4050 C   0  0  0  0  0  0  0  0  0  0  0  0
    1.2043   67.2561   70.2882 H   0  0  0  0  0  0  0  0  0  0  0  0
   -1.0491   66.4403   70.3217 H   0  0  0  0  0  0  0  0  0  0  0  0
   -0.5271   64.8852   69.5363 H   0  0  0  0  0  0  0  0  0  0  0  0
    0.2284   65.8799   72.3111 H   0  0  0  0  0  0  0  0  0  0  0  0
   -0.8801   64.5054   71.8793 H   0  0  0  0  0  0  0  0  0  0  0  0
    2.7200   65.6235   71.7374 H   0  0  0  0  0  0  0  0  0  0  0  0
    3.2512   64.0807   70.9441 H   0  0  0  0  0  0  0  0  0  0  0  0
    3.0955   65.9854   69.3578 H   0  0  0  0  0  0  0  0  0  0  0  0
    1.9753   64.6051   68.9687 H   0  0  0  0  0  0  0  0  0  0  0  0
    0.9892   64.4053   73.7073 H   0  0  0  0  0  0  0  0  0  0  0  0
    1.1090   62.6845   73.2060 H   0  0  0  0  0  0  0  0  0  0  0  0
    2.5739   63.7241   73.2060 H   0  0  0  0  0  0  0  0  0  0  0  0
    1.5352   66.4503   67.5618 H   0  0  0  0  0  0  0  0  0  0  0  0
   -0.2541   66.6007   67.9325 H   0  0  0  0  0  0  0  0  0  0  0  0
   -0.1809   68.8296   68.0654 H   0  0  0  0  0  0  0  0  0  0  0  0
    1.4208   68.8254   68.9056 H   0  0  0  0  0  0  0  0  0  0  0  0
    3.4430   68.6925   64.7657 H   0  0  0  0  0  0  0  0  0  0  0  0
    5.8265   69.4734   64.9146 H   0  0  0  0  0  0  0  0  0  0  0  0
    2.7764   69.9369   68.8818 H   0  0  0  0  0  0  0  0  0  0  0  0
    6.9142   72.1049   68.6285 H   0  0  0  0  0  0  0  0  0  0  0  0
    7.3887   70.4342   69.1876 H   0  0  0  0  0  0  0  0  0  0  0  0
    0.0016   62.3352   71.2803 H   0  0  0  0  0  0  0  0  0  0  0  0
    0.6007   63.1959   69.7501 H   0  0  0  0  0  0  0  0  0  0  0  0
    1.5840   60.8114   72.4634 H   0  0  0  0  0  0  0  0  0  0  0  0
    3.3671   59.1113   72.1167 H   0  0  0  0  0  0  0  0  0  0  0  0
    4.7350   59.1386   70.0329 H   0  0  0  0  0  0  0  0  0  0  0  0
    4.3287   60.8815   68.2999 H   0  0  0  0  0  0  0  0  0  0  0  0
    2.5505   62.5904   68.6392 H   0  0  0  0  0  0  0  0  0  0  0  0
  2  1  1  0
  3  2  1  0
  4  3  1  0
  5  4  1  0
  6  5  1  0
  6  1  1  0
  4  7  1  1
  8  1  1  0
  9  8  1  0
 11  9  1  0
 11 10  2  0
 12 11  1  0
 13 12  2  0
 14 13  1  0
 15 14  2  0
 16 15  1  0
 17 16  2  0
 17 12  1  0
 18 16  1  0
 19 18  1  0
 20 19  1  0
 20 15  1  0
 21  4  1  0
 22 21  1  0
 23 22  2  0
 24 23  1  0
 25 24  2  0
 26 25  1  0
 27 26  2  0
 27 22  1  0
  1 28  1  1
  2 29  1  0
  2 30  1  0
  3 31  1  0
  3 32  1  0
  5 33  1  0
  5 34  1  0
  6 35  1  0
  6 36  1  0
  7 37  1  0
  7 38  1  0
  7 39  1  0
  8 40  1  0
  8 41  1  0
  9 42  1  0
  9 43  1  0
 13 44  1  0
 14 45  1  0
 17 46  1  0
 19 47  1  0
 19 48  1  0
 21 49  1  0
 21 50  1  0
 23 51  1  0
 24 52  1  0
 25 53  1  0
 26 54  1  0
 27 55  1  0
M  CHG  1   4   1
M  END
>  <score>  (8) 
-9.244

$$$$
=
     RDKit          3D

 55 58  0  0  0  0  0  0  0  0999 V2000
    1.3160   58.6270   74.2510 C   0  0  1  0  0  0  0  0  0  0  0  0
    2.0750   59.5150   75.2440 C   0  0  0  0  0  0  0  0  0  0  0  0
    1.1880   60.5960   75.8540 C   0  0  0  0  0  0  0  0  0  0  0  0
    0.5030   61.4580   74.7870 N   0  0  1  0  0  4  0  0  0  0  0  0
   -0.2840   60.5600   73.8310 C   0  0  0  0  0  0  0  0  0  0  0  0
    0.5970   59.4880   73.2030 C   0  0  0  0  0  0  0  0  0  0  0  0
   -0.5020   62.3670   75.5060 C   0  0  0  0  0  0  0  0  0  0  0  0
    2.2440   57.6240   73.5390 C   0  0  0  0  0  0  0  0  0  0  0  0
    1.9450   57.4370   72.0470 C   0  0  0  0  0  0  0  0  0  0  0  0
    3.7450   56.8420   70.5660 O   0  0  0  0  0  0  0  0  0  0  0  0
    3.1750   57.7290   71.2000 C   0  0  0  0  0  0  0  0  0  0  0  0
    3.6910   59.1310   71.1280 C   0  0  0  0  0  0  0  0  0  0  0  0
    4.4240   59.7150   72.1860 C   0  0  0  0  0  0  0  0  0  0  0  0
    4.8920   61.0310   72.0870 C   0  0  0  0  0  0  0  0  0  0  0  0
    4.6130   61.7280   70.9310 C   0  0  0  0  0  0  0  0  0  0  0  0
    3.8990   61.1660   69.9010 C   0  0  0  0  0  0  0  0  0  0  0  0
    3.4240   59.8740   69.9670 C   0  0  0  0  0  0  0  0  0  0  0  0
    3.7350   62.0210   68.8580 O   0  0  0  0  0  0  0  0  0  0  0  0
    4.4260   63.1900   69.3470 C   0  0  0  0  0  0  0  0  0  0  0  0
    4.9870   63.0080   70.6660 O   0  0  0  0  0  0  0  0  0  0  0  0
    1.5560   62.3440   74.0630 C   0  0  0  0  0  0  0  0  0  0  0  0
    1.0870   63.1200   72.8570 C   0  0  0  0  0  0  0  0  0  0  0  0
    1.2620   62.6130   71.5600 C   0  0  0  0  0  0  0  0  0  0  0  0
    0.8190   63.3320   70.4490 C   0  0  0  0  0  0  0  0  0  0  0  0
    0.2030   64.5700   70.6170 C   0  0  0  0  0  0  0  0  0  0  0  0
    0.0380   65.0950   71.8960 C   0  0  0  0  0  0  0  0  0  0  0  0
    0.4800   64.3790   73.0090 C   0  0  0  0  0  0  0  0  0  0  0  0
    0.5793   58.0541   74.8333 H   0  0  0  0  0  0  0  0  0  0  0  0
    2.4688   58.8829   76.0535 H   0  0  0  0  0  0  0  0  0  0  0  0
    2.8847   60.0168   74.6939 H   0  0  0  0  0  0  0  0  0  0  0  0
    0.4142   60.1132   76.4689 H   0  0  0  0  0  0  0  0  0  0  0  0
    1.8285   61.2551   76.4584 H   0  0  0  0  0  0  0  0  0  0  0  0
   -1.0955   60.0709   74.3897 H   0  0  0  0  0  0  0  0  0  0  0  0
   -0.6826   61.1901   73.0223 H   0  0  0  0  0  0  0  0  0  0  0  0
   -0.0324   58.8342   72.5815 H   0  0  0  0  0  0  0  0  0  0  0  0
    1.3669   59.9974   72.6049 H   0  0  0  0  0  0  0  0  0  0  0  0
   -0.3817   62.2582   76.5940 H   0  0  0  0  0  0  0  0  0  0  0  0
   -0.3200   63.4134   75.2198 H   0  0  0  0  0  0  0  0  0  0  0  0
   -1.5249   62.0812   75.2198 H   0  0  0  0  0  0  0  0  0  0  0  0
    3.2796   57.9808   73.6407 H   0  0  0  0  0  0  0  0  0  0  0  0
    2.0791   56.6476   74.0180 H   0  0  0  0  0  0  0  0  0  0  0  0
    1.6267   56.3987   71.8719 H   0  0  0  0  0  0  0  0  0  0  0  0
    1.1488   58.1396   71.7599 H   0  0  0  0  0  0  0  0  0  0  0  0
    4.6286   59.1306   73.0952 H   0  0  0  0  0  0  0  0  0  0  0  0
    5.4637   61.4935   72.9051 H   0  0  0  0  0  0  0  0  0  0  0  0
    2.8525   59.4377   69.1345 H   0  0  0  0  0  0  0  0  0  0  0  0
    5.2421   63.4311   68.6500 H   0  0  0  0  0  0  0  0  0  0  0  0
    3.6875   64.0025   69.4145 H   0  0  0  0  0  0  0  0  0  0  0  0
    1.9391   63.0695   74.7957 H   0  0  0  0  0  0  0  0  0  0  0  0
    2.3042   61.6376   73.6742 H   0  0  0  0  0  0  0  0  0  0  0  0
    1.7533   61.6391   71.4178 H   0  0  0  0  0  0  0  0  0  0  0  0
    0.9566   62.9202   69.4383 H   0  0  0  0  0  0  0  0  0  0  0  0
   -0.1525   65.1319   69.7407 H   0  0  0  0  0  0  0  0  0  0  0  0
   -0.4416   66.0759   72.0292 H   0  0  0  0  0  0  0  0  0  0  0  0
    0.3523   64.8039   74.0156 H   0  0  0  0  0  0  0  0  0  0  0  0
  2  1  1  0
  3  2  1  0
  4  3  1  0
  5  4  1  0
  6  5  1  0
  6  1  1  0
  4  7  1  1
  8  1  1  0
  9  8  1  0
 11  9  1  0
 11 10  2  0
 12 11  1  0
 13 12  2  0
 14 13  1  0
 15 14  2  0
 16 15  1  0
 17 16  2  0
 17 12  1  0
 18 16  1  0
 19 18  1  0
 20 19  1  0
 20 15  1  0
 21  4  1  0
 22 21  1  0
 23 22  2  0
 24 23  1  0
 25 24  2  0
 26 25  1  0
 27 26  2  0
 27 22  1  0
  1 28  1  1
  2 29  1  0
  2 30  1  0
  3 31  1  0
  3 32  1  0
  5 33  1  0
  5 34  1  0
  6 35  1  0
  6 36  1  0
  7 37  1  0
  7 38  1  0
  7 39  1  0
  8 40  1  0
  8 41  1  0
  9 42  1  0
  9 43  1  0
 13 44  1  0
 14 45  1  0
 17 46  1  0
 19 47  1  0
 19 48  1  0
 21 49  1  0
 21 50  1  0
 23 51  1  0
 24 52  1  0
 25 53  1  0
 26 54  1  0
 27 55  1  0
M  CHG  1   4   1
M  END
>  <score>  (9) 
-9.005

$$$$
