=
     RDKit          3D

164172  0  0  0  0  0  0  0  0999 V2000
   -1.0820   63.2680   75.7520 C   0  0  0  0  0  0  0  0  0  0  0  0
   -0.1280   63.9870   74.7850 C   0  0  0  0  0  0  0  0  0  0  0  0
    0.7920   64.6690   75.2370 O   0  0  0  0  0  0  0  0  0  0  0  0
   -0.3390   63.7160   73.4520 N   0  0  0  0  0  0  0  0  0  0  0  0
    0.3550   64.2280   72.3250 C   0  0  0  0  0  0  0  0  0  0  0  0
    0.1040   65.4960   71.7960 C   0  0  0  0  0  0  0  0  0  0  0  0
    0.8120   65.9450   70.6900 C   0  0  0  0  0  0  0  0  0  0  0  0
    1.7730   65.1240   70.1100 C   0  0  0  0  0  0  0  0  0  0  0  0
    2.0470   63.8290   70.6190 C   0  0  0  0  0  0  0  0  0  0  0  0
    1.3140   63.3820   71.7380 C   0  0  0  0  0  0  0  0  0  0  0  0
    1.4920   62.1500   72.2540 N   0  0  0  0  0  0  0  0  0  0  0  0
    2.4030   61.3110   71.7090 C   0  0  0  0  0  0  0  0  0  0  0  0
    2.4840   59.9540   72.3590 C   0  0  0  0  0  0  0  0  0  0  0  0
    3.7220   59.1560   71.9660 C   0  0  0  0  0  0  0  0  0  0  0  0
    3.9180   59.2170   70.4600 C   0  0  0  0  0  0  0  0  0  0  0  0
    4.1570   60.6600   70.0210 C   0  0  0  0  0  0  0  0  0  0  0  0
    3.1740   61.6470   70.5980 C   0  0  0  0  0  0  0  0  0  0  0  0
    3.0150   62.9370   70.0600 C   0  0  0  0  0  0  0  0  0  0  0  0
    3.8710   63.3450   68.9730 N   0  0  0  0  0  0  0  0  0  0  0  0
    3.4060   62.7930   67.6880 C   0  0  0  0  0  0  0  0  0  0  0  0
    4.1740   63.3950   66.5090 C   0  0  0  0  0  0  0  0  0  0  0  0
    3.3790   63.5710   65.2080 C   0  0  0  0  0  0  0  0  0  0  0  0
    3.2980   65.0140   64.7270 C   0  0  0  0  0  0  0  0  0  0  0  0
    4.4380   65.3350   63.7790 N   0  0  1  0  0  4  0  0  0  0  0  0
    5.0730   64.0800   63.2380 C   0  0  0  0  0  0  0  0  0  0  0  0
    4.1600   66.3590   62.6880 C   0  0  0  0  0  0  0  0  0  0  0  0
    5.0240   67.6090   62.8110 C   0  0  0  0  0  0  0  0  0  0  0  0
    5.1500   68.0510   64.2710 C   0  0  0  0  0  0  0  0  0  0  0  0
    4.4000   69.2950   64.5070 N   0  0  0  0  0  0  0  0  0  0  0  0
    3.9050   69.3800   65.8520 C   0  0  0  0  0  0  0  0  0  0  0  0
    4.6610   70.0720   66.8070 C   0  0  0  0  0  0  0  0  0  0  0  0
    6.0220   70.6600   66.5610 C   0  0  0  0  0  0  0  0  0  0  0  0
    6.9730   70.3890   67.7310 C   0  0  0  0  0  0  0  0  0  0  0  0
    6.3550   70.5900   69.1220 C   0  0  0  0  0  0  0  0  0  0  0  0
    4.8920   71.0250   69.1010 C   0  0  0  0  0  0  0  0  0  0  0  0
    4.1150   70.2380   68.0790 C   0  0  0  0  0  0  0  0  0  0  0  0
    2.9120   69.7550   68.4440 N   0  0  0  0  0  0  0  0  0  0  0  0
    2.2090   69.0430   67.5550 C   0  0  0  0  0  0  0  0  0  0  0  0
    2.6510   68.8120   66.2320 C   0  0  0  0  0  0  0  0  0  0  0  0
    1.8270   68.0300   65.3800 C   0  0  0  0  0  0  0  0  0  0  0  0
    0.6080   67.5110   65.8170 C   0  0  0  0  0  0  0  0  0  0  0  0
    0.1880   67.7590   67.1140 C   0  0  0  0  0  0  0  0  0  0  0  0
    0.9910   68.5190   67.9640 C   0  0  0  0  0  0  0  0  0  0  0  0
   -3.3720   61.9530   74.7650 O   0  0  0  0  0  0  0  0  0  0  0  0
   -2.3390   61.3150   74.9420 C   0  0  0  0  0  0  0  0  0  0  0  0
   -1.2610   61.8260   75.6200 N   0  0  0  0  0  0  0  0  0  0  0  0
   -2.1730   59.8950   74.4550 C   0  0  0  0  0  0  0  0  0  0  0  0
   -2.3730   58.8390   75.5400 C   0  0  0  0  0  0  0  0  0  0  0  0
   -3.7050   58.0790   75.5350 C   0  0  1  0  0  0  0  0  0  0  0  0
   -3.5450   56.6620   76.1190 C   0  0  0  0  0  0  0  0  0  0  0  0
   -4.4030   56.1490   76.8380 O   0  0  0  0  0  0  0  0  0  0  0  0
   -2.3430   56.0570   75.8520 N   0  0  0  0  0  0  0  0  0  0  0  0
   -2.0490   54.6870   76.2940 C   0  0  2  0  0  0  0  0  0  0  0  0
   -1.2020   54.8000   77.5600 C   0  0  0  0  0  0  0  0  0  0  0  0
   -1.1230   53.9090   78.4000 O   0  0  0  0  0  0  0  0  0  0  0  0
   -0.5660   55.9980   77.6080 O   0  0  0  0  0  0  0  0  0  0  0  0
    0.7930   55.9670   78.0560 C   0  0  0  0  0  0  0  0  0  0  0  0
    1.6150   56.9140   77.2220 C   0  0  0  0  0  0  0  0  0  0  0  0
    2.9870   56.6910   77.0410 C   0  0  0  0  0  0  0  0  0  0  0  0
    3.7540   57.5770   76.2830 C   0  0  0  0  0  0  0  0  0  0  0  0
    3.1590   58.6970   75.7060 C   0  0  0  0  0  0  0  0  0  0  0  0
    1.7980   58.9350   75.8890 C   0  0  0  0  0  0  0  0  0  0  0  0
    1.0300   58.0500   76.6460 C   0  0  0  0  0  0  0  0  0  0  0  0
   -1.2840   53.9130   75.2120 C   0  0  0  0  0  0  0  0  0  0  0  0
   -0.2110   54.7290   74.5330 C   0  0  0  0  0  0  0  0  0  0  0  0
   -0.5330   55.9220   73.8720 C   0  0  0  0  0  0  0  0  0  0  0  0
    0.4640   56.6760   73.2510 C   0  0  0  0  0  0  0  0  0  0  0  0
    1.7890   56.2430   73.2820 C   0  0  0  0  0  0  0  0  0  0  0  0
    2.1180   55.0580   73.9360 C   0  0  0  0  0  0  0  0  0  0  0  0
    1.1240   54.3050   74.5610 C   0  0  0  0  0  0  0  0  0  0  0  0
   -4.7570   58.7660   76.2720 N   0  0  0  0  0  0  0  0  0  0  0  0
   -5.7740   59.4020   75.5830 C   0  0  0  0  0  0  0  0  0  0  0  0
   -5.7410   59.6100   74.3710 O   0  0  0  0  0  0  0  0  0  0  0  0
   -7.0140   59.7000   76.4210 C   0  0  0  0  0  0  0  0  0  0  0  0
   -7.7200   60.8010   75.8030 N   0  0  0  0  0  0  0  0  0  0  0  0
   -9.0790   60.8670   75.8490 C   0  0  0  0  0  0  0  0  0  0  0  0
   -9.7860   60.1390   76.5320 O   0  0  0  0  0  0  0  0  0  0  0  0
   -9.5130   61.8170   74.9940 O   0  0  0  0  0  0  0  0  0  0  0  0
   -8.7150   61.9220   73.8110 C   0  0  0  0  0  0  0  0  0  0  0  0
   -8.5890   63.3720   73.4120 C   0  0  0  0  0  0  0  0  0  0  0  0
   -8.0640   64.3200   74.3030 C   0  0  0  0  0  0  0  0  0  0  0  0
   -7.9010   65.6490   73.9120 C   0  0  0  0  0  0  0  0  0  0  0  0
   -8.2580   66.0470   72.6250 C   0  0  0  0  0  0  0  0  0  0  0  0
   -8.7760   65.1150   71.7290 C   0  0  0  0  0  0  0  0  0  0  0  0
   -8.9360   63.7830   72.1170 C   0  0  0  0  0  0  0  0  0  0  0  0
   -0.7120   63.4560   76.7707 H   0  0  0  0  0  0  0  0  0  0  0  0
   -2.0711   63.6824   75.5073 H   0  0  0  0  0  0  0  0  0  0  0  0
   -1.1010   63.0545   73.2453 H   0  0  0  0  0  0  0  0  0  0  0  0
   -0.6578   66.1413   72.2578 H   0  0  0  0  0  0  0  0  0  0  0  0
    0.6142   66.9442   70.2747 H   0  0  0  0  0  0  0  0  0  0  0  0
    2.3336   65.4875   69.2362 H   0  0  0  0  0  0  0  0  0  0  0  0
    2.4926   60.0922   73.4502 H   0  0  0  0  0  0  0  0  0  0  0  0
    1.6108   59.3810   72.0138 H   0  0  0  0  0  0  0  0  0  0  0  0
    4.6045   59.5812   72.4665 H   0  0  0  0  0  0  0  0  0  0  0  0
    3.5906   58.1078   72.2727 H   0  0  0  0  0  0  0  0  0  0  0  0
    4.7869   58.6029   70.1808 H   0  0  0  0  0  0  0  0  0  0  0  0
    3.0145   58.8340   69.9631 H   0  0  0  0  0  0  0  0  0  0  0  0
    5.1687   60.9546   70.3367 H   0  0  0  0  0  0  0  0  0  0  0  0
    4.0300   60.6857   68.9287 H   0  0  0  0  0  0  0  0  0  0  0  0
    4.7010   63.9453   69.0810 H   0  0  0  0  0  0  0  0  0  0  0  0
    3.5545   61.7031   67.6924 H   0  0  0  0  0  0  0  0  0  0  0  0
    2.3411   63.0423   67.5701 H   0  0  0  0  0  0  0  0  0  0  0  0
    4.5401   64.3857   66.8164 H   0  0  0  0  0  0  0  0  0  0  0  0
    4.9707   62.6737   66.2746 H   0  0  0  0  0  0  0  0  0  0  0  0
    3.8615   62.9704   64.4229 H   0  0  0  0  0  0  0  0  0  0  0  0
    2.3493   63.2443   65.4153 H   0  0  0  0  0  0  0  0  0  0  0  0
    2.3419   65.1661   64.2047 H   0  0  0  0  0  0  0  0  0  0  0  0
    3.3698   65.6793   65.6000 H   0  0  0  0  0  0  0  0  0  0  0  0
    5.1174   65.8273   64.3765 H   0  0  0  0  0  0  0  0  0  0  0  0
    5.3956   63.4424   64.0743 H   0  0  0  0  0  0  0  0  0  0  0  0
    4.3421   63.5353   62.6224 H   0  0  0  0  0  0  0  0  0  0  0  0
    5.9449   64.3462   62.6224 H   0  0  0  0  0  0  0  0  0  0  0  0
    4.3554   65.8924   61.7112 H   0  0  0  0  0  0  0  0  0  0  0  0
    3.1106   66.6726   62.7904 H   0  0  0  0  0  0  0  0  0  0  0  0
    6.0266   67.3932   62.4133 H   0  0  0  0  0  0  0  0  0  0  0  0
    4.5478   68.4201   62.2405 H   0  0  0  0  0  0  0  0  0  0  0  0
    4.7508   67.2600   64.9230 H   0  0  0  0  0  0  0  0  0  0  0  0
    6.2118   68.2317   64.4943 H   0  0  0  0  0  0  0  0  0  0  0  0
    4.2480   70.0198   63.7911 H   0  0  0  0  0  0  0  0  0  0  0  0
    6.4435   70.2147   65.6478 H   0  0  0  0  0  0  0  0  0  0  0  0
    5.9118   71.7490   66.4522 H   0  0  0  0  0  0  0  0  0  0  0  0
    7.3184   69.3473   67.6572 H   0  0  0  0  0  0  0  0  0  0  0  0
    7.7876   71.1231   67.6447 H   0  0  0  0  0  0  0  0  0  0  0  0
    6.4241   69.6391   69.6706 H   0  0  0  0  0  0  0  0  0  0  0  0
    6.9190   71.4025   69.6035 H   0  0  0  0  0  0  0  0  0  0  0  0
    4.4519   70.8585   70.0953 H   0  0  0  0  0  0  0  0  0  0  0  0
    4.8449   72.0914   68.8353 H   0  0  0  0  0  0  0  0  0  0  0  0
    2.1579   67.8286   64.3505 H   0  0  0  0  0  0  0  0  0  0  0  0
   -0.0144   66.9100   65.1377 H   0  0  0  0  0  0  0  0  0  0  0  0
   -0.7726   67.3590   67.4708 H   0  0  0  0  0  0  0  0  0  0  0  0
    0.6478   68.7092   68.9916 H   0  0  0  0  0  0  0  0  0  0  0  0
   -0.5719   61.1857   76.0396 H   0  0  0  0  0  0  0  0  0  0  0  0
   -2.9084   59.7147   73.6571 H   0  0  0  0  0  0  0  0  0  0  0  0
   -1.1350   59.7981   74.1040 H   0  0  0  0  0  0  0  0  0  0  0  0
   -1.5675   58.0975   75.4338 H   0  0  0  0  0  0  0  0  0  0  0  0
   -2.3668   59.3981   76.4873 H   0  0  0  0  0  0  0  0  0  0  0  0
   -4.0028   58.0223   74.4776 H   0  0  0  0  0  0  0  0  0  0  0  0
   -1.6263   56.5780   75.3268 H   0  0  0  0  0  0  0  0  0  0  0  0
   -2.9822   54.1377   76.4877 H   0  0  0  0  0  0  0  0  0  0  0  0
    0.8388   56.2729   79.1116 H   0  0  0  0  0  0  0  0  0  0  0  0
    1.1909   54.9466   77.9540 H   0  0  0  0  0  0  0  0  0  0  0  0
    3.4625   55.8115   77.4996 H   0  0  0  0  0  0  0  0  0  0  0  0
    4.8288   57.3910   76.1410 H   0  0  0  0  0  0  0  0  0  0  0  0
    3.7634   59.3933   75.1061 H   0  0  0  0  0  0  0  0  0  0  0  0
    1.3292   59.8211   75.4363 H   0  0  0  0  0  0  0  0  0  0  0  0
   -0.0427   58.2452   76.7919 H   0  0  0  0  0  0  0  0  0  0  0  0
   -0.8115   53.0365   75.6793 H   0  0  0  0  0  0  0  0  0  0  0  0
   -2.0139   53.6309   74.4389 H   0  0  0  0  0  0  0  0  0  0  0  0
   -1.5774   56.2661   73.8424 H   0  0  0  0  0  0  0  0  0  0  0  0
    0.2041   57.6129   72.7365 H   0  0  0  0  0  0  0  0  0  0  0  0
    2.5738   56.8367   72.7904 H   0  0  0  0  0  0  0  0  0  0  0  0
    3.1631   54.7156   73.9596 H   0  0  0  0  0  0  0  0  0  0  0  0
    1.3901   53.3720   75.0794 H   0  0  0  0  0  0  0  0  0  0  0  0
   -4.7437   58.7782   77.3018 H   0  0  0  0  0  0  0  0  0  0  0  0
   -7.6633   58.8127   76.4548 H   0  0  0  0  0  0  0  0  0  0  0  0
   -6.7250   59.9619   77.4495 H   0  0  0  0  0  0  0  0  0  0  0  0
   -7.1893   61.5422   75.3235 H   0  0  0  0  0  0  0  0  0  0  0  0
   -7.7148   61.5078   74.0062 H   0  0  0  0  0  0  0  0  0  0  0  0
   -9.1941   61.3593   72.9962 H   0  0  0  0  0  0  0  0  0  0  0  0
   -7.7782   64.0123   75.3197 H   0  0  0  0  0  0  0  0  0  0  0  0
   -7.4903   66.3837   74.6202 H   0  0  0  0  0  0  0  0  0  0  0  0
   -8.1309   67.0954   72.3174 H   0  0  0  0  0  0  0  0  0  0  0  0
   -9.0597   65.4287   70.7136 H   0  0  0  0  0  0  0  0  0  0  0  0
   -9.3374   63.0505   71.4012 H   0  0  0  0  0  0  0  0  0  0  0  0
  2  1  1  0
  3  2  2  0
  4  2  1  0
  5  4  1  0
  6  5  2  0
  7  6  1  0
  8  7  2  0
  9  8  1  0
 10  9  2  0
 10  5  1  0
 11 10  1  0
 12 11  2  0
 13 12  1  0
 14 13  1  0
 15 14  1  0
 16 15  1  0
 17 16  1  0
 17 12  1  0
 18 17  2  0
 18  9  1  0
 19 18  1  0
 20 19  1  0
 21 20  1  0
 22 21  1  0
 23 22  1  0
 24 23  1  0
 25 24  1  0
 26 24  1  0
 27 26  1  0
 28 27  1  0
 29 28  1  0
 30 29  1  0
 31 30  1  0
 32 31  1  0
 33 32  1  0
 34 33  1  0
 35 34  1  0
 36 31  2  0
 36 35  1  0
 37 36  1  0
 38 37  2  0
 39 38  1  0
 39 30  2  0
 40 39  1  0
 41 40  2  0
 42 41  1  0
 43 42  2  0
 43 38  1  0
 45 44  2  0
 46 45  1  0
 46  1  1  0
 47 45  1  0
 48 47  1  0
 49 48  1  0
 50 49  1  0
 51 50  2  0
 52 50  1  0
 53 52  1  0
 54 53  1  0
 55 54  2  0
 56 54  1  0
 57 56  1  0
 58 57  1  0
 59 58  2  0
 60 59  1  0
 61 60  2  0
 62 61  1  0
 63 62  2  0
 63 58  1  0
 64 53  1  0
 65 64  1  0
 66 65  2  0
 67 66  1  0
 68 67  2  0
 69 68  1  0
 70 69  2  0
 70 65  1  0
 71 49  1  0
 72 71  1  0
 73 72  2  0
 74 72  1  0
 75 74  1  0
 76 75  1  0
 77 76  2  0
 78 76  1  0
 79 78  1  0
 80 79  1  0
 81 80  2  0
 82 81  1  0
 83 82  2  0
 84 83  1  0
 85 84  2  0
 85 80  1  0
  1 86  1  0
  1 87  1  0
  4 88  1  0
  6 89  1  0
  7 90  1  0
  8 91  1  0
 13 92  1  0
 13 93  1  0
 14 94  1  0
 14 95  1  0
 15 96  1  0
 15 97  1  0
 16 98  1  0
 16 99  1  0
 19100  1  0
 20101  1  0
 20102  1  0
 21103  1  0
 21104  1  0
 22105  1  0
 22106  1  0
 23107  1  0
 23108  1  0
 24109  1  1
 25110  1  0
 25111  1  0
 25112  1  0
 26113  1  0
 26114  1  0
 27115  1  0
 27116  1  0
 28117  1  0
 28118  1  0
 29119  1  0
 32120  1  0
 32121  1  0
 33122  1  0
 33123  1  0
 34124  1  0
 34125  1  0
 35126  1  0
 35127  1  0
 40128  1  0
 41129  1  0
 42130  1  0
 43131  1  0
 46132  1  0
 47133  1  0
 47134  1  0
 48135  1  0
 48136  1  0
 49137  1  6
 52138  1  0
 53139  1  1
 57140  1  0
 57141  1  0
 59142  1  0
 60143  1  0
 61144  1  0
 62145  1  0
 63146  1  0
 64147  1  0
 64148  1  0
 66149  1  0
 67150  1  0
 68151  1  0
 69152  1  0
 70153  1  0
 71154  1  0
 74155  1  0
 74156  1  0
 75157  1  0
 79158  1  0
 79159  1  0
 81160  1  0
 82161  1  0
 83162  1  0
 84163  1  0
 85164  1  0
M  CHG  1  24   1
M  END
>  <score>  (1) 
-10.606

$$$$
=
     RDKit          3D

164172  0  0  0  0  0  0  0  0999 V2000
   -1.1320   63.2600   75.7360 C   0  0  0  0  0  0  0  0  0  0  0  0
   -0.1340   63.9360   74.7830 C   0  0  0  0  0  0  0  0  0  0  0  0
    0.8100   64.5760   75.2480 O   0  0  0  0  0  0  0  0  0  0  0  0
   -0.3390   63.6750   73.4470 N   0  0  0  0  0  0  0  0  0  0  0  0
    0.3920   64.1560   72.3300 C   0  0  0  0  0  0  0  0  0  0  0  0
    0.1910   65.4280   71.7870 C   0  0  0  0  0  0  0  0  0  0  0  0
    0.9350   65.8460   70.6920 C   0  0  0  0  0  0  0  0  0  0  0  0
    1.8810   64.9900   70.1370 C   0  0  0  0  0  0  0  0  0  0  0  0
    2.1040   63.6920   70.6600 C   0  0  0  0  0  0  0  0  0  0  0  0
    1.3350   63.2770   71.7680 C   0  0  0  0  0  0  0  0  0  0  0  0
    1.4650   62.0440   72.2970 N   0  0  0  0  0  0  0  0  0  0  0  0
    2.3600   61.1730   71.7760 C   0  0  0  0  0  0  0  0  0  0  0  0
    2.3860   59.8180   72.4370 C   0  0  0  0  0  0  0  0  0  0  0  0
    3.6060   58.9800   72.0750 C   0  0  0  0  0  0  0  0  0  0  0  0
    3.8320   59.0220   70.5730 C   0  0  0  0  0  0  0  0  0  0  0  0
    4.1250   60.4540   70.1280 C   0  0  0  0  0  0  0  0  0  0  0  0
    3.1630   61.4750   70.6780 C   0  0  0  0  0  0  0  0  0  0  0  0
    3.0550   62.7650   70.1280 C   0  0  0  0  0  0  0  0  0  0  0  0
    3.9440   63.1380   69.0550 N   0  0  0  0  0  0  0  0  0  0  0  0
    3.3930   62.7500   67.7430 C   0  0  0  0  0  0  0  0  0  0  0  0
    4.1640   63.4070   66.5960 C   0  0  0  0  0  0  0  0  0  0  0  0
    3.3780   63.6300   65.2970 C   0  0  0  0  0  0  0  0  0  0  0  0
    3.3700   65.0780   64.8230 C   0  0  0  0  0  0  0  0  0  0  0  0
    4.4810   65.3250   63.8200 N   0  0  1  0  0  4  0  0  0  0  0  0
    5.1450   64.0370   63.4050 C   0  0  0  0  0  0  0  0  0  0  0  0
    4.1500   66.2140   62.6300 C   0  0  0  0  0  0  0  0  0  0  0  0
    5.1030   67.3960   62.4870 C   0  0  0  0  0  0  0  0  0  0  0  0
    5.3560   68.0680   63.8380 C   0  0  0  0  0  0  0  0  0  0  0  0
    4.5570   69.2970   63.9700 N   0  0  0  0  0  0  0  0  0  0  0  0
    3.8420   69.3470   65.2130 C   0  0  0  0  0  0  0  0  0  0  0  0
    2.5280   68.8640   65.2560 C   0  0  0  0  0  0  0  0  0  0  0  0
    1.7530   68.3800   64.0630 C   0  0  0  0  0  0  0  0  0  0  0  0
    0.3100   68.8950   64.0800 C   0  0  0  0  0  0  0  0  0  0  0  0
   -0.3810   68.8250   65.4490 C   0  0  0  0  0  0  0  0  0  0  0  0
    0.4920   68.2550   66.5640 C   0  0  0  0  0  0  0  0  0  0  0  0
    1.8870   68.8200   66.4930 C   0  0  0  0  0  0  0  0  0  0  0  0
    2.4540   69.2320   67.6440 N   0  0  0  0  0  0  0  0  0  0  0  0
    3.6880   69.7480   67.6020 C   0  0  0  0  0  0  0  0  0  0  0  0
    4.4440   69.8400   66.4110 C   0  0  0  0  0  0  0  0  0  0  0  0
    5.7390   70.4190   66.4850 C   0  0  0  0  0  0  0  0  0  0  0  0
    6.2680   70.8740   67.6930 C   0  0  0  0  0  0  0  0  0  0  0  0
    5.5140   70.7640   68.8510 C   0  0  0  0  0  0  0  0  0  0  0  0
    4.2380   70.2050   68.7910 C   0  0  0  0  0  0  0  0  0  0  0  0
   -3.4220   61.9650   74.7220 O   0  0  0  0  0  0  0  0  0  0  0  0
   -2.4070   61.3130   74.9410 C   0  0  0  0  0  0  0  0  0  0  0  0
   -1.3360   61.8190   75.6340 N   0  0  0  0  0  0  0  0  0  0  0  0
   -2.2550   59.8780   74.4910 C   0  0  0  0  0  0  0  0  0  0  0  0
   -2.4860   58.8520   75.5990 C   0  0  0  0  0  0  0  0  0  0  0  0
   -3.8250   58.1040   75.5880 C   0  0  1  0  0  0  0  0  0  0  0  0
   -3.6890   56.7020   76.2130 C   0  0  0  0  0  0  0  0  0  0  0  0
   -4.5350   56.2430   76.9810 O   0  0  0  0  0  0  0  0  0  0  0  0
   -2.5190   56.0480   75.9210 N   0  0  0  0  0  0  0  0  0  0  0  0
   -2.2540   54.6830   76.3980 C   0  0  2  0  0  0  0  0  0  0  0  0
   -1.4010   54.8120   77.6590 C   0  0  0  0  0  0  0  0  0  0  0  0
   -1.3750   53.9610   78.5450 O   0  0  0  0  0  0  0  0  0  0  0  0
   -0.6960   55.9710   77.6490 O   0  0  0  0  0  0  0  0  0  0  0  0
    0.6600   55.8830   78.1000 C   0  0  0  0  0  0  0  0  0  0  0  0
    1.5110   56.8440   77.3130 C   0  0  0  0  0  0  0  0  0  0  0  0
    0.9330   57.9640   76.7000 C   0  0  0  0  0  0  0  0  0  0  0  0
    1.7170   58.8470   75.9560 C   0  0  0  0  0  0  0  0  0  0  0  0
    3.0840   58.6140   75.8120 C   0  0  0  0  0  0  0  0  0  0  0  0
    3.6670   57.4980   76.4090 C   0  0  0  0  0  0  0  0  0  0  0  0
    2.8850   56.6140   77.1530 C   0  0  0  0  0  0  0  0  0  0  0  0
   -1.5080   53.8660   75.3360 C   0  0  0  0  0  0  0  0  0  0  0  0
   -0.3750   54.6180   74.6820 C   0  0  0  0  0  0  0  0  0  0  0  0
    0.9380   54.1370   74.7580 C   0  0  0  0  0  0  0  0  0  0  0  0
    1.9820   54.8330   74.1460 C   0  0  0  0  0  0  0  0  0  0  0  0
    1.7230   56.0170   73.4580 C   0  0  0  0  0  0  0  0  0  0  0  0
    0.4200   56.5050   73.3800 C   0  0  0  0  0  0  0  0  0  0  0  0
   -0.6250   55.8080   73.9860 C   0  0  0  0  0  0  0  0  0  0  0  0
   -4.8860   58.8200   76.2840 N   0  0  0  0  0  0  0  0  0  0  0  0
   -5.8630   59.4750   75.5570 C   0  0  0  0  0  0  0  0  0  0  0  0
   -5.7820   59.6750   74.3460 O   0  0  0  0  0  0  0  0  0  0  0  0
   -7.1230   59.8070   76.3490 C   0  0  0  0  0  0  0  0  0  0  0  0
   -7.7230   60.9880   75.7670 N   0  0  0  0  0  0  0  0  0  0  0  0
   -9.0730   61.0800   75.6200 C   0  0  0  0  0  0  0  0  0  0  0  0
   -9.8780   60.2970   76.1030 O   0  0  0  0  0  0  0  0  0  0  0  0
   -9.3690   62.1320   74.8280 O   0  0  0  0  0  0  0  0  0  0  0  0
   -8.4780   62.2720   73.7160 C   0  0  0  0  0  0  0  0  0  0  0  0
   -8.4700   63.7080   73.2530 C   0  0  0  0  0  0  0  0  0  0  0  0
   -8.9570   64.0590   71.9860 C   0  0  0  0  0  0  0  0  0  0  0  0
   -8.9960   65.3940   71.5820 C   0  0  0  0  0  0  0  0  0  0  0  0
   -8.5500   66.3960   72.4420 C   0  0  0  0  0  0  0  0  0  0  0  0
   -8.0680   66.0620   73.7050 C   0  0  0  0  0  0  0  0  0  0  0  0
   -8.0320   64.7270   74.1130 C   0  0  0  0  0  0  0  0  0  0  0  0
   -0.7905   63.4663   76.7611 H   0  0  0  0  0  0  0  0  0  0  0  0
   -2.1043   63.6871   75.4493 H   0  0  0  0  0  0  0  0  0  0  0  0
   -1.1267   63.0480   73.2296 H   0  0  0  0  0  0  0  0  0  0  0  0
   -0.5593   66.1003   72.2288 H   0  0  0  0  0  0  0  0  0  0  0  0
    0.7775   66.8478   70.2658 H   0  0  0  0  0  0  0  0  0  0  0  0
    2.4697   65.3288   69.2718 H   0  0  0  0  0  0  0  0  0  0  0  0
    2.3766   59.9638   73.5273 H   0  0  0  0  0  0  0  0  0  0  0  0
    1.5028   59.2695   72.0778 H   0  0  0  0  0  0  0  0  0  0  0  0
    4.4912   59.3828   72.5889 H   0  0  0  0  0  0  0  0  0  0  0  0
    3.4374   57.9390   72.3880 H   0  0  0  0  0  0  0  0  0  0  0  0
    4.6861   58.3785   70.3151 H   0  0  0  0  0  0  0  0  0  0  0  0
    2.9265   58.6633   70.0616 H   0  0  0  0  0  0  0  0  0  0  0  0
    5.1391   60.7193   70.4614 H   0  0  0  0  0  0  0  0  0  0  0  0
    4.0203   60.4751   69.0332 H   0  0  0  0  0  0  0  0  0  0  0  0
    4.8476   63.6142   69.1880 H   0  0  0  0  0  0  0  0  0  0  0  0
    3.4571   61.6570   67.6372 H   0  0  0  0  0  0  0  0  0  0  0  0
    2.3470   63.0868   67.6940 H   0  0  0  0  0  0  0  0  0  0  0  0
    4.5187   64.3873   66.9471 H   0  0  0  0  0  0  0  0  0  0  0  0
    4.9686   62.7027   66.3382 H   0  0  0  0  0  0  0  0  0  0  0  0
    3.8286   63.0096   64.5083 H   0  0  0  0  0  0  0  0  0  0  0  0
    2.3332   63.3553   65.5040 H   0  0  0  0  0  0  0  0  0  0  0  0
    2.4017   65.2965   64.3491 H   0  0  0  0  0  0  0  0  0  0  0  0
    3.5288   65.7334   65.6921 H   0  0  0  0  0  0  0  0  0  0  0  0
    5.1561   65.8991   64.3450 H   0  0  0  0  0  0  0  0  0  0  0  0
    5.4374   63.4699   64.3011 H   0  0  0  0  0  0  0  0  0  0  0  0
    4.4428   63.4390   62.8055 H   0  0  0  0  0  0  0  0  0  0  0  0
    6.0394   64.2621   62.8055 H   0  0  0  0  0  0  0  0  0  0  0  0
    4.2033   65.6077   61.7137 H   0  0  0  0  0  0  0  0  0  0  0  0
    3.1416   66.6218   62.7939 H   0  0  0  0  0  0  0  0  0  0  0  0
    6.0599   67.0383   62.0792 H   0  0  0  0  0  0  0  0  0  0  0  0
    4.6452   68.1333   61.8110 H   0  0  0  0  0  0  0  0  0  0  0  0
    5.0815   67.3715   64.6439 H   0  0  0  0  0  0  0  0  0  0  0  0
    6.4217   68.3322   63.9055 H   0  0  0  0  0  0  0  0  0  0  0  0
    4.5159   70.0355   63.2532 H   0  0  0  0  0  0  0  0  0  0  0  0
    2.2481   68.7359   63.1475 H   0  0  0  0  0  0  0  0  0  0  0  0
    1.7260   67.2808   64.0936 H   0  0  0  0  0  0  0  0  0  0  0  0
    0.3174   69.9454   63.7534 H   0  0  0  0  0  0  0  0  0  0  0  0
   -0.2622   68.2369   63.4096 H   0  0  0  0  0  0  0  0  0  0  0  0
   -0.6838   69.8432   65.7347 H   0  0  0  0  0  0  0  0  0  0  0  0
   -1.2352   68.1412   65.3365 H   0  0  0  0  0  0  0  0  0  0  0  0
    0.0478   68.5121   67.5369 H   0  0  0  0  0  0  0  0  0  0  0  0
    0.5474   67.1629   66.4451 H   0  0  0  0  0  0  0  0  0  0  0  0
    6.3391   70.5108   65.5677 H   0  0  0  0  0  0  0  0  0  0  0  0
    7.2747   71.3162   67.7263 H   0  0  0  0  0  0  0  0  0  0  0  0
    5.9197   71.1155   69.8111 H   0  0  0  0  0  0  0  0  0  0  0  0
    3.6484   70.1237   69.7161 H   0  0  0  0  0  0  0  0  0  0  0  0
   -0.6704   61.1759   76.0860 H   0  0  0  0  0  0  0  0  0  0  0  0
   -2.9817   59.6887   73.6872 H   0  0  0  0  0  0  0  0  0  0  0  0
   -1.2137   59.7575   74.1575 H   0  0  0  0  0  0  0  0  0  0  0  0
   -1.6857   58.1007   75.5275 H   0  0  0  0  0  0  0  0  0  0  0  0
   -2.4927   59.4355   76.5314 H   0  0  0  0  0  0  0  0  0  0  0  0
   -4.1027   58.0214   74.5268 H   0  0  0  0  0  0  0  0  0  0  0  0
   -1.8064   56.5266   75.3517 H   0  0  0  0  0  0  0  0  0  0  0  0
   -3.1980   54.1586   76.6073 H   0  0  0  0  0  0  0  0  0  0  0  0
    0.7089   56.1394   79.1686 H   0  0  0  0  0  0  0  0  0  0  0  0
    1.0308   54.8579   77.9530 H   0  0  0  0  0  0  0  0  0  0  0  0
   -0.1462   58.1484   76.8060 H   0  0  0  0  0  0  0  0  0  0  0  0
    1.2563   59.7269   75.4832 H   0  0  0  0  0  0  0  0  0  0  0  0
    3.7022   59.3110   75.2272 H   0  0  0  0  0  0  0  0  0  0  0  0
    4.7453   57.3137   76.2935 H   0  0  0  0  0  0  0  0  0  0  0  0
    3.3491   55.7312   77.6169 H   0  0  0  0  0  0  0  0  0  0  0  0
   -1.0968   52.9653   75.8153 H   0  0  0  0  0  0  0  0  0  0  0  0
   -2.2339   53.6245   74.5456 H   0  0  0  0  0  0  0  0  0  0  0  0
    1.1480   53.2050   75.3033 H   0  0  0  0  0  0  0  0  0  0  0  0
    3.0101   54.4465   74.2069 H   0  0  0  0  0  0  0  0  0  0  0  0
    2.5462   56.5657   72.9771 H   0  0  0  0  0  0  0  0  0  0  0  0
    0.2154   57.4411   72.8398 H   0  0  0  0  0  0  0  0  0  0  0  0
   -1.6523   56.1951   73.9171 H   0  0  0  0  0  0  0  0  0  0  0  0
   -4.9082   58.8382   77.3136 H   0  0  0  0  0  0  0  0  0  0  0  0
   -7.8293   58.9654   76.2956 H   0  0  0  0  0  0  0  0  0  0  0  0
   -6.8723   59.9883   77.4046 H   0  0  0  0  0  0  0  0  0  0  0  0
   -7.1225   61.7669   75.4609 H   0  0  0  0  0  0  0  0  0  0  0  0
   -7.4624   61.9799   74.0214 H   0  0  0  0  0  0  0  0  0  0  0  0
   -8.8151   61.6243   72.8933 H   0  0  0  0  0  0  0  0  0  0  0  0
   -9.3122   63.2734   71.3029 H   0  0  0  0  0  0  0  0  0  0  0  0
   -9.3788   65.6557   70.5845 H   0  0  0  0  0  0  0  0  0  0  0  0
   -8.5787   67.4485   72.1237 H   0  0  0  0  0  0  0  0  0  0  0  0
   -7.7145   66.8523   74.3835 H   0  0  0  0  0  0  0  0  0  0  0  0
   -7.6577   64.4722   75.1155 H   0  0  0  0  0  0  0  0  0  0  0  0
  2  1  1  0
  3  2  2  0
  4  2  1  0
  5  4  1  0
  6  5  2  0
  7  6  1  0
  8  7  2  0
  9  8  1  0
 10  9  2  0
 10  5  1  0
 11 10  1  0
 12 11  2  0
 13 12  1  0
 14 13  1  0
 15 14  1  0
 16 15  1  0
 17 16  1  0
 17 12  1  0
 18 17  2  0
 18  9  1  0
 19 18  1  0
 20 19  1  0
 21 20  1  0
 22 21  1  0
 23 22  1  0
 24 23  1  0
 25 24  1  0
 26 24  1  0
 27 26  1  0
 28 27  1  0
 29 28  1  0
 30 29  1  0
 31 30  1  0
 32 31  1  0
 33 32  1  0
 34 33  1  0
 35 34  1  0
 36 31  2  0
 36 35  1  0
 37 36  1  0
 38 37  2  0
 39 38  1  0
 39 30  2  0
 40 39  1  0
 41 40  2  0
 42 41  1  0
 43 42  2  0
 43 38  1  0
 45 44  2  0
 46 45  1  0
 46  1  1  0
 47 45  1  0
 48 47  1  0
 49 48  1  0
 50 49  1  0
 51 50  2  0
 52 50  1  0
 53 52  1  0
 54 53  1  0
 55 54  2  0
 56 54  1  0
 57 56  1  0
 58 57  1  0
 59 58  2  0
 60 59  1  0
 61 60  2  0
 62 61  1  0
 63 62  2  0
 63 58  1  0
 64 53  1  0
 65 64  1  0
 66 65  2  0
 67 66  1  0
 68 67  2  0
 69 68  1  0
 70 69  2  0
 70 65  1  0
 71 49  1  0
 72 71  1  0
 73 72  2  0
 74 72  1  0
 75 74  1  0
 76 75  1  0
 77 76  2  0
 78 76  1  0
 79 78  1  0
 80 79  1  0
 81 80  2  0
 82 81  1  0
 83 82  2  0
 84 83  1  0
 85 84  2  0
 85 80  1  0
  1 86  1  0
  1 87  1  0
  4 88  1  0
  6 89  1  0
  7 90  1  0
  8 91  1  0
 13 92  1  0
 13 93  1  0
 14 94  1  0
 14 95  1  0
 15 96  1  0
 15 97  1  0
 16 98  1  0
 16 99  1  0
 19100  1  0
 20101  1  0
 20102  1  0
 21103  1  0
 21104  1  0
 22105  1  0
 22106  1  0
 23107  1  0
 23108  1  0
 24109  1  1
 25110  1  0
 25111  1  0
 25112  1  0
 26113  1  0
 26114  1  0
 27115  1  0
 27116  1  0
 28117  1  0
 28118  1  0
 29119  1  0
 32120  1  0
 32121  1  0
 33122  1  0
 33123  1  0
 34124  1  0
 34125  1  0
 35126  1  0
 35127  1  0
 40128  1  0
 41129  1  0
 42130  1  0
 43131  1  0
 46132  1  0
 47133  1  0
 47134  1  0
 48135  1  0
 48136  1  0
 49137  1  6
 52138  1  0
 53139  1  1
 57140  1  0
 57141  1  0
 59142  1  0
 60143  1  0
 61144  1  0
 62145  1  0
 63146  1  0
 64147  1  0
 64148  1  0
 66149  1  0
 67150  1  0
 68151  1  0
 69152  1  0
 70153  1  0
 71154  1  0
 74155  1  0
 74156  1  0
 75157  1  0
 79158  1  0
 79159  1  0
 81160  1  0
 82161  1  0
 83162  1  0
 84163  1  0
 85164  1  0
M  CHG  1  24   1
M  END
>  <score>  (2) 
-10.585

$$$$
=
     RDKit          3D

164172  0  0  0  0  0  0  0  0999 V2000
    1.7840   56.3800   74.1850 C   0  0  0  0  0  0  0  0  0  0  0  0
    1.4020   57.8630   74.3230 C   0  0  0  0  0  0  0  0  0  0  0  0
    1.9370   58.5480   75.1950 O   0  0  0  0  0  0  0  0  0  0  0  0
    0.5350   58.3310   73.3620 N   0  0  0  0  0  0  0  0  0  0  0  0
   -0.0120   59.6330   73.2240 C   0  0  0  0  0  0  0  0  0  0  0  0
   -1.3280   59.9410   73.5830 C   0  0  0  0  0  0  0  0  0  0  0  0
   -1.8110   61.2320   73.4250 C   0  0  0  0  0  0  0  0  0  0  0  0
   -0.9790   62.2190   72.9060 C   0  0  0  0  0  0  0  0  0  0  0  0
    0.3580   61.9380   72.5270 C   0  0  0  0  0  0  0  0  0  0  0  0
    0.8340   60.6190   72.6850 C   0  0  0  0  0  0  0  0  0  0  0  0
    2.0810   60.2680   72.3120 N   0  0  0  0  0  0  0  0  0  0  0  0
    2.9170   61.1910   71.7860 C   0  0  0  0  0  0  0  0  0  0  0  0
    4.2710   60.6650   71.3830 C   0  0  0  0  0  0  0  0  0  0  0  0
    5.3010   61.7550   71.1150 C   0  0  0  0  0  0  0  0  0  0  0  0
    4.6890   62.8370   70.2400 C   0  0  0  0  0  0  0  0  0  0  0  0
    3.5180   63.4970   70.9650 C   0  0  0  0  0  0  0  0  0  0  0  0
    2.5480   62.5180   71.5780 C   0  0  0  0  0  0  0  0  0  0  0  0
    1.2570   62.9060   71.9810 C   0  0  0  0  0  0  0  0  0  0  0  0
    0.8840   64.2950   71.8690 N   0  0  0  0  0  0  0  0  0  0  0  0
    0.7070   64.6910   70.4590 C   0  0  0  0  0  0  0  0  0  0  0  0
    1.2470   66.0990   70.2010 C   0  0  0  0  0  0  0  0  0  0  0  0
    0.6860   66.8190   68.9680 C   0  0  0  0  0  0  0  0  0  0  0  0
   -0.7810   66.5140   68.6920 C   0  0  0  0  0  0  0  0  0  0  0  0
   -1.2470   67.1980   67.4200 N   0  0  1  0  0  4  0  0  0  0  0  0
   -2.7480   67.1560   67.2900 C   0  0  0  0  0  0  0  0  0  0  0  0
   -0.6800   68.5800   67.1330 C   0  0  0  0  0  0  0  0  0  0  0  0
   -0.8740   69.0150   65.6840 C   0  0  0  0  0  0  0  0  0  0  0  0
    0.4630   69.0720   64.9420 C   0  0  0  0  0  0  0  0  0  0  0  0
    1.4400   68.1560   65.5520 N   0  0  0  0  0  0  0  0  0  0  0  0
    2.7730   68.6860   65.5160 C   0  0  0  0  0  0  0  0  0  0  0  0
    3.5040   68.5940   64.3240 C   0  0  0  0  0  0  0  0  0  0  0  0
    3.0370   67.8840   63.0850 C   0  0  0  0  0  0  0  0  0  0  0  0
    4.1590   67.0540   62.4530 C   0  0  0  0  0  0  0  0  0  0  0  0
    5.5240   67.7540   62.3970 C   0  0  0  0  0  0  0  0  0  0  0  0
    5.5300   69.1630   62.9840 C   0  0  0  0  0  0  0  0  0  0  0  0
    4.7550   69.2090   64.2740 C   0  0  0  0  0  0  0  0  0  0  0  0
    5.3050   69.8690   65.3110 N   0  0  0  0  0  0  0  0  0  0  0  0
    4.6380   69.9120   66.4710 C   0  0  0  0  0  0  0  0  0  0  0  0
    3.3600   69.3340   66.6460 C   0  0  0  0  0  0  0  0  0  0  0  0
    2.7530   69.4300   67.9270 C   0  0  0  0  0  0  0  0  0  0  0  0
    3.3810   70.0840   68.9860 C   0  0  0  0  0  0  0  0  0  0  0  0
    4.6300   70.6540   68.7900 C   0  0  0  0  0  0  0  0  0  0  0  0
    5.2410   70.5600   67.5400 C   0  0  0  0  0  0  0  0  0  0  0  0
    2.4960   53.7560   74.9300 O   0  0  0  0  0  0  0  0  0  0  0  0
    1.3990   54.1990   75.2540 C   0  0  0  0  0  0  0  0  0  0  0  0
    0.8940   55.3700   74.7480 N   0  0  0  0  0  0  0  0  0  0  0  0
    0.4890   53.4770   76.2210 C   0  0  0  0  0  0  0  0  0  0  0  0
    0.5800   53.9860   77.6580 C   0  0  0  0  0  0  0  0  0  0  0  0
   -0.6750   54.6460   78.2430 C   0  0  1  0  0  0  0  0  0  0  0  0
   -0.7190   56.1520   77.9180 C   0  0  0  0  0  0  0  0  0  0  0  0
    0.2210   56.7320   77.3740 O   0  0  0  0  0  0  0  0  0  0  0  0
   -1.8410   56.8080   78.3590 N   0  0  0  0  0  0  0  0  0  0  0  0
   -2.0610   58.2350   78.0880 C   0  0  2  0  0  0  0  0  0  0  0  0
   -1.2490   59.0140   79.1210 C   0  0  0  0  0  0  0  0  0  0  0  0
   -1.0380   58.6050   80.2600 O   0  0  0  0  0  0  0  0  0  0  0  0
   -0.8070   60.1870   78.6020 O   0  0  0  0  0  0  0  0  0  0  0  0
   -0.4060   60.1520   77.2290 C   0  0  0  0  0  0  0  0  0  0  0  0
   -0.1870   61.5590   76.7380 C   0  0  0  0  0  0  0  0  0  0  0  0
   -1.2270   62.4980   76.7870 C   0  0  0  0  0  0  0  0  0  0  0  0
   -1.0310   63.7970   76.3160 C   0  0  0  0  0  0  0  0  0  0  0  0
    0.2040   64.1670   75.7860 C   0  0  0  0  0  0  0  0  0  0  0  0
    1.2410   63.2390   75.7220 C   0  0  0  0  0  0  0  0  0  0  0  0
    1.0470   61.9400   76.1920 C   0  0  0  0  0  0  0  0  0  0  0  0
   -3.5490   58.5920   78.2050 C   0  0  0  0  0  0  0  0  0  0  0  0
   -4.1020   59.2750   76.9780 C   0  0  0  0  0  0  0  0  0  0  0  0
   -4.2330   60.6690   76.9340 C   0  0  0  0  0  0  0  0  0  0  0  0
   -4.7390   61.2950   75.7950 C   0  0  0  0  0  0  0  0  0  0  0  0
   -5.1230   60.5350   74.6910 C   0  0  0  0  0  0  0  0  0  0  0  0
   -4.9990   59.1470   74.7270 C   0  0  0  0  0  0  0  0  0  0  0  0
   -4.4880   58.5190   75.8630 C   0  0  0  0  0  0  0  0  0  0  0  0
   -1.9130   54.0360   77.7770 N   0  0  0  0  0  0  0  0  0  0  0  0
   -2.7770   53.4560   78.6880 C   0  0  0  0  0  0  0  0  0  0  0  0
   -2.4720   53.2310   79.8580 O   0  0  0  0  0  0  0  0  0  0  0  0
   -4.1950   53.2460   78.1660 C   0  0  0  0  0  0  0  0  0  0  0  0
   -4.7110   54.5280   77.7380 N   0  0  0  0  0  0  0  0  0  0  0  0
   -5.6050   55.2090   78.5070 C   0  0  0  0  0  0  0  0  0  0  0  0
   -5.9050   54.9070   79.6530 O   0  0  0  0  0  0  0  0  0  0  0  0
   -6.1320   56.2240   77.7920 O   0  0  0  0  0  0  0  0  0  0  0  0
   -7.4340   56.6160   78.2390 C   0  0  0  0  0  0  0  0  0  0  0  0
   -7.6150   58.0990   78.0320 C   0  0  0  0  0  0  0  0  0  0  0  0
   -7.2400   59.0160   79.0250 C   0  0  0  0  0  0  0  0  0  0  0  0
   -7.3600   60.3890   78.8080 C   0  0  0  0  0  0  0  0  0  0  0  0
   -7.8550   60.8630   77.5960 C   0  0  0  0  0  0  0  0  0  0  0  0
   -8.2270   59.9650   76.5990 C   0  0  0  0  0  0  0  0  0  0  0  0
   -8.1030   58.5900   76.8120 C   0  0  0  0  0  0  0  0  0  0  0  0
    1.8743   56.1681   73.1094 H   0  0  0  0  0  0  0  0  0  0  0  0
    2.7042   56.2856   74.7803 H   0  0  0  0  0  0  0  0  0  0  0  0
    0.2451   57.6462   72.6493 H   0  0  0  0  0  0  0  0  0  0  0  0
   -1.9824   59.1571   73.9920 H   0  0  0  0  0  0  0  0  0  0  0  0
   -2.8460   61.4739   73.7085 H   0  0  0  0  0  0  0  0  0  0  0  0
   -1.3676   63.2412   72.7869 H   0  0  0  0  0  0  0  0  0  0  0  0
    4.6484   60.0232   72.1927 H   0  0  0  0  0  0  0  0  0  0  0  0
    4.1330   60.1166   70.4395 H   0  0  0  0  0  0  0  0  0  0  0  0
    5.6230   62.1961   72.0699 H   0  0  0  0  0  0  0  0  0  0  0  0
    6.1678   61.3169   70.5985 H   0  0  0  0  0  0  0  0  0  0  0  0
    5.4517   63.5966   70.0135 H   0  0  0  0  0  0  0  0  0  0  0  0
    4.3251   62.3827   69.3066 H   0  0  0  0  0  0  0  0  0  0  0  0
    3.9213   64.1330   71.7668 H   0  0  0  0  0  0  0  0  0  0  0  0
    2.9587   64.0709   70.2114 H   0  0  0  0  0  0  0  0  0  0  0  0
    0.7575   64.9290   72.6708 H   0  0  0  0  0  0  0  0  0  0  0  0
    1.2455   63.9783   69.8171 H   0  0  0  0  0  0  0  0  0  0  0  0
   -0.3692   64.6866   70.2313 H   0  0  0  0  0  0  0  0  0  0  0  0
    1.0176   66.7144   71.0834 H   0  0  0  0  0  0  0  0  0  0  0  0
    2.3225   65.9732   70.0072 H   0  0  0  0  0  0  0  0  0  0  0  0
    0.7919   67.9031   69.1214 H   0  0  0  0  0  0  0  0  0  0  0  0
    1.2569   66.4588   68.0995 H   0  0  0  0  0  0  0  0  0  0  0  0
   -0.9085   65.4268   68.5836 H   0  0  0  0  0  0  0  0  0  0  0  0
   -1.3821   66.8897   69.5332 H   0  0  0  0  0  0  0  0  0  0  0  0
   -0.8274   66.6272   66.6723 H   0  0  0  0  0  0  0  0  0  0  0  0
   -3.2026   67.1433   68.2916 H   0  0  0  0  0  0  0  0  0  0  0  0
   -3.0936   68.0448   66.7418 H   0  0  0  0  0  0  0  0  0  0  0  0
   -3.0433   66.2492   66.7418 H   0  0  0  0  0  0  0  0  0  0  0  0
   -1.1820   69.3077   67.7876 H   0  0  0  0  0  0  0  0  0  0  0  0
    0.4029   68.5368   67.3212 H   0  0  0  0  0  0  0  0  0  0  0  0
   -1.5350   68.2957   65.1784 H   0  0  0  0  0  0  0  0  0  0  0  0
   -1.3200   70.0205   65.6779 H   0  0  0  0  0  0  0  0  0  0  0  0
    0.3052   68.7836   63.8923 H   0  0  0  0  0  0  0  0  0  0  0  0
    0.8561   70.0975   65.0031 H   0  0  0  0  0  0  0  0  0  0  0  0
    1.1955   67.2413   65.9574 H   0  0  0  0  0  0  0  0  0  0  0  0
    2.2042   67.2157   63.3491 H   0  0  0  0  0  0  0  0  0  0  0  0
    2.7167   68.6417   62.3547 H   0  0  0  0  0  0  0  0  0  0  0  0
    4.2722   66.1296   63.0384 H   0  0  0  0  0  0  0  0  0  0  0  0
    3.8606   66.8732   61.4098 H   0  0  0  0  0  0  0  0  0  0  0  0
    6.2476   67.1439   62.9574 H   0  0  0  0  0  0  0  0  0  0  0  0
    5.7841   67.8541   61.3329 H   0  0  0  0  0  0  0  0  0  0  0  0
    6.5689   69.4689   63.1765 H   0  0  0  0  0  0  0  0  0  0  0  0
    5.0563   69.8465   62.2640 H   0  0  0  0  0  0  0  0  0  0  0  0
    1.7634   68.9772   68.0871 H   0  0  0  0  0  0  0  0  0  0  0  0
    2.8902   70.1474   69.9684 H   0  0  0  0  0  0  0  0  0  0  0  0
    5.1355   71.1769   69.6153 H   0  0  0  0  0  0  0  0  0  0  0  0
    6.2326   71.0140   67.3966 H   0  0  0  0  0  0  0  0  0  0  0  0
   -0.1221   55.5376   74.7657 H   0  0  0  0  0  0  0  0  0  0  0  0
   -0.5484   53.5986   75.8761 H   0  0  0  0  0  0  0  0  0  0  0  0
    0.8103   52.4251   76.2352 H   0  0  0  0  0  0  0  0  0  0  0  0
    0.8333   53.1284   78.2986 H   0  0  0  0  0  0  0  0  0  0  0  0
    1.3367   54.7839   77.6314 H   0  0  0  0  0  0  0  0  0  0  0  0
   -0.6032   54.4934   79.3300 H   0  0  0  0  0  0  0  0  0  0  0  0
   -2.5485   56.2853   78.8949 H   0  0  0  0  0  0  0  0  0  0  0  0
   -1.7460   58.4850   77.0641 H   0  0  0  0  0  0  0  0  0  0  0  0
    0.5287   59.5800   77.1337 H   0  0  0  0  0  0  0  0  0  0  0  0
   -1.1913   59.6702   76.6281 H   0  0  0  0  0  0  0  0  0  0  0  0
   -2.2047   62.2087   77.1998 H   0  0  0  0  0  0  0  0  0  0  0  0
   -1.8510   64.5288   76.3630 H   0  0  0  0  0  0  0  0  0  0  0  0
    0.3598   65.1919   75.4182 H   0  0  0  0  0  0  0  0  0  0  0  0
    2.2141   63.5309   75.3003 H   0  0  0  0  0  0  0  0  0  0  0  0
    1.8676   61.2097   76.1339 H   0  0  0  0  0  0  0  0  0  0  0  0
   -4.1173   57.6654   78.3737 H   0  0  0  0  0  0  0  0  0  0  0  0
   -3.6474   59.2996   79.0415 H   0  0  0  0  0  0  0  0  0  0  0  0
   -3.9349   61.2737   77.8032 H   0  0  0  0  0  0  0  0  0  0  0  0
   -4.8353   62.3904   75.7676 H   0  0  0  0  0  0  0  0  0  0  0  0
   -5.5229   61.0296   73.7935 H   0  0  0  0  0  0  0  0  0  0  0  0
   -5.3047   58.5458   73.8580 H   0  0  0  0  0  0  0  0  0  0  0  0
   -4.3875   57.4238   75.8837 H   0  0  0  0  0  0  0  0  0  0  0  0
   -2.1440   54.0366   76.7732 H   0  0  0  0  0  0  0  0  0  0  0  0
   -4.1799   52.5477   77.3162 H   0  0  0  0  0  0  0  0  0  0  0  0
   -4.8330   52.8229   78.9559 H   0  0  0  0  0  0  0  0  0  0  0  0
   -4.3990   54.9298   76.8424 H   0  0  0  0  0  0  0  0  0  0  0  0
   -8.1976   56.0704   77.6652 H   0  0  0  0  0  0  0  0  0  0  0  0
   -7.5391   56.3810   79.3085 H   0  0  0  0  0  0  0  0  0  0  0  0
   -6.8473   58.6488   79.9847 H   0  0  0  0  0  0  0  0  0  0  0  0
   -7.0633   61.0977   79.5952 H   0  0  0  0  0  0  0  0  0  0  0  0
   -7.9521   61.9455   77.4263 H   0  0  0  0  0  0  0  0  0  0  0  0
   -8.6193   60.3390   75.6418 H   0  0  0  0  0  0  0  0  0  0  0  0
   -8.3904   57.8866   76.0166 H   0  0  0  0  0  0  0  0  0  0  0  0
  2  1  1  0
  3  2  2  0
  4  2  1  0
  5  4  1  0
  6  5  2  0
  7  6  1  0
  8  7  2  0
  9  8  1  0
 10  9  2  0
 10  5  1  0
 11 10  1  0
 12 11  2  0
 13 12  1  0
 14 13  1  0
 15 14  1  0
 16 15  1  0
 17 16  1  0
 17 12  1  0
 18 17  2  0
 18  9  1  0
 19 18  1  0
 20 19  1  0
 21 20  1  0
 22 21  1  0
 23 22  1  0
 24 23  1  0
 25 24  1  0
 26 24  1  0
 27 26  1  0
 28 27  1  0
 29 28  1  0
 30 29  1  0
 31 30  1  0
 32 31  1  0
 33 32  1  0
 34 33  1  0
 35 34  1  0
 36 31  2  0
 36 35  1  0
 37 36  1  0
 38 37  2  0
 39 38  1  0
 39 30  2  0
 40 39  1  0
 41 40  2  0
 42 41  1  0
 43 42  2  0
 43 38  1  0
 45 44  2  0
 46 45  1  0
 46  1  1  0
 47 45  1  0
 48 47  1  0
 49 48  1  0
 50 49  1  0
 51 50  2  0
 52 50  1  0
 53 52  1  0
 54 53  1  0
 55 54  2  0
 56 54  1  0
 57 56  1  0
 58 57  1  0
 59 58  2  0
 60 59  1  0
 61 60  2  0
 62 61  1  0
 63 62  2  0
 63 58  1  0
 64 53  1  0
 65 64  1  0
 66 65  2  0
 67 66  1  0
 68 67  2  0
 69 68  1  0
 70 69  2  0
 70 65  1  0
 71 49  1  0
 72 71  1  0
 73 72  2  0
 74 72  1  0
 75 74  1  0
 76 75  1  0
 77 76  2  0
 78 76  1  0
 79 78  1  0
 80 79  1  0
 81 80  2  0
 82 81  1  0
 83 82  2  0
 84 83  1  0
 85 84  2  0
 85 80  1  0
  1 86  1  0
  1 87  1  0
  4 88  1  0
  6 89  1  0
  7 90  1  0
  8 91  1  0
 13 92  1  0
 13 93  1  0
 14 94  1  0
 14 95  1  0
 15 96  1  0
 15 97  1  0
 16 98  1  0
 16 99  1  0
 19100  1  0
 20101  1  0
 20102  1  0
 21103  1  0
 21104  1  0
 22105  1  0
 22106  1  0
 23107  1  0
 23108  1  0
 24109  1  6
 25110  1  0
 25111  1  0
 25112  1  0
 26113  1  0
 26114  1  0
 27115  1  0
 27116  1  0
 28117  1  0
 28118  1  0
 29119  1  0
 32120  1  0
 32121  1  0
 33122  1  0
 33123  1  0
 34124  1  0
 34125  1  0
 35126  1  0
 35127  1  0
 40128  1  0
 41129  1  0
 42130  1  0
 43131  1  0
 46132  1  0
 47133  1  0
 47134  1  0
 48135  1  0
 48136  1  0
 49137  1  1
 52138  1  0
 53139  1  6
 57140  1  0
 57141  1  0
 59142  1  0
 60143  1  0
 61144  1  0
 62145  1  0
 63146  1  0
 64147  1  0
 64148  1  0
 66149  1  0
 67150  1  0
 68151  1  0
 69152  1  0
 70153  1  0
 71154  1  0
 74155  1  0
 74156  1  0
 75157  1  0
 79158  1  0
 79159  1  0
 81160  1  0
 82161  1  0
 83162  1  0
 84163  1  0
 85164  1  0
M  CHG  1  24   1
M  END
>  <score>  (3) 
-10.381

$$$$
=
     RDKit          3D

164172  0  0  0  0  0  0  0  0999 V2000
   -1.0550   62.7660   75.6390 C   0  0  0  0  0  0  0  0  0  0  0  0
   -0.0150   63.4170   74.7130 C   0  0  0  0  0  0  0  0  0  0  0  0
    1.0670   63.7790   75.1770 O   0  0  0  0  0  0  0  0  0  0  0  0
   -0.3620   63.4500   73.3810 N   0  0  0  0  0  0  0  0  0  0  0  0
    0.3680   63.9900   72.2910 C   0  0  0  0  0  0  0  0  0  0  0  0
    0.1570   65.2840   71.8090 C   0  0  0  0  0  0  0  0  0  0  0  0
    0.8990   65.7610   70.7370 C   0  0  0  0  0  0  0  0  0  0  0  0
    1.8540   64.9410   70.1440 C   0  0  0  0  0  0  0  0  0  0  0  0
    2.0880   63.6210   70.6060 C   0  0  0  0  0  0  0  0  0  0  0  0
    1.3200   63.1470   71.6900 C   0  0  0  0  0  0  0  0  0  0  0  0
    1.4600   61.8910   72.1600 N   0  0  0  0  0  0  0  0  0  0  0  0
    2.3630   61.0540   71.6000 C   0  0  0  0  0  0  0  0  0  0  0  0
    2.4000   59.6700   72.1960 C   0  0  0  0  0  0  0  0  0  0  0  0
    3.6280   58.8600   71.7980 C   0  0  0  0  0  0  0  0  0  0  0  0
    3.8580   58.9770   70.3000 C   0  0  0  0  0  0  0  0  0  0  0  0
    4.1390   60.4300   69.9250 C   0  0  0  0  0  0  0  0  0  0  0  0
    3.1660   61.4160   70.5210 C   0  0  0  0  0  0  0  0  0  0  0  0
    3.0480   62.7300   70.0320 C   0  0  0  0  0  0  0  0  0  0  0  0
    3.9360   63.1610   68.9810 N   0  0  0  0  0  0  0  0  0  0  0  0
    3.4270   62.7690   67.6540 C   0  0  0  0  0  0  0  0  0  0  0  0
    4.1600   63.5080   66.5320 C   0  0  0  0  0  0  0  0  0  0  0  0
    3.4130   63.6130   65.1960 C   0  0  0  0  0  0  0  0  0  0  0  0
    3.2690   65.0400   64.6820 C   0  0  0  0  0  0  0  0  0  0  0  0
    4.3940   65.3880   63.7250 N   0  0  1  0  0  4  0  0  0  0  0  0
    4.9490   64.1560   63.0580 C   0  0  0  0  0  0  0  0  0  0  0  0
    4.1330   66.5150   62.7360 C   0  0  0  0  0  0  0  0  0  0  0  0
    5.1450   67.6500   62.8460 C   0  0  0  0  0  0  0  0  0  0  0  0
    5.2600   68.1490   64.2880 C   0  0  0  0  0  0  0  0  0  0  0  0
    4.4040   69.3260   64.5040 N   0  0  0  0  0  0  0  0  0  0  0  0
    3.9340   69.4110   65.8580 C   0  0  0  0  0  0  0  0  0  0  0  0
    4.7040   70.1080   66.7970 C   0  0  0  0  0  0  0  0  0  0  0  0
    6.0580   70.7010   66.5250 C   0  0  0  0  0  0  0  0  0  0  0  0
    7.0320   70.4350   67.6780 C   0  0  0  0  0  0  0  0  0  0  0  0
    6.4400   70.6350   69.0800 C   0  0  0  0  0  0  0  0  0  0  0  0
    4.9750   71.0650   69.0860 C   0  0  0  0  0  0  0  0  0  0  0  0
    4.1820   70.2740   68.0790 C   0  0  0  0  0  0  0  0  0  0  0  0
    2.9870   69.7870   68.4680 N   0  0  0  0  0  0  0  0  0  0  0  0
    2.2710   69.0710   67.5920 C   0  0  0  0  0  0  0  0  0  0  0  0
    2.6890   68.8390   66.2630 C   0  0  0  0  0  0  0  0  0  0  0  0
    1.8520   68.0530   65.4270 C   0  0  0  0  0  0  0  0  0  0  0  0
    0.6440   67.5300   65.8870 C   0  0  0  0  0  0  0  0  0  0  0  0
    0.2470   67.7780   67.1920 C   0  0  0  0  0  0  0  0  0  0  0  0
    1.0630   68.5430   68.0260 C   0  0  0  0  0  0  0  0  0  0  0  0
    0.0840   61.8410   78.0450 O   0  0  0  0  0  0  0  0  0  0  0  0
   -0.4920   61.0490   77.3070 C   0  0  0  0  0  0  0  0  0  0  0  0
   -0.8740   61.3720   76.0290 N   0  0  0  0  0  0  0  0  0  0  0  0
   -0.8060   59.6320   77.7280 C   0  0  0  0  0  0  0  0  0  0  0  0
   -2.1360   59.4820   78.4620 C   0  0  0  0  0  0  0  0  0  0  0  0
   -3.1550   58.5040   77.8650 C   0  0  1  0  0  0  0  0  0  0  0  0
   -4.4370   59.2350   77.4180 C   0  0  0  0  0  0  0  0  0  0  0  0
   -5.4940   59.1430   78.0430 O   0  0  0  0  0  0  0  0  0  0  0  0
   -4.3340   59.9160   76.2320 N   0  0  0  0  0  0  0  0  0  0  0  0
   -5.4490   60.7050   75.6910 C   0  0  2  0  0  0  0  0  0  0  0  0
   -5.9260   59.9910   74.4280 C   0  0  0  0  0  0  0  0  0  0  0  0
   -6.0010   58.7690   74.3320 O   0  0  0  0  0  0  0  0  0  0  0  0
   -6.2510   60.8860   73.4610 O   0  0  0  0  0  0  0  0  0  0  0  0
   -7.5930   60.8190   72.9700 C   0  0  0  0  0  0  0  0  0  0  0  0
   -8.4110   61.9140   73.6030 C   0  0  0  0  0  0  0  0  0  0  0  0
   -8.5250   63.1640   72.9790 C   0  0  0  0  0  0  0  0  0  0  0  0
   -9.2670   64.1860   73.5720 C   0  0  0  0  0  0  0  0  0  0  0  0
   -9.8970   63.9700   74.7970 C   0  0  0  0  0  0  0  0  0  0  0  0
   -9.7820   62.7350   75.4310 C   0  0  0  0  0  0  0  0  0  0  0  0
   -9.0400   61.7120   74.8390 C   0  0  0  0  0  0  0  0  0  0  0  0
   -4.9990   62.1330   75.3540 C   0  0  0  0  0  0  0  0  0  0  0  0
   -5.8340   63.2000   76.0190 C   0  0  0  0  0  0  0  0  0  0  0  0
   -6.4700   62.9500   77.2420 C   0  0  0  0  0  0  0  0  0  0  0  0
   -7.2350   63.9430   77.8550 C   0  0  0  0  0  0  0  0  0  0  0  0
   -7.3750   65.1910   77.2510 C   0  0  0  0  0  0  0  0  0  0  0  0
   -6.7470   65.4480   76.0330 C   0  0  0  0  0  0  0  0  0  0  0  0
   -5.9780   64.4590   75.4210 C   0  0  0  0  0  0  0  0  0  0  0  0
   -2.6320   57.7550   76.7310 N   0  0  0  0  0  0  0  0  0  0  0  0
   -2.8250   56.3870   76.6660 C   0  0  0  0  0  0  0  0  0  0  0  0
   -3.2320   55.7170   77.6140 O   0  0  0  0  0  0  0  0  0  0  0  0
   -2.6300   55.7870   75.2760 C   0  0  0  0  0  0  0  0  0  0  0  0
   -1.2160   55.5530   75.0810 N   0  0  0  0  0  0  0  0  0  0  0  0
   -0.4470   56.4620   74.4210 C   0  0  0  0  0  0  0  0  0  0  0  0
   -0.8170   57.5830   74.1020 O   0  0  0  0  0  0  0  0  0  0  0  0
    0.7530   55.9140   74.1360 O   0  0  0  0  0  0  0  0  0  0  0  0
    1.4680   55.4820   75.2990 C   0  0  0  0  0  0  0  0  0  0  0  0
    2.1570   56.6630   75.9360 C   0  0  0  0  0  0  0  0  0  0  0  0
    2.9510   57.5310   75.1730 C   0  0  0  0  0  0  0  0  0  0  0  0
    3.5440   58.6520   75.7560 C   0  0  0  0  0  0  0  0  0  0  0  0
    3.3490   58.9200   77.1090 C   0  0  0  0  0  0  0  0  0  0  0  0
    2.5590   58.0690   77.8780 C   0  0  0  0  0  0  0  0  0  0  0  0
    1.9610   56.9490   77.2950 C   0  0  0  0  0  0  0  0  0  0  0  0
   -1.0805   63.3599   76.5645 H   0  0  0  0  0  0  0  0  0  0  0  0
   -1.9767   62.7567   75.0387 H   0  0  0  0  0  0  0  0  0  0  0  0
   -1.2710   63.0271   73.1449 H   0  0  0  0  0  0  0  0  0  0  0  0
   -0.6001   65.9276   72.2807 H   0  0  0  0  0  0  0  0  0  0  0  0
    0.7330   66.7805   70.3589 H   0  0  0  0  0  0  0  0  0  0  0  0
    2.4411   65.3257   69.2971 H   0  0  0  0  0  0  0  0  0  0  0  0
    2.3872   59.7642   73.2919 H   0  0  0  0  0  0  0  0  0  0  0  0
    1.5225   59.1315   71.8087 H   0  0  0  0  0  0  0  0  0  0  0  0
    4.5085   59.2443   72.3339 H   0  0  0  0  0  0  0  0  0  0  0  0
    3.4671   57.8037   72.0596 H   0  0  0  0  0  0  0  0  0  0  0  0
    4.7186   58.3544   70.0142 H   0  0  0  0  0  0  0  0  0  0  0  0
    2.9569   58.6357   69.7694 H   0  0  0  0  0  0  0  0  0  0  0  0
    5.1500   60.6879   70.2734 H   0  0  0  0  0  0  0  0  0  0  0  0
    4.0365   60.5024   68.8322 H   0  0  0  0  0  0  0  0  0  0  0  0
    4.8137   63.6768   69.1373 H   0  0  0  0  0  0  0  0  0  0  0  0
    3.5697   61.6863   67.5218 H   0  0  0  0  0  0  0  0  0  0  0  0
    2.3603   63.0323   67.6017 H   0  0  0  0  0  0  0  0  0  0  0  0
    4.3687   64.5297   66.8821 H   0  0  0  0  0  0  0  0  0  0  0  0
    5.0601   62.9114   66.3225 H   0  0  0  0  0  0  0  0  0  0  0  0
    3.9628   63.0276   64.4444 H   0  0  0  0  0  0  0  0  0  0  0  0
    2.3961   63.2301   65.3668 H   0  0  0  0  0  0  0  0  0  0  0  0
    2.3070   65.1384   64.1577 H   0  0  0  0  0  0  0  0  0  0  0  0
    3.3120   65.7279   65.5393 H   0  0  0  0  0  0  0  0  0  0  0  0
    5.1159   65.7942   64.3372 H   0  0  0  0  0  0  0  0  0  0  0  0
    5.2726   63.4377   63.8257 H   0  0  0  0  0  0  0  0  0  0  0  0
    4.1709   63.6966   62.4307 H   0  0  0  0  0  0  0  0  0  0  0  0
    5.8087   64.4344   62.4307 H   0  0  0  0  0  0  0  0  0  0  0  0
    4.1766   66.1040   61.7166 H   0  0  0  0  0  0  0  0  0  0  0  0
    3.1425   66.9335   62.9678 H   0  0  0  0  0  0  0  0  0  0  0  0
    6.1285   67.2879   62.5118 H   0  0  0  0  0  0  0  0  0  0  0  0
    4.8044   68.4837   62.2144 H   0  0  0  0  0  0  0  0  0  0  0  0
    4.9491   67.3465   64.9731 H   0  0  0  0  0  0  0  0  0  0  0  0
    6.3051   68.4334   64.4801 H   0  0  0  0  0  0  0  0  0  0  0  0
    4.1694   70.0091   63.7697 H   0  0  0  0  0  0  0  0  0  0  0  0
    6.4642   70.2562   65.6046 H   0  0  0  0  0  0  0  0  0  0  0  0
    5.9416   71.7895   66.4169 H   0  0  0  0  0  0  0  0  0  0  0  0
    7.3800   69.3945   67.5988 H   0  0  0  0  0  0  0  0  0  0  0  0
    7.8417   71.1726   67.5757 H   0  0  0  0  0  0  0  0  0  0  0  0
    6.5227   69.6848   69.6280 H   0  0  0  0  0  0  0  0  0  0  0  0
    7.0102   71.4497   69.5503 H   0  0  0  0  0  0  0  0  0  0  0  0
    4.5540   70.8978   70.0884 H   0  0  0  0  0  0  0  0  0  0  0  0
    4.9190   72.1310   68.8205 H   0  0  0  0  0  0  0  0  0  0  0  0
    2.1643   67.8520   64.3916 H   0  0  0  0  0  0  0  0  0  0  0  0
    0.0114   66.9258   65.2201 H   0  0  0  0  0  0  0  0  0  0  0  0
   -0.7049   67.3743   67.5674 H   0  0  0  0  0  0  0  0  0  0  0  0
    0.7388   68.7336   69.0597 H   0  0  0  0  0  0  0  0  0  0  0  0
   -1.0342   60.6239   75.3394 H   0  0  0  0  0  0  0  0  0  0  0  0
   -0.8355   59.0020   76.8268 H   0  0  0  0  0  0  0  0  0  0  0  0
   -0.0179   59.3276   78.4325 H   0  0  0  0  0  0  0  0  0  0  0  0
   -1.9139   59.1458   79.4855 H   0  0  0  0  0  0  0  0  0  0  0  0
   -2.6138   60.4703   78.3915 H   0  0  0  0  0  0  0  0  0  0  0  0
   -3.3837   57.7934   78.6729 H   0  0  0  0  0  0  0  0  0  0  0  0
   -3.4497   59.8731   75.7056 H   0  0  0  0  0  0  0  0  0  0  0  0
   -6.2576   60.7859   76.4324 H   0  0  0  0  0  0  0  0  0  0  0  0
   -7.5911   60.9468   71.8774 H   0  0  0  0  0  0  0  0  0  0  0  0
   -8.0289   59.8411   73.2225 H   0  0  0  0  0  0  0  0  0  0  0  0
   -8.0258   63.3405   72.0148 H   0  0  0  0  0  0  0  0  0  0  0  0
   -9.3550   65.1624   73.0730 H   0  0  0  0  0  0  0  0  0  0  0  0
  -10.4848   64.7748   75.2627 H   0  0  0  0  0  0  0  0  0  0  0  0
  -10.2764   62.5660   76.3990 H   0  0  0  0  0  0  0  0  0  0  0  0
   -8.9482   60.7402   75.3461 H   0  0  0  0  0  0  0  0  0  0  0  0
   -3.9552   62.2549   75.6788 H   0  0  0  0  0  0  0  0  0  0  0  0
   -5.1155   62.2611   74.2677 H   0  0  0  0  0  0  0  0  0  0  0  0
   -6.3657   61.9656   77.7216 H   0  0  0  0  0  0  0  0  0  0  0  0
   -7.7285   63.7403   78.8169 H   0  0  0  0  0  0  0  0  0  0  0  0
   -7.9800   65.9722   77.7344 H   0  0  0  0  0  0  0  0  0  0  0  0
   -6.8584   66.4321   75.5544 H   0  0  0  0  0  0  0  0  0  0  0  0
   -5.4810   64.6685   74.4623 H   0  0  0  0  0  0  0  0  0  0  0  0
   -2.1208   58.2417   75.9809 H   0  0  0  0  0  0  0  0  0  0  0  0
   -3.1790   54.8368   75.1998 H   0  0  0  0  0  0  0  0  0  0  0  0
   -3.0116   56.4751   74.5073 H   0  0  0  0  0  0  0  0  0  0  0  0
   -0.7868   54.6903   75.4450 H   0  0  0  0  0  0  0  0  0  0  0  0
    0.7639   55.0374   76.0177 H   0  0  0  0  0  0  0  0  0  0  0  0
    2.2195   54.7329   75.0090 H   0  0  0  0  0  0  0  0  0  0  0  0
    3.1082   57.3263   74.1037 H   0  0  0  0  0  0  0  0  0  0  0  0
    4.1658   59.3243   75.1466 H   0  0  0  0  0  0  0  0  0  0  0  0
    3.8181   59.8021   77.5692 H   0  0  0  0  0  0  0  0  0  0  0  0
    2.4055   58.2792   78.9468 H   0  0  0  0  0  0  0  0  0  0  0  0
    1.3314   56.2862   77.9067 H   0  0  0  0  0  0  0  0  0  0  0  0
  2  1  1  0
  3  2  2  0
  4  2  1  0
  5  4  1  0
  6  5  2  0
  7  6  1  0
  8  7  2  0
  9  8  1  0
 10  9  2  0
 10  5  1  0
 11 10  1  0
 12 11  2  0
 13 12  1  0
 14 13  1  0
 15 14  1  0
 16 15  1  0
 17 16  1  0
 17 12  1  0
 18 17  2  0
 18  9  1  0
 19 18  1  0
 20 19  1  0
 21 20  1  0
 22 21  1  0
 23 22  1  0
 24 23  1  0
 25 24  1  0
 26 24  1  0
 27 26  1  0
 28 27  1  0
 29 28  1  0
 30 29  1  0
 31 30  1  0
 32 31  1  0
 33 32  1  0
 34 33  1  0
 35 34  1  0
 36 31  2  0
 36 35  1  0
 37 36  1  0
 38 37  2  0
 39 38  1  0
 39 30  2  0
 40 39  1  0
 41 40  2  0
 42 41  1  0
 43 42  2  0
 43 38  1  0
 45 44  2  0
 46 45  1  0
 46  1  1  0
 47 45  1  0
 48 47  1  0
 49 48  1  0
 50 49  1  0
 51 50  2  0
 52 50  1  0
 53 52  1  0
 54 53  1  0
 55 54  2  0
 56 54  1  0
 57 56  1  0
 58 57  1  0
 59 58  2  0
 60 59  1  0
 61 60  2  0
 62 61  1  0
 63 62  2  0
 63 58  1  0
 64 53  1  0
 65 64  1  0
 66 65  2  0
 67 66  1  0
 68 67  2  0
 69 68  1  0
 70 69  2  0
 70 65  1  0
 71 49  1  0
 72 71  1  0
 73 72  2  0
 74 72  1  0
 75 74  1  0
 76 75  1  0
 77 76  2  0
 78 76  1  0
 79 78  1  0
 80 79  1  0
 81 80  2  0
 82 81  1  0
 83 82  2  0
 84 83  1  0
 85 84  2  0
 85 80  1  0
  1 86  1  0
  1 87  1  0
  4 88  1  0
  6 89  1  0
  7 90  1  0
  8 91  1  0
 13 92  1  0
 13 93  1  0
 14 94  1  0
 14 95  1  0
 15 96  1  0
 15 97  1  0
 16 98  1  0
 16 99  1  0
 19100  1  0
 20101  1  0
 20102  1  0
 21103  1  0
 21104  1  0
 22105  1  0
 22106  1  0
 23107  1  0
 23108  1  0
 24109  1  1
 25110  1  0
 25111  1  0
 25112  1  0
 26113  1  0
 26114  1  0
 27115  1  0
 27116  1  0
 28117  1  0
 28118  1  0
 29119  1  0
 32120  1  0
 32121  1  0
 33122  1  0
 33123  1  0
 34124  1  0
 34125  1  0
 35126  1  0
 35127  1  0
 40128  1  0
 41129  1  0
 42130  1  0
 43131  1  0
 46132  1  0
 47133  1  0
 47134  1  0
 48135  1  0
 48136  1  0
 49137  1  1
 52138  1  0
 53139  1  1
 57140  1  0
 57141  1  0
 59142  1  0
 60143  1  0
 61144  1  0
 62145  1  0
 63146  1  0
 64147  1  0
 64148  1  0
 66149  1  0
 67150  1  0
 68151  1  0
 69152  1  0
 70153  1  0
 71154  1  0
 74155  1  0
 74156  1  0
 75157  1  0
 79158  1  0
 79159  1  0
 81160  1  0
 82161  1  0
 83162  1  0
 84163  1  0
 85164  1  0
M  CHG  1  24   1
M  END
>  <score>  (4) 
-10.215

$$$$
=
     RDKit          3D

164172  0  0  0  0  0  0  0  0999 V2000
   -1.0650   63.5580   75.8270 C   0  0  0  0  0  0  0  0  0  0  0  0
    0.0160   64.0140   74.8350 C   0  0  0  0  0  0  0  0  0  0  0  0
    1.1300   64.3290   75.2550 O   0  0  0  0  0  0  0  0  0  0  0  0
   -0.3420   63.9350   73.5080 N   0  0  0  0  0  0  0  0  0  0  0  0
    0.4190   64.2910   72.3650 C   0  0  0  0  0  0  0  0  0  0  0  0
    0.1880   65.4630   71.6400 C   0  0  0  0  0  0  0  0  0  0  0  0
    0.9620   65.7610   70.5270 C   0  0  0  0  0  0  0  0  0  0  0  0
    1.9690   64.8850   70.1360 C   0  0  0  0  0  0  0  0  0  0  0  0
    2.2240   63.6840   70.8460 C   0  0  0  0  0  0  0  0  0  0  0  0
    1.4240   63.3900   71.9710 C   0  0  0  0  0  0  0  0  0  0  0  0
    1.5830   62.2500   72.6730 N   0  0  0  0  0  0  0  0  0  0  0  0
    2.5370   61.3610   72.3160 C   0  0  0  0  0  0  0  0  0  0  0  0
    2.5920   60.1150   73.1630 C   0  0  0  0  0  0  0  0  0  0  0  0
    3.8630   59.2960   72.9720 C   0  0  0  0  0  0  0  0  0  0  0  0
    4.1570   59.1400   71.4880 C   0  0  0  0  0  0  0  0  0  0  0  0
    4.4070   60.5080   70.8580 C   0  0  0  0  0  0  0  0  0  0  0  0
    3.3760   61.5470   71.2200 C   0  0  0  0  0  0  0  0  0  0  0  0
    3.2380   62.7410   70.4880 C   0  0  0  0  0  0  0  0  0  0  0  0
    4.1590   63.0040   69.4100 N   0  0  0  0  0  0  0  0  0  0  0  0
    3.5440   62.7220   68.0990 C   0  0  0  0  0  0  0  0  0  0  0  0
    4.2430   63.4910   66.9760 C   0  0  0  0  0  0  0  0  0  0  0  0
    3.5420   63.4740   65.6120 C   0  0  0  0  0  0  0  0  0  0  0  0
    3.3390   64.8570   65.0070 C   0  0  0  0  0  0  0  0  0  0  0  0
    4.4350   65.1780   64.0080 N   0  0  1  0  0  4  0  0  0  0  0  0
    5.0880   63.9240   63.4860 C   0  0  0  0  0  0  0  0  0  0  0  0
    4.0880   66.1570   62.8950 C   0  0  0  0  0  0  0  0  0  0  0  0
    5.0020   67.3760   62.8690 C   0  0  0  0  0  0  0  0  0  0  0  0
    5.1980   67.9510   64.2730 C   0  0  0  0  0  0  0  0  0  0  0  0
    4.3840   69.1630   64.4610 N   0  0  0  0  0  0  0  0  0  0  0  0
    3.9120   69.2940   65.8100 C   0  0  0  0  0  0  0  0  0  0  0  0
    4.6810   70.0250   66.7250 C   0  0  0  0  0  0  0  0  0  0  0  0
    6.0330   70.6110   66.4340 C   0  0  0  0  0  0  0  0  0  0  0  0
    7.0070   70.3880   67.5970 C   0  0  0  0  0  0  0  0  0  0  0  0
    6.4120   70.6360   68.9900 C   0  0  0  0  0  0  0  0  0  0  0  0
    4.9460   71.0610   68.9800 C   0  0  0  0  0  0  0  0  0  0  0  0
    4.1560   70.2340   68.0000 C   0  0  0  0  0  0  0  0  0  0  0  0
    2.9620   69.7580   68.4040 N   0  0  0  0  0  0  0  0  0  0  0  0
    2.2480   69.0100   67.5530 C   0  0  0  0  0  0  0  0  0  0  0  0
    2.6690   68.7330   66.2330 C   0  0  0  0  0  0  0  0  0  0  0  0
    1.8340   67.9160   65.4240 C   0  0  0  0  0  0  0  0  0  0  0  0
    0.6270   67.4070   65.9010 C   0  0  0  0  0  0  0  0  0  0  0  0
    0.2280   67.6990   67.1960 C   0  0  0  0  0  0  0  0  0  0  0  0
    1.0410   68.4940   68.0040 C   0  0  0  0  0  0  0  0  0  0  0  0
   -2.4350   62.7530   78.1560 O   0  0  0  0  0  0  0  0  0  0  0  0
   -1.7300   61.9440   77.5600 C   0  0  0  0  0  0  0  0  0  0  0  0
   -0.8660   62.3120   76.5600 N   0  0  0  0  0  0  0  0  0  0  0  0
   -1.7260   60.4710   77.8980 C   0  0  0  0  0  0  0  0  0  0  0  0
   -2.3140   60.1470   79.2690 C   0  0  0  0  0  0  0  0  0  0  0  0
   -3.7280   59.5550   79.2990 C   0  0  1  0  0  0  0  0  0  0  0  0
   -4.7790   60.5930   78.8590 C   0  0  0  0  0  0  0  0  0  0  0  0
   -5.2850   61.3890   79.6510 O   0  0  0  0  0  0  0  0  0  0  0  0
   -5.1710   60.5020   77.5470 N   0  0  0  0  0  0  0  0  0  0  0  0
   -6.1280   61.4480   76.9570 C   0  0  2  0  0  0  0  0  0  0  0  0
   -7.0750   60.6310   76.0800 C   0  0  0  0  0  0  0  0  0  0  0  0
   -6.7280   59.6250   75.4680 O   0  0  0  0  0  0  0  0  0  0  0  0
   -8.3210   61.1680   76.0850 O   0  0  0  0  0  0  0  0  0  0  0  0
   -8.9520   61.3010   74.8070 C   0  0  0  0  0  0  0  0  0  0  0  0
   -8.9960   62.7560   74.4210 C   0  0  0  0  0  0  0  0  0  0  0  0
   -8.2640   63.2190   73.3200 C   0  0  0  0  0  0  0  0  0  0  0  0
   -8.2890   64.5700   72.9710 C   0  0  0  0  0  0  0  0  0  0  0  0
   -9.0420   65.4710   73.7230 C   0  0  0  0  0  0  0  0  0  0  0  0
   -9.7660   65.0220   74.8260 C   0  0  0  0  0  0  0  0  0  0  0  0
   -9.7410   63.6720   75.1770 C   0  0  0  0  0  0  0  0  0  0  0  0
   -5.4050   62.5050   76.1120 C   0  0  0  0  0  0  0  0  0  0  0  0
   -5.9360   63.9030   76.3140 C   0  0  0  0  0  0  0  0  0  0  0  0
   -5.5840   64.9340   75.4330 C   0  0  0  0  0  0  0  0  0  0  0  0
   -6.0840   66.2240   75.6200 C   0  0  0  0  0  0  0  0  0  0  0  0
   -6.9350   66.4950   76.6900 C   0  0  0  0  0  0  0  0  0  0  0  0
   -7.2880   65.4770   77.5720 C   0  0  0  0  0  0  0  0  0  0  0  0
   -6.7940   64.1860   77.3840 C   0  0  0  0  0  0  0  0  0  0  0  0
   -3.8700   58.3710   78.4630 N   0  0  0  0  0  0  0  0  0  0  0  0
   -4.0210   57.1290   79.0530 C   0  0  0  0  0  0  0  0  0  0  0  0
   -3.8320   56.9240   80.2510 O   0  0  0  0  0  0  0  0  0  0  0  0
   -4.5820   56.0540   78.1270 C   0  0  0  0  0  0  0  0  0  0  0  0
   -4.1130   56.3250   76.7860 N   0  0  0  0  0  0  0  0  0  0  0  0
   -3.0470   55.6500   76.2740 C   0  0  0  0  0  0  0  0  0  0  0  0
   -2.5250   54.6770   76.8000 O   0  0  0  0  0  0  0  0  0  0  0  0
   -2.6390   56.2490   75.1360 O   0  0  0  0  0  0  0  0  0  0  0  0
   -1.4960   57.0920   75.3180 C   0  0  0  0  0  0  0  0  0  0  0  0
   -1.7880   58.4650   74.7670 C   0  0  0  0  0  0  0  0  0  0  0  0
   -0.8330   59.1520   74.0030 C   0  0  0  0  0  0  0  0  0  0  0  0
   -1.1260   60.3990   73.4500 C   0  0  0  0  0  0  0  0  0  0  0  0
   -2.3790   60.9750   73.6520 C   0  0  0  0  0  0  0  0  0  0  0  0
   -3.3390   60.3020   74.4040 C   0  0  0  0  0  0  0  0  0  0  0  0
   -3.0490   59.0510   74.9550 C   0  0  0  0  0  0  0  0  0  0  0  0
   -1.1767   64.3580   76.5737 H   0  0  0  0  0  0  0  0  0  0  0  0
   -1.9404   63.3562   75.1922 H   0  0  0  0  0  0  0  0  0  0  0  0
   -1.2865   63.5694   73.3205 H   0  0  0  0  0  0  0  0  0  0  0  0
   -0.6104   66.1522   71.9525 H   0  0  0  0  0  0  0  0  0  0  0  0
    0.7800   66.6844   69.9576 H   0  0  0  0  0  0  0  0  0  0  0  0
    2.5818   65.1293   69.2558 H   0  0  0  0  0  0  0  0  0  0  0  0
    2.5262   60.4114   74.2203 H   0  0  0  0  0  0  0  0  0  0  0  0
    1.7511   59.4783   72.8506 H   0  0  0  0  0  0  0  0  0  0  0  0
    4.7050   59.8095   73.4591 H   0  0  0  0  0  0  0  0  0  0  0  0
    3.7253   58.3015   73.4216 H   0  0  0  0  0  0  0  0  0  0  0  0
    5.0496   58.5105   71.3578 H   0  0  0  0  0  0  0  0  0  0  0  0
    3.2930   58.6689   70.9966 H   0  0  0  0  0  0  0  0  0  0  0  0
    5.3920   60.8674   71.1907 H   0  0  0  0  0  0  0  0  0  0  0  0
    4.3523   60.3714   69.7679 H   0  0  0  0  0  0  0  0  0  0  0  0
    5.1224   63.3449   69.5388 H   0  0  0  0  0  0  0  0  0  0  0  0
    3.6177   61.6438   67.8939 H   0  0  0  0  0  0  0  0  0  0  0  0
    2.4922   63.0422   68.1346 H   0  0  0  0  0  0  0  0  0  0  0  0
    4.3359   64.5400   67.2936 H   0  0  0  0  0  0  0  0  0  0  0  0
    5.2051   62.9807   66.8213 H   0  0  0  0  0  0  0  0  0  0  0  0
    4.1509   62.8774   64.9167 H   0  0  0  0  0  0  0  0  0  0  0  0
    2.5419   63.0445   65.7715 H   0  0  0  0  0  0  0  0  0  0  0  0
    2.3656   64.8868   64.4955 H   0  0  0  0  0  0  0  0  0  0  0  0
    3.3716   65.6022   65.8155 H   0  0  0  0  0  0  0  0  0  0  0  0
    5.1206   65.7091   64.5637 H   0  0  0  0  0  0  0  0  0  0  0  0
    5.4128   63.3003   64.3319 H   0  0  0  0  0  0  0  0  0  0  0  0
    4.3673   63.3634   62.8726 H   0  0  0  0  0  0  0  0  0  0  0  0
    5.9605   64.1930   62.8726 H   0  0  0  0  0  0  0  0  0  0  0  0
    4.1718   65.6352   61.9303 H   0  0  0  0  0  0  0  0  0  0  0  0
    3.0648   66.5163   63.0795 H   0  0  0  0  0  0  0  0  0  0  0  0
    5.9807   67.0819   62.4619 H   0  0  0  0  0  0  0  0  0  0  0  0
    4.5355   68.1475   62.2388 H   0  0  0  0  0  0  0  0  0  0  0  0
    4.8990   67.1972   65.0162 H   0  0  0  0  0  0  0  0  0  0  0  0
    6.2581   68.2156   64.4003 H   0  0  0  0  0  0  0  0  0  0  0  0
    4.1772   69.8385   63.7115 H   0  0  0  0  0  0  0  0  0  0  0  0
    6.4413   70.1352   65.5302 H   0  0  0  0  0  0  0  0  0  0  0  0
    5.9140   71.6947   66.2878 H   0  0  0  0  0  0  0  0  0  0  0  0
    7.3577   69.3463   67.5550 H   0  0  0  0  0  0  0  0  0  0  0  0
    7.8155   71.1230   67.4697 H   0  0  0  0  0  0  0  0  0  0  0  0
    6.4972   69.7062   69.5716 H   0  0  0  0  0  0  0  0  0  0  0  0
    6.9787   71.4693   69.4309 H   0  0  0  0  0  0  0  0  0  0  0  0
    4.5247   70.9267   69.9872 H   0  0  0  0  0  0  0  0  0  0  0  0
    4.8872   72.1171   68.6780 H   0  0  0  0  0  0  0  0  0  0  0  0
    2.1476   67.6795   64.3965 H   0  0  0  0  0  0  0  0  0  0  0  0
   -0.0037   66.7787   65.2549 H   0  0  0  0  0  0  0  0  0  0  0  0
   -0.7235   67.3064   67.5839 H   0  0  0  0  0  0  0  0  0  0  0  0
    0.7155   68.7189   69.0304 H   0  0  0  0  0  0  0  0  0  0  0  0
   -0.0694   61.7031   76.3244 H   0  0  0  0  0  0  0  0  0  0  0  0
   -2.3138   59.9395   77.1351 H   0  0  0  0  0  0  0  0  0  0  0  0
   -0.6734   60.1523   77.9198 H   0  0  0  0  0  0  0  0  0  0  0  0
   -1.6419   59.4251   79.7559 H   0  0  0  0  0  0  0  0  0  0  0  0
   -2.4005   61.1179   79.7788 H   0  0  0  0  0  0  0  0  0  0  0  0
   -3.8980   59.2615   80.3454 H   0  0  0  0  0  0  0  0  0  0  0  0
   -4.7836   59.7498   76.9596 H   0  0  0  0  0  0  0  0  0  0  0  0
   -6.6766   61.9826   77.7465 H   0  0  0  0  0  0  0  0  0  0  0  0
   -8.3796   60.7387   74.0546 H   0  0  0  0  0  0  0  0  0  0  0  0
   -9.9762   60.9031   74.8592 H   0  0  0  0  0  0  0  0  0  0  0  0
   -7.6652   62.5126   72.7263 H   0  0  0  0  0  0  0  0  0  0  0  0
   -7.7145   64.9242   72.1024 H   0  0  0  0  0  0  0  0  0  0  0  0
   -9.0646   66.5353   73.4459 H   0  0  0  0  0  0  0  0  0  0  0  0
  -10.3581   65.7332   75.4207 H   0  0  0  0  0  0  0  0  0  0  0  0
  -10.3093   63.3241   76.0522 H   0  0  0  0  0  0  0  0  0  0  0  0
   -4.3383   62.4955   76.3805 H   0  0  0  0  0  0  0  0  0  0  0  0
   -5.5717   62.2449   75.0563 H   0  0  0  0  0  0  0  0  0  0  0  0
   -4.9098   64.7258   74.5891 H   0  0  0  0  0  0  0  0  0  0  0  0
   -5.8060   67.0275   74.9220 H   0  0  0  0  0  0  0  0  0  0  0  0
   -7.3274   67.5120   76.8376 H   0  0  0  0  0  0  0  0  0  0  0  0
   -7.9574   65.6911   78.4182 H   0  0  0  0  0  0  0  0  0  0  0  0
   -7.0804   63.3847   78.0811 H   0  0  0  0  0  0  0  0  0  0  0  0
   -3.8580   58.4580   77.4368 H   0  0  0  0  0  0  0  0  0  0  0  0
   -4.2315   55.0630   78.4512 H   0  0  0  0  0  0  0  0  0  0  0  0
   -5.6816   56.0637   78.1548 H   0  0  0  0  0  0  0  0  0  0  0  0
   -4.5900   57.0355   76.2127 H   0  0  0  0  0  0  0  0  0  0  0  0
   -1.2651   57.1694   76.3907 H   0  0  0  0  0  0  0  0  0  0  0  0
   -0.6350   56.6603   74.7866 H   0  0  0  0  0  0  0  0  0  0  0  0
    0.1575   58.7028   73.8381 H   0  0  0  0  0  0  0  0  0  0  0  0
   -0.3676   60.9279   72.8542 H   0  0  0  0  0  0  0  0  0  0  0  0
   -2.6093   61.9593   73.2183 H   0  0  0  0  0  0  0  0  0  0  0  0
   -4.3278   60.7564   74.5645 H   0  0  0  0  0  0  0  0  0  0  0  0
   -3.8151   58.5216   75.5406 H   0  0  0  0  0  0  0  0  0  0  0  0
  2  1  1  0
  3  2  2  0
  4  2  1  0
  5  4  1  0
  6  5  2  0
  7  6  1  0
  8  7  2  0
  9  8  1  0
 10  9  2  0
 10  5  1  0
 11 10  1  0
 12 11  2  0
 13 12  1  0
 14 13  1  0
 15 14  1  0
 16 15  1  0
 17 16  1  0
 17 12  1  0
 18 17  2  0
 18  9  1  0
 19 18  1  0
 20 19  1  0
 21 20  1  0
 22 21  1  0
 23 22  1  0
 24 23  1  0
 25 24  1  0
 26 24  1  0
 27 26  1  0
 28 27  1  0
 29 28  1  0
 30 29  1  0
 31 30  1  0
 32 31  1  0
 33 32  1  0
 34 33  1  0
 35 34  1  0
 36 31  2  0
 36 35  1  0
 37 36  1  0
 38 37  2  0
 39 38  1  0
 39 30  2  0
 40 39  1  0
 41 40  2  0
 42 41  1  0
 43 42  2  0
 43 38  1  0
 45 44  2  0
 46 45  1  0
 46  1  1  0
 47 45  1  0
 48 47  1  0
 49 48  1  0
 50 49  1  0
 51 50  2  0
 52 50  1  0
 53 52  1  0
 54 53  1  0
 55 54  2  0
 56 54  1  0
 57 56  1  0
 58 57  1  0
 59 58  2  0
 60 59  1  0
 61 60  2  0
 62 61  1  0
 63 62  2  0
 63 58  1  0
 64 53  1  0
 65 64  1  0
 66 65  2  0
 67 66  1  0
 68 67  2  0
 69 68  1  0
 70 69  2  0
 70 65  1  0
 71 49  1  0
 72 71  1  0
 73 72  2  0
 74 72  1  0
 75 74  1  0
 76 75  1  0
 77 76  2  0
 78 76  1  0
 79 78  1  0
 80 79  1  0
 81 80  2  0
 82 81  1  0
 83 82  2  0
 84 83  1  0
 85 84  2  0
 85 80  1  0
  1 86  1  0
  1 87  1  0
  4 88  1  0
  6 89  1  0
  7 90  1  0
  8 91  1  0
 13 92  1  0
 13 93  1  0
 14 94  1  0
 14 95  1  0
 15 96  1  0
 15 97  1  0
 16 98  1  0
 16 99  1  0
 19100  1  0
 20101  1  0
 20102  1  0
 21103  1  0
 21104  1  0
 22105  1  0
 22106  1  0
 23107  1  0
 23108  1  0
 24109  1  1
 25110  1  0
 25111  1  0
 25112  1  0
 26113  1  0
 26114  1  0
 27115  1  0
 27116  1  0
 28117  1  0
 28118  1  0
 29119  1  0
 32120  1  0
 32121  1  0
 33122  1  0
 33123  1  0
 34124  1  0
 34125  1  0
 35126  1  0
 35127  1  0
 40128  1  0
 41129  1  0
 42130  1  0
 43131  1  0
 46132  1  0
 47133  1  0
 47134  1  0
 48135  1  0
 48136  1  0
 49137  1  1
 52138  1  0
 53139  1  1
 57140  1  0
 57141  1  0
 59142  1  0
 60143  1  0
 61144  1  0
 62145  1  0
 63146  1  0
 64147  1  0
 64148  1  0
 66149  1  0
 67150  1  0
 68151  1  0
 69152  1  0
 70153  1  0
 71154  1  0
 74155  1  0
 74156  1  0
 75157  1  0
 79158  1  0
 79159  1  0
 81160  1  0
 82161  1  0
 83162  1  0
 84163  1  0
 85164  1  0
M  CHG  1  24   1
M  END
>  <score>  (5) 
-10.18

$$$$
=
     RDKit          3D

164172  0  0  0  0  0  0  0  0999 V2000
    4.5130   58.8820   74.2810 C   0  0  0  0  0  0  0  0  0  0  0  0
    4.3750   60.0120   73.2490 C   0  0  0  0  0  0  0  0  0  0  0  0
    5.2780   60.8430   73.1360 O   0  0  0  0  0  0  0  0  0  0  0  0
    3.2580   59.9360   72.4490 N   0  0  0  0  0  0  0  0  0  0  0  0
    2.8430   60.8240   71.4230 C   0  0  0  0  0  0  0  0  0  0  0  0
    3.2080   60.6560   70.0850 C   0  0  0  0  0  0  0  0  0  0  0  0
    2.7740   61.5580   69.1230 C   0  0  0  0  0  0  0  0  0  0  0  0
    1.9730   62.6320   69.5000 C   0  0  0  0  0  0  0  0  0  0  0  0
    1.5910   62.8340   70.8500 C   0  0  0  0  0  0  0  0  0  0  0  0
    2.0470   61.9140   71.8180 C   0  0  0  0  0  0  0  0  0  0  0  0
    1.7550   62.0620   73.1260 N   0  0  0  0  0  0  0  0  0  0  0  0
    0.9960   63.1030   73.5380 C   0  0  0  0  0  0  0  0  0  0  0  0
    0.7680   63.1710   75.0270 C   0  0  0  0  0  0  0  0  0  0  0  0
   -0.3450   64.1280   75.4360 C   0  0  0  0  0  0  0  0  0  0  0  0
   -0.1880   65.4470   74.6980 C   0  0  0  0  0  0  0  0  0  0  0  0
   -0.3210   65.2230   73.1930 C   0  0  0  0  0  0  0  0  0  0  0  0
    0.5010   64.0730   72.6700 C   0  0  0  0  0  0  0  0  0  0  0  0
    0.7790   63.9220   71.2990 C   0  0  0  0  0  0  0  0  0  0  0  0
    0.1970   64.8570   70.3670 N   0  0  0  0  0  0  0  0  0  0  0  0
    1.0690   66.0290   70.1670 C   0  0  0  0  0  0  0  0  0  0  0  0
    0.5170   66.9590   69.0840 C   0  0  0  0  0  0  0  0  0  0  0  0
   -0.6980   66.4380   68.3050 C   0  0  0  0  0  0  0  0  0  0  0  0
   -1.7400   67.5080   68.0040 C   0  0  0  0  0  0  0  0  0  0  0  0
   -1.7120   67.8930   66.5360 N   0  0  1  0  0  4  0  0  0  0  0  0
   -3.0800   68.2950   66.0470 C   0  0  0  0  0  0  0  0  0  0  0  0
   -0.6320   68.8710   66.1000 C   0  0  0  0  0  0  0  0  0  0  0  0
   -0.2990   69.9070   67.1680 C   0  0  0  0  0  0  0  0  0  0  0  0
    1.1920   69.8870   67.5120 C   0  0  0  0  0  0  0  0  0  0  0  0
    1.8700   68.7710   66.8330 N   0  0  0  0  0  0  0  0  0  0  0  0
    3.1110   69.1750   66.2350 C   0  0  0  0  0  0  0  0  0  0  0  0
    4.1240   69.6810   67.0600 C   0  0  0  0  0  0  0  0  0  0  0  0
    3.9840   69.9330   68.5340 C   0  0  0  0  0  0  0  0  0  0  0  0
    4.6140   71.2690   68.9410 C   0  0  0  0  0  0  0  0  0  0  0  0
    5.9780   71.5590   68.3000 C   0  0  0  0  0  0  0  0  0  0  0  0
    6.4750   70.4620   67.3610 C   0  0  0  0  0  0  0  0  0  0  0  0
    5.3590   69.9670   66.4790 C   0  0  0  0  0  0  0  0  0  0  0  0
    5.6250   69.8010   65.1690 N   0  0  0  0  0  0  0  0  0  0  0  0
    4.6440   69.3730   64.3640 C   0  0  0  0  0  0  0  0  0  0  0  0
    3.3530   69.0430   64.8330 C   0  0  0  0  0  0  0  0  0  0  0  0
    2.3870   68.6130   63.8840 C   0  0  0  0  0  0  0  0  0  0  0  0
    2.6950   68.5000   62.5290 C   0  0  0  0  0  0  0  0  0  0  0  0
    3.9710   68.8180   62.0910 C   0  0  0  0  0  0  0  0  0  0  0  0
    4.9270   69.2500   63.0110 C   0  0  0  0  0  0  0  0  0  0  0  0
    1.9620   57.7310   73.9350 O   0  0  0  0  0  0  0  0  0  0  0  0
    2.3630   57.9820   75.0670 C   0  0  0  0  0  0  0  0  0  0  0  0
    3.4840   58.7370   75.3050 N   0  0  0  0  0  0  0  0  0  0  0  0
    1.6380   57.5080   76.3050 C   0  0  0  0  0  0  0  0  0  0  0  0
    1.4490   58.5880   77.3670 C   0  0  0  0  0  0  0  0  0  0  0  0
    0.6170   59.8140   76.9730 C   0  0  1  0  0  0  0  0  0  0  0  0
   -0.4700   59.4470   75.9440 C   0  0  0  0  0  0  0  0  0  0  0  0
   -0.4620   59.8910   74.7960 O   0  0  0  0  0  0  0  0  0  0  0  0
   -1.4880   58.6650   76.4300 N   0  0  0  0  0  0  0  0  0  0  0  0
   -2.5770   58.1870   75.5670 C   0  0  2  0  0  0  0  0  0  0  0  0
   -3.8000   59.0470   75.8770 C   0  0  0  0  0  0  0  0  0  0  0  0
   -4.1140   59.3880   77.0140 O   0  0  0  0  0  0  0  0  0  0  0  0
   -4.4630   59.3710   74.7380 O   0  0  0  0  0  0  0  0  0  0  0  0
   -5.7530   58.7730   74.5730 C   0  0  0  0  0  0  0  0  0  0  0  0
   -6.7930   59.8560   74.4520 C   0  0  0  0  0  0  0  0  0  0  0  0
   -7.0300   60.4760   73.2170 C   0  0  0  0  0  0  0  0  0  0  0  0
   -7.9810   61.4910   73.1060 C   0  0  0  0  0  0  0  0  0  0  0  0
   -8.6980   61.9010   74.2290 C   0  0  0  0  0  0  0  0  0  0  0  0
   -8.4630   61.2990   75.4640 C   0  0  0  0  0  0  0  0  0  0  0  0
   -7.5130   60.2830   75.5760 C   0  0  0  0  0  0  0  0  0  0  0  0
   -2.8850   56.7090   75.8420 C   0  0  0  0  0  0  0  0  0  0  0  0
   -1.7430   55.7820   75.5030 C   0  0  0  0  0  0  0  0  0  0  0  0
   -1.0900   55.8770   74.2680 C   0  0  0  0  0  0  0  0  0  0  0  0
   -0.0300   55.0210   73.9630 C   0  0  0  0  0  0  0  0  0  0  0  0
    0.3830   54.0620   74.8860 C   0  0  0  0  0  0  0  0  0  0  0  0
   -0.2630   53.9600   76.1170 C   0  0  0  0  0  0  0  0  0  0  0  0
   -1.3200   54.8170   76.4260 C   0  0  0  0  0  0  0  0  0  0  0  0
   -0.0230   60.4600   78.1110 N   0  0  0  0  0  0  0  0  0  0  0  0
    0.6000   61.5260   78.7340 C   0  0  0  0  0  0  0  0  0  0  0  0
    1.7700   61.8400   78.5240 O   0  0  0  0  0  0  0  0  0  0  0  0
   -0.3230   62.3780   79.6010 C   0  0  0  0  0  0  0  0  0  0  0  0
   -1.0230   63.3040   78.7370 N   0  0  0  0  0  0  0  0  0  0  0  0
   -2.0270   64.0840   79.2240 C   0  0  0  0  0  0  0  0  0  0  0  0
   -2.3000   64.2030   80.4100 O   0  0  0  0  0  0  0  0  0  0  0  0
   -2.6900   64.6570   78.1980 O   0  0  0  0  0  0  0  0  0  0  0  0
   -3.3650   63.7120   77.3620 C   0  0  0  0  0  0  0  0  0  0  0  0
   -4.3390   64.4360   76.4640 C   0  0  0  0  0  0  0  0  0  0  0  0
   -4.1530   65.7880   76.1440 C   0  0  0  0  0  0  0  0  0  0  0  0
   -5.0260   66.4400   75.2710 C   0  0  0  0  0  0  0  0  0  0  0  0
   -6.0940   65.7460   74.7070 C   0  0  0  0  0  0  0  0  0  0  0  0
   -6.2880   64.4010   75.0120 C   0  0  0  0  0  0  0  0  0  0  0  0
   -5.4120   63.7460   75.8820 C   0  0  0  0  0  0  0  0  0  0  0  0
    4.5483   57.9355   73.7216 H   0  0  0  0  0  0  0  0  0  0  0  0
    5.4174   59.1479   74.8479 H   0  0  0  0  0  0  0  0  0  0  0  0
    2.6418   59.1279   72.6171 H   0  0  0  0  0  0  0  0  0  0  0  0
    3.8417   59.8058   69.7926 H   0  0  0  0  0  0  0  0  0  0  0  0
    3.0613   61.4247   68.0696 H   0  0  0  0  0  0  0  0  0  0  0  0
    1.6284   63.3406   68.7324 H   0  0  0  0  0  0  0  0  0  0  0  0
    0.5079   62.1637   75.3843 H   0  0  0  0  0  0  0  0  0  0  0  0
    1.6977   63.5503   75.4763 H   0  0  0  0  0  0  0  0  0  0  0  0
   -1.3193   63.6832   75.1853 H   0  0  0  0  0  0  0  0  0  0  0  0
   -0.2876   64.3094   76.5194 H   0  0  0  0  0  0  0  0  0  0  0  0
   -0.9682   66.1466   75.0324 H   0  0  0  0  0  0  0  0  0  0  0  0
    0.8061   65.8654   74.9142 H   0  0  0  0  0  0  0  0  0  0  0  0
   -1.3786   65.0243   72.9649 H   0  0  0  0  0  0  0  0  0  0  0  0
    0.0544   66.1325   72.7012 H   0  0  0  0  0  0  0  0  0  0  0  0
   -0.7116   64.7229   69.9009 H   0  0  0  0  0  0  0  0  0  0  0  0
    1.1426   66.5856   71.1129 H   0  0  0  0  0  0  0  0  0  0  0  0
    2.0586   65.6726   69.8450 H   0  0  0  0  0  0  0  0  0  0  0  0
    0.2270   67.9036   69.5674 H   0  0  0  0  0  0  0  0  0  0  0  0
    1.3229   67.0616   68.3424 H   0  0  0  0  0  0  0  0  0  0  0  0
   -0.3449   66.0195   67.3509 H   0  0  0  0  0  0  0  0  0  0  0  0
   -1.1867   65.6843   68.9399 H   0  0  0  0  0  0  0  0  0  0  0  0
   -2.7380   67.1198   68.2556 H   0  0  0  0  0  0  0  0  0  0  0  0
   -1.5120   68.4000   68.6059 H   0  0  0  0  0  0  0  0  0  0  0  0
   -1.4259   67.0233   66.0641 H   0  0  0  0  0  0  0  0  0  0  0  0
   -3.7356   68.4876   66.9091 H   0  0  0  0  0  0  0  0  0  0  0  0
   -2.9982   69.2071   65.4375 H   0  0  0  0  0  0  0  0  0  0  0  0
   -3.5046   67.4836   65.4375 H   0  0  0  0  0  0  0  0  0  0  0  0
    0.2807   68.3035   65.8657 H   0  0  0  0  0  0  0  0  0  0  0  0
   -1.0148   69.4140   65.2233 H   0  0  0  0  0  0  0  0  0  0  0  0
   -0.5678   70.9062   66.7949 H   0  0  0  0  0  0  0  0  0  0  0  0
   -0.8696   69.6662   68.0771 H   0  0  0  0  0  0  0  0  0  0  0  0
    1.6488   70.8350   67.1917 H   0  0  0  0  0  0  0  0  0  0  0  0
    1.3014   69.7573   68.5988 H   0  0  0  0  0  0  0  0  0  0  0  0
    1.4974   67.8116   66.7917 H   0  0  0  0  0  0  0  0  0  0  0  0
    2.9151   69.9488   68.7933 H   0  0  0  0  0  0  0  0  0  0  0  0
    4.5072   69.1284   69.0714 H   0  0  0  0  0  0  0  0  0  0  0  0
    3.9226   72.0750   68.6539 H   0  0  0  0  0  0  0  0  0  0  0  0
    4.7874   71.2120   70.0257 H   0  0  0  0  0  0  0  0  0  0  0  0
    5.8975   72.4939   67.7260 H   0  0  0  0  0  0  0  0  0  0  0  0
    6.7058   71.6246   69.1222 H   0  0  0  0  0  0  0  0  0  0  0  0
    7.2813   70.8649   66.7305 H   0  0  0  0  0  0  0  0  0  0  0  0
    6.8458   69.6213   67.9658 H   0  0  0  0  0  0  0  0  0  0  0  0
    1.3719   68.3633   64.2265 H   0  0  0  0  0  0  0  0  0  0  0  0
    1.9315   68.1612   61.8133 H   0  0  0  0  0  0  0  0  0  0  0  0
    4.2283   68.7304   61.0251 H   0  0  0  0  0  0  0  0  0  0  0  0
    5.9363   69.5009   62.6527 H   0  0  0  0  0  0  0  0  0  0  0  0
    3.5999   59.2056   76.2149 H   0  0  0  0  0  0  0  0  0  0  0  0
    0.6455   57.1407   76.0050 H   0  0  0  0  0  0  0  0  0  0  0  0
    2.2618   56.7231   76.7576 H   0  0  0  0  0  0  0  0  0  0  0  0
    0.9594   58.1193   78.2334 H   0  0  0  0  0  0  0  0  0  0  0  0
    2.4591   58.9785   77.5600 H   0  0  0  0  0  0  0  0  0  0  0  0
    1.3340   60.5219   76.5317 H   0  0  0  0  0  0  0  0  0  0  0  0
   -1.4886   58.4062   77.4269 H   0  0  0  0  0  0  0  0  0  0  0  0
   -2.2923   58.2685   74.5076 H   0  0  0  0  0  0  0  0  0  0  0  0
   -5.7579   58.1557   73.6626 H   0  0  0  0  0  0  0  0  0  0  0  0
   -5.9797   58.1406   75.4440 H   0  0  0  0  0  0  0  0  0  0  0  0
   -6.4623   60.1601   72.3294 H   0  0  0  0  0  0  0  0  0  0  0  0
   -8.1650   61.9678   72.1320 H   0  0  0  0  0  0  0  0  0  0  0  0
   -9.4492   62.6996   74.1405 H   0  0  0  0  0  0  0  0  0  0  0  0
   -9.0266   61.6249   76.3506 H   0  0  0  0  0  0  0  0  0  0  0  0
   -7.3279   59.8139   76.5536 H   0  0  0  0  0  0  0  0  0  0  0  0
   -3.1200   56.5954   76.9106 H   0  0  0  0  0  0  0  0  0  0  0  0
   -3.7307   56.4295   75.1965 H   0  0  0  0  0  0  0  0  0  0  0  0
   -1.4138   56.6299   73.5343 H   0  0  0  0  0  0  0  0  0  0  0  0
    0.4803   55.1037   72.9920 H   0  0  0  0  0  0  0  0  0  0  0  0
    1.2170   53.3870   74.6436 H   0  0  0  0  0  0  0  0  0  0  0  0
    0.0610   53.2027   76.8460 H   0  0  0  0  0  0  0  0  0  0  0  0
   -1.8240   54.7343   77.4002 H   0  0  0  0  0  0  0  0  0  0  0  0
   -0.9357   60.1242   78.4503 H   0  0  0  0  0  0  0  0  0  0  0  0
   -1.0468   61.7330   80.1207 H   0  0  0  0  0  0  0  0  0  0  0  0
    0.2611   62.9269   80.3544 H   0  0  0  0  0  0  0  0  0  0  0  0
   -0.7591   63.3737   77.7438 H   0  0  0  0  0  0  0  0  0  0  0  0
   -2.6279   63.1760   76.7460 H   0  0  0  0  0  0  0  0  0  0  0  0
   -3.9118   62.9934   77.9902 H   0  0  0  0  0  0  0  0  0  0  0  0
   -3.3106   66.3409   76.5852 H   0  0  0  0  0  0  0  0  0  0  0  0
   -4.8704   67.5016   75.0286 H   0  0  0  0  0  0  0  0  0  0  0  0
   -6.7837   66.2599   74.0212 H   0  0  0  0  0  0  0  0  0  0  0  0
   -7.1321   63.8533   74.5674 H   0  0  0  0  0  0  0  0  0  0  0  0
   -5.5654   62.6813   76.1119 H   0  0  0  0  0  0  0  0  0  0  0  0
  2  1  1  0
  3  2  2  0
  4  2  1  0
  5  4  1  0
  6  5  2  0
  7  6  1  0
  8  7  2  0
  9  8  1  0
 10  9  2  0
 10  5  1  0
 11 10  1  0
 12 11  2  0
 13 12  1  0
 14 13  1  0
 15 14  1  0
 16 15  1  0
 17 16  1  0
 17 12  1  0
 18 17  2  0
 18  9  1  0
 19 18  1  0
 20 19  1  0
 21 20  1  0
 22 21  1  0
 23 22  1  0
 24 23  1  0
 25 24  1  0
 26 24  1  0
 27 26  1  0
 28 27  1  0
 29 28  1  0
 30 29  1  0
 31 30  1  0
 32 31  1  0
 33 32  1  0
 34 33  1  0
 35 34  1  0
 36 31  2  0
 36 35  1  0
 37 36  1  0
 38 37  2  0
 39 38  1  0
 39 30  2  0
 40 39  1  0
 41 40  2  0
 42 41  1  0
 43 42  2  0
 43 38  1  0
 45 44  2  0
 46 45  1  0
 46  1  1  0
 47 45  1  0
 48 47  1  0
 49 48  1  0
 50 49  1  0
 51 50  2  0
 52 50  1  0
 53 52  1  0
 54 53  1  0
 55 54  2  0
 56 54  1  0
 57 56  1  0
 58 57  1  0
 59 58  2  0
 60 59  1  0
 61 60  2  0
 62 61  1  0
 63 62  2  0
 63 58  1  0
 64 53  1  0
 65 64  1  0
 66 65  2  0
 67 66  1  0
 68 67  2  0
 69 68  1  0
 70 69  2  0
 70 65  1  0
 71 49  1  0
 72 71  1  0
 73 72  2  0
 74 72  1  0
 75 74  1  0
 76 75  1  0
 77 76  2  0
 78 76  1  0
 79 78  1  0
 80 79  1  0
 81 80  2  0
 82 81  1  0
 83 82  2  0
 84 83  1  0
 85 84  2  0
 85 80  1  0
  1 86  1  0
  1 87  1  0
  4 88  1  0
  6 89  1  0
  7 90  1  0
  8 91  1  0
 13 92  1  0
 13 93  1  0
 14 94  1  0
 14 95  1  0
 15 96  1  0
 15 97  1  0
 16 98  1  0
 16 99  1  0
 19100  1  0
 20101  1  0
 20102  1  0
 21103  1  0
 21104  1  0
 22105  1  0
 22106  1  0
 23107  1  0
 23108  1  0
 24109  1  6
 25110  1  0
 25111  1  0
 25112  1  0
 26113  1  0
 26114  1  0
 27115  1  0
 27116  1  0
 28117  1  0
 28118  1  0
 29119  1  0
 32120  1  0
 32121  1  0
 33122  1  0
 33123  1  0
 34124  1  0
 34125  1  0
 35126  1  0
 35127  1  0
 40128  1  0
 41129  1  0
 42130  1  0
 43131  1  0
 46132  1  0
 47133  1  0
 47134  1  0
 48135  1  0
 48136  1  0
 49137  1  6
 52138  1  0
 53139  1  6
 57140  1  0
 57141  1  0
 59142  1  0
 60143  1  0
 61144  1  0
 62145  1  0
 63146  1  0
 64147  1  0
 64148  1  0
 66149  1  0
 67150  1  0
 68151  1  0
 69152  1  0
 70153  1  0
 71154  1  0
 74155  1  0
 74156  1  0
 75157  1  0
 79158  1  0
 79159  1  0
 81160  1  0
 82161  1  0
 83162  1  0
 84163  1  0
 85164  1  0
M  CHG  1  24   1
M  END
>  <score>  (6) 
-9.985

$$$$
=
     RDKit          3D

164172  0  0  0  0  0  0  0  0999 V2000
   -1.6710   62.3920   75.5690 C   0  0  0  0  0  0  0  0  0  0  0  0
   -0.5480   63.0680   74.7660 C   0  0  0  0  0  0  0  0  0  0  0  0
    0.4080   63.5640   75.3620 O   0  0  0  0  0  0  0  0  0  0  0  0
   -0.6710   62.9690   73.3990 N   0  0  0  0  0  0  0  0  0  0  0  0
    0.1820   63.4940   72.3950 C   0  0  0  0  0  0  0  0  0  0  0  0
    0.0710   64.8040   71.9180 C   0  0  0  0  0  0  0  0  0  0  0  0
    0.9330   65.2640   70.9330 C   0  0  0  0  0  0  0  0  0  0  0  0
    1.9080   64.4140   70.4200 C   0  0  0  0  0  0  0  0  0  0  0  0
    2.0420   63.0790   70.8770 C   0  0  0  0  0  0  0  0  0  0  0  0
    1.1540   62.6210   71.8730 C   0  0  0  0  0  0  0  0  0  0  0  0
    1.1970   61.3540   72.3300 N   0  0  0  0  0  0  0  0  0  0  0  0
    2.1160   60.4880   71.8450 C   0  0  0  0  0  0  0  0  0  0  0  0
    2.0390   59.0950   72.4160 C   0  0  0  0  0  0  0  0  0  0  0  0
    3.2660   58.2410   72.1240 C   0  0  0  0  0  0  0  0  0  0  0  0
    3.6460   58.3690   70.6570 C   0  0  0  0  0  0  0  0  0  0  0  0
    4.0200   59.8150   70.3380 C   0  0  0  0  0  0  0  0  0  0  0  0
    3.0340   60.8320   70.8560 C   0  0  0  0  0  0  0  0  0  0  0  0
    3.0170   62.1560   70.3830 C   0  0  0  0  0  0  0  0  0  0  0  0
    4.0200   62.5660   69.4300 N   0  0  0  0  0  0  0  0  0  0  0  0
    3.5480   62.3900   68.0450 C   0  0  0  0  0  0  0  0  0  0  0  0
    3.8390   63.6270   67.1930 C   0  0  0  0  0  0  0  0  0  0  0  0
    3.6780   63.4530   65.6770 C   0  0  0  0  0  0  0  0  0  0  0  0
    3.4090   64.7550   64.9330 C   0  0  0  0  0  0  0  0  0  0  0  0
    4.4970   65.0300   63.9110 N   0  0  1  0  0  4  0  0  0  0  0  0
    5.2300   63.7680   63.5340 C   0  0  0  0  0  0  0  0  0  0  0  0
    4.1070   65.8580   62.6960 C   0  0  0  0  0  0  0  0  0  0  0  0
    4.7670   67.2320   62.6750 C   0  0  0  0  0  0  0  0  0  0  0  0
    5.0800   67.7160   64.0930 C   0  0  0  0  0  0  0  0  0  0  0  0
    4.6130   69.0980   64.2880 N   0  0  0  0  0  0  0  0  0  0  0  0
    3.9180   69.2630   65.5330 C   0  0  0  0  0  0  0  0  0  0  0  0
    2.5970   68.8090   65.6340 C   0  0  0  0  0  0  0  0  0  0  0  0
    1.7970   68.2410   64.4970 C   0  0  0  0  0  0  0  0  0  0  0  0
    0.3620   68.7800   64.4910 C   0  0  0  0  0  0  0  0  0  0  0  0
   -0.3080   68.8360   65.8710 C   0  0  0  0  0  0  0  0  0  0  0  0
    0.5730   68.3450   67.0170 C   0  0  0  0  0  0  0  0  0  0  0  0
    1.9750   68.8780   66.8800 C   0  0  0  0  0  0  0  0  0  0  0  0
    2.5660   69.3730   67.9840 N   0  0  0  0  0  0  0  0  0  0  0  0
    3.8080   69.8630   67.8830 C   0  0  0  0  0  0  0  0  0  0  0  0
    4.5460   69.8430   66.6780 C   0  0  0  0  0  0  0  0  0  0  0  0
    5.8520   70.4040   66.6860 C   0  0  0  0  0  0  0  0  0  0  0  0
    6.4060   70.9480   67.8440 C   0  0  0  0  0  0  0  0  0  0  0  0
    5.6690   70.9470   69.0180 C   0  0  0  0  0  0  0  0  0  0  0  0
    4.3830   70.4070   69.0220 C   0  0  0  0  0  0  0  0  0  0  0  0
   -2.4760   63.2610   78.1270 O   0  0  0  0  0  0  0  0  0  0  0  0
   -1.9550   62.1580   78.0010 C   0  0  0  0  0  0  0  0  0  0  0  0
   -1.3410   61.7570   76.8410 N   0  0  0  0  0  0  0  0  0  0  0  0
   -1.9160   61.1490   79.1250 C   0  0  0  0  0  0  0  0  0  0  0  0
   -3.2670   60.9120   79.7950 C   0  0  0  0  0  0  0  0  0  0  0  0
   -4.2660   60.0160   79.0520 C   0  0  1  0  0  0  0  0  0  0  0  0
   -5.3110   60.8550   78.2900 C   0  0  0  0  0  0  0  0  0  0  0  0
   -6.2100   61.4650   78.8710 O   0  0  0  0  0  0  0  0  0  0  0  0
   -5.2190   60.7950   76.9230 N   0  0  0  0  0  0  0  0  0  0  0  0
   -6.1090   61.5740   76.0510 C   0  0  2  0  0  0  0  0  0  0  0  0
   -6.5020   60.6630   74.8900 C   0  0  0  0  0  0  0  0  0  0  0  0
   -5.7200   59.8880   74.3470 O   0  0  0  0  0  0  0  0  0  0  0  0
   -7.8080   60.8330   74.5640 O   0  0  0  0  0  0  0  0  0  0  0  0
   -8.0640   61.4060   73.2780 C   0  0  0  0  0  0  0  0  0  0  0  0
   -8.6930   62.7640   73.4530 C   0  0  0  0  0  0  0  0  0  0  0  0
   -9.5250   63.0230   74.5500 C   0  0  0  0  0  0  0  0  0  0  0  0
  -10.1230   64.2740   74.7050 C   0  0  0  0  0  0  0  0  0  0  0  0
   -9.9000   65.2750   73.7600 C   0  0  0  0  0  0  0  0  0  0  0  0
   -9.0830   65.0250   72.6590 C   0  0  0  0  0  0  0  0  0  0  0  0
   -8.4840   63.7740   72.5040 C   0  0  0  0  0  0  0  0  0  0  0  0
   -5.3990   62.8280   75.5230 C   0  0  0  0  0  0  0  0  0  0  0  0
   -6.1450   64.1080   75.8110 C   0  0  0  0  0  0  0  0  0  0  0  0
   -6.0050   65.2200   74.9700 C   0  0  0  0  0  0  0  0  0  0  0  0
   -6.7020   66.4000   75.2370 C   0  0  0  0  0  0  0  0  0  0  0  0
   -7.5420   66.4790   76.3470 C   0  0  0  0  0  0  0  0  0  0  0  0
   -7.6860   65.3780   77.1890 C   0  0  0  0  0  0  0  0  0  0  0  0
   -6.9940   64.1970   76.9220 C   0  0  0  0  0  0  0  0  0  0  0  0
   -3.6270   59.1070   78.1090 N   0  0  0  0  0  0  0  0  0  0  0  0
   -3.5140   57.7650   78.4220 C   0  0  0  0  0  0  0  0  0  0  0  0
   -3.7290   57.3130   79.5450 O   0  0  0  0  0  0  0  0  0  0  0  0
   -3.2370   56.8600   77.2250 C   0  0  0  0  0  0  0  0  0  0  0  0
   -1.9340   57.1990   76.6960 N   0  0  0  0  0  0  0  0  0  0  0  0
   -1.8150   58.0340   75.6270 C   0  0  0  0  0  0  0  0  0  0  0  0
   -2.7330   58.6840   75.1490 O   0  0  0  0  0  0  0  0  0  0  0  0
   -0.5500   57.9890   75.1610 O   0  0  0  0  0  0  0  0  0  0  0  0
   -0.4360   57.3330   73.8930 C   0  0  0  0  0  0  0  0  0  0  0  0
    0.1500   55.9560   74.0870 C   0  0  0  0  0  0  0  0  0  0  0  0
   -0.6800   54.8320   74.2070 C   0  0  0  0  0  0  0  0  0  0  0  0
   -0.1330   53.5540   74.3330 C   0  0  0  0  0  0  0  0  0  0  0  0
    1.2500   53.3840   74.3370 C   0  0  0  0  0  0  0  0  0  0  0  0
    2.0860   54.4920   74.2140 C   0  0  0  0  0  0  0  0  0  0  0  0
    1.5400   55.7710   74.0830 C   0  0  0  0  0  0  0  0  0  0  0  0
   -2.4274   63.1626   75.7789 H   0  0  0  0  0  0  0  0  0  0  0  0
   -1.9899   61.5561   74.9290 H   0  0  0  0  0  0  0  0  0  0  0  0
   -1.4903   62.4446   73.0605 H   0  0  0  0  0  0  0  0  0  0  0  0
   -0.7024   65.4719   72.3252 H   0  0  0  0  0  0  0  0  0  0  0  0
    0.8462   66.2950   70.5596 H   0  0  0  0  0  0  0  0  0  0  0  0
    2.5904   64.7867   69.6419 H   0  0  0  0  0  0  0  0  0  0  0  0
    1.9231   59.1736   73.5070 H   0  0  0  0  0  0  0  0  0  0  0  0
    1.1826   58.5993   71.9356 H   0  0  0  0  0  0  0  0  0  0  0  0
    4.1047   58.5809   72.7494 H   0  0  0  0  0  0  0  0  0  0  0  0
    3.0379   57.1888   72.3495 H   0  0  0  0  0  0  0  0  0  0  0  0
    4.5050   57.7154   70.4449 H   0  0  0  0  0  0  0  0  0  0  0  0
    2.7886   58.0724   70.0349 H   0  0  0  0  0  0  0  0  0  0  0  0
    5.0020   60.0254   70.7868 H   0  0  0  0  0  0  0  0  0  0  0  0
    4.0267   59.9077   69.2419 H   0  0  0  0  0  0  0  0  0  0  0  0
    4.9473   62.9346   69.6851 H   0  0  0  0  0  0  0  0  0  0  0  0
    4.0576   61.5221   67.6011 H   0  0  0  0  0  0  0  0  0  0  0  0
    2.4593   62.2347   68.0681 H   0  0  0  0  0  0  0  0  0  0  0  0
    3.1545   64.4257   67.5146 H   0  0  0  0  0  0  0  0  0  0  0  0
    4.9032   63.8541   67.3539 H   0  0  0  0  0  0  0  0  0  0  0  0
    4.6031   63.0108   65.2786 H   0  0  0  0  0  0  0  0  0  0  0  0
    2.8010   62.8078   65.5203 H   0  0  0  0  0  0  0  0  0  0  0  0
    2.4404   64.6813   64.4168 H   0  0  0  0  0  0  0  0  0  0  0  0
    3.3947   65.5793   65.6613 H   0  0  0  0  0  0  0  0  0  0  0  0
    5.1429   65.6589   64.4092 H   0  0  0  0  0  0  0  0  0  0  0  0
    5.5386   63.2367   64.4464 H   0  0  0  0  0  0  0  0  0  0  0  0
    4.5665   63.1221   62.9402 H   0  0  0  0  0  0  0  0  0  0  0  0
    6.1198   64.0243   62.9402 H   0  0  0  0  0  0  0  0  0  0  0  0
    4.4055   65.3118   61.7891 H   0  0  0  0  0  0  0  0  0  0  0  0
    3.0193   66.0160   62.7408 H   0  0  0  0  0  0  0  0  0  0  0  0
    5.7036   67.1717   62.1013 H   0  0  0  0  0  0  0  0  0  0  0  0
    4.0722   67.9457   62.2082 H   0  0  0  0  0  0  0  0  0  0  0  0
    4.5763   67.0594   64.8177 H   0  0  0  0  0  0  0  0  0  0  0  0
    6.1693   67.6872   64.2432 H   0  0  0  0  0  0  0  0  0  0  0  0
    4.7669   69.8581   63.6102 H   0  0  0  0  0  0  0  0  0  0  0  0
    2.2837   68.5113   63.5483 H   0  0  0  0  0  0  0  0  0  0  0  0
    1.7534   67.1487   64.6194 H   0  0  0  0  0  0  0  0  0  0  0  0
    0.3805   69.7992   64.0775 H   0  0  0  0  0  0  0  0  0  0  0  0
   -0.2309   68.0782   63.8861 H   0  0  0  0  0  0  0  0  0  0  0  0
   -0.5893   69.8796   66.0754 H   0  0  0  0  0  0  0  0  0  0  0  0
   -1.1750   68.1603   65.8281 H   0  0  0  0  0  0  0  0  0  0  0  0
    0.1481   68.6890   67.9715 H   0  0  0  0  0  0  0  0  0  0  0  0
    0.6092   67.2460   66.9880 H   0  0  0  0  0  0  0  0  0  0  0  0
    6.4397   70.4091   65.7562 H   0  0  0  0  0  0  0  0  0  0  0  0
    7.4198   71.3746   67.8261 H   0  0  0  0  0  0  0  0  0  0  0  0
    6.0954   71.3691   69.9400 H   0  0  0  0  0  0  0  0  0  0  0  0
    3.8062   70.4127   69.9586 H   0  0  0  0  0  0  0  0  0  0  0  0
   -0.6414   61.0015   76.8683 H   0  0  0  0  0  0  0  0  0  0  0  0
   -1.5593   60.1914   78.7178 H   0  0  0  0  0  0  0  0  0  0  0  0
   -1.2462   61.5577   79.8959 H   0  0  0  0  0  0  0  0  0  0  0  0
   -3.0748   60.4523   80.7757 H   0  0  0  0  0  0  0  0  0  0  0  0
   -3.7447   61.9022   79.8321 H   0  0  0  0  0  0  0  0  0  0  0  0
   -4.7557   59.4160   79.8331 H   0  0  0  0  0  0  0  0  0  0  0  0
   -4.5061   60.1868   76.4955 H   0  0  0  0  0  0  0  0  0  0  0  0
   -6.9947   61.9121   76.6089 H   0  0  0  0  0  0  0  0  0  0  0  0
   -7.1178   61.5079   72.7264 H   0  0  0  0  0  0  0  0  0  0  0  0
   -8.7471   60.7539   72.7139 H   0  0  0  0  0  0  0  0  0  0  0  0
   -9.7081   62.2343   75.2946 H   0  0  0  0  0  0  0  0  0  0  0  0
  -10.7702   64.4707   75.5724 H   0  0  0  0  0  0  0  0  0  0  0  0
  -10.3691   66.2622   73.8837 H   0  0  0  0  0  0  0  0  0  0  0  0
   -8.9102   65.8138   71.9120 H   0  0  0  0  0  0  0  0  0  0  0  0
   -7.8435   63.5794   71.6311 H   0  0  0  0  0  0  0  0  0  0  0  0
   -4.4064   62.8901   75.9930 H   0  0  0  0  0  0  0  0  0  0  0  0
   -5.3370   62.7285   74.4293 H   0  0  0  0  0  0  0  0  0  0  0  0
   -5.3420   65.1630   74.0941 H   0  0  0  0  0  0  0  0  0  0  0  0
   -6.5883   67.2681   74.5710 H   0  0  0  0  0  0  0  0  0  0  0  0
   -8.0902   67.4091   76.5578 H   0  0  0  0  0  0  0  0  0  0  0  0
   -8.3469   65.4406   78.0661 H   0  0  0  0  0  0  0  0  0  0  0  0
   -7.1155   63.3299   77.5879 H   0  0  0  0  0  0  0  0  0  0  0  0
   -3.2615   59.4624   77.2140 H   0  0  0  0  0  0  0  0  0  0  0  0
   -3.2475   55.8072   77.5435 H   0  0  0  0  0  0  0  0  0  0  0  0
   -4.0092   57.0011   76.4544 H   0  0  0  0  0  0  0  0  0  0  0  0
   -1.0882   56.8050   77.1321 H   0  0  0  0  0  0  0  0  0  0  0  0
   -1.4323   57.2458   73.4349 H   0  0  0  0  0  0  0  0  0  0  0  0
    0.2212   57.9206   73.2352 H   0  0  0  0  0  0  0  0  0  0  0  0
   -1.7727   54.9587   74.2018 H   0  0  0  0  0  0  0  0  0  0  0  0
   -0.7943   52.6803   74.4292 H   0  0  0  0  0  0  0  0  0  0  0  0
    1.6811   52.3769   74.4371 H   0  0  0  0  0  0  0  0  0  0  0  0
    3.1779   54.3592   74.2201 H   0  0  0  0  0  0  0  0  0  0  0  0
    2.2058   56.6401   73.9758 H   0  0  0  0  0  0  0  0  0  0  0  0
  2  1  1  0
  3  2  2  0
  4  2  1  0
  5  4  1  0
  6  5  2  0
  7  6  1  0
  8  7  2  0
  9  8  1  0
 10  9  2  0
 10  5  1  0
 11 10  1  0
 12 11  2  0
 13 12  1  0
 14 13  1  0
 15 14  1  0
 16 15  1  0
 17 16  1  0
 17 12  1  0
 18 17  2  0
 18  9  1  0
 19 18  1  0
 20 19  1  0
 21 20  1  0
 22 21  1  0
 23 22  1  0
 24 23  1  0
 25 24  1  0
 26 24  1  0
 27 26  1  0
 28 27  1  0
 29 28  1  0
 30 29  1  0
 31 30  1  0
 32 31  1  0
 33 32  1  0
 34 33  1  0
 35 34  1  0
 36 31  2  0
 36 35  1  0
 37 36  1  0
 38 37  2  0
 39 38  1  0
 39 30  2  0
 40 39  1  0
 41 40  2  0
 42 41  1  0
 43 42  2  0
 43 38  1  0
 45 44  2  0
 46 45  1  0
 46  1  1  0
 47 45  1  0
 48 47  1  0
 49 48  1  0
 50 49  1  0
 51 50  2  0
 52 50  1  0
 53 52  1  0
 54 53  1  0
 55 54  2  0
 56 54  1  0
 57 56  1  0
 58 57  1  0
 59 58  2  0
 60 59  1  0
 61 60  2  0
 62 61  1  0
 63 62  2  0
 63 58  1  0
 64 53  1  0
 65 64  1  0
 66 65  2  0
 67 66  1  0
 68 67  2  0
 69 68  1  0
 70 69  2  0
 70 65  1  0
 71 49  1  0
 72 71  1  0
 73 72  2  0
 74 72  1  0
 75 74  1  0
 76 75  1  0
 77 76  2  0
 78 76  1  0
 79 78  1  0
 80 79  1  0
 81 80  2  0
 82 81  1  0
 83 82  2  0
 84 83  1  0
 85 84  2  0
 85 80  1  0
  1 86  1  0
  1 87  1  0
  4 88  1  0
  6 89  1  0
  7 90  1  0
  8 91  1  0
 13 92  1  0
 13 93  1  0
 14 94  1  0
 14 95  1  0
 15 96  1  0
 15 97  1  0
 16 98  1  0
 16 99  1  0
 19100  1  0
 20101  1  0
 20102  1  0
 21103  1  0
 21104  1  0
 22105  1  0
 22106  1  0
 23107  1  0
 23108  1  0
 24109  1  1
 25110  1  0
 25111  1  0
 25112  1  0
 26113  1  0
 26114  1  0
 27115  1  0
 27116  1  0
 28117  1  0
 28118  1  0
 29119  1  0
 32120  1  0
 32121  1  0
 33122  1  0
 33123  1  0
 34124  1  0
 34125  1  0
 35126  1  0
 35127  1  0
 40128  1  0
 41129  1  0
 42130  1  0
 43131  1  0
 46132  1  0
 47133  1  0
 47134  1  0
 48135  1  0
 48136  1  0
 49137  1  1
 52138  1  0
 53139  1  1
 57140  1  0
 57141  1  0
 59142  1  0
 60143  1  0
 61144  1  0
 62145  1  0
 63146  1  0
 64147  1  0
 64148  1  0
 66149  1  0
 67150  1  0
 68151  1  0
 69152  1  0
 70153  1  0
 71154  1  0
 74155  1  0
 74156  1  0
 75157  1  0
 79158  1  0
 79159  1  0
 81160  1  0
 82161  1  0
 83162  1  0
 84163  1  0
 85164  1  0
M  CHG  1  24   1
M  END
>  <score>  (7) 
-9.972

$$$$
=
     RDKit          3D

164172  0  0  0  0  0  0  0  0999 V2000
   -0.8850   63.8850   76.2440 C   0  0  0  0  0  0  0  0  0  0  0  0
    0.0130   64.4450   75.1290 C   0  0  0  0  0  0  0  0  0  0  0  0
    0.9930   65.1290   75.4280 O   0  0  0  0  0  0  0  0  0  0  0  0
   -0.3160   64.0360   73.8570 N   0  0  0  0  0  0  0  0  0  0  0  0
    0.3030   64.3850   72.6290 C   0  0  0  0  0  0  0  0  0  0  0  0
   -0.1170   65.4700   71.8530 C   0  0  0  0  0  0  0  0  0  0  0  0
    0.5250   65.7640   70.6580 C   0  0  0  0  0  0  0  0  0  0  0  0
    1.5880   64.9720   70.2360 C   0  0  0  0  0  0  0  0  0  0  0  0
    2.0330   63.8610   70.9960 C   0  0  0  0  0  0  0  0  0  0  0  0
    1.3660   63.5680   72.2040 C   0  0  0  0  0  0  0  0  0  0  0  0
    1.7090   62.5070   72.9610 N   0  0  0  0  0  0  0  0  0  0  0  0
    2.7240   61.6990   72.5780 C   0  0  0  0  0  0  0  0  0  0  0  0
    2.9870   60.5320   73.4950 C   0  0  0  0  0  0  0  0  0  0  0  0
    4.3210   59.8400   73.2430 C   0  0  0  0  0  0  0  0  0  0  0  0
    4.5060   59.6060   71.7530 C   0  0  0  0  0  0  0  0  0  0  0  0
    4.5500   60.9430   71.0150 C   0  0  0  0  0  0  0  0  0  0  0  0
    3.4430   61.8910   71.4010 C   0  0  0  0  0  0  0  0  0  0  0  0
    3.1130   63.0060   70.6090 C   0  0  0  0  0  0  0  0  0  0  0  0
    3.9060   63.2840   69.4370 N   0  0  0  0  0  0  0  0  0  0  0  0
    3.2980   62.7000   68.2270 C   0  0  0  0  0  0  0  0  0  0  0  0
    4.0710   63.0940   66.9670 C   0  0  0  0  0  0  0  0  0  0  0  0
    3.6110   64.3810   66.2700 C   0  0  0  0  0  0  0  0  0  0  0  0
    3.3000   64.2010   64.7890 C   0  0  0  0  0  0  0  0  0  0  0  0
    4.4530   64.6840   63.9300 N   0  0  1  0  0  4  0  0  0  0  0  0
    5.3000   63.5350   63.4480 C   0  0  0  0  0  0  0  0  0  0  0  0
    4.1180   65.6640   62.8150 C   0  0  0  0  0  0  0  0  0  0  0  0
    4.9510   66.9400   62.8730 C   0  0  0  0  0  0  0  0  0  0  0  0
    4.9140   67.5600   64.2710 C   0  0  0  0  0  0  0  0  0  0  0  0
    4.0930   68.7820   64.2800 N   0  0  0  0  0  0  0  0  0  0  0  0
    3.6140   69.1030   65.5940 C   0  0  0  0  0  0  0  0  0  0  0  0
    2.3080   68.7380   65.9440 C   0  0  0  0  0  0  0  0  0  0  0  0
    1.3120   68.1140   65.0080 C   0  0  0  0  0  0  0  0  0  0  0  0
   -0.0800   68.7340   65.1700 C   0  0  0  0  0  0  0  0  0  0  0  0
   -0.5190   68.9580   66.6240 C   0  0  0  0  0  0  0  0  0  0  0  0
    0.5120   68.5250   67.6640 C   0  0  0  0  0  0  0  0  0  0  0  0
    1.8960   68.9600   67.2570 C   0  0  0  0  0  0  0  0  0  0  0  0
    2.6770   69.5200   68.2010 N   0  0  0  0  0  0  0  0  0  0  0  0
    3.9070   69.9240   67.8590 C   0  0  0  0  0  0  0  0  0  0  0  0
    4.4420   69.7490   66.5630 C   0  0  0  0  0  0  0  0  0  0  0  0
    5.7540   70.2310   66.3110 C   0  0  0  0  0  0  0  0  0  0  0  0
    6.5100   70.8470   67.3080 C   0  0  0  0  0  0  0  0  0  0  0  0
    5.9700   70.9990   68.5760 C   0  0  0  0  0  0  0  0  0  0  0  0
    4.6790   70.5390   68.8340 C   0  0  0  0  0  0  0  0  0  0  0  0
   -0.5450   62.9240   78.8720 O   0  0  0  0  0  0  0  0  0  0  0  0
   -0.7690   62.1310   77.9630 C   0  0  0  0  0  0  0  0  0  0  0  0
   -0.7270   62.4900   76.6400 N   0  0  0  0  0  0  0  0  0  0  0  0
   -1.0830   60.6750   78.2200 C   0  0  0  0  0  0  0  0  0  0  0  0
   -2.1000   60.4450   79.3350 C   0  0  0  0  0  0  0  0  0  0  0  0
   -3.4860   59.9360   78.9200 C   0  0  1  0  0  0  0  0  0  0  0  0
   -4.1740   60.9130   77.9470 C   0  0  0  0  0  0  0  0  0  0  0  0
   -4.3020   62.1110   78.2040 O   0  0  0  0  0  0  0  0  0  0  0  0
   -4.7090   60.3340   76.8240 N   0  0  0  0  0  0  0  0  0  0  0  0
   -5.3550   61.1320   75.7730 C   0  0  2  0  0  0  0  0  0  0  0  0
   -6.8620   60.9500   75.9420 C   0  0  0  0  0  0  0  0  0  0  0  0
   -7.4090   60.8350   77.0360 O   0  0  0  0  0  0  0  0  0  0  0  0
   -7.4850   60.9400   74.7370 O   0  0  0  0  0  0  0  0  0  0  0  0
   -8.7210   61.6580   74.6650 C   0  0  0  0  0  0  0  0  0  0  0  0
   -8.5170   62.9260   73.8780 C   0  0  0  0  0  0  0  0  0  0  0  0
   -8.9680   63.0190   72.5540 C   0  0  0  0  0  0  0  0  0  0  0  0
   -8.7640   64.1870   71.8170 C   0  0  0  0  0  0  0  0  0  0  0  0
   -8.1020   65.2690   72.3950 C   0  0  0  0  0  0  0  0  0  0  0  0
   -7.6390   65.1830   73.7060 C   0  0  0  0  0  0  0  0  0  0  0  0
   -7.8420   64.0160   74.4440 C   0  0  0  0  0  0  0  0  0  0  0  0
   -4.9180   60.6620   74.3800 C   0  0  0  0  0  0  0  0  0  0  0  0
   -3.4640   60.2650   74.3070 C   0  0  0  0  0  0  0  0  0  0  0  0
   -3.0190   59.0720   74.8930 C   0  0  0  0  0  0  0  0  0  0  0  0
   -1.6740   58.7070   74.8160 C   0  0  0  0  0  0  0  0  0  0  0  0
   -0.7630   59.5310   74.1580 C   0  0  0  0  0  0  0  0  0  0  0  0
   -1.1960   60.7190   73.5750 C   0  0  0  0  0  0  0  0  0  0  0  0
   -2.5400   61.0840   73.6450 C   0  0  0  0  0  0  0  0  0  0  0  0
   -3.4490   58.6180   78.3020 N   0  0  0  0  0  0  0  0  0  0  0  0
   -3.8170   57.5050   79.0360 C   0  0  0  0  0  0  0  0  0  0  0  0
   -3.9770   57.5240   80.2550 O   0  0  0  0  0  0  0  0  0  0  0  0
   -4.1520   56.2760   78.1950 C   0  0  0  0  0  0  0  0  0  0  0  0
   -2.9120   55.7070   77.7170 N   0  0  0  0  0  0  0  0  0  0  0  0
   -2.7520   55.3970   76.4010 C   0  0  0  0  0  0  0  0  0  0  0  0
   -3.5310   55.7160   75.5130 O   0  0  0  0  0  0  0  0  0  0  0  0
   -1.6400   54.6500   76.2460 O   0  0  0  0  0  0  0  0  0  0  0  0
   -0.4610   55.2740   76.7650 C   0  0  0  0  0  0  0  0  0  0  0  0
    0.3200   55.8990   75.6360 C   0  0  0  0  0  0  0  0  0  0  0  0
    1.4270   56.7200   75.8940 C   0  0  0  0  0  0  0  0  0  0  0  0
    2.1790   57.2520   74.8460 C   0  0  0  0  0  0  0  0  0  0  0  0
    1.8350   56.9680   73.5260 C   0  0  0  0  0  0  0  0  0  0  0  0
    0.7410   56.1500   73.2550 C   0  0  0  0  0  0  0  0  0  0  0  0
   -0.0100   55.6130   74.3030 C   0  0  0  0  0  0  0  0  0  0  0  0
   -0.7074   64.4975   77.1403 H   0  0  0  0  0  0  0  0  0  0  0  0
   -1.8975   63.9268   75.8160 H   0  0  0  0  0  0  0  0  0  0  0  0
   -1.1168   63.3919   73.7872 H   0  0  0  0  0  0  0  0  0  0  0  0
   -0.9588   66.0924   72.1907 H   0  0  0  0  0  0  0  0  0  0  0  0
    0.1952   66.6181   70.0483 H   0  0  0  0  0  0  0  0  0  0  0  0
    2.0952   65.2135   69.2903 H   0  0  0  0  0  0  0  0  0  0  0  0
    2.9763   60.8970   74.5326 H   0  0  0  0  0  0  0  0  0  0  0  0
    2.1992   59.7890   73.3018 H   0  0  0  0  0  0  0  0  0  0  0  0
    5.1380   60.4744   73.6172 H   0  0  0  0  0  0  0  0  0  0  0  0
    4.3331   58.8728   73.7668 H   0  0  0  0  0  0  0  0  0  0  0  0
    5.4489   59.0653   71.5836 H   0  0  0  0  0  0  0  0  0  0  0  0
    3.6616   59.0120   71.3735 H   0  0  0  0  0  0  0  0  0  0  0  0
    5.5129   61.4277   71.2337 H   0  0  0  0  0  0  0  0  0  0  0  0
    4.4218   60.7214   69.9452 H   0  0  0  0  0  0  0  0  0  0  0  0
    4.7845   63.8216   69.4441 H   0  0  0  0  0  0  0  0  0  0  0  0
    3.2993   61.6039   68.3194 H   0  0  0  0  0  0  0  0  0  0  0  0
    2.2709   63.0833   68.1366 H   0  0  0  0  0  0  0  0  0  0  0  0
    5.1272   63.2218   67.2465 H   0  0  0  0  0  0  0  0  0  0  0  0
    3.8911   62.2849   66.2439 H   0  0  0  0  0  0  0  0  0  0  0  0
    2.7024   64.7425   66.7737 H   0  0  0  0  0  0  0  0  0  0  0  0
    4.4432   65.0971   66.3379 H   0  0  0  0  0  0  0  0  0  0  0  0
    3.1217   63.1348   64.5857 H   0  0  0  0  0  0  0  0  0  0  0  0
    2.4068   64.7942   64.5433 H   0  0  0  0  0  0  0  0  0  0  0  0
    5.0079   65.2641   64.5754 H   0  0  0  0  0  0  0  0  0  0  0  0
    5.7030   62.9883   64.3133 H   0  0  0  0  0  0  0  0  0  0  0  0
    4.6848   62.8560   62.8394 H   0  0  0  0  0  0  0  0  0  0  0  0
    6.1306   63.9218   62.8394 H   0  0  0  0  0  0  0  0  0  0  0  0
    4.2992   65.1707   61.8486 H   0  0  0  0  0  0  0  0  0  0  0  0
    3.0638   65.9534   62.9371 H   0  0  0  0  0  0  0  0  0  0  0  0
    5.9929   66.7007   62.6138 H   0  0  0  0  0  0  0  0  0  0  0  0
    4.5309   67.6637   62.1591 H   0  0  0  0  0  0  0  0  0  0  0  0
    4.4859   66.8328   64.9767 H   0  0  0  0  0  0  0  0  0  0  0  0
    5.9403   67.8228   64.5671 H   0  0  0  0  0  0  0  0  0  0  0  0
    3.8864   69.3417   63.4404 H   0  0  0  0  0  0  0  0  0  0  0  0
    1.6518   68.2651   63.9728 H   0  0  0  0  0  0  0  0  0  0  0  0
    1.2410   67.0424   65.2458 H   0  0  0  0  0  0  0  0  0  0  0  0
   -0.0829   69.7074   64.6577 H   0  0  0  0  0  0  0  0  0  0  0  0
   -0.7918   68.0148   64.7386 H   0  0  0  0  0  0  0  0  0  0  0  0
   -0.7188   70.0308   66.7625 H   0  0  0  0  0  0  0  0  0  0  0  0
   -1.4104   68.3338   66.7843 H   0  0  0  0  0  0  0  0  0  0  0  0
    0.2607   68.9811   68.6329 H   0  0  0  0  0  0  0  0  0  0  0  0
    0.4954   67.4279   67.7422 H   0  0  0  0  0  0  0  0  0  0  0  0
    6.1842   70.1157   65.3052 H   0  0  0  0  0  0  0  0  0  0  0  0
    7.5257   71.2091   67.0904 H   0  0  0  0  0  0  0  0  0  0  0  0
    6.5561   71.4793   69.3733 H   0  0  0  0  0  0  0  0  0  0  0  0
    4.2594   70.6679   69.8426 H   0  0  0  0  0  0  0  0  0  0  0  0
   -0.5826   61.7681   75.9196 H   0  0  0  0  0  0  0  0  0  0  0  0
   -1.4823   60.2386   77.2926 H   0  0  0  0  0  0  0  0  0  0  0  0
   -0.1449   60.2000   78.5429 H   0  0  0  0  0  0  0  0  0  0  0  0
   -1.6701   59.7079   80.0292 H   0  0  0  0  0  0  0  0  0  0  0  0
   -2.2793   61.4404   79.7675 H   0  0  0  0  0  0  0  0  0  0  0  0
   -4.0607   59.8636   79.8551 H   0  0  0  0  0  0  0  0  0  0  0  0
   -4.6563   59.3112   76.7147 H   0  0  0  0  0  0  0  0  0  0  0  0
   -5.0687   62.1903   75.8629 H   0  0  0  0  0  0  0  0  0  0  0  0
   -9.4790   61.0351   74.1676 H   0  0  0  0  0  0  0  0  0  0  0  0
   -9.0617   61.9065   75.6810 H   0  0  0  0  0  0  0  0  0  0  0  0
   -9.4863   62.1656   72.0925 H   0  0  0  0  0  0  0  0  0  0  0  0
   -9.1256   64.2534   70.7803 H   0  0  0  0  0  0  0  0  0  0  0  0
   -7.9452   66.1909   71.8158 H   0  0  0  0  0  0  0  0  0  0  0  0
   -7.1129   66.0357   74.1600 H   0  0  0  0  0  0  0  0  0  0  0  0
   -7.4696   63.9513   75.4770 H   0  0  0  0  0  0  0  0  0  0  0  0
   -5.5307   59.7931   74.0977 H   0  0  0  0  0  0  0  0  0  0  0  0
   -5.0563   61.5108   73.6941 H   0  0  0  0  0  0  0  0  0  0  0  0
   -3.7337   58.4199   75.4164 H   0  0  0  0  0  0  0  0  0  0  0  0
   -1.3327   57.7676   75.2754 H   0  0  0  0  0  0  0  0  0  0  0  0
    0.2971   59.2432   74.0992 H   0  0  0  0  0  0  0  0  0  0  0  0
   -0.4764   61.3709   73.0581 H   0  0  0  0  0  0  0  0  0  0  0  0
   -2.8769   62.0210   73.1775 H   0  0  0  0  0  0  0  0  0  0  0  0
   -3.1499   58.5150   77.3218 H   0  0  0  0  0  0  0  0  0  0  0  0
   -4.6881   55.5382   78.8101 H   0  0  0  0  0  0  0  0  0  0  0  0
   -4.7936   56.5579   77.3472 H   0  0  0  0  0  0  0  0  0  0  0  0
   -2.1418   55.5344   78.3787 H   0  0  0  0  0  0  0  0  0  0  0  0
   -0.7468   56.0528   77.4874 H   0  0  0  0  0  0  0  0  0  0  0  0
    0.1621   54.5181   77.2654 H   0  0  0  0  0  0  0  0  0  0  0  0
    1.7055   56.9471   76.9336 H   0  0  0  0  0  0  0  0  0  0  0  0
    3.0441   57.8961   75.0621 H   0  0  0  0  0  0  0  0  0  0  0  0
    2.4264   57.3891   72.6996 H   0  0  0  0  0  0  0  0  0  0  0  0
    0.4677   55.9263   72.2132 H   0  0  0  0  0  0  0  0  0  0  0  0
   -0.8673   54.9604   74.0812 H   0  0  0  0  0  0  0  0  0  0  0  0
  2  1  1  0
  3  2  2  0
  4  2  1  0
  5  4  1  0
  6  5  2  0
  7  6  1  0
  8  7  2  0
  9  8  1  0
 10  9  2  0
 10  5  1  0
 11 10  1  0
 12 11  2  0
 13 12  1  0
 14 13  1  0
 15 14  1  0
 16 15  1  0
 17 16  1  0
 17 12  1  0
 18 17  2  0
 18  9  1  0
 19 18  1  0
 20 19  1  0
 21 20  1  0
 22 21  1  0
 23 22  1  0
 24 23  1  0
 25 24  1  0
 26 24  1  0
 27 26  1  0
 28 27  1  0
 29 28  1  0
 30 29  1  0
 31 30  1  0
 32 31  1  0
 33 32  1  0
 34 33  1  0
 35 34  1  0
 36 31  2  0
 36 35  1  0
 37 36  1  0
 38 37  2  0
 39 38  1  0
 39 30  2  0
 40 39  1  0
 41 40  2  0
 42 41  1  0
 43 42  2  0
 43 38  1  0
 45 44  2  0
 46 45  1  0
 46  1  1  0
 47 45  1  0
 48 47  1  0
 49 48  1  0
 50 49  1  0
 51 50  2  0
 52 50  1  0
 53 52  1  0
 54 53  1  0
 55 54  2  0
 56 54  1  0
 57 56  1  0
 58 57  1  0
 59 58  2  0
 60 59  1  0
 61 60  2  0
 62 61  1  0
 63 62  2  0
 63 58  1  0
 64 53  1  0
 65 64  1  0
 66 65  2  0
 67 66  1  0
 68 67  2  0
 69 68  1  0
 70 69  2  0
 70 65  1  0
 71 49  1  0
 72 71  1  0
 73 72  2  0
 74 72  1  0
 75 74  1  0
 76 75  1  0
 77 76  2  0
 78 76  1  0
 79 78  1  0
 80 79  1  0
 81 80  2  0
 82 81  1  0
 83 82  2  0
 84 83  1  0
 85 84  2  0
 85 80  1  0
  1 86  1  0
  1 87  1  0
  4 88  1  0
  6 89  1  0
  7 90  1  0
  8 91  1  0
 13 92  1  0
 13 93  1  0
 14 94  1  0
 14 95  1  0
 15 96  1  0
 15 97  1  0
 16 98  1  0
 16 99  1  0
 19100  1  0
 20101  1  0
 20102  1  0
 21103  1  0
 21104  1  0
 22105  1  0
 22106  1  0
 23107  1  0
 23108  1  0
 24109  1  1
 25110  1  0
 25111  1  0
 25112  1  0
 26113  1  0
 26114  1  0
 27115  1  0
 27116  1  0
 28117  1  0
 28118  1  0
 29119  1  0
 32120  1  0
 32121  1  0
 33122  1  0
 33123  1  0
 34124  1  0
 34125  1  0
 35126  1  0
 35127  1  0
 40128  1  0
 41129  1  0
 42130  1  0
 43131  1  0
 46132  1  0
 47133  1  0
 47134  1  0
 48135  1  0
 48136  1  0
 49137  1  1
 52138  1  0
 53139  1  1
 57140  1  0
 57141  1  0
 59142  1  0
 60143  1  0
 61144  1  0
 62145  1  0
 63146  1  0
 64147  1  0
 64148  1  0
 66149  1  0
 67150  1  0
 68151  1  0
 69152  1  0
 70153  1  0
 71154  1  0
 74155  1  0
 74156  1  0
 75157  1  0
 79158  1  0
 79159  1  0
 81160  1  0
 82161  1  0
 83162  1  0
 84163  1  0
 85164  1  0
M  CHG  1  24   1
M  END
>  <score>  (8) 
-9.881

$$$$
=
     RDKit          3D

164172  0  0  0  0  0  0  0  0999 V2000
   -0.8970   63.8520   76.1750 C   0  0  0  0  0  0  0  0  0  0  0  0
    0.0490   64.3820   75.0860 C   0  0  0  0  0  0  0  0  0  0  0  0
    1.0730   64.9830   75.4120 O   0  0  0  0  0  0  0  0  0  0  0  0
   -0.2990   64.0400   73.7980 N   0  0  0  0  0  0  0  0  0  0  0  0
    0.3530   64.3840   72.5860 C   0  0  0  0  0  0  0  0  0  0  0  0
   -0.0120   65.4950   71.8210 C   0  0  0  0  0  0  0  0  0  0  0  0
    0.6610   65.7820   70.6410 C   0  0  0  0  0  0  0  0  0  0  0  0
    1.7010   64.9580   70.2240 C   0  0  0  0  0  0  0  0  0  0  0  0
    2.0910   63.8200   70.9740 C   0  0  0  0  0  0  0  0  0  0  0  0
    1.3930   63.5340   72.1670 C   0  0  0  0  0  0  0  0  0  0  0  0
    1.6830   62.4500   72.9130 N   0  0  0  0  0  0  0  0  0  0  0  0
    2.6730   61.6100   72.5350 C   0  0  0  0  0  0  0  0  0  0  0  0
    2.8770   60.4200   73.4380 C   0  0  0  0  0  0  0  0  0  0  0  0
    4.1880   59.6820   73.1980 C   0  0  0  0  0  0  0  0  0  0  0  0
    4.3900   59.4640   71.7070 C   0  0  0  0  0  0  0  0  0  0  0  0
    4.4960   60.8080   70.9910 C   0  0  0  0  0  0  0  0  0  0  0  0
    3.4190   61.7920   71.3730 C   0  0  0  0  0  0  0  0  0  0  0  0
    3.1440   62.9300   70.5930 C   0  0  0  0  0  0  0  0  0  0  0  0
    3.9670   63.1960   69.4390 N   0  0  0  0  0  0  0  0  0  0  0  0
    3.3690   62.6360   68.2130 C   0  0  0  0  0  0  0  0  0  0  0  0
    4.0860   63.1410   66.9590 C   0  0  0  0  0  0  0  0  0  0  0  0
    3.4630   64.3650   66.2750 C   0  0  0  0  0  0  0  0  0  0  0  0
    3.2360   64.1850   64.7790 C   0  0  0  0  0  0  0  0  0  0  0  0
    4.3760   64.7900   63.9810 N   0  0  1  0  0  4  0  0  0  0  0  0
    5.3270   63.7290   63.4900 C   0  0  0  0  0  0  0  0  0  0  0  0
    4.0030   65.7820   62.8900 C   0  0  0  0  0  0  0  0  0  0  0  0
    4.8550   67.0460   62.9180 C   0  0  0  0  0  0  0  0  0  0  0  0
    4.9810   67.5960   64.3410 C   0  0  0  0  0  0  0  0  0  0  0  0
    4.2980   68.8930   64.4630 N   0  0  0  0  0  0  0  0  0  0  0  0
    3.8170   69.1280   65.7950 C   0  0  0  0  0  0  0  0  0  0  0  0
    4.5900   69.9090   66.6640 C   0  0  0  0  0  0  0  0  0  0  0  0
    5.9550   70.4510   66.3450 C   0  0  0  0  0  0  0  0  0  0  0  0
    6.9140   70.2940   67.5300 C   0  0  0  0  0  0  0  0  0  0  0  0
    6.3120   70.6500   68.8960 C   0  0  0  0  0  0  0  0  0  0  0  0
    4.8540   71.0980   68.8410 C   0  0  0  0  0  0  0  0  0  0  0  0
    4.0580   70.2170   67.9150 C   0  0  0  0  0  0  0  0  0  0  0  0
    2.8530   69.7910   68.3400 N   0  0  0  0  0  0  0  0  0  0  0  0
    2.1330   68.9970   67.5380 C   0  0  0  0  0  0  0  0  0  0  0  0
    2.5600   68.6200   66.2440 C   0  0  0  0  0  0  0  0  0  0  0  0
    1.7190   67.7610   65.4870 C   0  0  0  0  0  0  0  0  0  0  0  0
    0.4990   67.3070   65.9870 C   0  0  0  0  0  0  0  0  0  0  0  0
    0.0940   67.6970   67.2540 C   0  0  0  0  0  0  0  0  0  0  0  0
    0.9140   68.5340   68.0120 C   0  0  0  0  0  0  0  0  0  0  0  0
   -0.4130   62.9160   78.7900 O   0  0  0  0  0  0  0  0  0  0  0  0
   -0.7470   62.1220   77.9160 C   0  0  0  0  0  0  0  0  0  0  0  0
   -0.7840   62.4570   76.5860 N   0  0  0  0  0  0  0  0  0  0  0  0
   -1.1170   60.6890   78.2240 C   0  0  0  0  0  0  0  0  0  0  0  0
   -2.1260   60.5390   79.3610 C   0  0  0  0  0  0  0  0  0  0  0  0
   -3.5340   60.0620   78.9850 C   0  0  1  0  0  0  0  0  0  0  0  0
   -4.1970   61.0160   77.9720 C   0  0  0  0  0  0  0  0  0  0  0  0
   -4.2970   62.2260   78.1820 O   0  0  0  0  0  0  0  0  0  0  0  0
   -4.7430   60.4060   76.8710 N   0  0  0  0  0  0  0  0  0  0  0  0
   -5.3680   61.1780   75.7880 C   0  0  2  0  0  0  0  0  0  0  0  0
   -6.8800   61.0390   75.9610 C   0  0  0  0  0  0  0  0  0  0  0  0
   -7.4290   60.9630   77.0560 O   0  0  0  0  0  0  0  0  0  0  0  0
   -7.5030   61.0200   74.7550 O   0  0  0  0  0  0  0  0  0  0  0  0
   -8.7280   61.7550   74.6720 C   0  0  0  0  0  0  0  0  0  0  0  0
   -8.5160   62.9840   73.8280 C   0  0  0  0  0  0  0  0  0  0  0  0
   -7.9470   64.1370   74.3850 C   0  0  0  0  0  0  0  0  0  0  0  0
   -7.7660   65.2830   73.6090 C   0  0  0  0  0  0  0  0  0  0  0  0
   -8.1580   65.2880   72.2710 C   0  0  0  0  0  0  0  0  0  0  0  0
   -8.7340   64.1510   71.7100 C   0  0  0  0  0  0  0  0  0  0  0  0
   -8.9160   63.0040   72.4840 C   0  0  0  0  0  0  0  0  0  0  0  0
   -4.9410   60.6420   74.4150 C   0  0  0  0  0  0  0  0  0  0  0  0
   -3.4730   60.2990   74.3330 C   0  0  0  0  0  0  0  0  0  0  0  0
   -2.9730   59.1500   74.9590 C   0  0  0  0  0  0  0  0  0  0  0  0
   -1.6160   58.8340   74.8740 C   0  0  0  0  0  0  0  0  0  0  0  0
   -0.7480   59.6650   74.1670 C   0  0  0  0  0  0  0  0  0  0  0  0
   -1.2370   60.8110   73.5430 C   0  0  0  0  0  0  0  0  0  0  0  0
   -2.5930   61.1260   73.6230 C   0  0  0  0  0  0  0  0  0  0  0  0
   -3.5520   58.7150   78.4300 N   0  0  0  0  0  0  0  0  0  0  0  0
   -3.9590   57.6550   79.2190 C   0  0  0  0  0  0  0  0  0  0  0  0
   -4.1110   57.7390   80.4370 O   0  0  0  0  0  0  0  0  0  0  0  0
   -4.3470   56.4010   78.4400 C   0  0  0  0  0  0  0  0  0  0  0  0
   -3.1330   55.7510   78.0000 N   0  0  0  0  0  0  0  0  0  0  0  0
   -2.9100   55.5190   76.6780 C   0  0  0  0  0  0  0  0  0  0  0  0
   -3.5920   55.9720   75.7690 O   0  0  0  0  0  0  0  0  0  0  0  0
   -1.8610   54.6820   76.5380 O   0  0  0  0  0  0  0  0  0  0  0  0
   -0.6150   55.2620   76.9400 C   0  0  0  0  0  0  0  0  0  0  0  0
    0.0920   55.8280   75.7330 C   0  0  0  0  0  0  0  0  0  0  0  0
    1.2520   56.6030   75.8760 C   0  0  0  0  0  0  0  0  0  0  0  0
    1.9330   57.0790   74.7550 C   0  0  0  0  0  0  0  0  0  0  0  0
    1.4630   56.7860   73.4770 C   0  0  0  0  0  0  0  0  0  0  0  0
    0.3150   56.0140   73.3200 C   0  0  0  0  0  0  0  0  0  0  0  0
   -0.3650   55.5320   74.4410 C   0  0  0  0  0  0  0  0  0  0  0  0
   -0.7343   64.4675   77.0721 H   0  0  0  0  0  0  0  0  0  0  0  0
   -1.8939   63.9136   75.7142 H   0  0  0  0  0  0  0  0  0  0  0  0
   -1.1435   63.4581   73.7022 H   0  0  0  0  0  0  0  0  0  0  0  0
   -0.8350   66.1441   72.1547 H   0  0  0  0  0  0  0  0  0  0  0  0
    0.3732   66.6565   70.0390 H   0  0  0  0  0  0  0  0  0  0  0  0
    2.2331   65.1948   69.2908 H   0  0  0  0  0  0  0  0  0  0  0  0
    2.8620   60.7697   74.4808 H   0  0  0  0  0  0  0  0  0  0  0  0
    2.0657   59.7100   73.2196 H   0  0  0  0  0  0  0  0  0  0  0  0
    5.0216   60.2792   73.5961 H   0  0  0  0  0  0  0  0  0  0  0  0
    4.1548   58.7072   73.7066 H   0  0  0  0  0  0  0  0  0  0  0  0
    5.3150   58.8912   71.5449 H   0  0  0  0  0  0  0  0  0  0  0  0
    3.5306   58.9079   71.3043 H   0  0  0  0  0  0  0  0  0  0  0  0
    5.4726   61.2528   71.2326 H   0  0  0  0  0  0  0  0  0  0  0  0
    4.3771   60.6067   69.9161 H   0  0  0  0  0  0  0  0  0  0  0  0
    4.8584   63.7112   69.4675 H   0  0  0  0  0  0  0  0  0  0  0  0
    3.4412   61.5390   68.2488 H   0  0  0  0  0  0  0  0  0  0  0  0
    2.3182   62.9575   68.1632 H   0  0  0  0  0  0  0  0  0  0  0  0
    5.1163   63.4020   67.2425 H   0  0  0  0  0  0  0  0  0  0  0  0
    4.0140   62.3234   66.2267 H   0  0  0  0  0  0  0  0  0  0  0  0
    2.4928   64.5715   66.7505 H   0  0  0  0  0  0  0  0  0  0  0  0
    4.1753   65.1949   66.3932 H   0  0  0  0  0  0  0  0  0  0  0  0
    3.1679   63.1109   64.5519 H   0  0  0  0  0  0  0  0  0  0  0  0
    2.3027   64.6967   64.5014 H   0  0  0  0  0  0  0  0  0  0  0  0
    4.8604   65.3871   64.6664 H   0  0  0  0  0  0  0  0  0  0  0  0
    5.7839   63.2193   64.3510 H   0  0  0  0  0  0  0  0  0  0  0  0
    4.7768   62.9972   62.8803 H   0  0  0  0  0  0  0  0  0  0  0  0
    6.1144   64.1961   62.8803 H   0  0  0  0  0  0  0  0  0  0  0  0
    4.1323   65.2936   61.9129 H   0  0  0  0  0  0  0  0  0  0  0  0
    2.9596   66.0844   63.0628 H   0  0  0  0  0  0  0  0  0  0  0  0
    5.8586   66.8111   62.5338 H   0  0  0  0  0  0  0  0  0  0  0  0
    4.3689   67.8082   62.2913 H   0  0  0  0  0  0  0  0  0  0  0  0
    4.5278   66.8823   65.0447 H   0  0  0  0  0  0  0  0  0  0  0  0
    6.0474   67.7365   64.5711 H   0  0  0  0  0  0  0  0  0  0  0  0
    4.1787   69.5555   63.6834 H   0  0  0  0  0  0  0  0  0  0  0  0
    6.3627   69.9060   65.4809 H   0  0  0  0  0  0  0  0  0  0  0  0
    5.8563   71.5235   66.1213 H   0  0  0  0  0  0  0  0  0  0  0  0
    7.2462   69.2459   67.5650 H   0  0  0  0  0  0  0  0  0  0  0  0
    7.7365   71.0042   67.3592 H   0  0  0  0  0  0  0  0  0  0  0  0
    6.3758   69.7625   69.5427 H   0  0  0  0  0  0  0  0  0  0  0  0
    6.8896   71.5024   69.2829 H   0  0  0  0  0  0  0  0  0  0  0  0
    4.4217   71.0433   69.8510 H   0  0  0  0  0  0  0  0  0  0  0  0
    4.8166   72.1306   68.4637 H   0  0  0  0  0  0  0  0  0  0  0  0
    2.0378   67.4465   64.4823 H   0  0  0  0  0  0  0  0  0  0  0  0
   -0.1368   66.6448   65.3809 H   0  0  0  0  0  0  0  0  0  0  0  0
   -0.8675   67.3490   67.6594 H   0  0  0  0  0  0  0  0  0  0  0  0
    0.5835   68.8361   69.0167 H   0  0  0  0  0  0  0  0  0  0  0  0
   -0.7315   61.7170   75.8715 H   0  0  0  0  0  0  0  0  0  0  0  0
   -1.5486   60.2405   77.3170 H   0  0  0  0  0  0  0  0  0  0  0  0
   -0.1947   60.1846   78.5480 H   0  0  0  0  0  0  0  0  0  0  0  0
   -1.7116   59.8160   80.0790 H   0  0  0  0  0  0  0  0  0  0  0  0
   -2.2653   61.5566   79.7549 H   0  0  0  0  0  0  0  0  0  0  0  0
   -4.0999   60.0555   79.9282 H   0  0  0  0  0  0  0  0  0  0  0  0
   -4.7140   59.3787   76.8016 H   0  0  0  0  0  0  0  0  0  0  0  0
   -5.0561   62.2317   75.8366 H   0  0  0  0  0  0  0  0  0  0  0  0
   -9.5043   61.1244   74.2141 H   0  0  0  0  0  0  0  0  0  0  0  0
   -9.0478   62.0525   75.6816 H   0  0  0  0  0  0  0  0  0  0  0  0
   -7.6407   64.1390   75.4415 H   0  0  0  0  0  0  0  0  0  0  0  0
   -7.3141   66.1822   74.0531 H   0  0  0  0  0  0  0  0  0  0  0  0
   -8.0123   66.1900   71.6585 H   0  0  0  0  0  0  0  0  0  0  0  0
   -9.0460   64.1569   70.6552 H   0  0  0  0  0  0  0  0  0  0  0  0
   -9.3760   62.1103   72.0372 H   0  0  0  0  0  0  0  0  0  0  0  0
   -5.5234   59.7341   74.1990 H   0  0  0  0  0  0  0  0  0  0  0  0
   -5.1281   61.4413   73.6829 H   0  0  0  0  0  0  0  0  0  0  0  0
   -3.6534   58.4931   75.5207 H   0  0  0  0  0  0  0  0  0  0  0  0
   -1.2310   57.9283   75.3654 H   0  0  0  0  0  0  0  0  0  0  0  0
    0.3215   59.4163   74.1019 H   0  0  0  0  0  0  0  0  0  0  0  0
   -0.5524   61.4680   72.9866 H   0  0  0  0  0  0  0  0  0  0  0  0
   -2.9742   62.0299   73.1253 H   0  0  0  0  0  0  0  0  0  0  0  0
   -3.2630   58.5532   77.4547 H   0  0  0  0  0  0  0  0  0  0  0  0
   -4.9195   55.7216   79.0886 H   0  0  0  0  0  0  0  0  0  0  0  0
   -4.9709   56.6683   77.5744 H   0  0  0  0  0  0  0  0  0  0  0  0
   -2.4298   55.4606   78.6943 H   0  0  0  0  0  0  0  0  0  0  0  0
   -0.8030   56.0673   77.6653 H   0  0  0  0  0  0  0  0  0  0  0  0
    0.0153   54.4890   77.4037 H   0  0  0  0  0  0  0  0  0  0  0  0
    1.6289   56.8381   76.8823 H   0  0  0  0  0  0  0  0  0  0  0  0
    2.8417   57.6861   74.8807 H   0  0  0  0  0  0  0  0  0  0  0  0
    1.9979   57.1639   72.5932 H   0  0  0  0  0  0  0  0  0  0  0  0
   -0.0573   55.7831   72.3110 H   0  0  0  0  0  0  0  0  0  0  0  0
   -1.2662   54.9153   74.3090 H   0  0  0  0  0  0  0  0  0  0  0  0
  2  1  1  0
  3  2  2  0
  4  2  1  0
  5  4  1  0
  6  5  2  0
  7  6  1  0
  8  7  2  0
  9  8  1  0
 10  9  2  0
 10  5  1  0
 11 10  1  0
 12 11  2  0
 13 12  1  0
 14 13  1  0
 15 14  1  0
 16 15  1  0
 17 16  1  0
 17 12  1  0
 18 17  2  0
 18  9  1  0
 19 18  1  0
 20 19  1  0
 21 20  1  0
 22 21  1  0
 23 22  1  0
 24 23  1  0
 25 24  1  0
 26 24  1  0
 27 26  1  0
 28 27  1  0
 29 28  1  0
 30 29  1  0
 31 30  1  0
 32 31  1  0
 33 32  1  0
 34 33  1  0
 35 34  1  0
 36 31  2  0
 36 35  1  0
 37 36  1  0
 38 37  2  0
 39 38  1  0
 39 30  2  0
 40 39  1  0
 41 40  2  0
 42 41  1  0
 43 42  2  0
 43 38  1  0
 45 44  2  0
 46 45  1  0
 46  1  1  0
 47 45  1  0
 48 47  1  0
 49 48  1  0
 50 49  1  0
 51 50  2  0
 52 50  1  0
 53 52  1  0
 54 53  1  0
 55 54  2  0
 56 54  1  0
 57 56  1  0
 58 57  1  0
 59 58  2  0
 60 59  1  0
 61 60  2  0
 62 61  1  0
 63 62  2  0
 63 58  1  0
 64 53  1  0
 65 64  1  0
 66 65  2  0
 67 66  1  0
 68 67  2  0
 69 68  1  0
 70 69  2  0
 70 65  1  0
 71 49  1  0
 72 71  1  0
 73 72  2  0
 74 72  1  0
 75 74  1  0
 76 75  1  0
 77 76  2  0
 78 76  1  0
 79 78  1  0
 80 79  1  0
 81 80  2  0
 82 81  1  0
 83 82  2  0
 84 83  1  0
 85 84  2  0
 85 80  1  0
  1 86  1  0
  1 87  1  0
  4 88  1  0
  6 89  1  0
  7 90  1  0
  8 91  1  0
 13 92  1  0
 13 93  1  0
 14 94  1  0
 14 95  1  0
 15 96  1  0
 15 97  1  0
 16 98  1  0
 16 99  1  0
 19100  1  0
 20101  1  0
 20102  1  0
 21103  1  0
 21104  1  0
 22105  1  0
 22106  1  0
 23107  1  0
 23108  1  0
 24109  1  1
 25110  1  0
 25111  1  0
 25112  1  0
 26113  1  0
 26114  1  0
 27115  1  0
 27116  1  0
 28117  1  0
 28118  1  0
 29119  1  0
 32120  1  0
 32121  1  0
 33122  1  0
 33123  1  0
 34124  1  0
 34125  1  0
 35126  1  0
 35127  1  0
 40128  1  0
 41129  1  0
 42130  1  0
 43131  1  0
 46132  1  0
 47133  1  0
 47134  1  0
 48135  1  0
 48136  1  0
 49137  1  1
 52138  1  0
 53139  1  6
 57140  1  0
 57141  1  0
 59142  1  0
 60143  1  0
 61144  1  0
 62145  1  0
 63146  1  0
 64147  1  0
 64148  1  0
 66149  1  0
 67150  1  0
 68151  1  0
 69152  1  0
 70153  1  0
 71154  1  0
 74155  1  0
 74156  1  0
 75157  1  0
 79158  1  0
 79159  1  0
 81160  1  0
 82161  1  0
 83162  1  0
 84163  1  0
 85164  1  0
M  CHG  1  24   1
M  END
>  <score>  (9) 
-9.841

$$$$
