=
     RDKit          3D

 66 70  0  0  0  0  0  0  0  0999 V2000
    0.8860   67.8210   66.2830 N   0  0  0  0  0  0  0  0  0  0  0  0
    0.7460   68.2630   65.0120 C   0  0  0  0  0  0  0  0  0  0  0  0
   -0.3270   68.7990   64.4690 N   0  0  0  0  0  0  0  0  0  0  0  0
    0.0250   69.1170   63.1780 C   0  0  0  0  0  0  0  0  0  0  0  0
    1.3400   68.7530   62.9150 C   0  0  0  0  0  0  0  0  0  0  0  0
    1.7830   68.2030   64.1000 N   0  0  0  0  0  0  0  0  0  0  0  0
    1.9450   68.9670   61.6700 C   0  0  0  0  0  0  0  0  0  0  0  0
    1.1660   69.5720   60.6770 C   0  0  0  0  0  0  0  0  0  0  0  0
   -0.1550   69.9450   60.9200 C   0  0  0  0  0  0  0  0  0  0  0  0
   -0.7420   69.7220   62.1710 C   0  0  0  0  0  0  0  0  0  0  0  0
    0.4500   66.0050   69.2180 N   0  0  0  0  0  4  0  0  0  0  0  0
   -0.9910   66.1410   68.8380 C   0  0  0  0  0  0  0  0  0  0  0  0
   -1.0920   66.8400   67.4860 C   0  0  0  0  0  0  0  0  0  0  0  0
   -0.1100   68.0100   67.3410 C   0  0  0  0  0  0  0  0  0  0  0  0
    0.5390   68.4410   68.6550 C   0  0  0  0  0  0  0  0  0  0  0  0
    1.1370   67.3110   69.4830 C   0  0  0  0  0  0  0  0  0  0  0  0
    0.7960   64.8780   70.1590 C   0  0  0  0  0  0  0  0  0  0  0  0
    2.2940   64.5940   70.3360 C   0  0  0  0  0  0  0  0  0  0  0  0
    3.4620   60.4330   70.1950 C   0  0  0  0  0  0  0  0  0  0  0  0
    3.8330   61.3110   69.1770 C   0  0  0  0  0  0  0  0  0  0  0  0
    3.4450   62.6520   69.2110 C   0  0  0  0  0  0  0  0  0  0  0  0
    2.6900   63.1410   70.2840 C   0  0  0  0  0  0  0  0  0  0  0  0
    2.3030   62.2520   71.2960 C   0  0  0  0  0  0  0  0  0  0  0  0
    2.6920   60.9070   71.2540 C   0  0  0  0  0  0  0  0  0  0  0  0
    3.4420   58.1810   70.9620 C   0  0  0  0  0  0  0  0  0  0  0  0
    3.9160   59.1550   70.0390 O   0  0  0  0  0  0  0  0  0  0  0  0
    3.0960   67.6070   64.3120 C   0  0  0  0  0  0  0  0  0  0  0  0
    4.0670   68.5540   64.9800 C   0  0  0  0  0  0  0  0  0  0  0  0
    3.8670   68.9970   66.2990 C   0  0  0  0  0  0  0  0  0  0  0  0
    4.7710   69.8810   66.8930 C   0  0  0  0  0  0  0  0  0  0  0  0
    5.8650   70.3350   66.1680 C   0  0  0  0  0  0  0  0  0  0  0  0
    6.0700   69.9280   64.8560 C   0  0  0  0  0  0  0  0  0  0  0  0
    5.1710   69.0430   64.2600 C   0  0  0  0  0  0  0  0  0  0  0  0
    6.7320   71.1790   66.7410 F   0  0  0  0  0  0  0  0  0  0  0  0
    1.7517   67.3173   66.5233 H   0  0  0  0  0  0  0  0  0  0  0  0
    2.9877   68.6722   61.4808 H   0  0  0  0  0  0  0  0  0  0  0  0
    1.6048   69.7568   59.6854 H   0  0  0  0  0  0  0  0  0  0  0  0
   -0.7423   70.4196   60.1201 H   0  0  0  0  0  0  0  0  0  0  0  0
   -1.7849   70.0156   62.3610 H   0  0  0  0  0  0  0  0  0  0  0  0
    0.8872   65.6639   68.3500 H   0  0  0  0  0  0  0  0  0  0  0  0
   -1.4491   65.1432   68.7709 H   0  0  0  0  0  0  0  0  0  0  0  0
   -1.5186   66.7339   69.5997 H   0  0  0  0  0  0  0  0  0  0  0  0
   -0.8811   66.1053   66.6950 H   0  0  0  0  0  0  0  0  0  0  0  0
   -2.1087   67.2517   67.4037 H   0  0  0  0  0  0  0  0  0  0  0  0
   -0.7481   68.8471   67.0214 H   0  0  0  0  0  0  0  0  0  0  0  0
    1.3435   69.1534   68.4198 H   0  0  0  0  0  0  0  0  0  0  0  0
   -0.2664   68.8746   69.2660 H   0  0  0  0  0  0  0  0  0  0  0  0
    2.2031   67.2104   69.2313 H   0  0  0  0  0  0  0  0  0  0  0  0
    1.0044   67.5583   70.5466 H   0  0  0  0  0  0  0  0  0  0  0  0
    0.3795   65.1231   71.1472 H   0  0  0  0  0  0  0  0  0  0  0  0
    0.3702   63.9696   69.7078 H   0  0  0  0  0  0  0  0  0  0  0  0
    2.8355   65.1215   69.5370 H   0  0  0  0  0  0  0  0  0  0  0  0
    2.5492   64.9402   71.3484 H   0  0  0  0  0  0  0  0  0  0  0  0
    4.4391   60.9424   68.3363 H   0  0  0  0  0  0  0  0  0  0  0  0
    3.7336   63.3268   68.3916 H   0  0  0  0  0  0  0  0  0  0  0  0
    1.6871   62.6144   72.1323 H   0  0  0  0  0  0  0  0  0  0  0  0
    2.3882   60.2230   72.0602 H   0  0  0  0  0  0  0  0  0  0  0  0
    3.6142   58.5349   71.9892 H   0  0  0  0  0  0  0  0  0  0  0  0
    2.3651   58.0207   70.8051 H   0  0  0  0  0  0  0  0  0  0  0  0
    3.9803   57.2346   70.8051 H   0  0  0  0  0  0  0  0  0  0  0  0
    2.9796   66.7166   64.9474 H   0  0  0  0  0  0  0  0  0  0  0  0
    3.5078   67.3518   63.3244 H   0  0  0  0  0  0  0  0  0  0  0  0
    2.9931   68.6453   66.8670 H   0  0  0  0  0  0  0  0  0  0  0  0
    4.6171   70.2157   67.9295 H   0  0  0  0  0  0  0  0  0  0  0  0
    6.9362   70.3013   64.2900 H   0  0  0  0  0  0  0  0  0  0  0  0
    5.3273   68.7254   63.2185 H   0  0  0  0  0  0  0  0  0  0  0  0
  2  1  1  0
  3  2  2  0
  4  3  1  0
  5  4  2  0
  6  5  1  0
  6  2  1  0
  7  5  1  0
  8  7  2  0
  9  8  1  0
 10  9  2  0
 10  4  1  0
 12 11  1  0
 13 12  1  0
 14 13  1  0
 14  1  1  0
 15 14  1  0
 16 15  1  0
 16 11  1  0
 17 11  1  0
 18 17  1  0
 20 19  2  0
 21 20  1  0
 22 21  2  0
 22 18  1  0
 23 22  1  0
 24 19  1  0
 24 23  2  0
 26 25  1  0
 26 19  1  0
 27  6  1  0
 28 27  1  0
 29 28  2  0
 30 29  1  0
 31 30  2  0
 32 31  1  0
 33 28  1  0
 33 32  2  0
 34 31  1  0
  1 35  1  0
  7 36  1  0
  8 37  1  0
  9 38  1  0
 10 39  1  0
 11 40  1  0
 12 41  1  0
 12 42  1  0
 13 43  1  0
 13 44  1  0
 14 45  1  0
 15 46  1  0
 15 47  1  0
 16 48  1  0
 16 49  1  0
 17 50  1  0
 17 51  1  0
 18 52  1  0
 18 53  1  0
 20 54  1  0
 21 55  1  0
 23 56  1  0
 24 57  1  0
 25 58  1  0
 25 59  1  0
 25 60  1  0
 27 61  1  0
 27 62  1  0
 29 63  1  0
 30 64  1  0
 32 65  1  0
 33 66  1  0
M  CHG  1  11   1
M  END
>  <score>  (1) 
-10.639

$$$$
=
     RDKit          3D

 66 70  0  0  0  0  0  0  0  0999 V2000
    1.4860   66.3710   69.4360 N   0  0  0  0  0  0  0  0  0  0  0  0
    0.4900   66.8480   68.6540 C   0  0  0  0  0  0  0  0  0  0  0  0
   -0.7630   66.4470   68.6270 N   0  0  0  0  0  0  0  0  0  0  0  0
   -1.3940   67.2490   67.7050 C   0  0  0  0  0  0  0  0  0  0  0  0
   -0.5050   68.1540   67.1390 C   0  0  0  0  0  0  0  0  0  0  0  0
    0.6970   67.8780   67.7550 N   0  0  0  0  0  0  0  0  0  0  0  0
   -0.8960   69.0850   66.1670 C   0  0  0  0  0  0  0  0  0  0  0  0
   -2.2390   69.0740   65.7760 C   0  0  0  0  0  0  0  0  0  0  0  0
   -3.1480   68.1760   66.3320 C   0  0  0  0  0  0  0  0  0  0  0  0
   -2.7380   67.2520   67.3010 C   0  0  0  0  0  0  0  0  0  0  0  0
    2.2020   62.9670   69.4810 N   0  0  0  0  0  4  0  0  0  0  0  0
    0.8780   62.9130   70.1760 C   0  0  0  0  0  0  0  0  0  0  0  0
    0.2690   64.3110   70.2080 C   0  0  0  0  0  0  0  0  0  0  0  0
    1.2960   65.4060   70.5230 C   0  0  0  0  0  0  0  0  0  0  0  0
    2.6300   64.8740   71.0430 C   0  0  0  0  0  0  0  0  0  0  0  0
    3.2460   63.7530   70.2160 C   0  0  0  0  0  0  0  0  0  0  0  0
    2.6770   61.6910   68.8320 C   0  0  0  0  0  0  0  0  0  0  0  0
    3.7500   60.9100   69.6040 C   0  0  0  0  0  0  0  0  0  0  0  0
    2.2960   57.9260   72.3760 C   0  0  0  0  0  0  0  0  0  0  0  0
    3.0070   57.5520   71.2360 C   0  0  0  0  0  0  0  0  0  0  0  0
    3.4650   58.5110   70.3300 C   0  0  0  0  0  0  0  0  0  0  0  0
    3.2320   59.8720   70.5660 C   0  0  0  0  0  0  0  0  0  0  0  0
    2.5010   60.2440   71.7030 C   0  0  0  0  0  0  0  0  0  0  0  0
    2.0400   59.2760   72.6040 C   0  0  0  0  0  0  0  0  0  0  0  0
    0.5220   56.7240   73.4100 C   0  0  0  0  0  0  0  0  0  0  0  0
    1.9160   56.8880   73.1780 O   0  0  0  0  0  0  0  0  0  0  0  0
    1.9680   68.5240   67.4490 C   0  0  0  0  0  0  0  0  0  0  0  0
    2.4940   68.1590   66.0800 C   0  0  0  0  0  0  0  0  0  0  0  0
    2.3470   66.8620   65.5600 C   0  0  0  0  0  0  0  0  0  0  0  0
    2.8510   66.5430   64.2970 C   0  0  0  0  0  0  0  0  0  0  0  0
    3.5140   67.5130   63.5580 C   0  0  0  0  0  0  0  0  0  0  0  0
    3.6920   68.7960   64.0600 C   0  0  0  0  0  0  0  0  0  0  0  0
    3.1880   69.1190   65.3210 C   0  0  0  0  0  0  0  0  0  0  0  0
    3.9930   67.2070   62.3460 F   0  0  0  0  0  0  0  0  0  0  0  0
    2.4421   66.7087   69.2553 H   0  0  0  0  0  0  0  0  0  0  0  0
   -0.1774   69.7941   65.7302 H   0  0  0  0  0  0  0  0  0  0  0  0
   -2.5845   69.7885   65.0144 H   0  0  0  0  0  0  0  0  0  0  0  0
   -4.1985   68.1932   66.0063 H   0  0  0  0  0  0  0  0  0  0  0  0
   -3.4559   66.5419   67.7373 H   0  0  0  0  0  0  0  0  0  0  0  0
    2.0009   63.5364   68.6466 H   0  0  0  0  0  0  0  0  0  0  0  0
    0.2058   62.2316   69.6340 H   0  0  0  0  0  0  0  0  0  0  0  0
    1.0158   62.5471   71.2042 H   0  0  0  0  0  0  0  0  0  0  0  0
   -0.1771   64.5214   69.2248 H   0  0  0  0  0  0  0  0  0  0  0  0
   -0.4822   64.3240   71.0115 H   0  0  0  0  0  0  0  0  0  0  0  0
    0.8382   65.9604   71.3555 H   0  0  0  0  0  0  0  0  0  0  0  0
    3.3438   65.7105   71.0681 H   0  0  0  0  0  0  0  0  0  0  0  0
    2.4227   64.4445   72.0343 H   0  0  0  0  0  0  0  0  0  0  0  0
    3.9426   64.1904   69.4857 H   0  0  0  0  0  0  0  0  0  0  0  0
    3.7699   63.0701   70.9010 H   0  0  0  0  0  0  0  0  0  0  0  0
    1.8055   61.0320   68.7047 H   0  0  0  0  0  0  0  0  0  0  0  0
    3.1496   61.9940   67.8860 H   0  0  0  0  0  0  0  0  0  0  0  0
    4.3923   60.4011   68.8701 H   0  0  0  0  0  0  0  0  0  0  0  0
    4.2801   61.6527   70.2184 H   0  0  0  0  0  0  0  0  0  0  0  0
    3.2098   56.4873   71.0479 H   0  0  0  0  0  0  0  0  0  0  0  0
    4.0105   58.1966   69.4280 H   0  0  0  0  0  0  0  0  0  0  0  0
    2.2874   61.3069   71.8893 H   0  0  0  0  0  0  0  0  0  0  0  0
    1.4734   59.5831   73.4954 H   0  0  0  0  0  0  0  0  0  0  0  0
    0.3307   56.7015   74.4930 H   0  0  0  0  0  0  0  0  0  0  0  0
   -0.0262   57.5638   72.9582 H   0  0  0  0  0  0  0  0  0  0  0  0
    0.1837   55.7799   72.9582 H   0  0  0  0  0  0  0  0  0  0  0  0
    1.8280   69.6142   67.4929 H   0  0  0  0  0  0  0  0  0  0  0  0
    2.7033   68.1777   68.1902 H   0  0  0  0  0  0  0  0  0  0  0  0
    1.8310   66.0919   66.1521 H   0  0  0  0  0  0  0  0  0  0  0  0
    2.7232   65.5289   63.8904 H   0  0  0  0  0  0  0  0  0  0  0  0
    4.2269   69.5528   63.4674 H   0  0  0  0  0  0  0  0  0  0  0  0
    3.3346   70.1318   65.7243 H   0  0  0  0  0  0  0  0  0  0  0  0
  2  1  1  0
  3  2  2  0
  4  3  1  0
  5  4  2  0
  6  5  1  0
  6  2  1  0
  7  5  1  0
  8  7  2  0
  9  8  1  0
 10  9  2  0
 10  4  1  0
 12 11  1  0
 13 12  1  0
 14 13  1  0
 14  1  1  0
 15 14  1  0
 16 15  1  0
 16 11  1  0
 17 11  1  0
 18 17  1  0
 20 19  2  0
 21 20  1  0
 22 21  2  0
 22 18  1  0
 23 22  1  0
 24 19  1  0
 24 23  2  0
 26 25  1  0
 26 19  1  0
 27  6  1  0
 28 27  1  0
 29 28  2  0
 30 29  1  0
 31 30  2  0
 32 31  1  0
 33 28  1  0
 33 32  2  0
 34 31  1  0
  1 35  1  0
  7 36  1  0
  8 37  1  0
  9 38  1  0
 10 39  1  0
 11 40  1  0
 12 41  1  0
 12 42  1  0
 13 43  1  0
 13 44  1  0
 14 45  1  0
 15 46  1  0
 15 47  1  0
 16 48  1  0
 16 49  1  0
 17 50  1  0
 17 51  1  0
 18 52  1  0
 18 53  1  0
 20 54  1  0
 21 55  1  0
 23 56  1  0
 24 57  1  0
 25 58  1  0
 25 59  1  0
 25 60  1  0
 27 61  1  0
 27 62  1  0
 29 63  1  0
 30 64  1  0
 32 65  1  0
 33 66  1  0
M  CHG  1  11   1
M  END
>  <score>  (2) 
-10.606

$$$$
=
     RDKit          3D

 66 70  0  0  0  0  0  0  0  0999 V2000
    0.5040   65.8110   69.1460 N   0  0  0  0  0  0  0  0  0  0  0  0
    0.3870   65.4270   70.4380 C   0  0  0  0  0  0  0  0  0  0  0  0
    0.0320   66.1750   71.4620 N   0  0  0  0  0  0  0  0  0  0  0  0
    0.0250   65.3380   72.5540 C   0  0  0  0  0  0  0  0  0  0  0  0
    0.4000   64.0490   72.1960 C   0  0  0  0  0  0  0  0  0  0  0  0
    0.6330   64.1270   70.8400 N   0  0  0  0  0  0  0  0  0  0  0  0
    0.4750   63.0030   73.1260 C   0  0  0  0  0  0  0  0  0  0  0  0
    0.1530   63.3040   74.4540 C   0  0  0  0  0  0  0  0  0  0  0  0
   -0.2260   64.5910   74.8340 C   0  0  0  0  0  0  0  0  0  0  0  0
   -0.2940   65.6230   73.8900 C   0  0  0  0  0  0  0  0  0  0  0  0
    1.9050   67.6690   66.5610 N   0  0  0  0  0  4  0  0  0  0  0  0
    1.6800   68.7890   67.5280 C   0  0  0  0  0  0  0  0  0  0  0  0
    1.1410   68.2230   68.8380 C   0  0  0  0  0  0  0  0  0  0  0  0
    0.0950   67.1200   68.6300 C   0  0  0  0  0  0  0  0  0  0  0  0
   -0.4270   67.0230   67.1980 C   0  0  0  0  0  0  0  0  0  0  0  0
    0.6480   66.9830   66.1190 C   0  0  0  0  0  0  0  0  0  0  0  0
    2.9390   67.9030   65.4880 C   0  0  0  0  0  0  0  0  0  0  0  0
    3.4400   69.3470   65.3480 C   0  0  0  0  0  0  0  0  0  0  0  0
    6.4450   70.5920   68.1980 C   0  0  0  0  0  0  0  0  0  0  0  0
    6.8100   70.1560   66.9240 C   0  0  0  0  0  0  0  0  0  0  0  0
    5.8430   69.7390   66.0060 C   0  0  0  0  0  0  0  0  0  0  0  0
    4.4850   69.7710   66.3480 C   0  0  0  0  0  0  0  0  0  0  0  0
    4.1240   70.1910   67.6340 C   0  0  0  0  0  0  0  0  0  0  0  0
    5.0980   70.6040   68.5520 C   0  0  0  0  0  0  0  0  0  0  0  0
    7.4120   70.6510   70.3710 C   0  0  0  0  0  0  0  0  0  0  0  0
    7.4890   70.9780   68.9890 O   0  0  0  0  0  0  0  0  0  0  0  0
    1.1190   63.0360   70.0050 C   0  0  0  0  0  0  0  0  0  0  0  0
    2.4940   62.5570   70.4100 C   0  0  0  0  0  0  0  0  0  0  0  0
    3.6080   63.4130   70.3720 C   0  0  0  0  0  0  0  0  0  0  0  0
    4.8720   62.9470   70.7410 C   0  0  0  0  0  0  0  0  0  0  0  0
    5.0290   61.6250   71.1340 C   0  0  0  0  0  0  0  0  0  0  0  0
    3.9470   60.7550   71.1570 C   0  0  0  0  0  0  0  0  0  0  0  0
    2.6820   61.2170   70.7910 C   0  0  0  0  0  0  0  0  0  0  0  0
    6.2410   61.1810   71.4910 F   0  0  0  0  0  0  0  0  0  0  0  0
    0.9081   65.1374   68.4798 H   0  0  0  0  0  0  0  0  0  0  0  0
    0.7744   61.9883   72.8246 H   0  0  0  0  0  0  0  0  0  0  0  0
    0.1998   62.5095   75.2134 H   0  0  0  0  0  0  0  0  0  0  0  0
   -0.4740   64.7976   75.8856 H   0  0  0  0  0  0  0  0  0  0  0  0
   -0.5920   66.6383   74.1905 H   0  0  0  0  0  0  0  0  0  0  0  0
    2.3872   66.9611   67.1331 H   0  0  0  0  0  0  0  0  0  0  0  0
    2.6310   69.3089   67.7160 H   0  0  0  0  0  0  0  0  0  0  0  0
    0.9534   69.4993   67.1067 H   0  0  0  0  0  0  0  0  0  0  0  0
    1.9816   67.8051   69.4113 H   0  0  0  0  0  0  0  0  0  0  0  0
    0.6475   69.0472   69.3738 H   0  0  0  0  0  0  0  0  0  0  0  0
   -0.7547   67.4466   69.2475 H   0  0  0  0  0  0  0  0  0  0  0  0
   -1.0268   66.1046   67.1155 H   0  0  0  0  0  0  0  0  0  0  0  0
   -1.0053   67.9417   67.0201 H   0  0  0  0  0  0  0  0  0  0  0  0
    0.8786   65.9333   65.8847 H   0  0  0  0  0  0  0  0  0  0  0  0
    0.2637   67.5102   65.2333 H   0  0  0  0  0  0  0  0  0  0  0  0
    3.8068   67.2646   65.7103 H   0  0  0  0  0  0  0  0  0  0  0  0
    2.4415   67.6654   64.5362 H   0  0  0  0  0  0  0  0  0  0  0  0
    3.8683   69.4610   64.3412 H   0  0  0  0  0  0  0  0  0  0  0  0
    2.5663   69.9891   65.5335 H   0  0  0  0  0  0  0  0  0  0  0  0
    7.8723   70.1404   66.6388 H   0  0  0  0  0  0  0  0  0  0  0  0
    6.1492   69.3842   65.0108 H   0  0  0  0  0  0  0  0  0  0  0  0
    3.0637   70.1967   67.9266 H   0  0  0  0  0  0  0  0  0  0  0  0
    4.7980   70.9390   69.5559 H   0  0  0  0  0  0  0  0  0  0  0  0
    7.6231   71.5476   70.9723 H   0  0  0  0  0  0  0  0  0  0  0  0
    6.4024   70.2821   70.6048 H   0  0  0  0  0  0  0  0  0  0  0  0
    8.1509   69.8704   70.6048 H   0  0  0  0  0  0  0  0  0  0  0  0
    0.4161   62.1935   70.0831 H   0  0  0  0  0  0  0  0  0  0  0  0
    1.1899   63.4137   68.9743 H   0  0  0  0  0  0  0  0  0  0  0  0
    3.4836   64.4573   70.0494 H   0  0  0  0  0  0  0  0  0  0  0  0
    5.7386   63.6242   70.7203 H   0  0  0  0  0  0  0  0  0  0  0  0
    4.0862   59.7073   71.4620 H   0  0  0  0  0  0  0  0  0  0  0  0
    1.8253   60.5271   70.8007 H   0  0  0  0  0  0  0  0  0  0  0  0
  2  1  1  0
  3  2  2  0
  4  3  1  0
  5  4  2  0
  6  5  1  0
  6  2  1  0
  7  5  1  0
  8  7  2  0
  9  8  1  0
 10  9  2  0
 10  4  1  0
 12 11  1  0
 13 12  1  0
 14 13  1  0
 14  1  1  0
 15 14  1  0
 16 15  1  0
 16 11  1  0
 17 11  1  0
 18 17  1  0
 20 19  2  0
 21 20  1  0
 22 21  2  0
 22 18  1  0
 23 22  1  0
 24 19  1  0
 24 23  2  0
 26 25  1  0
 26 19  1  0
 27  6  1  0
 28 27  1  0
 29 28  2  0
 30 29  1  0
 31 30  2  0
 32 31  1  0
 33 28  1  0
 33 32  2  0
 34 31  1  0
  1 35  1  0
  7 36  1  0
  8 37  1  0
  9 38  1  0
 10 39  1  0
 11 40  1  0
 12 41  1  0
 12 42  1  0
 13 43  1  0
 13 44  1  0
 14 45  1  0
 15 46  1  0
 15 47  1  0
 16 48  1  0
 16 49  1  0
 17 50  1  0
 17 51  1  0
 18 52  1  0
 18 53  1  0
 20 54  1  0
 21 55  1  0
 23 56  1  0
 24 57  1  0
 25 58  1  0
 25 59  1  0
 25 60  1  0
 27 61  1  0
 27 62  1  0
 29 63  1  0
 30 64  1  0
 32 65  1  0
 33 66  1  0
M  CHG  1  11   1
M  END
>  <score>  (3) 
-10.563

$$$$
=
     RDKit          3D

 66 70  0  0  0  0  0  0  0  0999 V2000
    1.1490   67.8250   67.1100 N   0  0  0  0  0  0  0  0  0  0  0  0
    2.3130   68.4770   66.8870 C   0  0  0  0  0  0  0  0  0  0  0  0
    2.8880   69.3690   67.6660 N   0  0  0  0  0  0  0  0  0  0  0  0
    4.0600   69.7180   67.0360 C   0  0  0  0  0  0  0  0  0  0  0  0
    4.2010   69.0380   65.8320 C   0  0  0  0  0  0  0  0  0  0  0  0
    3.0700   68.2530   65.7520 N   0  0  0  0  0  0  0  0  0  0  0  0
    5.3100   69.2150   64.9950 C   0  0  0  0  0  0  0  0  0  0  0  0
    6.2920   70.1190   65.4160 C   0  0  0  0  0  0  0  0  0  0  0  0
    6.1700   70.8110   66.6200 C   0  0  0  0  0  0  0  0  0  0  0  0
    5.0540   70.6210   67.4440 C   0  0  0  0  0  0  0  0  0  0  0  0
    0.7100   65.3560   69.5220 N   0  0  0  0  0  4  0  0  0  0  0  0
   -0.6940   65.8720   69.4900 C   0  0  0  0  0  0  0  0  0  0  0  0
   -0.8140   66.9390   68.4070 C   0  0  0  0  0  0  0  0  0  0  0  0
    0.3900   67.8880   68.3620 C   0  0  0  0  0  0  0  0  0  0  0  0
    1.3050   67.7860   69.5810 C   0  0  0  0  0  0  0  0  0  0  0  0
    1.7230   66.3700   69.9590 C   0  0  0  0  0  0  0  0  0  0  0  0
    0.9040   63.9600   70.0590 C   0  0  0  0  0  0  0  0  0  0  0  0
    2.2960   63.6530   70.6310 C   0  0  0  0  0  0  0  0  0  0  0  0
    3.5640   59.5370   70.2560 C   0  0  0  0  0  0  0  0  0  0  0  0
    2.7440   59.9350   71.3120 C   0  0  0  0  0  0  0  0  0  0  0  0
    2.3450   61.2670   71.4450 C   0  0  0  0  0  0  0  0  0  0  0  0
    2.7490   62.2220   70.5030 C   0  0  0  0  0  0  0  0  0  0  0  0
    3.5870   61.8220   69.4540 C   0  0  0  0  0  0  0  0  0  0  0  0
    3.9880   60.4860   69.3290 C   0  0  0  0  0  0  0  0  0  0  0  0
    3.1430   57.3640   71.1300 C   0  0  0  0  0  0  0  0  0  0  0  0
    3.8700   58.2060   70.2430 O   0  0  0  0  0  0  0  0  0  0  0  0
    2.7200   67.3940   64.6280 C   0  0  0  0  0  0  0  0  0  0  0  0
    1.9820   68.1330   63.5350 C   0  0  0  0  0  0  0  0  0  0  0  0
    2.5870   68.4010   62.2950 C   0  0  0  0  0  0  0  0  0  0  0  0
    1.8900   69.0960   61.3030 C   0  0  0  0  0  0  0  0  0  0  0  0
    0.5980   69.5360   61.5530 C   0  0  0  0  0  0  0  0  0  0  0  0
   -0.0120   69.3030   62.7790 C   0  0  0  0  0  0  0  0  0  0  0  0
    0.6800   68.6080   63.7720 C   0  0  0  0  0  0  0  0  0  0  0  0
   -0.0700   70.1980   60.5990 F   0  0  0  0  0  0  0  0  0  0  0  0
    0.7703   67.2447   66.3479 H   0  0  0  0  0  0  0  0  0  0  0  0
    5.4052   68.6664   64.0463 H   0  0  0  0  0  0  0  0  0  0  0  0
    7.1771   70.2867   64.7847 H   0  0  0  0  0  0  0  0  0  0  0  0
    6.9589   71.5138   66.9260 H   0  0  0  0  0  0  0  0  0  0  0  0
    4.9581   71.1690   68.3930 H   0  0  0  0  0  0  0  0  0  0  0  0
    0.9227   65.2033   68.5258 H   0  0  0  0  0  0  0  0  0  0  0  0
   -1.3846   65.0448   69.2690 H   0  0  0  0  0  0  0  0  0  0  0  0
   -0.9487   66.3083   70.4671 H   0  0  0  0  0  0  0  0  0  0  0  0
   -0.9025   66.4391   67.4312 H   0  0  0  0  0  0  0  0  0  0  0  0
   -1.7014   67.5455   68.6407 H   0  0  0  0  0  0  0  0  0  0  0  0
   -0.0658   68.8885   68.3991 H   0  0  0  0  0  0  0  0  0  0  0  0
    2.2161   68.3661   69.3727 H   0  0  0  0  0  0  0  0  0  0  0  0
    0.7251   68.1718   70.4324 H   0  0  0  0  0  0  0  0  0  0  0  0
    2.6855   66.1423   69.4776 H   0  0  0  0  0  0  0  0  0  0  0  0
    1.8074   66.3191   71.0546 H   0  0  0  0  0  0  0  0  0  0  0  0
    0.1670   63.8007   70.8599 H   0  0  0  0  0  0  0  0  0  0  0  0
    0.7794   63.2877   69.1973 H   0  0  0  0  0  0  0  0  0  0  0  0
    3.0254   64.2875   70.1063 H   0  0  0  0  0  0  0  0  0  0  0  0
    2.2295   63.8531   71.7106 H   0  0  0  0  0  0  0  0  0  0  0  0
    2.4075   59.1909   72.0489 H   0  0  0  0  0  0  0  0  0  0  0  0
    1.7112   61.5672   72.2925 H   0  0  0  0  0  0  0  0  0  0  0  0
    3.9337   62.5651   68.7208 H   0  0  0  0  0  0  0  0  0  0  0  0
    4.6401   60.1851   68.4958 H   0  0  0  0  0  0  0  0  0  0  0  0
    3.3782   57.6364   72.1695 H   0  0  0  0  0  0  0  0  0  0  0  0
    2.0646   57.4893   70.9532 H   0  0  0  0  0  0  0  0  0  0  0  0
    3.4242   56.3154   70.9532 H   0  0  0  0  0  0  0  0  0  0  0  0
    3.6445   66.9733   64.2057 H   0  0  0  0  0  0  0  0  0  0  0  0
    2.0506   66.6078   65.0072 H   0  0  0  0  0  0  0  0  0  0  0  0
    3.6157   68.0615   62.1041 H   0  0  0  0  0  0  0  0  0  0  0  0
    2.3629   69.2931   60.3296 H   0  0  0  0  0  0  0  0  0  0  0  0
   -1.0341   69.6640   62.9661 H   0  0  0  0  0  0  0  0  0  0  0  0
    0.2033   68.4305   64.7473 H   0  0  0  0  0  0  0  0  0  0  0  0
  2  1  1  0
  3  2  2  0
  4  3  1  0
  5  4  2  0
  6  5  1  0
  6  2  1  0
  7  5  1  0
  8  7  2  0
  9  8  1  0
 10  9  2  0
 10  4  1  0
 12 11  1  0
 13 12  1  0
 14 13  1  0
 14  1  1  0
 15 14  1  0
 16 15  1  0
 16 11  1  0
 17 11  1  0
 18 17  1  0
 20 19  2  0
 21 20  1  0
 22 21  2  0
 22 18  1  0
 23 22  1  0
 24 19  1  0
 24 23  2  0
 26 25  1  0
 26 19  1  0
 27  6  1  0
 28 27  1  0
 29 28  2  0
 30 29  1  0
 31 30  2  0
 32 31  1  0
 33 28  1  0
 33 32  2  0
 34 31  1  0
  1 35  1  0
  7 36  1  0
  8 37  1  0
  9 38  1  0
 10 39  1  0
 11 40  1  0
 12 41  1  0
 12 42  1  0
 13 43  1  0
 13 44  1  0
 14 45  1  0
 15 46  1  0
 15 47  1  0
 16 48  1  0
 16 49  1  0
 17 50  1  0
 17 51  1  0
 18 52  1  0
 18 53  1  0
 20 54  1  0
 21 55  1  0
 23 56  1  0
 24 57  1  0
 25 58  1  0
 25 59  1  0
 25 60  1  0
 27 61  1  0
 27 62  1  0
 29 63  1  0
 30 64  1  0
 32 65  1  0
 33 66  1  0
M  CHG  1  11   1
M  END
>  <score>  (4) 
-10.509

$$$$
=
     RDKit          3D

 66 70  0  0  0  0  0  0  0  0999 V2000
    1.1260   68.7880   65.4420 N   0  0  0  0  0  0  0  0  0  0  0  0
    1.9000   67.7180   65.1490 C   0  0  0  0  0  0  0  0  0  0  0  0
    1.5830   66.4470   65.2770 N   0  0  0  0  0  0  0  0  0  0  0  0
    2.6730   65.7410   64.8230 C   0  0  0  0  0  0  0  0  0  0  0  0
    3.6910   66.5970   64.4230 C   0  0  0  0  0  0  0  0  0  0  0  0
    3.1800   67.8580   64.6440 N   0  0  0  0  0  0  0  0  0  0  0  0
    4.9130   66.1290   63.9210 C   0  0  0  0  0  0  0  0  0  0  0  0
    5.0790   64.7420   63.8340 C   0  0  0  0  0  0  0  0  0  0  0  0
    4.0700   63.8650   64.2300 C   0  0  0  0  0  0  0  0  0  0  0  0
    2.8560   64.3520   64.7290 C   0  0  0  0  0  0  0  0  0  0  0  0
   -0.3200   67.2380   68.1990 N   0  0  0  0  0  4  0  0  0  0  0  0
   -1.3160   66.8080   67.1690 C   0  0  0  0  0  0  0  0  0  0  0  0
   -0.8580   67.2860   65.7950 C   0  0  0  0  0  0  0  0  0  0  0  0
   -0.2890   68.7110   65.8150 C   0  0  0  0  0  0  0  0  0  0  0  0
   -0.5740   69.4740   67.1070 C   0  0  0  0  0  0  0  0  0  0  0  0
   -0.2410   68.7220   68.3890 C   0  0  0  0  0  0  0  0  0  0  0  0
   -0.2520   66.4100   69.4590 C   0  0  0  0  0  0  0  0  0  0  0  0
    1.1560   66.1660   70.0200 C   0  0  0  0  0  0  0  0  0  0  0  0
    1.9650   62.1500   71.4030 C   0  0  0  0  0  0  0  0  0  0  0  0
    2.9810   62.9310   70.8510 C   0  0  0  0  0  0  0  0  0  0  0  0
    2.7210   64.2230   70.3900 C   0  0  0  0  0  0  0  0  0  0  0  0
    1.4320   64.7620   70.4920 C   0  0  0  0  0  0  0  0  0  0  0  0
    0.4100   63.9680   71.0300 C   0  0  0  0  0  0  0  0  0  0  0  0
    0.6770   62.6720   71.4870 C   0  0  0  0  0  0  0  0  0  0  0  0
    3.1120   60.1260   70.9020 C   0  0  0  0  0  0  0  0  0  0  0  0
    2.3620   60.9120   71.8210 O   0  0  0  0  0  0  0  0  0  0  0  0
    3.9030   69.1070   64.4390 C   0  0  0  0  0  0  0  0  0  0  0  0
    4.6160   69.5810   65.6860 C   0  0  0  0  0  0  0  0  0  0  0  0
    6.0060   69.7870   65.7010 C   0  0  0  0  0  0  0  0  0  0  0  0
    6.6450   70.2150   66.8670 C   0  0  0  0  0  0  0  0  0  0  0  0
    5.9020   70.4220   68.0210 C   0  0  0  0  0  0  0  0  0  0  0  0
    4.5310   70.2040   68.0360 C   0  0  0  0  0  0  0  0  0  0  0  0
    3.8880   69.7780   66.8730 C   0  0  0  0  0  0  0  0  0  0  0  0
    6.5160   70.8370   69.1370 F   0  0  0  0  0  0  0  0  0  0  0  0
    1.5610   69.7207   65.4000 H   0  0  0  0  0  0  0  0  0  0  0  0
    5.7078   66.8223   63.6087 H   0  0  0  0  0  0  0  0  0  0  0  0
    6.0245   64.3357   63.4454 H   0  0  0  0  0  0  0  0  0  0  0  0
    4.2294   62.7796   64.1495 H   0  0  0  0  0  0  0  0  0  0  0  0
    2.0605   63.6596   65.0415 H   0  0  0  0  0  0  0  0  0  0  0  0
    0.5816   66.9928   67.7655 H   0  0  0  0  0  0  0  0  0  0  0  0
   -1.3944   65.7108   67.1691 H   0  0  0  0  0  0  0  0  0  0  0  0
   -2.2988   67.2436   67.4021 H   0  0  0  0  0  0  0  0  0  0  0  0
   -0.0783   66.6023   65.4279 H   0  0  0  0  0  0  0  0  0  0  0  0
   -1.7403   67.2931   65.1381 H   0  0  0  0  0  0  0  0  0  0  0  0
   -0.8490   69.2275   65.0216 H   0  0  0  0  0  0  0  0  0  0  0  0
    0.0175   70.4013   67.0926 H   0  0  0  0  0  0  0  0  0  0  0  0
   -1.6601   69.6471   67.1270 H   0  0  0  0  0  0  0  0  0  0  0  0
    0.7794   68.9871   68.7027 H   0  0  0  0  0  0  0  0  0  0  0  0
   -0.9766   69.0087   69.1549 H   0  0  0  0  0  0  0  0  0  0  0  0
   -0.8400   66.9243   70.2335 H   0  0  0  0  0  0  0  0  0  0  0  0
   -0.6426   65.4182   69.1875 H   0  0  0  0  0  0  0  0  0  0  0  0
    1.8821   66.4067   69.2295 H   0  0  0  0  0  0  0  0  0  0  0  0
    1.2413   66.8062   70.9105 H   0  0  0  0  0  0  0  0  0  0  0  0
    4.0001   62.5235   70.7781 H   0  0  0  0  0  0  0  0  0  0  0  0
    3.5310   64.8197   69.9452 H   0  0  0  0  0  0  0  0  0  0  0  0
   -0.6129   64.3675   71.0938 H   0  0  0  0  0  0  0  0  0  0  0  0
   -0.1339   62.0637   71.9141 H   0  0  0  0  0  0  0  0  0  0  0  0
    3.7676   59.4389   71.4570 H   0  0  0  0  0  0  0  0  0  0  0  0
    2.4243   59.5457   70.2693 H   0  0  0  0  0  0  0  0  0  0  0  0
    3.7239   60.7858   70.2693 H   0  0  0  0  0  0  0  0  0  0  0  0
    4.6479   68.9558   63.6438 H   0  0  0  0  0  0  0  0  0  0  0  0
    3.1658   69.8762   64.1654 H   0  0  0  0  0  0  0  0  0  0  0  0
    6.5946   69.6101   64.7887 H   0  0  0  0  0  0  0  0  0  0  0  0
    7.7314   70.3871   66.8707 H   0  0  0  0  0  0  0  0  0  0  0  0
    3.9550   70.3661   68.9590 H   0  0  0  0  0  0  0  0  0  0  0  0
    2.8034   69.5949   66.8848 H   0  0  0  0  0  0  0  0  0  0  0  0
  2  1  1  0
  3  2  2  0
  4  3  1  0
  5  4  2  0
  6  5  1  0
  6  2  1  0
  7  5  1  0
  8  7  2  0
  9  8  1  0
 10  9  2  0
 10  4  1  0
 12 11  1  0
 13 12  1  0
 14 13  1  0
 14  1  1  0
 15 14  1  0
 16 15  1  0
 16 11  1  0
 17 11  1  0
 18 17  1  0
 20 19  2  0
 21 20  1  0
 22 21  2  0
 22 18  1  0
 23 22  1  0
 24 19  1  0
 24 23  2  0
 26 25  1  0
 26 19  1  0
 27  6  1  0
 28 27  1  0
 29 28  2  0
 30 29  1  0
 31 30  2  0
 32 31  1  0
 33 28  1  0
 33 32  2  0
 34 31  1  0
  1 35  1  0
  7 36  1  0
  8 37  1  0
  9 38  1  0
 10 39  1  0
 11 40  1  0
 12 41  1  0
 12 42  1  0
 13 43  1  0
 13 44  1  0
 14 45  1  0
 15 46  1  0
 15 47  1  0
 16 48  1  0
 16 49  1  0
 17 50  1  0
 17 51  1  0
 18 52  1  0
 18 53  1  0
 20 54  1  0
 21 55  1  0
 23 56  1  0
 24 57  1  0
 25 58  1  0
 25 59  1  0
 25 60  1  0
 27 61  1  0
 27 62  1  0
 29 63  1  0
 30 64  1  0
 32 65  1  0
 33 66  1  0
M  CHG  1  11   1
M  END
>  <score>  (5) 
-10.367

$$$$
=
     RDKit          3D

 66 70  0  0  0  0  0  0  0  0999 V2000
    1.3470   66.2630   68.7880 N   0  0  0  0  0  0  0  0  0  0  0  0
    0.3380   66.8150   68.0760 C   0  0  0  0  0  0  0  0  0  0  0  0
   -0.9500   66.7570   68.3430 N   0  0  0  0  0  0  0  0  0  0  0  0
   -1.5700   67.4920   67.3600 C   0  0  0  0  0  0  0  0  0  0  0  0
   -0.6440   68.0010   66.4580 C   0  0  0  0  0  0  0  0  0  0  0  0
    0.5710   67.5520   66.9300 N   0  0  0  0  0  0  0  0  0  0  0  0
   -1.0190   68.7860   65.3590 C   0  0  0  0  0  0  0  0  0  0  0  0
   -2.3830   69.0470   65.1960 C   0  0  0  0  0  0  0  0  0  0  0  0
   -3.3290   68.5470   66.0890 C   0  0  0  0  0  0  0  0  0  0  0  0
   -2.9360   67.7640   67.1810 C   0  0  0  0  0  0  0  0  0  0  0  0
    1.9680   62.9600   69.6870 N   0  0  0  0  0  4  0  0  0  0  0  0
    0.6800   63.1410   70.4250 C   0  0  0  0  0  0  0  0  0  0  0  0
    0.1130   64.5230   70.1180 C   0  0  0  0  0  0  0  0  0  0  0  0
    1.1850   65.6200   70.0950 C   0  0  0  0  0  0  0  0  0  0  0  0
    2.5270   65.1870   70.6810 C   0  0  0  0  0  0  0  0  0  0  0  0
    3.0690   63.8660   70.1490 C   0  0  0  0  0  0  0  0  0  0  0  0
    2.3730   61.5410   69.3730 C   0  0  0  0  0  0  0  0  0  0  0  0
    3.3950   60.9130   70.3320 C   0  0  0  0  0  0  0  0  0  0  0  0
    1.8040   57.8910   72.9830 C   0  0  0  0  0  0  0  0  0  0  0  0
    1.5070   59.2390   73.1810 C   0  0  0  0  0  0  0  0  0  0  0  0
    2.0310   60.2200   72.3370 C   0  0  0  0  0  0  0  0  0  0  0  0
    2.8520   59.8580   71.2600 C   0  0  0  0  0  0  0  0  0  0  0  0
    3.1630   58.5050   71.0750 C   0  0  0  0  0  0  0  0  0  0  0  0
    2.6380   57.5270   71.9290 C   0  0  0  0  0  0  0  0  0  0  0  0
    0.0580   56.3410   73.4420 C   0  0  0  0  0  0  0  0  0  0  0  0
    1.2180   57.0410   73.8770 O   0  0  0  0  0  0  0  0  0  0  0  0
    1.8580   67.7710   66.2820 C   0  0  0  0  0  0  0  0  0  0  0  0
    2.6990   68.8100   66.9880 C   0  0  0  0  0  0  0  0  0  0  0  0
    3.9700   69.1720   66.5100 C   0  0  0  0  0  0  0  0  0  0  0  0
    4.7350   70.1270   67.1850 C   0  0  0  0  0  0  0  0  0  0  0  0
    4.2390   70.7080   68.3440 C   0  0  0  0  0  0  0  0  0  0  0  0
    2.9960   70.3500   68.8480 C   0  0  0  0  0  0  0  0  0  0  0  0
    2.2280   69.3980   68.1760 C   0  0  0  0  0  0  0  0  0  0  0  0
    4.9720   71.6260   68.9870 F   0  0  0  0  0  0  0  0  0  0  0  0
    2.2939   66.2969   68.3840 H   0  0  0  0  0  0  0  0  0  0  0  0
   -0.2718   69.1801   64.6545 H   0  0  0  0  0  0  0  0  0  0  0  0
   -2.7163   69.6596   64.3454 H   0  0  0  0  0  0  0  0  0  0  0  0
   -4.3950   68.7698   65.9343 H   0  0  0  0  0  0  0  0  0  0  0  0
   -3.6830   67.3693   67.8854 H   0  0  0  0  0  0  0  0  0  0  0  0
    1.7424   63.3023   68.7421 H   0  0  0  0  0  0  0  0  0  0  0  0
   -0.0374   62.3704   70.1064 H   0  0  0  0  0  0  0  0  0  0  0  0
    0.8588   63.0480   71.5064 H   0  0  0  0  0  0  0  0  0  0  0  0
   -0.3760   64.4903   69.1332 H   0  0  0  0  0  0  0  0  0  0  0  0
   -0.5961   64.7731   70.9209 H   0  0  0  0  0  0  0  0  0  0  0  0
    0.7859   66.3893   70.7724 H   0  0  0  0  0  0  0  0  0  0  0  0
    3.2649   65.9721   70.4591 H   0  0  0  0  0  0  0  0  0  0  0  0
    2.3569   65.0369   71.7574 H   0  0  0  0  0  0  0  0  0  0  0  0
    3.7404   64.0715   69.3022 H   0  0  0  0  0  0  0  0  0  0  0  0
    3.6069   63.3626   70.9659 H   0  0  0  0  0  0  0  0  0  0  0  0
    1.4661   60.9188   69.3907 H   0  0  0  0  0  0  0  0  0  0  0  0
    2.8675   61.5804   68.3912 H   0  0  0  0  0  0  0  0  0  0  0  0
    4.1905   60.4544   69.7263 H   0  0  0  0  0  0  0  0  0  0  0  0
    3.7449   61.7317   70.9780 H   0  0  0  0  0  0  0  0  0  0  0  0
    0.8510   59.5334   74.0134 H   0  0  0  0  0  0  0  0  0  0  0  0
    1.7989   61.2800   72.5177 H   0  0  0  0  0  0  0  0  0  0  0  0
    3.8268   58.2073   70.2500 H   0  0  0  0  0  0  0  0  0  0  0  0
    2.8854   56.4676   71.7666 H   0  0  0  0  0  0  0  0  0  0  0  0
   -0.5123   55.9968   74.3174 H   0  0  0  0  0  0  0  0  0  0  0  0
   -0.5692   57.0115   72.8362 H   0  0  0  0  0  0  0  0  0  0  0  0
    0.3589   55.4735   72.8362 H   0  0  0  0  0  0  0  0  0  0  0  0
    2.4114   66.8204   66.2689 H   0  0  0  0  0  0  0  0  0  0  0  0
    1.6587   68.1407   65.2653 H   0  0  0  0  0  0  0  0  0  0  0  0
    4.3654   68.7004   65.5983 H   0  0  0  0  0  0  0  0  0  0  0  0
    5.7240   70.4165   66.8003 H   0  0  0  0  0  0  0  0  0  0  0  0
    2.6187   70.8138   69.7713 H   0  0  0  0  0  0  0  0  0  0  0  0
    1.2470   69.1052   68.5783 H   0  0  0  0  0  0  0  0  0  0  0  0
  2  1  1  0
  3  2  2  0
  4  3  1  0
  5  4  2  0
  6  5  1  0
  6  2  1  0
  7  5  1  0
  8  7  2  0
  9  8  1  0
 10  9  2  0
 10  4  1  0
 12 11  1  0
 13 12  1  0
 14 13  1  0
 14  1  1  0
 15 14  1  0
 16 15  1  0
 16 11  1  0
 17 11  1  0
 18 17  1  0
 20 19  2  0
 21 20  1  0
 22 21  2  0
 22 18  1  0
 23 22  1  0
 24 19  1  0
 24 23  2  0
 26 25  1  0
 26 19  1  0
 27  6  1  0
 28 27  1  0
 29 28  2  0
 30 29  1  0
 31 30  2  0
 32 31  1  0
 33 28  1  0
 33 32  2  0
 34 31  1  0
  1 35  1  0
  7 36  1  0
  8 37  1  0
  9 38  1  0
 10 39  1  0
 11 40  1  0
 12 41  1  0
 12 42  1  0
 13 43  1  0
 13 44  1  0
 14 45  1  0
 15 46  1  0
 15 47  1  0
 16 48  1  0
 16 49  1  0
 17 50  1  0
 17 51  1  0
 18 52  1  0
 18 53  1  0
 20 54  1  0
 21 55  1  0
 23 56  1  0
 24 57  1  0
 25 58  1  0
 25 59  1  0
 25 60  1  0
 27 61  1  0
 27 62  1  0
 29 63  1  0
 30 64  1  0
 32 65  1  0
 33 66  1  0
M  CHG  1  11   1
M  END
>  <score>  (6) 
-10.146

$$$$
=
     RDKit          3D

 66 70  0  0  0  0  0  0  0  0999 V2000
    1.2510   61.0570   73.7400 N   0  0  0  0  0  0  0  0  0  0  0  0
    1.0510   59.7210   73.8150 C   0  0  0  0  0  0  0  0  0  0  0  0
   -0.0720   59.0990   74.1040 N   0  0  0  0  0  0  0  0  0  0  0  0
    0.2120   57.7550   74.0240 C   0  0  0  0  0  0  0  0  0  0  0  0
    1.5450   57.5450   73.6940 C   0  0  0  0  0  0  0  0  0  0  0  0
    2.0670   58.8150   73.5700 N   0  0  0  0  0  0  0  0  0  0  0  0
    2.0910   56.2630   73.5510 C   0  0  0  0  0  0  0  0  0  0  0  0
    1.2330   55.1770   73.7560 C   0  0  0  0  0  0  0  0  0  0  0  0
   -0.1080   55.3650   74.0860 C   0  0  0  0  0  0  0  0  0  0  0  0
   -0.6350   56.6540   74.2250 C   0  0  0  0  0  0  0  0  0  0  0  0
    0.7440   63.8600   71.7430 N   0  0  0  0  0  4  0  0  0  0  0  0
    0.4370   64.4860   73.0670 C   0  0  0  0  0  0  0  0  0  0  0  0
    0.6830   63.4670   74.1750 C   0  0  0  0  0  0  0  0  0  0  0  0
    0.1860   62.0600   73.8180 C   0  0  0  0  0  0  0  0  0  0  0  0
   -0.7210   62.0160   72.5890 C   0  0  0  0  0  0  0  0  0  0  0  0
   -0.1850   62.7470   71.3640 C   0  0  0  0  0  0  0  0  0  0  0  0
    1.1350   64.7980   70.6280 C   0  0  0  0  0  0  0  0  0  0  0  0
    0.3750   66.1310   70.5810 C   0  0  0  0  0  0  0  0  0  0  0  0
   -0.2110   67.7670   66.6220 C   0  0  0  0  0  0  0  0  0  0  0  0
    1.0090   67.9190   67.2820 C   0  0  0  0  0  0  0  0  0  0  0  0
    1.1970   67.4050   68.5660 C   0  0  0  0  0  0  0  0  0  0  0  0
    0.1640   66.7090   69.2060 C   0  0  0  0  0  0  0  0  0  0  0  0
   -1.0670   66.5750   68.5490 C   0  0  0  0  0  0  0  0  0  0  0  0
   -1.2510   67.0960   67.2620 C   0  0  0  0  0  0  0  0  0  0  0  0
    0.9630   68.3350   64.6320 C   0  0  0  0  0  0  0  0  0  0  0  0
   -0.2540   68.3100   65.3700 O   0  0  0  0  0  0  0  0  0  0  0  0
    3.4640   59.1280   73.2950 C   0  0  0  0  0  0  0  0  0  0  0  0
    3.6400   59.9790   72.0580 C   0  0  0  0  0  0  0  0  0  0  0  0
    3.1330   59.5720   70.8110 C   0  0  0  0  0  0  0  0  0  0  0  0
    3.3170   60.3690   69.6790 C   0  0  0  0  0  0  0  0  0  0  0  0
    4.0160   61.5630   69.7850 C   0  0  0  0  0  0  0  0  0  0  0  0
    4.5450   61.9740   71.0020 C   0  0  0  0  0  0  0  0  0  0  0  0
    4.3630   61.1820   72.1360 C   0  0  0  0  0  0  0  0  0  0  0  0
    4.1870   62.3270   68.6990 F   0  0  0  0  0  0  0  0  0  0  0  0
    2.2177   61.3917   73.6199 H   0  0  0  0  0  0  0  0  0  0  0  0
    3.1492   56.1163   73.2887 H   0  0  0  0  0  0  0  0  0  0  0  0
    1.6247   54.1541   73.6547 H   0  0  0  0  0  0  0  0  0  0  0  0
   -0.7587   54.4914   74.2387 H   0  0  0  0  0  0  0  0  0  0  0  0
   -1.6931   56.8015   74.4869 H   0  0  0  0  0  0  0  0  0  0  0  0
    1.6433   63.3875   71.9133 H   0  0  0  0  0  0  0  0  0  0  0  0
    1.0875   65.3597   73.2201 H   0  0  0  0  0  0  0  0  0  0  0  0
   -0.6150   64.8068   73.0881 H   0  0  0  0  0  0  0  0  0  0  0  0
    1.7642   63.4173   74.3715 H   0  0  0  0  0  0  0  0  0  0  0  0
    0.1193   63.8002   75.0589 H   0  0  0  0  0  0  0  0  0  0  0  0
   -0.4423   61.7803   74.6765 H   0  0  0  0  0  0  0  0  0  0  0  0
   -0.8748   60.9615   72.3164 H   0  0  0  0  0  0  0  0  0  0  0  0
   -1.6485   62.5344   72.8738 H   0  0  0  0  0  0  0  0  0  0  0  0
    0.3579   62.0300   70.7306 H   0  0  0  0  0  0  0  0  0  0  0  0
   -1.0390   63.1828   70.8248 H   0  0  0  0  0  0  0  0  0  0  0  0
    2.2062   65.0235   70.7363 H   0  0  0  0  0  0  0  0  0  0  0  0
    0.8809   64.2753   69.6941 H   0  0  0  0  0  0  0  0  0  0  0  0
   -0.6132   65.9740   71.0379 H   0  0  0  0  0  0  0  0  0  0  0  0
    1.0027   66.8557   71.1202 H   0  0  0  0  0  0  0  0  0  0  0  0
    1.8332   68.4507   66.7840 H   0  0  0  0  0  0  0  0  0  0  0  0
    2.1605   67.5472   69.0773 H   0  0  0  0  0  0  0  0  0  0  0  0
   -1.8972   66.0552   69.0495 H   0  0  0  0  0  0  0  0  0  0  0  0
   -2.2196   66.9751   66.7549 H   0  0  0  0  0  0  0  0  0  0  0  0
    1.8140   68.3525   65.3287 H   0  0  0  0  0  0  0  0  0  0  0  0
    1.0261   67.4380   63.9985 H   0  0  0  0  0  0  0  0  0  0  0  0
    0.9893   69.2339   63.9985 H   0  0  0  0  0  0  0  0  0  0  0  0
    3.8791   59.6706   74.1571 H   0  0  0  0  0  0  0  0  0  0  0  0
    3.9889   58.1771   73.1208 H   0  0  0  0  0  0  0  0  0  0  0  0
    2.5882   58.6201   70.7267 H   0  0  0  0  0  0  0  0  0  0  0  0
    2.9096   60.0516   68.7077 H   0  0  0  0  0  0  0  0  0  0  0  0
    5.1043   62.9187   71.0712 H   0  0  0  0  0  0  0  0  0  0  0  0
    4.7886   61.5014   73.0987 H   0  0  0  0  0  0  0  0  0  0  0  0
  2  1  1  0
  3  2  2  0
  4  3  1  0
  5  4  2  0
  6  5  1  0
  6  2  1  0
  7  5  1  0
  8  7  2  0
  9  8  1  0
 10  9  2  0
 10  4  1  0
 12 11  1  0
 13 12  1  0
 14 13  1  0
 14  1  1  0
 15 14  1  0
 16 15  1  0
 16 11  1  0
 17 11  1  0
 18 17  1  0
 20 19  2  0
 21 20  1  0
 22 21  2  0
 22 18  1  0
 23 22  1  0
 24 19  1  0
 24 23  2  0
 26 25  1  0
 26 19  1  0
 27  6  1  0
 28 27  1  0
 29 28  2  0
 30 29  1  0
 31 30  2  0
 32 31  1  0
 33 28  1  0
 33 32  2  0
 34 31  1  0
  1 35  1  0
  7 36  1  0
  8 37  1  0
  9 38  1  0
 10 39  1  0
 11 40  1  0
 12 41  1  0
 12 42  1  0
 13 43  1  0
 13 44  1  0
 14 45  1  0
 15 46  1  0
 15 47  1  0
 16 48  1  0
 16 49  1  0
 17 50  1  0
 17 51  1  0
 18 52  1  0
 18 53  1  0
 20 54  1  0
 21 55  1  0
 23 56  1  0
 24 57  1  0
 25 58  1  0
 25 59  1  0
 25 60  1  0
 27 61  1  0
 27 62  1  0
 29 63  1  0
 30 64  1  0
 32 65  1  0
 33 66  1  0
M  CHG  1  11   1
M  END
>  <score>  (7) 
-9.976

$$$$
=
     RDKit          3D

 66 70  0  0  0  0  0  0  0  0999 V2000
    1.4370   68.1830   66.5810 N   0  0  0  0  0  0  0  0  0  0  0  0
    1.2180   68.4820   65.2800 C   0  0  0  0  0  0  0  0  0  0  0  0
    0.0760   68.8230   64.7220 N   0  0  0  0  0  0  0  0  0  0  0  0
    0.3620   69.0590   63.3970 C   0  0  0  0  0  0  0  0  0  0  0  0
    1.7080   68.8430   63.1300 C   0  0  0  0  0  0  0  0  0  0  0  0
    2.2380   68.4690   64.3460 N   0  0  0  0  0  0  0  0  0  0  0  0
    2.2580   69.0140   61.8530 C   0  0  0  0  0  0  0  0  0  0  0  0
    1.3900   69.4180   60.8320 C   0  0  0  0  0  0  0  0  0  0  0  0
    0.0360   69.6410   61.0780 C   0  0  0  0  0  0  0  0  0  0  0  0
   -0.4950   69.4640   62.3620 C   0  0  0  0  0  0  0  0  0  0  0  0
    0.6570   66.0080   69.1820 N   0  0  0  0  0  4  0  0  0  0  0  0
   -0.7370   66.4060   68.8140 C   0  0  0  0  0  0  0  0  0  0  0  0
   -0.6960   67.3170   67.5920 C   0  0  0  0  0  0  0  0  0  0  0  0
    0.4430   68.3430   67.6460 C   0  0  0  0  0  0  0  0  0  0  0  0
    1.1020   68.4650   69.0190 C   0  0  0  0  0  0  0  0  0  0  0  0
    1.5100   67.1450   69.6590 C   0  0  0  0  0  0  0  0  0  0  0  0
    0.8130   64.7090   69.9330 C   0  0  0  0  0  0  0  0  0  0  0  0
    2.2140   64.4270   70.4930 C   0  0  0  0  0  0  0  0  0  0  0  0
    3.5900   60.3550   70.0230 C   0  0  0  0  0  0  0  0  0  0  0  0
    2.8810   60.7400   71.1610 C   0  0  0  0  0  0  0  0  0  0  0  0
    2.4480   62.0570   71.3240 C   0  0  0  0  0  0  0  0  0  0  0  0
    2.7050   63.0120   70.3310 C   0  0  0  0  0  0  0  0  0  0  0  0
    3.4330   62.6260   69.1980 C   0  0  0  0  0  0  0  0  0  0  0  0
    3.8690   61.3040   69.0430 C   0  0  0  0  0  0  0  0  0  0  0  0
    3.3850   58.1900   70.9890 C   0  0  0  0  0  0  0  0  0  0  0  0
    3.9440   59.0360   69.9910 O   0  0  0  0  0  0  0  0  0  0  0  0
    3.6210   68.0680   64.5740 C   0  0  0  0  0  0  0  0  0  0  0  0
    3.8570   66.6010   64.2950 C   0  0  0  0  0  0  0  0  0  0  0  0
    4.5930   66.1770   63.1740 C   0  0  0  0  0  0  0  0  0  0  0  0
    4.7900   64.8160   62.9300 C   0  0  0  0  0  0  0  0  0  0  0  0
    4.2420   63.8770   63.7930 C   0  0  0  0  0  0  0  0  0  0  0  0
    3.4920   64.2710   64.8930 C   0  0  0  0  0  0  0  0  0  0  0  0
    3.2940   65.6300   65.1420 C   0  0  0  0  0  0  0  0  0  0  0  0
    4.4350   62.5730   63.5590 F   0  0  0  0  0  0  0  0  0  0  0  0
    2.3647   67.8184   66.8405 H   0  0  0  0  0  0  0  0  0  0  0  0
    3.3267   68.8382   61.6608 H   0  0  0  0  0  0  0  0  0  0  0  0
    1.7840   69.5624   59.8152 H   0  0  0  0  0  0  0  0  0  0  0  0
   -0.6218   69.9591   60.2557 H   0  0  0  0  0  0  0  0  0  0  0  0
   -1.5636   69.6391   62.5555 H   0  0  0  0  0  0  0  0  0  0  0  0
    1.0702   65.7480   68.2750 H   0  0  0  0  0  0  0  0  0  0  0  0
   -1.3266   65.5068   68.5821 H   0  0  0  0  0  0  0  0  0  0  0  0
   -1.2017   66.9401   69.6559 H   0  0  0  0  0  0  0  0  0  0  0  0
   -0.5642   66.6942   66.6950 H   0  0  0  0  0  0  0  0  0  0  0  0
   -1.6422   67.8774   67.5681 H   0  0  0  0  0  0  0  0  0  0  0  0
   -0.0613   69.3024   67.4581 H   0  0  0  0  0  0  0  0  0  0  0  0
    2.0046   69.0843   68.9100 H   0  0  0  0  0  0  0  0  0  0  0  0
    0.3453   68.9069   69.6839 H   0  0  0  0  0  0  0  0  0  0  0  0
    2.5591   66.9347   69.4036 H   0  0  0  0  0  0  0  0  0  0  0  0
    1.3790   67.2377   70.7472 H   0  0  0  0  0  0  0  0  0  0  0  0
    0.1078   64.7200   70.7771 H   0  0  0  0  0  0  0  0  0  0  0  0
    0.6183   63.9134   69.1988 H   0  0  0  0  0  0  0  0  0  0  0  0
    2.9240   65.0928   69.9805 H   0  0  0  0  0  0  0  0  0  0  0  0
    2.1462   64.6007   71.5771 H   0  0  0  0  0  0  0  0  0  0  0  0
    2.6602   59.9958   71.9404 H   0  0  0  0  0  0  0  0  0  0  0  0
    1.9033   62.3462   72.2348 H   0  0  0  0  0  0  0  0  0  0  0  0
    3.6648   63.3696   68.4213 H   0  0  0  0  0  0  0  0  0  0  0  0
    4.4335   61.0146   68.1444 H   0  0  0  0  0  0  0  0  0  0  0  0
    3.6420   58.5789   71.9853 H   0  0  0  0  0  0  0  0  0  0  0  0
    2.2911   58.1636   70.8766 H   0  0  0  0  0  0  0  0  0  0  0  0
    3.7898   57.1734   70.8766 H   0  0  0  0  0  0  0  0  0  0  0  0
    4.2724   68.6607   63.9150 H   0  0  0  0  0  0  0  0  0  0  0  0
    3.8473   68.2447   65.6359 H   0  0  0  0  0  0  0  0  0  0  0  0
    5.0164   66.9224   62.4847 H   0  0  0  0  0  0  0  0  0  0  0  0
    5.3764   64.4899   62.0584 H   0  0  0  0  0  0  0  0  0  0  0  0
    3.0563   63.5164   65.5644 H   0  0  0  0  0  0  0  0  0  0  0  0
    2.6926   65.9440   66.0079 H   0  0  0  0  0  0  0  0  0  0  0  0
  2  1  1  0
  3  2  2  0
  4  3  1  0
  5  4  2  0
  6  5  1  0
  6  2  1  0
  7  5  1  0
  8  7  2  0
  9  8  1  0
 10  9  2  0
 10  4  1  0
 12 11  1  0
 13 12  1  0
 14 13  1  0
 14  1  1  0
 15 14  1  0
 16 15  1  0
 16 11  1  0
 17 11  1  0
 18 17  1  0
 20 19  2  0
 21 20  1  0
 22 21  2  0
 22 18  1  0
 23 22  1  0
 24 19  1  0
 24 23  2  0
 26 25  1  0
 26 19  1  0
 27  6  1  0
 28 27  1  0
 29 28  2  0
 30 29  1  0
 31 30  2  0
 32 31  1  0
 33 28  1  0
 33 32  2  0
 34 31  1  0
  1 35  1  0
  7 36  1  0
  8 37  1  0
  9 38  1  0
 10 39  1  0
 11 40  1  0
 12 41  1  0
 12 42  1  0
 13 43  1  0
 13 44  1  0
 14 45  1  0
 15 46  1  0
 15 47  1  0
 16 48  1  0
 16 49  1  0
 17 50  1  0
 17 51  1  0
 18 52  1  0
 18 53  1  0
 20 54  1  0
 21 55  1  0
 23 56  1  0
 24 57  1  0
 25 58  1  0
 25 59  1  0
 25 60  1  0
 27 61  1  0
 27 62  1  0
 29 63  1  0
 30 64  1  0
 32 65  1  0
 33 66  1  0
M  CHG  1  11   1
M  END
>  <score>  (8) 
-9.895

$$$$
=
     RDKit          3D

 66 70  0  0  0  0  0  0  0  0999 V2000
    1.5190   67.8090   67.1570 N   0  0  0  0  0  0  0  0  0  0  0  0
    1.2080   68.1680   65.8900 C   0  0  0  0  0  0  0  0  0  0  0  0
    0.0150   68.4600   65.4150 N   0  0  0  0  0  0  0  0  0  0  0  0
    0.2090   68.7940   64.0950 C   0  0  0  0  0  0  0  0  0  0  0  0
    1.5500   68.6900   63.7450 C   0  0  0  0  0  0  0  0  0  0  0  0
    2.1720   68.2830   64.9050 N   0  0  0  0  0  0  0  0  0  0  0  0
    2.0130   68.9750   62.4540 C   0  0  0  0  0  0  0  0  0  0  0  0
    1.0640   69.3770   61.5070 C   0  0  0  0  0  0  0  0  0  0  0  0
   -0.2860   69.4880   61.8380 C   0  0  0  0  0  0  0  0  0  0  0  0
   -0.7310   69.1980   63.1340 C   0  0  0  0  0  0  0  0  0  0  0  0
    0.9840   65.4000   69.6080 N   0  0  0  0  0  4  0  0  0  0  0  0
   -0.4450   65.7550   69.3460 C   0  0  0  0  0  0  0  0  0  0  0  0
   -0.5130   66.7600   68.2010 C   0  0  0  0  0  0  0  0  0  0  0  0
    0.5790   67.8350   68.2800 C   0  0  0  0  0  0  0  0  0  0  0  0
    1.3060   67.8810   69.6230 C   0  0  0  0  0  0  0  0  0  0  0  0
    1.8090   66.5360   70.1330 C   0  0  0  0  0  0  0  0  0  0  0  0
    1.2400   64.0550   70.2420 C   0  0  0  0  0  0  0  0  0  0  0  0
    0.1280   63.5290   71.1610 C   0  0  0  0  0  0  0  0  0  0  0  0
    0.9460   59.7640   73.1240 C   0  0  0  0  0  0  0  0  0  0  0  0
   -0.2680   60.4220   73.3230 C   0  0  0  0  0  0  0  0  0  0  0  0
   -0.5300   61.6450   72.7030 C   0  0  0  0  0  0  0  0  0  0  0  0
    0.4210   62.2230   71.8520 C   0  0  0  0  0  0  0  0  0  0  0  0
    1.6470   61.5690   71.6690 C   0  0  0  0  0  0  0  0  0  0  0  0
    1.9050   60.3450   72.2970 C   0  0  0  0  0  0  0  0  0  0  0  0
    2.3790   58.0530   73.9490 C   0  0  0  0  0  0  0  0  0  0  0  0
    1.0650   58.5750   73.7840 O   0  0  0  0  0  0  0  0  0  0  0  0
    3.5900   67.9680   65.0340 C   0  0  0  0  0  0  0  0  0  0  0  0
    4.3390   68.9820   65.8690 C   0  0  0  0  0  0  0  0  0  0  0  0
    3.8200   69.4570   67.0850 C   0  0  0  0  0  0  0  0  0  0  0  0
    4.5250   70.4010   67.8350 C   0  0  0  0  0  0  0  0  0  0  0  0
    5.7390   70.8830   67.3660 C   0  0  0  0  0  0  0  0  0  0  0  0
    6.2610   70.4450   66.1560 C   0  0  0  0  0  0  0  0  0  0  0  0
    5.5610   69.5000   65.4040 C   0  0  0  0  0  0  0  0  0  0  0  0
    6.4150   71.7860   68.0880 F   0  0  0  0  0  0  0  0  0  0  0  0
    2.4823   67.4962   67.3445 H   0  0  0  0  0  0  0  0  0  0  0  0
    3.0784   68.8865   62.1952 H   0  0  0  0  0  0  0  0  0  0  0  0
    1.3893   69.6098   60.4823 H   0  0  0  0  0  0  0  0  0  0  0  0
   -1.0093   69.8068   61.0730 H   0  0  0  0  0  0  0  0  0  0  0  0
   -1.7964   69.2851   63.3937 H   0  0  0  0  0  0  0  0  0  0  0  0
    1.3579   65.2351   68.6625 H   0  0  0  0  0  0  0  0  0  0  0  0
   -1.0047   64.8483   69.0728 H   0  0  0  0  0  0  0  0  0  0  0  0
   -0.8867   66.1973   70.2512 H   0  0  0  0  0  0  0  0  0  0  0  0
   -0.4018   66.2168   67.2510 H   0  0  0  0  0  0  0  0  0  0  0  0
   -1.4840   67.2722   68.2705 H   0  0  0  0  0  0  0  0  0  0  0  0
    0.0218   68.7798   68.1965 H   0  0  0  0  0  0  0  0  0  0  0  0
    2.1720   68.5513   69.5188 H   0  0  0  0  0  0  0  0  0  0  0  0
    0.5671   68.2305   70.3591 H   0  0  0  0  0  0  0  0  0  0  0  0
    2.8513   66.3991   69.8090 H   0  0  0  0  0  0  0  0  0  0  0  0
    1.7339   66.5357   71.2304 H   0  0  0  0  0  0  0  0  0  0  0  0
    1.3852   63.3228   69.4341 H   0  0  0  0  0  0  0  0  0  0  0  0
    2.1217   64.1902   70.8857 H   0  0  0  0  0  0  0  0  0  0  0  0
   -0.0588   64.2876   71.9354 H   0  0  0  0  0  0  0  0  0  0  0  0
   -0.7373   63.3382   70.5092 H   0  0  0  0  0  0  0  0  0  0  0  0
   -1.0288   59.9711   73.9771 H   0  0  0  0  0  0  0  0  0  0  0  0
   -1.4868   62.1568   72.8833 H   0  0  0  0  0  0  0  0  0  0  0  0
    2.4148   62.0225   71.0249 H   0  0  0  0  0  0  0  0  0  0  0  0
    2.8689   59.8397   72.1370 H   0  0  0  0  0  0  0  0  0  0  0  0
    2.6057   57.9629   75.0216 H   0  0  0  0  0  0  0  0  0  0  0  0
    2.4417   57.0617   73.4765 H   0  0  0  0  0  0  0  0  0  0  0  0
    3.1049   58.7310   73.4765 H   0  0  0  0  0  0  0  0  0  0  0  0
    3.6895   66.9800   65.5072 H   0  0  0  0  0  0  0  0  0  0  0  0
    4.0266   67.9811   64.0245 H   0  0  0  0  0  0  0  0  0  0  0  0
    2.8517   69.0829   67.4489 H   0  0  0  0  0  0  0  0  0  0  0  0
    4.1201   70.7606   68.7925 H   0  0  0  0  0  0  0  0  0  0  0  0
    7.2208   70.8405   65.7921 H   0  0  0  0  0  0  0  0  0  0  0  0
    5.9680   69.1581   64.4410 H   0  0  0  0  0  0  0  0  0  0  0  0
  2  1  1  0
  3  2  2  0
  4  3  1  0
  5  4  2  0
  6  5  1  0
  6  2  1  0
  7  5  1  0
  8  7  2  0
  9  8  1  0
 10  9  2  0
 10  4  1  0
 12 11  1  0
 13 12  1  0
 14 13  1  0
 14  1  1  0
 15 14  1  0
 16 15  1  0
 16 11  1  0
 17 11  1  0
 18 17  1  0
 20 19  2  0
 21 20  1  0
 22 21  2  0
 22 18  1  0
 23 22  1  0
 24 19  1  0
 24 23  2  0
 26 25  1  0
 26 19  1  0
 27  6  1  0
 28 27  1  0
 29 28  2  0
 30 29  1  0
 31 30  2  0
 32 31  1  0
 33 28  1  0
 33 32  2  0
 34 31  1  0
  1 35  1  0
  7 36  1  0
  8 37  1  0
  9 38  1  0
 10 39  1  0
 11 40  1  0
 12 41  1  0
 12 42  1  0
 13 43  1  0
 13 44  1  0
 14 45  1  0
 15 46  1  0
 15 47  1  0
 16 48  1  0
 16 49  1  0
 17 50  1  0
 17 51  1  0
 18 52  1  0
 18 53  1  0
 20 54  1  0
 21 55  1  0
 23 56  1  0
 24 57  1  0
 25 58  1  0
 25 59  1  0
 25 60  1  0
 27 61  1  0
 27 62  1  0
 29 63  1  0
 30 64  1  0
 32 65  1  0
 33 66  1  0
M  CHG  1  11   1
M  END
>  <score>  (9) 
-9.495

$$$$
