=
     RDKit          3D

 22 23  0  0  0  0  0  0  0  0999 V2000
    5.3490   69.9550   66.6220 C   0  0  0  0  0  0  0  0  0  0  0  0
    4.1960   69.8250   67.4310 C   0  0  0  0  0  0  0  0  0  0  0  0
    2.9740   69.4180   66.8850 C   0  0  0  0  0  0  0  0  0  0  0  0
    2.9360   69.1440   65.5360 C   0  0  0  0  0  0  0  0  0  0  0  0
    4.0520   69.2600   64.7410 C   0  0  0  0  0  0  0  0  0  0  0  0
    5.2690   69.6590   65.2510 C   0  0  0  0  0  0  0  0  0  0  0  0
    3.8010   68.9400   63.4440 O   0  0  0  0  0  0  0  0  0  0  0  0
    2.3990   68.6090   63.5140 C   0  0  0  0  0  0  0  0  0  0  0  0
    1.8420   68.7370   64.8380 O   0  0  0  0  0  0  0  0  0  0  0  0
    6.6630   70.3810   67.2370 C   0  0  0  0  0  0  0  0  0  0  0  0
    7.4890   70.8980   69.5560 C   0  0  0  0  0  0  0  0  0  0  0  0
    6.5000   70.8560   68.6530 C   0  0  0  0  0  0  0  0  0  0  0  0
    4.2612   70.0474   68.5063 H   0  0  0  0  0  0  0  0  0  0  0  0
    2.0750   69.3203   67.5113 H   0  0  0  0  0  0  0  0  0  0  0  0
    6.1533   69.7433   64.6022 H   0  0  0  0  0  0  0  0  0  0  0  0
    1.8488   69.2806   62.8386 H   0  0  0  0  0  0  0  0  0  0  0  0
    2.3016   67.5526   63.2233 H   0  0  0  0  0  0  0  0  0  0  0  0
    7.3525   69.5240   67.2281 H   0  0  0  0  0  0  0  0  0  0  0  0
    7.0575   71.2188   66.6433 H   0  0  0  0  0  0  0  0  0  0  0  0
    7.2882   71.2598   70.5752 H   0  0  0  0  0  0  0  0  0  0  0  0
    8.5017   70.5707   69.2781 H   0  0  0  0  0  0  0  0  0  0  0  0
    5.5016   71.1919   68.9697 H   0  0  0  0  0  0  0  0  0  0  0  0
  2  1  2  0
  3  2  1  0
  4  3  2  0
  5  4  1  0
  6  5  2  0
  6  1  1  0
  7  5  1  0
  8  7  1  0
  9  8  1  0
  9  4  1  0
 10  1  1  0
 12 10  1  0
 12 11  2  3
  2 13  1  0
  3 14  1  0
  6 15  1  0
  8 16  1  0
  8 17  1  0
 10 18  1  0
 10 19  1  0
 11 20  1  0
 11 21  1  0
 12 22  1  0
M  END
>  <score>  (1) 
-7.699

$$$$
=
     RDKit          3D

 22 23  0  0  0  0  0  0  0  0999 V2000
    5.2500   69.9240   66.7710 C   0  0  0  0  0  0  0  0  0  0  0  0
    5.0360   69.5400   65.4270 C   0  0  0  0  0  0  0  0  0  0  0  0
    3.7810   69.1000   64.9940 C   0  0  0  0  0  0  0  0  0  0  0  0
    2.7630   69.0600   65.9200 C   0  0  0  0  0  0  0  0  0  0  0  0
    2.9580   69.4380   67.2280 C   0  0  0  0  0  0  0  0  0  0  0  0
    4.1830   69.8750   67.6830 C   0  0  0  0  0  0  0  0  0  0  0  0
    1.8260   69.3270   67.9740 O   0  0  0  0  0  0  0  0  0  0  0  0
    0.8970   68.8370   66.9850 C   0  0  0  0  0  0  0  0  0  0  0  0
    1.4840   68.6630   65.6790 O   0  0  0  0  0  0  0  0  0  0  0  0
    6.6110   70.4110   67.2130 C   0  0  0  0  0  0  0  0  0  0  0  0
    7.5840   70.9520   69.4690 C   0  0  0  0  0  0  0  0  0  0  0  0
    6.5790   71.0200   68.5860 C   0  0  0  0  0  0  0  0  0  0  0  0
    5.8696   69.5881   64.7109 H   0  0  0  0  0  0  0  0  0  0  0  0
    3.6132   68.7965   63.9501 H   0  0  0  0  0  0  0  0  0  0  0  0
    4.3214   70.1772   68.7316 H   0  0  0  0  0  0  0  0  0  0  0  0
    0.5082   67.8654   67.3240 H   0  0  0  0  0  0  0  0  0  0  0  0
    0.1038   69.5924   66.8846 H   0  0  0  0  0  0  0  0  0  0  0  0
    7.3068   69.5590   67.2198 H   0  0  0  0  0  0  0  0  0  0  0  0
    6.9364   71.1890   66.5067 H   0  0  0  0  0  0  0  0  0  0  0  0
    7.4815   71.4256   70.4565 H   0  0  0  0  0  0  0  0  0  0  0  0
    8.5118   70.4225   69.2066 H   0  0  0  0  0  0  0  0  0  0  0  0
    5.6682   71.5585   68.8867 H   0  0  0  0  0  0  0  0  0  0  0  0
  2  1  2  0
  3  2  1  0
  4  3  2  0
  5  4  1  0
  6  5  2  0
  6  1  1  0
  7  5  1  0
  8  7  1  0
  9  8  1  0
  9  4  1  0
 10  1  1  0
 12 10  1  0
 12 11  2  3
  2 13  1  0
  3 14  1  0
  6 15  1  0
  8 16  1  0
  8 17  1  0
 10 18  1  0
 10 19  1  0
 11 20  1  0
 11 21  1  0
 12 22  1  0
M  END
>  <score>  (2) 
-7.643

$$$$
=
     RDKit          3D

 22 23  0  0  0  0  0  0  0  0999 V2000
    4.1650   69.4000   65.6990 C   0  0  0  0  0  0  0  0  0  0  0  0
    3.1260   69.2130   66.6400 C   0  0  0  0  0  0  0  0  0  0  0  0
    1.8380   68.8530   66.2310 C   0  0  0  0  0  0  0  0  0  0  0  0
    1.6200   68.6800   64.8830 C   0  0  0  0  0  0  0  0  0  0  0  0
    2.6250   68.8510   63.9590 C   0  0  0  0  0  0  0  0  0  0  0  0
    3.9030   69.2070   64.3320 C   0  0  0  0  0  0  0  0  0  0  0  0
    2.2010   68.6290   62.6850 O   0  0  0  0  0  0  0  0  0  0  0  0
    0.8160   68.2990   62.9140 C   0  0  0  0  0  0  0  0  0  0  0  0
    0.4390   68.3310   64.3070 O   0  0  0  0  0  0  0  0  0  0  0  0
    5.5540   69.7740   66.1650 C   0  0  0  0  0  0  0  0  0  0  0  0
    6.4400   71.1050   68.1070 C   0  0  0  0  0  0  0  0  0  0  0  0
    5.5700   70.2210   67.5990 C   0  0  0  0  0  0  0  0  0  0  0  0
    3.3343   69.3530   67.7110 H   0  0  0  0  0  0  0  0  0  0  0  0
    1.0273   68.7130   66.9612 H   0  0  0  0  0  0  0  0  0  0  0  0
    4.6959   69.3365   63.5806 H   0  0  0  0  0  0  0  0  0  0  0  0
    0.1912   69.0208   62.3676 H   0  0  0  0  0  0  0  0  0  0  0  0
    0.6668   67.2675   62.5621 H   0  0  0  0  0  0  0  0  0  0  0  0
    6.2109   68.8980   66.0596 H   0  0  0  0  0  0  0  0  0  0  0  0
    5.9035   70.6132   65.5457 H   0  0  0  0  0  0  0  0  0  0  0  0
    6.3859   71.3811   69.1704 H   0  0  0  0  0  0  0  0  0  0  0  0
    7.2081   71.5544   67.4605 H   0  0  0  0  0  0  0  0  0  0  0  0
    4.8171   69.7941   68.2778 H   0  0  0  0  0  0  0  0  0  0  0  0
  2  1  2  0
  3  2  1  0
  4  3  2  0
  5  4  1  0
  6  5  2  0
  6  1  1  0
  7  5  1  0
  8  7  1  0
  9  8  1  0
  9  4  1  0
 10  1  1  0
 12 10  1  0
 12 11  2  3
  2 13  1  0
  3 14  1  0
  6 15  1  0
  8 16  1  0
  8 17  1  0
 10 18  1  0
 10 19  1  0
 11 20  1  0
 11 21  1  0
 12 22  1  0
M  END
>  <score>  (3) 
-7.135

$$$$
=
     RDKit          3D

 22 23  0  0  0  0  0  0  0  0999 V2000
    3.7350   69.2440   65.5380 C   0  0  0  0  0  0  0  0  0  0  0  0
    3.2290   68.9020   64.2630 C   0  0  0  0  0  0  0  0  0  0  0  0
    1.9040   68.4860   64.0990 C   0  0  0  0  0  0  0  0  0  0  0  0
    1.1090   68.4280   65.2220 C   0  0  0  0  0  0  0  0  0  0  0  0
    1.5870   68.7650   66.4670 C   0  0  0  0  0  0  0  0  0  0  0  0
    2.8890   69.1780   66.6580 C   0  0  0  0  0  0  0  0  0  0  0  0
    0.6420   68.6430   67.4370 O   0  0  0  0  0  0  0  0  0  0  0  0
   -0.4860   68.1900   66.6600 C   0  0  0  0  0  0  0  0  0  0  0  0
   -0.1970   68.0500   65.2530 O   0  0  0  0  0  0  0  0  0  0  0  0
    5.1660   69.7060   65.6880 C   0  0  0  0  0  0  0  0  0  0  0  0
    6.4480   70.8370   67.5330 C   0  0  0  0  0  0  0  0  0  0  0  0
    5.5410   69.9410   67.1240 C   0  0  0  0  0  0  0  0  0  0  0  0
    3.8888   68.9642   63.3850 H   0  0  0  0  0  0  0  0  0  0  0  0
    1.5107   68.2147   63.1082 H   0  0  0  0  0  0  0  0  0  0  0  0
    3.2550   69.4483   67.6595 H   0  0  0  0  0  0  0  0  0  0  0  0
   -0.8062   67.2120   67.0486 H   0  0  0  0  0  0  0  0  0  0  0  0
   -1.2716   68.9541   66.7544 H   0  0  0  0  0  0  0  0  0  0  0  0
    5.8319   68.9369   65.2697 H   0  0  0  0  0  0  0  0  0  0  0  0
    5.2696   70.6611   65.1522 H   0  0  0  0  0  0  0  0  0  0  0  0
    6.6662   70.9485   68.6054 H   0  0  0  0  0  0  0  0  0  0  0  0
    6.9749   71.4616   66.7967 H   0  0  0  0  0  0  0  0  0  0  0  0
    5.0361   69.3358   67.8913 H   0  0  0  0  0  0  0  0  0  0  0  0
  2  1  2  0
  3  2  1  0
  4  3  2  0
  5  4  1  0
  6  5  2  0
  6  1  1  0
  7  5  1  0
  8  7  1  0
  9  8  1  0
  9  4  1  0
 10  1  1  0
 12 10  1  0
 12 11  2  3
  2 13  1  0
  3 14  1  0
  6 15  1  0
  8 16  1  0
  8 17  1  0
 10 18  1  0
 10 19  1  0
 11 20  1  0
 11 21  1  0
 12 22  1  0
M  END
>  <score>  (4) 
-7.132

$$$$
=
     RDKit          3D

 22 23  0  0  0  0  0  0  0  0999 V2000
    4.1200   69.1820   65.4370 C   0  0  0  0  0  0  0  0  0  0  0  0
    3.1170   69.3030   66.4260 C   0  0  0  0  0  0  0  0  0  0  0  0
    3.4090   69.8240   67.6910 C   0  0  0  0  0  0  0  0  0  0  0  0
    4.7050   70.2200   67.9350 C   0  0  0  0  0  0  0  0  0  0  0  0
    5.6880   70.1140   66.9790 C   0  0  0  0  0  0  0  0  0  0  0  0
    5.4290   69.6040   65.7240 C   0  0  0  0  0  0  0  0  0  0  0  0
    6.8930   70.5620   67.4210 O   0  0  0  0  0  0  0  0  0  0  0  0
    6.5560   70.9630   68.7650 C   0  0  0  0  0  0  0  0  0  0  0  0
    5.1690   70.7470   69.0990 O   0  0  0  0  0  0  0  0  0  0  0  0
    3.7770   68.6310   64.0710 C   0  0  0  0  0  0  0  0  0  0  0  0
    1.8310   68.6800   62.4790 C   0  0  0  0  0  0  0  0  0  0  0  0
    2.3440   68.8840   63.7000 C   0  0  0  0  0  0  0  0  0  0  0  0
    2.0900   68.9822   66.1970 H   0  0  0  0  0  0  0  0  0  0  0  0
    2.6309   69.9141   68.4633 H   0  0  0  0  0  0  0  0  0  0  0  0
    6.2252   69.5297   64.9687 H   0  0  0  0  0  0  0  0  0  0  0  0
    7.1770   70.3865   69.4665 H   0  0  0  0  0  0  0  0  0  0  0  0
    6.7414   72.0449   68.8361 H   0  0  0  0  0  0  0  0  0  0  0  0
    4.4262   69.1094   63.3229 H   0  0  0  0  0  0  0  0  0  0  0  0
    3.9314   67.5422   64.0979 H   0  0  0  0  0  0  0  0  0  0  0  0
    0.7685   68.8900   62.2867 H   0  0  0  0  0  0  0  0  0  0  0  0
    2.4724   68.3025   61.6690 H   0  0  0  0  0  0  0  0  0  0  0  0
    1.6703   69.2621   64.4830 H   0  0  0  0  0  0  0  0  0  0  0  0
  2  1  2  0
  3  2  1  0
  4  3  2  0
  5  4  1  0
  6  5  2  0
  6  1  1  0
  7  5  1  0
  8  7  1  0
  9  8  1  0
  9  4  1  0
 10  1  1  0
 12 10  1  0
 12 11  2  3
  2 13  1  0
  3 14  1  0
  6 15  1  0
  8 16  1  0
  8 17  1  0
 10 18  1  0
 10 19  1  0
 11 20  1  0
 11 21  1  0
 12 22  1  0
M  END
>  <score>  (5) 
-7.041

$$$$
=
     RDKit          3D

 22 23  0  0  0  0  0  0  0  0999 V2000
    3.9330   69.2480   65.2530 C   0  0  0  0  0  0  0  0  0  0  0  0
    5.2940   69.6280   65.2950 C   0  0  0  0  0  0  0  0  0  0  0  0
    5.8680   70.1310   66.4670 C   0  0  0  0  0  0  0  0  0  0  0  0
    5.0630   70.2350   67.5790 C   0  0  0  0  0  0  0  0  0  0  0  0
    3.7390   69.8610   67.5530 C   0  0  0  0  0  0  0  0  0  0  0  0
    3.1470   69.3640   66.4120 C   0  0  0  0  0  0  0  0  0  0  0  0
    3.1250   70.0410   68.7540 O   0  0  0  0  0  0  0  0  0  0  0  0
    4.2140   70.5700   69.5370 C   0  0  0  0  0  0  0  0  0  0  0  0
    5.4470   70.6980   68.7990 O   0  0  0  0  0  0  0  0  0  0  0  0
    3.3390   68.6930   63.9790 C   0  0  0  0  0  0  0  0  0  0  0  0
    0.9270   69.0010   63.3340 C   0  0  0  0  0  0  0  0  0  0  0  0
    1.8640   68.4340   64.1050 C   0  0  0  0  0  0  0  0  0  0  0  0
    5.9120   69.5264   64.3907 H   0  0  0  0  0  0  0  0  0  0  0  0
    6.9253   70.4329   66.4992 H   0  0  0  0  0  0  0  0  0  0  0  0
    2.0881   69.0662   66.4087 H   0  0  0  0  0  0  0  0  0  0  0  0
    3.9252   71.5649   69.9069 H   0  0  0  0  0  0  0  0  0  0  0  0
    4.3996   69.8575   70.3542 H   0  0  0  0  0  0  0  0  0  0  0  0
    3.5033   69.4167   63.1671 H   0  0  0  0  0  0  0  0  0  0  0  0
    3.8330   67.7334   63.7666 H   0  0  0  0  0  0  0  0  0  0  0  0
   -0.1345   68.7583   63.4901 H   0  0  0  0  0  0  0  0  0  0  0  0
    1.2189   69.7093   62.5447 H   0  0  0  0  0  0  0  0  0  0  0  0
    1.5314   67.7312   64.8831 H   0  0  0  0  0  0  0  0  0  0  0  0
  2  1  2  0
  3  2  1  0
  4  3  2  0
  5  4  1  0
  6  5  2  0
  6  1  1  0
  7  5  1  0
  8  7  1  0
  9  8  1  0
  9  4  1  0
 10  1  1  0
 12 10  1  0
 12 11  2  3
  2 13  1  0
  3 14  1  0
  6 15  1  0
  8 16  1  0
  8 17  1  0
 10 18  1  0
 10 19  1  0
 11 20  1  0
 11 21  1  0
 12 22  1  0
M  END
>  <score>  (6) 
-6.998

$$$$
=
     RDKit          3D

 22 23  0  0  0  0  0  0  0  0999 V2000
    3.4540   69.4600   66.7330 C   0  0  0  0  0  0  0  0  0  0  0  0
    4.8130   69.8490   66.7900 C   0  0  0  0  0  0  0  0  0  0  0  0
    5.6150   69.8420   65.6440 C   0  0  0  0  0  0  0  0  0  0  0  0
    5.0340   69.4480   64.4600 C   0  0  0  0  0  0  0  0  0  0  0  0
    3.7120   69.0750   64.3900 C   0  0  0  0  0  0  0  0  0  0  0  0
    2.8980   69.0720   65.5020 C   0  0  0  0  0  0  0  0  0  0  0  0
    3.3370   68.7270   63.1300 O   0  0  0  0  0  0  0  0  0  0  0  0
    4.5740   68.9250   62.4150 C   0  0  0  0  0  0  0  0  0  0  0  0
    5.6560   69.3810   63.2520 O   0  0  0  0  0  0  0  0  0  0  0  0
    2.6030   69.4910   67.9810 C   0  0  0  0  0  0  0  0  0  0  0  0
    1.0860   67.5340   68.4240 C   0  0  0  0  0  0  0  0  0  0  0  0
    1.3320   68.7060   67.8220 C   0  0  0  0  0  0  0  0  0  0  0  0
    5.2461   70.1621   67.7514 H   0  0  0  0  0  0  0  0  0  0  0  0
    6.6727   70.1408   65.6874 H   0  0  0  0  0  0  0  0  0  0  0  0
    1.8417   68.7740   65.4281 H   0  0  0  0  0  0  0  0  0  0  0  0
    4.8677   67.9693   61.9563 H   0  0  0  0  0  0  0  0  0  0  0  0
    4.3923   69.7094   61.6655 H   0  0  0  0  0  0  0  0  0  0  0  0
    3.1808   69.0644   68.8142 H   0  0  0  0  0  0  0  0  0  0  0  0
    2.3302   70.5384   68.1772 H   0  0  0  0  0  0  0  0  0  0  0  0
    0.1282   67.0198   68.2561 H   0  0  0  0  0  0  0  0  0  0  0  0
    1.8420   67.0863   69.0859 H   0  0  0  0  0  0  0  0  0  0  0  0
    0.5510   69.1208   67.1678 H   0  0  0  0  0  0  0  0  0  0  0  0
  2  1  2  0
  3  2  1  0
  4  3  2  0
  5  4  1  0
  6  5  2  0
  6  1  1  0
  7  5  1  0
  8  7  1  0
  9  8  1  0
  9  4  1  0
 10  1  1  0
 12 10  1  0
 12 11  2  3
  2 13  1  0
  3 14  1  0
  6 15  1  0
  8 16  1  0
  8 17  1  0
 10 18  1  0
 10 19  1  0
 11 20  1  0
 11 21  1  0
 12 22  1  0
M  END
>  <score>  (7) 
-6.831

$$$$
=
     RDKit          3D

 22 23  0  0  0  0  0  0  0  0999 V2000
    3.0890   69.1690   66.3740 C   0  0  0  0  0  0  0  0  0  0  0  0
    4.1200   69.1060   65.4080 C   0  0  0  0  0  0  0  0  0  0  0  0
    5.3990   69.5990   65.6850 C   0  0  0  0  0  0  0  0  0  0  0  0
    5.6190   70.1420   66.9310 C   0  0  0  0  0  0  0  0  0  0  0  0
    4.6260   70.2030   67.8810 C   0  0  0  0  0  0  0  0  0  0  0  0
    3.3560   69.7250   67.6360 C   0  0  0  0  0  0  0  0  0  0  0  0
    5.0510   70.7710   69.0410 O   0  0  0  0  0  0  0  0  0  0  0  0
    6.4250   71.0610   68.7120 C   0  0  0  0  0  0  0  0  0  0  0  0
    6.7930   70.6660   67.3750 O   0  0  0  0  0  0  0  0  0  0  0  0
    1.7180   68.6150   66.0570 C   0  0  0  0  0  0  0  0  0  0  0  0
   -0.4380   68.1600   67.2710 C   0  0  0  0  0  0  0  0  0  0  0  0
    0.7810   68.7150   67.2270 C   0  0  0  0  0  0  0  0  0  0  0  0
    3.9126   68.6622   64.4231 H   0  0  0  0  0  0  0  0  0  0  0  0
    6.2012   69.5545   64.9337 H   0  0  0  0  0  0  0  0  0  0  0  0
    2.5737   69.7776   68.4075 H   0  0  0  0  0  0  0  0  0  0  0  0
    6.5853   72.1447   68.8112 H   0  0  0  0  0  0  0  0  0  0  0  0
    7.0524   70.4808   69.4046 H   0  0  0  0  0  0  0  0  0  0  0  0
    1.2937   69.1803   65.2141 H   0  0  0  0  0  0  0  0  0  0  0  0
    1.8337   67.5500   65.8071 H   0  0  0  0  0  0  0  0  0  0  0  0
   -1.0647   68.2795   68.1671 H   0  0  0  0  0  0  0  0  0  0  0  0
   -0.8119   67.5849   66.4110 H   0  0  0  0  0  0  0  0  0  0  0  0
    1.1183   69.2821   68.1071 H   0  0  0  0  0  0  0  0  0  0  0  0
  2  1  2  0
  3  2  1  0
  4  3  2  0
  5  4  1  0
  6  5  2  0
  6  1  1  0
  7  5  1  0
  8  7  1  0
  9  8  1  0
  9  4  1  0
 10  1  1  0
 12 10  1  0
 12 11  2  3
  2 13  1  0
  3 14  1  0
  6 15  1  0
  8 16  1  0
  8 17  1  0
 10 18  1  0
 10 19  1  0
 11 20  1  0
 11 21  1  0
 12 22  1  0
M  END
>  <score>  (8) 
-6.793

$$$$
=
     RDKit          3D

 22 23  0  0  0  0  0  0  0  0999 V2000
    3.6940   69.2850   65.9090 C   0  0  0  0  0  0  0  0  0  0  0  0
    3.5020   69.6650   67.2580 C   0  0  0  0  0  0  0  0  0  0  0  0
    2.2660   69.4880   67.8880 C   0  0  0  0  0  0  0  0  0  0  0  0
    1.2470   68.9280   67.1510 C   0  0  0  0  0  0  0  0  0  0  0  0
    1.4240   68.5490   65.8410 C   0  0  0  0  0  0  0  0  0  0  0  0
    2.6310   68.7100   65.1940 C   0  0  0  0  0  0  0  0  0  0  0  0
    0.2970   68.0150   65.2980 O   0  0  0  0  0  0  0  0  0  0  0  0
   -0.6090   68.1020   66.4170 C   0  0  0  0  0  0  0  0  0  0  0  0
   -0.0140   68.6810   67.5960 O   0  0  0  0  0  0  0  0  0  0  0  0
    5.0440   69.4710   65.2540 C   0  0  0  0  0  0  0  0  0  0  0  0
    5.7260   68.7270   62.9500 C   0  0  0  0  0  0  0  0  0  0  0  0
    4.9530   69.4680   63.7550 C   0  0  0  0  0  0  0  0  0  0  0  0
    4.3379   70.1066   67.8203 H   0  0  0  0  0  0  0  0  0  0  0  0
    2.1134   69.7859   68.9359 H   0  0  0  0  0  0  0  0  0  0  0  0
    2.7576   68.3968   64.1472 H   0  0  0  0  0  0  0  0  0  0  0  0
   -1.4689   68.7210   66.1213 H   0  0  0  0  0  0  0  0  0  0  0  0
   -0.9035   67.0741   66.6751 H   0  0  0  0  0  0  0  0  0  0  0  0
    5.4670   70.4323   65.5812 H   0  0  0  0  0  0  0  0  0  0  0  0
    5.6841   68.6285   65.5549 H   0  0  0  0  0  0  0  0  0  0  0  0
    5.5960   68.7822   61.8591 H   0  0  0  0  0  0  0  0  0  0  0  0
    6.4907   68.0634   63.3799 H   0  0  0  0  0  0  0  0  0  0  0  0
    4.2002   70.1187   63.2860 H   0  0  0  0  0  0  0  0  0  0  0  0
  2  1  2  0
  3  2  1  0
  4  3  2  0
  5  4  1  0
  6  5  2  0
  6  1  1  0
  7  5  1  0
  8  7  1  0
  9  8  1  0
  9  4  1  0
 10  1  1  0
 12 10  1  0
 12 11  2  3
  2 13  1  0
  3 14  1  0
  6 15  1  0
  8 16  1  0
  8 17  1  0
 10 18  1  0
 10 19  1  0
 11 20  1  0
 11 21  1  0
 12 22  1  0
M  END
>  <score>  (9) 
-6.744

$$$$
