=
     RDKit          3D

 37 42  0  0  0  0  0  0  0  0999 V2000
    2.7110   68.2190   61.6410 O   0  0  0  0  0  0  0  0  0  0  0  0
    2.4520   67.9990   62.8200 C   0  0  0  0  0  0  0  0  0  0  0  0
    1.3230   68.7210   63.4610 C   0  0  0  0  0  0  0  0  0  0  0  0
    1.1220   68.5890   64.7760 C   0  0  0  0  0  0  0  0  0  0  0  0
   -0.3590   69.1000   65.5660 S   0  0  0  0  0  0  0  0  0  0  0  0
    0.0050   68.0480   67.0350 C   0  0  1  0  0  0  0  0  0  0  0  0
    0.9510   66.9770   66.4830 C   0  0  0  0  0  0  0  0  0  0  0  0
    2.0200   67.7960   65.7150 C   0  0  1  0  0  0  0  0  0  0  0  0
    2.9360   66.8640   64.9660 C   0  0  0  0  0  0  0  0  0  0  0  0
    3.1630   66.9610   63.6420 C   0  0  0  0  0  0  0  0  0  0  0  0
    4.3680   65.8280   62.7750 Br  0  0  0  0  0  0  0  0  0  0  0  0
    2.7420   68.7650   66.6750 C   0  0  0  0  0  0  0  0  0  0  0  0
    2.0690   69.2090   67.7750 C   0  0  0  0  0  0  0  0  0  0  0  0
    0.7570   68.7950   68.0240 N   0  0  0  0  0  0  0  0  0  0  0  0
    2.6640   70.2320   68.7460 C   0  0  0  0  0  0  0  0  0  0  0  0
    2.0140   70.6670   69.6920 O   0  0  0  0  0  0  0  0  0  0  0  0
    4.0090   70.6080   68.4410 C   0  0  0  0  0  0  0  0  0  0  0  0
    4.6540   70.1690   67.3220 C   0  0  0  0  0  0  0  0  0  0  0  0
    4.0940   69.3150   66.3150 C   0  0  0  0  0  0  0  0  0  0  0  0
    4.7580   69.1060   65.2330 N   0  0  0  0  0  0  0  0  0  0  0  0
    6.0200   69.8680   64.9850 C   0  0  0  0  0  0  0  0  0  0  0  0
    6.8630   70.2400   66.2300 C   0  0  0  0  0  0  0  0  0  0  0  0
    5.9630   70.6580   67.3290 C   0  0  0  0  0  0  0  0  0  0  0  0
    6.0920   71.4380   68.4570 C   0  0  0  0  0  0  0  0  0  0  0  0
    4.8810   71.4130   69.1260 N   0  0  0  0  0  0  0  0  0  0  0  0
    0.6585   69.3584   62.8591 H   0  0  0  0  0  0  0  0  0  0  0  0
   -0.9161   67.6684   67.5012 H   0  0  0  0  0  0  0  0  0  0  0  0
    1.4100   66.3999   67.2993 H   0  0  0  0  0  0  0  0  0  0  0  0
    0.4383   66.2405   65.8469 H   0  0  0  0  0  0  0  0  0  0  0  0
    3.4439   66.0659   65.5273 H   0  0  0  0  0  0  0  0  0  0  0  0
    0.3168   69.0249   68.9264 H   0  0  0  0  0  0  0  0  0  0  0  0
    6.6531   69.2584   64.3236 H   0  0  0  0  0  0  0  0  0  0  0  0
    5.6986   70.8284   64.5555 H   0  0  0  0  0  0  0  0  0  0  0  0
    7.4504   69.3665   66.5493 H   0  0  0  0  0  0  0  0  0  0  0  0
    7.5430   71.0673   65.9784 H   0  0  0  0  0  0  0  0  0  0  0  0
    6.9951   71.9827   68.7697 H   0  0  0  0  0  0  0  0  0  0  0  0
    4.6692   71.9181   69.9983 H   0  0  0  0  0  0  0  0  0  0  0  0
  2  1  2  0
  3  2  1  0
  4  3  2  0
  5  4  1  0
  6  5  1  0
  7  6  1  0
  8  4  1  0
  8  7  1  0
  8  9  1  6
 10  9  2  0
 10  2  1  0
 11 10  1  0
 12  8  1  0
 13 12  2  0
 14 13  1  0
 14  6  1  0
 15 13  1  0
 16 15  2  0
 17 15  1  0
 18 17  2  0
 19 18  1  0
 19 12  1  0
 20 19  2  0
 21 20  1  0
 22 21  1  0
 23 18  1  0
 23 22  1  0
 24 23  2  0
 25 17  1  0
 25 24  1  0
  3 26  1  0
  6 27  1  1
  7 28  1  0
  7 29  1  0
  9 30  1  0
 14 31  1  0
 21 32  1  0
 21 33  1  0
 22 34  1  0
 22 35  1  0
 24 36  1  0
 25 37  1  0
M  END
>  <score>  (1) 
-9.495

$$$$
=
     RDKit          3D

 37 42  0  0  0  0  0  0  0  0999 V2000
   -0.8160   61.6710   76.6940 O   0  0  0  0  0  0  0  0  0  0  0  0
   -0.4470   60.8930   75.8200 C   0  0  0  0  0  0  0  0  0  0  0  0
    0.8660   60.2130   75.9620 C   0  0  0  0  0  0  0  0  0  0  0  0
    1.3340   59.4710   74.9530 C   0  0  0  0  0  0  0  0  0  0  0  0
    2.6780   58.3590   75.1370 S   0  0  0  0  0  0  0  0  0  0  0  0
    2.2060   57.4590   73.5990 C   0  0  1  0  0  0  0  0  0  0  0  0
    0.7150   57.7760   73.4420 C   0  0  0  0  0  0  0  0  0  0  0  0
    0.6510   59.3170   73.6020 C   0  0  1  0  0  0  0  0  0  0  0  0
   -0.7860   59.7670   73.6420 C   0  0  0  0  0  0  0  0  0  0  0  0
   -1.2970   60.5110   74.6410 C   0  0  0  0  0  0  0  0  0  0  0  0
   -3.0660   61.1070   74.6040 Br  0  0  0  0  0  0  0  0  0  0  0  0
    1.5040   60.0030   72.5140 C   0  0  0  0  0  0  0  0  0  0  0  0
    2.5670   59.3210   71.9990 C   0  0  0  0  0  0  0  0  0  0  0  0
    2.8750   58.0320   72.4470 N   0  0  0  0  0  0  0  0  0  0  0  0
    3.5230   59.9390   70.9750 C   0  0  0  0  0  0  0  0  0  0  0  0
    4.5110   59.3300   70.5750 O   0  0  0  0  0  0  0  0  0  0  0  0
    3.1500   61.2520   70.5520 C   0  0  0  0  0  0  0  0  0  0  0  0
    2.0960   61.9230   71.0980 C   0  0  0  0  0  0  0  0  0  0  0  0
    1.2510   61.4390   72.1510 C   0  0  0  0  0  0  0  0  0  0  0  0
    0.3930   62.2380   72.6820 N   0  0  0  0  0  0  0  0  0  0  0  0
    0.3950   63.6830   72.2960 C   0  0  0  0  0  0  0  0  0  0  0  0
    0.8110   64.0120   70.8410 C   0  0  0  0  0  0  0  0  0  0  0  0
    1.9480   63.1500   70.4450 C   0  0  0  0  0  0  0  0  0  0  0  0
    2.9600   63.2310   69.5130 C   0  0  0  0  0  0  0  0  0  0  0  0
    3.7020   62.0650   69.5970 N   0  0  0  0  0  0  0  0  0  0  0  0
    1.4482   60.3190   76.8892 H   0  0  0  0  0  0  0  0  0  0  0  0
    2.4567   56.3897   73.6603 H   0  0  0  0  0  0  0  0  0  0  0  0
    0.3504   57.4686   72.4508 H   0  0  0  0  0  0  0  0  0  0  0  0
    0.0859   57.2441   74.1709 H   0  0  0  0  0  0  0  0  0  0  0  0
   -1.4497   59.4737   72.8153 H   0  0  0  0  0  0  0  0  0  0  0  0
    3.5891   57.4805   71.9502 H   0  0  0  0  0  0  0  0  0  0  0  0
   -0.6234   64.0702   72.4475 H   0  0  0  0  0  0  0  0  0  0  0  0
    1.1626   64.1512   72.9298 H   0  0  0  0  0  0  0  0  0  0  0  0
   -0.0389   63.8303   70.1668 H   0  0  0  0  0  0  0  0  0  0  0  0
    1.1119   65.0681   70.7759 H   0  0  0  0  0  0  0  0  0  0  0  0
    3.1449   64.0703   68.8264 H   0  0  0  0  0  0  0  0  0  0  0  0
    4.5348   61.8443   69.0325 H   0  0  0  0  0  0  0  0  0  0  0  0
  2  1  2  0
  3  2  1  0
  4  3  2  0
  5  4  1  0
  6  5  1  0
  7  6  1  0
  8  4  1  0
  8  7  1  0
  8  9  1  1
 10  9  2  0
 10  2  1  0
 11 10  1  0
 12  8  1  0
 13 12  2  0
 14 13  1  0
 14  6  1  0
 15 13  1  0
 16 15  2  0
 17 15  1  0
 18 17  2  0
 19 18  1  0
 19 12  1  0
 20 19  2  0
 21 20  1  0
 22 21  1  0
 23 18  1  0
 23 22  1  0
 24 23  2  0
 25 17  1  0
 25 24  1  0
  3 26  1  0
  6 27  1  1
  7 28  1  0
  7 29  1  0
  9 30  1  0
 14 31  1  0
 21 32  1  0
 21 33  1  0
 22 34  1  0
 22 35  1  0
 24 36  1  0
 25 37  1  0
M  END
>  <score>  (2) 
-9.082

$$$$
=
     RDKit          3D

 37 42  0  0  0  0  0  0  0  0999 V2000
   -0.3370   64.4140   72.4640 O   0  0  0  0  0  0  0  0  0  0  0  0
    0.6330   63.6620   72.4770 C   0  0  0  0  0  0  0  0  0  0  0  0
    1.1530   63.1280   71.1920 C   0  0  0  0  0  0  0  0  0  0  0  0
    2.1200   62.2050   71.2080 C   0  0  0  0  0  0  0  0  0  0  0  0
    3.0400   61.7690   69.7790 S   0  0  0  0  0  0  0  0  0  0  0  0
    4.3730   61.0190   70.8080 C   0  0  1  0  0  0  0  0  0  0  0  0
    4.2150   61.7170   72.1630 C   0  0  0  0  0  0  0  0  0  0  0  0
    2.7010   61.5810   72.4690 C   0  0  1  0  0  0  0  0  0  0  0  0
    2.3570   62.3760   73.7010 C   0  0  0  0  0  0  0  0  0  0  0  0
    1.3930   63.3160   73.7260 C   0  0  0  0  0  0  0  0  0  0  0  0
    0.9530   64.2180   75.3010 Br  0  0  0  0  0  0  0  0  0  0  0  0
    2.3010   60.0930   72.5370 C   0  0  0  0  0  0  0  0  0  0  0  0
    3.0290   59.1930   71.8150 C   0  0  0  0  0  0  0  0  0  0  0  0
    4.1110   59.6110   71.0340 N   0  0  0  0  0  0  0  0  0  0  0  0
    2.6680   57.7060   71.7500 C   0  0  0  0  0  0  0  0  0  0  0  0
    3.2980   56.9270   71.0420 O   0  0  0  0  0  0  0  0  0  0  0  0
    1.5600   57.3410   72.5760 C   0  0  0  0  0  0  0  0  0  0  0  0
    0.8330   58.2630   73.2710 C   0  0  0  0  0  0  0  0  0  0  0  0
    1.0500   59.6800   73.2600 C   0  0  0  0  0  0  0  0  0  0  0  0
    0.1920   60.4490   73.8340 N   0  0  0  0  0  0  0  0  0  0  0  0
   -1.0780   59.8660   74.3670 C   0  0  0  0  0  0  0  0  0  0  0  0
   -1.0020   58.4170   74.9100 C   0  0  0  0  0  0  0  0  0  0  0  0
   -0.1420   57.6010   74.0230 C   0  0  0  0  0  0  0  0  0  0  0  0
   -0.0190   56.2580   73.7430 C   0  0  0  0  0  0  0  0  0  0  0  0
    1.0200   56.1100   72.8410 N   0  0  0  0  0  0  0  0  0  0  0  0
    0.7460   63.4888   70.2359 H   0  0  0  0  0  0  0  0  0  0  0  0
    5.3605   61.1257   70.3354 H   0  0  0  0  0  0  0  0  0  0  0  0
    4.8182   61.2169   72.9351 H   0  0  0  0  0  0  0  0  0  0  0  0
    4.5556   62.7628   72.1473 H   0  0  0  0  0  0  0  0  0  0  0  0
    2.9204   62.1793   74.6251 H   0  0  0  0  0  0  0  0  0  0  0  0
    4.7326   58.9065   70.6120 H   0  0  0  0  0  0  0  0  0  0  0  0
   -1.4232   60.5122   75.1875 H   0  0  0  0  0  0  0  0  0  0  0  0
   -1.7590   59.8171   73.5045 H   0  0  0  0  0  0  0  0  0  0  0  0
   -0.5767   58.4276   75.9244 H   0  0  0  0  0  0  0  0  0  0  0  0
   -2.0126   57.9837   74.9401 H   0  0  0  0  0  0  0  0  0  0  0  0
   -0.6357   55.4487   74.1611 H   0  0  0  0  0  0  0  0  0  0  0  0
    1.3364   55.2181   72.4344 H   0  0  0  0  0  0  0  0  0  0  0  0
  2  1  2  0
  3  2  1  0
  4  3  2  0
  5  4  1  0
  6  5  1  0
  7  6  1  0
  8  4  1  0
  8  7  1  0
  8  9  1  1
 10  9  2  0
 10  2  1  0
 11 10  1  0
 12  8  1  0
 13 12  2  0
 14 13  1  0
 14  6  1  0
 15 13  1  0
 16 15  2  0
 17 15  1  0
 18 17  2  0
 19 18  1  0
 19 12  1  0
 20 19  2  0
 21 20  1  0
 22 21  1  0
 23 18  1  0
 23 22  1  0
 24 23  2  0
 25 17  1  0
 25 24  1  0
  3 26  1  0
  6 27  1  6
  7 28  1  0
  7 29  1  0
  9 30  1  0
 14 31  1  0
 21 32  1  0
 21 33  1  0
 22 34  1  0
 22 35  1  0
 24 36  1  0
 25 37  1  0
M  END
>  <score>  (3) 
-8.879

$$$$
=
     RDKit          3D

 37 42  0  0  0  0  0  0  0  0999 V2000
    0.9100   56.8600   73.9260 O   0  0  0  0  0  0  0  0  0  0  0  0
    0.9270   58.0780   74.0700 C   0  0  0  0  0  0  0  0  0  0  0  0
   -0.2900   58.8640   73.7430 C   0  0  0  0  0  0  0  0  0  0  0  0
   -0.2350   60.2000   73.7670 C   0  0  0  0  0  0  0  0  0  0  0  0
   -1.6690   61.2100   73.7460 S   0  0  0  0  0  0  0  0  0  0  0  0
   -0.7210   62.6550   74.3850 C   0  0  1  0  0  0  0  0  0  0  0  0
    0.4790   62.0130   75.0890 C   0  0  0  0  0  0  0  0  0  0  0  0
    1.0250   61.0110   74.0380 C   0  0  1  0  0  0  0  0  0  0  0  0
    2.1140   60.1710   74.6520 C   0  0  0  0  0  0  0  0  0  0  0  0
    2.0950   58.8250   74.6520 C   0  0  0  0  0  0  0  0  0  0  0  0
    3.5090   57.8300   75.3580 Br  0  0  0  0  0  0  0  0  0  0  0  0
    1.4410   61.7560   72.7540 C   0  0  0  0  0  0  0  0  0  0  0  0
    0.8120   62.9280   72.4520 C   0  0  0  0  0  0  0  0  0  0  0  0
   -0.1860   63.4390   73.2880 N   0  0  0  0  0  0  0  0  0  0  0  0
    1.0940   63.7060   71.1630 C   0  0  0  0  0  0  0  0  0  0  0  0
    0.4670   64.7230   70.8820 O   0  0  0  0  0  0  0  0  0  0  0  0
    2.1280   63.1380   70.3580 C   0  0  0  0  0  0  0  0  0  0  0  0
    2.7270   61.9520   70.6680 C   0  0  0  0  0  0  0  0  0  0  0  0
    2.4070   61.1220   71.7920 C   0  0  0  0  0  0  0  0  0  0  0  0
    2.9380   59.9530   71.8790 N   0  0  0  0  0  0  0  0  0  0  0  0
    3.7560   59.4300   70.7410 C   0  0  0  0  0  0  0  0  0  0  0  0
    4.5550   60.4750   69.9230 C   0  0  0  0  0  0  0  0  0  0  0  0
    3.7300   61.6880   69.7300 C   0  0  0  0  0  0  0  0  0  0  0  0
    3.7040   62.7200   68.8170 C   0  0  0  0  0  0  0  0  0  0  0  0
    2.7060   63.5980   69.2030 N   0  0  0  0  0  0  0  0  0  0  0  0
   -1.2282   58.3518   73.4834 H   0  0  0  0  0  0  0  0  0  0  0  0
   -1.3457   63.3045   75.0157 H   0  0  0  0  0  0  0  0  0  0  0  0
    1.2369   62.7692   75.3416 H   0  0  0  0  0  0  0  0  0  0  0  0
    0.2088   61.5304   76.0398 H   0  0  0  0  0  0  0  0  0  0  0  0
    2.9663   60.6823   75.1233 H   0  0  0  0  0  0  0  0  0  0  0  0
   -0.5476   64.3890   73.1218 H   0  0  0  0  0  0  0  0  0  0  0  0
    4.4758   58.7069   71.1521 H   0  0  0  0  0  0  0  0  0  0  0  0
    3.0296   59.0025   70.0342 H   0  0  0  0  0  0  0  0  0  0  0  0
    5.4745   60.7398   70.4656 H   0  0  0  0  0  0  0  0  0  0  0  0
    4.8163   60.0503   68.9425 H   0  0  0  0  0  0  0  0  0  0  0  0
    4.3586   62.8268   67.9394 H   0  0  0  0  0  0  0  0  0  0  0  0
    2.4403   64.4584   68.7030 H   0  0  0  0  0  0  0  0  0  0  0  0
  2  1  2  0
  3  2  1  0
  4  3  2  0
  5  4  1  0
  6  5  1  0
  7  6  1  0
  8  4  1  0
  8  7  1  0
  8  9  1  1
 10  9  2  0
 10  2  1  0
 11 10  1  0
 12  8  1  0
 13 12  2  0
 14 13  1  0
 14  6  1  0
 15 13  1  0
 16 15  2  0
 17 15  1  0
 18 17  2  0
 19 18  1  0
 19 12  1  0
 20 19  2  0
 21 20  1  0
 22 21  1  0
 23 18  1  0
 23 22  1  0
 24 23  2  0
 25 17  1  0
 25 24  1  0
  3 26  1  0
  6 27  1  1
  7 28  1  0
  7 29  1  0
  9 30  1  0
 14 31  1  0
 21 32  1  0
 21 33  1  0
 22 34  1  0
 22 35  1  0
 24 36  1  0
 25 37  1  0
M  END
>  <score>  (4) 
-8.728

$$$$
=
     RDKit          3D

 37 42  0  0  0  0  0  0  0  0999 V2000
    2.6450   67.5220   69.8280 O   0  0  0  0  0  0  0  0  0  0  0  0
    1.8930   68.0750   69.0320 C   0  0  0  0  0  0  0  0  0  0  0  0
    0.7620   67.3070   68.4500 C   0  0  0  0  0  0  0  0  0  0  0  0
    0.0230   67.8600   67.4830 C   0  0  0  0  0  0  0  0  0  0  0  0
   -1.5230   67.2030   66.9770 S   0  0  0  0  0  0  0  0  0  0  0  0
   -1.9960   68.7980   66.1840 C   0  0  1  0  0  0  0  0  0  0  0  0
   -1.1310   69.8310   66.9140 C   0  0  0  0  0  0  0  0  0  0  0  0
    0.2930   69.2200   66.8560 C   0  0  1  0  0  0  0  0  0  0  0  0
    1.2370   70.0470   67.6890 C   0  0  0  0  0  0  0  0  0  0  0  0
    1.9960   69.5310   68.6740 C   0  0  0  0  0  0  0  0  0  0  0  0
    3.2080   70.5860   69.6250 Br  0  0  0  0  0  0  0  0  0  0  0  0
    0.7340   69.0320   65.3900 C   0  0  0  0  0  0  0  0  0  0  0  0
   -0.2300   68.8420   64.4430 C   0  0  0  0  0  0  0  0  0  0  0  0
   -1.5830   68.8200   64.7950 N   0  0  0  0  0  0  0  0  0  0  0  0
    0.1030   68.5670   62.9740 C   0  0  0  0  0  0  0  0  0  0  0  0
   -0.7780   68.3330   62.1530 O   0  0  0  0  0  0  0  0  0  0  0  0
    1.5000   68.6120   62.6770 C   0  0  0  0  0  0  0  0  0  0  0  0
    2.4470   68.7800   63.6450 C   0  0  0  0  0  0  0  0  0  0  0  0
    2.1930   68.9100   65.0500 C   0  0  0  0  0  0  0  0  0  0  0  0
    3.1860   68.9040   65.8690 N   0  0  0  0  0  0  0  0  0  0  0  0
    4.5600   68.6140   65.3570 C   0  0  0  0  0  0  0  0  0  0  0  0
    4.8790   69.0860   63.9160 C   0  0  0  0  0  0  0  0  0  0  0  0
    3.7080   68.8370   63.0450 C   0  0  0  0  0  0  0  0  0  0  0  0
    3.5150   68.6610   61.6920 C   0  0  0  0  0  0  0  0  0  0  0  0
    2.1560   68.5080   61.4780 N   0  0  0  0  0  0  0  0  0  0  0  0
    0.5350   66.2932   68.8114 H   0  0  0  0  0  0  0  0  0  0  0  0
   -3.0812   68.9708   66.2348 H   0  0  0  0  0  0  0  0  0  0  0  0
   -1.1625   70.8031   66.4002 H   0  0  0  0  0  0  0  0  0  0  0  0
   -1.4718   70.0242   67.9419 H   0  0  0  0  0  0  0  0  0  0  0  0
    1.3098   71.1250   67.4825 H   0  0  0  0  0  0  0  0  0  0  0  0
   -2.2986   68.8194   64.0542 H   0  0  0  0  0  0  0  0  0  0  0  0
    5.2777   69.1007   66.0338 H   0  0  0  0  0  0  0  0  0  0  0  0
    4.6311   67.5168   65.3245 H   0  0  0  0  0  0  0  0  0  0  0  0
    5.1075   70.1620   63.9246 H   0  0  0  0  0  0  0  0  0  0  0  0
    5.7469   68.5302   63.5316 H   0  0  0  0  0  0  0  0  0  0  0  0
    4.2994   68.6450   60.9210 H   0  0  0  0  0  0  0  0  0  0  0  0
    1.7095   68.3426   60.5647 H   0  0  0  0  0  0  0  0  0  0  0  0
  2  1  2  0
  3  2  1  0
  4  3  2  0
  5  4  1  0
  6  5  1  0
  7  6  1  0
  8  4  1  0
  8  7  1  0
  8  9  1  1
 10  9  2  0
 10  2  1  0
 11 10  1  0
 12  8  1  0
 13 12  2  0
 14 13  1  0
 14  6  1  0
 15 13  1  0
 16 15  2  0
 17 15  1  0
 18 17  2  0
 19 18  1  0
 19 12  1  0
 20 19  2  0
 21 20  1  0
 22 21  1  0
 23 18  1  0
 23 22  1  0
 24 23  2  0
 25 17  1  0
 25 24  1  0
  3 26  1  0
  6 27  1  6
  7 28  1  0
  7 29  1  0
  9 30  1  0
 14 31  1  0
 21 32  1  0
 21 33  1  0
 22 34  1  0
 22 35  1  0
 24 36  1  0
 25 37  1  0
M  END
>  <score>  (5) 
-8.507

$$$$
=
     RDKit          3D

 37 42  0  0  0  0  0  0  0  0999 V2000
   -1.3140   58.9850   77.7910 O   0  0  0  0  0  0  0  0  0  0  0  0
   -0.9320   58.4490   76.7560 C   0  0  0  0  0  0  0  0  0  0  0  0
    0.4290   57.8540   76.7070 C   0  0  0  0  0  0  0  0  0  0  0  0
    0.9020   57.3920   75.5450 C   0  0  0  0  0  0  0  0  0  0  0  0
    2.3230   56.3690   75.4390 S   0  0  0  0  0  0  0  0  0  0  0  0
    1.8470   55.7990   73.7520 C   0  0  1  0  0  0  0  0  0  0  0  0
    0.3320   56.0310   73.7110 C   0  0  0  0  0  0  0  0  0  0  0  0
    0.1730   57.4890   74.2120 C   0  0  1  0  0  0  0  0  0  0  0  0
   -1.2880   57.8110   74.3910 C   0  0  0  0  0  0  0  0  0  0  0  0
   -1.8040   58.2750   75.5440 C   0  0  0  0  0  0  0  0  0  0  0  0
   -3.6090   58.7310   75.6900 Br  0  0  0  0  0  0  0  0  0  0  0  0
    0.9300   58.4600   73.2830 C   0  0  0  0  0  0  0  0  0  0  0  0
    2.0140   57.9900   72.6000 C   0  0  0  0  0  0  0  0  0  0  0  0
    2.4250   56.6610   72.7400 N   0  0  0  0  0  0  0  0  0  0  0  0
    2.8820   58.8890   71.7140 C   0  0  0  0  0  0  0  0  0  0  0  0
    3.8900   58.4590   71.1630 O   0  0  0  0  0  0  0  0  0  0  0  0
    2.4040   60.2310   71.6060 C   0  0  0  0  0  0  0  0  0  0  0  0
    1.3320   60.6850   72.3170 C   0  0  0  0  0  0  0  0  0  0  0  0
    0.5670   59.9180   73.2580 C   0  0  0  0  0  0  0  0  0  0  0  0
   -0.3190   60.5140   73.9770 N   0  0  0  0  0  0  0  0  0  0  0  0
   -0.4300   62.0040   73.9240 C   0  0  0  0  0  0  0  0  0  0  0  0
   -0.0990   62.6770   72.5680 C   0  0  0  0  0  0  0  0  0  0  0  0
    1.0740   62.0110   71.9590 C   0  0  0  0  0  0  0  0  0  0  0  0
    2.0370   62.3710   71.0410 C   0  0  0  0  0  0  0  0  0  0  0  0
    2.8590   61.2740   70.8420 N   0  0  0  0  0  0  0  0  0  0  0  0
    1.0417   57.7943   77.6186 H   0  0  0  0  0  0  0  0  0  0  0  0
    2.1716   54.7647   73.5654 H   0  0  0  0  0  0  0  0  0  0  0  0
   -0.0542   55.9234   72.6867 H   0  0  0  0  0  0  0  0  0  0  0  0
   -0.2281   55.3062   74.3201 H   0  0  0  0  0  0  0  0  0  0  0  0
   -1.9657   57.6595   73.5379 H   0  0  0  0  0  0  0  0  0  0  0  0
    3.1516   56.2877   72.1127 H   0  0  0  0  0  0  0  0  0  0  0  0
   -1.4646   62.2710   74.1852 H   0  0  0  0  0  0  0  0  0  0  0  0
    0.3308   62.3765   74.6258 H   0  0  0  0  0  0  0  0  0  0  0  0
   -0.9631   62.5865   71.8933 H   0  0  0  0  0  0  0  0  0  0  0  0
    0.1283   63.7406   72.7328 H   0  0  0  0  0  0  0  0  0  0  0  0
    2.1351   63.3525   70.5542 H   0  0  0  0  0  0  0  0  0  0  0  0
    3.6797   61.2465   70.2202 H   0  0  0  0  0  0  0  0  0  0  0  0
  2  1  2  0
  3  2  1  0
  4  3  2  0
  5  4  1  0
  6  5  1  0
  7  6  1  0
  8  4  1  0
  8  7  1  0
  8  9  1  1
 10  9  2  0
 10  2  1  0
 11 10  1  0
 12  8  1  0
 13 12  2  0
 14 13  1  0
 14  6  1  0
 15 13  1  0
 16 15  2  0
 17 15  1  0
 18 17  2  0
 19 18  1  0
 19 12  1  0
 20 19  2  0
 21 20  1  0
 22 21  1  0
 23 18  1  0
 23 22  1  0
 24 23  2  0
 25 17  1  0
 25 24  1  0
  3 26  1  0
  6 27  1  6
  7 28  1  0
  7 29  1  0
  9 30  1  0
 14 31  1  0
 21 32  1  0
 21 33  1  0
 22 34  1  0
 22 35  1  0
 24 36  1  0
 25 37  1  0
M  END
>  <score>  (6) 
-7.981

$$$$
=
     RDKit          3D

 37 42  0  0  0  0  0  0  0  0999 V2000
    5.1190   60.4570   72.5160 O   0  0  0  0  0  0  0  0  0  0  0  0
    3.9450   60.8090   72.4650 C   0  0  0  0  0  0  0  0  0  0  0  0
    3.4030   61.6830   73.5380 C   0  0  0  0  0  0  0  0  0  0  0  0
    2.0950   61.9580   73.5620 C   0  0  0  0  0  0  0  0  0  0  0  0
    1.4120   63.2350   74.5520 S   0  0  0  0  0  0  0  0  0  0  0  0
   -0.1280   63.2620   73.5400 C   0  0  1  0  0  0  0  0  0  0  0  0
    0.3150   62.6730   72.1970 C   0  0  0  0  0  0  0  0  0  0  0  0
    1.0690   61.3790   72.5980 C   0  0  1  0  0  0  0  0  0  0  0  0
    1.7190   60.7700   71.3830 C   0  0  0  0  0  0  0  0  0  0  0  0
    3.0320   60.4810   71.3170 C   0  0  0  0  0  0  0  0  0  0  0  0
    3.7740   59.6550   69.8150 Br  0  0  0  0  0  0  0  0  0  0  0  0
    0.1270   60.4260   73.3620 C   0  0  0  0  0  0  0  0  0  0  0  0
   -0.9110   60.9670   74.0630 C   0  0  0  0  0  0  0  0  0  0  0  0
   -1.1140   62.3500   74.0870 N   0  0  0  0  0  0  0  0  0  0  0  0
   -1.8560   60.1180   74.9190 C   0  0  0  0  0  0  0  0  0  0  0  0
   -2.7420   60.6340   75.5930 O   0  0  0  0  0  0  0  0  0  0  0  0
   -1.6020   58.7140   74.8450 C   0  0  0  0  0  0  0  0  0  0  0  0
   -0.5430   58.1980   74.1560 C   0  0  0  0  0  0  0  0  0  0  0  0
    0.4440   58.9600   73.4480 C   0  0  0  0  0  0  0  0  0  0  0  0
    1.4780   58.3560   72.9750 N   0  0  0  0  0  0  0  0  0  0  0  0
    1.7000   56.9130   73.2970 C   0  0  0  0  0  0  0  0  0  0  0  0
    0.4340   56.0390   73.4760 C   0  0  0  0  0  0  0  0  0  0  0  0
   -0.5920   56.8030   74.2220 C   0  0  0  0  0  0  0  0  0  0  0  0
   -1.6820   56.4770   74.9990 C   0  0  0  0  0  0  0  0  0  0  0  0
   -2.2880   57.6600   75.3900 N   0  0  0  0  0  0  0  0  0  0  0  0
    4.0720   62.0997   74.3053 H   0  0  0  0  0  0  0  0  0  0  0  0
   -0.5645   64.2705   73.4913 H   0  0  0  0  0  0  0  0  0  0  0  0
   -0.5542   62.4410   71.5639 H   0  0  0  0  0  0  0  0  0  0  0  0
    0.9364   63.3657   71.6104 H   0  0  0  0  0  0  0  0  0  0  0  0
    1.0902   60.5509   70.5074 H   0  0  0  0  0  0  0  0  0  0  0  0
   -1.9786   62.7276   74.5002 H   0  0  0  0  0  0  0  0  0  0  0  0
    2.2940   56.4765   72.4805 H   0  0  0  0  0  0  0  0  0  0  0  0
    2.1965   56.9082   74.2786 H   0  0  0  0  0  0  0  0  0  0  0  0
    0.0378   55.7608   72.4882 H   0  0  0  0  0  0  0  0  0  0  0  0
    0.6931   55.1289   74.0368 H   0  0  0  0  0  0  0  0  0  0  0  0
   -2.0116   55.4609   75.2615 H   0  0  0  0  0  0  0  0  0  0  0  0
   -3.1197   57.7352   75.9929 H   0  0  0  0  0  0  0  0  0  0  0  0
  2  1  2  0
  3  2  1  0
  4  3  2  0
  5  4  1  0
  6  5  1  0
  7  6  1  0
  8  4  1  0
  8  7  1  0
  8  9  1  6
 10  9  2  0
 10  2  1  0
 11 10  1  0
 12  8  1  0
 13 12  2  0
 14 13  1  0
 14  6  1  0
 15 13  1  0
 16 15  2  0
 17 15  1  0
 18 17  2  0
 19 18  1  0
 19 12  1  0
 20 19  2  0
 21 20  1  0
 22 21  1  0
 23 18  1  0
 23 22  1  0
 24 23  2  0
 25 17  1  0
 25 24  1  0
  3 26  1  0
  6 27  1  6
  7 28  1  0
  7 29  1  0
  9 30  1  0
 14 31  1  0
 21 32  1  0
 21 33  1  0
 22 34  1  0
 22 35  1  0
 24 36  1  0
 25 37  1  0
M  END
>  <score>  (7) 
-7.976

$$$$
=
     RDKit          3D

 37 42  0  0  0  0  0  0  0  0999 V2000
    1.2190   63.8410   74.3980 O   0  0  0  0  0  0  0  0  0  0  0  0
    0.3040   63.0330   74.2710 C   0  0  0  0  0  0  0  0  0  0  0  0
   -0.3730   62.5090   75.4850 C   0  0  0  0  0  0  0  0  0  0  0  0
   -1.2750   61.5300   75.3620 C   0  0  0  0  0  0  0  0  0  0  0  0
   -2.3740   61.0840   76.6550 S   0  0  0  0  0  0  0  0  0  0  0  0
   -3.4950   60.2250   75.4710 C   0  0  1  0  0  0  0  0  0  0  0  0
   -3.1750   60.8900   74.1280 C   0  0  0  0  0  0  0  0  0  0  0  0
   -1.6270   60.8350   74.0550 C   0  0  1  0  0  0  0  0  0  0  0  0
   -1.1450   61.6100   72.8570 C   0  0  0  0  0  0  0  0  0  0  0  0
   -0.2420   62.6050   72.9380 C   0  0  0  0  0  0  0  0  0  0  0  0
    0.3800   63.4830   71.4120 Br  0  0  0  0  0  0  0  0  0  0  0  0
   -1.1420   59.3710   74.1040 C   0  0  0  0  0  0  0  0  0  0  0  0
   -1.9190   58.4520   74.7450 C   0  0  0  0  0  0  0  0  0  0  0  0
   -3.1270   58.8290   75.3410 N   0  0  0  0  0  0  0  0  0  0  0  0
   -1.4930   56.9910   74.9200 C   0  0  0  0  0  0  0  0  0  0  0  0
   -2.1790   56.1990   75.5570 O   0  0  0  0  0  0  0  0  0  0  0  0
   -0.2560   56.6690   74.2820 C   0  0  0  0  0  0  0  0  0  0  0  0
    0.5170   57.6100   73.6670 C   0  0  0  0  0  0  0  0  0  0  0  0
    0.2240   59.0120   73.5900 C   0  0  0  0  0  0  0  0  0  0  0  0
    1.1160   59.8120   73.1200 N   0  0  0  0  0  0  0  0  0  0  0  0
    2.4800   59.2890   72.8030 C   0  0  0  0  0  0  0  0  0  0  0  0
    2.5650   57.8220   72.3110 C   0  0  0  0  0  0  0  0  0  0  0  0
    1.6270   56.9850   73.0920 C   0  0  0  0  0  0  0  0  0  0  0  0
    1.5370   55.6460   73.4030 C   0  0  0  0  0  0  0  0  0  0  0  0
    0.3840   55.4640   74.1470 N   0  0  0  0  0  0  0  0  0  0  0  0
   -0.1343   62.9227   76.4759 H   0  0  0  0  0  0  0  0  0  0  0  0
   -4.5463   60.2868   75.7887 H   0  0  0  0  0  0  0  0  0  0  0  0
   -3.6277   60.3317   73.2953 H   0  0  0  0  0  0  0  0  0  0  0  0
   -3.5709   61.9135   74.0522 H   0  0  0  0  0  0  0  0  0  0  0  0
   -1.5505   61.3504   71.8680 H   0  0  0  0  0  0  0  0  0  0  0  0
   -3.7660   58.1022   75.6935 H   0  0  0  0  0  0  0  0  0  0  0  0
    2.9085   59.9294   72.0180 H   0  0  0  0  0  0  0  0  0  0  0  0
    3.0257   59.3061   73.7580 H   0  0  0  0  0  0  0  0  0  0  0  0
    2.2968   57.7765   71.2452 H   0  0  0  0  0  0  0  0  0  0  0  0
    3.5906   57.4483   72.4471 H   0  0  0  0  0  0  0  0  0  0  0  0
    2.2525   54.8626   73.1125 H   0  0  0  0  0  0  0  0  0  0  0  0
    0.0591   54.5676   74.5365 H   0  0  0  0  0  0  0  0  0  0  0  0
  2  1  2  0
  3  2  1  0
  4  3  2  0
  5  4  1  0
  6  5  1  0
  7  6  1  0
  8  4  1  0
  8  7  1  0
  8  9  1  6
 10  9  2  0
 10  2  1  0
 11 10  1  0
 12  8  1  0
 13 12  2  0
 14 13  1  0
 14  6  1  0
 15 13  1  0
 16 15  2  0
 17 15  1  0
 18 17  2  0
 19 18  1  0
 19 12  1  0
 20 19  2  0
 21 20  1  0
 22 21  1  0
 23 18  1  0
 23 22  1  0
 24 23  2  0
 25 17  1  0
 25 24  1  0
  3 26  1  0
  6 27  1  1
  7 28  1  0
  7 29  1  0
  9 30  1  0
 14 31  1  0
 21 32  1  0
 21 33  1  0
 22 34  1  0
 22 35  1  0
 24 36  1  0
 25 37  1  0
M  END
>  <score>  (8) 
-7.392

$$$$
=
     RDKit          3D

 37 42  0  0  0  0  0  0  0  0999 V2000
    3.3730   59.3190   69.9620 O   0  0  0  0  0  0  0  0  0  0  0  0
    3.3660   59.1760   71.1810 C   0  0  0  0  0  0  0  0  0  0  0  0
    2.5180   58.1140   71.7810 C   0  0  0  0  0  0  0  0  0  0  0  0
    2.4010   58.0410   73.1110 C   0  0  0  0  0  0  0  0  0  0  0  0
    1.7260   56.6440   73.9290 S   0  0  0  0  0  0  0  0  0  0  0  0
    2.4940   57.1480   75.5270 C   0  0  1  0  0  0  0  0  0  0  0  0
    3.6660   58.0370   75.0960 C   0  0  0  0  0  0  0  0  0  0  0  0
    3.0220   59.0260   74.0910 C   0  0  1  0  0  0  0  0  0  0  0  0
    4.0930   59.8650   73.4440 C   0  0  0  0  0  0  0  0  0  0  0  0
    4.2470   59.9620   72.1100 C   0  0  0  0  0  0  0  0  0  0  0  0
    5.5430   61.0780   71.3580 Br  0  0  0  0  0  0  0  0  0  0  0  0
    1.9060   59.8380   74.7800 C   0  0  0  0  0  0  0  0  0  0  0  0
    1.2530   59.2740   75.8370 C   0  0  0  0  0  0  0  0  0  0  0  0
    1.5900   57.9920   76.2830 N   0  0  0  0  0  0  0  0  0  0  0  0
    0.0790   59.9610   76.5400 C   0  0  0  0  0  0  0  0  0  0  0  0
   -0.5350   59.4050   77.4460 O   0  0  0  0  0  0  0  0  0  0  0  0
   -0.2090   61.2690   76.0440 C   0  0  0  0  0  0  0  0  0  0  0  0
    0.4410   61.8030   74.9700 C   0  0  0  0  0  0  0  0  0  0  0  0
    1.4560   61.1480   74.1970 C   0  0  0  0  0  0  0  0  0  0  0  0
    1.8740   61.7040   73.1140 N   0  0  0  0  0  0  0  0  0  0  0  0
    1.1940   62.9370   72.6100 C   0  0  0  0  0  0  0  0  0  0  0  0
    0.6130   63.8960   73.6790 C   0  0  0  0  0  0  0  0  0  0  0  0
   -0.0170   63.1070   74.7610 C   0  0  0  0  0  0  0  0  0  0  0  0
   -0.9910   63.3450   75.7070 C   0  0  0  0  0  0  0  0  0  0  0  0
   -1.1120   62.2040   76.4810 N   0  0  0  0  0  0  0  0  0  0  0  0
    1.9912   57.3944   71.1371 H   0  0  0  0  0  0  0  0  0  0  0  0
    2.7644   56.2765   76.1414 H   0  0  0  0  0  0  0  0  0  0  0  0
    4.0901   58.5731   75.9578 H   0  0  0  0  0  0  0  0  0  0  0  0
    4.4985   57.4655   74.6598 H   0  0  0  0  0  0  0  0  0  0  0  0
    4.7824   60.4253   74.0927 H   0  0  0  0  0  0  0  0  0  0  0  0
    1.1887   57.6413   77.1644 H   0  0  0  0  0  0  0  0  0  0  0  0
    1.9271   63.5034   72.0169 H   0  0  0  0  0  0  0  0  0  0  0  0
    0.3243   62.5762   72.0413 H   0  0  0  0  0  0  0  0  0  0  0  0
    1.4227   64.5114   74.0980 H   0  0  0  0  0  0  0  0  0  0  0  0
   -0.1413   64.5482   73.2146 H   0  0  0  0  0  0  0  0  0  0  0  0
   -1.5679   64.2741   75.8254 H   0  0  0  0  0  0  0  0  0  0  0  0
   -1.7739   62.0775   77.2600 H   0  0  0  0  0  0  0  0  0  0  0  0
  2  1  2  0
  3  2  1  0
  4  3  2  0
  5  4  1  0
  6  5  1  0
  7  6  1  0
  8  4  1  0
  8  7  1  0
  8  9  1  6
 10  9  2  0
 10  2  1  0
 11 10  1  0
 12  8  1  0
 13 12  2  0
 14 13  1  0
 14  6  1  0
 15 13  1  0
 16 15  2  0
 17 15  1  0
 18 17  2  0
 19 18  1  0
 19 12  1  0
 20 19  2  0
 21 20  1  0
 22 21  1  0
 23 18  1  0
 23 22  1  0
 24 23  2  0
 25 17  1  0
 25 24  1  0
  3 26  1  0
  6 27  1  1
  7 28  1  0
  7 29  1  0
  9 30  1  0
 14 31  1  0
 21 32  1  0
 21 33  1  0
 22 34  1  0
 22 35  1  0
 24 36  1  0
 25 37  1  0
M  END
>  <score>  (9) 
-7.28

$$$$
