=
     RDKit          3D

 30 31  0  0  0  0  0  0  0  0999 V2000
    3.5270   70.0910   68.2600 C   0  0  0  0  0  0  0  0  0  0  0  0
    2.8810   69.3800   67.2530 C   0  0  0  0  0  0  0  0  0  0  0  0
    3.5740   69.0360   66.1000 C   0  0  0  0  0  0  0  0  0  0  0  0
    4.8740   69.3750   65.9520 N   0  0  0  0  0  0  0  0  0  0  0  0
    5.5160   70.0840   66.9140 C   0  0  0  0  0  0  0  0  0  0  0  0
    4.8680   70.4450   68.0970 N   0  0  0  0  0  4  0  0  0  0  0  0
    5.4790   71.0900   69.0360 O   0  0  0  0  0  1  0  0  0  0  0  0
    6.8570   70.4310   66.7120 N   0  0  0  0  0  0  0  0  0  0  0  0
    2.9350   68.3030   65.0870 N   0  0  0  0  0  0  0  0  0  0  0  0
    1.6200   68.8350   64.6810 C   0  0  0  0  0  0  0  0  0  0  0  0
    1.2250   68.3470   63.2890 C   0  0  0  0  0  0  0  0  0  0  0  0
    2.2630   68.7470   62.2400 C   0  0  0  0  0  0  0  0  0  0  0  0
    3.6950   68.6950   62.7770 C   0  0  0  0  0  0  0  0  0  0  0  0
    3.7980   67.7990   64.0060 C   0  0  0  0  0  0  0  0  0  0  0  0
    2.8630   70.4170   69.4680 N   0  0  0  0  0  0  0  0  0  0  0  0
    1.8259   69.0918   67.3700 H   0  0  0  0  0  0  0  0  0  0  0  0
    7.3634   70.9691   67.4295 H   0  0  0  0  0  0  0  0  0  0  0  0
    7.3373   70.1482   65.8458 H   0  0  0  0  0  0  0  0  0  0  0  0
    0.8611   68.5032   65.4049 H   0  0  0  0  0  0  0  0  0  0  0  0
    1.6841   69.9329   64.6568 H   0  0  0  0  0  0  0  0  0  0  0  0
    1.1379   67.2506   63.3059 H   0  0  0  0  0  0  0  0  0  0  0  0
    0.2651   68.8117   63.0197 H   0  0  0  0  0  0  0  0  0  0  0  0
    2.1825   68.0595   61.3851 H   0  0  0  0  0  0  0  0  0  0  0  0
    2.0555   69.7866   61.9466 H   0  0  0  0  0  0  0  0  0  0  0  0
    4.3573   68.3021   61.9916 H   0  0  0  0  0  0  0  0  0  0  0  0
    3.9926   69.7137   63.0664 H   0  0  0  0  0  0  0  0  0  0  0  0
    3.4837   66.7795   63.7378 H   0  0  0  0  0  0  0  0  0  0  0  0
    4.8407   67.7953   64.3564 H   0  0  0  0  0  0  0  0  0  0  0  0
    3.3579   70.9439   70.2017 H   0  0  0  0  0  0  0  0  0  0  0  0
    1.8853   70.1271   69.6127 H   0  0  0  0  0  0  0  0  0  0  0  0
  2  1  2  0
  3  2  1  0
  4  3  2  0
  5  4  1  0
  6  1  1  0
  6  5  2  0
  7  6  1  0
  8  5  1  0
  9  3  1  0
 10  9  1  0
 11 10  1  0
 12 11  1  0
 13 12  1  0
 14 13  1  0
 14  9  1  0
 15  1  1  0
  2 16  1  0
  8 17  1  0
  8 18  1  0
 10 19  1  0
 10 20  1  0
 11 21  1  0
 11 22  1  0
 12 23  1  0
 12 24  1  0
 13 25  1  0
 13 26  1  0
 14 27  1  0
 14 28  1  0
 15 29  1  0
 15 30  1  0
M  CHG  2   6   1   7  -1
M  END
>  <score>  (1) 
-8.149

$$$$
=
     RDKit          3D

 30 31  0  0  0  0  0  0  0  0999 V2000
    5.5760   70.4980   67.8820 C   0  0  0  0  0  0  0  0  0  0  0  0
    5.5850   70.1650   66.5320 C   0  0  0  0  0  0  0  0  0  0  0  0
    4.4360   69.6510   65.9420 C   0  0  0  0  0  0  0  0  0  0  0  0
    3.3080   69.4830   66.6660 N   0  0  0  0  0  0  0  0  0  0  0  0
    3.2850   69.7850   67.9880 C   0  0  0  0  0  0  0  0  0  0  0  0
    4.4090   70.3150   68.6270 N   0  0  0  0  0  4  0  0  0  0  0  0
    4.3880   70.6400   69.8780 O   0  0  0  0  0  1  0  0  0  0  0  0
    2.1010   69.5780   68.7050 N   0  0  0  0  0  0  0  0  0  0  0  0
    4.4320   69.3280   64.5750 N   0  0  0  0  0  0  0  0  0  0  0  0
    5.5720   68.5030   64.1350 C   0  0  0  0  0  0  0  0  0  0  0  0
    5.2630   67.7720   62.8310 C   0  0  0  0  0  0  0  0  0  0  0  0
    4.0320   66.8760   62.9700 C   0  0  0  0  0  0  0  0  0  0  0  0
    2.9550   67.4860   63.8690 C   0  0  0  0  0  0  0  0  0  0  0  0
    3.1210   68.9970   63.9910 C   0  0  0  0  0  0  0  0  0  0  0  0
    6.7150   71.0680   68.5030 N   0  0  0  0  0  0  0  0  0  0  0  0
    6.4970   70.3076   65.9337 H   0  0  0  0  0  0  0  0  0  0  0  0
    2.0618   69.8007   69.7099 H   0  0  0  0  0  0  0  0  0  0  0  0
    1.2688   69.2030   68.2278 H   0  0  0  0  0  0  0  0  0  0  0  0
    6.4458   69.1533   63.9818 H   0  0  0  0  0  0  0  0  0  0  0  0
    5.7747   67.7516   64.9123 H   0  0  0  0  0  0  0  0  0  0  0  0
    5.0778   68.5140   62.0403 H   0  0  0  0  0  0  0  0  0  0  0  0
    6.1252   67.1376   62.5779 H   0  0  0  0  0  0  0  0  0  0  0  0
    3.6033   66.7098   61.9707 H   0  0  0  0  0  0  0  0  0  0  0  0
    4.3581   65.9340   63.4352 H   0  0  0  0  0  0  0  0  0  0  0  0
    1.9657   67.2683   63.4402 H   0  0  0  0  0  0  0  0  0  0  0  0
    3.0517   67.0454   64.8722 H   0  0  0  0  0  0  0  0  0  0  0  0
    3.0450   69.4511   62.9920 H   0  0  0  0  0  0  0  0  0  0  0  0
    2.3305   69.3892   64.6478 H   0  0  0  0  0  0  0  0  0  0  0  0
    6.6896   71.3082   69.5043 H   0  0  0  0  0  0  0  0  0  0  0  0
    7.5683   71.2422   67.9531 H   0  0  0  0  0  0  0  0  0  0  0  0
  2  1  2  0
  3  2  1  0
  4  3  2  0
  5  4  1  0
  6  1  1  0
  6  5  2  0
  7  6  1  0
  8  5  1  0
  9  3  1  0
 10  9  1  0
 11 10  1  0
 12 11  1  0
 13 12  1  0
 14 13  1  0
 14  9  1  0
 15  1  1  0
  2 16  1  0
  8 17  1  0
  8 18  1  0
 10 19  1  0
 10 20  1  0
 11 21  1  0
 11 22  1  0
 12 23  1  0
 12 24  1  0
 13 25  1  0
 13 26  1  0
 14 27  1  0
 14 28  1  0
 15 29  1  0
 15 30  1  0
M  CHG  2   6   1   7  -1
M  END
>  <score>  (2) 
-7.807

$$$$
=
     RDKit          3D

 30 31  0  0  0  0  0  0  0  0999 V2000
    4.2500   68.9760   62.6460 C   0  0  0  0  0  0  0  0  0  0  0  0
    4.2490   68.9080   64.0350 C   0  0  0  0  0  0  0  0  0  0  0  0
    3.0530   68.7090   64.7140 C   0  0  0  0  0  0  0  0  0  0  0  0
    1.8930   68.5700   64.0350 N   0  0  0  0  0  0  0  0  0  0  0  0
    1.8710   68.6520   62.6820 C   0  0  0  0  0  0  0  0  0  0  0  0
    3.0460   68.8400   61.9510 N   0  0  0  0  0  4  0  0  0  0  0  0
    3.0430   68.8830   60.6590 O   0  0  0  0  0  1  0  0  0  0  0  0
    0.6440   68.5220   62.0200 N   0  0  0  0  0  0  0  0  0  0  0  0
    3.0450   68.6220   66.1150 N   0  0  0  0  0  0  0  0  0  0  0  0
    3.7790   69.7010   66.8020 C   0  0  0  0  0  0  0  0  0  0  0  0
    3.3220   69.8560   68.2500 C   0  0  0  0  0  0  0  0  0  0  0  0
    1.8230   70.1470   68.3360 C   0  0  0  0  0  0  0  0  0  0  0  0
    1.0140   69.4030   67.2710 C   0  0  0  0  0  0  0  0  0  0  0  0
    1.7770   68.1980   66.7330 C   0  0  0  0  0  0  0  0  0  0  0  0
    5.4580   69.1310   61.9220 N   0  0  0  0  0  0  0  0  0  0  0  0
    5.1909   69.0113   64.5938 H   0  0  0  0  0  0  0  0  0  0  0  0
    0.6044   68.5811   60.9925 H   0  0  0  0  0  0  0  0  0  0  0  0
   -0.2190   68.3673   62.5606 H   0  0  0  0  0  0  0  0  0  0  0  0
    4.8536   69.4661   66.7897 H   0  0  0  0  0  0  0  0  0  0  0  0
    3.5779   70.6449   66.2742 H   0  0  0  0  0  0  0  0  0  0  0  0
    3.5372   68.9248   68.7945 H   0  0  0  0  0  0  0  0  0  0  0  0
    3.8644   70.7035   68.6945 H   0  0  0  0  0  0  0  0  0  0  0  0
    1.4618   69.8417   69.3291 H   0  0  0  0  0  0  0  0  0  0  0  0
    1.6838   71.2248   68.1657 H   0  0  0  0  0  0  0  0  0  0  0  0
    0.0687   69.0585   67.7156 H   0  0  0  0  0  0  0  0  0  0  0  0
    0.8242   70.0933   66.4358 H   0  0  0  0  0  0  0  0  0  0  0  0
    1.9917   67.5067   67.5612 H   0  0  0  0  0  0  0  0  0  0  0  0
    1.1603   67.6986   65.9712 H   0  0  0  0  0  0  0  0  0  0  0  0
    5.4393   69.1794   60.8933 H   0  0  0  0  0  0  0  0  0  0  0  0
    6.3549   69.1952   62.4244 H   0  0  0  0  0  0  0  0  0  0  0  0
  2  1  2  0
  3  2  1  0
  4  3  2  0
  5  4  1  0
  6  1  1  0
  6  5  2  0
  7  6  1  0
  8  5  1  0
  9  3  1  0
 10  9  1  0
 11 10  1  0
 12 11  1  0
 13 12  1  0
 14 13  1  0
 14  9  1  0
 15  1  1  0
  2 16  1  0
  8 17  1  0
  8 18  1  0
 10 19  1  0
 10 20  1  0
 11 21  1  0
 11 22  1  0
 12 23  1  0
 12 24  1  0
 13 25  1  0
 13 26  1  0
 14 27  1  0
 14 28  1  0
 15 29  1  0
 15 30  1  0
M  CHG  2   6   1   7  -1
M  END
>  <score>  (3) 
-7.712

$$$$
=
     RDKit          3D

 30 31  0  0  0  0  0  0  0  0999 V2000
    2.9600   67.5710   63.1970 C   0  0  0  0  0  0  0  0  0  0  0  0
    2.0190   68.2340   63.9780 C   0  0  0  0  0  0  0  0  0  0  0  0
    1.5570   67.6440   65.1490 C   0  0  0  0  0  0  0  0  0  0  0  0
    2.0240   66.4380   65.5400 N   0  0  0  0  0  0  0  0  0  0  0  0
    2.9270   65.7680   64.7830 C   0  0  0  0  0  0  0  0  0  0  0  0
    3.4310   66.3210   63.6040 N   0  0  0  0  0  4  0  0  0  0  0  0
    4.3200   65.7080   62.8920 O   0  0  0  0  0  1  0  0  0  0  0  0
    3.3680   64.5120   65.2160 N   0  0  0  0  0  0  0  0  0  0  0  0
    0.6210   68.3150   65.9520 N   0  0  0  0  0  0  0  0  0  0  0  0
   -0.5460   68.8440   65.2220 C   0  0  0  0  0  0  0  0  0  0  0  0
   -1.7290   69.0840   66.1580 C   0  0  0  0  0  0  0  0  0  0  0  0
   -2.1400   67.8010   66.8810 C   0  0  0  0  0  0  0  0  0  0  0  0
   -0.9440   66.9170   67.2430 C   0  0  0  0  0  0  0  0  0  0  0  0
    0.3530   67.7190   67.2710 C   0  0  0  0  0  0  0  0  0  0  0  0
    3.4870   68.1650   62.0230 N   0  0  0  0  0  0  0  0  0  0  0  0
    1.6421   69.2206   63.6705 H   0  0  0  0  0  0  0  0  0  0  0  0
    4.0539   63.9858   64.6560 H   0  0  0  0  0  0  0  0  0  0  0  0
    3.0066   64.1140   66.0946 H   0  0  0  0  0  0  0  0  0  0  0  0
   -0.2683   69.7957   64.7454 H   0  0  0  0  0  0  0  0  0  0  0  0
   -0.8471   68.1020   64.4678 H   0  0  0  0  0  0  0  0  0  0  0  0
   -1.4462   69.8404   66.9049 H   0  0  0  0  0  0  0  0  0  0  0  0
   -2.5819   69.4291   65.5551 H   0  0  0  0  0  0  0  0  0  0  0  0
   -2.6694   68.0727   67.8062 H   0  0  0  0  0  0  0  0  0  0  0  0
   -2.7827   67.2264   66.1979 H   0  0  0  0  0  0  0  0  0  0  0  0
   -1.1131   66.4753   68.2361 H   0  0  0  0  0  0  0  0  0  0  0  0
   -0.8493   66.1326   66.4777 H   0  0  0  0  0  0  0  0  0  0  0  0
    0.2665   68.5206   68.0193 H   0  0  0  0  0  0  0  0  0  0  0  0
    1.1821   67.0444   67.5309 H   0  0  0  0  0  0  0  0  0  0  0  0
    4.1831   67.6585   61.4575 H   0  0  0  0  0  0  0  0  0  0  0  0
    3.1739   69.1031   61.7354 H   0  0  0  0  0  0  0  0  0  0  0  0
  2  1  2  0
  3  2  1  0
  4  3  2  0
  5  4  1  0
  6  1  1  0
  6  5  2  0
  7  6  1  0
  8  5  1  0
  9  3  1  0
 10  9  1  0
 11 10  1  0
 12 11  1  0
 13 12  1  0
 14 13  1  0
 14  9  1  0
 15  1  1  0
  2 16  1  0
  8 17  1  0
  8 18  1  0
 10 19  1  0
 10 20  1  0
 11 21  1  0
 11 22  1  0
 12 23  1  0
 12 24  1  0
 13 25  1  0
 13 26  1  0
 14 27  1  0
 14 28  1  0
 15 29  1  0
 15 30  1  0
M  CHG  2   6   1   7  -1
M  END
>  <score>  (4) 
-7.586

$$$$
=
     RDKit          3D

 30 31  0  0  0  0  0  0  0  0999 V2000
    0.9800   69.0260   62.1940 C   0  0  0  0  0  0  0  0  0  0  0  0
    0.0620   69.2330   63.2190 C   0  0  0  0  0  0  0  0  0  0  0  0
    0.3110   68.7080   64.4820 C   0  0  0  0  0  0  0  0  0  0  0  0
    1.4420   68.0100   64.7240 N   0  0  0  0  0  0  0  0  0  0  0  0
    2.3400   67.7830   63.7330 C   0  0  0  0  0  0  0  0  0  0  0  0
    2.1430   68.2970   62.4500 N   0  0  0  0  0  4  0  0  0  0  0  0
    3.0080   68.1170   61.5070 O   0  0  0  0  0  1  0  0  0  0  0  0
    3.4890   67.0380   64.0240 N   0  0  0  0  0  0  0  0  0  0  0  0
   -0.6010   68.9270   65.5260 N   0  0  0  0  0  0  0  0  0  0  0  0
   -2.0060   68.6350   65.1860 C   0  0  0  0  0  0  0  0  0  0  0  0
   -2.8460   68.3890   66.4370 C   0  0  0  0  0  0  0  0  0  0  0  0
   -2.2880   67.2320   67.2670 C   0  0  0  0  0  0  0  0  0  0  0  0
   -0.7590   67.1770   67.2530 C   0  0  0  0  0  0  0  0  0  0  0  0
   -0.1560   68.5240   66.8710 C   0  0  0  0  0  0  0  0  0  0  0  0
    0.7790   69.5870   60.9080 N   0  0  0  0  0  0  0  0  0  0  0  0
   -0.8560   69.8091   63.0309 H   0  0  0  0  0  0  0  0  0  0  0  0
    4.1839   66.8538   63.2864 H   0  0  0  0  0  0  0  0  0  0  0  0
    3.6395   66.6741   64.9757 H   0  0  0  0  0  0  0  0  0  0  0  0
   -2.4257   69.4904   64.6364 H   0  0  0  0  0  0  0  0  0  0  0  0
   -2.0294   67.7237   64.5704 H   0  0  0  0  0  0  0  0  0  0  0  0
   -2.8482   69.3014   67.0514 H   0  0  0  0  0  0  0  0  0  0  0  0
   -3.8669   68.1273   66.1218 H   0  0  0  0  0  0  0  0  0  0  0  0
   -2.6261   67.3502   68.3070 H   0  0  0  0  0  0  0  0  0  0  0  0
   -2.6576   66.2963   66.8222 H   0  0  0  0  0  0  0  0  0  0  0  0
   -0.4020   66.8966   68.2550 H   0  0  0  0  0  0  0  0  0  0  0  0
   -0.4468   66.4339   66.5045 H   0  0  0  0  0  0  0  0  0  0  0  0
   -0.4752   69.2831   67.6002 H   0  0  0  0  0  0  0  0  0  0  0  0
    0.9404   68.4351   66.8706 H   0  0  0  0  0  0  0  0  0  0  0  0
    1.4691   69.4233   60.1611 H   0  0  0  0  0  0  0  0  0  0  0  0
   -0.0572   70.1584   60.7203 H   0  0  0  0  0  0  0  0  0  0  0  0
  2  1  2  0
  3  2  1  0
  4  3  2  0
  5  4  1  0
  6  1  1  0
  6  5  2  0
  7  6  1  0
  8  5  1  0
  9  3  1  0
 10  9  1  0
 11 10  1  0
 12 11  1  0
 13 12  1  0
 14 13  1  0
 14  9  1  0
 15  1  1  0
  2 16  1  0
  8 17  1  0
  8 18  1  0
 10 19  1  0
 10 20  1  0
 11 21  1  0
 11 22  1  0
 12 23  1  0
 12 24  1  0
 13 25  1  0
 13 26  1  0
 14 27  1  0
 14 28  1  0
 15 29  1  0
 15 30  1  0
M  CHG  2   6   1   7  -1
M  END
>  <score>  (5) 
-7.473

$$$$
=
     RDKit          3D

 30 31  0  0  0  0  0  0  0  0999 V2000
    0.7120   68.8060   62.8830 C   0  0  0  0  0  0  0  0  0  0  0  0
    1.3550   67.9520   63.7720 C   0  0  0  0  0  0  0  0  0  0  0  0
    2.6360   67.4960   63.4850 C   0  0  0  0  0  0  0  0  0  0  0  0
    3.2660   67.8860   62.3550 N   0  0  0  0  0  0  0  0  0  0  0  0
    2.6490   68.7030   61.4660 C   0  0  0  0  0  0  0  0  0  0  0  0
    1.3660   69.1980   61.7130 N   0  0  0  0  0  4  0  0  0  0  0  0
    0.7810   70.0070   60.8910 O   0  0  0  0  0  1  0  0  0  0  0  0
    3.3310   69.0660   60.2990 N   0  0  0  0  0  0  0  0  0  0  0  0
    3.2990   66.6480   64.3860 N   0  0  0  0  0  0  0  0  0  0  0  0
    2.5020   65.4940   64.8430 C   0  0  0  0  0  0  0  0  0  0  0  0
    3.3930   64.3730   65.3730 C   0  0  0  0  0  0  0  0  0  0  0  0
    4.3860   63.8970   64.3120 C   0  0  0  0  0  0  0  0  0  0  0  0
    4.8990   65.0370   63.4300 C   0  0  0  0  0  0  0  0  0  0  0  0
    4.7220   66.3910   64.1080 C   0  0  0  0  0  0  0  0  0  0  0  0
   -0.5750   69.3260   63.1680 N   0  0  0  0  0  0  0  0  0  0  0  0
    0.8519   67.6386   64.6986 H   0  0  0  0  0  0  0  0  0  0  0  0
    2.8803   69.6857   59.6107 H   0  0  0  0  0  0  0  0  0  0  0  0
    4.2836   68.7134   60.1284 H   0  0  0  0  0  0  0  0  0  0  0  0
    1.8253   65.8224   65.6456 H   0  0  0  0  0  0  0  0  0  0  0  0
    1.9331   65.1062   63.9852 H   0  0  0  0  0  0  0  0  0  0  0  0
    3.9519   64.7428   66.2453 H   0  0  0  0  0  0  0  0  0  0  0  0
    2.7510   63.5239   65.6504 H   0  0  0  0  0  0  0  0  0  0  0  0
    5.2440   63.4296   64.8174 H   0  0  0  0  0  0  0  0  0  0  0  0
    3.8598   63.1838   63.6605 H   0  0  0  0  0  0  0  0  0  0  0  0
    5.9678   64.8770   63.2248 H   0  0  0  0  0  0  0  0  0  0  0  0
    4.3172   65.0398   62.4965 H   0  0  0  0  0  0  0  0  0  0  0  0
    5.2824   66.3976   65.0545 H   0  0  0  0  0  0  0  0  0  0  0  0
    5.1003   67.1763   63.4370 H   0  0  0  0  0  0  0  0  0  0  0  0
   -1.0355   69.9574   62.4970 H   0  0  0  0  0  0  0  0  0  0  0  0
   -1.0500   69.0726   64.0461 H   0  0  0  0  0  0  0  0  0  0  0  0
  2  1  2  0
  3  2  1  0
  4  3  2  0
  5  4  1  0
  6  1  1  0
  6  5  2  0
  7  6  1  0
  8  5  1  0
  9  3  1  0
 10  9  1  0
 11 10  1  0
 12 11  1  0
 13 12  1  0
 14 13  1  0
 14  9  1  0
 15  1  1  0
  2 16  1  0
  8 17  1  0
  8 18  1  0
 10 19  1  0
 10 20  1  0
 11 21  1  0
 11 22  1  0
 12 23  1  0
 12 24  1  0
 13 25  1  0
 13 26  1  0
 14 27  1  0
 14 28  1  0
 15 29  1  0
 15 30  1  0
M  CHG  2   6   1   7  -1
M  END
>  <score>  (6) 
-7.462

$$$$
=
     RDKit          3D

 30 31  0  0  0  0  0  0  0  0999 V2000
    3.3880   68.7480   63.3030 C   0  0  0  0  0  0  0  0  0  0  0  0
    2.2740   68.6230   64.1270 C   0  0  0  0  0  0  0  0  0  0  0  0
    2.3840   68.9150   65.4810 C   0  0  0  0  0  0  0  0  0  0  0  0
    3.5590   69.3300   66.0010 N   0  0  0  0  0  0  0  0  0  0  0  0
    4.6610   69.4400   65.2180 C   0  0  0  0  0  0  0  0  0  0  0  0
    4.6020   69.1690   63.8490 N   0  0  0  0  0  4  0  0  0  0  0  0
    5.6370   69.3050   63.0850 O   0  0  0  0  0  1  0  0  0  0  0  0
    5.8630   69.8540   65.8020 N   0  0  0  0  0  0  0  0  0  0  0  0
    1.2600   68.8090   66.3160 N   0  0  0  0  0  0  0  0  0  0  0  0
    0.5160   67.5420   66.1870 C   0  0  0  0  0  0  0  0  0  0  0  0
   -0.3360   67.2640   67.4230 C   0  0  0  0  0  0  0  0  0  0  0  0
    0.5170   67.2080   68.6900 C   0  0  0  0  0  0  0  0  0  0  0  0
    1.6730   68.2100   68.6700 C   0  0  0  0  0  0  0  0  0  0  0  0
    1.4130   69.3410   67.6810 C   0  0  0  0  0  0  0  0  0  0  0  0
    3.2990   68.5030   61.9100 N   0  0  0  0  0  0  0  0  0  0  0  0
    1.3111   68.2947   63.7087 H   0  0  0  0  0  0  0  0  0  0  0  0
    6.7116   69.9441   65.2252 H   0  0  0  0  0  0  0  0  0  0  0  0
    5.8993   70.0687   66.8087 H   0  0  0  0  0  0  0  0  0  0  0  0
   -0.1406   67.6013   65.3064 H   0  0  0  0  0  0  0  0  0  0  0  0
    1.2438   66.7243   66.0790 H   0  0  0  0  0  0  0  0  0  0  0  0
   -1.0827   68.0646   67.5299 H   0  0  0  0  0  0  0  0  0  0  0  0
   -0.8251   66.2874   67.2926 H   0  0  0  0  0  0  0  0  0  0  0  0
   -0.1246   67.4285   69.5559 H   0  0  0  0  0  0  0  0  0  0  0  0
    0.9529   66.2000   68.7520 H   0  0  0  0  0  0  0  0  0  0  0  0
    1.7946   68.6361   69.6768 H   0  0  0  0  0  0  0  0  0  0  0  0
    2.5847   67.6799   68.3573 H   0  0  0  0  0  0  0  0  0  0  0  0
    0.4919   69.8688   67.9690 H   0  0  0  0  0  0  0  0  0  0  0  0
    2.2683   70.0325   67.6991 H   0  0  0  0  0  0  0  0  0  0  0  0
    4.1345   68.6005   61.3155 H   0  0  0  0  0  0  0  0  0  0  0  0
    2.3989   68.2274   61.4920 H   0  0  0  0  0  0  0  0  0  0  0  0
  2  1  2  0
  3  2  1  0
  4  3  2  0
  5  4  1  0
  6  1  1  0
  6  5  2  0
  7  6  1  0
  8  5  1  0
  9  3  1  0
 10  9  1  0
 11 10  1  0
 12 11  1  0
 13 12  1  0
 14 13  1  0
 14  9  1  0
 15  1  1  0
  2 16  1  0
  8 17  1  0
  8 18  1  0
 10 19  1  0
 10 20  1  0
 11 21  1  0
 11 22  1  0
 12 23  1  0
 12 24  1  0
 13 25  1  0
 13 26  1  0
 14 27  1  0
 14 28  1  0
 15 29  1  0
 15 30  1  0
M  CHG  2   6   1   7  -1
M  END
>  <score>  (7) 
-7.447

$$$$
=
     RDKit          3D

 30 31  0  0  0  0  0  0  0  0999 V2000
    4.6350   70.3420   68.0140 C   0  0  0  0  0  0  0  0  0  0  0  0
    3.3830   69.7350   68.0270 C   0  0  0  0  0  0  0  0  0  0  0  0
    2.8980   69.1340   66.8720 C   0  0  0  0  0  0  0  0  0  0  0  0
    3.6360   69.1240   65.7400 N   0  0  0  0  0  0  0  0  0  0  0  0
    4.8500   69.7280   65.7020 C   0  0  0  0  0  0  0  0  0  0  0  0
    5.3880   70.3360   66.8380 N   0  0  0  0  0  4  0  0  0  0  0  0
    6.5600   70.8820   66.8250 O   0  0  0  0  0  1  0  0  0  0  0  0
    5.5720   69.7110   64.5040 N   0  0  0  0  0  0  0  0  0  0  0  0
    1.6430   68.5030   66.8820 N   0  0  0  0  0  0  0  0  0  0  0  0
    0.5540   69.3110   67.4620 C   0  0  0  0  0  0  0  0  0  0  0  0
   -0.8150   68.8240   66.9920 C   0  0  0  0  0  0  0  0  0  0  0  0
   -0.9300   68.8640   65.4680 C   0  0  0  0  0  0  0  0  0  0  0  0
    0.3800   68.5000   64.7660 C   0  0  0  0  0  0  0  0  0  0  0  0
    1.3050   67.7120   65.6870 C   0  0  0  0  0  0  0  0  0  0  0  0
    5.1790   70.9220   69.1870 N   0  0  0  0  0  0  0  0  0  0  0  0
    2.7802   69.7310   68.9471 H   0  0  0  0  0  0  0  0  0  0  0  0
    6.4958   70.1636   64.4530 H   0  0  0  0  0  0  0  0  0  0  0  0
    5.1798   69.2459   63.6729 H   0  0  0  0  0  0  0  0  0  0  0  0
    0.6015   69.2403   68.5587 H   0  0  0  0  0  0  0  0  0  0  0  0
    0.6825   70.3521   67.1310 H   0  0  0  0  0  0  0  0  0  0  0  0
   -0.9636   67.7894   67.3348 H   0  0  0  0  0  0  0  0  0  0  0  0
   -1.5822   69.4898   67.4140 H   0  0  0  0  0  0  0  0  0  0  0  0
   -1.7067   68.1507   65.1551 H   0  0  0  0  0  0  0  0  0  0  0  0
   -1.1845   69.8951   65.1815 H   0  0  0  0  0  0  0  0  0  0  0  0
    0.1532   67.8898   63.8793 H   0  0  0  0  0  0  0  0  0  0  0  0
    0.8893   69.4318   64.4790 H   0  0  0  0  0  0  0  0  0  0  0  0
    0.8015   66.7847   65.9978 H   0  0  0  0  0  0  0  0  0  0  0  0
    2.2319   67.4777   65.1429 H   0  0  0  0  0  0  0  0  0  0  0  0
    6.1074   71.3671   69.1585 H   0  0  0  0  0  0  0  0  0  0  0  0
    4.6460   70.8985   70.0680 H   0  0  0  0  0  0  0  0  0  0  0  0
  2  1  2  0
  3  2  1  0
  4  3  2  0
  5  4  1  0
  6  1  1  0
  6  5  2  0
  7  6  1  0
  8  5  1  0
  9  3  1  0
 10  9  1  0
 11 10  1  0
 12 11  1  0
 13 12  1  0
 14 13  1  0
 14  9  1  0
 15  1  1  0
  2 16  1  0
  8 17  1  0
  8 18  1  0
 10 19  1  0
 10 20  1  0
 11 21  1  0
 11 22  1  0
 12 23  1  0
 12 24  1  0
 13 25  1  0
 13 26  1  0
 14 27  1  0
 14 28  1  0
 15 29  1  0
 15 30  1  0
M  CHG  2   6   1   7  -1
M  END
>  <score>  (8) 
-7.435

$$$$
=
     RDKit          3D

 30 31  0  0  0  0  0  0  0  0999 V2000
    2.3480   69.0510   67.8520 C   0  0  0  0  0  0  0  0  0  0  0  0
    3.0990   69.3990   66.7340 C   0  0  0  0  0  0  0  0  0  0  0  0
    2.7670   68.8730   65.4910 C   0  0  0  0  0  0  0  0  0  0  0  0
    1.7150   68.0360   65.3580 N   0  0  0  0  0  0  0  0  0  0  0  0
    0.9820   67.6700   66.4400 C   0  0  0  0  0  0  0  0  0  0  0  0
    1.2670   68.1790   67.7090 N   0  0  0  0  0  4  0  0  0  0  0  0
    0.5540   67.8660   68.7410 O   0  0  0  0  0  1  0  0  0  0  0  0
   -0.0870   66.7860   66.2600 N   0  0  0  0  0  0  0  0  0  0  0  0
    3.5090   69.2330   64.3550 N   0  0  0  0  0  0  0  0  0  0  0  0
    4.9710   69.1230   64.5150 C   0  0  0  0  0  0  0  0  0  0  0  0
    5.6760   69.0170   63.1650 C   0  0  0  0  0  0  0  0  0  0  0  0
    5.1760   67.8140   62.3650 C   0  0  0  0  0  0  0  0  0  0  0  0
    3.6800   67.5560   62.5580 C   0  0  0  0  0  0  0  0  0  0  0  0
    2.9590   68.8030   63.0580 C   0  0  0  0  0  0  0  0  0  0  0  0
    2.6300   69.6060   69.1250 N   0  0  0  0  0  0  0  0  0  0  0  0
    3.9515   70.0871   66.8331 H   0  0  0  0  0  0  0  0  0  0  0  0
   -0.6564   66.4952   67.0676 H   0  0  0  0  0  0  0  0  0  0  0  0
   -0.3048   66.4259   65.3199 H   0  0  0  0  0  0  0  0  0  0  0  0
    5.3408   70.0148   65.0422 H   0  0  0  0  0  0  0  0  0  0  0  0
    5.1873   68.2102   65.0895 H   0  0  0  0  0  0  0  0  0  0  0  0
    5.4844   69.9342   62.5887 H   0  0  0  0  0  0  0  0  0  0  0  0
    6.7530   68.8869   63.3472 H   0  0  0  0  0  0  0  0  0  0  0  0
    5.3664   67.9978   61.2973 H   0  0  0  0  0  0  0  0  0  0  0  0
    5.7154   66.9267   62.7279 H   0  0  0  0  0  0  0  0  0  0  0  0
    3.2425   67.2516   61.5957 H   0  0  0  0  0  0  0  0  0  0  0  0
    3.5604   66.7625   63.3104 H   0  0  0  0  0  0  0  0  0  0  0  0
    3.0862   69.6130   62.3247 H   0  0  0  0  0  0  0  0  0  0  0  0
    1.8915   68.5695   63.1846 H   0  0  0  0  0  0  0  0  0  0  0  0
    2.0630   69.3363   69.9415 H   0  0  0  0  0  0  0  0  0  0  0  0
    3.4020   70.2791   69.2338 H   0  0  0  0  0  0  0  0  0  0  0  0
  2  1  2  0
  3  2  1  0
  4  3  2  0
  5  4  1  0
  6  1  1  0
  6  5  2  0
  7  6  1  0
  8  5  1  0
  9  3  1  0
 10  9  1  0
 11 10  1  0
 12 11  1  0
 13 12  1  0
 14 13  1  0
 14  9  1  0
 15  1  1  0
  2 16  1  0
  8 17  1  0
  8 18  1  0
 10 19  1  0
 10 20  1  0
 11 21  1  0
 11 22  1  0
 12 23  1  0
 12 24  1  0
 13 25  1  0
 13 26  1  0
 14 27  1  0
 14 28  1  0
 15 29  1  0
 15 30  1  0
M  CHG  2   6   1   7  -1
M  END
>  <score>  (9) 
-7.362

$$$$
