=
     RDKit          3D

 16 17  0  0  0  0  0  0  0  0999 V2000
    1.3110   68.3350   65.5400 Br  0  0  0  0  0  0  0  0  0  0  0  0
    3.0070   69.0520   65.9690 C   0  0  0  0  0  0  0  0  0  0  0  0
    4.0050   69.1070   64.9730 C   0  0  0  0  0  0  0  0  0  0  0  0
    5.2740   69.6310   65.2540 C   0  0  0  0  0  0  0  0  0  0  0  0
    5.5000   70.0860   66.5350 C   0  0  0  0  0  0  0  0  0  0  0  0
    4.5050   70.0260   67.5090 C   0  0  0  0  0  0  0  0  0  0  0  0
    3.2470   69.5150   67.2630 C   0  0  0  0  0  0  0  0  0  0  0  0
    5.0740   70.5850   68.7380 C   0  0  0  0  0  0  0  0  0  0  0  0
    4.5220   70.7070   69.8060 O   0  0  0  0  0  0  0  0  0  0  0  0
    6.5300   70.9830   68.3670 C   0  0  0  0  0  0  0  0  0  0  0  0
    7.3500   71.4850   69.1030 O   0  0  0  0  0  0  0  0  0  0  0  0
    6.6730   70.6410   67.0350 N   0  0  0  0  0  0  0  0  0  0  0  0
    3.7839   68.7335   63.9622 H   0  0  0  0  0  0  0  0  0  0  0  0
    6.0577   69.6772   64.4835 H   0  0  0  0  0  0  0  0  0  0  0  0
    2.4747   69.4749   68.0453 H   0  0  0  0  0  0  0  0  0  0  0  0
    7.5336   70.7789   66.4862 H   0  0  0  0  0  0  0  0  0  0  0  0
  2  1  1  0
  3  2  2  0
  4  3  1  0
  5  4  2  0
  6  5  1  0
  7  6  2  0
  7  2  1  0
  8  6  1  0
  9  8  2  0
 10  8  1  0
 11 10  2  0
 12  5  1  0
 12 10  1  0
  3 13  1  0
  4 14  1  0
  7 15  1  0
 12 16  1  0
M  END
>  <score>  (1) 
-7.883

$$$$
=
     RDKit          3D

 16 17  0  0  0  0  0  0  0  0999 V2000
    6.6670   70.9580   68.6500 Br  0  0  0  0  0  0  0  0  0  0  0  0
    5.3620   70.2770   67.4630 C   0  0  0  0  0  0  0  0  0  0  0  0
    4.0680   69.9940   67.9490 C   0  0  0  0  0  0  0  0  0  0  0  0
    3.0750   69.4880   67.1000 C   0  0  0  0  0  0  0  0  0  0  0  0
    3.4180   69.2800   65.7810 C   0  0  0  0  0  0  0  0  0  0  0  0
    4.7000   69.5640   65.3140 C   0  0  0  0  0  0  0  0  0  0  0  0
    5.6980   70.0620   66.1260 C   0  0  0  0  0  0  0  0  0  0  0  0
    4.7200   69.2320   63.8880 C   0  0  0  0  0  0  0  0  0  0  0  0
    5.6550   69.3390   63.1290 O   0  0  0  0  0  0  0  0  0  0  0  0
    3.2890   68.7170   63.5710 C   0  0  0  0  0  0  0  0  0  0  0  0
    2.8810   68.3360   62.4960 O   0  0  0  0  0  0  0  0  0  0  0  0
    2.6020   68.7890   64.7670 N   0  0  0  0  0  0  0  0  0  0  0  0
    3.8356   70.1731   69.0091 H   0  0  0  0  0  0  0  0  0  0  0  0
    2.0634   69.2658   67.4705 H   0  0  0  0  0  0  0  0  0  0  0  0
    6.7051   70.2781   65.7399 H   0  0  0  0  0  0  0  0  0  0  0  0
    1.6168   68.5156   64.8915 H   0  0  0  0  0  0  0  0  0  0  0  0
  2  1  1  0
  3  2  2  0
  4  3  1  0
  5  4  2  0
  6  5  1  0
  7  6  2  0
  7  2  1  0
  8  6  1  0
  9  8  2  0
 10  8  1  0
 11 10  2  0
 12  5  1  0
 12 10  1  0
  3 13  1  0
  4 14  1  0
  7 15  1  0
 12 16  1  0
M  END
>  <score>  (2) 
-7.806

$$$$
=
     RDKit          3D

 16 17  0  0  0  0  0  0  0  0999 V2000
    5.6440   68.7150   62.7510 Br  0  0  0  0  0  0  0  0  0  0  0  0
    4.7400   69.0310   64.3810 C   0  0  0  0  0  0  0  0  0  0  0  0
    3.3840   68.6580   64.5020 C   0  0  0  0  0  0  0  0  0  0  0  0
    2.6810   68.8770   65.6940 C   0  0  0  0  0  0  0  0  0  0  0  0
    3.3680   69.4660   66.7330 C   0  0  0  0  0  0  0  0  0  0  0  0
    4.7070   69.8280   66.6020 C   0  0  0  0  0  0  0  0  0  0  0  0
    5.4250   69.6270   65.4400 C   0  0  0  0  0  0  0  0  0  0  0  0
    5.1200   70.4190   67.8760 C   0  0  0  0  0  0  0  0  0  0  0  0
    6.2110   70.8570   68.1570 O   0  0  0  0  0  0  0  0  0  0  0  0
    3.8560   70.3600   68.7790 C   0  0  0  0  0  0  0  0  0  0  0  0
    3.7670   70.7490   69.9220 O   0  0  0  0  0  0  0  0  0  0  0  0
    2.8770   69.7750   67.9980 N   0  0  0  0  0  0  0  0  0  0  0  0
    2.8722   68.1890   63.6487 H   0  0  0  0  0  0  0  0  0  0  0  0
    1.6239   68.5904   65.7962 H   0  0  0  0  0  0  0  0  0  0  0  0
    6.4814   69.9213   65.3538 H   0  0  0  0  0  0  0  0  0  0  0  0
    1.9128   69.5922   68.3106 H   0  0  0  0  0  0  0  0  0  0  0  0
  2  1  1  0
  3  2  2  0
  4  3  1  0
  5  4  2  0
  6  5  1  0
  7  6  2  0
  7  2  1  0
  8  6  1  0
  9  8  2  0
 10  8  1  0
 11 10  2  0
 12  5  1  0
 12 10  1  0
  3 13  1  0
  4 14  1  0
  7 15  1  0
 12 16  1  0
M  END
>  <score>  (3) 
-7.66

$$$$
=
     RDKit          3D

 16 17  0  0  0  0  0  0  0  0999 V2000
    6.3700   70.9860   68.6690 Br  0  0  0  0  0  0  0  0  0  0  0  0
    5.1670   70.2290   67.4230 C   0  0  0  0  0  0  0  0  0  0  0  0
    5.6060   69.9740   66.1070 C   0  0  0  0  0  0  0  0  0  0  0  0
    4.7430   69.4140   65.1550 C   0  0  0  0  0  0  0  0  0  0  0  0
    3.4580   69.1270   65.5610 C   0  0  0  0  0  0  0  0  0  0  0  0
    3.0360   69.3840   66.8640 C   0  0  0  0  0  0  0  0  0  0  0  0
    3.8630   69.9340   67.8220 C   0  0  0  0  0  0  0  0  0  0  0  0
    1.6360   68.9650   66.9540 C   0  0  0  0  0  0  0  0  0  0  0  0
    0.9170   69.0280   67.9230 O   0  0  0  0  0  0  0  0  0  0  0  0
    1.2820   68.4280   65.5380 C   0  0  0  0  0  0  0  0  0  0  0  0
    0.2140   67.9820   65.1830 O   0  0  0  0  0  0  0  0  0  0  0  0
    2.4370   68.5730   64.7940 N   0  0  0  0  0  0  0  0  0  0  0  0
    6.6405   70.2181   65.8238 H   0  0  0  0  0  0  0  0  0  0  0  0
    5.0776   69.2121   64.1268 H   0  0  0  0  0  0  0  0  0  0  0  0
    3.5126   70.1295   68.8462 H   0  0  0  0  0  0  0  0  0  0  0  0
    2.5302   68.3066   63.8034 H   0  0  0  0  0  0  0  0  0  0  0  0
  2  1  1  0
  3  2  2  0
  4  3  1  0
  5  4  2  0
  6  5  1  0
  7  6  2  0
  7  2  1  0
  8  6  1  0
  9  8  2  0
 10  8  1  0
 11 10  2  0
 12  5  1  0
 12 10  1  0
  3 13  1  0
  4 14  1  0
  7 15  1  0
 12 16  1  0
M  END
>  <score>  (4) 
-7.624

$$$$
=
     RDKit          3D

 16 17  0  0  0  0  0  0  0  0999 V2000
    5.7230   69.9590   66.9010 Br  0  0  0  0  0  0  0  0  0  0  0  0
    4.5990   69.4880   65.4550 C   0  0  0  0  0  0  0  0  0  0  0  0
    5.1470   69.3910   64.1580 C   0  0  0  0  0  0  0  0  0  0  0  0
    4.3460   69.0450   63.0620 C   0  0  0  0  0  0  0  0  0  0  0  0
    3.0110   68.8070   63.3060 C   0  0  0  0  0  0  0  0  0  0  0  0
    2.4820   68.9050   64.5910 C   0  0  0  0  0  0  0  0  0  0  0  0
    3.2460   69.2440   65.6900 C   0  0  0  0  0  0  0  0  0  0  0  0
    1.0550   68.5920   64.4940 C   0  0  0  0  0  0  0  0  0  0  0  0
    0.2510   68.5710   65.3960 O   0  0  0  0  0  0  0  0  0  0  0  0
    0.8070   68.2940   62.9890 C   0  0  0  0  0  0  0  0  0  0  0  0
   -0.2490   67.9910   62.4780 O   0  0  0  0  0  0  0  0  0  0  0  0
    2.0360   68.4520   62.3790 N   0  0  0  0  0  0  0  0  0  0  0  0
    6.2181   69.5899   64.0056 H   0  0  0  0  0  0  0  0  0  0  0  0
    4.7656   68.9665   62.0482 H   0  0  0  0  0  0  0  0  0  0  0  0
    2.8107   69.3177   66.6975 H   0  0  0  0  0  0  0  0  0  0  0  0
    2.2080   68.3240   61.3716 H   0  0  0  0  0  0  0  0  0  0  0  0
  2  1  1  0
  3  2  2  0
  4  3  1  0
  5  4  2  0
  6  5  1  0
  7  6  2  0
  7  2  1  0
  8  6  1  0
  9  8  2  0
 10  8  1  0
 11 10  2  0
 12  5  1  0
 12 10  1  0
  3 13  1  0
  4 14  1  0
  7 15  1  0
 12 16  1  0
M  END
>  <score>  (5) 
-7.516

$$$$
=
     RDKit          3D

 16 17  0  0  0  0  0  0  0  0999 V2000
    5.8000   69.9190   66.5480 Br  0  0  0  0  0  0  0  0  0  0  0  0
    4.0700   69.4370   65.9590 C   0  0  0  0  0  0  0  0  0  0  0  0
    3.0400   69.2680   66.9090 C   0  0  0  0  0  0  0  0  0  0  0  0
    1.7450   68.9110   66.5100 C   0  0  0  0  0  0  0  0  0  0  0  0
    1.5260   68.7350   65.1610 C   0  0  0  0  0  0  0  0  0  0  0  0
    2.5510   68.9060   64.2330 C   0  0  0  0  0  0  0  0  0  0  0  0
    3.8360   69.2560   64.5960 C   0  0  0  0  0  0  0  0  0  0  0  0
    1.9820   68.6450   62.9100 C   0  0  0  0  0  0  0  0  0  0  0  0
    2.5570   68.6920   61.8470 O   0  0  0  0  0  0  0  0  0  0  0  0
    0.4890   68.2990   63.1710 C   0  0  0  0  0  0  0  0  0  0  0  0
   -0.3430   68.0180   62.3380 O   0  0  0  0  0  0  0  0  0  0  0  0
    0.3300   68.3830   64.5410 N   0  0  0  0  0  0  0  0  0  0  0  0
    3.2567   69.4185   67.9769 H   0  0  0  0  0  0  0  0  0  0  0  0
    0.9364   68.7768   67.2436 H   0  0  0  0  0  0  0  0  0  0  0  0
    4.6335   69.3854   63.8495 H   0  0  0  0  0  0  0  0  0  0  0  0
   -0.5554   68.2085   65.0375 H   0  0  0  0  0  0  0  0  0  0  0  0
  2  1  1  0
  3  2  2  0
  4  3  1  0
  5  4  2  0
  6  5  1  0
  7  6  2  0
  7  2  1  0
  8  6  1  0
  9  8  2  0
 10  8  1  0
 11 10  2  0
 12  5  1  0
 12 10  1  0
  3 13  1  0
  4 14  1  0
  7 15  1  0
 12 16  1  0
M  END
>  <score>  (6) 
-7.41

$$$$
=
     RDKit          3D

 16 17  0  0  0  0  0  0  0  0999 V2000
    6.4980   70.5620   67.0790 Br  0  0  0  0  0  0  0  0  0  0  0  0
    4.6890   70.0400   67.2510 C   0  0  0  0  0  0  0  0  0  0  0  0
    4.0240   70.2520   68.4780 C   0  0  0  0  0  0  0  0  0  0  0  0
    2.6830   69.8780   68.6430 C   0  0  0  0  0  0  0  0  0  0  0  0
    2.0510   69.3000   67.5640 C   0  0  0  0  0  0  0  0  0  0  0  0
    2.7200   69.0970   66.3590 C   0  0  0  0  0  0  0  0  0  0  0  0
    4.0390   69.4530   66.1660 C   0  0  0  0  0  0  0  0  0  0  0  0
    1.7670   68.4710   65.4390 C   0  0  0  0  0  0  0  0  0  0  0  0
    1.9700   68.1380   64.2950 O   0  0  0  0  0  0  0  0  0  0  0  0
    0.4500   68.3300   66.2540 C   0  0  0  0  0  0  0  0  0  0  0  0
   -0.5930   67.8570   65.8610 O   0  0  0  0  0  0  0  0  0  0  0  0
    0.7350   68.8540   67.5000 N   0  0  0  0  0  0  0  0  0  0  0  0
    4.5650   70.7167   69.3155 H   0  0  0  0  0  0  0  0  0  0  0  0
    2.1568   70.0395   69.5954 H   0  0  0  0  0  0  0  0  0  0  0  0
    4.5506   69.2828   65.2072 H   0  0  0  0  0  0  0  0  0  0  0  0
    0.0624   68.9074   68.2782 H   0  0  0  0  0  0  0  0  0  0  0  0
  2  1  1  0
  3  2  2  0
  4  3  1  0
  5  4  2  0
  6  5  1  0
  7  6  2  0
  7  2  1  0
  8  6  1  0
  9  8  2  0
 10  8  1  0
 11 10  2  0
 12  5  1  0
 12 10  1  0
  3 13  1  0
  4 14  1  0
  7 15  1  0
 12 16  1  0
M  END
>  <score>  (7) 
-7.261

$$$$
=
     RDKit          3D

 16 17  0  0  0  0  0  0  0  0999 V2000
    5.5490   69.0930   62.7690 Br  0  0  0  0  0  0  0  0  0  0  0  0
    4.3980   69.1300   64.2680 C   0  0  0  0  0  0  0  0  0  0  0  0
    4.9060   69.5470   65.5170 C   0  0  0  0  0  0  0  0  0  0  0  0
    4.0830   69.5870   66.6510 C   0  0  0  0  0  0  0  0  0  0  0  0
    2.7690   69.2040   66.4920 C   0  0  0  0  0  0  0  0  0  0  0  0
    2.2800   68.7950   65.2530 C   0  0  0  0  0  0  0  0  0  0  0  0
    3.0660   68.7450   64.1190 C   0  0  0  0  0  0  0  0  0  0  0  0
    0.8660   68.4640   65.4360 C   0  0  0  0  0  0  0  0  0  0  0  0
    0.0940   68.0690   64.5940 O   0  0  0  0  0  0  0  0  0  0  0  0
    0.5790   68.7290   66.9410 C   0  0  0  0  0  0  0  0  0  0  0  0
   -0.4780   68.5790   67.5110 O   0  0  0  0  0  0  0  0  0  0  0  0
    1.7790   69.1650   67.4690 N   0  0  0  0  0  0  0  0  0  0  0  0
    5.9616   69.8445   65.6017 H   0  0  0  0  0  0  0  0  0  0  0  0
    4.4704   69.9110   67.6282 H   0  0  0  0  0  0  0  0  0  0  0  0
    2.6627   68.4186   63.1490 H   0  0  0  0  0  0  0  0  0  0  0  0
    1.9218   69.4265   68.4550 H   0  0  0  0  0  0  0  0  0  0  0  0
  2  1  1  0
  3  2  2  0
  4  3  1  0
  5  4  2  0
  6  5  1  0
  7  6  2  0
  7  2  1  0
  8  6  1  0
  9  8  2  0
 10  8  1  0
 11 10  2  0
 12  5  1  0
 12 10  1  0
  3 13  1  0
  4 14  1  0
  7 15  1  0
 12 16  1  0
M  END
>  <score>  (8) 
-7.104

$$$$
=
     RDKit          3D

 16 17  0  0  0  0  0  0  0  0999 V2000
    0.7630   68.5160   67.8720 Br  0  0  0  0  0  0  0  0  0  0  0  0
    2.2820   68.9030   66.8160 C   0  0  0  0  0  0  0  0  0  0  0  0
    3.4050   69.5090   67.4180 C   0  0  0  0  0  0  0  0  0  0  0  0
    4.5500   69.8110   66.6670 C   0  0  0  0  0  0  0  0  0  0  0  0
    4.5280   69.4920   65.3270 C   0  0  0  0  0  0  0  0  0  0  0  0
    3.4120   68.8930   64.7440 C   0  0  0  0  0  0  0  0  0  0  0  0
    2.2720   68.5840   65.4580 C   0  0  0  0  0  0  0  0  0  0  0  0
    3.7230   68.6940   63.3270 C   0  0  0  0  0  0  0  0  0  0  0  0
    3.0060   68.2020   62.4870 O   0  0  0  0  0  0  0  0  0  0  0  0
    5.1630   69.2500   63.1450 C   0  0  0  0  0  0  0  0  0  0  0  0
    5.8000   69.2780   62.1160 O   0  0  0  0  0  0  0  0  0  0  0  0
    5.5410   69.6980   64.3960 N   0  0  0  0  0  0  0  0  0  0  0  0
    3.3820   69.7479   68.4915 H   0  0  0  0  0  0  0  0  0  0  0  0
    5.4296   70.2832   67.1288 H   0  0  0  0  0  0  0  0  0  0  0  0
    1.4010   68.1109   64.9811 H   0  0  0  0  0  0  0  0  0  0  0  0
    6.4521   70.1276   64.6109 H   0  0  0  0  0  0  0  0  0  0  0  0
  2  1  1  0
  3  2  2  0
  4  3  1  0
  5  4  2  0
  6  5  1  0
  7  6  2  0
  7  2  1  0
  8  6  1  0
  9  8  2  0
 10  8  1  0
 11 10  2  0
 12  5  1  0
 12 10  1  0
  3 13  1  0
  4 14  1  0
  7 15  1  0
 12 16  1  0
M  END
>  <score>  (9) 
-7.039

$$$$
