=
     RDKit          3D

 20 20  0  0  0  0  0  0  0  0999 V2000
    4.1000   69.4420   65.8750 C   0  0  0  0  0  0  0  0  0  0  0  0
    5.2830   69.8560   66.5040 C   0  0  0  0  0  0  0  0  0  0  0  0
    5.2720   70.2750   67.8380 C   0  0  0  0  0  0  0  0  0  0  0  0
    4.0740   70.2730   68.5490 C   0  0  0  0  0  0  0  0  0  0  0  0
    2.8950   69.8540   67.9340 C   0  0  0  0  0  0  0  0  0  0  0  0
    2.9030   69.4310   66.6050 C   0  0  0  0  0  0  0  0  0  0  0  0
    3.6870   67.8170   63.9920 C   0  0  0  0  0  0  0  0  0  0  0  0
    4.1680   68.9790   64.4810 C   0  0  0  0  0  0  0  0  0  0  0  0
    3.9430   67.3400   61.4650 N   0  0  0  0  0  0  0  0  0  0  0  0
    3.8320   67.5420   62.6030 C   0  0  0  0  0  0  0  0  0  0  0  0
    3.0250   66.8530   64.8030 C   0  0  0  0  0  0  0  0  0  0  0  0
    2.4790   66.0570   65.4470 N   0  0  0  0  0  0  0  0  0  0  0  0
    1.7320   69.8570   68.6510 O   0  0  0  0  0  0  0  0  0  0  0  0
    4.0440   70.6800   69.8520 O   0  0  0  0  0  0  0  0  0  0  0  0
    6.2289   69.8511   65.9425 H   0  0  0  0  0  0  0  0  0  0  0  0
    6.2030   70.6040   68.3227 H   0  0  0  0  0  0  0  0  0  0  0  0
    1.9715   69.0892   66.1302 H   0  0  0  0  0  0  0  0  0  0  0  0
    4.6622   69.6494   63.7624 H   0  0  0  0  0  0  0  0  0  0  0  0
    0.8879   69.5619   68.2262 H   0  0  0  0  0  0  0  0  0  0  0  0
    3.1896   70.6764   70.3522 H   0  0  0  0  0  0  0  0  0  0  0  0
  2  1  2  0
  3  2  1  0
  4  3  2  0
  5  4  1  0
  6  5  2  0
  6  1  1  0
  8  7  2  3
  8  1  1  0
 10  9  3  0
 10  7  1  0
 11  7  1  0
 12 11  3  0
 13  5  1  0
 14  4  1  0
  2 15  1  0
  3 16  1  0
  6 17  1  0
  8 18  1  0
 13 19  1  0
 14 20  1  0
M  END
>  <score>  (1) 
-7.43

$$$$
=
     RDKit          3D

 20 20  0  0  0  0  0  0  0  0999 V2000
    3.0870   69.4240   66.7440 C   0  0  0  0  0  0  0  0  0  0  0  0
    3.6800   69.9020   67.9210 C   0  0  0  0  0  0  0  0  0  0  0  0
    5.0170   70.3120   67.9290 C   0  0  0  0  0  0  0  0  0  0  0  0
    5.7610   70.2520   66.7530 C   0  0  0  0  0  0  0  0  0  0  0  0
    5.1770   69.7860   65.5760 C   0  0  0  0  0  0  0  0  0  0  0  0
    3.8420   69.3800   65.5630 C   0  0  0  0  0  0  0  0  0  0  0  0
    1.1430   67.8630   66.3640 C   0  0  0  0  0  0  0  0  0  0  0  0
    1.6690   69.0350   66.7770 C   0  0  0  0  0  0  0  0  0  0  0  0
   -1.4000   67.4640   66.5870 N   0  0  0  0  0  0  0  0  0  0  0  0
   -0.2600   67.6560   66.4870 C   0  0  0  0  0  0  0  0  0  0  0  0
    1.9330   66.8110   65.8210 C   0  0  0  0  0  0  0  0  0  0  0  0
    2.5790   65.9640   65.3610 N   0  0  0  0  0  0  0  0  0  0  0  0
    5.9240   69.7380   64.4330 O   0  0  0  0  0  0  0  0  0  0  0  0
    7.0690   70.6470   66.7420 O   0  0  0  0  0  0  0  0  0  0  0  0
    3.0882   69.9550   68.8467 H   0  0  0  0  0  0  0  0  0  0  0  0
    5.4780   70.6794   68.8577 H   0  0  0  0  0  0  0  0  0  0  0  0
    3.3827   69.0261   64.6282 H   0  0  0  0  0  0  0  0  0  0  0  0
    0.9638   69.7767   67.1803 H   0  0  0  0  0  0  0  0  0  0  0  0
    5.5201   69.4089   63.5912 H   0  0  0  0  0  0  0  0  0  0  0  0
    7.5926   70.6020   65.9030 H   0  0  0  0  0  0  0  0  0  0  0  0
  2  1  2  0
  3  2  1  0
  4  3  2  0
  5  4  1  0
  6  5  2  0
  6  1  1  0
  8  7  2  3
  8  1  1  0
 10  9  3  0
 10  7  1  0
 11  7  1  0
 12 11  3  0
 13  5  1  0
 14  4  1  0
  2 15  1  0
  3 16  1  0
  6 17  1  0
  8 18  1  0
 13 19  1  0
 14 20  1  0
M  END
>  <score>  (2) 
-7.191

$$$$
=
     RDKit          3D

 20 20  0  0  0  0  0  0  0  0999 V2000
    4.8180   69.6660   66.0860 C   0  0  0  0  0  0  0  0  0  0  0  0
    5.0790   69.5150   64.7170 C   0  0  0  0  0  0  0  0  0  0  0  0
    4.0790   69.0750   63.8450 C   0  0  0  0  0  0  0  0  0  0  0  0
    2.8090   68.7940   64.3430 C   0  0  0  0  0  0  0  0  0  0  0  0
    2.5380   68.9500   65.7010 C   0  0  0  0  0  0  0  0  0  0  0  0
    3.5320   69.3920   66.5740 C   0  0  0  0  0  0  0  0  0  0  0  0
    5.7630   70.6150   68.2230 C   0  0  0  0  0  0  0  0  0  0  0  0
    5.8930   70.1620   66.9590 C   0  0  0  0  0  0  0  0  0  0  0  0
    7.8620   71.4160   69.4990 N   0  0  0  0  0  0  0  0  0  0  0  0
    6.9250   71.0450   68.9240 C   0  0  0  0  0  0  0  0  0  0  0  0
    4.5110   70.6700   68.8980 C   0  0  0  0  0  0  0  0  0  0  0  0
    3.4990   70.7030   69.4640 N   0  0  0  0  0  0  0  0  0  0  0  0
    1.2840   68.6710   66.1680 O   0  0  0  0  0  0  0  0  0  0  0  0
    1.8190   68.3620   63.5060 O   0  0  0  0  0  0  0  0  0  0  0  0
    6.0807   69.7451   64.3250 H   0  0  0  0  0  0  0  0  0  0  0  0
    4.2936   68.9516   62.7732 H   0  0  0  0  0  0  0  0  0  0  0  0
    3.3078   69.5253   67.6426 H   0  0  0  0  0  0  0  0  0  0  0  0
    6.9089   70.1637   66.5371 H   0  0  0  0  0  0  0  0  0  0  0  0
    1.0791   68.7779   67.1307 H   0  0  0  0  0  0  0  0  0  0  0  0
    0.9182   68.1638   63.8656 H   0  0  0  0  0  0  0  0  0  0  0  0
  2  1  2  0
  3  2  1  0
  4  3  2  0
  5  4  1  0
  6  5  2  0
  6  1  1  0
  8  7  2  3
  8  1  1  0
 10  9  3  0
 10  7  1  0
 11  7  1  0
 12 11  3  0
 13  5  1  0
 14  4  1  0
  2 15  1  0
  3 16  1  0
  6 17  1  0
  8 18  1  0
 13 19  1  0
 14 20  1  0
M  END
>  <score>  (3) 
-7.145

$$$$
=
     RDKit          3D

 20 20  0  0  0  0  0  0  0  0999 V2000
    3.6490   68.7060   65.1440 C   0  0  0  0  0  0  0  0  0  0  0  0
    3.2320   67.3860   64.9230 C   0  0  0  0  0  0  0  0  0  0  0  0
    3.4970   66.7490   63.7070 C   0  0  0  0  0  0  0  0  0  0  0  0
    4.1890   67.4320   62.7100 C   0  0  0  0  0  0  0  0  0  0  0  0
    4.6160   68.7420   62.9240 C   0  0  0  0  0  0  0  0  0  0  0  0
    4.3580   69.3790   64.1380 C   0  0  0  0  0  0  0  0  0  0  0  0
    4.2820   69.8600   67.2950 C   0  0  0  0  0  0  0  0  0  0  0  0
    3.3770   69.3230   66.4510 C   0  0  0  0  0  0  0  0  0  0  0  0
    3.4810   70.8840   69.5280 N   0  0  0  0  0  0  0  0  0  0  0  0
    3.8300   70.4280   68.5190 C   0  0  0  0  0  0  0  0  0  0  0  0
    5.6760   69.8970   67.0100 C   0  0  0  0  0  0  0  0  0  0  0  0
    6.8150   69.9130   66.7930 N   0  0  0  0  0  0  0  0  0  0  0  0
    5.2960   69.3930   61.9340 O   0  0  0  0  0  0  0  0  0  0  0  0
    4.4550   66.8270   61.5150 O   0  0  0  0  0  0  0  0  0  0  0  0
    2.6910   66.8461   65.7141 H   0  0  0  0  0  0  0  0  0  0  0  0
    3.1611   65.7151   63.5389 H   0  0  0  0  0  0  0  0  0  0  0  0
    4.7100   70.4075   64.3061 H   0  0  0  0  0  0  0  0  0  0  0  0
    2.3258   69.3493   66.7741 H   0  0  0  0  0  0  0  0  0  0  0  0
    5.6042   70.3233   62.0744 H   0  0  0  0  0  0  0  0  0  0  0  0
    4.9474   67.3180   60.8103 H   0  0  0  0  0  0  0  0  0  0  0  0
  2  1  2  0
  3  2  1  0
  4  3  2  0
  5  4  1  0
  6  5  2  0
  6  1  1  0
  8  7  2  3
  8  1  1  0
 10  9  3  0
 10  7  1  0
 11  7  1  0
 12 11  3  0
 13  5  1  0
 14  4  1  0
  2 15  1  0
  3 16  1  0
  6 17  1  0
  8 18  1  0
 13 19  1  0
 14 20  1  0
M  END
>  <score>  (4) 
-7.016

$$$$
=
     RDKit          3D

 20 20  0  0  0  0  0  0  0  0999 V2000
    0.8280   68.6500   67.6750 C   0  0  0  0  0  0  0  0  0  0  0  0
    0.5180   67.4160   68.2630 C   0  0  0  0  0  0  0  0  0  0  0  0
   -0.7580   66.8600   68.1220 C   0  0  0  0  0  0  0  0  0  0  0  0
   -1.7250   67.5370   67.3840 C   0  0  0  0  0  0  0  0  0  0  0  0
   -1.4220   68.7610   66.7890 C   0  0  0  0  0  0  0  0  0  0  0  0
   -0.1500   69.3170   66.9230 C   0  0  0  0  0  0  0  0  0  0  0  0
    3.1130   69.3210   66.8480 C   0  0  0  0  0  0  0  0  0  0  0  0
    2.1920   69.1790   67.8230 C   0  0  0  0  0  0  0  0  0  0  0  0
    5.4290   70.3140   67.4210 N   0  0  0  0  0  0  0  0  0  0  0  0
    4.3860   69.8680   67.1760 C   0  0  0  0  0  0  0  0  0  0  0  0
    2.8660   68.9600   65.4930 C   0  0  0  0  0  0  0  0  0  0  0  0
    2.6440   68.6730   64.3920 N   0  0  0  0  0  0  0  0  0  0  0  0
   -2.3860   69.4080   66.0660 O   0  0  0  0  0  0  0  0  0  0  0  0
   -2.9760   67.0110   67.2370 O   0  0  0  0  0  0  0  0  0  0  0  0
    1.2852   66.8797   68.8407 H   0  0  0  0  0  0  0  0  0  0  0  0
   -0.9957   65.8940   68.5913 H   0  0  0  0  0  0  0  0  0  0  0  0
    0.0857   70.2767   66.4399 H   0  0  0  0  0  0  0  0  0  0  0  0
    2.4924   69.4914   68.8340 H   0  0  0  0  0  0  0  0  0  0  0  0
   -2.1839   70.2777   65.6384 H   0  0  0  0  0  0  0  0  0  0  0  0
   -3.6589   67.4977   66.7109 H   0  0  0  0  0  0  0  0  0  0  0  0
  2  1  2  0
  3  2  1  0
  4  3  2  0
  5  4  1  0
  6  5  2  0
  6  1  1  0
  8  7  2  3
  8  1  1  0
 10  9  3  0
 10  7  1  0
 11  7  1  0
 12 11  3  0
 13  5  1  0
 14  4  1  0
  2 15  1  0
  3 16  1  0
  6 17  1  0
  8 18  1  0
 13 19  1  0
 14 20  1  0
M  END
>  <score>  (5) 
-6.938

$$$$
=
     RDKit          3D

 20 20  0  0  0  0  0  0  0  0999 V2000
    3.8010   68.9110   64.8360 C   0  0  0  0  0  0  0  0  0  0  0  0
    4.9720   68.2420   64.4500 C   0  0  0  0  0  0  0  0  0  0  0  0
    5.0870   67.6890   63.1710 C   0  0  0  0  0  0  0  0  0  0  0  0
    4.0320   67.8120   62.2710 C   0  0  0  0  0  0  0  0  0  0  0  0
    2.8680   68.4830   62.6430 C   0  0  0  0  0  0  0  0  0  0  0  0
    2.7500   69.0400   63.9170 C   0  0  0  0  0  0  0  0  0  0  0  0
    2.9100   69.1480   67.1830 C   0  0  0  0  0  0  0  0  0  0  0  0
    3.7390   69.5040   66.1800 C   0  0  0  0  0  0  0  0  0  0  0  0
    3.0660   70.4030   69.4360 N   0  0  0  0  0  0  0  0  0  0  0  0
    3.0030   69.8290   68.4290 C   0  0  0  0  0  0  0  0  0  0  0  0
    1.9490   68.1050   67.0560 C   0  0  0  0  0  0  0  0  0  0  0  0
    1.1680   67.2570   66.9320 N   0  0  0  0  0  0  0  0  0  0  0  0
    1.8450   68.5950   61.7440 O   0  0  0  0  0  0  0  0  0  0  0  0
    4.1270   67.2770   61.0180 O   0  0  0  0  0  0  0  0  0  0  0  0
    5.8073   68.1517   65.1600 H   0  0  0  0  0  0  0  0  0  0  0  0
    6.0057   67.1599   62.8776 H   0  0  0  0  0  0  0  0  0  0  0  0
    1.8340   69.5794   64.1998 H   0  0  0  0  0  0  0  0  0  0  0  0
    4.4421   70.3236   66.3896 H   0  0  0  0  0  0  0  0  0  0  0  0
    1.0136   69.0693   61.9968 H   0  0  0  0  0  0  0  0  0  0  0  0
    3.3733   67.3678   60.3825 H   0  0  0  0  0  0  0  0  0  0  0  0
  2  1  2  0
  3  2  1  0
  4  3  2  0
  5  4  1  0
  6  5  2  0
  6  1  1  0
  8  7  2  3
  8  1  1  0
 10  9  3  0
 10  7  1  0
 11  7  1  0
 12 11  3  0
 13  5  1  0
 14  4  1  0
  2 15  1  0
  3 16  1  0
  6 17  1  0
  8 18  1  0
 13 19  1  0
 14 20  1  0
M  END
>  <score>  (6) 
-6.787

$$$$
=
     RDKit          3D

 20 20  0  0  0  0  0  0  0  0999 V2000
    0.6330   68.2890   65.6800 C   0  0  0  0  0  0  0  0  0  0  0  0
   -0.5130   68.9690   65.2450 C   0  0  0  0  0  0  0  0  0  0  0  0
   -1.7400   68.7830   65.8900 C   0  0  0  0  0  0  0  0  0  0  0  0
   -1.8180   67.9190   66.9800 C   0  0  0  0  0  0  0  0  0  0  0  0
   -0.6820   67.2460   67.4240 C   0  0  0  0  0  0  0  0  0  0  0  0
    0.5450   67.4320   66.7860 C   0  0  0  0  0  0  0  0  0  0  0  0
    3.0270   69.0680   65.5290 C   0  0  0  0  0  0  0  0  0  0  0  0
    1.9070   68.5420   64.9900 C   0  0  0  0  0  0  0  0  0  0  0  0
    5.1240   69.3760   64.0500 N   0  0  0  0  0  0  0  0  0  0  0  0
    4.1780   69.2280   64.7070 C   0  0  0  0  0  0  0  0  0  0  0  0
    3.1160   69.4590   66.8940 C   0  0  0  0  0  0  0  0  0  0  0  0
    3.1790   69.7960   68.0030 N   0  0  0  0  0  0  0  0  0  0  0  0
   -0.7810   66.4050   68.4980 O   0  0  0  0  0  0  0  0  0  0  0  0
   -3.0080   67.7240   67.6220 O   0  0  0  0  0  0  0  0  0  0  0  0
   -0.4466   69.6555   64.3881 H   0  0  0  0  0  0  0  0  0  0  0  0
   -2.6367   69.3149   65.5392 H   0  0  0  0  0  0  0  0  0  0  0  0
    1.4408   66.9076   67.1499 H   0  0  0  0  0  0  0  0  0  0  0  0
    1.9516   68.2748   63.9239 H   0  0  0  0  0  0  0  0  0  0  0  0
    0.0191   65.9210   68.8231 H   0  0  0  0  0  0  0  0  0  0  0  0
   -3.0578   67.1089   68.3961 H   0  0  0  0  0  0  0  0  0  0  0  0
  2  1  2  0
  3  2  1  0
  4  3  2  0
  5  4  1  0
  6  5  2  0
  6  1  1  0
  8  7  2  3
  8  1  1  0
 10  9  3  0
 10  7  1  0
 11  7  1  0
 12 11  3  0
 13  5  1  0
 14  4  1  0
  2 15  1  0
  3 16  1  0
  6 17  1  0
  8 18  1  0
 13 19  1  0
 14 20  1  0
M  END
>  <score>  (7) 
-6.754

$$$$
=
     RDKit          3D

 20 20  0  0  0  0  0  0  0  0999 V2000
    0.5080   68.4160   66.1940 C   0  0  0  0  0  0  0  0  0  0  0  0
    0.3620   67.4300   67.1800 C   0  0  0  0  0  0  0  0  0  0  0  0
   -0.9050   67.0940   67.6690 C   0  0  0  0  0  0  0  0  0  0  0  0
   -2.0300   67.7410   67.1630 C   0  0  0  0  0  0  0  0  0  0  0  0
   -1.8940   68.7160   66.1760 C   0  0  0  0  0  0  0  0  0  0  0  0
   -0.6330   69.0510   65.6830 C   0  0  0  0  0  0  0  0  0  0  0  0
    2.2360   68.7920   64.3960 C   0  0  0  0  0  0  0  0  0  0  0  0
    1.8580   68.7120   65.6890 C   0  0  0  0  0  0  0  0  0  0  0  0
    4.6910   69.3610   63.8230 N   0  0  0  0  0  0  0  0  0  0  0  0
    3.5910   69.1050   64.0930 C   0  0  0  0  0  0  0  0  0  0  0  0
    1.3340   68.5920   63.3140 C   0  0  0  0  0  0  0  0  0  0  0  0
    0.5840   68.4210   62.4450 N   0  0  0  0  0  0  0  0  0  0  0  0
   -3.0110   69.3360   65.6920 O   0  0  0  0  0  0  0  0  0  0  0  0
   -3.2750   67.4270   67.6290 O   0  0  0  0  0  0  0  0  0  0  0  0
    1.2517   66.9159   67.5727 H   0  0  0  0  0  0  0  0  0  0  0  0
   -1.0120   66.3243   68.4476 H   0  0  0  0  0  0  0  0  0  0  0  0
   -0.5338   69.8119   64.8948 H   0  0  0  0  0  0  0  0  0  0  0  0
    2.6397   68.8860   66.4431 H   0  0  0  0  0  0  0  0  0  0  0  0
   -2.9274   70.0300   64.9910 H   0  0  0  0  0  0  0  0  0  0  0  0
   -4.0709   67.8902   67.2656 H   0  0  0  0  0  0  0  0  0  0  0  0
  2  1  2  0
  3  2  1  0
  4  3  2  0
  5  4  1  0
  6  5  2  0
  6  1  1  0
  8  7  2  3
  8  1  1  0
 10  9  3  0
 10  7  1  0
 11  7  1  0
 12 11  3  0
 13  5  1  0
 14  4  1  0
  2 15  1  0
  3 16  1  0
  6 17  1  0
  8 18  1  0
 13 19  1  0
 14 20  1  0
M  END
>  <score>  (8) 
-6.611

$$$$
=
     RDKit          3D

 20 20  0  0  0  0  0  0  0  0999 V2000
    3.7690   69.0890   65.8750 C   0  0  0  0  0  0  0  0  0  0  0  0
    2.5270   68.8760   66.4890 C   0  0  0  0  0  0  0  0  0  0  0  0
    2.2720   69.3710   67.7720 C   0  0  0  0  0  0  0  0  0  0  0  0
    3.2610   70.0880   68.4400 C   0  0  0  0  0  0  0  0  0  0  0  0
    4.4960   70.3120   67.8330 C   0  0  0  0  0  0  0  0  0  0  0  0
    4.7520   69.8240   66.5520 C   0  0  0  0  0  0  0  0  0  0  0  0
    3.0460   68.4490   63.5450 C   0  0  0  0  0  0  0  0  0  0  0  0
    3.9780   68.5780   64.5120 C   0  0  0  0  0  0  0  0  0  0  0  0
    3.7750   67.5490   61.2350 N   0  0  0  0  0  0  0  0  0  0  0  0
    3.4370   67.9450   62.2730 C   0  0  0  0  0  0  0  0  0  0  0  0
    1.6820   68.8090   63.7360 C   0  0  0  0  0  0  0  0  0  0  0  0
    0.5750   69.1220   63.8840 N   0  0  0  0  0  0  0  0  0  0  0  0
    5.4510   71.0220   68.5060 O   0  0  0  0  0  0  0  0  0  0  0  0
    3.0310   70.5780   69.6940 O   0  0  0  0  0  0  0  0  0  0  0  0
    1.7454   68.3141   65.9566 H   0  0  0  0  0  0  0  0  0  0  0  0
    1.2970   69.1951   68.2499 H   0  0  0  0  0  0  0  0  0  0  0  0
    5.7238   70.0155   66.0736 H   0  0  0  0  0  0  0  0  0  0  0  0
    5.0015   68.2685   64.2538 H   0  0  0  0  0  0  0  0  0  0  0  0
    6.3321   71.1880   68.0862 H   0  0  0  0  0  0  0  0  0  0  0  0
    3.7382   71.0871   70.1639 H   0  0  0  0  0  0  0  0  0  0  0  0
  2  1  2  0
  3  2  1  0
  4  3  2  0
  5  4  1  0
  6  5  2  0
  6  1  1  0
  8  7  2  3
  8  1  1  0
 10  9  3  0
 10  7  1  0
 11  7  1  0
 12 11  3  0
 13  5  1  0
 14  4  1  0
  2 15  1  0
  3 16  1  0
  6 17  1  0
  8 18  1  0
 13 19  1  0
 14 20  1  0
M  END
>  <score>  (9) 
-6.57

$$$$
