=
     RDKit          3D

 42 43  0  0  0  0  0  0  0  0999 V2000
    3.6810   68.9380   62.7670 C   0  0  0  0  0  0  0  0  0  0  0  0
    3.0050   69.0600   64.1460 C   0  0  0  0  0  0  0  0  0  0  0  0
    3.8030   68.4070   65.2670 C   0  0  0  0  0  0  0  0  0  0  0  0
    5.2650   68.7350   65.1470 N   0  0  0  0  0  4  0  0  0  0  0  0
    5.8880   68.3080   63.8320 C   0  0  0  0  0  0  0  0  0  0  0  0
    4.8310   67.9260   62.8020 C   0  0  0  0  0  0  0  0  0  0  0  0
    2.6710   68.6650   61.6380 C   0  0  0  0  0  0  0  0  0  0  0  0
    0.3280   69.4700   61.5980 C   0  0  0  0  0  0  0  0  0  0  0  0
    0.4450   70.2130   60.6370 O   0  0  0  0  0  0  0  0  0  0  0  0
    1.2960   68.6150   62.0800 N   0  0  0  0  0  0  0  0  0  0  0  0
   -1.0980   68.6440   63.3830 N   0  0  0  0  0  0  0  0  0  0  0  0
   -0.9740   69.4310   62.3610 C   0  0  0  0  0  0  0  0  0  0  0  0
   -2.3900   68.7950   63.9010 O   0  0  0  0  0  0  0  0  0  0  0  0
    5.5930   70.1620   65.5420 C   0  0  0  0  0  0  0  0  0  0  0  0
    5.6320   70.3540   67.0350 C   0  0  0  0  0  0  0  0  0  0  0  0
    6.8440   70.6080   67.6940 C   0  0  0  0  0  0  0  0  0  0  0  0
    6.8780   70.7590   69.0800 C   0  0  0  0  0  0  0  0  0  0  0  0
    5.7030   70.6600   69.8220 C   0  0  0  0  0  0  0  0  0  0  0  0
    4.4920   70.4160   69.1800 C   0  0  0  0  0  0  0  0  0  0  0  0
    4.4530   70.2640   67.7930 C   0  0  0  0  0  0  0  0  0  0  0  0
    4.1250   69.9159   62.5292 H   0  0  0  0  0  0  0  0  0  0  0  0
    2.8813   70.1274   64.3812 H   0  0  0  0  0  0  0  0  0  0  0  0
    2.0402   68.5353   64.0839 H   0  0  0  0  0  0  0  0  0  0  0  0
    3.4301   68.7732   66.2349 H   0  0  0  0  0  0  0  0  0  0  0  0
    3.6808   67.3161   65.1956 H   0  0  0  0  0  0  0  0  0  0  0  0
    5.7277   68.1442   65.8525 H   0  0  0  0  0  0  0  0  0  0  0  0
    6.4873   69.1406   63.4351 H   0  0  0  0  0  0  0  0  0  0  0  0
    6.5152   67.4245   64.0219 H   0  0  0  0  0  0  0  0  0  0  0  0
    4.4264   66.9355   63.0572 H   0  0  0  0  0  0  0  0  0  0  0  0
    5.3073   67.9142   61.8105 H   0  0  0  0  0  0  0  0  0  0  0  0
    2.7648   69.4649   60.8888 H   0  0  0  0  0  0  0  0  0  0  0  0
    2.9106   67.6723   61.2292 H   0  0  0  0  0  0  0  0  0  0  0  0
    1.0284   67.9120   62.7837 H   0  0  0  0  0  0  0  0  0  0  0  0
   -1.8148   70.0686   62.0504 H   0  0  0  0  0  0  0  0  0  0  0  0
   -2.6710   68.2692   64.6914 H   0  0  0  0  0  0  0  0  0  0  0  0
    6.5770   70.4253   65.1269 H   0  0  0  0  0  0  0  0  0  0  0  0
    4.7985   70.8097   65.1430 H   0  0  0  0  0  0  0  0  0  0  0  0
    7.7747   70.6887   67.1132 H   0  0  0  0  0  0  0  0  0  0  0  0
    7.8335   70.9565   69.5879 H   0  0  0  0  0  0  0  0  0  0  0  0
    5.7321   70.7747   70.9156 H   0  0  0  0  0  0  0  0  0  0  0  0
    3.5644   70.3429   69.7667 H   0  0  0  0  0  0  0  0  0  0  0  0
    3.4933   70.0726   67.2907 H   0  0  0  0  0  0  0  0  0  0  0  0
  2  1  1  0
  3  2  1  0
  4  3  1  0
  5  4  1  0
  6  1  1  0
  6  5  1  0
  7  1  1  0
  9  8  2  0
 10  8  1  0
 10  7  1  0
 12 11  2  0
 12  8  1  0
 13 11  1  0
 14  4  1  0
 15 14  1  0
 16 15  2  0
 17 16  1  0
 18 17  2  0
 19 18  1  0
 20 19  2  0
 20 15  1  0
  1 21  1  0
  2 22  1  0
  2 23  1  0
  3 24  1  0
  3 25  1  0
  4 26  1  0
  5 27  1  0
  5 28  1  0
  6 29  1  0
  6 30  1  0
  7 31  1  0
  7 32  1  0
 10 33  1  0
 12 34  1  0
 13 35  1  0
 14 36  1  0
 14 37  1  0
 16 38  1  0
 17 39  1  0
 18 40  1  0
 19 41  1  0
 20 42  1  0
M  CHG  1   4   1
M  END
>  <score>  (1) 
-9.033

$$$$
=
     RDKit          3D

 42 43  0  0  0  0  0  0  0  0999 V2000
    3.0940   67.0360   65.0340 C   0  0  0  0  0  0  0  0  0  0  0  0
    3.9220   67.5640   63.8480 C   0  0  0  0  0  0  0  0  0  0  0  0
    3.9160   69.0840   63.7390 C   0  0  0  0  0  0  0  0  0  0  0  0
    4.0980   69.7200   65.0880 N   0  0  0  0  0  4  0  0  0  0  0  0
    3.0410   69.3290   66.1030 C   0  0  0  0  0  0  0  0  0  0  0  0
    2.2130   68.1400   65.6300 C   0  0  0  0  0  0  0  0  0  0  0  0
    2.3070   65.7610   64.6820 C   0  0  0  0  0  0  0  0  0  0  0  0
    3.8220   63.8160   64.9230 C   0  0  0  0  0  0  0  0  0  0  0  0
    3.6990   63.6830   66.1290 O   0  0  0  0  0  0  0  0  0  0  0  0
    3.1210   64.7020   64.1320 N   0  0  0  0  0  0  0  0  0  0  0  0
    5.5710   63.4840   63.2690 N   0  0  0  0  0  0  0  0  0  0  0  0
    4.8060   62.9530   64.1690 C   0  0  0  0  0  0  0  0  0  0  0  0
    6.3770   62.4760   62.7250 O   0  0  0  0  0  0  0  0  0  0  0  0
    5.5160   69.6150   65.6130 C   0  0  0  0  0  0  0  0  0  0  0  0
    5.6390   70.0710   67.0440 C   0  0  0  0  0  0  0  0  0  0  0  0
    6.8870   70.4280   67.5770 C   0  0  0  0  0  0  0  0  0  0  0  0
    6.9980   70.8230   68.9100 C   0  0  0  0  0  0  0  0  0  0  0  0
    5.8680   70.8680   69.7230 C   0  0  0  0  0  0  0  0  0  0  0  0
    4.6230   70.5230   69.2040 C   0  0  0  0  0  0  0  0  0  0  0  0
    4.5060   70.1260   67.8700 C   0  0  0  0  0  0  0  0  0  0  0  0
    3.8009   66.7335   65.8207 H   0  0  0  0  0  0  0  0  0  0  0  0
    4.9618   67.2267   63.9703 H   0  0  0  0  0  0  0  0  0  0  0  0
    3.4640   67.1693   62.9291 H   0  0  0  0  0  0  0  0  0  0  0  0
    4.7363   69.4007   63.0781 H   0  0  0  0  0  0  0  0  0  0  0  0
    2.9464   69.4027   63.3286 H   0  0  0  0  0  0  0  0  0  0  0  0
    3.9405   70.7256   64.9302 H   0  0  0  0  0  0  0  0  0  0  0  0
    3.5365   69.0639   67.0486 H   0  0  0  0  0  0  0  0  0  0  0  0
    2.3635   70.1851   66.2375 H   0  0  0  0  0  0  0  0  0  0  0  0
    1.5032   68.4827   64.8627 H   0  0  0  0  0  0  0  0  0  0  0  0
    1.6833   67.7237   66.4996 H   0  0  0  0  0  0  0  0  0  0  0  0
    1.8258   65.3874   65.5979 H   0  0  0  0  0  0  0  0  0  0  0  0
    1.5796   66.0398   63.9053 H   0  0  0  0  0  0  0  0  0  0  0  0
    3.1803   64.6047   63.1083 H   0  0  0  0  0  0  0  0  0  0  0  0
    4.8726   61.8762   64.3838 H   0  0  0  0  0  0  0  0  0  0  0  0
    7.0318   62.6947   62.0154 H   0  0  0  0  0  0  0  0  0  0  0  0
    5.8387   68.5654   65.5487 H   0  0  0  0  0  0  0  0  0  0  0  0
    6.1486   70.2722   64.9982 H   0  0  0  0  0  0  0  0  0  0  0  0
    7.7830   70.3961   66.9397 H   0  0  0  0  0  0  0  0  0  0  0  0
    7.9804   71.0997   69.3203 H   0  0  0  0  0  0  0  0  0  0  0  0
    5.9592   71.1761   70.7750 H   0  0  0  0  0  0  0  0  0  0  0  0
    3.7303   70.5631   69.8454 H   0  0  0  0  0  0  0  0  0  0  0  0
    3.5200   69.8549   67.4646 H   0  0  0  0  0  0  0  0  0  0  0  0
  2  1  1  0
  3  2  1  0
  4  3  1  0
  5  4  1  0
  6  1  1  0
  6  5  1  0
  7  1  1  0
  9  8  2  0
 10  8  1  0
 10  7  1  0
 12 11  2  0
 12  8  1  0
 13 11  1  0
 14  4  1  0
 15 14  1  0
 16 15  2  0
 17 16  1  0
 18 17  2  0
 19 18  1  0
 20 19  2  0
 20 15  1  0
  1 21  1  0
  2 22  1  0
  2 23  1  0
  3 24  1  0
  3 25  1  0
  4 26  1  0
  5 27  1  0
  5 28  1  0
  6 29  1  0
  6 30  1  0
  7 31  1  0
  7 32  1  0
 10 33  1  0
 12 34  1  0
 13 35  1  0
 14 36  1  0
 14 37  1  0
 16 38  1  0
 17 39  1  0
 18 40  1  0
 19 41  1  0
 20 42  1  0
M  CHG  1   4   1
M  END
>  <score>  (2) 
-7.935

$$$$
=
     RDKit          3D

 42 43  0  0  0  0  0  0  0  0999 V2000
    3.6000   69.4120   65.2520 C   0  0  0  0  0  0  0  0  0  0  0  0
    2.5470   68.2910   65.3420 C   0  0  0  0  0  0  0  0  0  0  0  0
    2.3120   67.7990   66.7650 C   0  0  0  0  0  0  0  0  0  0  0  0
    2.2240   68.9530   67.7240 N   0  0  0  0  0  4  0  0  0  0  0  0
    3.4560   69.8370   67.7420 C   0  0  0  0  0  0  0  0  0  0  0  0
    4.3800   69.5470   66.5650 C   0  0  0  0  0  0  0  0  0  0  0  0
    4.5120   69.2660   64.0210 C   0  0  0  0  0  0  0  0  0  0  0  0
    4.1760   67.1710   62.7410 C   0  0  0  0  0  0  0  0  0  0  0  0
    3.3780   67.6190   61.9340 O   0  0  0  0  0  0  0  0  0  0  0  0
    4.8500   67.8980   63.6990 N   0  0  0  0  0  0  0  0  0  0  0  0
    3.9160   64.9000   63.5670 N   0  0  0  0  0  0  0  0  0  0  0  0
    4.5050   65.6970   62.7320 C   0  0  0  0  0  0  0  0  0  0  0  0
    4.3990   63.6030   63.3530 O   0  0  0  0  0  0  0  0  0  0  0  0
    0.9220   69.7230   67.6160 C   0  0  0  0  0  0  0  0  0  0  0  0
   -0.2690   68.8210   67.4270 C   0  0  0  0  0  0  0  0  0  0  0  0
   -1.2800   69.1510   66.5120 C   0  0  0  0  0  0  0  0  0  0  0  0
   -2.3940   68.3260   66.3600 C   0  0  0  0  0  0  0  0  0  0  0  0
   -2.5100   67.1620   67.1180 C   0  0  0  0  0  0  0  0  0  0  0  0
   -1.5100   66.8190   68.0240 C   0  0  0  0  0  0  0  0  0  0  0  0
   -0.3930   67.6420   68.1790 C   0  0  0  0  0  0  0  0  0  0  0  0
    3.0610   70.3594   65.1038 H   0  0  0  0  0  0  0  0  0  0  0  0
    1.5957   68.6725   64.9427 H   0  0  0  0  0  0  0  0  0  0  0  0
    2.9277   67.4383   64.7607 H   0  0  0  0  0  0  0  0  0  0  0  0
    1.3710   67.2303   66.7986 H   0  0  0  0  0  0  0  0  0  0  0  0
    3.1577   67.1605   67.0602 H   0  0  0  0  0  0  0  0  0  0  0  0
    2.2074   68.5203   68.6585 H   0  0  0  0  0  0  0  0  0  0  0  0
    3.1394   70.8894   67.6949 H   0  0  0  0  0  0  0  0  0  0  0  0
    4.0102   69.6311   68.6696 H   0  0  0  0  0  0  0  0  0  0  0  0
    4.9189   68.6076   66.7578 H   0  0  0  0  0  0  0  0  0  0  0  0
    5.0802   70.3892   66.4630 H   0  0  0  0  0  0  0  0  0  0  0  0
    3.9977   69.7083   63.1550 H   0  0  0  0  0  0  0  0  0  0  0  0
    5.4551   69.7790   64.2608 H   0  0  0  0  0  0  0  0  0  0  0  0
    5.6257   67.4482   64.2058 H   0  0  0  0  0  0  0  0  0  0  0  0
    5.2427   65.3010   62.0185 H   0  0  0  0  0  0  0  0  0  0  0  0
    4.0613   62.8521   63.9027 H   0  0  0  0  0  0  0  0  0  0  0  0
    0.7798   70.3061   68.5378 H   0  0  0  0  0  0  0  0  0  0  0  0
    0.9915   70.3736   66.7317 H   0  0  0  0  0  0  0  0  0  0  0  0
   -1.1933   70.0675   65.9099 H   0  0  0  0  0  0  0  0  0  0  0  0
   -3.1821   68.5942   65.6410 H   0  0  0  0  0  0  0  0  0  0  0  0
   -3.3914   66.5145   67.0004 H   0  0  0  0  0  0  0  0  0  0  0  0
   -1.6002   65.8980   68.6187 H   0  0  0  0  0  0  0  0  0  0  0  0
    0.3949   67.3649   68.8948 H   0  0  0  0  0  0  0  0  0  0  0  0
  2  1  1  0
  3  2  1  0
  4  3  1  0
  5  4  1  0
  6  1  1  0
  6  5  1  0
  7  1  1  0
  9  8  2  0
 10  8  1  0
 10  7  1  0
 12 11  2  0
 12  8  1  0
 13 11  1  0
 14  4  1  0
 15 14  1  0
 16 15  2  0
 17 16  1  0
 18 17  2  0
 19 18  1  0
 20 19  2  0
 20 15  1  0
  1 21  1  0
  2 22  1  0
  2 23  1  0
  3 24  1  0
  3 25  1  0
  4 26  1  0
  5 27  1  0
  5 28  1  0
  6 29  1  0
  6 30  1  0
  7 31  1  0
  7 32  1  0
 10 33  1  0
 12 34  1  0
 13 35  1  0
 14 36  1  0
 14 37  1  0
 16 38  1  0
 17 39  1  0
 18 40  1  0
 19 41  1  0
 20 42  1  0
M  CHG  1   4   1
M  END
>  <score>  (3) 
-7.864

$$$$
=
     RDKit          3D

 42 43  0  0  0  0  0  0  0  0999 V2000
    3.7500   68.3580   64.4230 C   0  0  0  0  0  0  0  0  0  0  0  0
    2.7840   69.0850   63.4690 C   0  0  0  0  0  0  0  0  0  0  0  0
    1.5850   68.2370   63.0640 C   0  0  0  0  0  0  0  0  0  0  0  0
    1.0170   67.5080   64.2500 N   0  0  0  0  0  4  0  0  0  0  0  0
    2.0100   66.5970   64.9470 C   0  0  0  0  0  0  0  0  0  0  0  0
    3.4390   66.8580   64.4870 C   0  0  0  0  0  0  0  0  0  0  0  0
    5.2260   68.6550   64.1050 C   0  0  0  0  0  0  0  0  0  0  0  0
    5.4570   69.8650   66.2550 C   0  0  0  0  0  0  0  0  0  0  0  0
    4.2710   70.1000   66.4180 O   0  0  0  0  0  0  0  0  0  0  0  0
    5.9950   69.0940   65.2460 N   0  0  0  0  0  0  0  0  0  0  0  0
    6.1640   71.4480   67.9570 N   0  0  0  0  0  0  0  0  0  0  0  0
    6.4740   70.4300   67.2180 C   0  0  0  0  0  0  0  0  0  0  0  0
    7.2730   71.7730   68.7470 O   0  0  0  0  0  0  0  0  0  0  0  0
    0.2490   68.4100   65.1960 C   0  0  0  0  0  0  0  0  0  0  0  0
    0.1810   67.8580   66.5950 C   0  0  0  0  0  0  0  0  0  0  0  0
    1.2590   68.0110   67.4800 C   0  0  0  0  0  0  0  0  0  0  0  0
    1.2000   67.4740   68.7650 C   0  0  0  0  0  0  0  0  0  0  0  0
    0.0660   66.7800   69.1820 C   0  0  0  0  0  0  0  0  0  0  0  0
   -1.0140   66.6270   68.3160 C   0  0  0  0  0  0  0  0  0  0  0  0
   -0.9600   67.1630   67.0280 C   0  0  0  0  0  0  0  0  0  0  0  0
    3.5838   68.7613   65.4328 H   0  0  0  0  0  0  0  0  0  0  0  0
    2.4164   69.9929   63.9695 H   0  0  0  0  0  0  0  0  0  0  0  0
    3.3447   69.3158   62.5512 H   0  0  0  0  0  0  0  0  0  0  0  0
    0.8095   68.8904   62.6379 H   0  0  0  0  0  0  0  0  0  0  0  0
    1.9143   67.4957   62.3210 H   0  0  0  0  0  0  0  0  0  0  0  0
    0.3138   66.8668   63.8559 H   0  0  0  0  0  0  0  0  0  0  0  0
    1.9487   66.7677   66.0319 H   0  0  0  0  0  0  0  0  0  0  0  0
    1.7547   65.5572   64.6946 H   0  0  0  0  0  0  0  0  0  0  0  0
    3.5763   66.4226   63.4862 H   0  0  0  0  0  0  0  0  0  0  0  0
    4.1228   66.3972   65.2151 H   0  0  0  0  0  0  0  0  0  0  0  0
    5.6863   67.7374   63.7098 H   0  0  0  0  0  0  0  0  0  0  0  0
    5.2355   69.4802   63.3777 H   0  0  0  0  0  0  0  0  0  0  0  0
    6.9859   68.8200   65.3087 H   0  0  0  0  0  0  0  0  0  0  0  0
    7.4745   69.9788   67.2917 H   0  0  0  0  0  0  0  0  0  0  0  0
    7.2238   72.5317   69.3811 H   0  0  0  0  0  0  0  0  0  0  0  0
    0.7454   69.3911   65.2281 H   0  0  0  0  0  0  0  0  0  0  0  0
   -0.7812   68.4887   64.8185 H   0  0  0  0  0  0  0  0  0  0  0  0
    2.1569   68.5585   67.1575 H   0  0  0  0  0  0  0  0  0  0  0  0
    2.0506   67.5984   69.4513 H   0  0  0  0  0  0  0  0  0  0  0  0
    0.0238   66.3531   70.1949 H   0  0  0  0  0  0  0  0  0  0  0  0
   -1.9108   66.0830   68.6473 H   0  0  0  0  0  0  0  0  0  0  0  0
   -1.8162   67.0402   66.3483 H   0  0  0  0  0  0  0  0  0  0  0  0
  2  1  1  0
  3  2  1  0
  4  3  1  0
  5  4  1  0
  6  1  1  0
  6  5  1  0
  7  1  1  0
  9  8  2  0
 10  8  1  0
 10  7  1  0
 12 11  2  0
 12  8  1  0
 13 11  1  0
 14  4  1  0
 15 14  1  0
 16 15  2  0
 17 16  1  0
 18 17  2  0
 19 18  1  0
 20 19  2  0
 20 15  1  0
  1 21  1  0
  2 22  1  0
  2 23  1  0
  3 24  1  0
  3 25  1  0
  4 26  1  0
  5 27  1  0
  5 28  1  0
  6 29  1  0
  6 30  1  0
  7 31  1  0
  7 32  1  0
 10 33  1  0
 12 34  1  0
 13 35  1  0
 14 36  1  0
 14 37  1  0
 16 38  1  0
 17 39  1  0
 18 40  1  0
 19 41  1  0
 20 42  1  0
M  CHG  1   4   1
M  END
>  <score>  (4) 
-7.815

$$$$
=
     RDKit          3D

 42 43  0  0  0  0  0  0  0  0999 V2000
    1.9090   63.1550   72.3440 C   0  0  0  0  0  0  0  0  0  0  0  0
    2.8650   63.8140   71.3310 C   0  0  0  0  0  0  0  0  0  0  0  0
    2.2760   63.9230   69.9300 C   0  0  0  0  0  0  0  0  0  0  0  0
    0.8470   64.3850   69.9820 N   0  0  0  0  0  4  0  0  0  0  0  0
   -0.0640   63.4860   70.7940 C   0  0  0  0  0  0  0  0  0  0  0  0
    0.7250   62.4880   71.6340 C   0  0  0  0  0  0  0  0  0  0  0  0
    2.6390   62.2120   73.3150 C   0  0  0  0  0  0  0  0  0  0  0  0
    3.9370   60.2770   72.4730 C   0  0  0  0  0  0  0  0  0  0  0  0
    5.0460   60.7480   72.6680 O   0  0  0  0  0  0  0  0  0  0  0  0
    2.7400   60.8490   72.8460 N   0  0  0  0  0  0  0  0  0  0  0  0
    3.9740   58.8670   70.4950 N   0  0  0  0  0  0  0  0  0  0  0  0
    3.8010   58.9440   71.7770 C   0  0  0  0  0  0  0  0  0  0  0  0
    3.7890   57.5350   70.1050 O   0  0  0  0  0  0  0  0  0  0  0  0
    0.7070   65.8580   70.3170 C   0  0  0  0  0  0  0  0  0  0  0  0
    0.3100   66.6870   69.1230 C   0  0  0  0  0  0  0  0  0  0  0  0
    1.2070   67.6080   68.5600 C   0  0  0  0  0  0  0  0  0  0  0  0
    0.8250   68.3920   67.4730 C   0  0  0  0  0  0  0  0  0  0  0  0
   -0.4530   68.2650   66.9340 C   0  0  0  0  0  0  0  0  0  0  0  0
   -1.3510   67.3500   67.4780 C   0  0  0  0  0  0  0  0  0  0  0  0
   -0.9730   66.5620   68.5680 C   0  0  0  0  0  0  0  0  0  0  0  0
    1.4929   63.9547   72.9743 H   0  0  0  0  0  0  0  0  0  0  0  0
    3.1080   64.8259   71.6874 H   0  0  0  0  0  0  0  0  0  0  0  0
    3.7570   63.1742   71.2607 H   0  0  0  0  0  0  0  0  0  0  0  0
    2.8665   64.6447   69.3465 H   0  0  0  0  0  0  0  0  0  0  0  0
    2.3067   62.9298   69.4583 H   0  0  0  0  0  0  0  0  0  0  0  0
    0.5023   64.2908   69.0160 H   0  0  0  0  0  0  0  0  0  0  0  0
   -0.6749   64.1097   71.4632 H   0  0  0  0  0  0  0  0  0  0  0  0
   -0.6958   62.9190   70.0944 H   0  0  0  0  0  0  0  0  0  0  0  0
    1.1057   61.6918   70.9774 H   0  0  0  0  0  0  0  0  0  0  0  0
    0.0519   62.0781   72.4014 H   0  0  0  0  0  0  0  0  0  0  0  0
    3.6562   62.5993   73.4743 H   0  0  0  0  0  0  0  0  0  0  0  0
    2.0456   62.1869   74.2409 H   0  0  0  0  0  0  0  0  0  0  0  0
    1.8822   60.2817   72.7881 H   0  0  0  0  0  0  0  0  0  0  0  0
    3.5559   58.0414   72.3561 H   0  0  0  0  0  0  0  0  0  0  0  0
    3.8817   57.2806   69.1527 H   0  0  0  0  0  0  0  0  0  0  0  0
   -0.0615   65.9710   71.0959 H   0  0  0  0  0  0  0  0  0  0  0  0
    1.6882   66.2168   70.6612 H   0  0  0  0  0  0  0  0  0  0  0  0
    2.2185   67.7117   68.9796 H   0  0  0  0  0  0  0  0  0  0  0  0
    1.5343   69.1126   67.0398 H   0  0  0  0  0  0  0  0  0  0  0  0
   -0.7532   68.8876   66.0783 H   0  0  0  0  0  0  0  0  0  0  0  0
   -2.3588   67.2476   67.0491 H   0  0  0  0  0  0  0  0  0  0  0  0
   -1.6850   65.8395   68.9936 H   0  0  0  0  0  0  0  0  0  0  0  0
  2  1  1  0
  3  2  1  0
  4  3  1  0
  5  4  1  0
  6  1  1  0
  6  5  1  0
  7  1  1  0
  9  8  2  0
 10  8  1  0
 10  7  1  0
 12 11  2  0
 12  8  1  0
 13 11  1  0
 14  4  1  0
 15 14  1  0
 16 15  2  0
 17 16  1  0
 18 17  2  0
 19 18  1  0
 20 19  2  0
 20 15  1  0
  1 21  1  0
  2 22  1  0
  2 23  1  0
  3 24  1  0
  3 25  1  0
  4 26  1  0
  5 27  1  0
  5 28  1  0
  6 29  1  0
  6 30  1  0
  7 31  1  0
  7 32  1  0
 10 33  1  0
 12 34  1  0
 13 35  1  0
 14 36  1  0
 14 37  1  0
 16 38  1  0
 17 39  1  0
 18 40  1  0
 19 41  1  0
 20 42  1  0
M  CHG  1   4   1
M  END
>  <score>  (5) 
-7.766

$$$$
=
     RDKit          3D

 42 43  0  0  0  0  0  0  0  0999 V2000
    2.7730   69.0880   64.1110 C   0  0  0  0  0  0  0  0  0  0  0  0
    3.0040   68.8550   65.6160 C   0  0  0  0  0  0  0  0  0  0  0  0
    4.4120   68.3720   65.9410 C   0  0  0  0  0  0  0  0  0  0  0  0
    5.4390   69.1450   65.1630 N   0  0  0  0  0  4  0  0  0  0  0  0
    5.2620   69.0660   63.6590 C   0  0  0  0  0  0  0  0  0  0  0  0
    3.9070   68.4820   63.2770 C   0  0  0  0  0  0  0  0  0  0  0  0
    1.3760   68.6310   63.6530 C   0  0  0  0  0  0  0  0  0  0  0  0
   -0.9420   68.6800   64.5260 C   0  0  0  0  0  0  0  0  0  0  0  0
   -1.5050   68.7320   63.4450 O   0  0  0  0  0  0  0  0  0  0  0  0
    0.4130   68.5200   64.7240 N   0  0  0  0  0  0  0  0  0  0  0  0
   -2.0570   67.7050   66.4520 N   0  0  0  0  0  0  0  0  0  0  0  0
   -1.7500   68.7800   65.7980 C   0  0  0  0  0  0  0  0  0  0  0  0
   -2.8040   68.0720   67.5780 O   0  0  0  0  0  0  0  0  0  0  0  0
    5.6430   70.5560   65.6800 C   0  0  0  0  0  0  0  0  0  0  0  0
    5.8700   70.5990   67.1680 C   0  0  0  0  0  0  0  0  0  0  0  0
    7.1700   70.6170   67.6950 C   0  0  0  0  0  0  0  0  0  0  0  0
    7.3740   70.6290   69.0740 C   0  0  0  0  0  0  0  0  0  0  0  0
    6.2840   70.6280   69.9420 C   0  0  0  0  0  0  0  0  0  0  0  0
    4.9890   70.6180   69.4320 C   0  0  0  0  0  0  0  0  0  0  0  0
    4.7790   70.6050   68.0520 C   0  0  0  0  0  0  0  0  0  0  0  0
    2.7955   70.1739   63.9367 H   0  0  0  0  0  0  0  0  0  0  0  0
    2.8283   69.8021   66.1471 H   0  0  0  0  0  0  0  0  0  0  0  0
    2.3068   68.0661   65.9347 H   0  0  0  0  0  0  0  0  0  0  0  0
    4.5992   68.5065   67.0166 H   0  0  0  0  0  0  0  0  0  0  0  0
    4.4904   67.3098   65.6662 H   0  0  0  0  0  0  0  0  0  0  0  0
    6.3292   68.6584   65.3410 H   0  0  0  0  0  0  0  0  0  0  0  0
    5.3446   70.0786   63.2374 H   0  0  0  0  0  0  0  0  0  0  0  0
    6.0441   68.4047   63.2576 H   0  0  0  0  0  0  0  0  0  0  0  0
    3.9284   67.3945   63.4413 H   0  0  0  0  0  0  0  0  0  0  0  0
    3.7181   68.7173   62.2192 H   0  0  0  0  0  0  0  0  0  0  0  0
    0.9967   69.3593   62.9210 H   0  0  0  0  0  0  0  0  0  0  0  0
    1.4948   67.6240   63.2266 H   0  0  0  0  0  0  0  0  0  0  0  0
    0.7524   68.3129   65.6742 H   0  0  0  0  0  0  0  0  0  0  0  0
   -2.0768   69.7630   66.1680 H   0  0  0  0  0  0  0  0  0  0  0  0
   -3.1304   67.3774   68.2034 H   0  0  0  0  0  0  0  0  0  0  0  0
    6.5185   70.9926   65.1771 H   0  0  0  0  0  0  0  0  0  0  0  0
    4.7268   71.1257   65.4656 H   0  0  0  0  0  0  0  0  0  0  0  0
    8.0347   70.6217   67.0151 H   0  0  0  0  0  0  0  0  0  0  0  0
    8.3972   70.6393   69.4776 H   0  0  0  0  0  0  0  0  0  0  0  0
    6.4469   70.6351   71.0298 H   0  0  0  0  0  0  0  0  0  0  0  0
    4.1291   70.6203   70.1179 H   0  0  0  0  0  0  0  0  0  0  0  0
    3.7532   70.5994   67.6549 H   0  0  0  0  0  0  0  0  0  0  0  0
  2  1  1  0
  3  2  1  0
  4  3  1  0
  5  4  1  0
  6  1  1  0
  6  5  1  0
  7  1  1  0
  9  8  2  0
 10  8  1  0
 10  7  1  0
 12 11  2  0
 12  8  1  0
 13 11  1  0
 14  4  1  0
 15 14  1  0
 16 15  2  0
 17 16  1  0
 18 17  2  0
 19 18  1  0
 20 19  2  0
 20 15  1  0
  1 21  1  0
  2 22  1  0
  2 23  1  0
  3 24  1  0
  3 25  1  0
  4 26  1  0
  5 27  1  0
  5 28  1  0
  6 29  1  0
  6 30  1  0
  7 31  1  0
  7 32  1  0
 10 33  1  0
 12 34  1  0
 13 35  1  0
 14 36  1  0
 14 37  1  0
 16 38  1  0
 17 39  1  0
 18 40  1  0
 19 41  1  0
 20 42  1  0
M  CHG  1   4   1
M  END
>  <score>  (6) 
-7.744

$$$$
=
     RDKit          3D

 42 43  0  0  0  0  0  0  0  0999 V2000
    2.7730   67.3190   64.9480 C   0  0  0  0  0  0  0  0  0  0  0  0
    3.9510   66.6390   64.2260 C   0  0  0  0  0  0  0  0  0  0  0  0
    4.7390   67.5900   63.3340 C   0  0  0  0  0  0  0  0  0  0  0  0
    4.9760   68.9030   64.0250 N   0  0  0  0  0  4  0  0  0  0  0  0
    3.7070   69.6170   64.4480 C   0  0  0  0  0  0  0  0  0  0  0  0
    2.4880   68.7050   64.3600 C   0  0  0  0  0  0  0  0  0  0  0  0
    1.5240   66.4220   65.0110 C   0  0  0  0  0  0  0  0  0  0  0  0
    0.2460   67.1560   67.0020 C   0  0  0  0  0  0  0  0  0  0  0  0
    1.1170   66.9320   67.8270 O   0  0  0  0  0  0  0  0  0  0  0  0
    0.3810   67.0490   65.6350 N   0  0  0  0  0  0  0  0  0  0  0  0
   -2.1400   67.4780   66.6690 N   0  0  0  0  0  0  0  0  0  0  0  0
   -1.1210   67.6080   67.4600 C   0  0  0  0  0  0  0  0  0  0  0  0
   -3.2730   67.9720   67.3270 O   0  0  0  0  0  0  0  0  0  0  0  0
    6.0230   68.8230   65.1190 C   0  0  0  0  0  0  0  0  0  0  0  0
    5.6780   69.6730   66.3140 C   0  0  0  0  0  0  0  0  0  0  0  0
    6.5770   70.6400   66.7890 C   0  0  0  0  0  0  0  0  0  0  0  0
    6.2630   71.4060   67.9120 C   0  0  0  0  0  0  0  0  0  0  0  0
    5.0500   71.2160   68.5700 C   0  0  0  0  0  0  0  0  0  0  0  0
    4.1460   70.2650   68.1050 C   0  0  0  0  0  0  0  0  0  0  0  0
    4.4560   69.4960   66.9810 C   0  0  0  0  0  0  0  0  0  0  0  0
    3.0730   67.4737   65.9949 H   0  0  0  0  0  0  0  0  0  0  0  0
    4.6328   66.2246   64.9833 H   0  0  0  0  0  0  0  0  0  0  0  0
    3.5290   65.8573   63.5773 H   0  0  0  0  0  0  0  0  0  0  0  0
    5.7087   67.1325   63.0882 H   0  0  0  0  0  0  0  0  0  0  0  0
    4.1577   67.7752   62.4187 H   0  0  0  0  0  0  0  0  0  0  0  0
    5.3831   69.5129   63.3016 H   0  0  0  0  0  0  0  0  0  0  0  0
    3.8208   69.9600   65.4869 H   0  0  0  0  0  0  0  0  0  0  0  0
    3.5489   70.4659   63.7665 H   0  0  0  0  0  0  0  0  0  0  0  0
    2.2028   68.5922   63.3036 H   0  0  0  0  0  0  0  0  0  0  0  0
    1.6744   69.1633   64.9414 H   0  0  0  0  0  0  0  0  0  0  0  0
    1.2471   66.1419   63.9839 H   0  0  0  0  0  0  0  0  0  0  0  0
    1.7877   65.5522   65.6306 H   0  0  0  0  0  0  0  0  0  0  0  0
   -0.3626   67.4313   65.0335 H   0  0  0  0  0  0  0  0  0  0  0  0
   -1.2512   68.0457   68.4607 H   0  0  0  0  0  0  0  0  0  0  0  0
   -4.1539   67.9561   66.8755 H   0  0  0  0  0  0  0  0  0  0  0  0
    6.1125   67.7763   65.4452 H   0  0  0  0  0  0  0  0  0  0  0  0
    6.9689   69.2006   64.7033 H   0  0  0  0  0  0  0  0  0  0  0  0
    7.5357   70.7952   66.2725 H   0  0  0  0  0  0  0  0  0  0  0  0
    6.9742   72.1610   68.2783 H   0  0  0  0  0  0  0  0  0  0  0  0
    4.8063   71.8180   69.4578 H   0  0  0  0  0  0  0  0  0  0  0  0
    3.1867   70.1190   68.6232 H   0  0  0  0  0  0  0  0  0  0  0  0
    3.7378   68.7469   66.6163 H   0  0  0  0  0  0  0  0  0  0  0  0
  2  1  1  0
  3  2  1  0
  4  3  1  0
  5  4  1  0
  6  1  1  0
  6  5  1  0
  7  1  1  0
  9  8  2  0
 10  8  1  0
 10  7  1  0
 12 11  2  0
 12  8  1  0
 13 11  1  0
 14  4  1  0
 15 14  1  0
 16 15  2  0
 17 16  1  0
 18 17  2  0
 19 18  1  0
 20 19  2  0
 20 15  1  0
  1 21  1  0
  2 22  1  0
  2 23  1  0
  3 24  1  0
  3 25  1  0
  4 26  1  0
  5 27  1  0
  5 28  1  0
  6 29  1  0
  6 30  1  0
  7 31  1  0
  7 32  1  0
 10 33  1  0
 12 34  1  0
 13 35  1  0
 14 36  1  0
 14 37  1  0
 16 38  1  0
 17 39  1  0
 18 40  1  0
 19 41  1  0
 20 42  1  0
M  CHG  1   4   1
M  END
>  <score>  (7) 
-7.6

$$$$
=
     RDKit          3D

 42 43  0  0  0  0  0  0  0  0999 V2000
    1.4270   61.9190   72.6040 C   0  0  0  0  0  0  0  0  0  0  0  0
    2.4790   62.0910   73.7160 C   0  0  0  0  0  0  0  0  0  0  0  0
    3.0130   60.7680   74.2490 C   0  0  0  0  0  0  0  0  0  0  0  0
    3.2980   59.8110   73.1250 N   0  0  0  0  0  4  0  0  0  0  0  0
    2.0940   59.5040   72.2550 C   0  0  0  0  0  0  0  0  0  0  0  0
    0.9430   60.4670   72.5200 C   0  0  0  0  0  0  0  0  0  0  0  0
    0.2750   62.9330   72.7230 C   0  0  0  0  0  0  0  0  0  0  0  0
    0.6120   64.3690   70.7320 C   0  0  0  0  0  0  0  0  0  0  0  0
    0.2670   63.5480   69.8980 O   0  0  0  0  0  0  0  0  0  0  0  0
    0.5480   64.2080   72.1000 N   0  0  0  0  0  0  0  0  0  0  0  0
    0.4910   66.4200   69.4350 N   0  0  0  0  0  0  0  0  0  0  0  0
    1.1560   65.7060   70.2870 C   0  0  0  0  0  0  0  0  0  0  0  0
    1.2090   67.5970   69.1910 O   0  0  0  0  0  0  0  0  0  0  0  0
    4.5440   60.1680   72.3380 C   0  0  0  0  0  0  0  0  0  0  0  0
    4.2640   61.1390   71.2210 C   0  0  0  0  0  0  0  0  0  0  0  0
    3.5550   60.7340   70.0800 C   0  0  0  0  0  0  0  0  0  0  0  0
    3.3220   61.6300   69.0370 C   0  0  0  0  0  0  0  0  0  0  0  0
    3.7910   62.9390   69.1220 C   0  0  0  0  0  0  0  0  0  0  0  0
    4.4900   63.3560   70.2520 C   0  0  0  0  0  0  0  0  0  0  0  0
    4.7260   62.4620   71.2990 C   0  0  0  0  0  0  0  0  0  0  0  0
    1.9175   62.1466   71.6461 H   0  0  0  0  0  0  0  0  0  0  0  0
    3.3222   62.6708   73.3125 H   0  0  0  0  0  0  0  0  0  0  0  0
    1.9863   62.6053   74.5543 H   0  0  0  0  0  0  0  0  0  0  0  0
    3.9421   60.9538   74.8078 H   0  0  0  0  0  0  0  0  0  0  0  0
    2.2518   60.3214   74.9056 H   0  0  0  0  0  0  0  0  0  0  0  0
    3.5141   58.9158   73.5862 H   0  0  0  0  0  0  0  0  0  0  0  0
    2.3888   59.5839   71.1983 H   0  0  0  0  0  0  0  0  0  0  0  0
    1.7503   58.4868   72.4941 H   0  0  0  0  0  0  0  0  0  0  0  0
    0.4630   60.1956   73.4718 H   0  0  0  0  0  0  0  0  0  0  0  0
    0.2321   60.3902   71.6841 H   0  0  0  0  0  0  0  0  0  0  0  0
   -0.6176   62.4999   72.2479 H   0  0  0  0  0  0  0  0  0  0  0  0
    0.1314   63.1272   73.7961 H   0  0  0  0  0  0  0  0  0  0  0  0
    0.7009   65.0296   72.7020 H   0  0  0  0  0  0  0  0  0  0  0  0
    2.1138   66.0722   70.6852 H   0  0  0  0  0  0  0  0  0  0  0  0
    0.8533   68.2720   68.5602 H   0  0  0  0  0  0  0  0  0  0  0  0
    5.2761   60.6204   73.0231 H   0  0  0  0  0  0  0  0  0  0  0  0
    4.9300   59.2422   71.8864 H   0  0  0  0  0  0  0  0  0  0  0  0
    3.1802   59.7023   70.0076 H   0  0  0  0  0  0  0  0  0  0  0  0
    2.7669   61.3025   68.1456 H   0  0  0  0  0  0  0  0  0  0  0  0
    3.6092   63.6431   68.2967 H   0  0  0  0  0  0  0  0  0  0  0  0
    4.8568   64.3908   70.3201 H   0  0  0  0  0  0  0  0  0  0  0  0
    5.2773   62.7969   72.1900 H   0  0  0  0  0  0  0  0  0  0  0  0
  2  1  1  0
  3  2  1  0
  4  3  1  0
  5  4  1  0
  6  1  1  0
  6  5  1  0
  7  1  1  0
  9  8  2  0
 10  8  1  0
 10  7  1  0
 12 11  2  0
 12  8  1  0
 13 11  1  0
 14  4  1  0
 15 14  1  0
 16 15  2  0
 17 16  1  0
 18 17  2  0
 19 18  1  0
 20 19  2  0
 20 15  1  0
  1 21  1  0
  2 22  1  0
  2 23  1  0
  3 24  1  0
  3 25  1  0
  4 26  1  0
  5 27  1  0
  5 28  1  0
  6 29  1  0
  6 30  1  0
  7 31  1  0
  7 32  1  0
 10 33  1  0
 12 34  1  0
 13 35  1  0
 14 36  1  0
 14 37  1  0
 16 38  1  0
 17 39  1  0
 18 40  1  0
 19 41  1  0
 20 42  1  0
M  CHG  1   4   1
M  END
>  <score>  (8) 
-7.338

$$$$
=
     RDKit          3D

 42 43  0  0  0  0  0  0  0  0999 V2000
    0.6370   67.0920   68.5400 C   0  0  0  0  0  0  0  0  0  0  0  0
   -0.4500   67.4880   67.5230 C   0  0  0  0  0  0  0  0  0  0  0  0
   -0.2110   68.8520   66.8880 C   0  0  0  0  0  0  0  0  0  0  0  0
    1.2330   69.0220   66.5060 N   0  0  0  0  0  4  0  0  0  0  0  0
    2.1990   68.8800   67.6660 C   0  0  0  0  0  0  0  0  0  0  0  0
    1.5240   68.2910   68.8980 C   0  0  0  0  0  0  0  0  0  0  0  0
    0.0560   66.3810   69.7750 C   0  0  0  0  0  0  0  0  0  0  0  0
    0.4290   64.3050   71.0750 C   0  0  0  0  0  0  0  0  0  0  0  0
   -0.0440   64.7040   72.1270 O   0  0  0  0  0  0  0  0  0  0  0  0
    0.4230   64.9870   69.8770 N   0  0  0  0  0  0  0  0  0  0  0  0
    2.1450   62.7720   70.2960 N   0  0  0  0  0  0  0  0  0  0  0  0
    1.0810   62.9440   71.0140 C   0  0  0  0  0  0  0  0  0  0  0  0
    2.5400   61.4330   70.4080 O   0  0  0  0  0  0  0  0  0  0  0  0
    1.6270   68.2160   65.2830 C   0  0  0  0  0  0  0  0  0  0  0  0
    2.9350   68.6690   64.6890 C   0  0  0  0  0  0  0  0  0  0  0  0
    3.1310   68.6640   63.2990 C   0  0  0  0  0  0  0  0  0  0  0  0
    4.3530   69.0580   62.7560 C   0  0  0  0  0  0  0  0  0  0  0  0
    5.3910   69.4630   63.5930 C   0  0  0  0  0  0  0  0  0  0  0  0
    5.2080   69.4790   64.9730 C   0  0  0  0  0  0  0  0  0  0  0  0
    3.9860   69.0840   65.5210 C   0  0  0  0  0  0  0  0  0  0  0  0
    1.2876   66.3488   68.0559 H   0  0  0  0  0  0  0  0  0  0  0  0
   -0.4748   66.7308   66.7255 H   0  0  0  0  0  0  0  0  0  0  0  0
   -1.4030   67.5448   68.0694 H   0  0  0  0  0  0  0  0  0  0  0  0
   -0.8349   68.9436   65.9867 H   0  0  0  0  0  0  0  0  0  0  0  0
   -0.4744   69.6304   67.6193 H   0  0  0  0  0  0  0  0  0  0  0  0
    1.3181   70.0083   66.2216 H   0  0  0  0  0  0  0  0  0  0  0  0
    3.0245   68.2193   67.3626 H   0  0  0  0  0  0  0  0  0  0  0  0
    2.5690   69.8826   67.9264 H   0  0  0  0  0  0  0  0  0  0  0  0
    0.9021   69.0666   69.3688 H   0  0  0  0  0  0  0  0  0  0  0  0
    2.3088   67.9437   69.5860 H   0  0  0  0  0  0  0  0  0  0  0  0
    0.4168   66.9005   70.6750 H   0  0  0  0  0  0  0  0  0  0  0  0
   -1.0390   66.4156   69.6766 H   0  0  0  0  0  0  0  0  0  0  0  0
    0.6909   64.4826   69.0199 H   0  0  0  0  0  0  0  0  0  0  0  0
    0.6535   62.1016   71.5776 H   0  0  0  0  0  0  0  0  0  0  0  0
    3.3415   61.1112   69.9242 H   0  0  0  0  0  0  0  0  0  0  0  0
    1.7185   67.1586   65.5721 H   0  0  0  0  0  0  0  0  0  0  0  0
    0.8465   68.3617   64.5217 H   0  0  0  0  0  0  0  0  0  0  0  0
    2.3145   68.3469   62.6335 H   0  0  0  0  0  0  0  0  0  0  0  0
    4.4981   69.0492   61.6656 H   0  0  0  0  0  0  0  0  0  0  0  0
    6.3557   69.7703   63.1630 H   0  0  0  0  0  0  0  0  0  0  0  0
    6.0268   69.8031   65.6322 H   0  0  0  0  0  0  0  0  0  0  0  0
    3.8463   69.0982   66.6120 H   0  0  0  0  0  0  0  0  0  0  0  0
  2  1  1  0
  3  2  1  0
  4  3  1  0
  5  4  1  0
  6  1  1  0
  6  5  1  0
  7  1  1  0
  9  8  2  0
 10  8  1  0
 10  7  1  0
 12 11  2  0
 12  8  1  0
 13 11  1  0
 14  4  1  0
 15 14  1  0
 16 15  2  0
 17 16  1  0
 18 17  2  0
 19 18  1  0
 20 19  2  0
 20 15  1  0
  1 21  1  0
  2 22  1  0
  2 23  1  0
  3 24  1  0
  3 25  1  0
  4 26  1  0
  5 27  1  0
  5 28  1  0
  6 29  1  0
  6 30  1  0
  7 31  1  0
  7 32  1  0
 10 33  1  0
 12 34  1  0
 13 35  1  0
 14 36  1  0
 14 37  1  0
 16 38  1  0
 17 39  1  0
 18 40  1  0
 19 41  1  0
 20 42  1  0
M  CHG  1   4   1
M  END
>  <score>  (9) 
-7.321

$$$$
