=
     RDKit          3D

 55 58  0  0  0  0  0  0  0  0999 V2000
    0.7640   55.0570   74.0260 Cl  0  0  0  0  0  0  0  0  0  0  0  0
    0.6700   56.7510   73.7340 C   0  0  0  0  0  0  0  0  0  0  0  0
   -0.5270   57.4200   73.9650 C   0  0  0  0  0  0  0  0  0  0  0  0
   -0.6210   58.7970   73.7320 C   0  0  0  0  0  0  0  0  0  0  0  0
    0.5050   59.5030   73.2610 C   0  0  0  0  0  0  0  0  0  0  0  0
    1.6910   58.8080   73.0400 C   0  0  0  0  0  0  0  0  0  0  0  0
    1.8010   57.4270   73.2700 C   0  0  0  0  0  0  0  0  0  0  0  0
    2.8800   59.9110   72.4770 S   0  0  0  0  0  0  0  0  0  0  0  0
    1.7540   61.2160   72.5740 C   0  0  0  0  0  0  0  0  0  0  0  0
    0.5550   60.8600   72.9860 N   0  0  0  0  0  0  0  0  0  0  0  0
    2.0450   62.5150   72.2540 N   0  0  0  0  0  0  0  0  0  0  0  0
    3.2270   62.8850   71.4930 C   0  0  0  0  0  0  0  0  0  0  0  0
    2.9900   64.0860   70.5780 C   0  0  0  0  0  0  0  0  0  0  0  0
    1.7100   63.9780   69.7530 C   0  0  0  0  0  0  0  0  0  0  0  0
    0.5070   64.5520   70.4590 N   0  0  1  0  0  4  0  0  0  0  0  0
    0.0110   63.7700   71.6690 C   0  0  0  0  0  0  0  0  0  0  0  0
    1.1100   63.5440   72.7170 C   0  0  0  0  0  0  0  0  0  0  0  0
    0.4870   66.0700   70.6260 C   0  0  0  0  0  0  0  0  0  0  0  0
    1.0990   66.7210   69.3680 C   0  0  2  0  0  0  0  0  0  0  0  0
    1.9030   67.8420   69.8010 O   0  0  0  0  0  0  0  0  0  0  0  0
    0.0320   67.2100   68.3820 C   0  0  0  0  0  0  0  0  0  0  0  0
    0.4250   68.4750   67.8450 O   0  0  0  0  0  0  0  0  0  0  0  0
    1.0290   68.5290   66.6220 C   0  0  0  0  0  0  0  0  0  0  0  0
    2.4050   68.7810   66.6730 C   0  0  0  0  0  0  0  0  0  0  0  0
    3.1680   68.8580   65.5050 C   0  0  0  0  0  0  0  0  0  0  0  0
    2.5420   68.6790   64.2670 C   0  0  0  0  0  0  0  0  0  0  0  0
    1.1660   68.4250   64.2030 C   0  0  0  0  0  0  0  0  0  0  0  0
    0.4130   68.3500   65.3820 C   0  0  0  0  0  0  0  0  0  0  0  0
    3.3300   68.7540   63.0300 N   0  0  0  0  0  4  0  0  0  0  0  0
    4.3810   69.4070   63.0610 O   0  0  0  0  0  0  0  0  0  0  0  0
    2.8920   68.1640   62.0330 O   0  0  0  0  0  1  0  0  0  0  0  0
   -1.4030   56.8652   74.3321 H   0  0  0  0  0  0  0  0  0  0  0  0
   -1.5681   59.3255   73.9153 H   0  0  0  0  0  0  0  0  0  0  0  0
    2.7469   56.8949   73.0906 H   0  0  0  0  0  0  0  0  0  0  0  0
    4.0348   63.1335   72.1971 H   0  0  0  0  0  0  0  0  0  0  0  0
    3.4913   62.0291   70.8545 H   0  0  0  0  0  0  0  0  0  0  0  0
    2.9283   64.9911   71.2000 H   0  0  0  0  0  0  0  0  0  0  0  0
    3.8303   64.1243   69.8692 H   0  0  0  0  0  0  0  0  0  0  0  0
    1.8547   64.5215   68.8077 H   0  0  0  0  0  0  0  0  0  0  0  0
    1.5150   62.9086   69.5844 H   0  0  0  0  0  0  0  0  0  0  0  0
   -0.2310   64.3910   69.7588 H   0  0  0  0  0  0  0  0  0  0  0  0
   -0.8122   64.3298   72.1369 H   0  0  0  0  0  0  0  0  0  0  0  0
   -0.3196   62.7825   71.3147 H   0  0  0  0  0  0  0  0  0  0  0  0
    1.6562   64.4848   72.8798 H   0  0  0  0  0  0  0  0  0  0  0  0
    0.6468   63.2118   73.6578 H   0  0  0  0  0  0  0  0  0  0  0  0
   -0.5503   66.4137   70.7518 H   0  0  0  0  0  0  0  0  0  0  0  0
    1.0712   66.3543   71.5136 H   0  0  0  0  0  0  0  0  0  0  0  0
    1.7007   65.9671   68.8393 H   0  0  0  0  0  0  0  0  0  0  0  0
    1.9236   67.8707   70.7904 H   0  0  0  0  0  0  0  0  0  0  0  0
   -0.0738   66.4814   67.5647 H   0  0  0  0  0  0  0  0  0  0  0  0
   -0.9300   67.3160   68.9048 H   0  0  0  0  0  0  0  0  0  0  0  0
    2.8936   68.9207   67.6486 H   0  0  0  0  0  0  0  0  0  0  0  0
    4.2485   69.0571   65.5584 H   0  0  0  0  0  0  0  0  0  0  0  0
    0.6770   68.2845   63.2277 H   0  0  0  0  0  0  0  0  0  0  0  0
   -0.6673   68.1494   65.3305 H   0  0  0  0  0  0  0  0  0  0  0  0
  2  1  1  0
  3  2  2  0
  4  3  1  0
  5  4  2  0
  6  5  1  0
  7  6  2  0
  7  2  1  0
  8  6  1  0
  9  8  1  0
 10  5  1  0
 10  9  2  0
 11  9  1  0
 12 11  1  0
 13 12  1  0
 14 13  1  0
 15 14  1  0
 16 15  1  0
 17 16  1  0
 17 11  1  0
 18 15  1  0
 19 18  1  0
 20 19  1  0
 21 19  1  0
 22 21  1  0
 23 22  1  0
 24 23  2  0
 25 24  1  0
 26 25  2  0
 27 26  1  0
 28 27  2  0
 28 23  1  0
 29 26  1  0
 30 29  2  0
 31 29  1  0
  3 32  1  0
  4 33  1  0
  7 34  1  0
 12 35  1  0
 12 36  1  0
 13 37  1  0
 13 38  1  0
 14 39  1  0
 14 40  1  0
 15 41  1  6
 16 42  1  0
 16 43  1  0
 17 44  1  0
 17 45  1  0
 18 46  1  0
 18 47  1  0
 19 48  1  6
 20 49  1  0
 21 50  1  0
 21 51  1  0
 24 52  1  0
 25 53  1  0
 27 54  1  0
 28 55  1  0
M  CHG  3  15   1  29   1  31  -1
M  END
>  <score>  (1) 
-9.034

$$$$
=
     RDKit          3D

 55 58  0  0  0  0  0  0  0  0999 V2000
   -7.5210   58.7140   76.3750 Cl  0  0  0  0  0  0  0  0  0  0  0  0
   -5.8820   58.9140   75.8860 C   0  0  0  0  0  0  0  0  0  0  0  0
   -5.5290   60.0130   75.1100 C   0  0  0  0  0  0  0  0  0  0  0  0
   -4.2020   60.1910   74.7040 C   0  0  0  0  0  0  0  0  0  0  0  0
   -3.2230   59.2510   75.0840 C   0  0  0  0  0  0  0  0  0  0  0  0
   -3.6040   58.1610   75.8630 C   0  0  0  0  0  0  0  0  0  0  0  0
   -4.9320   57.9690   76.2790 C   0  0  0  0  0  0  0  0  0  0  0  0
   -2.2210   57.1940   76.1740 S   0  0  0  0  0  0  0  0  0  0  0  0
   -1.2260   58.2800   75.2720 C   0  0  0  0  0  0  0  0  0  0  0  0
   -1.8790   59.2980   74.7540 N   0  0  0  0  0  0  0  0  0  0  0  0
    0.1220   58.1240   75.0880 N   0  0  0  0  0  0  0  0  0  0  0  0
    0.8040   56.8680   75.3520 C   0  0  0  0  0  0  0  0  0  0  0  0
    1.9680   56.6140   74.3940 C   0  0  0  0  0  0  0  0  0  0  0  0
    1.6110   56.8500   72.9290 C   0  0  0  0  0  0  0  0  0  0  0  0
    1.8420   58.2740   72.4900 N   0  0  1  0  0  4  0  0  0  0  0  0
    0.8940   59.3130   73.0770 C   0  0  0  0  0  0  0  0  0  0  0  0
    0.8720   59.2880   74.6130 C   0  0  0  0  0  0  0  0  0  0  0  0
    3.3000   58.7190   72.3950 C   0  0  0  0  0  0  0  0  0  0  0  0
    3.5260   59.4050   71.0310 C   0  0  2  0  0  0  0  0  0  0  0  0
    3.7910   58.3680   70.0580 O   0  0  0  0  0  0  0  0  0  0  0  0
    4.6990   60.3920   71.0570 C   0  0  0  0  0  0  0  0  0  0  0  0
    4.3890   61.4770   71.9330 O   0  0  0  0  0  0  0  0  0  0  0  0
    3.5020   62.4340   71.5310 C   0  0  0  0  0  0  0  0  0  0  0  0
    2.3690   62.5430   72.3470 C   0  0  0  0  0  0  0  0  0  0  0  0
    1.3720   63.4830   72.0720 C   0  0  0  0  0  0  0  0  0  0  0  0
    1.5120   64.3250   70.9660 C   0  0  0  0  0  0  0  0  0  0  0  0
    2.6420   64.2270   70.1430 C   0  0  0  0  0  0  0  0  0  0  0  0
    3.6350   63.2800   70.4290 C   0  0  0  0  0  0  0  0  0  0  0  0
    0.4750   65.3200   70.6650 N   0  0  0  0  0  4  0  0  0  0  0  0
   -0.1220   65.8300   71.6230 O   0  0  0  0  0  0  0  0  0  0  0  0
    0.2580   65.5840   69.4750 O   0  0  0  0  0  1  0  0  0  0  0  0
   -6.2956   60.7445   74.8146 H   0  0  0  0  0  0  0  0  0  0  0  0
   -3.9239   61.0609   74.0908 H   0  0  0  0  0  0  0  0  0  0  0  0
   -5.2144   57.1022   76.8945 H   0  0  0  0  0  0  0  0  0  0  0  0
    1.1933   56.8887   76.3806 H   0  0  0  0  0  0  0  0  0  0  0  0
    0.0739   56.0578   75.2087 H   0  0  0  0  0  0  0  0  0  0  0  0
    2.7949   57.2873   74.6640 H   0  0  0  0  0  0  0  0  0  0  0  0
    2.2448   55.5541   74.4937 H   0  0  0  0  0  0  0  0  0  0  0  0
    2.2286   56.1863   72.3061 H   0  0  0  0  0  0  0  0  0  0  0  0
    0.5376   56.6392   72.8131 H   0  0  0  0  0  0  0  0  0  0  0  0
    1.5535   58.2278   71.5023 H   0  0  0  0  0  0  0  0  0  0  0  0
    1.2153   60.3113   72.7450 H   0  0  0  0  0  0  0  0  0  0  0  0
   -0.1208   59.0767   72.7243 H   0  0  0  0  0  0  0  0  0  0  0  0
    1.9038   59.2344   74.9905 H   0  0  0  0  0  0  0  0  0  0  0  0
    0.3853   60.2035   74.9804 H   0  0  0  0  0  0  0  0  0  0  0  0
    3.5233   59.4277   73.2061 H   0  0  0  0  0  0  0  0  0  0  0  0
    3.9627   57.8459   72.4872 H   0  0  0  0  0  0  0  0  0  0  0  0
    2.6271   59.9853   70.7754 H   0  0  0  0  0  0  0  0  0  0  0  0
    4.0069   57.5231   70.5267 H   0  0  0  0  0  0  0  0  0  0  0  0
    5.6029   59.8779   71.4157 H   0  0  0  0  0  0  0  0  0  0  0  0
    4.8754   60.7787   70.0424 H   0  0  0  0  0  0  0  0  0  0  0  0
    2.2622   61.8788   73.2173 H   0  0  0  0  0  0  0  0  0  0  0  0
    0.4862   63.5591   72.7197 H   0  0  0  0  0  0  0  0  0  0  0  0
    2.7496   64.8924   69.2737 H   0  0  0  0  0  0  0  0  0  0  0  0
    4.5219   63.2034   69.7828 H   0  0  0  0  0  0  0  0  0  0  0  0
  2  1  1  0
  3  2  2  0
  4  3  1  0
  5  4  2  0
  6  5  1  0
  7  6  2  0
  7  2  1  0
  8  6  1  0
  9  8  1  0
 10  5  1  0
 10  9  2  0
 11  9  1  0
 12 11  1  0
 13 12  1  0
 14 13  1  0
 15 14  1  0
 16 15  1  0
 17 16  1  0
 17 11  1  0
 18 15  1  0
 19 18  1  0
 20 19  1  0
 21 19  1  0
 22 21  1  0
 23 22  1  0
 24 23  2  0
 25 24  1  0
 26 25  2  0
 27 26  1  0
 28 27  2  0
 28 23  1  0
 29 26  1  0
 30 29  2  0
 31 29  1  0
  3 32  1  0
  4 33  1  0
  7 34  1  0
 12 35  1  0
 12 36  1  0
 13 37  1  0
 13 38  1  0
 14 39  1  0
 14 40  1  0
 15 41  1  6
 16 42  1  0
 16 43  1  0
 17 44  1  0
 17 45  1  0
 18 46  1  0
 18 47  1  0
 19 48  1  6
 20 49  1  0
 21 50  1  0
 21 51  1  0
 24 52  1  0
 25 53  1  0
 27 54  1  0
 28 55  1  0
M  CHG  3  15   1  29   1  31  -1
M  END
>  <score>  (2) 
-8.218

$$$$
=
     RDKit          3D

 55 58  0  0  0  0  0  0  0  0999 V2000
    3.6620   56.0400   79.5690 Cl  0  0  0  0  0  0  0  0  0  0  0  0
    3.4270   56.8660   78.0760 C   0  0  0  0  0  0  0  0  0  0  0  0
    4.5180   57.1010   77.2460 C   0  0  0  0  0  0  0  0  0  0  0  0
    4.3460   57.7710   76.0300 C   0  0  0  0  0  0  0  0  0  0  0  0
    3.0610   58.2080   75.6490 C   0  0  0  0  0  0  0  0  0  0  0  0
    1.9860   57.9570   76.4990 C   0  0  0  0  0  0  0  0  0  0  0  0
    2.1430   57.2850   77.7230 C   0  0  0  0  0  0  0  0  0  0  0  0
    0.5590   58.5920   75.7870 S   0  0  0  0  0  0  0  0  0  0  0  0
    1.4550   59.1390   74.4160 C   0  0  0  0  0  0  0  0  0  0  0  0
    2.7440   58.8820   74.4810 N   0  0  0  0  0  0  0  0  0  0  0  0
    0.9080   59.7900   73.3420 N   0  0  0  0  0  0  0  0  0  0  0  0
   -0.4210   60.3770   73.3820 C   0  0  0  0  0  0  0  0  0  0  0  0
   -0.5290   61.6530   72.5470 C   0  0  0  0  0  0  0  0  0  0  0  0
    0.6110   62.6380   72.7940 C   0  0  0  0  0  0  0  0  0  0  0  0
    1.7950   62.4040   71.8900 N   0  0  1  0  0  4  0  0  0  0  0  0
    2.5930   61.1330   72.1550 C   0  0  0  0  0  0  0  0  0  0  0  0
    1.7180   59.8710   72.1250 C   0  0  0  0  0  0  0  0  0  0  0  0
    1.5880   62.7330   70.4130 C   0  0  0  0  0  0  0  0  0  0  0  0
    2.1170   64.1570   70.1390 C   0  0  2  0  0  0  0  0  0  0  0  0
    3.4050   64.2780   70.7860 O   0  0  0  0  0  0  0  0  0  0  0  0
    1.1760   65.2460   70.6680 C   0  0  0  0  0  0  0  0  0  0  0  0
    1.4450   66.4750   69.9920 O   0  0  0  0  0  0  0  0  0  0  0  0
    0.6030   66.8990   69.0040 C   0  0  0  0  0  0  0  0  0  0  0  0
    1.1700   67.8350   68.1310 C   0  0  0  0  0  0  0  0  0  0  0  0
    0.4380   68.3590   67.0620 C   0  0  0  0  0  0  0  0  0  0  0  0
   -0.8810   67.9390   66.8660 C   0  0  0  0  0  0  0  0  0  0  0  0
   -1.4600   67.0030   67.7320 C   0  0  0  0  0  0  0  0  0  0  0  0
   -0.7140   66.4850   68.8000 C   0  0  0  0  0  0  0  0  0  0  0  0
   -1.6630   68.4780   65.7460 N   0  0  0  0  0  4  0  0  0  0  0  0
   -2.8820   68.6230   65.9180 O   0  0  0  0  0  0  0  0  0  0  0  0
   -1.0590   68.7480   64.7000 O   0  0  0  0  0  1  0  0  0  0  0  0
    5.5193   56.7590   77.5466 H   0  0  0  0  0  0  0  0  0  0  0  0
    5.2095   57.9560   75.3741 H   0  0  0  0  0  0  0  0  0  0  0  0
    1.2825   57.0953   78.3814 H   0  0  0  0  0  0  0  0  0  0  0  0
   -1.1420   59.6417   72.9955 H   0  0  0  0  0  0  0  0  0  0  0  0
   -0.6337   60.6456   74.4273 H   0  0  0  0  0  0  0  0  0  0  0  0
   -0.5248   61.3746   71.4828 H   0  0  0  0  0  0  0  0  0  0  0  0
   -1.4619   62.1558   72.8418 H   0  0  0  0  0  0  0  0  0  0  0  0
    0.2362   63.6582   72.6245 H   0  0  0  0  0  0  0  0  0  0  0  0
    0.9529   62.4942   73.8296 H   0  0  0  0  0  0  0  0  0  0  0  0
    2.4338   63.1495   72.2016 H   0  0  0  0  0  0  0  0  0  0  0  0
    3.3731   61.0395   71.3852 H   0  0  0  0  0  0  0  0  0  0  0  0
    3.0263   61.2149   73.1627 H   0  0  0  0  0  0  0  0  0  0  0  0
    1.0545   59.9093   71.2485 H   0  0  0  0  0  0  0  0  0  0  0  0
    2.3670   58.9848   72.0654 H   0  0  0  0  0  0  0  0  0  0  0  0
    2.1374   62.0093   69.7930 H   0  0  0  0  0  0  0  0  0  0  0  0
    0.5175   62.6791   70.1657 H   0  0  0  0  0  0  0  0  0  0  0  0
    2.1910   64.3013   69.0510 H   0  0  0  0  0  0  0  0  0  0  0  0
    3.2832   64.2666   71.7684 H   0  0  0  0  0  0  0  0  0  0  0  0
    0.1324   64.9487   70.4875 H   0  0  0  0  0  0  0  0  0  0  0  0
    1.3372   65.3779   71.7481 H   0  0  0  0  0  0  0  0  0  0  0  0
    2.2080   68.1632   68.2889 H   0  0  0  0  0  0  0  0  0  0  0  0
    0.8945   69.0937   66.3824 H   0  0  0  0  0  0  0  0  0  0  0  0
   -2.4981   66.6749   67.5745 H   0  0  0  0  0  0  0  0  0  0  0  0
   -1.1686   65.7493   69.4798 H   0  0  0  0  0  0  0  0  0  0  0  0
  2  1  1  0
  3  2  2  0
  4  3  1  0
  5  4  2  0
  6  5  1  0
  7  6  2  0
  7  2  1  0
  8  6  1  0
  9  8  1  0
 10  5  1  0
 10  9  2  0
 11  9  1  0
 12 11  1  0
 13 12  1  0
 14 13  1  0
 15 14  1  0
 16 15  1  0
 17 16  1  0
 17 11  1  0
 18 15  1  0
 19 18  1  0
 20 19  1  0
 21 19  1  0
 22 21  1  0
 23 22  1  0
 24 23  2  0
 25 24  1  0
 26 25  2  0
 27 26  1  0
 28 27  2  0
 28 23  1  0
 29 26  1  0
 30 29  2  0
 31 29  1  0
  3 32  1  0
  4 33  1  0
  7 34  1  0
 12 35  1  0
 12 36  1  0
 13 37  1  0
 13 38  1  0
 14 39  1  0
 14 40  1  0
 15 41  1  1
 16 42  1  0
 16 43  1  0
 17 44  1  0
 17 45  1  0
 18 46  1  0
 18 47  1  0
 19 48  1  6
 20 49  1  0
 21 50  1  0
 21 51  1  0
 24 52  1  0
 25 53  1  0
 27 54  1  0
 28 55  1  0
M  CHG  3  15   1  29   1  31  -1
M  END
>  <score>  (3) 
-8.196

$$$$
=
     RDKit          3D

 55 58  0  0  0  0  0  0  0  0999 V2000
    3.7780   62.7830   68.4450 Cl  0  0  0  0  0  0  0  0  0  0  0  0
    3.7860   62.0590   70.0070 C   0  0  0  0  0  0  0  0  0  0  0  0
    4.9260   62.1530   70.7980 C   0  0  0  0  0  0  0  0  0  0  0  0
    4.9500   61.5690   72.0700 C   0  0  0  0  0  0  0  0  0  0  0  0
    3.8130   60.8860   72.5470 C   0  0  0  0  0  0  0  0  0  0  0  0
    2.6850   60.8090   71.7330 C   0  0  0  0  0  0  0  0  0  0  0  0
    2.6450   61.3900   70.4550 C   0  0  0  0  0  0  0  0  0  0  0  0
    1.4650   59.9300   72.5620 S   0  0  0  0  0  0  0  0  0  0  0  0
    2.5040   59.7230   73.9260 C   0  0  0  0  0  0  0  0  0  0  0  0
    3.6960   60.2610   73.7770 N   0  0  0  0  0  0  0  0  0  0  0  0
    2.1550   59.0610   75.0720 N   0  0  0  0  0  0  0  0  0  0  0  0
    0.9970   58.1850   75.1440 C   0  0  0  0  0  0  0  0  0  0  0  0
    1.2130   56.9950   76.0800 C   0  0  0  0  0  0  0  0  0  0  0  0
    2.5420   56.2790   75.8550 C   0  0  0  0  0  0  0  0  0  0  0  0
    3.6660   56.8550   76.6790 N   0  0  1  0  0  4  0  0  0  0  0  0
    4.1390   58.2470   76.2760 C   0  0  0  0  0  0  0  0  0  0  0  0
    2.9970   59.2730   76.2510 C   0  0  0  0  0  0  0  0  0  0  0  0
    3.5850   56.6170   78.1850 C   0  0  0  0  0  0  0  0  0  0  0  0
    4.9840   56.8300   78.8020 C   0  0  2  0  0  0  0  0  0  0  0  0
    5.5160   55.5280   79.1410 O   0  0  0  0  0  0  0  0  0  0  0  0
    4.9440   57.7070   80.0580 C   0  0  0  0  0  0  0  0  0  0  0  0
    3.9030   58.6770   79.9290 O   0  0  0  0  0  0  0  0  0  0  0  0
    4.2220   60.0020   79.8490 C   0  0  0  0  0  0  0  0  0  0  0  0
    5.5580   60.2880   80.1550 C   0  0  0  0  0  0  0  0  0  0  0  0
    6.0420   61.5980   80.1100 C   0  0  0  0  0  0  0  0  0  0  0  0
    5.1760   62.6350   79.7540 C   0  0  0  0  0  0  0  0  0  0  0  0
    3.8370   62.3620   79.4450 C   0  0  0  0  0  0  0  0  0  0  0  0
    3.3640   61.0430   79.4940 C   0  0  0  0  0  0  0  0  0  0  0  0
    5.6700   64.0170   79.6990 N   0  0  0  0  0  4  0  0  0  0  0  0
    4.8950   64.8840   79.2720 O   0  0  0  0  0  0  0  0  0  0  0  0
    6.8290   64.2290   80.0780 O   0  0  0  0  0  1  0  0  0  0  0  0
    5.8112   62.6877   70.4231 H   0  0  0  0  0  0  0  0  0  0  0  0
    5.8524   61.6428   72.6947 H   0  0  0  0  0  0  0  0  0  0  0  0
    1.7443   61.3204   69.8274 H   0  0  0  0  0  0  0  0  0  0  0  0
    0.1376   58.7673   75.5080 H   0  0  0  0  0  0  0  0  0  0  0  0
    0.8201   57.7853   74.1346 H   0  0  0  0  0  0  0  0  0  0  0  0
    1.1842   57.3583   77.1179 H   0  0  0  0  0  0  0  0  0  0  0  0
    0.4138   56.2687   75.8708 H   0  0  0  0  0  0  0  0  0  0  0  0
    2.4190   55.2189   76.1215 H   0  0  0  0  0  0  0  0  0  0  0  0
    2.8104   56.4065   74.7959 H   0  0  0  0  0  0  0  0  0  0  0  0
    4.4512   56.2512   76.3966 H   0  0  0  0  0  0  0  0  0  0  0  0
    4.8993   58.5833   76.9963 H   0  0  0  0  0  0  0  0  0  0  0  0
    4.5484   58.1784   75.2573 H   0  0  0  0  0  0  0  0  0  0  0  0
    2.3865   59.1599   77.1590 H   0  0  0  0  0  0  0  0  0  0  0  0
    3.4242   60.2859   76.2106 H   0  0  0  0  0  0  0  0  0  0  0  0
    2.8724   57.3253   78.6328 H   0  0  0  0  0  0  0  0  0  0  0  0
    3.2439   55.5899   78.3817 H   0  0  0  0  0  0  0  0  0  0  0  0
    5.6167   57.3517   78.0688 H   0  0  0  0  0  0  0  0  0  0  0  0
    5.5546   55.4335   80.1257 H   0  0  0  0  0  0  0  0  0  0  0  0
    4.7511   57.0771   80.9389 H   0  0  0  0  0  0  0  0  0  0  0  0
    5.9098   58.2196   80.1780 H   0  0  0  0  0  0  0  0  0  0  0  0
    6.2369   59.4690   80.4351 H   0  0  0  0  0  0  0  0  0  0  0  0
    7.0937   61.8106   80.3523 H   0  0  0  0  0  0  0  0  0  0  0  0
    3.1582   63.1808   79.1645 H   0  0  0  0  0  0  0  0  0  0  0  0
    2.3127   60.8284   79.2517 H   0  0  0  0  0  0  0  0  0  0  0  0
  2  1  1  0
  3  2  2  0
  4  3  1  0
  5  4  2  0
  6  5  1  0
  7  6  2  0
  7  2  1  0
  8  6  1  0
  9  8  1  0
 10  5  1  0
 10  9  2  0
 11  9  1  0
 12 11  1  0
 13 12  1  0
 14 13  1  0
 15 14  1  0
 16 15  1  0
 17 16  1  0
 17 11  1  0
 18 15  1  0
 19 18  1  0
 20 19  1  0
 21 19  1  0
 22 21  1  0
 23 22  1  0
 24 23  2  0
 25 24  1  0
 26 25  2  0
 27 26  1  0
 28 27  2  0
 28 23  1  0
 29 26  1  0
 30 29  2  0
 31 29  1  0
  3 32  1  0
  4 33  1  0
  7 34  1  0
 12 35  1  0
 12 36  1  0
 13 37  1  0
 13 38  1  0
 14 39  1  0
 14 40  1  0
 15 41  1  6
 16 42  1  0
 16 43  1  0
 17 44  1  0
 17 45  1  0
 18 46  1  0
 18 47  1  0
 19 48  1  6
 20 49  1  0
 21 50  1  0
 21 51  1  0
 24 52  1  0
 25 53  1  0
 27 54  1  0
 28 55  1  0
M  CHG  3  15   1  29   1  31  -1
M  END
>  <score>  (4) 
-7.543

$$$$
=
     RDKit          3D

 55 58  0  0  0  0  0  0  0  0999 V2000
    5.2220   63.4730   69.9830 Cl  0  0  0  0  0  0  0  0  0  0  0  0
    3.7610   62.9960   70.7590 C   0  0  0  0  0  0  0  0  0  0  0  0
    2.7230   63.9120   70.8850 C   0  0  0  0  0  0  0  0  0  0  0  0
    1.5280   63.5420   71.5140 C   0  0  0  0  0  0  0  0  0  0  0  0
    1.3830   62.2340   72.0200 C   0  0  0  0  0  0  0  0  0  0  0  0
    2.4390   61.3370   71.8790 C   0  0  0  0  0  0  0  0  0  0  0  0
    3.6430   61.6940   71.2500 C   0  0  0  0  0  0  0  0  0  0  0  0
    1.9850   59.8360   72.5780 S   0  0  0  0  0  0  0  0  0  0  0  0
    0.4380   60.4730   73.0050 C   0  0  0  0  0  0  0  0  0  0  0  0
    0.2640   61.7320   72.6650 N   0  0  0  0  0  0  0  0  0  0  0  0
   -0.5420   59.7620   73.6460 N   0  0  0  0  0  0  0  0  0  0  0  0
   -0.2760   58.5040   74.3230 C   0  0  0  0  0  0  0  0  0  0  0  0
   -1.1420   58.3070   75.5670 C   0  0  0  0  0  0  0  0  0  0  0  0
   -1.1760   59.5290   76.4820 C   0  0  0  0  0  0  0  0  0  0  0  0
   -2.2800   60.4940   76.1310 N   0  0  1  0  0  4  0  0  0  0  0  0
   -2.1070   61.2530   74.8210 C   0  0  0  0  0  0  0  0  0  0  0  0
   -1.8970   60.3180   73.6210 C   0  0  0  0  0  0  0  0  0  0  0  0
   -3.7030   60.0180   76.4110 C   0  0  0  0  0  0  0  0  0  0  0  0
   -4.6940   61.1180   75.9750 C   0  0  2  0  0  0  0  0  0  0  0  0
   -5.4360   61.5280   77.1470 O   0  0  0  0  0  0  0  0  0  0  0  0
   -5.6720   60.6350   74.8980 C   0  0  0  0  0  0  0  0  0  0  0  0
   -6.9830   61.1200   75.1930 O   0  0  0  0  0  0  0  0  0  0  0  0
   -7.5980   61.9720   74.3210 C   0  0  0  0  0  0  0  0  0  0  0  0
   -7.4480   63.3260   74.6420 C   0  0  0  0  0  0  0  0  0  0  0  0
   -8.0120   64.3230   73.8420 C   0  0  0  0  0  0  0  0  0  0  0  0
   -8.7370   63.9570   72.7040 C   0  0  0  0  0  0  0  0  0  0  0  0
   -8.8940   62.6060   72.3720 C   0  0  0  0  0  0  0  0  0  0  0  0
   -8.3230   61.6160   73.1830 C   0  0  0  0  0  0  0  0  0  0  0  0
   -9.3340   64.9920   71.8510 N   0  0  0  0  0  4  0  0  0  0  0  0
   -8.7110   65.3220   70.8310 O   0  0  0  0  0  0  0  0  0  0  0  0
  -10.4180   65.4750   72.2040 O   0  0  0  0  0  1  0  0  0  0  0  0
    2.8409   64.9315   70.4890 H   0  0  0  0  0  0  0  0  0  0  0  0
    0.7071   64.2676   71.6128 H   0  0  0  0  0  0  0  0  0  0  0  0
    4.4662   60.9716   71.1475 H   0  0  0  0  0  0  0  0  0  0  0  0
   -0.4738   57.6791   73.6227 H   0  0  0  0  0  0  0  0  0  0  0  0
    0.7744   58.5187   74.6492 H   0  0  0  0  0  0  0  0  0  0  0  0
   -2.1698   58.0841   75.2446 H   0  0  0  0  0  0  0  0  0  0  0  0
   -0.6989   57.4817   76.1437 H   0  0  0  0  0  0  0  0  0  0  0  0
   -1.3237   59.1882   77.5174 H   0  0  0  0  0  0  0  0  0  0  0  0
   -0.2210   60.0607   76.3584 H   0  0  0  0  0  0  0  0  0  0  0  0
   -2.1409   61.2239   76.8443 H   0  0  0  0  0  0  0  0  0  0  0  0
   -3.0080   61.8583   74.6427 H   0  0  0  0  0  0  0  0  0  0  0  0
   -1.2089   61.8811   74.9156 H   0  0  0  0  0  0  0  0  0  0  0  0
   -2.6278   59.4972   73.6673 H   0  0  0  0  0  0  0  0  0  0  0  0
   -2.0340   60.8897   72.6913 H   0  0  0  0  0  0  0  0  0  0  0  0
   -3.9020   59.0963   75.8446 H   0  0  0  0  0  0  0  0  0  0  0  0
   -3.8226   59.8136   77.4852 H   0  0  0  0  0  0  0  0  0  0  0  0
   -4.1242   61.9514   75.5382 H   0  0  0  0  0  0  0  0  0  0  0  0
   -4.9433   61.2558   77.9614 H   0  0  0  0  0  0  0  0  0  0  0  0
   -5.3529   61.0147   73.9162 H   0  0  0  0  0  0  0  0  0  0  0  0
   -5.6835   59.5352   74.8798 H   0  0  0  0  0  0  0  0  0  0  0  0
   -6.8770   63.6097   75.5384 H   0  0  0  0  0  0  0  0  0  0  0  0
   -7.8870   65.3839   74.1046 H   0  0  0  0  0  0  0  0  0  0  0  0
   -9.4649   62.3220   71.4757 H   0  0  0  0  0  0  0  0  0  0  0  0
   -8.4467   60.5547   72.9217 H   0  0  0  0  0  0  0  0  0  0  0  0
  2  1  1  0
  3  2  2  0
  4  3  1  0
  5  4  2  0
  6  5  1  0
  7  6  2  0
  7  2  1  0
  8  6  1  0
  9  8  1  0
 10  5  1  0
 10  9  2  0
 11  9  1  0
 12 11  1  0
 13 12  1  0
 14 13  1  0
 15 14  1  0
 16 15  1  0
 17 16  1  0
 17 11  1  0
 18 15  1  0
 19 18  1  0
 20 19  1  0
 21 19  1  0
 22 21  1  0
 23 22  1  0
 24 23  2  0
 25 24  1  0
 26 25  2  0
 27 26  1  0
 28 27  2  0
 28 23  1  0
 29 26  1  0
 30 29  2  0
 31 29  1  0
  3 32  1  0
  4 33  1  0
  7 34  1  0
 12 35  1  0
 12 36  1  0
 13 37  1  0
 13 38  1  0
 14 39  1  0
 14 40  1  0
 15 41  1  1
 16 42  1  0
 16 43  1  0
 17 44  1  0
 17 45  1  0
 18 46  1  0
 18 47  1  0
 19 48  1  6
 20 49  1  0
 21 50  1  0
 21 51  1  0
 24 52  1  0
 25 53  1  0
 27 54  1  0
 28 55  1  0
M  CHG  3  15   1  29   1  31  -1
M  END
>  <score>  (5) 
-7.5

$$$$
=
     RDKit          3D

 55 58  0  0  0  0  0  0  0  0999 V2000
    5.2800   63.5220   70.5680 Cl  0  0  0  0  0  0  0  0  0  0  0  0
    4.3850   62.1430   71.0780 C   0  0  0  0  0  0  0  0  0  0  0  0
    3.3600   61.6570   70.2730 C   0  0  0  0  0  0  0  0  0  0  0  0
    2.6210   60.5370   70.6720 C   0  0  0  0  0  0  0  0  0  0  0  0
    2.9210   59.9030   71.8950 C   0  0  0  0  0  0  0  0  0  0  0  0
    3.9540   60.4100   72.6800 C   0  0  0  0  0  0  0  0  0  0  0  0
    4.7040   61.5330   72.2930 C   0  0  0  0  0  0  0  0  0  0  0  0
    4.0950   59.4490   74.0950 S   0  0  0  0  0  0  0  0  0  0  0  0
    2.7990   58.4360   73.5690 C   0  0  0  0  0  0  0  0  0  0  0  0
    2.2750   58.7930   72.4150 N   0  0  0  0  0  0  0  0  0  0  0  0
    2.3290   57.3550   74.2650 N   0  0  0  0  0  0  0  0  0  0  0  0
    2.6460   57.1320   75.6660 C   0  0  0  0  0  0  0  0  0  0  0  0
    1.5000   56.4750   76.4350 C   0  0  0  0  0  0  0  0  0  0  0  0
    0.1450   57.1330   76.1850 C   0  0  0  0  0  0  0  0  0  0  0  0
   -0.5890   56.5380   75.0100 N   0  0  1  0  0  4  0  0  0  0  0  0
    0.0090   56.8260   73.6380 C   0  0  0  0  0  0  0  0  0  0  0  0
    1.4830   56.4060   73.5370 C   0  0  0  0  0  0  0  0  0  0  0  0
   -1.1100   55.1140   75.1940 C   0  0  0  0  0  0  0  0  0  0  0  0
   -2.5140   55.1740   75.8310 C   0  0  2  0  0  0  0  0  0  0  0  0
   -3.0790   53.8440   75.7700 O   0  0  0  0  0  0  0  0  0  0  0  0
   -3.4450   56.1560   75.1120 C   0  0  0  0  0  0  0  0  0  0  0  0
   -3.3170   57.4510   75.7020 O   0  0  0  0  0  0  0  0  0  0  0  0
   -4.1300   58.4650   75.2830 C   0  0  0  0  0  0  0  0  0  0  0  0
   -5.4640   58.0860   75.0890 C   0  0  0  0  0  0  0  0  0  0  0  0
   -6.4220   59.0130   74.6690 C   0  0  0  0  0  0  0  0  0  0  0  0
   -6.0370   60.3380   74.4410 C   0  0  0  0  0  0  0  0  0  0  0  0
   -4.7060   60.7290   74.6320 C   0  0  0  0  0  0  0  0  0  0  0  0
   -3.7550   59.7900   75.0540 C   0  0  0  0  0  0  0  0  0  0  0  0
   -7.0320   61.3250   74.0020 N   0  0  0  0  0  4  0  0  0  0  0  0
   -7.1790   62.3370   74.7000 O   0  0  0  0  0  0  0  0  0  0  0  0
   -7.6650   61.0820   72.9660 O   0  0  0  0  0  1  0  0  0  0  0  0
    3.1293   62.1545   69.3195 H   0  0  0  0  0  0  0  0  0  0  0  0
    1.8105   60.1536   70.0347 H   0  0  0  0  0  0  0  0  0  0  0  0
    5.5161   61.9193   72.9264 H   0  0  0  0  0  0  0  0  0  0  0  0
    3.5297   56.4797   75.7269 H   0  0  0  0  0  0  0  0  0  0  0  0
    2.8319   58.1146   76.1241 H   0  0  0  0  0  0  0  0  0  0  0  0
    1.4363   55.4197   76.1312 H   0  0  0  0  0  0  0  0  0  0  0  0
    1.7222   56.5870   77.5065 H   0  0  0  0  0  0  0  0  0  0  0  0
   -0.4757   57.0108   77.0849 H   0  0  0  0  0  0  0  0  0  0  0  0
    0.3302   58.1928   75.9559 H   0  0  0  0  0  0  0  0  0  0  0  0
   -1.4534   57.0982   75.0107 H   0  0  0  0  0  0  0  0  0  0  0  0
   -0.5671   56.2754   72.8798 H   0  0  0  0  0  0  0  0  0  0  0  0
   -0.0401   57.9126   73.4742 H   0  0  0  0  0  0  0  0  0  0  0  0
    1.6057   55.4026   73.9707 H   0  0  0  0  0  0  0  0  0  0  0  0
    1.7823   56.3960   72.4786 H   0  0  0  0  0  0  0  0  0  0  0  0
   -1.1692   54.6132   74.2164 H   0  0  0  0  0  0  0  0  0  0  0  0
   -0.4283   54.5492   75.8469 H   0  0  0  0  0  0  0  0  0  0  0  0
   -2.4151   55.5300   76.8671 H   0  0  0  0  0  0  0  0  0  0  0  0
   -3.2233   53.5043   76.6886 H   0  0  0  0  0  0  0  0  0  0  0  0
   -3.1712   56.2090   74.0479 H   0  0  0  0  0  0  0  0  0  0  0  0
   -4.4853   55.8111   75.2057 H   0  0  0  0  0  0  0  0  0  0  0  0
   -5.7625   57.0428   75.2699 H   0  0  0  0  0  0  0  0  0  0  0  0
   -7.4670   58.7039   74.5195 H   0  0  0  0  0  0  0  0  0  0  0  0
   -4.4072   61.7720   74.4510 H   0  0  0  0  0  0  0  0  0  0  0  0
   -2.7099   60.0980   75.2052 H   0  0  0  0  0  0  0  0  0  0  0  0
  2  1  1  0
  3  2  2  0
  4  3  1  0
  5  4  2  0
  6  5  1  0
  7  6  2  0
  7  2  1  0
  8  6  1  0
  9  8  1  0
 10  5  1  0
 10  9  2  0
 11  9  1  0
 12 11  1  0
 13 12  1  0
 14 13  1  0
 15 14  1  0
 16 15  1  0
 17 16  1  0
 17 11  1  0
 18 15  1  0
 19 18  1  0
 20 19  1  0
 21 19  1  0
 22 21  1  0
 23 22  1  0
 24 23  2  0
 25 24  1  0
 26 25  2  0
 27 26  1  0
 28 27  2  0
 28 23  1  0
 29 26  1  0
 30 29  2  0
 31 29  1  0
  3 32  1  0
  4 33  1  0
  7 34  1  0
 12 35  1  0
 12 36  1  0
 13 37  1  0
 13 38  1  0
 14 39  1  0
 14 40  1  0
 15 41  1  6
 16 42  1  0
 16 43  1  0
 17 44  1  0
 17 45  1  0
 18 46  1  0
 18 47  1  0
 19 48  1  1
 20 49  1  0
 21 50  1  0
 21 51  1  0
 24 52  1  0
 25 53  1  0
 27 54  1  0
 28 55  1  0
M  CHG  3  15   1  29   1  31  -1
M  END
>  <score>  (6) 
-7.5

$$$$
=
     RDKit          3D

 55 58  0  0  0  0  0  0  0  0999 V2000
    4.4760   63.1010   69.6860 Cl  0  0  0  0  0  0  0  0  0  0  0  0
    3.3270   62.3880   70.7510 C   0  0  0  0  0  0  0  0  0  0  0  0
    3.0460   61.0300   70.6450 C   0  0  0  0  0  0  0  0  0  0  0  0
    2.1140   60.4350   71.5030 C   0  0  0  0  0  0  0  0  0  0  0  0
    1.4590   61.2180   72.4750 C   0  0  0  0  0  0  0  0  0  0  0  0
    1.7610   62.5750   72.5590 C   0  0  0  0  0  0  0  0  0  0  0  0
    2.6940   63.1870   71.7060 C   0  0  0  0  0  0  0  0  0  0  0  0
    0.8260   63.2710   73.8200 S   0  0  0  0  0  0  0  0  0  0  0  0
    0.1040   61.7410   74.1650 C   0  0  0  0  0  0  0  0  0  0  0  0
    0.5170   60.7660   73.3840 N   0  0  0  0  0  0  0  0  0  0  0  0
   -0.8220   61.5260   75.1510 N   0  0  0  0  0  0  0  0  0  0  0  0
   -1.5370   62.6130   75.7990 C   0  0  0  0  0  0  0  0  0  0  0  0
   -2.9670   62.2340   76.1840 C   0  0  0  0  0  0  0  0  0  0  0  0
   -3.7360   61.5450   75.0600 C   0  0  0  0  0  0  0  0  0  0  0  0
   -3.5670   60.0470   75.0650 N   0  0  1  0  0  4  0  0  0  0  0  0
   -2.1840   59.5330   74.6810 C   0  0  0  0  0  0  0  0  0  0  0  0
   -1.0690   60.1380   75.5460 C   0  0  0  0  0  0  0  0  0  0  0  0
   -4.2280   59.3000   76.2210 C   0  0  0  0  0  0  0  0  0  0  0  0
   -5.4980   58.5950   75.7010 C   0  0  2  0  0  0  0  0  0  0  0  0
   -5.1010   57.3050   75.1800 O   0  0  0  0  0  0  0  0  0  0  0  0
   -6.2040   59.3930   74.5990 C   0  0  0  0  0  0  0  0  0  0  0  0
   -6.9740   60.4420   75.1900 O   0  0  0  0  0  0  0  0  0  0  0  0
   -7.4910   61.4270   74.3990 C   0  0  0  0  0  0  0  0  0  0  0  0
   -7.3420   62.7180   74.9210 C   0  0  0  0  0  0  0  0  0  0  0  0
   -7.8120   63.8350   74.2250 C   0  0  0  0  0  0  0  0  0  0  0  0
   -8.4390   63.6560   72.9890 C   0  0  0  0  0  0  0  0  0  0  0  0
   -8.5940   62.3700   72.4550 C   0  0  0  0  0  0  0  0  0  0  0  0
   -8.1180   61.2580   73.1640 C   0  0  0  0  0  0  0  0  0  0  0  0
   -8.9360   64.8190   72.2430 N   0  0  0  0  0  4  0  0  0  0  0  0
   -8.1670   65.3460   71.4280 O   0  0  0  0  0  0  0  0  0  0  0  0
  -10.0890   65.2030   72.4780 O   0  0  0  0  0  1  0  0  0  0  0  0
    3.5578   60.4218   69.8846 H   0  0  0  0  0  0  0  0  0  0  0  0
    1.8935   59.3606   71.4192 H   0  0  0  0  0  0  0  0  0  0  0  0
    2.9189   64.2607   71.7874 H   0  0  0  0  0  0  0  0  0  0  0  0
   -0.9915   62.8986   76.7105 H   0  0  0  0  0  0  0  0  0  0  0  0
   -1.5962   63.4449   75.0818 H   0  0  0  0  0  0  0  0  0  0  0  0
   -2.9267   61.5531   77.0470 H   0  0  0  0  0  0  0  0  0  0  0  0
   -3.4990   63.1685   76.4155 H   0  0  0  0  0  0  0  0  0  0  0  0
   -4.8052   61.7778   75.1724 H   0  0  0  0  0  0  0  0  0  0  0  0
   -3.3331   61.9191   74.1073 H   0  0  0  0  0  0  0  0  0  0  0  0
   -4.1487   59.7782   74.2586 H   0  0  0  0  0  0  0  0  0  0  0  0
   -2.1687   58.4396   74.8004 H   0  0  0  0  0  0  0  0  0  0  0  0
   -1.9955   59.8296   73.6386 H   0  0  0  0  0  0  0  0  0  0  0  0
   -1.3724   60.1091   76.6029 H   0  0  0  0  0  0  0  0  0  0  0  0
   -0.1474   59.5543   75.4048 H   0  0  0  0  0  0  0  0  0  0  0  0
   -3.5296   58.5520   76.6244 H   0  0  0  0  0  0  0  0  0  0  0  0
   -4.4960   60.0095   77.0178 H   0  0  0  0  0  0  0  0  0  0  0  0
   -6.2118   58.4987   76.5324 H   0  0  0  0  0  0  0  0  0  0  0  0
   -4.9116   56.6895   75.9319 H   0  0  0  0  0  0  0  0  0  0  0  0
   -5.4533   59.8260   73.9215 H   0  0  0  0  0  0  0  0  0  0  0  0
   -6.8685   58.7254   74.0309 H   0  0  0  0  0  0  0  0  0  0  0  0
   -6.8474   62.8549   75.8939 H   0  0  0  0  0  0  0  0  0  0  0  0
   -7.6897   64.8441   74.6455 H   0  0  0  0  0  0  0  0  0  0  0  0
   -9.0880   62.2331   71.4817 H   0  0  0  0  0  0  0  0  0  0  0  0
   -8.2393   60.2482   72.7449 H   0  0  0  0  0  0  0  0  0  0  0  0
  2  1  1  0
  3  2  2  0
  4  3  1  0
  5  4  2  0
  6  5  1  0
  7  6  2  0
  7  2  1  0
  8  6  1  0
  9  8  1  0
 10  5  1  0
 10  9  2  0
 11  9  1  0
 12 11  1  0
 13 12  1  0
 14 13  1  0
 15 14  1  0
 16 15  1  0
 17 16  1  0
 17 11  1  0
 18 15  1  0
 19 18  1  0
 20 19  1  0
 21 19  1  0
 22 21  1  0
 23 22  1  0
 24 23  2  0
 25 24  1  0
 26 25  2  0
 27 26  1  0
 28 27  2  0
 28 23  1  0
 29 26  1  0
 30 29  2  0
 31 29  1  0
  3 32  1  0
  4 33  1  0
  7 34  1  0
 12 35  1  0
 12 36  1  0
 13 37  1  0
 13 38  1  0
 14 39  1  0
 14 40  1  0
 15 41  1  6
 16 42  1  0
 16 43  1  0
 17 44  1  0
 17 45  1  0
 18 46  1  0
 18 47  1  0
 19 48  1  1
 20 49  1  0
 21 50  1  0
 21 51  1  0
 24 52  1  0
 25 53  1  0
 27 54  1  0
 28 55  1  0
M  CHG  3  15   1  29   1  31  -1
M  END
>  <score>  (7) 
-7.48

$$$$
=
     RDKit          3D

 55 58  0  0  0  0  0  0  0  0999 V2000
   -8.1150   62.2850   75.7760 Cl  0  0  0  0  0  0  0  0  0  0  0  0
   -6.6140   61.5370   75.3890 C   0  0  0  0  0  0  0  0  0  0  0  0
   -6.6090   60.3270   74.7050 C   0  0  0  0  0  0  0  0  0  0  0  0
   -5.3970   59.7040   74.3830 C   0  0  0  0  0  0  0  0  0  0  0  0
   -4.1800   60.3110   74.7560 C   0  0  0  0  0  0  0  0  0  0  0  0
   -4.2150   61.5240   75.4390 C   0  0  0  0  0  0  0  0  0  0  0  0
   -5.4230   62.1610   75.7690 C   0  0  0  0  0  0  0  0  0  0  0  0
   -2.6050   62.0240   75.7590 S   0  0  0  0  0  0  0  0  0  0  0  0
   -1.9840   60.6180   74.9710 C   0  0  0  0  0  0  0  0  0  0  0  0
   -2.9130   59.8100   74.5070 N   0  0  0  0  0  0  0  0  0  0  0  0
   -0.6520   60.3340   74.8300 N   0  0  0  0  0  0  0  0  0  0  0  0
    0.3760   61.0110   75.6030 C   0  0  0  0  0  0  0  0  0  0  0  0
    1.5580   60.1030   75.9400 C   0  0  0  0  0  0  0  0  0  0  0  0
    1.1400   58.7410   76.4890 C   0  0  0  0  0  0  0  0  0  0  0  0
    0.9340   57.7100   75.4090 N   0  0  1  0  0  4  0  0  0  0  0  0
   -0.2790   57.9230   74.5100 C   0  0  0  0  0  0  0  0  0  0  0  0
   -0.2860   59.3090   73.8490 C   0  0  0  0  0  0  0  0  0  0  0  0
    2.1910   57.2350   74.6850 C   0  0  0  0  0  0  0  0  0  0  0  0
    1.7760   56.3810   73.4680 C   0  0  2  0  0  0  0  0  0  0  0  0
    2.5590   55.1650   73.4990 O   0  0  0  0  0  0  0  0  0  0  0  0
    2.0090   57.1020   72.1360 C   0  0  0  0  0  0  0  0  0  0  0  0
    3.0690   58.0480   72.2870 O   0  0  0  0  0  0  0  0  0  0  0  0
    2.9970   59.2490   71.6410 C   0  0  0  0  0  0  0  0  0  0  0  0
    3.5500   59.2400   70.3540 C   0  0  0  0  0  0  0  0  0  0  0  0
    3.5460   60.3910   69.5610 C   0  0  0  0  0  0  0  0  0  0  0  0
    2.9810   61.5660   70.0640 C   0  0  0  0  0  0  0  0  0  0  0  0
    2.4240   61.5870   71.3500 C   0  0  0  0  0  0  0  0  0  0  0  0
    2.4340   60.4270   72.1350 C   0  0  0  0  0  0  0  0  0  0  0  0
    2.9660   62.7830   69.2430 N   0  0  0  0  0  4  0  0  0  0  0  0
    2.4480   63.7960   69.7320 O   0  0  0  0  0  0  0  0  0  0  0  0
    3.4680   62.7200   68.1130 O   0  0  0  0  0  1  0  0  0  0  0  0
   -7.5606   59.8571   74.4156 H   0  0  0  0  0  0  0  0  0  0  0  0
   -5.3942   58.7462   73.8420 H   0  0  0  0  0  0  0  0  0  0  0  0
   -5.4309   63.1194   76.3088 H   0  0  0  0  0  0  0  0  0  0  0  0
    0.7460   61.8681   75.0212 H   0  0  0  0  0  0  0  0  0  0  0  0
   -0.0791   61.3284   76.5528 H   0  0  0  0  0  0  0  0  0  0  0  0
    2.1474   59.9440   75.0249 H   0  0  0  0  0  0  0  0  0  0  0  0
    2.1391   60.6056   76.7272 H   0  0  0  0  0  0  0  0  0  0  0  0
    1.9245   58.3821   77.1715 H   0  0  0  0  0  0  0  0  0  0  0  0
    0.1777   58.8748   77.0047 H   0  0  0  0  0  0  0  0  0  0  0  0
    0.6693   56.8860   75.9675 H   0  0  0  0  0  0  0  0  0  0  0  0
   -0.2723   57.1562   73.7213 H   0  0  0  0  0  0  0  0  0  0  0  0
   -1.1781   57.8487   75.1393 H   0  0  0  0  0  0  0  0  0  0  0  0
    0.7162   59.5274   73.4516 H   0  0  0  0  0  0  0  0  0  0  0  0
   -1.0225   59.3140   73.0319 H   0  0  0  0  0  0  0  0  0  0  0  0
    2.7718   58.1049   74.3445 H   0  0  0  0  0  0  0  0  0  0  0  0
    2.8092   56.6339   75.3680 H   0  0  0  0  0  0  0  0  0  0  0  0
    0.6974   56.1757   73.5345 H   0  0  0  0  0  0  0  0  0  0  0  0
    2.7268   54.9044   74.4392 H   0  0  0  0  0  0  0  0  0  0  0  0
    2.2802   56.3673   71.3636 H   0  0  0  0  0  0  0  0  0  0  0  0
    1.0893   57.6257   71.8361 H   0  0  0  0  0  0  0  0  0  0  0  0
    3.9940   58.3133   69.9616 H   0  0  0  0  0  0  0  0  0  0  0  0
    3.9830   60.3721   68.5517 H   0  0  0  0  0  0  0  0  0  0  0  0
    1.9795   62.5135   71.7424 H   0  0  0  0  0  0  0  0  0  0  0  0
    1.9967   60.4443   73.1442 H   0  0  0  0  0  0  0  0  0  0  0  0
  2  1  1  0
  3  2  2  0
  4  3  1  0
  5  4  2  0
  6  5  1  0
  7  6  2  0
  7  2  1  0
  8  6  1  0
  9  8  1  0
 10  5  1  0
 10  9  2  0
 11  9  1  0
 12 11  1  0
 13 12  1  0
 14 13  1  0
 15 14  1  0
 16 15  1  0
 17 16  1  0
 17 11  1  0
 18 15  1  0
 19 18  1  0
 20 19  1  0
 21 19  1  0
 22 21  1  0
 23 22  1  0
 24 23  2  0
 25 24  1  0
 26 25  2  0
 27 26  1  0
 28 27  2  0
 28 23  1  0
 29 26  1  0
 30 29  2  0
 31 29  1  0
  3 32  1  0
  4 33  1  0
  7 34  1  0
 12 35  1  0
 12 36  1  0
 13 37  1  0
 13 38  1  0
 14 39  1  0
 14 40  1  0
 15 41  1  1
 16 42  1  0
 16 43  1  0
 17 44  1  0
 17 45  1  0
 18 46  1  0
 18 47  1  0
 19 48  1  1
 20 49  1  0
 21 50  1  0
 21 51  1  0
 24 52  1  0
 25 53  1  0
 27 54  1  0
 28 55  1  0
M  CHG  3  15   1  29   1  31  -1
M  END
>  <score>  (8) 
-7.426

$$$$
=
     RDKit          3D

 55 58  0  0  0  0  0  0  0  0999 V2000
    1.2400   65.9610   69.7040 Cl  0  0  0  0  0  0  0  0  0  0  0  0
    1.4930   64.5280   70.6230 C   0  0  0  0  0  0  0  0  0  0  0  0
    2.7770   64.0050   70.7350 C   0  0  0  0  0  0  0  0  0  0  0  0
    3.0010   62.8400   71.4770 C   0  0  0  0  0  0  0  0  0  0  0  0
    1.9180   62.1980   72.1120 C   0  0  0  0  0  0  0  0  0  0  0  0
    0.6440   62.7440   71.9840 C   0  0  0  0  0  0  0  0  0  0  0  0
    0.4030   63.9130   71.2430 C   0  0  0  0  0  0  0  0  0  0  0  0
   -0.4660   61.7650   72.8530 S   0  0  0  0  0  0  0  0  0  0  0  0
    0.8080   60.7040   73.3370 C   0  0  0  0  0  0  0  0  0  0  0  0
    1.9920   61.0420   72.8720 N   0  0  0  0  0  0  0  0  0  0  0  0
    0.6370   59.5990   74.1270 N   0  0  0  0  0  0  0  0  0  0  0  0
   -0.6700   59.0140   74.3780 C   0  0  0  0  0  0  0  0  0  0  0  0
   -0.6200   57.4930   74.5200 C   0  0  0  0  0  0  0  0  0  0  0  0
    0.1860   56.8060   73.4200 C   0  0  0  0  0  0  0  0  0  0  0  0
    1.6490   56.6700   73.7610 N   0  0  1  0  0  4  0  0  0  0  0  0
    2.4480   57.9680   73.7890 C   0  0  0  0  0  0  0  0  0  0  0  0
    1.8370   59.0160   74.7310 C   0  0  0  0  0  0  0  0  0  0  0  0
    1.9890   55.6850   74.8770 C   0  0  0  0  0  0  0  0  0  0  0  0
    2.1500   54.2760   74.2690 C   0  0  2  0  0  0  0  0  0  0  0  0
    2.7230   54.4310   72.9500 O   0  0  0  0  0  0  0  0  0  0  0  0
    0.8170   53.5270   74.1600 C   0  0  0  0  0  0  0  0  0  0  0  0
    0.3240   53.2410   75.4700 O   0  0  0  0  0  0  0  0  0  0  0  0
   -0.6800   54.0040   75.9940 C   0  0  0  0  0  0  0  0  0  0  0  0
   -1.8210   54.0810   75.1860 C   0  0  0  0  0  0  0  0  0  0  0  0
   -2.9390   54.8180   75.5870 C   0  0  0  0  0  0  0  0  0  0  0  0
   -2.9130   55.4850   76.8150 C   0  0  0  0  0  0  0  0  0  0  0  0
   -1.7780   55.4150   77.6330 C   0  0  0  0  0  0  0  0  0  0  0  0
   -0.6630   54.6730   77.2190 C   0  0  0  0  0  0  0  0  0  0  0  0
   -4.0800   56.2610   77.2520 N   0  0  0  0  0  4  0  0  0  0  0  0
   -4.4960   57.1460   76.4910 O   0  0  0  0  0  0  0  0  0  0  0  0
   -4.5730   55.9870   78.3540 O   0  0  0  0  0  1  0  0  0  0  0  0
    3.6193   64.5090   70.2385 H   0  0  0  0  0  0  0  0  0  0  0  0
    4.0168   62.4271   71.5645 H   0  0  0  0  0  0  0  0  0  0  0  0
   -0.6109   64.3303   71.1540 H   0  0  0  0  0  0  0  0  0  0  0  0
   -1.0735   59.4409   75.3080 H   0  0  0  0  0  0  0  0  0  0  0  0
   -1.3084   59.2453   73.5126 H   0  0  0  0  0  0  0  0  0  0  0  0
   -0.1638   57.2485   75.4906 H   0  0  0  0  0  0  0  0  0  0  0  0
   -1.6540   57.1260   74.4415 H   0  0  0  0  0  0  0  0  0  0  0  0
   -0.2307   55.8014   73.2551 H   0  0  0  0  0  0  0  0  0  0  0  0
    0.1144   57.4324   72.5186 H   0  0  0  0  0  0  0  0  0  0  0  0
    2.0073   56.1939   72.9208 H   0  0  0  0  0  0  0  0  0  0  0  0
    3.4711   57.7450   74.1259 H   0  0  0  0  0  0  0  0  0  0  0  0
    2.4388   58.3875   72.7722 H   0  0  0  0  0  0  0  0  0  0  0  0
    1.5680   58.5359   75.6834 H   0  0  0  0  0  0  0  0  0  0  0  0
    2.5739   59.8133   74.9079 H   0  0  0  0  0  0  0  0  0  0  0  0
    2.9287   55.9872   75.3624 H   0  0  0  0  0  0  0  0  0  0  0  0
    1.1831   55.6777   75.6256 H   0  0  0  0  0  0  0  0  0  0  0  0
    2.7975   53.6801   74.9291 H   0  0  0  0  0  0  0  0  0  0  0  0
    3.6754   54.6886   73.0321 H   0  0  0  0  0  0  0  0  0  0  0  0
    0.0884   54.1513   73.6220 H   0  0  0  0  0  0  0  0  0  0  0  0
    0.9686   52.5858   73.6113 H   0  0  0  0  0  0  0  0  0  0  0  0
   -1.8378   53.5534   74.2209 H   0  0  0  0  0  0  0  0  0  0  0  0
   -3.8293   54.8724   74.9433 H   0  0  0  0  0  0  0  0  0  0  0  0
   -1.7617   55.9414   78.5987 H   0  0  0  0  0  0  0  0  0  0  0  0
    0.2281   54.6178   77.8615 H   0  0  0  0  0  0  0  0  0  0  0  0
  2  1  1  0
  3  2  2  0
  4  3  1  0
  5  4  2  0
  6  5  1  0
  7  6  2  0
  7  2  1  0
  8  6  1  0
  9  8  1  0
 10  5  1  0
 10  9  2  0
 11  9  1  0
 12 11  1  0
 13 12  1  0
 14 13  1  0
 15 14  1  0
 16 15  1  0
 17 16  1  0
 17 11  1  0
 18 15  1  0
 19 18  1  0
 20 19  1  0
 21 19  1  0
 22 21  1  0
 23 22  1  0
 24 23  2  0
 25 24  1  0
 26 25  2  0
 27 26  1  0
 28 27  2  0
 28 23  1  0
 29 26  1  0
 30 29  2  0
 31 29  1  0
  3 32  1  0
  4 33  1  0
  7 34  1  0
 12 35  1  0
 12 36  1  0
 13 37  1  0
 13 38  1  0
 14 39  1  0
 14 40  1  0
 15 41  1  6
 16 42  1  0
 16 43  1  0
 17 44  1  0
 17 45  1  0
 18 46  1  0
 18 47  1  0
 19 48  1  1
 20 49  1  0
 21 50  1  0
 21 51  1  0
 24 52  1  0
 25 53  1  0
 27 54  1  0
 28 55  1  0
M  CHG  3  15   1  29   1  31  -1
M  END
>  <score>  (9) 
-7.408

$$$$
