=
     RDKit          3D

 44 44  0  0  0  0  0  0  0  0999 V2000
    5.5830   68.3340   63.5540 C   0  0  0  0  0  0  0  0  0  0  0  0
    5.0610   69.5650   64.3040 C   0  0  0  0  0  0  0  0  0  0  0  0
    4.7600   69.2100   65.6900 N   0  0  0  0  0  0  0  0  0  0  0  0
    5.0050   69.9920   66.8150 C   0  0  0  0  0  0  0  0  0  0  0  0
    6.1840   70.6340   66.9690 C   0  0  0  0  0  0  0  0  0  0  0  0
    2.6450   69.4840   67.4980 C   0  0  0  0  0  0  0  0  0  0  0  0
    3.9760   70.0110   67.7430 N   0  0  0  0  0  0  0  0  0  0  0  0
    6.5010   71.4640   68.1050 N   0  0  0  0  0  4  0  0  0  0  0  0
    7.2570   71.0380   68.9880 O   0  0  0  0  0  0  0  0  0  0  0  0
    5.9600   72.5770   68.1140 O   0  0  0  0  0  1  0  0  0  0  0  0
    4.3430   67.6150   62.4210 S   0  0  0  0  0  0  0  0  0  0  0  0
    3.1290   66.9770   63.6230 C   0  0  0  0  0  0  0  0  0  0  0  0
    1.8940   67.8040   63.6570 C   0  0  0  0  0  0  0  0  0  0  0  0
    1.2160   68.5310   62.7010 C   0  0  0  0  0  0  0  0  0  0  0  0
    0.0980   69.1130   63.3500 C   0  0  0  0  0  0  0  0  0  0  0  0
    0.1590   68.7050   64.6650 C   0  0  0  0  0  0  0  0  0  0  0  0
    1.2430   67.8960   64.8530 O   0  0  0  0  0  0  0  0  0  0  0  0
   -0.6700   68.9700   65.8680 C   0  0  0  0  0  0  0  0  0  0  0  0
   -1.3980   67.7320   66.3480 N   0  0  0  0  0  4  0  0  0  0  0  0
   -2.8660   67.9650   66.5510 C   0  0  0  0  0  0  0  0  0  0  0  0
   -0.7500   67.1030   67.5390 C   0  0  0  0  0  0  0  0  0  0  0  0
    6.4658   68.6283   62.9675 H   0  0  0  0  0  0  0  0  0  0  0  0
    5.8279   67.5685   64.3050 H   0  0  0  0  0  0  0  0  0  0  0  0
    5.8267   70.3546   64.2874 H   0  0  0  0  0  0  0  0  0  0  0  0
    4.1447   69.9268   63.8146 H   0  0  0  0  0  0  0  0  0  0  0  0
    4.3237   68.2907   65.8496 H   0  0  0  0  0  0  0  0  0  0  0  0
    6.9450   70.5169   66.1834 H   0  0  0  0  0  0  0  0  0  0  0  0
    2.1463   69.2865   68.4584 H   0  0  0  0  0  0  0  0  0  0  0  0
    2.0597   70.2182   66.9250 H   0  0  0  0  0  0  0  0  0  0  0  0
    2.7209   68.5481   66.9250 H   0  0  0  0  0  0  0  0  0  0  0  0
    4.1675   70.4257   68.6662 H   0  0  0  0  0  0  0  0  0  0  0  0
    2.8599   65.9475   63.3441 H   0  0  0  0  0  0  0  0  0  0  0  0
    3.5888   67.0104   64.6217 H   0  0  0  0  0  0  0  0  0  0  0  0
    1.4895   68.6384   61.6410 H   0  0  0  0  0  0  0  0  0  0  0  0
   -0.6657   69.7608   62.8949 H   0  0  0  0  0  0  0  0  0  0  0  0
   -0.0163   69.3314   66.6755 H   0  0  0  0  0  0  0  0  0  0  0  0
   -1.4263   69.7214   65.5968 H   0  0  0  0  0  0  0  0  0  0  0  0
   -1.3182   67.0461   65.5837 H   0  0  0  0  0  0  0  0  0  0  0  0
   -3.0862   67.9999   67.6282 H   0  0  0  0  0  0  0  0  0  0  0  0
   -3.1533   68.9200   66.0868 H   0  0  0  0  0  0  0  0  0  0  0  0
   -3.4349   67.1459   66.0868 H   0  0  0  0  0  0  0  0  0  0  0  0
   -1.1840   67.5243   68.4578 H   0  0  0  0  0  0  0  0  0  0  0  0
   -0.9201   66.0164   67.5179 H   0  0  0  0  0  0  0  0  0  0  0  0
    0.3310   67.3054   67.5179 H   0  0  0  0  0  0  0  0  0  0  0  0
  2  1  1  0
  3  2  1  0
  4  3  1  0
  5  4  2  0
  7  6  1  0
  7  4  1  0
  8  5  1  0
  9  8  2  0
 10  8  1  0
 11  1  1  0
 12 11  1  0
 13 12  1  0
 14 13  2  0
 15 14  1  0
 16 15  2  0
 17 16  1  0
 17 13  1  0
 18 16  1  0
 19 18  1  0
 20 19  1  0
 21 19  1  0
  1 22  1  0
  1 23  1  0
  2 24  1  0
  2 25  1  0
  3 26  1  0
  5 27  1  0
  6 28  1  0
  6 29  1  0
  6 30  1  0
  7 31  1  0
 12 32  1  0
 12 33  1  0
 14 34  1  0
 15 35  1  0
 18 36  1  0
 18 37  1  0
 19 38  1  0
 20 39  1  0
 20 40  1  0
 20 41  1  0
 21 42  1  0
 21 43  1  0
 21 44  1  0
M  CHG  3   8   1  10  -1  19   1
M  END
>  <score>  (1) 
-6.9

$$$$
=
     RDKit          3D

 44 44  0  0  0  0  0  0  0  0999 V2000
    2.0300   66.1310   64.6290 C   0  0  0  0  0  0  0  0  0  0  0  0
    1.8860   67.1420   65.7720 C   0  0  0  0  0  0  0  0  0  0  0  0
    1.0820   68.2800   65.3300 N   0  0  0  0  0  0  0  0  0  0  0  0
   -0.3010   68.4010   65.4250 C   0  0  0  0  0  0  0  0  0  0  0  0
   -0.9470   68.0890   66.5700 C   0  0  0  0  0  0  0  0  0  0  0  0
   -0.2430   69.0380   62.9980 C   0  0  0  0  0  0  0  0  0  0  0  0
   -0.9270   68.8160   64.2610 N   0  0  0  0  0  0  0  0  0  0  0  0
   -2.3750   68.1990   66.7380 N   0  0  0  0  0  4  0  0  0  0  0  0
   -2.9210   67.6830   67.7230 O   0  0  0  0  0  0  0  0  0  0  0  0
   -2.9690   68.8120   65.8430 O   0  0  0  0  0  1  0  0  0  0  0  0
    3.3880   64.9390   64.9020 S   0  0  0  0  0  0  0  0  0  0  0  0
    4.4720   65.3470   63.4940 C   0  0  0  0  0  0  0  0  0  0  0  0
    4.5090   66.8090   63.2260 C   0  0  0  0  0  0  0  0  0  0  0  0
    4.1740   67.5790   62.1320 C   0  0  0  0  0  0  0  0  0  0  0  0
    4.4380   68.9260   62.4870 C   0  0  0  0  0  0  0  0  0  0  0  0
    4.9180   68.8990   63.7780 C   0  0  0  0  0  0  0  0  0  0  0  0
    4.9500   67.6130   64.2380 O   0  0  0  0  0  0  0  0  0  0  0  0
    5.4040   69.9370   64.7220 C   0  0  0  0  0  0  0  0  0  0  0  0
    5.3410   69.4770   66.1630 N   0  0  0  0  0  4  0  0  0  0  0  0
    4.0110   69.7490   66.8010 C   0  0  0  0  0  0  0  0  0  0  0  0
    6.4820   69.9860   66.9840 C   0  0  0  0  0  0  0  0  0  0  0  0
    1.0870   65.5729   64.5330 H   0  0  0  0  0  0  0  0  0  0  0  0
    2.2654   66.6965   63.7154 H   0  0  0  0  0  0  0  0  0  0  0  0
    1.3932   66.6575   66.6278 H   0  0  0  0  0  0  0  0  0  0  0  0
    2.8836   67.4968   66.0700 H   0  0  0  0  0  0  0  0  0  0  0  0
    1.5892   69.0702   64.9065 H   0  0  0  0  0  0  0  0  0  0  0  0
   -0.3501   67.7310   67.4218 H   0  0  0  0  0  0  0  0  0  0  0  0
    0.7868   69.3722   63.1925 H   0  0  0  0  0  0  0  0  0  0  0  0
   -0.2218   68.1006   62.4228 H   0  0  0  0  0  0  0  0  0  0  0  0
   -0.7763   69.8092   62.4228 H   0  0  0  0  0  0  0  0  0  0  0  0
   -1.9437   68.9778   64.2927 H   0  0  0  0  0  0  0  0  0  0  0  0
    5.4917   65.0011   63.7188 H   0  0  0  0  0  0  0  0  0  0  0  0
    4.0708   64.8473   62.5999 H   0  0  0  0  0  0  0  0  0  0  0  0
    3.7788   67.2182   61.1709 H   0  0  0  0  0  0  0  0  0  0  0  0
    4.2892   69.8154   61.8571 H   0  0  0  0  0  0  0  0  0  0  0  0
    6.4475   70.1805   64.4736 H   0  0  0  0  0  0  0  0  0  0  0  0
    4.7514   70.8167   64.6204 H   0  0  0  0  0  0  0  0  0  0  0  0
    5.4426   68.4524   66.1348 H   0  0  0  0  0  0  0  0  0  0  0  0
    4.1181   69.7271   67.8956 H   0  0  0  0  0  0  0  0  0  0  0  0
    3.6498   70.7396   66.4877 H   0  0  0  0  0  0  0  0  0  0  0  0
    3.2898   68.9798   66.4877 H   0  0  0  0  0  0  0  0  0  0  0  0
    6.2417   69.8788   68.0521 H   0  0  0  0  0  0  0  0  0  0  0  0
    7.3878   69.4066   66.7520 H   0  0  0  0  0  0  0  0  0  0  0  0
    6.6560   71.0471   66.7520 H   0  0  0  0  0  0  0  0  0  0  0  0
  2  1  1  0
  3  2  1  0
  4  3  1  0
  5  4  2  0
  7  6  1  0
  7  4  1  0
  8  5  1  0
  9  8  2  0
 10  8  1  0
 11  1  1  0
 12 11  1  0
 13 12  1  0
 14 13  2  0
 15 14  1  0
 16 15  2  0
 17 16  1  0
 17 13  1  0
 18 16  1  0
 19 18  1  0
 20 19  1  0
 21 19  1  0
  1 22  1  0
  1 23  1  0
  2 24  1  0
  2 25  1  0
  3 26  1  0
  5 27  1  0
  6 28  1  0
  6 29  1  0
  6 30  1  0
  7 31  1  0
 12 32  1  0
 12 33  1  0
 14 34  1  0
 15 35  1  0
 18 36  1  0
 18 37  1  0
 19 38  1  0
 20 39  1  0
 20 40  1  0
 20 41  1  0
 21 42  1  0
 21 43  1  0
 21 44  1  0
M  CHG  3   8   1  10  -1  19   1
M  END
>  <score>  (2) 
-6.533

$$$$
=
     RDKit          3D

 44 44  0  0  0  0  0  0  0  0999 V2000
    0.4300   67.4950   68.0590 C   0  0  0  0  0  0  0  0  0  0  0  0
    1.1380   67.1950   69.3850 C   0  0  0  0  0  0  0  0  0  0  0  0
    1.6460   65.8250   69.3780 N   0  0  0  0  0  0  0  0  0  0  0  0
    1.2920   64.8070   70.2600 C   0  0  0  0  0  0  0  0  0  0  0  0
    0.4180   65.0350   71.2660 C   0  0  0  0  0  0  0  0  0  0  0  0
    3.1710   63.1990   70.6790 C   0  0  0  0  0  0  0  0  0  0  0  0
    1.9310   63.5990   70.0370 N   0  0  0  0  0  0  0  0  0  0  0  0
    0.0030   64.0260   72.2090 N   0  0  0  0  0  4  0  0  0  0  0  0
   -0.3120   62.8980   71.8060 O   0  0  0  0  0  0  0  0  0  0  0  0
   -0.0180   64.3850   73.3930 O   0  0  0  0  0  1  0  0  0  0  0  0
    0.8770   69.1260   67.3690 S   0  0  0  0  0  0  0  0  0  0  0  0
    2.4460   69.4360   68.2450 C   0  0  0  0  0  0  0  0  0  0  0  0
    3.5840   69.6030   67.3030 C   0  0  0  0  0  0  0  0  0  0  0  0
    4.8570   70.1170   67.4410 C   0  0  0  0  0  0  0  0  0  0  0  0
    5.4780   70.0070   66.1710 C   0  0  0  0  0  0  0  0  0  0  0  0
    4.5480   69.4330   65.3340 C   0  0  0  0  0  0  0  0  0  0  0  0
    3.3970   69.1710   66.0220 O   0  0  0  0  0  0  0  0  0  0  0  0
    4.5370   69.0720   63.8930 C   0  0  0  0  0  0  0  0  0  0  0  0
    3.5400   67.9760   63.5830 N   0  0  0  0  0  4  0  0  0  0  0  0
    4.1990   66.6780   63.2200 C   0  0  0  0  0  0  0  0  0  0  0  0
    2.5130   68.3930   62.5800 C   0  0  0  0  0  0  0  0  0  0  0  0
    0.7051   66.7181   67.3304 H   0  0  0  0  0  0  0  0  0  0  0  0
   -0.6520   67.5052   68.2570 H   0  0  0  0  0  0  0  0  0  0  0  0
    1.9766   67.8944   69.5172 H   0  0  0  0  0  0  0  0  0  0  0  0
    0.4226   67.3120   70.2124 H   0  0  0  0  0  0  0  0  0  0  0  0
    2.3339   65.5888   68.6487 H   0  0  0  0  0  0  0  0  0  0  0  0
   -0.0000   66.0470   71.3711 H   0  0  0  0  0  0  0  0  0  0  0  0
    3.0478   63.2388   71.7714 H   0  0  0  0  0  0  0  0  0  0  0  0
    3.4264   62.1729   70.3759 H   0  0  0  0  0  0  0  0  0  0  0  0
    3.9779   63.8824   70.3759 H   0  0  0  0  0  0  0  0  0  0  0  0
    1.4989   62.9412   69.3726 H   0  0  0  0  0  0  0  0  0  0  0  0
    2.3434   70.3525   68.8445 H   0  0  0  0  0  0  0  0  0  0  0  0
    2.6573   68.5656   68.8836 H   0  0  0  0  0  0  0  0  0  0  0  0
    5.3030   70.5312   68.3572 H   0  0  0  0  0  0  0  0  0  0  0  0
    6.4995   70.3183   65.9072 H   0  0  0  0  0  0  0  0  0  0  0  0
    4.2748   69.9650   63.3066 H   0  0  0  0  0  0  0  0  0  0  0  0
    5.5385   68.6997   63.6317 H   0  0  0  0  0  0  0  0  0  0  0  0
    3.0302   67.8050   64.4615 H   0  0  0  0  0  0  0  0  0  0  0  0
    4.4737   66.1370   64.1376 H   0  0  0  0  0  0  0  0  0  0  0  0
    3.5024   66.0661   62.6281 H   0  0  0  0  0  0  0  0  0  0  0  0
    5.1041   66.8792   62.6281 H   0  0  0  0  0  0  0  0  0  0  0  0
    1.6164   68.7571   63.1030 H   0  0  0  0  0  0  0  0  0  0  0  0
    2.9213   69.1966   61.9495 H   0  0  0  0  0  0  0  0  0  0  0  0
    2.2456   67.5322   61.9495 H   0  0  0  0  0  0  0  0  0  0  0  0
  2  1  1  0
  3  2  1  0
  4  3  1  0
  5  4  2  0
  7  6  1  0
  7  4  1  0
  8  5  1  0
  9  8  2  0
 10  8  1  0
 11  1  1  0
 12 11  1  0
 13 12  1  0
 14 13  2  0
 15 14  1  0
 16 15  2  0
 17 16  1  0
 17 13  1  0
 18 16  1  0
 19 18  1  0
 20 19  1  0
 21 19  1  0
  1 22  1  0
  1 23  1  0
  2 24  1  0
  2 25  1  0
  3 26  1  0
  5 27  1  0
  6 28  1  0
  6 29  1  0
  6 30  1  0
  7 31  1  0
 12 32  1  0
 12 33  1  0
 14 34  1  0
 15 35  1  0
 18 36  1  0
 18 37  1  0
 19 38  1  0
 20 39  1  0
 20 40  1  0
 20 41  1  0
 21 42  1  0
 21 43  1  0
 21 44  1  0
M  CHG  3   8   1  10  -1  19   1
M  END
>  <score>  (3) 
-6.41

$$$$
=
     RDKit          3D

 44 44  0  0  0  0  0  0  0  0999 V2000
   -0.0550   67.6460   66.8680 C   0  0  0  0  0  0  0  0  0  0  0  0
    1.4530   67.4870   66.6450 C   0  0  0  0  0  0  0  0  0  0  0  0
    1.7010   66.4380   65.6580 N   0  0  0  0  0  0  0  0  0  0  0  0
    2.7750   66.3710   64.7760 C   0  0  0  0  0  0  0  0  0  0  0  0
    3.2920   65.1800   64.4030 C   0  0  0  0  0  0  0  0  0  0  0  0
    2.6220   68.4550   63.3860 C   0  0  0  0  0  0  0  0  0  0  0  0
    3.2670   67.6000   64.3680 N   0  0  0  0  0  0  0  0  0  0  0  0
    4.3980   65.0380   63.4880 N   0  0  0  0  0  4  0  0  0  0  0  0
    4.5220   65.8300   62.5440 O   0  0  0  0  0  0  0  0  0  0  0  0
    5.1600   64.0910   63.7200 O   0  0  0  0  0  1  0  0  0  0  0  0
   -0.6310   66.8560   68.4120 S   0  0  0  0  0  0  0  0  0  0  0  0
    0.9170   66.8450   69.3740 C   0  0  0  0  0  0  0  0  0  0  0  0
    1.0180   65.6480   70.2510 C   0  0  0  0  0  0  0  0  0  0  0  0
    0.2470   65.1700   71.2900 C   0  0  0  0  0  0  0  0  0  0  0  0
    0.8640   63.9740   71.7370 C   0  0  0  0  0  0  0  0  0  0  0  0
    1.9750   63.7930   70.9420 C   0  0  0  0  0  0  0  0  0  0  0  0
    2.0650   64.8020   70.0260 O   0  0  0  0  0  0  0  0  0  0  0  0
    3.0560   62.7760   70.8940 C   0  0  0  0  0  0  0  0  0  0  0  0
    2.5260   61.3890   70.5950 N   0  0  0  0  0  4  0  0  0  0  0  0
    2.2760   60.5840   71.8350 C   0  0  0  0  0  0  0  0  0  0  0  0
    3.3610   60.6530   69.5960 C   0  0  0  0  0  0  0  0  0  0  0  0
   -0.2922   68.7192   66.9128 H   0  0  0  0  0  0  0  0  0  0  0  0
   -0.5673   67.1489   66.0311 H   0  0  0  0  0  0  0  0  0  0  0  0
    1.8701   68.4372   66.2803 H   0  0  0  0  0  0  0  0  0  0  0  0
    1.9330   67.2113   67.5956 H   0  0  0  0  0  0  0  0  0  0  0  0
    1.0130   65.6730   65.6107 H   0  0  0  0  0  0  0  0  0  0  0  0
    2.8440   64.2664   64.8209 H   0  0  0  0  0  0  0  0  0  0  0  0
    2.0371   69.2303   63.9026 H   0  0  0  0  0  0  0  0  0  0  0  0
    3.3873   68.9319   62.7560 H   0  0  0  0  0  0  0  0  0  0  0  0
    1.9533   67.8501   62.7560 H   0  0  0  0  0  0  0  0  0  0  0  0
    4.1478   67.9293   64.7883 H   0  0  0  0  0  0  0  0  0  0  0  0
    1.7683   66.8480   68.6774 H   0  0  0  0  0  0  0  0  0  0  0  0
    0.9254   67.7386   70.0155 H   0  0  0  0  0  0  0  0  0  0  0  0
   -0.6684   65.6275   71.6934 H   0  0  0  0  0  0  0  0  0  0  0  0
    0.5239   63.3214   72.5546 H   0  0  0  0  0  0  0  0  0  0  0  0
    3.7726   63.0580   70.1086 H   0  0  0  0  0  0  0  0  0  0  0  0
    3.5359   62.7473   71.8834 H   0  0  0  0  0  0  0  0  0  0  0  0
    1.6064   61.5295   70.1529 H   0  0  0  0  0  0  0  0  0  0  0  0
    2.4692   61.2062   72.7213 H   0  0  0  0  0  0  0  0  0  0  0  0
    1.2299   60.2440   71.8467 H   0  0  0  0  0  0  0  0  0  0  0  0
    2.9454   59.7112   71.8467 H   0  0  0  0  0  0  0  0  0  0  0  0
    4.0854   60.0145   70.1229 H   0  0  0  0  0  0  0  0  0  0  0  0
    2.7120   60.0278   68.9652 H   0  0  0  0  0  0  0  0  0  0  0  0
    3.8998   61.3754   68.9652 H   0  0  0  0  0  0  0  0  0  0  0  0
  2  1  1  0
  3  2  1  0
  4  3  1  0
  5  4  2  0
  7  6  1  0
  7  4  1  0
  8  5  1  0
  9  8  2  0
 10  8  1  0
 11  1  1  0
 12 11  1  0
 13 12  1  0
 14 13  2  0
 15 14  1  0
 16 15  2  0
 17 16  1  0
 17 13  1  0
 18 16  1  0
 19 18  1  0
 20 19  1  0
 21 19  1  0
  1 22  1  0
  1 23  1  0
  2 24  1  0
  2 25  1  0
  3 26  1  0
  5 27  1  0
  6 28  1  0
  6 29  1  0
  6 30  1  0
  7 31  1  0
 12 32  1  0
 12 33  1  0
 14 34  1  0
 15 35  1  0
 18 36  1  0
 18 37  1  0
 19 38  1  0
 20 39  1  0
 20 40  1  0
 20 41  1  0
 21 42  1  0
 21 43  1  0
 21 44  1  0
M  CHG  3   8   1  10  -1  19   1
M  END
>  <score>  (4) 
-6.372

$$$$
=
     RDKit          3D

 44 44  0  0  0  0  0  0  0  0999 V2000
    3.2780   66.5990   63.8890 C   0  0  0  0  0  0  0  0  0  0  0  0
    1.9530   66.1290   64.4980 C   0  0  0  0  0  0  0  0  0  0  0  0
    1.8470   66.6000   65.8780 N   0  0  0  0  0  0  0  0  0  0  0  0
    0.7570   67.2530   66.4460 C   0  0  0  0  0  0  0  0  0  0  0  0
    0.1160   68.2390   65.7800 C   0  0  0  0  0  0  0  0  0  0  0  0
    1.0790   67.3310   68.9330 C   0  0  0  0  0  0  0  0  0  0  0  0
    0.4360   66.8370   67.7280 N   0  0  0  0  0  0  0  0  0  0  0  0
   -1.0220   68.9510   66.3060 N   0  0  0  0  0  4  0  0  0  0  0  0
   -2.1470   68.7550   65.8280 O   0  0  0  0  0  0  0  0  0  0  0  0
   -0.7730   69.7450   67.2230 O   0  0  0  0  0  1  0  0  0  0  0  0
    3.1090   68.1440   62.9280 S   0  0  0  0  0  0  0  0  0  0  0  0
    4.6240   69.0190   63.4420 C   0  0  0  0  0  0  0  0  0  0  0  0
    4.5760   69.4210   64.8720 C   0  0  0  0  0  0  0  0  0  0  0  0
    3.6030   69.3350   65.8460 C   0  0  0  0  0  0  0  0  0  0  0  0
    4.1560   69.8980   67.0240 C   0  0  0  0  0  0  0  0  0  0  0  0
    5.4350   70.2940   66.6990 C   0  0  0  0  0  0  0  0  0  0  0  0
    5.7010   69.9920   65.3940 O   0  0  0  0  0  0  0  0  0  0  0  0
    6.5290   70.9680   67.4440 C   0  0  0  0  0  0  0  0  0  0  0  0
    6.6150   70.5030   68.8820 N   0  0  0  0  0  4  0  0  0  0  0  0
    5.3530   70.7580   69.6510 C   0  0  0  0  0  0  0  0  0  0  0  0
    7.8270   71.0220   69.5870 C   0  0  0  0  0  0  0  0  0  0  0  0
    3.9980   66.7688   64.7031 H   0  0  0  0  0  0  0  0  0  0  0  0
    3.6203   65.8152   63.1973 H   0  0  0  0  0  0  0  0  0  0  0  0
    1.1167   66.5334   63.9089 H   0  0  0  0  0  0  0  0  0  0  0  0
    1.9177   65.0296   64.4860 H   0  0  0  0  0  0  0  0  0  0  0  0
    2.6584   66.4321   66.4898 H   0  0  0  0  0  0  0  0  0  0  0  0
    0.4833   68.5138   64.7802 H   0  0  0  0  0  0  0  0  0  0  0  0
    0.5590   66.9315   69.8162 H   0  0  0  0  0  0  0  0  0  0  0  0
    2.1297   67.0056   68.9477 H   0  0  0  0  0  0  0  0  0  0  0  0
    1.0353   68.4300   68.9477 H   0  0  0  0  0  0  0  0  0  0  0  0
   -0.3070   66.1315   67.8334 H   0  0  0  0  0  0  0  0  0  0  0  0
    5.4873   68.3548   63.2885 H   0  0  0  0  0  0  0  0  0  0  0  0
    4.7119   69.9320   62.8349 H   0  0  0  0  0  0  0  0  0  0  0  0
    2.5941   68.9119   65.7311 H   0  0  0  0  0  0  0  0  0  0  0  0
    3.6625   69.9985   68.0019 H   0  0  0  0  0  0  0  0  0  0  0  0
    7.4842   70.7502   66.9439 H   0  0  0  0  0  0  0  0  0  0  0  0
    6.3167   72.0473   67.4511 H   0  0  0  0  0  0  0  0  0  0  0  0
    6.7238   69.4797   68.8393 H   0  0  0  0  0  0  0  0  0  0  0  0
    5.5657   70.7150   70.7294 H   0  0  0  0  0  0  0  0  0  0  0  0
    4.9617   71.7534   69.3938 H   0  0  0  0  0  0  0  0  0  0  0  0
    4.6059   69.9927   69.3938 H   0  0  0  0  0  0  0  0  0  0  0  0
    7.6747   70.9568   70.6744 H   0  0  0  0  0  0  0  0  0  0  0  0
    8.7026   70.4199   69.3026 H   0  0  0  0  0  0  0  0  0  0  0  0
    7.9955   72.0712   69.3026 H   0  0  0  0  0  0  0  0  0  0  0  0
  2  1  1  0
  3  2  1  0
  4  3  1  0
  5  4  2  0
  7  6  1  0
  7  4  1  0
  8  5  1  0
  9  8  2  0
 10  8  1  0
 11  1  1  0
 12 11  1  0
 13 12  1  0
 14 13  2  0
 15 14  1  0
 16 15  2  0
 17 16  1  0
 17 13  1  0
 18 16  1  0
 19 18  1  0
 20 19  1  0
 21 19  1  0
  1 22  1  0
  1 23  1  0
  2 24  1  0
  2 25  1  0
  3 26  1  0
  5 27  1  0
  6 28  1  0
  6 29  1  0
  6 30  1  0
  7 31  1  0
 12 32  1  0
 12 33  1  0
 14 34  1  0
 15 35  1  0
 18 36  1  0
 18 37  1  0
 19 38  1  0
 20 39  1  0
 20 40  1  0
 20 41  1  0
 21 42  1  0
 21 43  1  0
 21 44  1  0
M  CHG  3   8   1  10  -1  19   1
M  END
>  <score>  (5) 
-6.221

$$$$
=
     RDKit          3D

 44 44  0  0  0  0  0  0  0  0999 V2000
    0.7280   67.8160   66.8700 C   0  0  0  0  0  0  0  0  0  0  0  0
    1.8190   68.8300   67.2290 C   0  0  0  0  0  0  0  0  0  0  0  0
    2.8820   68.7920   66.2270 N   0  0  0  0  0  0  0  0  0  0  0  0
    4.0920   69.4770   66.2790 C   0  0  0  0  0  0  0  0  0  0  0  0
    4.5380   70.0100   67.4390 C   0  0  0  0  0  0  0  0  0  0  0  0
    5.4560   68.5040   64.4120 C   0  0  0  0  0  0  0  0  0  0  0  0
    4.7470   69.5910   65.0630 N   0  0  0  0  0  0  0  0  0  0  0  0
    5.7840   70.7250   67.5650 N   0  0  0  0  0  4  0  0  0  0  0  0
    6.8500   70.1600   67.2840 O   0  0  0  0  0  0  0  0  0  0  0  0
    5.6870   71.8890   67.9730 O   0  0  0  0  0  1  0  0  0  0  0  0
   -0.1860   67.2090   68.3300 S   0  0  0  0  0  0  0  0  0  0  0  0
    1.1900   66.9500   69.4970 C   0  0  0  0  0  0  0  0  0  0  0  0
    1.1050   65.6290   70.1730 C   0  0  0  0  0  0  0  0  0  0  0  0
    0.4030   65.1700   71.2680 C   0  0  0  0  0  0  0  0  0  0  0  0
    0.7450   63.8040   71.4270 C   0  0  0  0  0  0  0  0  0  0  0  0
    1.6360   63.5090   70.4180 C   0  0  0  0  0  0  0  0  0  0  0  0
    1.8470   64.6130   69.6430 O   0  0  0  0  0  0  0  0  0  0  0  0
    2.3920   62.2900   70.0310 C   0  0  0  0  0  0  0  0  0  0  0  0
    3.6760   62.1380   70.8190 N   0  0  0  0  0  4  0  0  0  0  0  0
    3.4390   62.0020   72.2930 C   0  0  0  0  0  0  0  0  0  0  0  0
    4.6810   63.1970   70.4980 C   0  0  0  0  0  0  0  0  0  0  0  0
    0.0147   68.2960   66.1839 H   0  0  0  0  0  0  0  0  0  0  0  0
    1.2222   66.9496   66.4062 H   0  0  0  0  0  0  0  0  0  0  0  0
    1.3829   69.8394   67.2601 H   0  0  0  0  0  0  0  0  0  0  0  0
    2.2396   68.5764   68.2132 H   0  0  0  0  0  0  0  0  0  0  0  0
    2.7194   68.1994   65.4004 H   0  0  0  0  0  0  0  0  0  0  0  0
    3.9149   69.8914   68.3377 H   0  0  0  0  0  0  0  0  0  0  0  0
    5.8891   67.8400   65.1746 H   0  0  0  0  0  0  0  0  0  0  0  0
    4.7558   67.9336   63.7841 H   0  0  0  0  0  0  0  0  0  0  0  0
    6.2603   68.9149   63.7841 H   0  0  0  0  0  0  0  0  0  0  0  0
    4.7297   70.5061   64.5905 H   0  0  0  0  0  0  0  0  0  0  0  0
    2.1396   67.0059   68.9446 H   0  0  0  0  0  0  0  0  0  0  0  0
    1.1326   67.7313   70.2691 H   0  0  0  0  0  0  0  0  0  0  0  0
   -0.2881   65.7514   71.8959 H   0  0  0  0  0  0  0  0  0  0  0  0
    0.3735   63.1165   72.2012 H   0  0  0  0  0  0  0  0  0  0  0  0
    1.7592   61.4086   70.2118 H   0  0  0  0  0  0  0  0  0  0  0  0
    2.6577   62.3813   68.9675 H   0  0  0  0  0  0  0  0  0  0  0  0
    4.0903   61.2467   70.5111 H   0  0  0  0  0  0  0  0  0  0  0  0
    4.2655   62.4763   72.8426 H   0  0  0  0  0  0  0  0  0  0  0  0
    2.4918   62.4940   72.5590 H   0  0  0  0  0  0  0  0  0  0  0  0
    3.3858   60.9360   72.5590 H   0  0  0  0  0  0  0  0  0  0  0  0
    5.0808   63.6183   71.4322 H   0  0  0  0  0  0  0  0  0  0  0  0
    5.5023   62.7577   69.9128 H   0  0  0  0  0  0  0  0  0  0  0  0
    4.1994   63.9942   69.9128 H   0  0  0  0  0  0  0  0  0  0  0  0
  2  1  1  0
  3  2  1  0
  4  3  1  0
  5  4  2  0
  7  6  1  0
  7  4  1  0
  8  5  1  0
  9  8  2  0
 10  8  1  0
 11  1  1  0
 12 11  1  0
 13 12  1  0
 14 13  2  0
 15 14  1  0
 16 15  2  0
 17 16  1  0
 17 13  1  0
 18 16  1  0
 19 18  1  0
 20 19  1  0
 21 19  1  0
  1 22  1  0
  1 23  1  0
  2 24  1  0
  2 25  1  0
  3 26  1  0
  5 27  1  0
  6 28  1  0
  6 29  1  0
  6 30  1  0
  7 31  1  0
 12 32  1  0
 12 33  1  0
 14 34  1  0
 15 35  1  0
 18 36  1  0
 18 37  1  0
 19 38  1  0
 20 39  1  0
 20 40  1  0
 20 41  1  0
 21 42  1  0
 21 43  1  0
 21 44  1  0
M  CHG  3   8   1  10  -1  19   1
M  END
>  <score>  (6) 
-6.189

$$$$
=
     RDKit          3D

 44 44  0  0  0  0  0  0  0  0999 V2000
    0.2070   67.2170   68.2840 C   0  0  0  0  0  0  0  0  0  0  0  0
    1.2000   66.9920   69.4300 C   0  0  0  0  0  0  0  0  0  0  0  0
    0.6600   66.0090   70.3680 N   0  0  0  0  0  0  0  0  0  0  0  0
    1.2340   64.7870   70.7060 C   0  0  0  0  0  0  0  0  0  0  0  0
    2.2330   64.2620   69.9630 C   0  0  0  0  0  0  0  0  0  0  0  0
   -0.0890   62.9330   71.7580 C   0  0  0  0  0  0  0  0  0  0  0  0
    0.6720   64.1690   71.8110 N   0  0  0  0  0  0  0  0  0  0  0  0
    2.8760   63.0060   70.2610 N   0  0  0  0  0  4  0  0  0  0  0  0
    3.5530   62.8890   71.2910 O   0  0  0  0  0  0  0  0  0  0  0  0
    2.7050   62.1120   69.4220 O   0  0  0  0  0  1  0  0  0  0  0  0
    0.3640   68.8710   67.5250 S   0  0  0  0  0  0  0  0  0  0  0  0
    1.9610   69.4050   68.2230 C   0  0  0  0  0  0  0  0  0  0  0  0
    3.0330   69.4440   67.1940 C   0  0  0  0  0  0  0  0  0  0  0  0
    4.3420   69.8770   67.2070 C   0  0  0  0  0  0  0  0  0  0  0  0
    4.8570   69.6570   65.9050 C   0  0  0  0  0  0  0  0  0  0  0  0
    3.8310   69.1000   65.1730 C   0  0  0  0  0  0  0  0  0  0  0  0
    2.7220   68.9550   65.9570 O   0  0  0  0  0  0  0  0  0  0  0  0
    3.6880   68.6620   63.7610 C   0  0  0  0  0  0  0  0  0  0  0  0
    4.4070   67.3570   63.4900 N   0  0  0  0  0  4  0  0  0  0  0  0
    4.8330   67.2160   62.0590 C   0  0  0  0  0  0  0  0  0  0  0  0
    3.6470   66.1660   63.9790 C   0  0  0  0  0  0  0  0  0  0  0  0
    0.3861   66.4566   67.5096 H   0  0  0  0  0  0  0  0  0  0  0  0
   -0.8066   67.1407   68.7046 H   0  0  0  0  0  0  0  0  0  0  0  0
    2.1518   66.6220   69.0210 H   0  0  0  0  0  0  0  0  0  0  0  0
    1.3675   67.9428   69.9571 H   0  0  0  0  0  0  0  0  0  0  0  0
   -0.2334   66.2441   70.8236 H   0  0  0  0  0  0  0  0  0  0  0  0
    2.5750   64.8241   69.0815 H   0  0  0  0  0  0  0  0  0  0  0  0
   -0.3010   62.5888   72.7810 H   0  0  0  0  0  0  0  0  0  0  0  0
   -1.0360   63.1080   71.2264 H   0  0  0  0  0  0  0  0  0  0  0  0
    0.4936   62.1662   71.2264 H   0  0  0  0  0  0  0  0  0  0  0  0
    0.8023   64.6151   72.7302 H   0  0  0  0  0  0  0  0  0  0  0  0
    1.8428   70.4114   68.6511 H   0  0  0  0  0  0  0  0  0  0  0  0
    2.2556   68.6771   68.9933 H   0  0  0  0  0  0  0  0  0  0  0  0
    4.8820   70.3094   68.0622 H   0  0  0  0  0  0  0  0  0  0  0  0
    5.8727   69.8853   65.5498 H   0  0  0  0  0  0  0  0  0  0  0  0
    2.6190   68.5302   63.5378 H   0  0  0  0  0  0  0  0  0  0  0  0
    4.1390   69.4347   63.1210 H   0  0  0  0  0  0  0  0  0  0  0  0
    5.2736   67.3928   64.0456 H   0  0  0  0  0  0  0  0  0  0  0  0
    5.8766   66.8706   62.0194 H   0  0  0  0  0  0  0  0  0  0  0  0
    4.1852   66.4843   61.5540 H   0  0  0  0  0  0  0  0  0  0  0  0
    4.7496   68.1897   61.5540 H   0  0  0  0  0  0  0  0  0  0  0  0
    3.6431   66.1599   65.0790 H   0  0  0  0  0  0  0  0  0  0  0  0
    2.6122   66.2141   63.6089 H   0  0  0  0  0  0  0  0  0  0  0  0
    4.1265   65.2478   63.6089 H   0  0  0  0  0  0  0  0  0  0  0  0
  2  1  1  0
  3  2  1  0
  4  3  1  0
  5  4  2  0
  7  6  1  0
  7  4  1  0
  8  5  1  0
  9  8  2  0
 10  8  1  0
 11  1  1  0
 12 11  1  0
 13 12  1  0
 14 13  2  0
 15 14  1  0
 16 15  2  0
 17 16  1  0
 17 13  1  0
 18 16  1  0
 19 18  1  0
 20 19  1  0
 21 19  1  0
  1 22  1  0
  1 23  1  0
  2 24  1  0
  2 25  1  0
  3 26  1  0
  5 27  1  0
  6 28  1  0
  6 29  1  0
  6 30  1  0
  7 31  1  0
 12 32  1  0
 12 33  1  0
 14 34  1  0
 15 35  1  0
 18 36  1  0
 18 37  1  0
 19 38  1  0
 20 39  1  0
 20 40  1  0
 20 41  1  0
 21 42  1  0
 21 43  1  0
 21 44  1  0
M  CHG  3   8   1  10  -1  19   1
M  END
>  <score>  (7) 
-6.092

$$$$
=
     RDKit          3D

 44 44  0  0  0  0  0  0  0  0999 V2000
    0.3760   65.9710   70.7810 C   0  0  0  0  0  0  0  0  0  0  0  0
    0.8440   66.7830   69.5690 C   0  0  0  0  0  0  0  0  0  0  0  0
   -0.1570   66.7130   68.5070 N   0  0  0  0  0  0  0  0  0  0  0  0
   -0.0230   67.2020   67.2110 C   0  0  0  0  0  0  0  0  0  0  0  0
    1.1870   67.5640   66.7290 C   0  0  0  0  0  0  0  0  0  0  0  0
   -2.0080   68.5290   66.4410 C   0  0  0  0  0  0  0  0  0  0  0  0
   -1.2120   67.3160   66.5090 N   0  0  0  0  0  0  0  0  0  0  0  0
    1.3970   68.0720   65.3960 N   0  0  0  0  0  4  0  0  0  0  0  0
    0.7730   67.5830   64.4440 O   0  0  0  0  0  0  0  0  0  0  0  0
    2.2290   68.9830   65.3010 O   0  0  0  0  0  1  0  0  0  0  0  0
    0.7290   64.1860   70.6190 S   0  0  0  0  0  0  0  0  0  0  0  0
    2.5520   64.2070   70.6530 C   0  0  0  0  0  0  0  0  0  0  0  0
    3.1310   62.9050   70.2270 C   0  0  0  0  0  0  0  0  0  0  0  0
    3.4060   62.3510   68.9940 C   0  0  0  0  0  0  0  0  0  0  0  0
    3.9530   61.0660   69.2390 C   0  0  0  0  0  0  0  0  0  0  0  0
    3.9800   60.9130   70.6080 C   0  0  0  0  0  0  0  0  0  0  0  0
    3.4940   62.0360   71.2150 O   0  0  0  0  0  0  0  0  0  0  0  0
    4.3960   59.8140   71.5170 C   0  0  0  0  0  0  0  0  0  0  0  0
    3.3050   59.4350   72.4960 N   0  0  0  0  0  4  0  0  0  0  0  0
    3.7750   59.4480   73.9200 C   0  0  0  0  0  0  0  0  0  0  0  0
    2.6190   58.1560   72.1330 C   0  0  0  0  0  0  0  0  0  0  0  0
    0.8889   66.3504   71.6771 H   0  0  0  0  0  0  0  0  0  0  0  0
   -0.7154   66.0866   70.8547 H   0  0  0  0  0  0  0  0  0  0  0  0
    0.9875   67.8323   69.8663 H   0  0  0  0  0  0  0  0  0  0  0  0
    1.7934   66.3680   69.1997 H   0  0  0  0  0  0  0  0  0  0  0  0
   -1.0503   66.2565   68.7407 H   0  0  0  0  0  0  0  0  0  0  0  0
    2.0602   67.4655   67.3907 H   0  0  0  0  0  0  0  0  0  0  0  0
   -2.2356   68.8758   67.4598 H   0  0  0  0  0  0  0  0  0  0  0  0
   -1.4447   69.3077   65.9059 H   0  0  0  0  0  0  0  0  0  0  0  0
   -2.9465   68.3222   65.9059 H   0  0  0  0  0  0  0  0  0  0  0  0
   -1.5536   66.4868   66.0025 H   0  0  0  0  0  0  0  0  0  0  0  0
    2.9110   64.9947   69.9743 H   0  0  0  0  0  0  0  0  0  0  0  0
    2.8709   64.3988   71.6881 H   0  0  0  0  0  0  0  0  0  0  0  0
    3.2343   62.8157   68.0119 H   0  0  0  0  0  0  0  0  0  0  0  0
    4.2886   60.3371   68.4866 H   0  0  0  0  0  0  0  0  0  0  0  0
    4.6506   58.9314   70.9118 H   0  0  0  0  0  0  0  0  0  0  0  0
    5.2617   60.1662   72.0971 H   0  0  0  0  0  0  0  0  0  0  0  0
    2.5914   60.1740   72.4212 H   0  0  0  0  0  0  0  0  0  0  0  0
    2.9055   59.4239   74.5933 H   0  0  0  0  0  0  0  0  0  0  0  0
    4.4070   58.5670   74.1056 H   0  0  0  0  0  0  0  0  0  0  0  0
    4.3573   60.3626   74.1056 H   0  0  0  0  0  0  0  0  0  0  0  0
    2.3319   57.6208   73.0501 H   0  0  0  0  0  0  0  0  0  0  0  0
    1.7189   58.3779   71.5410 H   0  0  0  0  0  0  0  0  0  0  0  0
    3.3018   57.5289   71.5410 H   0  0  0  0  0  0  0  0  0  0  0  0
  2  1  1  0
  3  2  1  0
  4  3  1  0
  5  4  2  0
  7  6  1  0
  7  4  1  0
  8  5  1  0
  9  8  2  0
 10  8  1  0
 11  1  1  0
 12 11  1  0
 13 12  1  0
 14 13  2  0
 15 14  1  0
 16 15  2  0
 17 16  1  0
 17 13  1  0
 18 16  1  0
 19 18  1  0
 20 19  1  0
 21 19  1  0
  1 22  1  0
  1 23  1  0
  2 24  1  0
  2 25  1  0
  3 26  1  0
  5 27  1  0
  6 28  1  0
  6 29  1  0
  6 30  1  0
  7 31  1  0
 12 32  1  0
 12 33  1  0
 14 34  1  0
 15 35  1  0
 18 36  1  0
 18 37  1  0
 19 38  1  0
 20 39  1  0
 20 40  1  0
 20 41  1  0
 21 42  1  0
 21 43  1  0
 21 44  1  0
M  CHG  3   8   1  10  -1  19   1
M  END
>  <score>  (8) 
-6.067

$$$$
=
     RDKit          3D

 44 44  0  0  0  0  0  0  0  0999 V2000
    0.3960   68.6830   65.3460 C   0  0  0  0  0  0  0  0  0  0  0  0
    1.6660   67.8420   65.5140 C   0  0  0  0  0  0  0  0  0  0  0  0
    2.7740   68.4670   64.7950 N   0  0  0  0  0  0  0  0  0  0  0  0
    3.8490   69.1460   65.3620 C   0  0  0  0  0  0  0  0  0  0  0  0
    3.8320   69.5050   66.6650 C   0  0  0  0  0  0  0  0  0  0  0  0
    4.8230   69.1990   63.0500 C   0  0  0  0  0  0  0  0  0  0  0  0
    4.8770   69.4420   64.4810 N   0  0  0  0  0  0  0  0  0  0  0  0
    4.9130   70.2020   67.3160 N   0  0  0  0  0  4  0  0  0  0  0  0
    6.0860   69.9130   67.0450 O   0  0  0  0  0  0  0  0  0  0  0  0
    4.5690   71.0610   68.1380 O   0  0  0  0  0  1  0  0  0  0  0  0
   -0.4640   68.9940   66.9280 S   0  0  0  0  0  0  0  0  0  0  0  0
   -0.8970   67.2890   67.4070 C   0  0  0  0  0  0  0  0  0  0  0  0
   -0.0470   66.7910   68.5200 C   0  0  0  0  0  0  0  0  0  0  0  0
    1.0930   67.2750   69.1290 C   0  0  0  0  0  0  0  0  0  0  0  0
    1.4430   66.3400   70.1360 C   0  0  0  0  0  0  0  0  0  0  0  0
    0.4950   65.3420   70.0830 C   0  0  0  0  0  0  0  0  0  0  0  0
   -0.4230   65.6190   69.1100 O   0  0  0  0  0  0  0  0  0  0  0  0
    0.2890   64.0720   70.8270 C   0  0  0  0  0  0  0  0  0  0  0  0
    1.3440   63.8540   71.8910 N   0  0  0  0  0  4  0  0  0  0  0  0
    2.4460   62.9440   71.4360 C   0  0  0  0  0  0  0  0  0  0  0  0
    0.7640   63.4350   73.2040 C   0  0  0  0  0  0  0  0  0  0  0  0
    0.6716   69.6501   64.9001 H   0  0  0  0  0  0  0  0  0  0  0  0
   -0.2924   68.1169   64.7013 H   0  0  0  0  0  0  0  0  0  0  0  0
    1.9180   67.7711   66.5824 H   0  0  0  0  0  0  0  0  0  0  0  0
    1.4909   66.8355   65.1062 H   0  0  0  0  0  0  0  0  0  0  0  0
    2.7581   68.3984   63.7674 H   0  0  0  0  0  0  0  0  0  0  0  0
    2.9437   69.2511   67.2620 H   0  0  0  0  0  0  0  0  0  0  0  0
    4.5877   68.1402   62.8665 H   0  0  0  0  0  0  0  0  0  0  0  0
    4.0434   69.8312   62.5999 H   0  0  0  0  0  0  0  0  0  0  0  0
    5.7969   69.4415   62.5999 H   0  0  0  0  0  0  0  0  0  0  0  0
    5.7352   69.8616   64.8660 H   0  0  0  0  0  0  0  0  0  0  0  0
   -1.9495   67.2661   67.7261 H   0  0  0  0  0  0  0  0  0  0  0  0
   -0.7315   66.6386   66.5355 H   0  0  0  0  0  0  0  0  0  0  0  0
    1.6262   68.2048   68.8815 H   0  0  0  0  0  0  0  0  0  0  0  0
    2.3004   66.3997   70.8225 H   0  0  0  0  0  0  0  0  0  0  0  0
   -0.6994   64.1002   71.3089 H   0  0  0  0  0  0  0  0  0  0  0  0
    0.3601   63.2437   70.1067 H   0  0  0  0  0  0  0  0  0  0  0  0
    1.7776   64.7747   72.0496 H   0  0  0  0  0  0  0  0  0  0  0  0
    2.9580   62.5212   72.3130 H   0  0  0  0  0  0  0  0  0  0  0  0
    2.0222   62.1292   70.8307 H   0  0  0  0  0  0  0  0  0  0  0  0
    3.1660   63.5142   70.8307 H   0  0  0  0  0  0  0  0  0  0  0  0
    1.3600   63.8655   74.0222 H   0  0  0  0  0  0  0  0  0  0  0  0
   -0.2733   63.7937   73.2778 H   0  0  0  0  0  0  0  0  0  0  0  0
    0.7786   62.3376   73.2778 H   0  0  0  0  0  0  0  0  0  0  0  0
  2  1  1  0
  3  2  1  0
  4  3  1  0
  5  4  2  0
  7  6  1  0
  7  4  1  0
  8  5  1  0
  9  8  2  0
 10  8  1  0
 11  1  1  0
 12 11  1  0
 13 12  1  0
 14 13  2  0
 15 14  1  0
 16 15  2  0
 17 16  1  0
 17 13  1  0
 18 16  1  0
 19 18  1  0
 20 19  1  0
 21 19  1  0
  1 22  1  0
  1 23  1  0
  2 24  1  0
  2 25  1  0
  3 26  1  0
  5 27  1  0
  6 28  1  0
  6 29  1  0
  6 30  1  0
  7 31  1  0
 12 32  1  0
 12 33  1  0
 14 34  1  0
 15 35  1  0
 18 36  1  0
 18 37  1  0
 19 38  1  0
 20 39  1  0
 20 40  1  0
 20 41  1  0
 21 42  1  0
 21 43  1  0
 21 44  1  0
M  CHG  3   8   1  10  -1  19   1
M  END
>  <score>  (9) 
-6.032

$$$$
