=
     RDKit          3D

 55 58  0  0  0  0  0  0  0  0999 V2000
    2.7930   61.6380   73.2190 C   0  0  0  0  0  0  0  0  0  0  0  0
    1.7120   62.5240   73.1910 C   0  0  0  0  0  0  0  0  0  0  0  0
    1.5910   63.3530   72.0910 C   0  0  0  0  0  0  0  0  0  0  0  0
    2.4820   63.3450   71.0320 C   0  0  0  0  0  0  0  0  0  0  0  0
    3.5620   62.4750   71.0450 C   0  0  0  0  0  0  0  0  0  0  0  0
    3.7220   61.6120   72.1420 C   0  0  0  0  0  0  0  0  0  0  0  0
    2.1460   64.3670   69.9930 C   0  0  0  0  0  0  0  0  0  0  0  0
    0.7680   64.9260   70.4280 C   0  0  1  0  0  0  0  0  0  0  0  0
    0.5630   64.3490   71.8210 C   0  0  0  0  0  0  0  0  0  0  0  0
   -0.3220   64.6270   72.6110 O   0  0  0  0  0  0  0  0  0  0  0  0
    2.1990   60.8170   75.3860 C   0  0  0  0  0  0  0  0  0  0  0  0
    3.0400   60.7560   74.2420 O   0  0  0  0  0  0  0  0  0  0  0  0
    4.7490   60.7080   72.2650 O   0  0  0  0  0  0  0  0  0  0  0  0
    5.8520   60.8280   71.3810 C   0  0  0  0  0  0  0  0  0  0  0  0
    0.7420   66.4560   70.4170 C   0  0  0  0  0  0  0  0  0  0  0  0
    0.3320   67.0310   69.0780 C   0  0  0  0  0  0  0  0  0  0  0  0
   -0.8570   66.6250   68.4620 C   0  0  0  0  0  0  0  0  0  0  0  0
   -1.2510   67.1810   67.2430 C   0  0  0  0  0  0  0  0  0  0  0  0
   -0.4640   68.1620   66.6190 C   0  0  0  0  0  0  0  0  0  0  0  0
    0.7260   68.5670   67.2380 C   0  0  0  0  0  0  0  0  0  0  0  0
    1.1190   68.0040   68.4530 C   0  0  0  0  0  0  0  0  0  0  0  0
   -0.8770   68.7490   65.2980 C   0  0  0  0  0  0  0  0  0  0  0  0
   -0.0450   68.2290   64.1600 N   0  0  0  0  0  4  0  0  0  0  0  0
    0.1180   69.2030   63.0240 C   0  0  0  0  0  0  0  0  0  0  0  0
    1.3730   68.7120   62.3380 C   0  0  0  0  0  0  0  0  0  0  0  0
    2.2720   68.3570   63.5070 C   0  0  0  0  0  0  0  0  0  0  0  0
    1.3400   67.7420   64.5400 C   0  0  0  0  0  0  0  0  0  0  0  0
    0.9837   62.5603   74.0146 H   0  0  0  0  0  0  0  0  0  0  0  0
    4.2800   62.4609   70.2118 H   0  0  0  0  0  0  0  0  0  0  0  0
    2.9016   65.1662   69.9755 H   0  0  0  0  0  0  0  0  0  0  0  0
    2.1226   63.9402   68.9794 H   0  0  0  0  0  0  0  0  0  0  0  0
   -0.0412   64.6409   69.7396 H   0  0  0  0  0  0  0  0  0  0  0  0
    2.8147   60.7723   76.2965 H   0  0  0  0  0  0  0  0  0  0  0  0
    1.6307   61.7587   75.3735 H   0  0  0  0  0  0  0  0  0  0  0  0
    1.5007   59.9671   75.3735 H   0  0  0  0  0  0  0  0  0  0  0  0
    6.7796   60.9289   71.9636 H   0  0  0  0  0  0  0  0  0  0  0  0
    5.9130   59.9312   70.7470 H   0  0  0  0  0  0  0  0  0  0  0  0
    5.7187   61.7169   70.7470 H   0  0  0  0  0  0  0  0  0  0  0  0
    0.0278   66.7999   71.1797 H   0  0  0  0  0  0  0  0  0  0  0  0
    1.7645   66.8040   70.6253 H   0  0  0  0  0  0  0  0  0  0  0  0
   -1.4867   65.8614   68.9420 H   0  0  0  0  0  0  0  0  0  0  0  0
   -2.1854   66.8477   66.7679 H   0  0  0  0  0  0  0  0  0  0  0  0
    1.3550   69.3342   66.7629 H   0  0  0  0  0  0  0  0  0  0  0  0
    2.0582   68.3290   68.9245 H   0  0  0  0  0  0  0  0  0  0  0  0
   -1.9308   68.4945   65.1114 H   0  0  0  0  0  0  0  0  0  0  0  0
   -0.7313   69.8379   65.3524 H   0  0  0  0  0  0  0  0  0  0  0  0
   -0.6072   67.4214   63.8557 H   0  0  0  0  0  0  0  0  0  0  0  0
   -0.7456   69.1661   62.3436 H   0  0  0  0  0  0  0  0  0  0  0  0
    0.1841   70.2501   63.3546 H   0  0  0  0  0  0  0  0  0  0  0  0
    1.1655   67.8299   61.7145 H   0  0  0  0  0  0  0  0  0  0  0  0
    1.8157   69.4514   61.6545 H   0  0  0  0  0  0  0  0  0  0  0  0
    3.0409   67.6332   63.1989 H   0  0  0  0  0  0  0  0  0  0  0  0
    2.8079   69.2335   63.9003 H   0  0  0  0  0  0  0  0  0  0  0  0
    1.3883   66.6438   64.4988 H   0  0  0  0  0  0  0  0  0  0  0  0
    1.6123   68.0314   65.5657 H   0  0  0  0  0  0  0  0  0  0  0  0
  2  1  2  0
  3  2  1  0
  4  3  2  0
  5  4  1  0
  6  5  2  0
  6  1  1  0
  7  4  1  0
  8  7  1  0
  9  8  1  0
  9  3  1  0
 10  9  2  0
 12 11  1  0
 12  1  1  0
 13  6  1  0
 14 13  1  0
 15  8  1  0
 16 15  1  0
 17 16  2  0
 18 17  1  0
 19 18  2  0
 20 19  1  0
 21 20  2  0
 21 16  1  0
 22 19  1  0
 23 22  1  0
 24 23  1  0
 25 24  1  0
 26 25  1  0
 27 26  1  0
 27 23  1  0
  2 28  1  0
  5 29  1  0
  7 30  1  0
  7 31  1  0
  8 32  1  6
 11 33  1  0
 11 34  1  0
 11 35  1  0
 14 36  1  0
 14 37  1  0
 14 38  1  0
 15 39  1  0
 15 40  1  0
 17 41  1  0
 18 42  1  0
 20 43  1  0
 21 44  1  0
 22 45  1  0
 22 46  1  0
 23 47  1  0
 24 48  1  0
 24 49  1  0
 25 50  1  0
 25 51  1  0
 26 52  1  0
 26 53  1  0
 27 54  1  0
 27 55  1  0
M  CHG  1  23   1
M  END
>  <score>  (1) 
-9.831

$$$$
=
     RDKit          3D

 55 58  0  0  0  0  0  0  0  0999 V2000
    2.3970   60.4570   72.5060 C   0  0  0  0  0  0  0  0  0  0  0  0
    1.5160   61.5120   72.7610 C   0  0  0  0  0  0  0  0  0  0  0  0
    1.3810   62.4830   71.7870 C   0  0  0  0  0  0  0  0  0  0  0  0
    2.0730   62.4580   70.5870 C   0  0  0  0  0  0  0  0  0  0  0  0
    2.9540   61.4210   70.3200 C   0  0  0  0  0  0  0  0  0  0  0  0
    3.1180   60.4100   71.2810 C   0  0  0  0  0  0  0  0  0  0  0  0
    1.7760   63.6480   69.7310 C   0  0  0  0  0  0  0  0  0  0  0  0
    0.6190   64.3750   70.4610 C   0  0  1  0  0  0  0  0  0  0  0  0
    0.5330   63.6670   71.8050 C   0  0  0  0  0  0  0  0  0  0  0  0
   -0.1440   63.9900   72.7660 O   0  0  0  0  0  0  0  0  0  0  0  0
    3.6000   59.6220   74.3980 C   0  0  0  0  0  0  0  0  0  0  0  0
    2.6320   59.4210   73.3770 O   0  0  0  0  0  0  0  0  0  0  0  0
    3.9600   59.3340   71.1280 O   0  0  0  0  0  0  0  0  0  0  0  0
    3.4030   58.1140   70.6640 C   0  0  0  0  0  0  0  0  0  0  0  0
    0.8850   65.8750   70.6020 C   0  0  0  0  0  0  0  0  0  0  0  0
    0.4760   66.6670   69.3790 C   0  0  0  0  0  0  0  0  0  0  0  0
    1.3340   67.6260   68.8310 C   0  0  0  0  0  0  0  0  0  0  0  0
    0.9690   68.3330   67.6830 C   0  0  0  0  0  0  0  0  0  0  0  0
   -0.2620   68.0860   67.0550 C   0  0  0  0  0  0  0  0  0  0  0  0
   -1.1190   67.1250   67.6060 C   0  0  0  0  0  0  0  0  0  0  0  0
   -0.7540   66.4260   68.7570 C   0  0  0  0  0  0  0  0  0  0  0  0
   -0.6650   68.8580   65.8300 C   0  0  0  0  0  0  0  0  0  0  0  0
   -0.0720   68.2830   64.5740 N   0  0  0  0  0  4  0  0  0  0  0  0
   -0.4210   69.0470   63.3250 C   0  0  0  0  0  0  0  0  0  0  0  0
    0.6830   68.6510   62.3700 C   0  0  0  0  0  0  0  0  0  0  0  0
    1.9120   68.6660   63.2590 C   0  0  0  0  0  0  0  0  0  0  0  0
    1.4340   68.1050   64.5910 C   0  0  0  0  0  0  0  0  0  0  0  0
    0.9506   61.5673   73.7030 H   0  0  0  0  0  0  0  0  0  0  0  0
    3.5138   61.3908   69.3736 H   0  0  0  0  0  0  0  0  0  0  0  0
    2.6579   64.3010   69.6542 H   0  0  0  0  0  0  0  0  0  0  0  0
    1.5082   63.3656   68.7022 H   0  0  0  0  0  0  0  0  0  0  0  0
   -0.3301   64.3246   69.9072 H   0  0  0  0  0  0  0  0  0  0  0  0
    3.1203   59.5224   75.3828 H   0  0  0  0  0  0  0  0  0  0  0  0
    4.3971   58.8702   74.3007 H   0  0  0  0  0  0  0  0  0  0  0  0
    4.0319   60.6290   74.3007 H   0  0  0  0  0  0  0  0  0  0  0  0
    3.1183   57.4903   71.5242 H   0  0  0  0  0  0  0  0  0  0  0  0
    2.5125   58.3260   70.0541 H   0  0  0  0  0  0  0  0  0  0  0  0
    4.1465   57.5800   70.0541 H   0  0  0  0  0  0  0  0  0  0  0  0
    0.3202   66.2510   71.4678 H   0  0  0  0  0  0  0  0  0  0  0  0
    1.9697   66.0056   70.7302 H   0  0  0  0  0  0  0  0  0  0  0  0
    2.3048   67.8252   69.3083 H   0  0  0  0  0  0  0  0  0  0  0  0
    1.6514   69.0892   67.2678 H   0  0  0  0  0  0  0  0  0  0  0  0
   -2.0879   66.9196   67.1273 H   0  0  0  0  0  0  0  0  0  0  0  0
   -1.4404   65.6776   69.1799 H   0  0  0  0  0  0  0  0  0  0  0  0
   -1.7615   68.8392   65.7446 H   0  0  0  0  0  0  0  0  0  0  0  0
   -0.2889   69.8858   65.9404 H   0  0  0  0  0  0  0  0  0  0  0  0
   -0.5135   67.3526   64.5536 H   0  0  0  0  0  0  0  0  0  0  0  0
   -1.4059   68.7459   62.9387 H   0  0  0  0  0  0  0  0  0  0  0  0
   -0.4901   70.1332   63.4841 H   0  0  0  0  0  0  0  0  0  0  0  0
    0.5067   67.6483   61.9533 H   0  0  0  0  0  0  0  0  0  0  0  0
    0.7661   69.3163   61.4979 H   0  0  0  0  0  0  0  0  0  0  0  0
    2.7054   68.0335   62.8343 H   0  0  0  0  0  0  0  0  0  0  0  0
    2.3383   69.6748   63.3618 H   0  0  0  0  0  0  0  0  0  0  0  0
    1.6965   67.0404   64.6787 H   0  0  0  0  0  0  0  0  0  0  0  0
    1.9009   68.6159   65.4460 H   0  0  0  0  0  0  0  0  0  0  0  0
  2  1  2  0
  3  2  1  0
  4  3  2  0
  5  4  1  0
  6  5  2  0
  6  1  1  0
  7  4  1  0
  8  7  1  0
  9  8  1  0
  9  3  1  0
 10  9  2  0
 12 11  1  0
 12  1  1  0
 13  6  1  0
 14 13  1  0
 15  8  1  0
 16 15  1  0
 17 16  2  0
 18 17  1  0
 19 18  2  0
 20 19  1  0
 21 20  2  0
 21 16  1  0
 22 19  1  0
 23 22  1  0
 24 23  1  0
 25 24  1  0
 26 25  1  0
 27 26  1  0
 27 23  1  0
  2 28  1  0
  5 29  1  0
  7 30  1  0
  7 31  1  0
  8 32  1  6
 11 33  1  0
 11 34  1  0
 11 35  1  0
 14 36  1  0
 14 37  1  0
 14 38  1  0
 15 39  1  0
 15 40  1  0
 17 41  1  0
 18 42  1  0
 20 43  1  0
 21 44  1  0
 22 45  1  0
 22 46  1  0
 23 47  1  0
 24 48  1  0
 24 49  1  0
 25 50  1  0
 25 51  1  0
 26 52  1  0
 26 53  1  0
 27 54  1  0
 27 55  1  0
M  CHG  1  23   1
M  END
>  <score>  (2) 
-9.389

$$$$
=
     RDKit          3D

 55 58  0  0  0  0  0  0  0  0999 V2000
    3.2380   59.6530   72.0270 C   0  0  0  0  0  0  0  0  0  0  0  0
    2.8700   60.5520   71.0210 C   0  0  0  0  0  0  0  0  0  0  0  0
    2.3550   61.7740   71.4110 C   0  0  0  0  0  0  0  0  0  0  0  0
    2.1870   62.1400   72.7360 C   0  0  0  0  0  0  0  0  0  0  0  0
    2.5430   61.2590   73.7460 C   0  0  0  0  0  0  0  0  0  0  0  0
    3.0750   60.0080   73.3950 C   0  0  0  0  0  0  0  0  0  0  0  0
    1.5720   63.4960   72.8820 C   0  0  0  0  0  0  0  0  0  0  0  0
    1.5400   64.0650   71.4410 C   0  0  1  0  0  0  0  0  0  0  0  0
    1.9080   62.8750   70.5680 C   0  0  0  0  0  0  0  0  0  0  0  0
    1.8740   62.8140   69.3520 O   0  0  0  0  0  0  0  0  0  0  0  0
    2.9500   57.4610   71.1130 C   0  0  0  0  0  0  0  0  0  0  0  0
    3.7650   58.4070   71.7920 O   0  0  0  0  0  0  0  0  0  0  0  0
    3.4640   59.0550   74.3060 O   0  0  0  0  0  0  0  0  0  0  0  0
    2.4660   58.4800   75.1360 C   0  0  0  0  0  0  0  0  0  0  0  0
    0.1700   64.6510   71.0890 C   0  0  0  0  0  0  0  0  0  0  0  0
    0.2420   65.7290   70.0300 C   0  0  0  0  0  0  0  0  0  0  0  0
    1.3810   66.5330   69.9060 C   0  0  0  0  0  0  0  0  0  0  0  0
    1.4590   67.5060   68.9080 C   0  0  0  0  0  0  0  0  0  0  0  0
    0.4000   67.6870   68.0050 C   0  0  0  0  0  0  0  0  0  0  0  0
   -0.7390   66.8820   68.1300 C   0  0  0  0  0  0  0  0  0  0  0  0
   -0.8160   65.9160   69.1330 C   0  0  0  0  0  0  0  0  0  0  0  0
    0.4750   68.7460   66.9400 C   0  0  0  0  0  0  0  0  0  0  0  0
    1.0130   68.2110   65.6430 N   0  0  0  0  0  4  0  0  0  0  0  0
    0.3230   68.7560   64.4210 C   0  0  0  0  0  0  0  0  0  0  0  0
    1.3500   68.5410   63.3310 C   0  0  0  0  0  0  0  0  0  0  0  0
    2.6470   68.9220   64.0180 C   0  0  0  0  0  0  0  0  0  0  0  0
    2.5050   68.3900   65.4370 C   0  0  0  0  0  0  0  0  0  0  0  0
    2.9862   60.2959   69.9576 H   0  0  0  0  0  0  0  0  0  0  0  0
    2.4110   61.5352   74.8026 H   0  0  0  0  0  0  0  0  0  0  0  0
    0.5543   63.4192   73.2923 H   0  0  0  0  0  0  0  0  0  0  0  0
    2.1367   64.1391   73.5731 H   0  0  0  0  0  0  0  0  0  0  0  0
    2.2342   64.9070   71.3026 H   0  0  0  0  0  0  0  0  0  0  0  0
    2.4164   56.8416   71.8489 H   0  0  0  0  0  0  0  0  0  0  0  0
    2.2210   57.9909   70.4823 H   0  0  0  0  0  0  0  0  0  0  0  0
    3.5819   56.8184   70.4823 H   0  0  0  0  0  0  0  0  0  0  0  0
    2.7336   58.6342   76.1918 H   0  0  0  0  0  0  0  0  0  0  0  0
    1.4972   58.9584   74.9297 H   0  0  0  0  0  0  0  0  0  0  0  0
    2.3939   57.4019   74.9297 H   0  0  0  0  0  0  0  0  0  0  0  0
   -0.4739   63.8393   70.7196 H   0  0  0  0  0  0  0  0  0  0  0  0
   -0.2343   65.1131   72.0017 H   0  0  0  0  0  0  0  0  0  0  0  0
    2.2224   66.3969   70.6013 H   0  0  0  0  0  0  0  0  0  0  0  0
    2.3574   68.1357   68.8288 H   0  0  0  0  0  0  0  0  0  0  0  0
   -1.5791   67.0125   67.4320 H   0  0  0  0  0  0  0  0  0  0  0  0
   -1.7189   65.2937   69.2201 H   0  0  0  0  0  0  0  0  0  0  0  0
   -0.5350   69.1457   66.7664 H   0  0  0  0  0  0  0  0  0  0  0  0
    1.1614   69.5302   67.2919 H   0  0  0  0  0  0  0  0  0  0  0  0
    0.8119   67.2059   65.7444 H   0  0  0  0  0  0  0  0  0  0  0  0
   -0.6025   68.2010   64.2082 H   0  0  0  0  0  0  0  0  0  0  0  0
    0.0150   69.8066   64.5275 H   0  0  0  0  0  0  0  0  0  0  0  0
    1.3677   67.4910   63.0037 H   0  0  0  0  0  0  0  0  0  0  0  0
    1.1498   69.1245   62.4203 H   0  0  0  0  0  0  0  0  0  0  0  0
    3.5051   68.4546   63.5128 H   0  0  0  0  0  0  0  0  0  0  0  0
    2.8253   70.0072   63.9969 H   0  0  0  0  0  0  0  0  0  0  0  0
    3.0279   67.4281   65.5432 H   0  0  0  0  0  0  0  0  0  0  0  0
    2.9452   69.0720   66.1794 H   0  0  0  0  0  0  0  0  0  0  0  0
  2  1  2  0
  3  2  1  0
  4  3  2  0
  5  4  1  0
  6  5  2  0
  6  1  1  0
  7  4  1  0
  8  7  1  0
  9  8  1  0
  9  3  1  0
 10  9  2  0
 12 11  1  0
 12  1  1  0
 13  6  1  0
 14 13  1  0
 15  8  1  0
 16 15  1  0
 17 16  2  0
 18 17  1  0
 19 18  2  0
 20 19  1  0
 21 20  2  0
 21 16  1  0
 22 19  1  0
 23 22  1  0
 24 23  1  0
 25 24  1  0
 26 25  1  0
 27 26  1  0
 27 23  1  0
  2 28  1  0
  5 29  1  0
  7 30  1  0
  7 31  1  0
  8 32  1  1
 11 33  1  0
 11 34  1  0
 11 35  1  0
 14 36  1  0
 14 37  1  0
 14 38  1  0
 15 39  1  0
 15 40  1  0
 17 41  1  0
 18 42  1  0
 20 43  1  0
 21 44  1  0
 22 45  1  0
 22 46  1  0
 23 47  1  0
 24 48  1  0
 24 49  1  0
 25 50  1  0
 25 51  1  0
 26 52  1  0
 26 53  1  0
 27 54  1  0
 27 55  1  0
M  CHG  1  23   1
M  END
>  <score>  (3) 
-9.08

$$$$
=
     RDKit          3D

 55 58  0  0  0  0  0  0  0  0999 V2000
    1.2540   68.6530   63.2150 C   0  0  0  0  0  0  0  0  0  0  0  0
    0.2900   68.9110   64.1930 C   0  0  0  0  0  0  0  0  0  0  0  0
    0.4920   68.3700   65.4490 C   0  0  0  0  0  0  0  0  0  0  0  0
    1.5900   67.5920   65.7750 C   0  0  0  0  0  0  0  0  0  0  0  0
    2.5540   67.3230   64.8140 C   0  0  0  0  0  0  0  0  0  0  0  0
    2.3910   67.8570   63.5260 C   0  0  0  0  0  0  0  0  0  0  0  0
    1.5430   67.0970   67.1850 C   0  0  0  0  0  0  0  0  0  0  0  0
    0.3370   67.8360   67.8170 C   0  0  1  0  0  0  0  0  0  0  0  0
   -0.3510   68.4950   66.6310 C   0  0  0  0  0  0  0  0  0  0  0  0
   -1.4260   69.0690   66.6280 O   0  0  0  0  0  0  0  0  0  0  0  0
    0.0160   69.8230   61.5360 C   0  0  0  0  0  0  0  0  0  0  0  0
    1.1910   69.1250   61.9270 O   0  0  0  0  0  0  0  0  0  0  0  0
    3.2790   67.6600   62.4950 O   0  0  0  0  0  0  0  0  0  0  0  0
    4.4590   66.9200   62.7640 C   0  0  0  0  0  0  0  0  0  0  0  0
   -0.5860   66.8780   68.5750 C   0  0  0  0  0  0  0  0  0  0  0  0
    0.1650   65.9000   69.4510 C   0  0  0  0  0  0  0  0  0  0  0  0
   -0.4100   64.6760   69.8110 C   0  0  0  0  0  0  0  0  0  0  0  0
    0.2980   63.7610   70.5930 C   0  0  0  0  0  0  0  0  0  0  0  0
    1.6020   64.0490   71.0230 C   0  0  0  0  0  0  0  0  0  0  0  0
    2.1760   65.2750   70.6620 C   0  0  0  0  0  0  0  0  0  0  0  0
    1.4630   66.1900   69.8860 C   0  0  0  0  0  0  0  0  0  0  0  0
    2.3590   63.0730   71.8790 C   0  0  0  0  0  0  0  0  0  0  0  0
    3.6330   62.6130   71.2280 N   0  0  0  0  0  4  0  0  0  0  0  0
    4.4460   61.6670   72.0700 C   0  0  0  0  0  0  0  0  0  0  0  0
    5.2970   60.9510   71.0450 C   0  0  0  0  0  0  0  0  0  0  0  0
    4.3190   60.7160   69.9090 C   0  0  0  0  0  0  0  0  0  0  0  0
    3.4680   61.9770   69.8610 C   0  0  0  0  0  0  0  0  0  0  0  0
   -0.5973   69.5223   63.9716 H   0  0  0  0  0  0  0  0  0  0  0  0
    3.4295   66.7029   65.0568 H   0  0  0  0  0  0  0  0  0  0  0  0
    1.3879   66.0083   67.2096 H   0  0  0  0  0  0  0  0  0  0  0  0
    2.4810   67.2889   67.7266 H   0  0  0  0  0  0  0  0  0  0  0  0
    0.6406   68.5709   68.5771 H   0  0  0  0  0  0  0  0  0  0  0  0
   -0.5323   70.1487   62.4322 H   0  0  0  0  0  0  0  0  0  0  0  0
    0.2942   70.7024   60.9366 H   0  0  0  0  0  0  0  0  0  0  0  0
   -0.6232   69.1580   60.9366 H   0  0  0  0  0  0  0  0  0  0  0  0
    4.5974   66.8332   63.8518 H   0  0  0  0  0  0  0  0  0  0  0  0
    4.3701   65.9156   62.3244 H   0  0  0  0  0  0  0  0  0  0  0  0
    5.3245   67.4374   62.3244 H   0  0  0  0  0  0  0  0  0  0  0  0
   -1.2604   67.4708   69.2104 H   0  0  0  0  0  0  0  0  0  0  0  0
   -1.1369   66.2911   67.8253 H   0  0  0  0  0  0  0  0  0  0  0  0
   -1.4287   64.4325   69.4750 H   0  0  0  0  0  0  0  0  0  0  0  0
   -0.1707   62.8064   70.8742 H   0  0  0  0  0  0  0  0  0  0  0  0
    3.1965   65.5183   70.9927 H   0  0  0  0  0  0  0  0  0  0  0  0
    1.9264   67.1496   69.6133 H   0  0  0  0  0  0  0  0  0  0  0  0
    2.6052   63.5578   72.8352 H   0  0  0  0  0  0  0  0  0  0  0  0
    1.7198   62.1905   72.0293 H   0  0  0  0  0  0  0  0  0  0  0  0
    4.1342   63.5061   71.1180 H   0  0  0  0  0  0  0  0  0  0  0  0
    5.0710   62.2152   72.7903 H   0  0  0  0  0  0  0  0  0  0  0  0
    3.8308   60.9862   72.6766 H   0  0  0  0  0  0  0  0  0  0  0  0
    6.1397   61.5789   70.7200 H   0  0  0  0  0  0  0  0  0  0  0  0
    5.7556   60.0265   71.4259 H   0  0  0  0  0  0  0  0  0  0  0  0
    4.8553   60.5741   68.9591 H   0  0  0  0  0  0  0  0  0  0  0  0
    3.7124   59.8115   70.0639 H   0  0  0  0  0  0  0  0  0  0  0  0
    3.8262   62.6556   69.0729 H   0  0  0  0  0  0  0  0  0  0  0  0
    2.4149   61.7568   69.6317 H   0  0  0  0  0  0  0  0  0  0  0  0
  2  1  2  0
  3  2  1  0
  4  3  2  0
  5  4  1  0
  6  5  2  0
  6  1  1  0
  7  4  1  0
  8  7  1  0
  9  8  1  0
  9  3  1  0
 10  9  2  0
 12 11  1  0
 12  1  1  0
 13  6  1  0
 14 13  1  0
 15  8  1  0
 16 15  1  0
 17 16  2  0
 18 17  1  0
 19 18  2  0
 20 19  1  0
 21 20  2  0
 21 16  1  0
 22 19  1  0
 23 22  1  0
 24 23  1  0
 25 24  1  0
 26 25  1  0
 27 26  1  0
 27 23  1  0
  2 28  1  0
  5 29  1  0
  7 30  1  0
  7 31  1  0
  8 32  1  1
 11 33  1  0
 11 34  1  0
 11 35  1  0
 14 36  1  0
 14 37  1  0
 14 38  1  0
 15 39  1  0
 15 40  1  0
 17 41  1  0
 18 42  1  0
 20 43  1  0
 21 44  1  0
 22 45  1  0
 22 46  1  0
 23 47  1  0
 24 48  1  0
 24 49  1  0
 25 50  1  0
 25 51  1  0
 26 52  1  0
 26 53  1  0
 27 54  1  0
 27 55  1  0
M  CHG  1  23   1
M  END
>  <score>  (4) 
-8.934

$$$$
=
     RDKit          3D

 55 58  0  0  0  0  0  0  0  0999 V2000
    4.6330   68.7300   65.3170 C   0  0  0  0  0  0  0  0  0  0  0  0
    3.3250   68.3510   65.0000 C   0  0  0  0  0  0  0  0  0  0  0  0
    2.3190   68.7340   65.8670 C   0  0  0  0  0  0  0  0  0  0  0  0
    2.5470   69.4650   67.0210 C   0  0  0  0  0  0  0  0  0  0  0  0
    3.8390   69.8460   67.3520 C   0  0  0  0  0  0  0  0  0  0  0  0
    4.8910   69.4820   66.4970 C   0  0  0  0  0  0  0  0  0  0  0  0
    1.2950   69.7090   67.8010 C   0  0  0  0  0  0  0  0  0  0  0  0
    0.1570   69.1990   66.8810 C   0  0  1  0  0  0  0  0  0  0  0  0
    0.8900   68.4740   65.7620 C   0  0  0  0  0  0  0  0  0  0  0  0
    0.3970   67.7910   64.8800 O   0  0  0  0  0  0  0  0  0  0  0  0
    5.6750   68.7310   63.1640 C   0  0  0  0  0  0  0  0  0  0  0  0
    5.7310   68.4250   64.5510 O   0  0  0  0  0  0  0  0  0  0  0  0
    6.2090   69.8030   66.7190 O   0  0  0  0  0  0  0  0  0  0  0  0
    6.5180   70.5990   67.8520 C   0  0  0  0  0  0  0  0  0  0  0  0
   -0.8190   68.2890   67.6310 C   0  0  0  0  0  0  0  0  0  0  0  0
   -0.1240   67.2670   68.5040 C   0  0  0  0  0  0  0  0  0  0  0  0
    1.1630   67.5090   68.9990 C   0  0  0  0  0  0  0  0  0  0  0  0
    1.7900   66.5790   69.8310 C   0  0  0  0  0  0  0  0  0  0  0  0
    1.1370   65.3910   70.1930 C   0  0  0  0  0  0  0  0  0  0  0  0
   -0.1510   65.1510   69.6960 C   0  0  0  0  0  0  0  0  0  0  0  0
   -0.7710   66.0790   68.8590 C   0  0  0  0  0  0  0  0  0  0  0  0
    1.8170   64.3810   71.0740 C   0  0  0  0  0  0  0  0  0  0  0  0
    1.8740   63.0200   70.4410 N   0  0  0  0  0  4  0  0  0  0  0  0
    3.0350   62.8280   69.5010 C   0  0  0  0  0  0  0  0  0  0  0  0
    3.1900   61.3240   69.4630 C   0  0  0  0  0  0  0  0  0  0  0  0
    2.9830   60.9320   70.9130 C   0  0  0  0  0  0  0  0  0  0  0  0
    1.8780   61.8540   71.4100 C   0  0  0  0  0  0  0  0  0  0  0  0
    3.1045   67.7689   64.0931 H   0  0  0  0  0  0  0  0  0  0  0  0
    4.0356   70.4228   68.2678 H   0  0  0  0  0  0  0  0  0  0  0  0
    1.3109   69.1477   68.7469 H   0  0  0  0  0  0  0  0  0  0  0  0
    1.1708   70.7681   68.0709 H   0  0  0  0  0  0  0  0  0  0  0  0
   -0.4774   70.0125   66.4992 H   0  0  0  0  0  0  0  0  0  0  0  0
    5.4784   69.8054   63.0332 H   0  0  0  0  0  0  0  0  0  0  0  0
    6.6351   68.4739   62.6927 H   0  0  0  0  0  0  0  0  0  0  0  0
    4.8682   68.1505   62.6927 H   0  0  0  0  0  0  0  0  0  0  0  0
    6.2981   70.0326   68.7690 H   0  0  0  0  0  0  0  0  0  0  0  0
    7.5850   70.8657   67.8327 H   0  0  0  0  0  0  0  0  0  0  0  0
    5.9104   71.5158   67.8327 H   0  0  0  0  0  0  0  0  0  0  0  0
   -1.4622   68.9142   68.2677 H   0  0  0  0  0  0  0  0  0  0  0  0
   -1.3991   67.7369   66.8769 H   0  0  0  0  0  0  0  0  0  0  0  0
    1.6847   68.4394   68.7304 H   0  0  0  0  0  0  0  0  0  0  0  0
    2.8046   66.7795   70.2058 H   0  0  0  0  0  0  0  0  0  0  0  0
   -0.6771   64.2240   69.9678 H   0  0  0  0  0  0  0  0  0  0  0  0
   -1.7807   65.8739   68.4737 H   0  0  0  0  0  0  0  0  0  0  0  0
    2.8436   64.7210   71.2751 H   0  0  0  0  0  0  0  0  0  0  0  0
    1.2331   64.2965   72.0024 H   0  0  0  0  0  0  0  0  0  0  0  0
    0.9882   63.0085   69.9154 H   0  0  0  0  0  0  0  0  0  0  0  0
    2.8065   63.2282   68.5022 H   0  0  0  0  0  0  0  0  0  0  0  0
    3.9472   63.3519   69.8228 H   0  0  0  0  0  0  0  0  0  0  0  0
    2.4301   60.8630   68.8149 H   0  0  0  0  0  0  0  0  0  0  0  0
    4.1570   60.9946   69.0551 H   0  0  0  0  0  0  0  0  0  0  0  0
    2.6733   59.8793   70.9896 H   0  0  0  0  0  0  0  0  0  0  0  0
    3.9044   61.0303   71.5058 H   0  0  0  0  0  0  0  0  0  0  0  0
    0.9074   61.3366   71.3962 H   0  0  0  0  0  0  0  0  0  0  0  0
    2.0468   62.1794   72.4471 H   0  0  0  0  0  0  0  0  0  0  0  0
  2  1  2  0
  3  2  1  0
  4  3  2  0
  5  4  1  0
  6  5  2  0
  6  1  1  0
  7  4  1  0
  8  7  1  0
  9  8  1  0
  9  3  1  0
 10  9  2  0
 12 11  1  0
 12  1  1  0
 13  6  1  0
 14 13  1  0
 15  8  1  0
 16 15  1  0
 17 16  2  0
 18 17  1  0
 19 18  2  0
 20 19  1  0
 21 20  2  0
 21 16  1  0
 22 19  1  0
 23 22  1  0
 24 23  1  0
 25 24  1  0
 26 25  1  0
 27 26  1  0
 27 23  1  0
  2 28  1  0
  5 29  1  0
  7 30  1  0
  7 31  1  0
  8 32  1  6
 11 33  1  0
 11 34  1  0
 11 35  1  0
 14 36  1  0
 14 37  1  0
 14 38  1  0
 15 39  1  0
 15 40  1  0
 17 41  1  0
 18 42  1  0
 20 43  1  0
 21 44  1  0
 22 45  1  0
 22 46  1  0
 23 47  1  0
 24 48  1  0
 24 49  1  0
 25 50  1  0
 25 51  1  0
 26 52  1  0
 26 53  1  0
 27 54  1  0
 27 55  1  0
M  CHG  1  23   1
M  END
>  <score>  (5) 
-8.729

$$$$
=
     RDKit          3D

 55 58  0  0  0  0  0  0  0  0999 V2000
    0.7460   63.5710   70.6780 C   0  0  0  0  0  0  0  0  0  0  0  0
   -0.1600   63.2160   71.6820 C   0  0  0  0  0  0  0  0  0  0  0  0
    0.0540   62.0210   72.3440 C   0  0  0  0  0  0  0  0  0  0  0  0
    1.1100   61.1720   72.0580 C   0  0  0  0  0  0  0  0  0  0  0  0
    2.0150   61.5080   71.0620 C   0  0  0  0  0  0  0  0  0  0  0  0
    1.8390   62.7150   70.3670 C   0  0  0  0  0  0  0  0  0  0  0  0
    1.0850   59.9280   72.8880 C   0  0  0  0  0  0  0  0  0  0  0  0
   -0.0440   60.1720   73.9210 C   0  0  1  0  0  0  0  0  0  0  0  0
   -0.7320   61.4330   73.4200 C   0  0  0  0  0  0  0  0  0  0  0  0
   -1.7660   61.9250   73.8390 O   0  0  0  0  0  0  0  0  0  0  0  0
    0.4120   65.9400   70.6350 C   0  0  0  0  0  0  0  0  0  0  0  0
    0.6640   64.7260   69.9400 O   0  0  0  0  0  0  0  0  0  0  0  0
    2.6700   63.1540   69.3650 O   0  0  0  0  0  0  0  0  0  0  0  0
    3.8720   62.4350   69.1340 C   0  0  0  0  0  0  0  0  0  0  0  0
   -0.9990   58.9800   74.0160 C   0  0  0  0  0  0  0  0  0  0  0  0
   -0.2950   57.6830   74.3530 C   0  0  0  0  0  0  0  0  0  0  0  0
    0.3400   57.5170   75.5890 C   0  0  0  0  0  0  0  0  0  0  0  0
    0.9600   56.3080   75.9120 C   0  0  0  0  0  0  0  0  0  0  0  0
    0.9510   55.2370   75.0060 C   0  0  0  0  0  0  0  0  0  0  0  0
    0.3150   55.4060   73.7690 C   0  0  0  0  0  0  0  0  0  0  0  0
   -0.2980   56.6170   73.4470 C   0  0  0  0  0  0  0  0  0  0  0  0
    1.6340   53.9410   75.3440 C   0  0  0  0  0  0  0  0  0  0  0  0
    0.6530   52.8370   75.6210 N   0  0  0  0  0  4  0  0  0  0  0  0
   -0.5900   53.2860   76.3400 C   0  0  0  0  0  0  0  0  0  0  0  0
   -1.5860   52.2000   75.9980 C   0  0  0  0  0  0  0  0  0  0  0  0
   -1.3000   51.9370   74.5320 C   0  0  0  0  0  0  0  0  0  0  0  0
    0.2130   52.0410   74.4080 C   0  0  0  0  0  0  0  0  0  0  0  0
   -1.0120   63.8637   71.9360 H   0  0  0  0  0  0  0  0  0  0  0  0
    2.8556   60.8407   70.8210 H   0  0  0  0  0  0  0  0  0  0  0  0
    0.8589   59.0499   72.2653 H   0  0  0  0  0  0  0  0  0  0  0  0
    2.0540   59.7264   73.3679 H   0  0  0  0  0  0  0  0  0  0  0  0
    0.3376   60.2900   74.9459 H   0  0  0  0  0  0  0  0  0  0  0  0
    0.4501   65.7567   71.7189 H   0  0  0  0  0  0  0  0  0  0  0  0
    1.1749   66.6840   70.3620 H   0  0  0  0  0  0  0  0  0  0  0  0
   -0.5839   66.3189   70.3620 H   0  0  0  0  0  0  0  0  0  0  0  0
    4.3273   62.1627   70.0976 H   0  0  0  0  0  0  0  0  0  0  0  0
    3.6490   61.5218   68.5627 H   0  0  0  0  0  0  0  0  0  0  0  0
    4.5711   63.0634   68.5627 H   0  0  0  0  0  0  0  0  0  0  0  0
   -1.7430   59.1886   74.7989 H   0  0  0  0  0  0  0  0  0  0  0  0
   -1.4664   58.8535   73.0283 H   0  0  0  0  0  0  0  0  0  0  0  0
    0.3509   58.3458   76.3122 H   0  0  0  0  0  0  0  0  0  0  0  0
    1.4598   56.1945   76.8853 H   0  0  0  0  0  0  0  0  0  0  0  0
    0.2989   54.5771   73.0460 H   0  0  0  0  0  0  0  0  0  0  0  0
   -0.7892   56.7351   72.4699 H   0  0  0  0  0  0  0  0  0  0  0  0
    2.2706   53.6448   74.4972 H   0  0  0  0  0  0  0  0  0  0  0  0
    2.2285   54.1007   76.2556 H   0  0  0  0  0  0  0  0  0  0  0  0
    1.2119   52.2243   76.2318 H   0  0  0  0  0  0  0  0  0  0  0  0
   -0.4215   53.3415   77.4256 H   0  0  0  0  0  0  0  0  0  0  0  0
   -0.9242   54.2918   76.0454 H   0  0  0  0  0  0  0  0  0  0  0  0
   -1.4137   51.2983   76.6040 H   0  0  0  0  0  0  0  0  0  0  0  0
   -2.6296   52.4862   76.1952 H   0  0  0  0  0  0  0  0  0  0  0  0
   -1.6446   50.9329   74.2438 H   0  0  0  0  0  0  0  0  0  0  0  0
   -1.8210   52.6469   73.8728 H   0  0  0  0  0  0  0  0  0  0  0  0
    0.6710   51.0409   74.4150 H   0  0  0  0  0  0  0  0  0  0  0  0
    0.5181   52.5208   73.4664 H   0  0  0  0  0  0  0  0  0  0  0  0
  2  1  2  0
  3  2  1  0
  4  3  2  0
  5  4  1  0
  6  5  2  0
  6  1  1  0
  7  4  1  0
  8  7  1  0
  9  8  1  0
  9  3  1  0
 10  9  2  0
 12 11  1  0
 12  1  1  0
 13  6  1  0
 14 13  1  0
 15  8  1  0
 16 15  1  0
 17 16  2  0
 18 17  1  0
 19 18  2  0
 20 19  1  0
 21 20  2  0
 21 16  1  0
 22 19  1  0
 23 22  1  0
 24 23  1  0
 25 24  1  0
 26 25  1  0
 27 26  1  0
 27 23  1  0
  2 28  1  0
  5 29  1  0
  7 30  1  0
  7 31  1  0
  8 32  1  1
 11 33  1  0
 11 34  1  0
 11 35  1  0
 14 36  1  0
 14 37  1  0
 14 38  1  0
 15 39  1  0
 15 40  1  0
 17 41  1  0
 18 42  1  0
 20 43  1  0
 21 44  1  0
 22 45  1  0
 22 46  1  0
 23 47  1  0
 24 48  1  0
 24 49  1  0
 25 50  1  0
 25 51  1  0
 26 52  1  0
 26 53  1  0
 27 54  1  0
 27 55  1  0
M  CHG  1  23   1
M  END
>  <score>  (6) 
-7.961

$$$$
=
     RDKit          3D

 55 58  0  0  0  0  0  0  0  0999 V2000
    1.3610   65.5010   70.4790 C   0  0  0  0  0  0  0  0  0  0  0  0
    2.3050   64.6070   69.9680 C   0  0  0  0  0  0  0  0  0  0  0  0
    2.2740   63.3060   70.4350 C   0  0  0  0  0  0  0  0  0  0  0  0
    1.3630   62.8580   71.3770 C   0  0  0  0  0  0  0  0  0  0  0  0
    0.4220   63.7340   71.8970 C   0  0  0  0  0  0  0  0  0  0  0  0
    0.4140   65.0640   71.4470 C   0  0  0  0  0  0  0  0  0  0  0  0
    1.5730   61.4220   71.7390 C   0  0  0  0  0  0  0  0  0  0  0  0
    2.6460   60.9210   70.7390 C   0  0  1  0  0  0  0  0  0  0  0  0
    3.1350   62.1920   70.0600 C   0  0  0  0  0  0  0  0  0  0  0  0
    4.0780   62.3040   69.2970 O   0  0  0  0  0  0  0  0  0  0  0  0
    0.6890   67.1130   68.8440 C   0  0  0  0  0  0  0  0  0  0  0  0
    1.2690   66.8200   70.1080 O   0  0  0  0  0  0  0  0  0  0  0  0
   -0.4690   66.0200   71.8880 O   0  0  0  0  0  0  0  0  0  0  0  0
   -0.7000   66.1190   73.2850 C   0  0  0  0  0  0  0  0  0  0  0  0
    3.7720   60.1610   71.4430 C   0  0  0  0  0  0  0  0  0  0  0  0
    3.2650   59.0840   72.3780 C   0  0  0  0  0  0  0  0  0  0  0  0
    3.5190   59.1540   73.7520 C   0  0  0  0  0  0  0  0  0  0  0  0
    3.0230   58.1780   74.6180 C   0  0  0  0  0  0  0  0  0  0  0  0
    2.2520   57.1130   74.1250 C   0  0  0  0  0  0  0  0  0  0  0  0
    1.9980   57.0450   72.7490 C   0  0  0  0  0  0  0  0  0  0  0  0
    2.5030   58.0190   71.8860 C   0  0  0  0  0  0  0  0  0  0  0  0
    1.7320   56.0510   75.0520 C   0  0  0  0  0  0  0  0  0  0  0  0
    0.8740   55.0440   74.3390 N   0  0  0  0  0  4  0  0  0  0  0  0
    1.4630   53.6590   74.2930 C   0  0  0  0  0  0  0  0  0  0  0  0
    0.2480   52.7860   74.0700 C   0  0  0  0  0  0  0  0  0  0  0  0
   -0.7880   53.4180   74.9790 C   0  0  0  0  0  0  0  0  0  0  0  0
   -0.5440   54.9160   74.8610 C   0  0  0  0  0  0  0  0  0  0  0  0
    3.0464   64.9266   69.2209 H   0  0  0  0  0  0  0  0  0  0  0  0
   -0.3052   63.3929   72.6486 H   0  0  0  0  0  0  0  0  0  0  0  0
    1.9339   61.3310   72.7741 H   0  0  0  0  0  0  0  0  0  0  0  0
    0.6434   60.8367   71.6822 H   0  0  0  0  0  0  0  0  0  0  0  0
    2.2456   60.1951   70.0160 H   0  0  0  0  0  0  0  0  0  0  0  0
   -0.2839   67.6045   68.9921 H   0  0  0  0  0  0  0  0  0  0  0  0
    1.3560   67.7823   68.2808 H   0  0  0  0  0  0  0  0  0  0  0  0
    0.5460   66.1790   68.2808 H   0  0  0  0  0  0  0  0  0  0  0  0
    0.1785   65.7425   73.8295 H   0  0  0  0  0  0  0  0  0  0  0  0
   -0.8750   67.1711   73.5541 H   0  0  0  0  0  0  0  0  0  0  0  0
   -1.5826   65.5201   73.5541 H   0  0  0  0  0  0  0  0  0  0  0  0
    4.4084   59.6906   70.6789 H   0  0  0  0  0  0  0  0  0  0  0  0
    4.3296   60.8885   72.0511 H   0  0  0  0  0  0  0  0  0  0  0  0
    4.1154   59.9863   74.1538 H   0  0  0  0  0  0  0  0  0  0  0  0
    3.2378   58.2437   75.6948 H   0  0  0  0  0  0  0  0  0  0  0  0
    1.3959   56.2176   72.3455 H   0  0  0  0  0  0  0  0  0  0  0  0
    2.2996   57.9483   70.8073 H   0  0  0  0  0  0  0  0  0  0  0  0
    2.5866   55.5290   75.5071 H   0  0  0  0  0  0  0  0  0  0  0  0
    1.1108   56.5437   75.8145 H   0  0  0  0  0  0  0  0  0  0  0  0
    0.8415   55.4459   73.3912 H   0  0  0  0  0  0  0  0  0  0  0  0
    2.1794   53.5603   73.4641 H   0  0  0  0  0  0  0  0  0  0  0  0
    2.0284   53.3956   75.1991 H   0  0  0  0  0  0  0  0  0  0  0  0
   -0.0750   52.8167   73.0189 H   0  0  0  0  0  0  0  0  0  0  0  0
    0.4287   51.7229   74.2870 H   0  0  0  0  0  0  0  0  0  0  0  0
   -1.8045   53.1631   74.6446 H   0  0  0  0  0  0  0  0  0  0  0  0
   -0.7028   53.0631   76.0167 H   0  0  0  0  0  0  0  0  0  0  0  0
   -1.2573   55.3694   74.1570 H   0  0  0  0  0  0  0  0  0  0  0  0
   -0.6780   55.4330   75.8227 H   0  0  0  0  0  0  0  0  0  0  0  0
  2  1  2  0
  3  2  1  0
  4  3  2  0
  5  4  1  0
  6  5  2  0
  6  1  1  0
  7  4  1  0
  8  7  1  0
  9  8  1  0
  9  3  1  0
 10  9  2  0
 12 11  1  0
 12  1  1  0
 13  6  1  0
 14 13  1  0
 15  8  1  0
 16 15  1  0
 17 16  2  0
 18 17  1  0
 19 18  2  0
 20 19  1  0
 21 20  2  0
 21 16  1  0
 22 19  1  0
 23 22  1  0
 24 23  1  0
 25 24  1  0
 26 25  1  0
 27 26  1  0
 27 23  1  0
  2 28  1  0
  5 29  1  0
  7 30  1  0
  7 31  1  0
  8 32  1  6
 11 33  1  0
 11 34  1  0
 11 35  1  0
 14 36  1  0
 14 37  1  0
 14 38  1  0
 15 39  1  0
 15 40  1  0
 17 41  1  0
 18 42  1  0
 20 43  1  0
 21 44  1  0
 22 45  1  0
 22 46  1  0
 23 47  1  0
 24 48  1  0
 24 49  1  0
 25 50  1  0
 25 51  1  0
 26 52  1  0
 26 53  1  0
 27 54  1  0
 27 55  1  0
M  CHG  1  23   1
M  END
>  <score>  (7) 
-7.936

$$$$
=
     RDKit          3D

 55 58  0  0  0  0  0  0  0  0999 V2000
    2.4470   63.2600   71.2830 C   0  0  0  0  0  0  0  0  0  0  0  0
    2.4490   62.1950   72.1880 C   0  0  0  0  0  0  0  0  0  0  0  0
    1.2250   61.7100   72.6100 C   0  0  0  0  0  0  0  0  0  0  0  0
    0.0140   62.2280   72.1840 C   0  0  0  0  0  0  0  0  0  0  0  0
   -0.0060   63.2890   71.2900 C   0  0  0  0  0  0  0  0  0  0  0  0
    1.2150   63.8100   70.8310 C   0  0  0  0  0  0  0  0  0  0  0  0
   -1.1550   61.5510   72.8250 C   0  0  0  0  0  0  0  0  0  0  0  0
   -0.5390   60.3580   73.5970 C   0  0  1  0  0  0  0  0  0  0  0  0
    0.9590   60.6140   73.5330 C   0  0  0  0  0  0  0  0  0  0  0  0
    1.8370   60.0090   74.1230 O   0  0  0  0  0  0  0  0  0  0  0  0
    4.4050   63.0560   69.9260 C   0  0  0  0  0  0  0  0  0  0  0  0
    3.5820   63.8430   70.7750 O   0  0  0  0  0  0  0  0  0  0  0  0
    1.3200   64.8550   69.9460 O   0  0  0  0  0  0  0  0  0  0  0  0
    0.5280   66.0100   70.1810 C   0  0  0  0  0  0  0  0  0  0  0  0
   -1.0600   60.2770   75.0340 C   0  0  0  0  0  0  0  0  0  0  0  0
   -2.5310   60.6120   75.1500 C   0  0  0  0  0  0  0  0  0  0  0  0
   -2.9440   61.8440   75.6700 C   0  0  0  0  0  0  0  0  0  0  0  0
   -4.3010   62.1650   75.7450 C   0  0  0  0  0  0  0  0  0  0  0  0
   -5.2740   61.2600   75.2930 C   0  0  0  0  0  0  0  0  0  0  0  0
   -4.8590   60.0270   74.7730 C   0  0  0  0  0  0  0  0  0  0  0  0
   -3.5020   59.7070   74.7060 C   0  0  0  0  0  0  0  0  0  0  0  0
   -6.7360   61.5960   75.3900 C   0  0  0  0  0  0  0  0  0  0  0  0
   -7.2480   62.2720   74.1500 N   0  0  0  0  0  4  0  0  0  0  0  0
   -8.2740   61.4720   73.3930 C   0  0  0  0  0  0  0  0  0  0  0  0
   -9.0000   62.5290   72.5920 C   0  0  0  0  0  0  0  0  0  0  0  0
   -9.1320   63.6670   73.5870 C   0  0  0  0  0  0  0  0  0  0  0  0
   -7.8200   63.6610   74.3590 C   0  0  0  0  0  0  0  0  0  0  0  0
    3.3908   61.7582   72.5516 H   0  0  0  0  0  0  0  0  0  0  0  0
   -0.9607   63.7144   70.9470 H   0  0  0  0  0  0  0  0  0  0  0  0
   -1.6703   62.2357   73.5147 H   0  0  0  0  0  0  0  0  0  0  0  0
   -1.9063   61.2289   72.0889 H   0  0  0  0  0  0  0  0  0  0  0  0
   -0.8099   59.3857   73.1598 H   0  0  0  0  0  0  0  0  0  0  0  0
    5.0655   62.4244   70.5383 H   0  0  0  0  0  0  0  0  0  0  0  0
    3.7727   62.4179   69.2911 H   0  0  0  0  0  0  0  0  0  0  0  0
    5.0142   63.7162   69.2911 H   0  0  0  0  0  0  0  0  0  0  0  0
    0.4206   66.1667   71.2645 H   0  0  0  0  0  0  0  0  0  0  0  0
    1.0157   66.8869   69.7303 H   0  0  0  0  0  0  0  0  0  0  0  0
   -0.4658   65.8711   69.7303 H   0  0  0  0  0  0  0  0  0  0  0  0
   -0.9032   59.2539   75.4064 H   0  0  0  0  0  0  0  0  0  0  0  0
   -0.5060   61.0196   75.6269 H   0  0  0  0  0  0  0  0  0  0  0  0
   -2.1929   62.5660   76.0228 H   0  0  0  0  0  0  0  0  0  0  0  0
   -4.6099   63.1350   76.1617 H   0  0  0  0  0  0  0  0  0  0  0  0
   -5.6082   59.3057   74.4148 H   0  0  0  0  0  0  0  0  0  0  0  0
   -3.1923   58.7328   74.2998 H   0  0  0  0  0  0  0  0  0  0  0  0
   -7.3032   60.6665   75.5463 H   0  0  0  0  0  0  0  0  0  0  0  0
   -6.8667   62.2921   76.2317 H   0  0  0  0  0  0  0  0  0  0  0  0
   -6.3835   62.3510   73.5957 H   0  0  0  0  0  0  0  0  0  0  0  0
   -7.7933   60.7352   72.7326 H   0  0  0  0  0  0  0  0  0  0  0  0
   -8.9389   60.8879   74.0463 H   0  0  0  0  0  0  0  0  0  0  0  0
   -8.4121   62.8354   71.7142 H   0  0  0  0  0  0  0  0  0  0  0  0
   -9.9645   62.1865   72.1891 H   0  0  0  0  0  0  0  0  0  0  0  0
   -9.2699   64.6250   73.0643 H   0  0  0  0  0  0  0  0  0  0  0  0
  -10.0033   63.5432   74.2470 H   0  0  0  0  0  0  0  0  0  0  0  0
   -7.1348   64.4249   73.9629 H   0  0  0  0  0  0  0  0  0  0  0  0
   -7.9665   63.8915   75.4246 H   0  0  0  0  0  0  0  0  0  0  0  0
  2  1  2  0
  3  2  1  0
  4  3  2  0
  5  4  1  0
  6  5  2  0
  6  1  1  0
  7  4  1  0
  8  7  1  0
  9  8  1  0
  9  3  1  0
 10  9  2  0
 12 11  1  0
 12  1  1  0
 13  6  1  0
 14 13  1  0
 15  8  1  0
 16 15  1  0
 17 16  2  0
 18 17  1  0
 19 18  2  0
 20 19  1  0
 21 20  2  0
 21 16  1  0
 22 19  1  0
 23 22  1  0
 24 23  1  0
 25 24  1  0
 26 25  1  0
 27 26  1  0
 27 23  1  0
  2 28  1  0
  5 29  1  0
  7 30  1  0
  7 31  1  0
  8 32  1  6
 11 33  1  0
 11 34  1  0
 11 35  1  0
 14 36  1  0
 14 37  1  0
 14 38  1  0
 15 39  1  0
 15 40  1  0
 17 41  1  0
 18 42  1  0
 20 43  1  0
 21 44  1  0
 22 45  1  0
 22 46  1  0
 23 47  1  0
 24 48  1  0
 24 49  1  0
 25 50  1  0
 25 51  1  0
 26 52  1  0
 26 53  1  0
 27 54  1  0
 27 55  1  0
M  CHG  1  23   1
M  END
>  <score>  (8) 
-7.805

$$$$
=
     RDKit          3D

 55 58  0  0  0  0  0  0  0  0999 V2000
   -5.8920   60.3050   74.8130 C   0  0  0  0  0  0  0  0  0  0  0  0
   -4.7370   60.8920   74.2870 C   0  0  0  0  0  0  0  0  0  0  0  0
   -3.5420   60.2190   74.4600 C   0  0  0  0  0  0  0  0  0  0  0  0
   -3.4400   59.0080   75.1240 C   0  0  0  0  0  0  0  0  0  0  0  0
   -4.5760   58.4150   75.6550 C   0  0  0  0  0  0  0  0  0  0  0  0
   -5.8120   59.0620   75.4990 C   0  0  0  0  0  0  0  0  0  0  0  0
   -2.0300   58.5170   75.2070 C   0  0  0  0  0  0  0  0  0  0  0  0
   -1.2240   59.4950   74.3140 C   0  0  1  0  0  0  0  0  0  0  0  0
   -2.2140   60.6090   74.0060 C   0  0  0  0  0  0  0  0  0  0  0  0
   -1.9820   61.6670   73.4490 O   0  0  0  0  0  0  0  0  0  0  0  0
   -7.6270   61.1840   73.4200 C   0  0  0  0  0  0  0  0  0  0  0  0
   -7.1470   60.8540   74.7170 O   0  0  0  0  0  0  0  0  0  0  0  0
   -7.0030   58.5710   75.9800 O   0  0  0  0  0  0  0  0  0  0  0  0
   -6.9700   57.3780   76.7480 C   0  0  0  0  0  0  0  0  0  0  0  0
    0.0350   60.0050   75.0180 C   0  0  0  0  0  0  0  0  0  0  0  0
    1.2370   60.0800   74.1010 C   0  0  0  0  0  0  0  0  0  0  0  0
    2.2920   60.9560   74.3780 C   0  0  0  0  0  0  0  0  0  0  0  0
    3.4150   61.0010   73.5490 C   0  0  0  0  0  0  0  0  0  0  0  0
    3.5080   60.1610   72.4280 C   0  0  0  0  0  0  0  0  0  0  0  0
    2.4500   59.2850   72.1520 C   0  0  0  0  0  0  0  0  0  0  0  0
    1.3260   59.2490   72.9790 C   0  0  0  0  0  0  0  0  0  0  0  0
    4.7070   60.2200   71.5240 C   0  0  0  0  0  0  0  0  0  0  0  0
    4.5770   61.2870   70.4750 N   0  0  0  0  0  4  0  0  0  0  0  0
    3.2250   61.3360   69.8140 C   0  0  0  0  0  0  0  0  0  0  0  0
    3.1660   62.7480   69.2750 C   0  0  0  0  0  0  0  0  0  0  0  0
    3.7750   63.5600   70.4020 C   0  0  0  0  0  0  0  0  0  0  0  0
    4.9070   62.6930   70.9360 C   0  0  0  0  0  0  0  0  0  0  0  0
   -4.7778   61.8540   73.7551 H   0  0  0  0  0  0  0  0  0  0  0  0
   -4.5096   57.4554   76.1885 H   0  0  0  0  0  0  0  0  0  0  0  0
   -1.6675   58.5500   76.2450 H   0  0  0  0  0  0  0  0  0  0  0  0
   -1.9313   57.4722   74.8773 H   0  0  0  0  0  0  0  0  0  0  0  0
   -0.8426   59.0181   73.3990 H   0  0  0  0  0  0  0  0  0  0  0  0
   -8.5304   61.8051   73.5104 H   0  0  0  0  0  0  0  0  0  0  0  0
   -6.8522   61.7412   72.8731 H   0  0  0  0  0  0  0  0  0  0  0  0
   -7.8698   60.2610   72.8731 H   0  0  0  0  0  0  0  0  0  0  0  0
   -6.9770   57.6308   77.8185 H   0  0  0  0  0  0  0  0  0  0  0  0
   -7.8515   56.7644   76.5104 H   0  0  0  0  0  0  0  0  0  0  0  0
   -6.0559   56.8141   76.5104 H   0  0  0  0  0  0  0  0  0  0  0  0
   -0.1677   61.0114   75.4130 H   0  0  0  0  0  0  0  0  0  0  0  0
    0.2764   59.2902   75.8185 H   0  0  0  0  0  0  0  0  0  0  0  0
    2.2365   61.6153   75.2567 H   0  0  0  0  0  0  0  0  0  0  0  0
    4.2332   61.7002   73.7762 H   0  0  0  0  0  0  0  0  0  0  0  0
    2.5055   58.6206   71.2771 H   0  0  0  0  0  0  0  0  0  0  0  0
    0.5011   58.5596   72.7459 H   0  0  0  0  0  0  0  0  0  0  0  0
    5.5991   60.4289   72.1326 H   0  0  0  0  0  0  0  0  0  0  0  0
    4.7896   59.2508   71.0103 H   0  0  0  0  0  0  0  0  0  0  0  0
    5.2916   60.9866   69.7967 H   0  0  0  0  0  0  0  0  0  0  0  0
    3.1546   60.5984   69.0010 H   0  0  0  0  0  0  0  0  0  0  0  0
    2.3973   61.0960   70.4976 H   0  0  0  0  0  0  0  0  0  0  0  0
    3.7563   62.8453   68.3519 H   0  0  0  0  0  0  0  0  0  0  0  0
    2.1496   63.0701   69.0043 H   0  0  0  0  0  0  0  0  0  0  0  0
    4.1645   64.5168   70.0241 H   0  0  0  0  0  0  0  0  0  0  0  0
    3.0387   63.8086   71.1805 H   0  0  0  0  0  0  0  0  0  0  0  0
    5.8722   63.0191   70.5212 H   0  0  0  0  0  0  0  0  0  0  0  0
    4.9958   62.7583   72.0305 H   0  0  0  0  0  0  0  0  0  0  0  0
  2  1  2  0
  3  2  1  0
  4  3  2  0
  5  4  1  0
  6  5  2  0
  6  1  1  0
  7  4  1  0
  8  7  1  0
  9  8  1  0
  9  3  1  0
 10  9  2  0
 12 11  1  0
 12  1  1  0
 13  6  1  0
 14 13  1  0
 15  8  1  0
 16 15  1  0
 17 16  2  0
 18 17  1  0
 19 18  2  0
 20 19  1  0
 21 20  2  0
 21 16  1  0
 22 19  1  0
 23 22  1  0
 24 23  1  0
 25 24  1  0
 26 25  1  0
 27 26  1  0
 27 23  1  0
  2 28  1  0
  5 29  1  0
  7 30  1  0
  7 31  1  0
  8 32  1  6
 11 33  1  0
 11 34  1  0
 11 35  1  0
 14 36  1  0
 14 37  1  0
 14 38  1  0
 15 39  1  0
 15 40  1  0
 17 41  1  0
 18 42  1  0
 20 43  1  0
 21 44  1  0
 22 45  1  0
 22 46  1  0
 23 47  1  0
 24 48  1  0
 24 49  1  0
 25 50  1  0
 25 51  1  0
 26 52  1  0
 26 53  1  0
 27 54  1  0
 27 55  1  0
M  CHG  1  23   1
M  END
>  <score>  (9) 
-7.624

$$$$
