=
     RDKit          3D

 44 45  0  0  0  0  0  0  0  0999 V2000
    3.3150   69.2790   65.8470 C   0  0  1  0  0  0  0  0  0  0  0  0
    4.3790   69.7830   66.8210 C   0  0  0  0  0  0  0  0  0  0  0  0
    5.7360   69.8130   66.4410 C   0  0  0  0  0  0  0  0  0  0  0  0
    6.7270   70.2790   67.3070 C   0  0  0  0  0  0  0  0  0  0  0  0
    6.3810   70.7290   68.5740 C   0  0  0  0  0  0  0  0  0  0  0  0
    5.0470   70.7080   68.9760 C   0  0  0  0  0  0  0  0  0  0  0  0
    4.0380   70.2300   68.1210 C   0  0  0  0  0  0  0  0  0  0  0  0
    2.6180   70.2610   68.6240 C   0  0  0  0  0  0  0  0  0  0  0  0
    3.8730   68.5480   64.6360 C   0  0  0  0  0  0  0  0  0  0  0  0
    3.8860   67.1440   64.5750 C   0  0  0  0  0  0  0  0  0  0  0  0
    4.3570   66.4850   63.4390 C   0  0  0  0  0  0  0  0  0  0  0  0
    4.8170   67.2190   62.3480 C   0  0  0  0  0  0  0  0  0  0  0  0
    4.8130   68.6110   62.3930 C   0  0  0  0  0  0  0  0  0  0  0  0
    4.3440   69.2720   63.5290 C   0  0  0  0  0  0  0  0  0  0  0  0
    2.4430   68.3220   66.4920 O   0  0  0  0  0  0  0  0  0  0  0  0
    1.0850   68.4040   66.0410 C   0  0  0  0  0  0  0  0  0  0  0  0
    0.2560   67.5400   66.9950 C   0  0  0  0  0  0  0  0  0  0  0  0
   -2.1570   67.1220   67.5740 C   0  0  0  0  0  0  0  0  0  0  0  0
   -1.1870   67.5180   66.5060 N   0  0  0  0  0  4  0  0  0  0  0  0
   -1.6070   68.7710   65.7960 C   0  0  0  0  0  0  0  0  0  0  0  0
    2.7966   70.1938   65.5239 H   0  0  0  0  0  0  0  0  0  0  0  0
    6.0209   69.4610   65.4386 H   0  0  0  0  0  0  0  0  0  0  0  0
    7.7792   70.2896   66.9863 H   0  0  0  0  0  0  0  0  0  0  0  0
    7.1576   71.1010   69.2584 H   0  0  0  0  0  0  0  0  0  0  0  0
    4.7787   71.0714   69.9790 H   0  0  0  0  0  0  0  0  0  0  0  0
    2.6186   70.2610   69.7240 H   0  0  0  0  0  0  0  0  0  0  0  0
    2.1190   71.1703   68.2576 H   0  0  0  0  0  0  0  0  0  0  0  0
    2.0798   69.3744   68.2576 H   0  0  0  0  0  0  0  0  0  0  0  0
    3.5210   66.5586   65.4318 H   0  0  0  0  0  0  0  0  0  0  0  0
    4.3651   65.3856   63.4048 H   0  0  0  0  0  0  0  0  0  0  0  0
    5.1835   66.6990   61.4507 H   0  0  0  0  0  0  0  0  0  0  0  0
    5.1798   69.1898   61.5325 H   0  0  0  0  0  0  0  0  0  0  0  0
    4.3433   70.3716   63.5575 H   0  0  0  0  0  0  0  0  0  0  0  0
    0.7365   69.4468   66.0731 H   0  0  0  0  0  0  0  0  0  0  0  0
    0.9893   68.0535   65.0027 H   0  0  0  0  0  0  0  0  0  0  0  0
    0.6573   66.5159   67.0101 H   0  0  0  0  0  0  0  0  0  0  0  0
    0.3005   67.9566   68.0121 H   0  0  0  0  0  0  0  0  0  0  0  0
   -1.7093   67.3048   68.5620 H   0  0  0  0  0  0  0  0  0  0  0  0
   -3.0769   67.7166   67.4726 H   0  0  0  0  0  0  0  0  0  0  0  0
   -2.3980   66.0535   67.4726 H   0  0  0  0  0  0  0  0  0  0  0  0
   -1.2107   66.7751   65.7929 H   0  0  0  0  0  0  0  0  0  0  0  0
   -1.8656   69.5426   66.5361 H   0  0  0  0  0  0  0  0  0  0  0  0
   -0.7801   69.1300   65.1657 H   0  0  0  0  0  0  0  0  0  0  0  0
   -2.4832   68.5591   65.1657 H   0  0  0  0  0  0  0  0  0  0  0  0
  2  1  1  0
  3  2  2  0
  4  3  1  0
  5  4  2  0
  6  5  1  0
  7  6  2  0
  7  2  1  0
  8  7  1  0
  9  1  1  0
 10  9  2  0
 11 10  1  0
 12 11  2  0
 13 12  1  0
 14 13  2  0
 14  9  1  0
 15  1  1  0
 16 15  1  0
 17 16  1  0
 19 18  1  0
 19 17  1  0
 20 19  1  0
  1 21  1  6
  3 22  1  0
  4 23  1  0
  5 24  1  0
  6 25  1  0
  8 26  1  0
  8 27  1  0
  8 28  1  0
 10 29  1  0
 11 30  1  0
 12 31  1  0
 13 32  1  0
 14 33  1  0
 16 34  1  0
 16 35  1  0
 17 36  1  0
 17 37  1  0
 18 38  1  0
 18 39  1  0
 18 40  1  0
 19 41  1  0
 20 42  1  0
 20 43  1  0
 20 44  1  0
M  CHG  1  19   1
M  END
>  <score>  (1) 
-9.551

$$$$
=
     RDKit          3D

 44 45  0  0  0  0  0  0  0  0999 V2000
    2.6870   68.7070   65.6480 C   0  0  1  0  0  0  0  0  0  0  0  0
    1.4540   68.2120   66.4030 C   0  0  0  0  0  0  0  0  0  0  0  0
    1.5870   67.6190   67.6760 C   0  0  0  0  0  0  0  0  0  0  0  0
    0.4760   67.1680   68.3900 C   0  0  0  0  0  0  0  0  0  0  0  0
   -0.7950   67.3030   67.8490 C   0  0  0  0  0  0  0  0  0  0  0  0
   -0.9550   67.8830   66.5930 C   0  0  0  0  0  0  0  0  0  0  0  0
    0.1530   68.3310   65.8530 C   0  0  0  0  0  0  0  0  0  0  0  0
   -0.1070   68.9660   64.5120 C   0  0  0  0  0  0  0  0  0  0  0  0
    3.6960   69.4420   66.5160 C   0  0  0  0  0  0  0  0  0  0  0  0
    3.3510   69.9130   67.7950 C   0  0  0  0  0  0  0  0  0  0  0  0
    4.2990   70.5440   68.6010 C   0  0  0  0  0  0  0  0  0  0  0  0
    5.6040   70.7090   68.1440 C   0  0  0  0  0  0  0  0  0  0  0  0
    5.9630   70.2500   66.8780 C   0  0  0  0  0  0  0  0  0  0  0  0
    5.0160   69.6200   66.0690 C   0  0  0  0  0  0  0  0  0  0  0  0
    3.4190   67.5980   65.0810 O   0  0  0  0  0  0  0  0  0  0  0  0
    2.9990   67.2650   63.7520 C   0  0  0  0  0  0  0  0  0  0  0  0
    4.2700   66.9490   62.9580 C   0  0  0  0  0  0  0  0  0  0  0  0
    3.2540   68.6600   61.4180 C   0  0  0  0  0  0  0  0  0  0  0  0
    4.5190   68.0750   61.9630 N   0  0  0  0  0  4  0  0  0  0  0  0
    5.4610   69.1300   62.4630 C   0  0  0  0  0  0  0  0  0  0  0  0
    2.2777   69.3918   64.8907 H   0  0  0  0  0  0  0  0  0  0  0  0
    2.5893   67.5096   68.1159 H   0  0  0  0  0  0  0  0  0  0  0  0
    0.6074   66.7064   69.3798 H   0  0  0  0  0  0  0  0  0  0  0  0
   -1.6735   66.9528   68.4107 H   0  0  0  0  0  0  0  0  0  0  0  0
   -1.9657   67.9924   66.1728 H   0  0  0  0  0  0  0  0  0  0  0  0
   -0.5201   69.9750   64.6580 H   0  0  0  0  0  0  0  0  0  0  0  0
    0.8358   69.0337   63.9494 H   0  0  0  0  0  0  0  0  0  0  0  0
   -0.8265   68.3530   63.9494 H   0  0  0  0  0  0  0  0  0  0  0  0
    2.3230   69.7827   68.1640 H   0  0  0  0  0  0  0  0  0  0  0  0
    4.0153   70.9114   69.5983 H   0  0  0  0  0  0  0  0  0  0  0  0
    6.3519   71.2019   68.7825 H   0  0  0  0  0  0  0  0  0  0  0  0
    6.9931   70.3843   66.5162 H   0  0  0  0  0  0  0  0  0  0  0  0
    5.3061   69.2592   65.0712 H   0  0  0  0  0  0  0  0  0  0  0  0
    2.3360   66.3875   63.7721 H   0  0  0  0  0  0  0  0  0  0  0  0
    2.4402   68.0939   63.2930 H   0  0  0  0  0  0  0  0  0  0  0  0
    5.1248   66.8672   63.6455 H   0  0  0  0  0  0  0  0  0  0  0  0
    4.1489   65.9961   62.4219 H   0  0  0  0  0  0  0  0  0  0  0  0
    2.6012   68.9619   62.2503 H   0  0  0  0  0  0  0  0  0  0  0  0
    3.4924   69.5393   60.8015 H   0  0  0  0  0  0  0  0  0  0  0  0
    2.7385   67.9089   60.8015 H   0  0  0  0  0  0  0  0  0  0  0  0
    5.0025   67.6245   61.1729 H   0  0  0  0  0  0  0  0  0  0  0  0
    5.4610   69.1300   63.5630 H   0  0  0  0  0  0  0  0  0  0  0  0
    6.4763   68.9186   62.0963 H   0  0  0  0  0  0  0  0  0  0  0  0
    5.1364   70.1150   62.0963 H   0  0  0  0  0  0  0  0  0  0  0  0
  2  1  1  0
  3  2  2  0
  4  3  1  0
  5  4  2  0
  6  5  1  0
  7  6  2  0
  7  2  1  0
  8  7  1  0
  9  1  1  0
 10  9  2  0
 11 10  1  0
 12 11  2  0
 13 12  1  0
 14 13  2  0
 14  9  1  0
 15  1  1  0
 16 15  1  0
 17 16  1  0
 19 18  1  0
 19 17  1  0
 20 19  1  0
  1 21  1  6
  3 22  1  0
  4 23  1  0
  5 24  1  0
  6 25  1  0
  8 26  1  0
  8 27  1  0
  8 28  1  0
 10 29  1  0
 11 30  1  0
 12 31  1  0
 13 32  1  0
 14 33  1  0
 16 34  1  0
 16 35  1  0
 17 36  1  0
 17 37  1  0
 18 38  1  0
 18 39  1  0
 18 40  1  0
 19 41  1  0
 20 42  1  0
 20 43  1  0
 20 44  1  0
M  CHG  1  19   1
M  END
>  <score>  (2) 
-9.302

$$$$
=
     RDKit          3D

 44 45  0  0  0  0  0  0  0  0999 V2000
    2.4180   68.2600   65.7170 C   0  0  1  0  0  0  0  0  0  0  0  0
    3.0790   67.9190   64.3830 C   0  0  0  0  0  0  0  0  0  0  0  0
    3.2830   68.9200   63.4110 C   0  0  0  0  0  0  0  0  0  0  0  0
    3.8940   68.6360   62.1880 C   0  0  0  0  0  0  0  0  0  0  0  0
    4.3160   67.3440   61.9100 C   0  0  0  0  0  0  0  0  0  0  0  0
    4.1230   66.3350   62.8510 C   0  0  0  0  0  0  0  0  0  0  0  0
    3.4990   66.6000   64.0820 C   0  0  0  0  0  0  0  0  0  0  0  0
    3.3480   65.4570   65.0530 C   0  0  0  0  0  0  0  0  0  0  0  0
    3.2710   69.1250   66.6320 C   0  0  0  0  0  0  0  0  0  0  0  0
    2.7880   69.5660   67.8770 C   0  0  0  0  0  0  0  0  0  0  0  0
    3.5970   70.3190   68.7280 C   0  0  0  0  0  0  0  0  0  0  0  0
    4.9000   70.6380   68.3510 C   0  0  0  0  0  0  0  0  0  0  0  0
    5.3930   70.2100   67.1210 C   0  0  0  0  0  0  0  0  0  0  0  0
    4.5860   69.4580   66.2660 C   0  0  0  0  0  0  0  0  0  0  0  0
    1.2050   69.0190   65.5090 O   0  0  0  0  0  0  0  0  0  0  0  0
    0.0190   68.2880   65.8440 C   0  0  0  0  0  0  0  0  0  0  0  0
   -0.7390   69.1330   66.8720 C   0  0  0  0  0  0  0  0  0  0  0  0
   -2.9510   68.7590   65.7320 C   0  0  0  0  0  0  0  0  0  0  0  0
   -2.1610   68.5980   66.9920 N   0  0  0  0  0  4  0  0  0  0  0  0
   -2.2410   67.2030   67.5370 C   0  0  0  0  0  0  0  0  0  0  0  0
    2.2438   67.2799   66.1850 H   0  0  0  0  0  0  0  0  0  0  0  0
    2.9532   69.9482   63.6210 H   0  0  0  0  0  0  0  0  0  0  0  0
    4.0404   69.4351   61.4464 H   0  0  0  0  0  0  0  0  0  0  0  0
    4.8015   67.1169   60.9494 H   0  0  0  0  0  0  0  0  0  0  0  0
    4.4648   65.3138   62.6267 H   0  0  0  0  0  0  0  0  0  0  0  0
    3.3988   65.8413   66.0824 H   0  0  0  0  0  0  0  0  0  0  0  0
    2.3771   64.9654   64.8926 H   0  0  0  0  0  0  0  0  0  0  0  0
    4.1579   64.7302   64.8926 H   0  0  0  0  0  0  0  0  0  0  0  0
    1.7617   69.3145   68.1828 H   0  0  0  0  0  0  0  0  0  0  0  0
    3.2060   70.6613   69.6975 H   0  0  0  0  0  0  0  0  0  0  0  0
    5.5389   71.2277   69.0248 H   0  0  0  0  0  0  0  0  0  0  0  0
    6.4206   70.4651   66.8227 H   0  0  0  0  0  0  0  0  0  0  0  0
    4.9832   69.1229   65.2965 H   0  0  0  0  0  0  0  0  0  0  0  0
   -0.5995   68.1362   64.9471 H   0  0  0  0  0  0  0  0  0  0  0  0
    0.2655   67.2958   66.2498 H   0  0  0  0  0  0  0  0  0  0  0  0
   -0.2356   69.0680   67.8479 H   0  0  0  0  0  0  0  0  0  0  0  0
   -0.7604   70.1846   66.5499 H   0  0  0  0  0  0  0  0  0  0  0  0
   -4.0006   68.9729   65.9821 H   0  0  0  0  0  0  0  0  0  0  0  0
   -2.5373   69.5913   65.1437 H   0  0  0  0  0  0  0  0  0  0  0  0
   -2.8960   67.8312   65.1437 H   0  0  0  0  0  0  0  0  0  0  0  0
   -2.6078   69.1971   67.7007 H   0  0  0  0  0  0  0  0  0  0  0  0
   -2.2390   67.2382   68.6364 H   0  0  0  0  0  0  0  0  0  0  0  0
   -3.1680   66.7253   67.1871 H   0  0  0  0  0  0  0  0  0  0  0  0
   -1.3747   66.6224   67.1871 H   0  0  0  0  0  0  0  0  0  0  0  0
  2  1  1  0
  3  2  2  0
  4  3  1  0
  5  4  2  0
  6  5  1  0
  7  6  2  0
  7  2  1  0
  8  7  1  0
  9  1  1  0
 10  9  2  0
 11 10  1  0
 12 11  2  0
 13 12  1  0
 14 13  2  0
 14  9  1  0
 15  1  1  0
 16 15  1  0
 17 16  1  0
 19 18  1  0
 19 17  1  0
 20 19  1  0
  1 21  1  1
  3 22  1  0
  4 23  1  0
  5 24  1  0
  6 25  1  0
  8 26  1  0
  8 27  1  0
  8 28  1  0
 10 29  1  0
 11 30  1  0
 12 31  1  0
 13 32  1  0
 14 33  1  0
 16 34  1  0
 16 35  1  0
 17 36  1  0
 17 37  1  0
 18 38  1  0
 18 39  1  0
 18 40  1  0
 19 41  1  0
 20 42  1  0
 20 43  1  0
 20 44  1  0
M  CHG  1  19   1
M  END
>  <score>  (3) 
-9.296

$$$$
=
     RDKit          3D

 44 45  0  0  0  0  0  0  0  0999 V2000
    2.1640   68.7450   66.4180 C   0  0  1  0  0  0  0  0  0  0  0  0
    1.1010   68.0060   67.2280 C   0  0  0  0  0  0  0  0  0  0  0  0
    1.4590   67.2950   68.3930 C   0  0  0  0  0  0  0  0  0  0  0  0
    0.5050   66.6200   69.1570 C   0  0  0  0  0  0  0  0  0  0  0  0
   -0.8280   66.6410   68.7750 C   0  0  0  0  0  0  0  0  0  0  0  0
   -1.2090   67.3330   67.6270 C   0  0  0  0  0  0  0  0  0  0  0  0
   -0.2610   68.0080   66.8380 C   0  0  0  0  0  0  0  0  0  0  0  0
   -0.7570   68.7500   65.6240 C   0  0  0  0  0  0  0  0  0  0  0  0
    3.1620   69.5240   67.2610 C   0  0  0  0  0  0  0  0  0  0  0  0
    4.4920   69.6970   66.8410 C   0  0  0  0  0  0  0  0  0  0  0  0
    5.3850   70.4540   67.5990 C   0  0  0  0  0  0  0  0  0  0  0  0
    4.9620   71.0520   68.7840 C   0  0  0  0  0  0  0  0  0  0  0  0
    3.6470   70.8900   69.2150 C   0  0  0  0  0  0  0  0  0  0  0  0
    2.7520   70.1320   68.4590 C   0  0  0  0  0  0  0  0  0  0  0  0
    2.9650   67.8160   65.6540 O   0  0  0  0  0  0  0  0  0  0  0  0
    2.2550   67.2300   64.5550 C   0  0  0  0  0  0  0  0  0  0  0  0
    2.5620   65.7310   64.5860 C   0  0  0  0  0  0  0  0  0  0  0  0
    4.3910   64.0720   64.0980 C   0  0  0  0  0  0  0  0  0  0  0  0
    4.0020   65.5160   64.1370 N   0  0  0  0  0  4  0  0  0  0  0  0
    4.3550   66.2320   62.8670 C   0  0  0  0  0  0  0  0  0  0  0  0
    1.5839   69.4381   65.7910 H   0  0  0  0  0  0  0  0  0  0  0  0
    2.5132   67.2720   68.7063 H   0  0  0  0  0  0  0  0  0  0  0  0
    0.8103   66.0723   70.0607 H   0  0  0  0  0  0  0  0  0  0  0  0
   -1.5825   66.1129   69.3765 H   0  0  0  0  0  0  0  0  0  0  0  0
   -2.2689   67.3515   67.3333 H   0  0  0  0  0  0  0  0  0  0  0  0
   -1.3421   69.6252   65.9429 H   0  0  0  0  0  0  0  0  0  0  0  0
    0.1012   69.0824   65.0214 H   0  0  0  0  0  0  0  0  0  0  0  0
   -1.3922   68.0841   65.0214 H   0  0  0  0  0  0  0  0  0  0  0  0
    4.8322   69.2305   65.9047 H   0  0  0  0  0  0  0  0  0  0  0  0
    6.4243   70.5790   67.2609 H   0  0  0  0  0  0  0  0  0  0  0  0
    5.6661   71.6520   69.3793 H   0  0  0  0  0  0  0  0  0  0  0  0
    3.3140   71.3601   70.1521 H   0  0  0  0  0  0  0  0  0  0  0  0
    1.7150   70.0094   68.8047 H   0  0  0  0  0  0  0  0  0  0  0  0
    1.1739   67.3985   64.6684 H   0  0  0  0  0  0  0  0  0  0  0  0
    2.5632   67.6785   63.5991 H   0  0  0  0  0  0  0  0  0  0  0  0
    2.4325   65.3481   65.6090 H   0  0  0  0  0  0  0  0  0  0  0  0
    1.8765   65.1948   63.9133 H   0  0  0  0  0  0  0  0  0  0  0  0
    4.4934   63.6920   65.1252 H   0  0  0  0  0  0  0  0  0  0  0  0
    3.6156   63.4975   63.5701 H   0  0  0  0  0  0  0  0  0  0  0  0
    5.3501   63.9647   63.5701 H   0  0  0  0  0  0  0  0  0  0  0  0
    4.5737   65.9568   64.8717 H   0  0  0  0  0  0  0  0  0  0  0  0
    4.8295   67.1945   63.1085 H   0  0  0  0  0  0  0  0  0  0  0  0
    5.0527   65.6161   62.2806 H   0  0  0  0  0  0  0  0  0  0  0  0
    3.4416   66.4104   62.2806 H   0  0  0  0  0  0  0  0  0  0  0  0
  2  1  1  0
  3  2  2  0
  4  3  1  0
  5  4  2  0
  6  5  1  0
  7  6  2  0
  7  2  1  0
  8  7  1  0
  9  1  1  0
 10  9  2  0
 11 10  1  0
 12 11  2  0
 13 12  1  0
 14 13  2  0
 14  9  1  0
 15  1  1  0
 16 15  1  0
 17 16  1  0
 19 18  1  0
 19 17  1  0
 20 19  1  0
  1 21  1  6
  3 22  1  0
  4 23  1  0
  5 24  1  0
  6 25  1  0
  8 26  1  0
  8 27  1  0
  8 28  1  0
 10 29  1  0
 11 30  1  0
 12 31  1  0
 13 32  1  0
 14 33  1  0
 16 34  1  0
 16 35  1  0
 17 36  1  0
 17 37  1  0
 18 38  1  0
 18 39  1  0
 18 40  1  0
 19 41  1  0
 20 42  1  0
 20 43  1  0
 20 44  1  0
M  CHG  1  19   1
M  END
>  <score>  (4) 
-9.162

$$$$
=
     RDKit          3D

 44 45  0  0  0  0  0  0  0  0999 V2000
    2.3730   68.4790   66.0730 C   0  0  1  0  0  0  0  0  0  0  0  0
    3.1940   69.3510   67.0210 C   0  0  0  0  0  0  0  0  0  0  0  0
    2.6360   69.8100   68.2320 C   0  0  0  0  0  0  0  0  0  0  0  0
    3.3680   70.5990   69.1200 C   0  0  0  0  0  0  0  0  0  0  0  0
    4.6780   70.9470   68.8180 C   0  0  0  0  0  0  0  0  0  0  0  0
    5.2530   70.5100   67.6270 C   0  0  0  0  0  0  0  0  0  0  0  0
    4.5270   69.7250   66.7150 C   0  0  0  0  0  0  0  0  0  0  0  0
    5.2290   69.2750   65.4600 C   0  0  0  0  0  0  0  0  0  0  0  0
    0.9170   68.3140   66.4800 C   0  0  0  0  0  0  0  0  0  0  0  0
   -0.0930   69.1100   65.9130 C   0  0  0  0  0  0  0  0  0  0  0  0
   -1.4300   68.9170   66.2600 C   0  0  0  0  0  0  0  0  0  0  0  0
   -1.7780   67.9240   67.1720 C   0  0  0  0  0  0  0  0  0  0  0  0
   -0.7890   67.1260   67.7450 C   0  0  0  0  0  0  0  0  0  0  0  0
    0.5500   67.3190   67.4010 C   0  0  0  0  0  0  0  0  0  0  0  0
    2.3280   69.0620   64.7510 O   0  0  0  0  0  0  0  0  0  0  0  0
    2.3000   68.0830   63.7040 C   0  0  0  0  0  0  0  0  0  0  0  0
    2.8380   66.7830   64.3080 C   0  0  0  0  0  0  0  0  0  0  0  0
    4.3990   64.9500   63.5740 C   0  0  0  0  0  0  0  0  0  0  0  0
    4.1460   66.4240   63.6120 N   0  0  0  0  0  4  0  0  0  0  0  0
    4.3120   67.0630   62.2650 C   0  0  0  0  0  0  0  0  0  0  0  0
    2.8811   67.5038   66.1026 H   0  0  0  0  0  0  0  0  0  0  0  0
    1.5995   69.5397   68.4824 H   0  0  0  0  0  0  0  0  0  0  0  0
    2.9082   70.9447   70.0576 H   0  0  0  0  0  0  0  0  0  0  0  0
    5.2597   71.5658   69.5171 H   0  0  0  0  0  0  0  0  0  0  0  0
    6.2931   70.7840   67.3963 H   0  0  0  0  0  0  0  0  0  0  0  0
    6.1270   68.6993   65.7285 H   0  0  0  0  0  0  0  0  0  0  0  0
    4.5515   68.6424   64.8676 H   0  0  0  0  0  0  0  0  0  0  0  0
    5.5209   70.1547   64.8676 H   0  0  0  0  0  0  0  0  0  0  0  0
    0.1737   69.8932   65.1881 H   0  0  0  0  0  0  0  0  0  0  0  0
   -2.2105   69.5500   65.8127 H   0  0  0  0  0  0  0  0  0  0  0  0
   -2.8335   67.7692   67.4403 H   0  0  0  0  0  0  0  0  0  0  0  0
   -1.0638   66.3441   68.4683 H   0  0  0  0  0  0  0  0  0  0  0  0
    1.3257   66.6854   67.8558 H   0  0  0  0  0  0  0  0  0  0  0  0
    1.2697   67.9380   63.3471 H   0  0  0  0  0  0  0  0  0  0  0  0
    2.9075   68.4030   62.8446 H   0  0  0  0  0  0  0  0  0  0  0  0
    3.0176   66.9217   65.3843 H   0  0  0  0  0  0  0  0  0  0  0  0
    2.1056   65.9742   64.1686 H   0  0  0  0  0  0  0  0  0  0  0  0
    4.4655   64.5628   64.6014 H   0  0  0  0  0  0  0  0  0  0  0  0
    3.5736   64.4498   63.0463 H   0  0  0  0  0  0  0  0  0  0  0  0
    5.3440   64.7537   63.0463 H   0  0  0  0  0  0  0  0  0  0  0  0
    4.8807   66.8355   64.2052 H   0  0  0  0  0  0  0  0  0  0  0  0
    4.5867   68.1205   62.3922 H   0  0  0  0  0  0  0  0  0  0  0  0
    5.1048   66.5427   61.7075 H   0  0  0  0  0  0  0  0  0  0  0  0
    3.3662   66.9944   61.7075 H   0  0  0  0  0  0  0  0  0  0  0  0
  2  1  1  0
  3  2  2  0
  4  3  1  0
  5  4  2  0
  6  5  1  0
  7  6  2  0
  7  2  1  0
  8  7  1  0
  9  1  1  0
 10  9  2  0
 11 10  1  0
 12 11  2  0
 13 12  1  0
 14 13  2  0
 14  9  1  0
 15  1  1  0
 16 15  1  0
 17 16  1  0
 19 18  1  0
 19 17  1  0
 20 19  1  0
  1 21  1  6
  3 22  1  0
  4 23  1  0
  5 24  1  0
  6 25  1  0
  8 26  1  0
  8 27  1  0
  8 28  1  0
 10 29  1  0
 11 30  1  0
 12 31  1  0
 13 32  1  0
 14 33  1  0
 16 34  1  0
 16 35  1  0
 17 36  1  0
 17 37  1  0
 18 38  1  0
 18 39  1  0
 18 40  1  0
 19 41  1  0
 20 42  1  0
 20 43  1  0
 20 44  1  0
M  CHG  1  19   1
M  END
>  <score>  (5) 
-9.029

$$$$
=
     RDKit          3D

 44 45  0  0  0  0  0  0  0  0999 V2000
    2.4370   67.7290   65.1120 C   0  0  1  0  0  0  0  0  0  0  0  0
    2.9680   68.6810   66.1820 C   0  0  0  0  0  0  0  0  0  0  0  0
    4.2410   69.2720   66.0430 C   0  0  0  0  0  0  0  0  0  0  0  0
    4.7450   70.1530   67.0010 C   0  0  0  0  0  0  0  0  0  0  0  0
    3.9860   70.4650   68.1200 C   0  0  0  0  0  0  0  0  0  0  0  0
    2.7270   69.8930   68.2840 C   0  0  0  0  0  0  0  0  0  0  0  0
    2.2080   68.9940   67.3360 C   0  0  0  0  0  0  0  0  0  0  0  0
    0.8290   68.4360   67.5770 C   0  0  0  0  0  0  0  0  0  0  0  0
    1.7540   68.4230   63.9430 C   0  0  0  0  0  0  0  0  0  0  0  0
    2.4300   68.6460   62.7320 C   0  0  0  0  0  0  0  0  0  0  0  0
    1.7780   69.2400   61.6510 C   0  0  0  0  0  0  0  0  0  0  0  0
    0.4410   69.6150   61.7640 C   0  0  0  0  0  0  0  0  0  0  0  0
   -0.2440   69.4020   62.9580 C   0  0  0  0  0  0  0  0  0  0  0  0
    0.4070   68.8090   64.0410 C   0  0  0  0  0  0  0  0  0  0  0  0
    3.5160   66.9730   64.5180 O   0  0  0  0  0  0  0  0  0  0  0  0
    3.1660   65.6100   64.2450 C   0  0  0  0  0  0  0  0  0  0  0  0
    4.3040   65.0270   63.4020 C   0  0  0  0  0  0  0  0  0  0  0  0
    4.1340   63.4330   65.3410 C   0  0  0  0  0  0  0  0  0  0  0  0
    4.9570   63.8910   64.1790 N   0  0  0  0  0  4  0  0  0  0  0  0
    5.4080   62.7480   63.3190 C   0  0  0  0  0  0  0  0  0  0  0  0
    1.7107   67.1029   65.6510 H   0  0  0  0  0  0  0  0  0  0  0  0
    4.8507   69.0331   65.1592 H   0  0  0  0  0  0  0  0  0  0  0  0
    5.7418   70.5991   66.8693 H   0  0  0  0  0  0  0  0  0  0  0  0
    4.3777   71.1622   68.8753 H   0  0  0  0  0  0  0  0  0  0  0  0
    2.1283   70.1490   69.1706 H   0  0  0  0  0  0  0  0  0  0  0  0
    0.6472   68.3624   68.6594 H   0  0  0  0  0  0  0  0  0  0  0  0
    0.0797   69.1017   67.1238 H   0  0  0  0  0  0  0  0  0  0  0  0
    0.7535   67.4366   67.1238 H   0  0  0  0  0  0  0  0  0  0  0  0
    3.4847   68.3491   62.6350 H   0  0  0  0  0  0  0  0  0  0  0  0
    2.3197   69.4123   60.7093 H   0  0  0  0  0  0  0  0  0  0  0  0
   -0.0738   70.0794   60.9100 H   0  0  0  0  0  0  0  0  0  0  0  0
   -1.2987   69.7013   63.0475 H   0  0  0  0  0  0  0  0  0  0  0  0
   -0.1403   68.6423   64.9805 H   0  0  0  0  0  0  0  0  0  0  0  0
    3.0641   65.0486   65.1854 H   0  0  0  0  0  0  0  0  0  0  0  0
    2.2051   65.5458   63.7134 H   0  0  0  0  0  0  0  0  0  0  0  0
    3.9019   64.6427   62.4530 H   0  0  0  0  0  0  0  0  0  0  0  0
    5.0476   65.8082   63.1858 H   0  0  0  0  0  0  0  0  0  0  0  0
    4.6363   63.7125   66.2789 H   0  0  0  0  0  0  0  0  0  0  0  0
    3.1435   63.9096   65.2993 H   0  0  0  0  0  0  0  0  0  0  0  0
    4.0170   62.3400   65.2993 H   0  0  0  0  0  0  0  0  0  0  0  0
    5.8181   64.3006   64.5683 H   0  0  0  0  0  0  0  0  0  0  0  0
    5.7365   61.9154   63.9584 H   0  0  0  0  0  0  0  0  0  0  0  0
    4.5737   62.4155   62.6839 H   0  0  0  0  0  0  0  0  0  0  0  0
    6.2446   63.0748   62.6839 H   0  0  0  0  0  0  0  0  0  0  0  0
  2  1  1  0
  3  2  2  0
  4  3  1  0
  5  4  2  0
  6  5  1  0
  7  6  2  0
  7  2  1  0
  8  7  1  0
  9  1  1  0
 10  9  2  0
 11 10  1  0
 12 11  2  0
 13 12  1  0
 14 13  2  0
 14  9  1  0
 15  1  1  0
 16 15  1  0
 17 16  1  0
 19 18  1  0
 19 17  1  0
 20 19  1  0
  1 21  1  1
  3 22  1  0
  4 23  1  0
  5 24  1  0
  6 25  1  0
  8 26  1  0
  8 27  1  0
  8 28  1  0
 10 29  1  0
 11 30  1  0
 12 31  1  0
 13 32  1  0
 14 33  1  0
 16 34  1  0
 16 35  1  0
 17 36  1  0
 17 37  1  0
 18 38  1  0
 18 39  1  0
 18 40  1  0
 19 41  1  0
 20 42  1  0
 20 43  1  0
 20 44  1  0
M  CHG  1  19   1
M  END
>  <score>  (6) 
-8.573

$$$$
=
     RDKit          3D

 44 45  0  0  0  0  0  0  0  0999 V2000
    2.8260   67.7280   65.0200 C   0  0  1  0  0  0  0  0  0  0  0  0
    1.8350   68.3300   64.0240 C   0  0  0  0  0  0  0  0  0  0  0  0
    2.2280   68.5890   62.6950 C   0  0  0  0  0  0  0  0  0  0  0  0
    1.3390   69.1280   61.7630 C   0  0  0  0  0  0  0  0  0  0  0  0
    0.0360   69.4190   62.1400 C   0  0  0  0  0  0  0  0  0  0  0  0
   -0.3780   69.1760   63.4470 C   0  0  0  0  0  0  0  0  0  0  0  0
    0.5070   68.6450   64.4020 C   0  0  0  0  0  0  0  0  0  0  0  0
   -0.0250   68.3910   65.7890 C   0  0  0  0  0  0  0  0  0  0  0  0
    3.3630   66.3630   64.6180 C   0  0  0  0  0  0  0  0  0  0  0  0
    4.3300   66.2290   63.6070 C   0  0  0  0  0  0  0  0  0  0  0  0
    4.8490   64.9760   63.2800 C   0  0  0  0  0  0  0  0  0  0  0  0
    4.4140   63.8420   63.9610 C   0  0  0  0  0  0  0  0  0  0  0  0
    3.4560   63.9570   64.9660 C   0  0  0  0  0  0  0  0  0  0  0  0
    2.9330   65.2090   65.2930 C   0  0  0  0  0  0  0  0  0  0  0  0
    3.9960   68.5670   65.1480 O   0  0  0  0  0  0  0  0  0  0  0  0
    3.9360   69.4500   66.2750 C   0  0  0  0  0  0  0  0  0  0  0  0
    5.3690   69.9240   66.5350 C   0  0  0  0  0  0  0  0  0  0  0  0
    6.5030   71.3770   68.2490 C   0  0  0  0  0  0  0  0  0  0  0  0
    5.5050   70.2880   68.0080 N   0  0  0  0  0  4  0  0  0  0  0  0
    4.1960   70.5580   68.6900 C   0  0  0  0  0  0  0  0  0  0  0  0
    2.2471   67.6415   65.9514 H   0  0  0  0  0  0  0  0  0  0  0  0
    3.2586   68.3612   62.3853 H   0  0  0  0  0  0  0  0  0  0  0  0
    1.6710   69.3214   60.7323 H   0  0  0  0  0  0  0  0  0  0  0  0
   -0.6685   69.8408   61.4080 H   0  0  0  0  0  0  0  0  0  0  0  0
   -1.4144   69.4032   63.7372 H   0  0  0  0  0  0  0  0  0  0  0  0
    0.7069   68.7404   66.5321 H   0  0  0  0  0  0  0  0  0  0  0  0
   -0.9721   68.9341   65.9236 H   0  0  0  0  0  0  0  0  0  0  0  0
   -0.1981   67.3131   65.9236 H   0  0  0  0  0  0  0  0  0  0  0  0
    4.6813   67.1212   63.0680 H   0  0  0  0  0  0  0  0  0  0  0  0
    5.6023   64.8838   62.4837 H   0  0  0  0  0  0  0  0  0  0  0  0
    4.8269   62.8550   63.7054 H   0  0  0  0  0  0  0  0  0  0  0  0
    3.1116   63.0604   65.5022 H   0  0  0  0  0  0  0  0  0  0  0  0
    2.1766   65.2927   66.0872 H   0  0  0  0  0  0  0  0  0  0  0  0
    3.2868   70.3091   66.0502 H   0  0  0  0  0  0  0  0  0  0  0  0
    3.5201   68.9407   67.1568 H   0  0  0  0  0  0  0  0  0  0  0  0
    6.0758   69.1187   66.2862 H   0  0  0  0  0  0  0  0  0  0  0  0
    5.5919   70.8017   65.9106 H   0  0  0  0  0  0  0  0  0  0  0  0
    6.6347   71.5207   69.3316 H   0  0  0  0  0  0  0  0  0  0  0  0
    7.4661   71.0985   67.7963 H   0  0  0  0  0  0  0  0  0  0  0  0
    6.1418   72.3122   67.7963 H   0  0  0  0  0  0  0  0  0  0  0  0
    5.8795   69.4387   68.4544 H   0  0  0  0  0  0  0  0  0  0  0  0
    4.3378   70.5288   69.7804 H   0  0  0  0  0  0  0  0  0  0  0  0
    3.8267   71.5512   68.3948 H   0  0  0  0  0  0  0  0  0  0  0  0
    3.4639   69.7920   68.3948 H   0  0  0  0  0  0  0  0  0  0  0  0
  2  1  1  0
  3  2  2  0
  4  3  1  0
  5  4  2  0
  6  5  1  0
  7  6  2  0
  7  2  1  0
  8  7  1  0
  9  1  1  0
 10  9  2  0
 11 10  1  0
 12 11  2  0
 13 12  1  0
 14 13  2  0
 14  9  1  0
 15  1  1  0
 16 15  1  0
 17 16  1  0
 19 18  1  0
 19 17  1  0
 20 19  1  0
  1 21  1  1
  3 22  1  0
  4 23  1  0
  5 24  1  0
  6 25  1  0
  8 26  1  0
  8 27  1  0
  8 28  1  0
 10 29  1  0
 11 30  1  0
 12 31  1  0
 13 32  1  0
 14 33  1  0
 16 34  1  0
 16 35  1  0
 17 36  1  0
 17 37  1  0
 18 38  1  0
 18 39  1  0
 18 40  1  0
 19 41  1  0
 20 42  1  0
 20 43  1  0
 20 44  1  0
M  CHG  1  19   1
M  END
>  <score>  (7) 
-8.355

$$$$
=
     RDKit          3D

 44 45  0  0  0  0  0  0  0  0999 V2000
    2.3580   68.3760   66.0780 C   0  0  1  0  0  0  0  0  0  0  0  0
    3.2630   69.2760   66.9170 C   0  0  0  0  0  0  0  0  0  0  0  0
    2.8130   69.7880   68.1520 C   0  0  0  0  0  0  0  0  0  0  0  0
    3.6240   70.6040   68.9420 C   0  0  0  0  0  0  0  0  0  0  0  0
    4.9040   70.9260   68.5170 C   0  0  0  0  0  0  0  0  0  0  0  0
    5.3730   70.4370   67.2990 C   0  0  0  0  0  0  0  0  0  0  0  0
    4.5660   69.6240   66.4840 C   0  0  0  0  0  0  0  0  0  0  0  0
    5.1550   69.1180   65.1930 C   0  0  0  0  0  0  0  0  0  0  0  0
    1.0170   68.0620   66.7250 C   0  0  0  0  0  0  0  0  0  0  0  0
    0.9150   67.1360   67.7770 C   0  0  0  0  0  0  0  0  0  0  0  0
   -0.3120   66.8920   68.3940 C   0  0  0  0  0  0  0  0  0  0  0  0
   -1.4520   67.5720   67.9720 C   0  0  0  0  0  0  0  0  0  0  0  0
   -1.3680   68.4930   66.9300 C   0  0  0  0  0  0  0  0  0  0  0  0
   -0.1420   68.7370   66.3100 C   0  0  0  0  0  0  0  0  0  0  0  0
    2.0270   69.0090   64.8220 O   0  0  0  0  0  0  0  0  0  0  0  0
    1.8330   68.0730   63.7530 C   0  0  0  0  0  0  0  0  0  0  0  0
    1.8260   68.8880   62.4560 C   0  0  0  0  0  0  0  0  0  0  0  0
    0.1210   69.8490   60.8740 C   0  0  0  0  0  0  0  0  0  0  0  0
    0.4600   69.5460   62.3000 N   0  0  0  0  0  4  0  0  0  0  0  0
   -0.6470   68.8210   63.0040 C   0  0  0  0  0  0  0  0  0  0  0  0
    2.9414   67.4510   65.9594 H   0  0  0  0  0  0  0  0  0  0  0  0
    1.7999   69.5384   68.5003 H   0  0  0  0  0  0  0  0  0  0  0  0
    3.2483   70.9912   69.9006 H   0  0  0  0  0  0  0  0  0  0  0  0
    5.5473   71.5655   69.1393 H   0  0  0  0  0  0  0  0  0  0  0  0
    6.3914   70.6914   66.9700 H   0  0  0  0  0  0  0  0  0  0  0  0
    5.9725   68.4157   65.4133 H   0  0  0  0  0  0  0  0  0  0  0  0
    4.3760   68.6031   64.6115 H   0  0  0  0  0  0  0  0  0  0  0  0
    5.5466   69.9657   64.6115 H   0  0  0  0  0  0  0  0  0  0  0  0
    1.8120   66.5980   68.1175 H   0  0  0  0  0  0  0  0  0  0  0  0
   -0.3793   66.1622   69.2143 H   0  0  0  0  0  0  0  0  0  0  0  0
   -2.4186   67.3819   68.4614 H   0  0  0  0  0  0  0  0  0  0  0  0
   -2.2690   69.0283   66.5958 H   0  0  0  0  0  0  0  0  0  0  0  0
   -0.0830   69.4655   65.4879 H   0  0  0  0  0  0  0  0  0  0  0  0
    2.6529   67.3399   63.7365 H   0  0  0  0  0  0  0  0  0  0  0  0
    0.8924   67.5165   63.8778 H   0  0  0  0  0  0  0  0  0  0  0  0
    2.6067   69.6617   62.5007 H   0  0  0  0  0  0  0  0  0  0  0  0
    2.0249   68.2290   61.5980 H   0  0  0  0  0  0  0  0  0  0  0  0
   -0.6987   70.5817   60.8397 H   0  0  0  0  0  0  0  0  0  0  0  0
    1.0048   70.2636   60.3671 H   0  0  0  0  0  0  0  0  0  0  0  0
   -0.1922   68.9244   60.3671 H   0  0  0  0  0  0  0  0  0  0  0  0
    0.5474   70.4513   62.7834 H   0  0  0  0  0  0  0  0  0  0  0  0
   -0.5103   68.9105   64.0918 H   0  0  0  0  0  0  0  0  0  0  0  0
   -1.6136   69.2616   62.7184 H   0  0  0  0  0  0  0  0  0  0  0  0
   -0.6295   67.7589   62.7184 H   0  0  0  0  0  0  0  0  0  0  0  0
  2  1  1  0
  3  2  2  0
  4  3  1  0
  5  4  2  0
  6  5  1  0
  7  6  2  0
  7  2  1  0
  8  7  1  0
  9  1  1  0
 10  9  2  0
 11 10  1  0
 12 11  2  0
 13 12  1  0
 14 13  2  0
 14  9  1  0
 15  1  1  0
 16 15  1  0
 17 16  1  0
 19 18  1  0
 19 17  1  0
 20 19  1  0
  1 21  1  6
  3 22  1  0
  4 23  1  0
  5 24  1  0
  6 25  1  0
  8 26  1  0
  8 27  1  0
  8 28  1  0
 10 29  1  0
 11 30  1  0
 12 31  1  0
 13 32  1  0
 14 33  1  0
 16 34  1  0
 16 35  1  0
 17 36  1  0
 17 37  1  0
 18 38  1  0
 18 39  1  0
 18 40  1  0
 19 41  1  0
 20 42  1  0
 20 43  1  0
 20 44  1  0
M  CHG  1  19   1
M  END
>  <score>  (8) 
-8.303

$$$$
=
     RDKit          3D

 44 45  0  0  0  0  0  0  0  0999 V2000
    2.7740   67.7270   64.5270 C   0  0  1  0  0  0  0  0  0  0  0  0
    3.1480   68.6090   65.7170 C   0  0  0  0  0  0  0  0  0  0  0  0
    2.3170   68.6600   66.8560 C   0  0  0  0  0  0  0  0  0  0  0  0
    2.6410   69.4490   67.9610 C   0  0  0  0  0  0  0  0  0  0  0  0
    3.8050   70.2050   67.9530 C   0  0  0  0  0  0  0  0  0  0  0  0
    4.6420   70.1760   66.8390 C   0  0  0  0  0  0  0  0  0  0  0  0
    4.3250   69.3970   65.7130 C   0  0  0  0  0  0  0  0  0  0  0  0
    5.2940   69.4040   64.5590 C   0  0  0  0  0  0  0  0  0  0  0  0
    1.8620   68.4010   63.5130 C   0  0  0  0  0  0  0  0  0  0  0  0
    0.5480   68.7700   63.8480 C   0  0  0  0  0  0  0  0  0  0  0  0
   -0.2630   69.4300   62.9250 C   0  0  0  0  0  0  0  0  0  0  0  0
    0.2280   69.7350   61.6580 C   0  0  0  0  0  0  0  0  0  0  0  0
    1.5280   69.3760   61.3090 C   0  0  0  0  0  0  0  0  0  0  0  0
    2.3410   68.7130   62.2300 C   0  0  0  0  0  0  0  0  0  0  0  0
    3.9520   67.3520   63.7780 O   0  0  0  0  0  0  0  0  0  0  0  0
    4.0780   65.9350   63.5980 C   0  0  0  0  0  0  0  0  0  0  0  0
    3.1810   65.2800   64.6520 C   0  0  0  0  0  0  0  0  0  0  0  0
    4.7840   63.4630   63.9740 C   0  0  0  0  0  0  0  0  0  0  0  0
    3.6410   63.8420   64.8620 N   0  0  0  0  0  4  0  0  0  0  0  0
    3.8960   63.4900   66.2970 C   0  0  0  0  0  0  0  0  0  0  0  0
    2.2561   66.8707   64.9836 H   0  0  0  0  0  0  0  0  0  0  0  0
    1.3924   68.0643   66.8737 H   0  0  0  0  0  0  0  0  0  0  0  0
    1.9752   69.4716   68.8363 H   0  0  0  0  0  0  0  0  0  0  0  0
    4.0661   70.8251   68.8232 H   0  0  0  0  0  0  0  0  0  0  0  0
    5.5661   70.7727   66.8411 H   0  0  0  0  0  0  0  0  0  0  0  0
    6.3240   69.4114   64.9451 H   0  0  0  0  0  0  0  0  0  0  0  0
    5.1392   68.5047   63.9447 H   0  0  0  0  0  0  0  0  0  0  0  0
    5.1262   70.3010   63.9447 H   0  0  0  0  0  0  0  0  0  0  0  0
    0.1551   68.5359   64.8484 H   0  0  0  0  0  0  0  0  0  0  0  0
   -1.2912   69.7098   63.1980 H   0  0  0  0  0  0  0  0  0  0  0  0
   -0.4110   70.2596   60.9324 H   0  0  0  0  0  0  0  0  0  0  0  0
    1.9141   69.6151   60.3071 H   0  0  0  0  0  0  0  0  0  0  0  0
    3.3666   68.4322   61.9482 H   0  0  0  0  0  0  0  0  0  0  0  0
    3.7481   65.6496   62.5882 H   0  0  0  0  0  0  0  0  0  0  0  0
    5.1235   65.6118   63.7098 H   0  0  0  0  0  0  0  0  0  0  0  0
    3.2571   65.8347   65.5988 H   0  0  0  0  0  0  0  0  0  0  0  0
    2.1347   65.2924   64.3128 H   0  0  0  0  0  0  0  0  0  0  0  0
    5.6483   63.1764   64.5911 H   0  0  0  0  0  0  0  0  0  0  0  0
    4.4893   62.6145   63.3390 H   0  0  0  0  0  0  0  0  0  0  0  0
    5.0547   64.3195   63.3390 H   0  0  0  0  0  0  0  0  0  0  0  0
    2.8382   63.2639   64.5753 H   0  0  0  0  0  0  0  0  0  0  0  0
    3.3761   64.2077   66.9486 H   0  0  0  0  0  0  0  0  0  0  0  0
    3.5222   62.4751   66.4976 H   0  0  0  0  0  0  0  0  0  0  0  0
    4.9769   63.5289   66.4976 H   0  0  0  0  0  0  0  0  0  0  0  0
  2  1  1  0
  3  2  2  0
  4  3  1  0
  5  4  2  0
  6  5  1  0
  7  6  2  0
  7  2  1  0
  8  7  1  0
  9  1  1  0
 10  9  2  0
 11 10  1  0
 12 11  2  0
 13 12  1  0
 14 13  2  0
 14  9  1  0
 15  1  1  0
 16 15  1  0
 17 16  1  0
 19 18  1  0
 19 17  1  0
 20 19  1  0
  1 21  1  1
  3 22  1  0
  4 23  1  0
  5 24  1  0
  6 25  1  0
  8 26  1  0
  8 27  1  0
  8 28  1  0
 10 29  1  0
 11 30  1  0
 12 31  1  0
 13 32  1  0
 14 33  1  0
 16 34  1  0
 16 35  1  0
 17 36  1  0
 17 37  1  0
 18 38  1  0
 18 39  1  0
 18 40  1  0
 19 41  1  0
 20 42  1  0
 20 43  1  0
 20 44  1  0
M  CHG  1  19   1
M  END
>  <score>  (9) 
-8.223

$$$$
