=
     RDKit          3D

 62 65  0  0  0  0  0  0  0  0999 V2000
    0.3420   64.0770   70.6320 C   0  0  0  0  0  0  0  0  0  0  0  0
   -0.2360   66.0890   71.8250 O   0  0  0  0  0  0  0  0  0  0  0  0
    0.0340   65.5670   70.7420 C   0  0  0  0  0  0  0  0  0  0  0  0
    0.0730   66.3530   69.5020 C   0  0  0  0  0  0  0  0  0  0  0  0
   -1.0030   66.6250   68.6400 C   0  0  0  0  0  0  0  0  0  0  0  0
   -0.4940   67.4130   67.6270 C   0  0  0  0  0  0  0  0  0  0  0  0
    0.8710   67.5280   67.8730 N   0  0  0  0  0  0  0  0  0  0  0  0
    1.1980   66.9290   69.0600 N   0  0  0  0  0  0  0  0  0  0  0  0
   -1.2590   68.0560   66.5290 C   0  0  0  0  0  0  0  0  0  0  0  0
    1.9170   68.1410   67.1110 C   0  0  0  0  0  0  0  0  0  0  0  0
    2.2330   67.7480   65.8060 C   0  0  0  0  0  0  0  0  0  0  0  0
    3.2670   68.3820   65.1050 C   0  0  0  0  0  0  0  0  0  0  0  0
    4.0000   69.4060   65.7010 C   0  0  0  0  0  0  0  0  0  0  0  0
    3.7080   69.7950   67.0040 C   0  0  0  0  0  0  0  0  0  0  0  0
    2.6770   69.1640   67.7070 C   0  0  0  0  0  0  0  0  0  0  0  0
    0.3780   63.3900   72.0010 C   0  0  0  0  0  0  0  0  0  0  0  0
    1.4310   62.2740   72.1530 C   0  0  2  0  0  0  0  0  0  0  0  0
    0.8220   60.8900   72.3500 C   0  0  0  0  0  0  0  0  0  0  0  0
    1.8870   59.7970   72.2950 C   0  0  0  0  0  0  0  0  0  0  0  0
    3.1410   60.1320   73.1390 N   0  0  1  0  0  4  0  0  0  0  0  0
    2.9110   61.3510   74.0350 C   0  0  0  0  0  0  0  0  0  0  0  0
    2.4600   62.5800   73.2500 C   0  0  0  0  0  0  0  0  0  0  0  0
    3.4250   58.9370   74.0580 C   0  0  0  0  0  0  0  0  0  0  0  0
    4.3510   60.3330   72.1790 C   0  0  0  0  0  0  0  0  0  0  0  0
    4.1500   61.2400   70.9880 C   0  0  0  0  0  0  0  0  0  0  0  0
    4.7280   62.5200   70.9620 C   0  0  0  0  0  0  0  0  0  0  0  0
    4.5400   63.3670   69.8680 C   0  0  0  0  0  0  0  0  0  0  0  0
    3.7810   62.9420   68.7810 C   0  0  0  0  0  0  0  0  0  0  0  0
    3.2180   61.6680   68.7820 C   0  0  0  0  0  0  0  0  0  0  0  0
    3.4050   60.8200   69.8760 C   0  0  0  0  0  0  0  0  0  0  0  0
   -0.4345   63.5994   70.0165 H   0  0  0  0  0  0  0  0  0  0  0  0
    1.3370   63.9710   70.1751 H   0  0  0  0  0  0  0  0  0  0  0  0
   -2.0416   66.2797   68.7502 H   0  0  0  0  0  0  0  0  0  0  0  0
   -2.0351   68.7083   66.9559 H   0  0  0  0  0  0  0  0  0  0  0  0
   -0.5765   68.6556   65.9088 H   0  0  0  0  0  0  0  0  0  0  0  0
   -1.7323   67.2805   65.9088 H   0  0  0  0  0  0  0  0  0  0  0  0
    1.6659   66.9360   65.3273 H   0  0  0  0  0  0  0  0  0  0  0  0
    3.5018   68.0692   64.0769 H   0  0  0  0  0  0  0  0  0  0  0  0
    4.8064   69.9048   65.1433 H   0  0  0  0  0  0  0  0  0  0  0  0
    4.2879   70.5987   67.4813 H   0  0  0  0  0  0  0  0  0  0  0  0
    2.4572   69.4716   68.7400 H   0  0  0  0  0  0  0  0  0  0  0  0
    0.5852   64.1580   72.7608 H   0  0  0  0  0  0  0  0  0  0  0  0
   -0.6005   62.9021   72.1213 H   0  0  0  0  0  0  0  0  0  0  0  0
    1.9630   62.2540   71.1904 H   0  0  0  0  0  0  0  0  0  0  0  0
    0.3240   60.8548   73.3302 H   0  0  0  0  0  0  0  0  0  0  0  0
    0.1016   60.7112   71.5382 H   0  0  0  0  0  0  0  0  0  0  0  0
    1.4492   58.8615   72.6735 H   0  0  0  0  0  0  0  0  0  0  0  0
    2.2101   59.7045   71.2476 H   0  0  0  0  0  0  0  0  0  0  0  0
    2.1368   61.1026   74.7759 H   0  0  0  0  0  0  0  0  0  0  0  0
    3.8693   61.5963   74.5162 H   0  0  0  0  0  0  0  0  0  0  0  0
    2.0123   63.2961   73.9548 H   0  0  0  0  0  0  0  0  0  0  0  0
    3.3518   62.9832   72.7478 H   0  0  0  0  0  0  0  0  0  0  0  0
    3.3492   59.2558   75.1080 H   0  0  0  0  0  0  0  0  0  0  0  0
    2.6909   58.1415   73.8625 H   0  0  0  0  0  0  0  0  0  0  0  0
    4.4385   58.5568   73.8625 H   0  0  0  0  0  0  0  0  0  0  0  0
    5.1786   60.7475   72.7735 H   0  0  0  0  0  0  0  0  0  0  0  0
    4.5358   59.3383   71.7472 H   0  0  0  0  0  0  0  0  0  0  0  0
    5.3360   62.8591   71.8137 H   0  0  0  0  0  0  0  0  0  0  0  0
    4.9916   64.3700   69.8650 H   0  0  0  0  0  0  0  0  0  0  0  0
    3.6261   63.6117   67.9222 H   0  0  0  0  0  0  0  0  0  0  0  0
    2.6251   61.3291   67.9197 H   0  0  0  0  0  0  0  0  0  0  0  0
    2.9636   59.8125   69.8655 H   0  0  0  0  0  0  0  0  0  0  0  0
  3  1  1  0
  3  2  2  0
  4  3  1  0
  5  4  1  0
  6  5  2  0
  7  6  1  0
  8  7  1  0
  8  4  2  0
  9  6  1  0
 10  7  1  0
 11 10  2  0
 12 11  1  0
 13 12  2  0
 14 13  1  0
 15 14  2  0
 15 10  1  0
 16  1  1  0
 17 16  1  0
 18 17  1  0
 19 18  1  0
 20 19  1  0
 21 20  1  0
 22 21  1  0
 22 17  1  0
 20 23  1  1
 24 20  1  0
 25 24  1  0
 26 25  2  0
 27 26  1  0
 28 27  2  0
 29 28  1  0
 30 29  2  0
 30 25  1  0
  1 31  1  0
  1 32  1  0
  5 33  1  0
  9 34  1  0
  9 35  1  0
  9 36  1  0
 11 37  1  0
 12 38  1  0
 13 39  1  0
 14 40  1  0
 15 41  1  0
 16 42  1  0
 16 43  1  0
 17 44  1  6
 18 45  1  0
 18 46  1  0
 19 47  1  0
 19 48  1  0
 21 49  1  0
 21 50  1  0
 22 51  1  0
 22 52  1  0
 23 53  1  0
 23 54  1  0
 23 55  1  0
 24 56  1  0
 24 57  1  0
 26 58  1  0
 27 59  1  0
 28 60  1  0
 29 61  1  0
 30 62  1  0
M  CHG  1  20   1
M  END
>  <score>  (1) 
-10.938

$$$$
=
     RDKit          3D

 62 65  0  0  0  0  0  0  0  0999 V2000
    0.7550   66.4960   70.1050 C   0  0  0  0  0  0  0  0  0  0  0  0
   -1.0940   66.5420   68.5620 O   0  0  0  0  0  0  0  0  0  0  0  0
    0.0790   66.8460   68.7830 C   0  0  0  0  0  0  0  0  0  0  0  0
    0.8860   67.5610   67.7860 C   0  0  0  0  0  0  0  0  0  0  0  0
    0.6510   67.6300   66.4020 C   0  0  0  0  0  0  0  0  0  0  0  0
    1.6520   68.4260   65.8820 C   0  0  0  0  0  0  0  0  0  0  0  0
    2.4860   68.7470   66.9480 N   0  0  0  0  0  0  0  0  0  0  0  0
    1.9720   68.2660   68.1230 N   0  0  0  0  0  0  0  0  0  0  0  0
    1.7790   68.8930   64.4790 C   0  0  0  0  0  0  0  0  0  0  0  0
    3.7270   69.4610   66.9920 C   0  0  0  0  0  0  0  0  0  0  0  0
    4.1390   70.1970   68.1080 C   0  0  0  0  0  0  0  0  0  0  0  0
    5.3630   70.8780   68.0970 C   0  0  0  0  0  0  0  0  0  0  0  0
    6.1830   70.8370   66.9730 C   0  0  0  0  0  0  0  0  0  0  0  0
    5.7790   70.1230   65.8490 C   0  0  0  0  0  0  0  0  0  0  0  0
    4.5570   69.4440   65.8560 C   0  0  0  0  0  0  0  0  0  0  0  0
    0.2730   65.1540   70.6660 C   0  0  0  0  0  0  0  0  0  0  0  0
    1.3790   64.1150   70.9360 C   0  0  2  0  0  0  0  0  0  0  0  0
    2.7240   64.4890   70.3210 C   0  0  0  0  0  0  0  0  0  0  0  0
    3.8310   63.5430   70.7770 C   0  0  0  0  0  0  0  0  0  0  0  0
    3.4210   62.0510   70.6980 N   0  0  1  0  0  4  0  0  0  0  0  0
    2.1060   61.8650   69.9380 C   0  0  0  0  0  0  0  0  0  0  0  0
    0.9670   62.6950   70.5240 C   0  0  0  0  0  0  0  0  0  0  0  0
    4.5090   61.3030   69.9170 C   0  0  0  0  0  0  0  0  0  0  0  0
    3.3460   61.4750   72.1430 C   0  0  0  0  0  0  0  0  0  0  0  0
    2.7360   60.1040   72.3130 C   0  0  0  0  0  0  0  0  0  0  0  0
    1.5950   59.9260   73.1140 C   0  0  0  0  0  0  0  0  0  0  0  0
    1.0310   58.6600   73.2820 C   0  0  0  0  0  0  0  0  0  0  0  0
    1.5920   57.5570   72.6450 C   0  0  0  0  0  0  0  0  0  0  0  0
    2.7110   57.7190   71.8320 C   0  0  0  0  0  0  0  0  0  0  0  0
    3.2770   58.9840   71.6620 C   0  0  0  0  0  0  0  0  0  0  0  0
    1.8418   66.4423   69.9435 H   0  0  0  0  0  0  0  0  0  0  0  0
    0.4958   67.2784   70.8335 H   0  0  0  0  0  0  0  0  0  0  0  0
   -0.1657   67.1472   65.8454 H   0  0  0  0  0  0  0  0  0  0  0  0
    2.0677   69.9544   64.4706 H   0  0  0  0  0  0  0  0  0  0  0  0
    2.5484   68.2997   63.9633 H   0  0  0  0  0  0  0  0  0  0  0  0
    0.8151   68.7710   63.9633 H   0  0  0  0  0  0  0  0  0  0  0  0
    3.4973   70.2413   69.0004 H   0  0  0  0  0  0  0  0  0  0  0  0
    5.6783   71.4491   68.9827 H   0  0  0  0  0  0  0  0  0  0  0  0
    7.1469   71.3671   66.9732 H   0  0  0  0  0  0  0  0  0  0  0  0
    6.4205   70.0929   64.9559 H   0  0  0  0  0  0  0  0  0  0  0  0
    4.2400   68.8887   64.9609 H   0  0  0  0  0  0  0  0  0  0  0  0
   -0.2474   65.3501   71.6150 H   0  0  0  0  0  0  0  0  0  0  0  0
   -0.3722   64.7154   69.8905 H   0  0  0  0  0  0  0  0  0  0  0  0
    1.5135   64.1226   72.0277 H   0  0  0  0  0  0  0  0  0  0  0  0
    2.6416   64.4406   69.2252 H   0  0  0  0  0  0  0  0  0  0  0  0
    2.9826   65.5062   70.6502 H   0  0  0  0  0  0  0  0  0  0  0  0
    4.7117   63.6992   70.1367 H   0  0  0  0  0  0  0  0  0  0  0  0
    4.0454   63.7706   71.8316 H   0  0  0  0  0  0  0  0  0  0  0  0
    2.2586   62.1658   68.8910 H   0  0  0  0  0  0  0  0  0  0  0  0
    1.8217   60.8054   70.0184 H   0  0  0  0  0  0  0  0  0  0  0  0
    0.1703   62.7709   69.7694 H   0  0  0  0  0  0  0  0  0  0  0  0
    0.6357   62.1811   71.4384 H   0  0  0  0  0  0  0  0  0  0  0  0
    5.2042   60.8251   70.6229 H   0  0  0  0  0  0  0  0  0  0  0  0
    4.0427   60.5337   69.2840 H   0  0  0  0  0  0  0  0  0  0  0  0
    5.0603   62.0139   69.2840 H   0  0  0  0  0  0  0  0  0  0  0  0
    4.3731   61.4301   72.5342 H   0  0  0  0  0  0  0  0  0  0  0  0
    2.6684   62.1536   72.6819 H   0  0  0  0  0  0  0  0  0  0  0  0
    1.1411   60.7941   73.6143 H   0  0  0  0  0  0  0  0  0  0  0  0
    0.1426   58.5342   73.9183 H   0  0  0  0  0  0  0  0  0  0  0  0
    1.1520   56.5584   72.7836 H   0  0  0  0  0  0  0  0  0  0  0  0
    3.1499   56.8484   71.3226 H   0  0  0  0  0  0  0  0  0  0  0  0
    4.1558   59.1043   71.0114 H   0  0  0  0  0  0  0  0  0  0  0  0
  3  1  1  0
  3  2  2  0
  4  3  1  0
  5  4  1  0
  6  5  2  0
  7  6  1  0
  8  7  1  0
  8  4  2  0
  9  6  1  0
 10  7  1  0
 11 10  2  0
 12 11  1  0
 13 12  2  0
 14 13  1  0
 15 14  2  0
 15 10  1  0
 16  1  1  0
 17 16  1  0
 18 17  1  0
 19 18  1  0
 20 19  1  0
 21 20  1  0
 22 21  1  0
 22 17  1  0
 20 23  1  6
 24 20  1  0
 25 24  1  0
 26 25  2  0
 27 26  1  0
 28 27  2  0
 29 28  1  0
 30 29  2  0
 30 25  1  0
  1 31  1  0
  1 32  1  0
  5 33  1  0
  9 34  1  0
  9 35  1  0
  9 36  1  0
 11 37  1  0
 12 38  1  0
 13 39  1  0
 14 40  1  0
 15 41  1  0
 16 42  1  0
 16 43  1  0
 17 44  1  1
 18 45  1  0
 18 46  1  0
 19 47  1  0
 19 48  1  0
 21 49  1  0
 21 50  1  0
 22 51  1  0
 22 52  1  0
 23 53  1  0
 23 54  1  0
 23 55  1  0
 24 56  1  0
 24 57  1  0
 26 58  1  0
 27 59  1  0
 28 60  1  0
 29 61  1  0
 30 62  1  0
M  CHG  1  20   1
M  END
>  <score>  (2) 
-10.625

$$$$
=
     RDKit          3D

 62 65  0  0  0  0  0  0  0  0999 V2000
    0.8630   64.4110   70.3870 C   0  0  0  0  0  0  0  0  0  0  0  0
   -0.3300   66.2060   71.4640 O   0  0  0  0  0  0  0  0  0  0  0  0
    0.2030   65.7850   70.4360 C   0  0  0  0  0  0  0  0  0  0  0  0
    0.2300   66.5860   69.2050 C   0  0  0  0  0  0  0  0  0  0  0  0
   -0.8710   66.9520   68.4120 C   0  0  0  0  0  0  0  0  0  0  0  0
   -0.3640   67.7150   67.3790 C   0  0  0  0  0  0  0  0  0  0  0  0
    1.0180   67.7220   67.5450 N   0  0  0  0  0  0  0  0  0  0  0  0
    1.3680   67.0820   68.7030 N   0  0  0  0  0  0  0  0  0  0  0  0
   -1.1400   68.4330   66.3370 C   0  0  0  0  0  0  0  0  0  0  0  0
    2.0620   68.2670   66.7280 C   0  0  0  0  0  0  0  0  0  0  0  0
    2.2400   67.9080   65.3880 C   0  0  0  0  0  0  0  0  0  0  0  0
    3.2780   68.4710   64.6350 C   0  0  0  0  0  0  0  0  0  0  0  0
    4.1520   69.3880   65.2120 C   0  0  0  0  0  0  0  0  0  0  0  0
    3.9990   69.7400   66.5500 C   0  0  0  0  0  0  0  0  0  0  0  0
    2.9640   69.1800   67.3050 C   0  0  0  0  0  0  0  0  0  0  0  0
    0.0450   63.3480   71.1290 C   0  0  0  0  0  0  0  0  0  0  0  0
    0.8590   62.4000   72.0310 C   0  0  2  0  0  0  0  0  0  0  0  0
    0.0420   61.2320   72.5760 C   0  0  0  0  0  0  0  0  0  0  0  0
    0.9260   60.2160   73.2940 C   0  0  0  0  0  0  0  0  0  0  0  0
    1.9330   60.8750   74.2690 N   0  0  1  0  0  4  0  0  0  0  0  0
    1.6290   62.3600   74.4790 C   0  0  0  0  0  0  0  0  0  0  0  0
    1.5780   63.1400   73.1680 C   0  0  0  0  0  0  0  0  0  0  0  0
    1.7930   60.1840   75.6310 C   0  0  0  0  0  0  0  0  0  0  0  0
    3.3760   60.6460   73.7300 C   0  0  0  0  0  0  0  0  0  0  0  0
    3.5190   60.2120   72.2900 C   0  0  0  0  0  0  0  0  0  0  0  0
    3.8830   61.1400   71.2990 C   0  0  0  0  0  0  0  0  0  0  0  0
    4.0090   60.7470   69.9650 C   0  0  0  0  0  0  0  0  0  0  0  0
    3.7830   59.4210   69.6050 C   0  0  0  0  0  0  0  0  0  0  0  0
    3.4410   58.4850   70.5780 C   0  0  0  0  0  0  0  0  0  0  0  0
    3.3140   58.8760   71.9120 C   0  0  0  0  0  0  0  0  0  0  0  0
    0.9687   64.1062   69.3354 H   0  0  0  0  0  0  0  0  0  0  0  0
    1.8423   64.4893   70.8819 H   0  0  0  0  0  0  0  0  0  0  0  0
   -1.9246   66.6845   68.5804 H   0  0  0  0  0  0  0  0  0  0  0  0
   -1.8660   69.1048   66.8182 H   0  0  0  0  0  0  0  0  0  0  0  0
   -0.4545   69.0224   65.7103 H   0  0  0  0  0  0  0  0  0  0  0  0
   -1.6745   67.7039   65.7103 H   0  0  0  0  0  0  0  0  0  0  0  0
    1.5604   67.1789   64.9226 H   0  0  0  0  0  0  0  0  0  0  0  0
    3.4035   68.1865   63.5799 H   0  0  0  0  0  0  0  0  0  0  0  0
    4.9603   69.8327   64.6130 H   0  0  0  0  0  0  0  0  0  0  0  0
    4.6918   70.4581   67.0130 H   0  0  0  0  0  0  0  0  0  0  0  0
    2.8534   69.4567   68.3639 H   0  0  0  0  0  0  0  0  0  0  0  0
   -0.6930   63.8660   71.7591 H   0  0  0  0  0  0  0  0  0  0  0  0
   -0.4061   62.7143   70.3512 H   0  0  0  0  0  0  0  0  0  0  0  0
    1.6270   61.9720   71.3700 H   0  0  0  0  0  0  0  0  0  0  0  0
   -0.7055   61.6187   73.2843 H   0  0  0  0  0  0  0  0  0  0  0  0
   -0.4448   60.7271   71.7286 H   0  0  0  0  0  0  0  0  0  0  0  0
    0.2814   59.5316   73.8650 H   0  0  0  0  0  0  0  0  0  0  0  0
    1.5088   59.6854   72.5267 H   0  0  0  0  0  0  0  0  0  0  0  0
    0.6552   62.4525   74.9821 H   0  0  0  0  0  0  0  0  0  0  0  0
    2.4418   62.7836   75.0872 H   0  0  0  0  0  0  0  0  0  0  0  0
    1.0527   64.0892   73.3500 H   0  0  0  0  0  0  0  0  0  0  0  0
    2.6187   63.2884   72.8442 H   0  0  0  0  0  0  0  0  0  0  0  0
    1.9424   60.9215   76.4334 H   0  0  0  0  0  0  0  0  0  0  0  0
    0.7878   59.7458   75.7182 H   0  0  0  0  0  0  0  0  0  0  0  0
    2.5483   59.3891   75.7182 H   0  0  0  0  0  0  0  0  0  0  0  0
    3.9255   61.5918   73.8458 H   0  0  0  0  0  0  0  0  0  0  0  0
    3.7657   59.8022   74.3184 H   0  0  0  0  0  0  0  0  0  0  0  0
    4.0707   62.1875   71.5774 H   0  0  0  0  0  0  0  0  0  0  0  0
    4.2869   61.4852   69.1983 H   0  0  0  0  0  0  0  0  0  0  0  0
    3.8745   59.1130   68.5530 H   0  0  0  0  0  0  0  0  0  0  0  0
    3.2707   57.4358   70.2948 H   0  0  0  0  0  0  0  0  0  0  0  0
    3.0504   58.1290   72.6752 H   0  0  0  0  0  0  0  0  0  0  0  0
  3  1  1  0
  3  2  2  0
  4  3  1  0
  5  4  1  0
  6  5  2  0
  7  6  1  0
  8  7  1  0
  8  4  2  0
  9  6  1  0
 10  7  1  0
 11 10  2  0
 12 11  1  0
 13 12  2  0
 14 13  1  0
 15 14  2  0
 15 10  1  0
 16  1  1  0
 17 16  1  0
 18 17  1  0
 19 18  1  0
 20 19  1  0
 21 20  1  0
 22 21  1  0
 22 17  1  0
 20 23  1  1
 24 20  1  0
 25 24  1  0
 26 25  2  0
 27 26  1  0
 28 27  2  0
 29 28  1  0
 30 29  2  0
 30 25  1  0
  1 31  1  0
  1 32  1  0
  5 33  1  0
  9 34  1  0
  9 35  1  0
  9 36  1  0
 11 37  1  0
 12 38  1  0
 13 39  1  0
 14 40  1  0
 15 41  1  0
 16 42  1  0
 16 43  1  0
 17 44  1  6
 18 45  1  0
 18 46  1  0
 19 47  1  0
 19 48  1  0
 21 49  1  0
 21 50  1  0
 22 51  1  0
 22 52  1  0
 23 53  1  0
 23 54  1  0
 23 55  1  0
 24 56  1  0
 24 57  1  0
 26 58  1  0
 27 59  1  0
 28 60  1  0
 29 61  1  0
 30 62  1  0
M  CHG  1  20   1
M  END
>  <score>  (3) 
-10.517

$$$$
=
     RDKit          3D

 62 65  0  0  0  0  0  0  0  0999 V2000
    0.5920   66.2170   69.8910 C   0  0  0  0  0  0  0  0  0  0  0  0
   -1.1610   66.9090   68.3910 O   0  0  0  0  0  0  0  0  0  0  0  0
    0.0380   66.9440   68.6700 C   0  0  0  0  0  0  0  0  0  0  0  0
    0.9950   67.6880   67.8410 C   0  0  0  0  0  0  0  0  0  0  0  0
    1.0530   67.7170   66.4370 C   0  0  0  0  0  0  0  0  0  0  0  0
    2.0950   68.5630   66.1130 C   0  0  0  0  0  0  0  0  0  0  0  0
    2.6680   68.9540   67.3190 N   0  0  0  0  0  0  0  0  0  0  0  0
    1.9460   68.4650   68.3750 N   0  0  0  0  0  0  0  0  0  0  0  0
    2.4880   69.0110   64.7530 C   0  0  0  0  0  0  0  0  0  0  0  0
    3.8300   69.7430   67.5980 C   0  0  0  0  0  0  0  0  0  0  0  0
    3.9540   70.5280   68.7500 C   0  0  0  0  0  0  0  0  0  0  0  0
    5.1130   71.2820   68.9730 C   0  0  0  0  0  0  0  0  0  0  0  0
    6.1540   71.2660   68.0490 C   0  0  0  0  0  0  0  0  0  0  0  0
    6.0390   70.5030   66.8910 C   0  0  0  0  0  0  0  0  0  0  0  0
    4.8820   69.7510   66.6640 C   0  0  0  0  0  0  0  0  0  0  0  0
   -0.2680   65.0130   70.2890 C   0  0  0  0  0  0  0  0  0  0  0  0
    0.4110   64.0000   71.2320 C   0  0  2  0  0  0  0  0  0  0  0  0
   -0.3910   62.7160   71.4200 C   0  0  0  0  0  0  0  0  0  0  0  0
    0.4040   61.6670   72.1940 C   0  0  0  0  0  0  0  0  0  0  0  0
    1.0990   62.2440   73.4520 N   0  0  1  0  0  4  0  0  0  0  0  0
    0.6150   63.6610   73.7670 C   0  0  0  0  0  0  0  0  0  0  0  0
    0.7830   64.6150   72.5880 C   0  0  0  0  0  0  0  0  0  0  0  0
    0.7240   61.3580   74.6470 C   0  0  0  0  0  0  0  0  0  0  0  0
    2.6410   62.1880   73.2420 C   0  0  0  0  0  0  0  0  0  0  0  0
    3.1420   61.7090   71.9000 C   0  0  0  0  0  0  0  0  0  0  0  0
    3.2100   60.3350   71.6140 C   0  0  0  0  0  0  0  0  0  0  0  0
    3.6800   59.8850   70.3790 C   0  0  0  0  0  0  0  0  0  0  0  0
    4.0790   60.8010   69.4090 C   0  0  0  0  0  0  0  0  0  0  0  0
    4.0000   62.1670   69.6700 C   0  0  0  0  0  0  0  0  0  0  0  0
    3.5300   62.6190   70.9050 C   0  0  0  0  0  0  0  0  0  0  0  0
    1.6090   65.8655   69.6625 H   0  0  0  0  0  0  0  0  0  0  0  0
    0.5920   66.9244   70.7333 H   0  0  0  0  0  0  0  0  0  0  0  0
    0.3999   67.1749   65.7373 H   0  0  0  0  0  0  0  0  0  0  0  0
    3.2115   69.8357   64.8334 H   0  0  0  0  0  0  0  0  0  0  0  0
    2.9470   68.1723   64.2090 H   0  0  0  0  0  0  0  0  0  0  0  0
    1.5967   69.3569   64.2090 H   0  0  0  0  0  0  0  0  0  0  0  0
    3.1360   70.5530   69.4850 H   0  0  0  0  0  0  0  0  0  0  0  0
    5.2013   71.8911   69.8847 H   0  0  0  0  0  0  0  0  0  0  0  0
    7.0647   71.8547   68.2337 H   0  0  0  0  0  0  0  0  0  0  0  0
    6.8568   70.4914   66.1554 H   0  0  0  0  0  0  0  0  0  0  0  0
    4.7932   69.1574   65.7422 H   0  0  0  0  0  0  0  0  0  0  0  0
   -1.1709   65.3915   70.7905 H   0  0  0  0  0  0  0  0  0  0  0  0
   -0.4768   64.4675   69.3569 H   0  0  0  0  0  0  0  0  0  0  0  0
    1.3450   63.7211   70.7222 H   0  0  0  0  0  0  0  0  0  0  0  0
   -1.3118   62.9479   71.9753 H   0  0  0  0  0  0  0  0  0  0  0  0
   -0.6251   62.3071   70.4260 H   0  0  0  0  0  0  0  0  0  0  0  0
   -0.2830   60.8675   72.5083 H   0  0  0  0  0  0  0  0  0  0  0  0
    1.1920   61.2905   71.5252 H   0  0  0  0  0  0  0  0  0  0  0  0
   -0.4508   63.6175   74.0357 H   0  0  0  0  0  0  0  0  0  0  0  0
    1.2275   64.0453   74.5960 H   0  0  0  0  0  0  0  0  0  0  0  0
    0.1413   65.4921   72.7581 H   0  0  0  0  0  0  0  0  0  0  0  0
    1.8505   64.8757   72.5381 H   0  0  0  0  0  0  0  0  0  0  0  0
    0.9492   61.8902   75.5830 H   0  0  0  0  0  0  0  0  0  0  0  0
   -0.3502   61.1244   74.6074 H   0  0  0  0  0  0  0  0  0  0  0  0
    1.3041   60.4242   74.6074 H   0  0  0  0  0  0  0  0  0  0  0  0
    3.0324   63.2043   73.3969 H   0  0  0  0  0  0  0  0  0  0  0  0
    2.9959   61.4345   73.9605 H   0  0  0  0  0  0  0  0  0  0  0  0
    2.8891   59.6054   72.3721 H   0  0  0  0  0  0  0  0  0  0  0  0
    3.7352   58.8061   70.1719 H   0  0  0  0  0  0  0  0  0  0  0  0
    4.4559   60.4465   68.4383 H   0  0  0  0  0  0  0  0  0  0  0  0
    4.3085   62.8913   68.9017 H   0  0  0  0  0  0  0  0  0  0  0  0
    3.4633   63.6996   71.0997 H   0  0  0  0  0  0  0  0  0  0  0  0
  3  1  1  0
  3  2  2  0
  4  3  1  0
  5  4  1  0
  6  5  2  0
  7  6  1  0
  8  7  1  0
  8  4  2  0
  9  6  1  0
 10  7  1  0
 11 10  2  0
 12 11  1  0
 13 12  2  0
 14 13  1  0
 15 14  2  0
 15 10  1  0
 16  1  1  0
 17 16  1  0
 18 17  1  0
 19 18  1  0
 20 19  1  0
 21 20  1  0
 22 21  1  0
 22 17  1  0
 20 23  1  1
 24 20  1  0
 25 24  1  0
 26 25  2  0
 27 26  1  0
 28 27  2  0
 29 28  1  0
 30 29  2  0
 30 25  1  0
  1 31  1  0
  1 32  1  0
  5 33  1  0
  9 34  1  0
  9 35  1  0
  9 36  1  0
 11 37  1  0
 12 38  1  0
 13 39  1  0
 14 40  1  0
 15 41  1  0
 16 42  1  0
 16 43  1  0
 17 44  1  6
 18 45  1  0
 18 46  1  0
 19 47  1  0
 19 48  1  0
 21 49  1  0
 21 50  1  0
 22 51  1  0
 22 52  1  0
 23 53  1  0
 23 54  1  0
 23 55  1  0
 24 56  1  0
 24 57  1  0
 26 58  1  0
 27 59  1  0
 28 60  1  0
 29 61  1  0
 30 62  1  0
M  CHG  1  20   1
M  END
>  <score>  (4) 
-10.338

$$$$
=
     RDKit          3D

 62 65  0  0  0  0  0  0  0  0999 V2000
    1.4330   65.0640   70.2650 C   0  0  0  0  0  0  0  0  0  0  0  0
   -0.4700   66.3340   71.0180 O   0  0  0  0  0  0  0  0  0  0  0  0
    0.3300   66.1060   70.1090 C   0  0  0  0  0  0  0  0  0  0  0  0
    0.2630   66.8270   68.8320 C   0  0  0  0  0  0  0  0  0  0  0  0
   -0.8980   67.2380   68.1540 C   0  0  0  0  0  0  0  0  0  0  0  0
   -0.4670   67.8920   67.0170 C   0  0  0  0  0  0  0  0  0  0  0  0
    0.9210   67.7900   67.0130 N   0  0  0  0  0  0  0  0  0  0  0  0
    1.3640   67.1920   68.1620 N   0  0  0  0  0  0  0  0  0  0  0  0
   -1.3110   68.6100   66.0290 C   0  0  0  0  0  0  0  0  0  0  0  0
    1.8920   68.1940   66.0400 C   0  0  0  0  0  0  0  0  0  0  0  0
    1.8280   67.8020   64.6980 C   0  0  0  0  0  0  0  0  0  0  0  0
    2.8050   68.2250   63.7880 C   0  0  0  0  0  0  0  0  0  0  0  0
    3.8580   69.0330   64.2080 C   0  0  0  0  0  0  0  0  0  0  0  0
    3.9450   69.4160   65.5430 C   0  0  0  0  0  0  0  0  0  0  0  0
    2.9720   68.9940   66.4550 C   0  0  0  0  0  0  0  0  0  0  0  0
    0.8810   63.6350   70.2980 C   0  0  0  0  0  0  0  0  0  0  0  0
    1.8950   62.5450   70.6960 C   0  0  2  0  0  0  0  0  0  0  0  0
    2.9010   63.0070   71.7450 C   0  0  0  0  0  0  0  0  0  0  0  0
    3.7530   61.8470   72.2540 C   0  0  0  0  0  0  0  0  0  0  0  0
    4.2990   60.9530   71.1130 N   0  0  1  0  0  4  0  0  0  0  0  0
    4.0760   61.5890   69.7400 C   0  0  0  0  0  0  0  0  0  0  0  0
    2.6120   61.9360   69.4830 C   0  0  0  0  0  0  0  0  0  0  0  0
    5.8130   60.8100   71.3090 C   0  0  0  0  0  0  0  0  0  0  0  0
    3.6370   59.5470   71.2180 C   0  0  0  0  0  0  0  0  0  0  0  0
    2.9250   59.2090   72.5060 C   0  0  0  0  0  0  0  0  0  0  0  0
    1.5250   59.2920   72.5880 C   0  0  0  0  0  0  0  0  0  0  0  0
    0.8600   58.9880   73.7780 C   0  0  0  0  0  0  0  0  0  0  0  0
    1.5840   58.5880   74.8980 C   0  0  0  0  0  0  0  0  0  0  0  0
    2.9710   58.4810   74.8270 C   0  0  0  0  0  0  0  0  0  0  0  0
    3.6370   58.7840   73.6380 C   0  0  0  0  0  0  0  0  0  0  0  0
    2.1285   65.1553   69.4177 H   0  0  0  0  0  0  0  0  0  0  0  0
    1.9406   65.2514   71.2227 H   0  0  0  0  0  0  0  0  0  0  0  0
   -1.9396   67.0720   68.4663 H   0  0  0  0  0  0  0  0  0  0  0  0
   -2.0451   69.2345   66.5591 H   0  0  0  0  0  0  0  0  0  0  0  0
   -0.6746   69.2478   65.3979 H   0  0  0  0  0  0  0  0  0  0  0  0
   -1.8386   67.8796   65.3979 H   0  0  0  0  0  0  0  0  0  0  0  0
    1.0050   67.1574   64.3557 H   0  0  0  0  0  0  0  0  0  0  0  0
    2.7399   67.9166   62.7341 H   0  0  0  0  0  0  0  0  0  0  0  0
    4.6186   69.3675   63.4871 H   0  0  0  0  0  0  0  0  0  0  0  0
    4.7781   70.0500   65.8807 H   0  0  0  0  0  0  0  0  0  0  0  0
    3.0525   69.2917   67.5109 H   0  0  0  0  0  0  0  0  0  0  0  0
    0.0520   63.6078   71.0206 H   0  0  0  0  0  0  0  0  0  0  0  0
    0.5756   63.4036   69.2669 H   0  0  0  0  0  0  0  0  0  0  0  0
    1.2900   61.7530   71.1615 H   0  0  0  0  0  0  0  0  0  0  0  0
    3.5605   63.7653   71.2978 H   0  0  0  0  0  0  0  0  0  0  0  0
    2.3437   63.4248   72.5964 H   0  0  0  0  0  0  0  0  0  0  0  0
    4.6047   62.2575   72.8162 H   0  0  0  0  0  0  0  0  0  0  0  0
    3.1095   61.2179   72.8866 H   0  0  0  0  0  0  0  0  0  0  0  0
    4.6725   62.5112   69.6782 H   0  0  0  0  0  0  0  0  0  0  0  0
    4.3822   60.8551   68.9799 H   0  0  0  0  0  0  0  0  0  0  0  0
    2.5676   62.6592   68.6554 H   0  0  0  0  0  0  0  0  0  0  0  0
    2.0968   60.9930   69.2479 H   0  0  0  0  0  0  0  0  0  0  0  0
    6.0431   60.7883   72.3845 H   0  0  0  0  0  0  0  0  0  0  0  0
    6.1566   59.8754   70.8416 H   0  0  0  0  0  0  0  0  0  0  0  0
    6.3255   61.6637   70.8416 H   0  0  0  0  0  0  0  0  0  0  0  0
    2.9019   59.4667   70.4037 H   0  0  0  0  0  0  0  0  0  0  0  0
    4.4752   58.8366   71.1649 H   0  0  0  0  0  0  0  0  0  0  0  0
    0.9459   59.5999   71.7049 H   0  0  0  0  0  0  0  0  0  0  0  0
   -0.2361   59.0646   73.8304 H   0  0  0  0  0  0  0  0  0  0  0  0
    1.0613   58.3567   75.8378 H   0  0  0  0  0  0  0  0  0  0  0  0
    3.5426   58.1572   75.7093 H   0  0  0  0  0  0  0  0  0  0  0  0
    4.7317   58.6885   73.5880 H   0  0  0  0  0  0  0  0  0  0  0  0
  3  1  1  0
  3  2  2  0
  4  3  1  0
  5  4  1  0
  6  5  2  0
  7  6  1  0
  8  7  1  0
  8  4  2  0
  9  6  1  0
 10  7  1  0
 11 10  2  0
 12 11  1  0
 13 12  2  0
 14 13  1  0
 15 14  2  0
 15 10  1  0
 16  1  1  0
 17 16  1  0
 18 17  1  0
 19 18  1  0
 20 19  1  0
 21 20  1  0
 22 21  1  0
 22 17  1  0
 20 23  1  1
 24 20  1  0
 25 24  1  0
 26 25  2  0
 27 26  1  0
 28 27  2  0
 29 28  1  0
 30 29  2  0
 30 25  1  0
  1 31  1  0
  1 32  1  0
  5 33  1  0
  9 34  1  0
  9 35  1  0
  9 36  1  0
 11 37  1  0
 12 38  1  0
 13 39  1  0
 14 40  1  0
 15 41  1  0
 16 42  1  0
 16 43  1  0
 17 44  1  1
 18 45  1  0
 18 46  1  0
 19 47  1  0
 19 48  1  0
 21 49  1  0
 21 50  1  0
 22 51  1  0
 22 52  1  0
 23 53  1  0
 23 54  1  0
 23 55  1  0
 24 56  1  0
 24 57  1  0
 26 58  1  0
 27 59  1  0
 28 60  1  0
 29 61  1  0
 30 62  1  0
M  CHG  1  20   1
M  END
>  <score>  (5) 
-10.287

$$$$
=
     RDKit          3D

 62 65  0  0  0  0  0  0  0  0999 V2000
    0.3600   64.1650   70.4910 C   0  0  0  0  0  0  0  0  0  0  0  0
   -0.2660   66.1510   71.7010 O   0  0  0  0  0  0  0  0  0  0  0  0
    0.0350   65.6500   70.6170 C   0  0  0  0  0  0  0  0  0  0  0  0
    0.0980   66.4560   69.3920 C   0  0  0  0  0  0  0  0  0  0  0  0
   -0.9720   66.7850   68.5410 C   0  0  0  0  0  0  0  0  0  0  0  0
   -0.4390   67.5720   67.5400 C   0  0  0  0  0  0  0  0  0  0  0  0
    0.9310   67.6300   67.7790 N   0  0  0  0  0  0  0  0  0  0  0  0
    1.2420   66.9970   68.9540 N   0  0  0  0  0  0  0  0  0  0  0  0
   -1.1840   68.2640   66.4590 C   0  0  0  0  0  0  0  0  0  0  0  0
    1.9960   68.2170   67.0220 C   0  0  0  0  0  0  0  0  0  0  0  0
    2.3160   67.8090   65.7230 C   0  0  0  0  0  0  0  0  0  0  0  0
    3.3680   68.4170   65.0270 C   0  0  0  0  0  0  0  0  0  0  0  0
    4.1160   69.4290   65.6220 C   0  0  0  0  0  0  0  0  0  0  0  0
    3.8200   69.8340   66.9200 C   0  0  0  0  0  0  0  0  0  0  0  0
    2.7720   69.2280   67.6180 C   0  0  0  0  0  0  0  0  0  0  0  0
    1.7840   63.8410   70.9530 C   0  0  0  0  0  0  0  0  0  0  0  0
    1.9590   62.4750   71.6460 C   0  0  2  0  0  0  0  0  0  0  0  0
    2.5590   62.5770   73.0450 C   0  0  0  0  0  0  0  0  0  0  0  0
    2.5280   61.2330   73.7670 C   0  0  0  0  0  0  0  0  0  0  0  0
    3.0230   60.0610   72.8830 N   0  0  1  0  0  4  0  0  0  0  0  0
    3.6690   60.5620   71.5890 C   0  0  0  0  0  0  0  0  0  0  0  0
    2.7460   61.4750   70.7870 C   0  0  0  0  0  0  0  0  0  0  0  0
    4.0990   59.3000   73.6660 C   0  0  0  0  0  0  0  0  0  0  0  0
    1.8250   59.1050   72.6040 C   0  0  0  0  0  0  0  0  0  0  0  0
    0.5430   59.3580   73.3610 C   0  0  0  0  0  0  0  0  0  0  0  0
    0.2340   58.6090   74.5090 C   0  0  0  0  0  0  0  0  0  0  0  0
   -0.9540   58.8330   75.2090 C   0  0  0  0  0  0  0  0  0  0  0  0
   -1.8430   59.8130   74.7770 C   0  0  0  0  0  0  0  0  0  0  0  0
   -1.5420   60.5770   73.6520 C   0  0  0  0  0  0  0  0  0  0  0  0
   -0.3550   60.3550   72.9510 C   0  0  0  0  0  0  0  0  0  0  0  0
   -0.3504   63.5938   71.1067 H   0  0  0  0  0  0  0  0  0  0  0  0
    0.2803   63.8918   69.4285 H   0  0  0  0  0  0  0  0  0  0  0  0
   -2.0223   66.4772   68.6509 H   0  0  0  0  0  0  0  0  0  0  0  0
   -1.9216   68.9491   66.9025 H   0  0  0  0  0  0  0  0  0  0  0  0
   -0.4801   68.8360   65.8366 H   0  0  0  0  0  0  0  0  0  0  0  0
   -1.7026   67.5199   65.8366 H   0  0  0  0  0  0  0  0  0  0  0  0
    1.7373   67.0050   65.2448 H   0  0  0  0  0  0  0  0  0  0  0  0
    3.6050   68.0927   64.0030 H   0  0  0  0  0  0  0  0  0  0  0  0
    4.9378   69.9067   65.0684 H   0  0  0  0  0  0  0  0  0  0  0  0
    4.4105   70.6306   67.3962 H   0  0  0  0  0  0  0  0  0  0  0  0
    2.5507   69.5458   68.6476 H   0  0  0  0  0  0  0  0  0  0  0  0
    2.4400   63.8603   70.0702 H   0  0  0  0  0  0  0  0  0  0  0  0
    2.0377   64.5992   71.7085 H   0  0  0  0  0  0  0  0  0  0  0  0
    0.9369   62.0860   71.7647 H   0  0  0  0  0  0  0  0  0  0  0  0
    3.6028   62.9142   72.9624 H   0  0  0  0  0  0  0  0  0  0  0  0
    1.9601   63.2942   73.6256 H   0  0  0  0  0  0  0  0  0  0  0  0
    3.1719   61.2977   74.6565 H   0  0  0  0  0  0  0  0  0  0  0  0
    1.4810   61.0258   74.0331 H   0  0  0  0  0  0  0  0  0  0  0  0
    4.5818   61.1203   71.8442 H   0  0  0  0  0  0  0  0  0  0  0  0
    3.8915   59.6832   70.9660 H   0  0  0  0  0  0  0  0  0  0  0  0
    3.3575   62.0414   70.0692 H   0  0  0  0  0  0  0  0  0  0  0  0
    2.0065   60.8271   70.2936 H   0  0  0  0  0  0  0  0  0  0  0  0
    3.9239   59.4239   74.7449 H   0  0  0  0  0  0  0  0  0  0  0  0
    4.0540   58.2318   73.4075 H   0  0  0  0  0  0  0  0  0  0  0  0
    5.0912   59.6983   73.4075 H   0  0  0  0  0  0  0  0  0  0  0  0
    1.5930   59.1713   71.5308 H   0  0  0  0  0  0  0  0  0  0  0  0
    2.1661   58.1182   72.9503 H   0  0  0  0  0  0  0  0  0  0  0  0
    0.9353   57.8378   74.8604 H   0  0  0  0  0  0  0  0  0  0  0  0
   -1.1870   58.2346   76.1021 H   0  0  0  0  0  0  0  0  0  0  0  0
   -2.7822   59.9839   75.3235 H   0  0  0  0  0  0  0  0  0  0  0  0
   -2.2408   61.3568   73.3151 H   0  0  0  0  0  0  0  0  0  0  0  0
   -0.1215   60.9682   72.0681 H   0  0  0  0  0  0  0  0  0  0  0  0
  3  1  1  0
  3  2  2  0
  4  3  1  0
  5  4  1  0
  6  5  2  0
  7  6  1  0
  8  7  1  0
  8  4  2  0
  9  6  1  0
 10  7  1  0
 11 10  2  0
 12 11  1  0
 13 12  2  0
 14 13  1  0
 15 14  2  0
 15 10  1  0
 16  1  1  0
 17 16  1  0
 18 17  1  0
 19 18  1  0
 20 19  1  0
 21 20  1  0
 22 21  1  0
 22 17  1  0
 20 23  1  1
 24 20  1  0
 25 24  1  0
 26 25  2  0
 27 26  1  0
 28 27  2  0
 29 28  1  0
 30 29  2  0
 30 25  1  0
  1 31  1  0
  1 32  1  0
  5 33  1  0
  9 34  1  0
  9 35  1  0
  9 36  1  0
 11 37  1  0
 12 38  1  0
 13 39  1  0
 14 40  1  0
 15 41  1  0
 16 42  1  0
 16 43  1  0
 17 44  1  1
 18 45  1  0
 18 46  1  0
 19 47  1  0
 19 48  1  0
 21 49  1  0
 21 50  1  0
 22 51  1  0
 22 52  1  0
 23 53  1  0
 23 54  1  0
 23 55  1  0
 24 56  1  0
 24 57  1  0
 26 58  1  0
 27 59  1  0
 28 60  1  0
 29 61  1  0
 30 62  1  0
M  CHG  1  20   1
M  END
>  <score>  (6) 
-10.123

$$$$
=
     RDKit          3D

 62 65  0  0  0  0  0  0  0  0999 V2000
   -0.1620   68.4830   67.6350 C   0  0  0  0  0  0  0  0  0  0  0  0
   -0.3840   68.0360   65.2790 O   0  0  0  0  0  0  0  0  0  0  0  0
    0.3490   68.3970   66.2010 C   0  0  0  0  0  0  0  0  0  0  0  0
    1.7510   68.7650   65.9650 C   0  0  0  0  0  0  0  0  0  0  0  0
    2.4760   68.6070   64.7720 C   0  0  0  0  0  0  0  0  0  0  0  0
    3.7370   69.1120   65.0190 C   0  0  0  0  0  0  0  0  0  0  0  0
    3.7490   69.4860   66.3600 N   0  0  0  0  0  0  0  0  0  0  0  0
    2.5070   69.3310   66.9140 N   0  0  0  0  0  0  0  0  0  0  0  0
    4.8390   69.2750   64.0380 C   0  0  0  0  0  0  0  0  0  0  0  0
    4.8070   69.9790   67.1910 C   0  0  0  0  0  0  0  0  0  0  0  0
    6.1420   70.0180   66.7730 C   0  0  0  0  0  0  0  0  0  0  0  0
    7.1380   70.5090   67.6270 C   0  0  0  0  0  0  0  0  0  0  0  0
    6.8140   70.9570   68.9050 C   0  0  0  0  0  0  0  0  0  0  0  0
    5.4940   70.9070   69.3400 C   0  0  0  0  0  0  0  0  0  0  0  0
    4.4970   70.4160   68.4910 C   0  0  0  0  0  0  0  0  0  0  0  0
   -0.8600   67.1930   68.0810 C   0  0  0  0  0  0  0  0  0  0  0  0
    0.0560   66.1370   68.7310 C   0  0  2  0  0  0  0  0  0  0  0  0
   -0.6980   65.1350   69.5990 C   0  0  0  0  0  0  0  0  0  0  0  0
    0.2110   63.9970   70.0580 C   0  0  0  0  0  0  0  0  0  0  0  0
    1.5760   64.4930   70.5940 N   0  0  1  0  0  4  0  0  0  0  0  0
    1.5930   66.0120   70.7820 C   0  0  0  0  0  0  0  0  0  0  0  0
    1.2210   66.7650   69.5080 C   0  0  0  0  0  0  0  0  0  0  0  0
    1.8010   63.8600   71.9730 C   0  0  0  0  0  0  0  0  0  0  0  0
    2.6990   64.0140   69.6260 C   0  0  0  0  0  0  0  0  0  0  0  0
    3.4820   62.7860   70.0240 C   0  0  0  0  0  0  0  0  0  0  0  0
    3.0600   61.5090   69.6170 C   0  0  0  0  0  0  0  0  0  0  0  0
    3.7760   60.3690   69.9880 C   0  0  0  0  0  0  0  0  0  0  0  0
    4.9270   60.4890   70.7620 C   0  0  0  0  0  0  0  0  0  0  0  0
    5.3690   61.7490   71.1560 C   0  0  0  0  0  0  0  0  0  0  0  0
    4.6550   62.8910   70.7870 C   0  0  0  0  0  0  0  0  0  0  0  0
    0.6904   68.6736   68.3037 H   0  0  0  0  0  0  0  0  0  0  0  0
   -0.8988   69.2984   67.6819 H   0  0  0  0  0  0  0  0  0  0  0  0
    2.1122   68.1691   63.8307 H   0  0  0  0  0  0  0  0  0  0  0  0
    5.7892   69.4156   64.5740 H   0  0  0  0  0  0  0  0  0  0  0  0
    4.9036   68.3766   63.4065 H   0  0  0  0  0  0  0  0  0  0  0  0
    4.6408   70.1536   63.4065 H   0  0  0  0  0  0  0  0  0  0  0  0
    6.4108   69.6610   65.7679 H   0  0  0  0  0  0  0  0  0  0  0  0
    8.1832   70.5409   67.2857 H   0  0  0  0  0  0  0  0  0  0  0  0
    7.5993   71.3490   69.5681 H   0  0  0  0  0  0  0  0  0  0  0  0
    5.2343   71.2534   70.3512 H   0  0  0  0  0  0  0  0  0  0  0  0
    3.4565   70.3711   68.8449 H   0  0  0  0  0  0  0  0  0  0  0  0
   -1.6380   67.4627   68.8104 H   0  0  0  0  0  0  0  0  0  0  0  0
   -1.2549   66.7295   67.1649 H   0  0  0  0  0  0  0  0  0  0  0  0
    0.4810   65.5730   67.8876 H   0  0  0  0  0  0  0  0  0  0  0  0
   -1.0940   65.6552   70.4836 H   0  0  0  0  0  0  0  0  0  0  0  0
   -1.5141   64.7047   68.9999 H   0  0  0  0  0  0  0  0  0  0  0  0
   -0.2994   63.4417   70.8587 H   0  0  0  0  0  0  0  0  0  0  0  0
    0.4119   63.3622   69.1824 H   0  0  0  0  0  0  0  0  0  0  0  0
    0.8738   66.2775   71.5709 H   0  0  0  0  0  0  0  0  0  0  0  0
    2.6186   66.3027   71.0535 H   0  0  0  0  0  0  0  0  0  0  0  0
    0.9400   67.7924   69.7827 H   0  0  0  0  0  0  0  0  0  0  0  0
    2.1004   66.7292   68.8482 H   0  0  0  0  0  0  0  0  0  0  0  0
    1.5425   64.5872   72.7568 H   0  0  0  0  0  0  0  0  0  0  0  0
    1.1646   62.9686   72.0755 H   0  0  0  0  0  0  0  0  0  0  0  0
    2.8572   63.5703   72.0755 H   0  0  0  0  0  0  0  0  0  0  0  0
    2.2294   63.8051   68.6535 H   0  0  0  0  0  0  0  0  0  0  0  0
    3.4367   64.8300   69.6251 H   0  0  0  0  0  0  0  0  0  0  0  0
    2.1556   61.4062   68.9993 H   0  0  0  0  0  0  0  0  0  0  0  0
    3.4302   59.3749   69.6683 H   0  0  0  0  0  0  0  0  0  0  0  0
    5.4860   59.5902   71.0616 H   0  0  0  0  0  0  0  0  0  0  0  0
    6.2834   61.8453   71.7598 H   0  0  0  0  0  0  0  0  0  0  0  0
    5.0157   63.8827   71.0975 H   0  0  0  0  0  0  0  0  0  0  0  0
  3  1  1  0
  3  2  2  0
  4  3  1  0
  5  4  1  0
  6  5  2  0
  7  6  1  0
  8  7  1  0
  8  4  2  0
  9  6  1  0
 10  7  1  0
 11 10  2  0
 12 11  1  0
 13 12  2  0
 14 13  1  0
 15 14  2  0
 15 10  1  0
 16  1  1  0
 17 16  1  0
 18 17  1  0
 19 18  1  0
 20 19  1  0
 21 20  1  0
 22 21  1  0
 22 17  1  0
 20 23  1  1
 24 20  1  0
 25 24  1  0
 26 25  2  0
 27 26  1  0
 28 27  2  0
 29 28  1  0
 30 29  2  0
 30 25  1  0
  1 31  1  0
  1 32  1  0
  5 33  1  0
  9 34  1  0
  9 35  1  0
  9 36  1  0
 11 37  1  0
 12 38  1  0
 13 39  1  0
 14 40  1  0
 15 41  1  0
 16 42  1  0
 16 43  1  0
 17 44  1  6
 18 45  1  0
 18 46  1  0
 19 47  1  0
 19 48  1  0
 21 49  1  0
 21 50  1  0
 22 51  1  0
 22 52  1  0
 23 53  1  0
 23 54  1  0
 23 55  1  0
 24 56  1  0
 24 57  1  0
 26 58  1  0
 27 59  1  0
 28 60  1  0
 29 61  1  0
 30 62  1  0
M  CHG  1  20   1
M  END
>  <score>  (7) 
-10.067

$$$$
=
     RDKit          3D

 62 65  0  0  0  0  0  0  0  0999 V2000
    4.6840   63.0570   70.3560 C   0  0  0  0  0  0  0  0  0  0  0  0
    3.0260   61.8840   69.0620 O   0  0  0  0  0  0  0  0  0  0  0  0
    3.3030   62.8770   69.7350 C   0  0  0  0  0  0  0  0  0  0  0  0
    2.3170   63.9380   69.9750 C   0  0  0  0  0  0  0  0  0  0  0  0
    1.4640   64.0630   71.0850 C   0  0  0  0  0  0  0  0  0  0  0  0
    0.7370   65.2200   70.8830 C   0  0  0  0  0  0  0  0  0  0  0  0
    1.1220   65.7080   69.6380 N   0  0  0  0  0  0  0  0  0  0  0  0
    2.1390   64.9510   69.1180 N   0  0  0  0  0  0  0  0  0  0  0  0
   -0.2190   65.8470   71.8290 C   0  0  0  0  0  0  0  0  0  0  0  0
    0.6390   66.8160   68.8690 C   0  0  0  0  0  0  0  0  0  0  0  0
    1.4080   67.9580   68.6210 C   0  0  0  0  0  0  0  0  0  0  0  0
    0.8850   69.0140   67.8630 C   0  0  0  0  0  0  0  0  0  0  0  0
   -0.4090   68.9440   67.3540 C   0  0  0  0  0  0  0  0  0  0  0  0
   -1.1910   67.8220   67.6070 C   0  0  0  0  0  0  0  0  0  0  0  0
   -0.6740   66.7670   68.3650 C   0  0  0  0  0  0  0  0  0  0  0  0
    5.1780   61.7830   71.0510 C   0  0  0  0  0  0  0  0  0  0  0  0
    4.1180   61.0290   71.8780 C   0  0  2  0  0  0  0  0  0  0  0  0
    3.9220   61.6010   73.2780 C   0  0  0  0  0  0  0  0  0  0  0  0
    2.7320   60.9570   73.9850 C   0  0  0  0  0  0  0  0  0  0  0  0
    2.7170   59.4140   73.8570 N   0  0  1  0  0  4  0  0  0  0  0  0
    4.0290   58.8800   73.2790 C   0  0  0  0  0  0  0  0  0  0  0  0
    4.3830   59.5180   71.9380 C   0  0  0  0  0  0  0  0  0  0  0  0
    2.5640   58.8240   75.2640 C   0  0  0  0  0  0  0  0  0  0  0  0
    1.4890   58.9960   72.9950 C   0  0  0  0  0  0  0  0  0  0  0  0
    0.2030   59.7610   73.2000 C   0  0  0  0  0  0  0  0  0  0  0  0
   -0.8170   59.2350   74.0100 C   0  0  0  0  0  0  0  0  0  0  0  0
   -2.0120   59.9330   74.1980 C   0  0  0  0  0  0  0  0  0  0  0  0
   -2.1990   61.1700   73.5880 C   0  0  0  0  0  0  0  0  0  0  0  0
   -1.1900   61.7140   72.7970 C   0  0  0  0  0  0  0  0  0  0  0  0
    0.0050   61.0180   72.6080 C   0  0  0  0  0  0  0  0  0  0  0  0
    5.3966   63.3265   69.5626 H   0  0  0  0  0  0  0  0  0  0  0  0
    4.6115   63.8492   71.1157 H   0  0  0  0  0  0  0  0  0  0  0  0
    1.3902   63.3775   71.9421 H   0  0  0  0  0  0  0  0  0  0  0  0
    0.0976   65.6393   72.8618 H   0  0  0  0  0  0  0  0  0  0  0  0
   -0.2391   66.9343   71.6632 H   0  0  0  0  0  0  0  0  0  0  0  0
   -1.2242   65.4322   71.6632 H   0  0  0  0  0  0  0  0  0  0  0  0
    2.4294   68.0273   69.0235 H   0  0  0  0  0  0  0  0  0  0  0  0
    1.5010   69.9044   67.6687 H   0  0  0  0  0  0  0  0  0  0  0  0
   -0.8115   69.7733   66.7538 H   0  0  0  0  0  0  0  0  0  0  0  0
   -2.2156   67.7647   67.2110 H   0  0  0  0  0  0  0  0  0  0  0  0
   -1.3017   65.8873   68.5701 H   0  0  0  0  0  0  0  0  0  0  0  0
    5.5550   61.0983   70.2770 H   0  0  0  0  0  0  0  0  0  0  0  0
    5.9478   62.1067   71.7669 H   0  0  0  0  0  0  0  0  0  0  0  0
    3.1738   61.1838   71.3353 H   0  0  0  0  0  0  0  0  0  0  0  0
    4.8311   61.4174   73.8695 H   0  0  0  0  0  0  0  0  0  0  0  0
    3.7257   62.6794   73.1854 H   0  0  0  0  0  0  0  0  0  0  0  0
    2.7736   61.2201   75.0523 H   0  0  0  0  0  0  0  0  0  0  0  0
    1.8181   61.3366   73.5047 H   0  0  0  0  0  0  0  0  0  0  0  0
    4.8392   59.0886   73.9931 H   0  0  0  0  0  0  0  0  0  0  0  0
    3.9038   57.8001   73.1112 H   0  0  0  0  0  0  0  0  0  0  0  0
    5.4521   59.3460   71.7442 H   0  0  0  0  0  0  0  0  0  0  0  0
    3.7357   59.0503   71.1815 H   0  0  0  0  0  0  0  0  0  0  0  0
    2.7663   59.6041   76.0127 H   0  0  0  0  0  0  0  0  0  0  0  0
    1.5386   58.4478   75.3943 H   0  0  0  0  0  0  0  0  0  0  0  0
    3.2774   57.9969   75.3943 H   0  0  0  0  0  0  0  0  0  0  0  0
    1.7743   59.1074   71.9385 H   0  0  0  0  0  0  0  0  0  0  0  0
    1.2588   57.9685   73.3131 H   0  0  0  0  0  0  0  0  0  0  0  0
   -0.6728   58.2618   74.5021 H   0  0  0  0  0  0  0  0  0  0  0  0
   -2.8055   59.5051   74.8282 H   0  0  0  0  0  0  0  0  0  0  0  0
   -3.1425   61.7173   73.7305 H   0  0  0  0  0  0  0  0  0  0  0  0
   -1.3352   62.6945   72.3201 H   0  0  0  0  0  0  0  0  0  0  0  0
    0.7998   61.4592   71.9887 H   0  0  0  0  0  0  0  0  0  0  0  0
  3  1  1  0
  3  2  2  0
  4  3  1  0
  5  4  1  0
  6  5  2  0
  7  6  1  0
  8  7  1  0
  8  4  2  0
  9  6  1  0
 10  7  1  0
 11 10  2  0
 12 11  1  0
 13 12  2  0
 14 13  1  0
 15 14  2  0
 15 10  1  0
 16  1  1  0
 17 16  1  0
 18 17  1  0
 19 18  1  0
 20 19  1  0
 21 20  1  0
 22 21  1  0
 22 17  1  0
 20 23  1  1
 24 20  1  0
 25 24  1  0
 26 25  2  0
 27 26  1  0
 28 27  2  0
 29 28  1  0
 30 29  2  0
 30 25  1  0
  1 31  1  0
  1 32  1  0
  5 33  1  0
  9 34  1  0
  9 35  1  0
  9 36  1  0
 11 37  1  0
 12 38  1  0
 13 39  1  0
 14 40  1  0
 15 41  1  0
 16 42  1  0
 16 43  1  0
 17 44  1  6
 18 45  1  0
 18 46  1  0
 19 47  1  0
 19 48  1  0
 21 49  1  0
 21 50  1  0
 22 51  1  0
 22 52  1  0
 23 53  1  0
 23 54  1  0
 23 55  1  0
 24 56  1  0
 24 57  1  0
 26 58  1  0
 27 59  1  0
 28 60  1  0
 29 61  1  0
 30 62  1  0
M  CHG  1  20   1
M  END
>  <score>  (8) 
-9.372

$$$$
=
     RDKit          3D

 62 65  0  0  0  0  0  0  0  0999 V2000
    1.0840   63.6250   75.3360 C   0  0  0  0  0  0  0  0  0  0  0  0
   -0.9300   64.8310   74.7980 O   0  0  0  0  0  0  0  0  0  0  0  0
    0.1180   64.3300   74.3890 C   0  0  0  0  0  0  0  0  0  0  0  0
    0.4910   64.3850   72.9700 C   0  0  0  0  0  0  0  0  0  0  0  0
    1.3220   63.4870   72.2800 C   0  0  0  0  0  0  0  0  0  0  0  0
    1.3630   63.9280   70.9720 C   0  0  0  0  0  0  0  0  0  0  0  0
    0.6200   65.1050   70.9360 N   0  0  0  0  0  0  0  0  0  0  0  0
    0.0340   65.3410   72.1520 N   0  0  0  0  0  0  0  0  0  0  0  0
    2.0180   63.2530   69.8240 C   0  0  0  0  0  0  0  0  0  0  0  0
    0.3940   66.0450   69.8790 C   0  0  0  0  0  0  0  0  0  0  0  0
   -0.7940   66.0840   69.1420 C   0  0  0  0  0  0  0  0  0  0  0  0
   -0.9630   67.0240   68.1170 C   0  0  0  0  0  0  0  0  0  0  0  0
    0.0530   67.9260   67.8130 C   0  0  0  0  0  0  0  0  0  0  0  0
    1.2470   67.8880   68.5270 C   0  0  0  0  0  0  0  0  0  0  0  0
    1.4190   66.9500   69.5490 C   0  0  0  0  0  0  0  0  0  0  0  0
    0.5950   62.2280   75.7310 C   0  0  0  0  0  0  0  0  0  0  0  0
    1.2420   61.0600   74.9610 C   0  0  2  0  0  0  0  0  0  0  0  0
    0.4060   60.5760   73.7810 C   0  0  0  0  0  0  0  0  0  0  0  0
    1.1690   59.5610   72.9320 C   0  0  0  0  0  0  0  0  0  0  0  0
    1.8710   58.4720   73.7800 N   0  0  1  0  0  4  0  0  0  0  0  0
    1.4220   58.5150   75.2420 C   0  0  0  0  0  0  0  0  0  0  0  0
    1.6220   59.8880   75.8780 C   0  0  0  0  0  0  0  0  0  0  0  0
    1.4670   57.1030   73.2180 C   0  0  0  0  0  0  0  0  0  0  0  0
    3.4120   58.6440   73.6390 C   0  0  0  0  0  0  0  0  0  0  0  0
    3.9110   59.5860   72.5690 C   0  0  0  0  0  0  0  0  0  0  0  0
    3.7670   59.2610   71.2100 C   0  0  0  0  0  0  0  0  0  0  0  0
    4.2330   60.1240   70.2160 C   0  0  0  0  0  0  0  0  0  0  0  0
    4.8400   61.3270   70.5660 C   0  0  0  0  0  0  0  0  0  0  0  0
    4.9730   61.6730   71.9080 C   0  0  0  0  0  0  0  0  0  0  0  0
    4.5080   60.8120   72.9030 C   0  0  0  0  0  0  0  0  0  0  0  0
    2.0608   63.5305   74.8391 H   0  0  0  0  0  0  0  0  0  0  0  0
    1.1566   64.2280   76.2531 H   0  0  0  0  0  0  0  0  0  0  0  0
    1.8366   62.6090   72.6976 H   0  0  0  0  0  0  0  0  0  0  0  0
    2.7385   62.5105   70.1976 H   0  0  0  0  0  0  0  0  0  0  0  0
    1.2559   62.7486   69.2117 H   0  0  0  0  0  0  0  0  0  0  0  0
    2.5451   63.9996   69.2117 H   0  0  0  0  0  0  0  0  0  0  0  0
   -1.6011   65.3718   69.3687 H   0  0  0  0  0  0  0  0  0  0  0  0
   -1.9045   67.0495   67.5487 H   0  0  0  0  0  0  0  0  0  0  0  0
   -0.0875   68.6660   67.0114 H   0  0  0  0  0  0  0  0  0  0  0  0
    2.0546   68.5954   68.2873 H   0  0  0  0  0  0  0  0  0  0  0  0
    2.3689   66.9192   70.1028 H   0  0  0  0  0  0  0  0  0  0  0  0
    0.8031   62.0855   76.8017 H   0  0  0  0  0  0  0  0  0  0  0  0
   -0.4760   62.1996   75.4818 H   0  0  0  0  0  0  0  0  0  0  0  0
    2.1712   61.4761   74.5447 H   0  0  0  0  0  0  0  0  0  0  0  0
   -0.5116   60.1045   74.1628 H   0  0  0  0  0  0  0  0  0  0  0  0
    0.1671   61.4439   73.1488 H   0  0  0  0  0  0  0  0  0  0  0  0
    0.4595   59.0708   72.2491 H   0  0  0  0  0  0  0  0  0  0  0  0
    1.9510   60.1090   72.3860 H   0  0  0  0  0  0  0  0  0  0  0  0
    0.3538   58.2568   75.2901 H   0  0  0  0  0  0  0  0  0  0  0  0
    2.0391   57.7961   75.8010 H   0  0  0  0  0  0  0  0  0  0  0  0
    1.0023   59.9430   76.7852 H   0  0  0  0  0  0  0  0  0  0  0  0
    2.6962   59.9866   76.0936 H   0  0  0  0  0  0  0  0  0  0  0  0
    1.2629   56.4114   74.0487 H   0  0  0  0  0  0  0  0  0  0  0  0
    0.5628   57.2122   72.6012 H   0  0  0  0  0  0  0  0  0  0  0  0
    2.2856   56.7038   72.6012 H   0  0  0  0  0  0  0  0  0  0  0  0
    3.7929   59.0093   74.6041 H   0  0  0  0  0  0  0  0  0  0  0  0
    3.7791   57.6527   73.3347 H   0  0  0  0  0  0  0  0  0  0  0  0
    3.2816   58.3158   70.9255 H   0  0  0  0  0  0  0  0  0  0  0  0
    4.1204   59.8531   69.1558 H   0  0  0  0  0  0  0  0  0  0  0  0
    5.2141   62.0033   69.7832 H   0  0  0  0  0  0  0  0  0  0  0  0
    5.4456   62.6270   72.1846 H   0  0  0  0  0  0  0  0  0  0  0  0
    4.6103   61.0970   73.9605 H   0  0  0  0  0  0  0  0  0  0  0  0
  3  1  1  0
  3  2  2  0
  4  3  1  0
  5  4  1  0
  6  5  2  0
  7  6  1  0
  8  7  1  0
  8  4  2  0
  9  6  1  0
 10  7  1  0
 11 10  2  0
 12 11  1  0
 13 12  2  0
 14 13  1  0
 15 14  2  0
 15 10  1  0
 16  1  1  0
 17 16  1  0
 18 17  1  0
 19 18  1  0
 20 19  1  0
 21 20  1  0
 22 21  1  0
 22 17  1  0
 20 23  1  6
 24 20  1  0
 25 24  1  0
 26 25  2  0
 27 26  1  0
 28 27  2  0
 29 28  1  0
 30 29  2  0
 30 25  1  0
  1 31  1  0
  1 32  1  0
  5 33  1  0
  9 34  1  0
  9 35  1  0
  9 36  1  0
 11 37  1  0
 12 38  1  0
 13 39  1  0
 14 40  1  0
 15 41  1  0
 16 42  1  0
 16 43  1  0
 17 44  1  6
 18 45  1  0
 18 46  1  0
 19 47  1  0
 19 48  1  0
 21 49  1  0
 21 50  1  0
 22 51  1  0
 22 52  1  0
 23 53  1  0
 23 54  1  0
 23 55  1  0
 24 56  1  0
 24 57  1  0
 26 58  1  0
 27 59  1  0
 28 60  1  0
 29 61  1  0
 30 62  1  0
M  CHG  1  20   1
M  END
>  <score>  (9) 
-9.245

$$$$
