=
     RDKit          3D

 28 29  0  0  0  0  0  0  0  0999 V2000
    6.5810   70.6860   68.0990 C   0  0  0  0  0  0  0  0  0  0  0  0
    5.2420   70.2050   67.6470 C   0  0  0  0  0  0  0  0  0  0  0  0
    4.9670   69.7900   66.4040 C   0  0  0  0  0  0  0  0  0  0  0  0
    3.7130   69.3490   66.0250 N   0  0  0  0  0  0  0  0  0  0  0  0
    2.6490   69.3380   66.9160 C   0  0  0  0  0  0  0  0  0  0  0  0
    1.5010   69.0100   66.6210 O   0  0  0  0  0  0  0  0  0  0  0  0
    2.9400   69.7380   68.1930 N   0  0  0  0  0  0  0  0  0  0  0  0
    4.1460   70.1900   68.6430 C   0  0  0  0  0  0  0  0  0  0  0  0
    4.3110   70.5660   69.7970 O   0  0  0  0  0  0  0  0  0  0  0  0
    3.4270   68.9380   64.6580 C   0  0  2  0  0  0  0  0  0  0  0  0
    3.1920   67.5150   64.5860 O   0  0  0  0  0  0  0  0  0  0  0  0
    3.9580   66.9900   63.4700 C   0  0  1  0  0  0  0  0  0  0  0  0
    4.9120   68.0710   63.1080 C   0  0  0  0  0  0  0  0  0  0  0  0
    4.6080   69.1780   63.7850 C   0  0  0  0  0  0  0  0  0  0  0  0
    4.6280   65.6900   63.9220 C   0  0  0  0  0  0  0  0  0  0  0  0
    4.2550   64.6190   63.0530 O   0  0  0  0  0  0  0  0  0  0  0  0
    6.6144   70.6980   69.1984 H   0  0  0  0  0  0  0  0  0  0  0  0
    7.3613   70.0120   67.7158 H   0  0  0  0  0  0  0  0  0  0  0  0
    6.7540   71.7025   67.7158 H   0  0  0  0  0  0  0  0  0  0  0  0
    5.7717   69.8004   65.6540 H   0  0  0  0  0  0  0  0  0  0  0  0
    2.1742   69.6933   68.8803 H   0  0  0  0  0  0  0  0  0  0  0  0
    2.5470   69.5143   64.3363 H   0  0  0  0  0  0  0  0  0  0  0  0
    3.3613   66.7310   62.5829 H   0  0  0  0  0  0  0  0  0  0  0  0
    5.7410   67.9724   62.3918 H   0  0  0  0  0  0  0  0  0  0  0  0
    5.1515   70.1313   63.7094 H   0  0  0  0  0  0  0  0  0  0  0  0
    5.7205   65.8156   63.8968 H   0  0  0  0  0  0  0  0  0  0  0  0
    4.3026   65.4537   64.9458 H   0  0  0  0  0  0  0  0  0  0  0  0
    3.9821   63.8355   63.5932 H   0  0  0  0  0  0  0  0  0  0  0  0
  2  1  1  0
  3  2  2  0
  4  3  1  0
  5  4  1  0
  6  5  2  0
  7  5  1  0
  8  7  1  0
  8  2  1  0
  9  8  2  0
 10  4  1  0
 11 10  1  0
 12 11  1  0
 13 12  1  0
 14 13  2  0
 14 10  1  0
 15 12  1  0
 16 15  1  0
  1 17  1  0
  1 18  1  0
  1 19  1  0
  3 20  1  0
  7 21  1  0
 10 22  1  6
 12 23  1  6
 13 24  1  0
 14 25  1  0
 15 26  1  0
 15 27  1  0
 16 28  1  0
M  END
>  <score>  (1) 
-8.131

$$$$
=
     RDKit          3D

 28 29  0  0  0  0  0  0  0  0999 V2000
    0.0260   69.8500   61.7990 C   0  0  0  0  0  0  0  0  0  0  0  0
    0.9800   69.0180   62.5910 C   0  0  0  0  0  0  0  0  0  0  0  0
    0.7380   68.5590   63.8260 C   0  0  0  0  0  0  0  0  0  0  0  0
    1.6480   67.7880   64.5250 N   0  0  0  0  0  0  0  0  0  0  0  0
    2.8890   67.4690   63.9920 C   0  0  0  0  0  0  0  0  0  0  0  0
    3.7570   66.8360   64.5880 O   0  0  0  0  0  0  0  0  0  0  0  0
    3.1210   67.9180   62.7190 N   0  0  0  0  0  0  0  0  0  0  0  0
    2.2800   68.6840   61.9670 C   0  0  0  0  0  0  0  0  0  0  0  0
    2.5840   69.0770   60.8460 O   0  0  0  0  0  0  0  0  0  0  0  0
    1.3810   67.3310   65.8810 C   0  0  2  0  0  0  0  0  0  0  0  0
    0.0110   66.8970   66.0170 O   0  0  0  0  0  0  0  0  0  0  0  0
   -0.5280   67.4820   67.2300 C   0  0  1  0  0  0  0  0  0  0  0  0
    0.4410   68.5420   67.6160 C   0  0  0  0  0  0  0  0  0  0  0  0
    1.5260   68.4540   66.8470 C   0  0  0  0  0  0  0  0  0  0  0  0
   -1.9340   68.0030   66.9250 C   0  0  0  0  0  0  0  0  0  0  0  0
   -2.8990   67.2980   67.7090 O   0  0  0  0  0  0  0  0  0  0  0  0
   -0.6228   70.4159   62.4837 H   0  0  0  0  0  0  0  0  0  0  0  0
    0.5893   70.5504   61.1649 H   0  0  0  0  0  0  0  0  0  0  0  0
   -0.5913   69.1966   61.1649 H   0  0  0  0  0  0  0  0  0  0  0  0
   -0.2223   68.8052   64.3026 H   0  0  0  0  0  0  0  0  0  0  0  0
    4.0176   67.6512   62.2879 H   0  0  0  0  0  0  0  0  0  0  0  0
    2.0911   66.5151   66.0811 H   0  0  0  0  0  0  0  0  0  0  0  0
   -0.6407   66.7794   68.0688 H   0  0  0  0  0  0  0  0  0  0  0  0
    0.2862   69.2841   68.4131 H   0  0  0  0  0  0  0  0  0  0  0  0
    2.4020   69.1157   66.9162 H   0  0  0  0  0  0  0  0  0  0  0  0
   -1.9845   69.0756   67.1638 H   0  0  0  0  0  0  0  0  0  0  0  0
   -2.1527   67.8468   65.8583 H   0  0  0  0  0  0  0  0  0  0  0  0
   -2.7084   67.4373   68.6704 H   0  0  0  0  0  0  0  0  0  0  0  0
  2  1  1  0
  3  2  2  0
  4  3  1  0
  5  4  1  0
  6  5  2  0
  7  5  1  0
  8  7  1  0
  8  2  1  0
  9  8  2  0
 10  4  1  0
 11 10  1  0
 12 11  1  0
 13 12  1  0
 14 13  2  0
 14 10  1  0
 15 12  1  0
 16 15  1  0
  1 17  1  0
  1 18  1  0
  1 19  1  0
  3 20  1  0
  7 21  1  0
 10 22  1  1
 12 23  1  1
 13 24  1  0
 14 25  1  0
 15 26  1  0
 15 27  1  0
 16 28  1  0
M  END
>  <score>  (2) 
-8.05

$$$$
=
     RDKit          3D

 28 29  0  0  0  0  0  0  0  0999 V2000
    4.1800   70.5500   69.1540 C   0  0  0  0  0  0  0  0  0  0  0  0
    4.5200   70.2240   67.7370 C   0  0  0  0  0  0  0  0  0  0  0  0
    3.6820   69.6340   66.8750 C   0  0  0  0  0  0  0  0  0  0  0  0
    4.0350   69.3520   65.5680 N   0  0  0  0  0  0  0  0  0  0  0  0
    5.3020   69.6410   65.0810 C   0  0  0  0  0  0  0  0  0  0  0  0
    5.6890   69.3630   63.9480 O   0  0  0  0  0  0  0  0  0  0  0  0
    6.1470   70.2680   65.9580 N   0  0  0  0  0  0  0  0  0  0  0  0
    5.8760   70.5760   67.2590 C   0  0  0  0  0  0  0  0  0  0  0  0
    6.7070   71.1050   67.9900 O   0  0  0  0  0  0  0  0  0  0  0  0
    3.1220   68.6760   64.6590 C   0  0  2  0  0  0  0  0  0  0  0  0
    1.7620   69.1090   64.8780 O   0  0  0  0  0  0  0  0  0  0  0  0
    0.9180   67.9300   64.9280 C   0  0  1  0  0  0  0  0  0  0  0  0
    1.8550   66.7850   65.0810 C   0  0  0  0  0  0  0  0  0  0  0  0
    3.1080   67.2120   64.9280 C   0  0  0  0  0  0  0  0  0  0  0  0
   -0.0620   68.0940   66.0920 C   0  0  0  0  0  0  0  0  0  0  0  0
   -0.5570   66.8180   66.5010 O   0  0  0  0  0  0  0  0  0  0  0  0
    4.8069   69.9489   69.8291 H   0  0  0  0  0  0  0  0  0  0  0  0
    4.3629   71.6189   69.3384 H   0  0  0  0  0  0  0  0  0  0  0  0
    3.1197   70.3223   69.3384 H   0  0  0  0  0  0  0  0  0  0  0  0
    2.6733   69.3631   67.2201 H   0  0  0  0  0  0  0  0  0  0  0  0
    7.0762   70.5323   65.6008 H   0  0  0  0  0  0  0  0  0  0  0  0
    3.4664   68.9090   63.6406 H   0  0  0  0  0  0  0  0  0  0  0  0
    0.3006   67.7679   64.0322 H   0  0  0  0  0  0  0  0  0  0  0  0
    1.5592   65.7460   65.2884 H   0  0  0  0  0  0  0  0  0  0  0  0
    4.0025   66.5749   64.9913 H   0  0  0  0  0  0  0  0  0  0  0  0
    0.4543   68.5719   66.9376 H   0  0  0  0  0  0  0  0  0  0  0  0
   -0.9060   68.7198   65.7664 H   0  0  0  0  0  0  0  0  0  0  0  0
   -0.5747   66.7724   67.4898 H   0  0  0  0  0  0  0  0  0  0  0  0
  2  1  1  0
  3  2  2  0
  4  3  1  0
  5  4  1  0
  6  5  2  0
  7  5  1  0
  8  7  1  0
  8  2  1  0
  9  8  2  0
 10  4  1  0
 11 10  1  0
 12 11  1  0
 13 12  1  0
 14 13  2  0
 14 10  1  0
 15 12  1  0
 16 15  1  0
  1 17  1  0
  1 18  1  0
  1 19  1  0
  3 20  1  0
  7 21  1  0
 10 22  1  6
 12 23  1  6
 13 24  1  0
 14 25  1  0
 15 26  1  0
 15 27  1  0
 16 28  1  0
M  END
>  <score>  (3) 
-7.74

$$$$
=
     RDKit          3D

 28 29  0  0  0  0  0  0  0  0999 V2000
   -0.0090   67.9570   67.5680 C   0  0  0  0  0  0  0  0  0  0  0  0
    0.1280   68.3280   66.1280 C   0  0  0  0  0  0  0  0  0  0  0  0
    1.2880   68.3480   65.4590 C   0  0  0  0  0  0  0  0  0  0  0  0
    1.3720   68.6950   64.1230 N   0  0  0  0  0  0  0  0  0  0  0  0
    0.2490   69.0760   63.4010 C   0  0  0  0  0  0  0  0  0  0  0  0
    0.2710   69.4470   62.2300 O   0  0  0  0  0  0  0  0  0  0  0  0
   -0.9390   69.0290   64.0820 N   0  0  0  0  0  0  0  0  0  0  0  0
   -1.1040   68.7020   65.3960 C   0  0  0  0  0  0  0  0  0  0  0  0
   -2.2020   68.7230   65.9400 O   0  0  0  0  0  0  0  0  0  0  0  0
    2.6470   68.7460   63.4250 C   0  0  2  0  0  0  0  0  0  0  0  0
    2.9970   67.4500   62.8950 O   0  0  0  0  0  0  0  0  0  0  0  0
    4.3840   67.1860   63.2310 C   0  0  1  0  0  0  0  0  0  0  0  0
    4.7350   68.1980   64.2630 C   0  0  0  0  0  0  0  0  0  0  0  0
    3.7450   69.0840   64.3720 C   0  0  0  0  0  0  0  0  0  0  0  0
    4.4910   65.7380   63.7150 C   0  0  0  0  0  0  0  0  0  0  0  0
    4.1560   64.8410   62.6540 O   0  0  0  0  0  0  0  0  0  0  0  0
    0.3038   68.8040   68.1962 H   0  0  0  0  0  0  0  0  0  0  0  0
   -1.0584   67.7080   67.7842 H   0  0  0  0  0  0  0  0  0  0  0  0
    0.6267   67.0857   67.7842 H   0  0  0  0  0  0  0  0  0  0  0  0
    2.2106   68.0777   65.9935 H   0  0  0  0  0  0  0  0  0  0  0  0
   -1.7896   69.2632   63.5504 H   0  0  0  0  0  0  0  0  0  0  0  0
    2.5371   69.4969   62.6287 H   0  0  0  0  0  0  0  0  0  0  0  0
    5.0864   67.2766   62.3894 H   0  0  0  0  0  0  0  0  0  0  0  0
    5.6675   68.2130   64.8462 H   0  0  0  0  0  0  0  0  0  0  0  0
    3.7400   69.9408   65.0618 H   0  0  0  0  0  0  0  0  0  0  0  0
    5.5208   65.5404   64.0474 H   0  0  0  0  0  0  0  0  0  0  0  0
    3.7927   65.5846   64.5510 H   0  0  0  0  0  0  0  0  0  0  0  0
    3.8362   63.9847   63.0344 H   0  0  0  0  0  0  0  0  0  0  0  0
  2  1  1  0
  3  2  2  0
  4  3  1  0
  5  4  1  0
  6  5  2  0
  7  5  1  0
  8  7  1  0
  8  2  1  0
  9  8  2  0
 10  4  1  0
 11 10  1  0
 12 11  1  0
 13 12  1  0
 14 13  2  0
 14 10  1  0
 15 12  1  0
 16 15  1  0
  1 17  1  0
  1 18  1  0
  1 19  1  0
  3 20  1  0
  7 21  1  0
 10 22  1  6
 12 23  1  6
 13 24  1  0
 14 25  1  0
 15 26  1  0
 15 27  1  0
 16 28  1  0
M  END
>  <score>  (4) 
-7.707

$$$$
=
     RDKit          3D

 28 29  0  0  0  0  0  0  0  0999 V2000
    4.8290   69.0320   62.8350 C   0  0  0  0  0  0  0  0  0  0  0  0
    3.3490   68.8460   62.8980 C   0  0  0  0  0  0  0  0  0  0  0  0
    2.6570   68.6650   64.0300 C   0  0  0  0  0  0  0  0  0  0  0  0
    1.2840   68.4980   64.0460 N   0  0  0  0  0  0  0  0  0  0  0  0
    0.5430   68.4810   62.8730 C   0  0  0  0  0  0  0  0  0  0  0  0
   -0.6690   68.2820   62.8220 O   0  0  0  0  0  0  0  0  0  0  0  0
    1.2510   68.6930   61.7200 N   0  0  0  0  0  0  0  0  0  0  0  0
    2.6010   68.8600   61.6200 C   0  0  0  0  0  0  0  0  0  0  0  0
    3.1620   69.0060   60.5400 O   0  0  0  0  0  0  0  0  0  0  0  0
    0.5570   68.2650   65.2840 C   0  0  2  0  0  0  0  0  0  0  0  0
    0.6950   69.3870   66.1820 O   0  0  0  0  0  0  0  0  0  0  0  0
    1.0130   68.8700   67.5000 C   0  0  1  0  0  0  0  0  0  0  0  0
    1.3990   67.4510   67.2810 C   0  0  0  0  0  0  0  0  0  0  0  0
    1.1390   67.1090   66.0200 C   0  0  0  0  0  0  0  0  0  0  0  0
    2.1270   69.7360   68.0950 C   0  0  0  0  0  0  0  0  0  0  0  0
    1.5660   70.8700   68.7580 O   0  0  0  0  0  0  0  0  0  0  0  0
    5.2359   69.0831   63.8557 H   0  0  0  0  0  0  0  0  0  0  0  0
    5.2828   68.1838   62.3014 H   0  0  0  0  0  0  0  0  0  0  0  0
    5.0588   69.9661   62.3014 H   0  0  0  0  0  0  0  0  0  0  0  0
    3.2021   68.6485   64.9853 H   0  0  0  0  0  0  0  0  0  0  0  0
    0.7117   68.7299   60.8433 H   0  0  0  0  0  0  0  0  0  0  0  0
   -0.4923   68.0938   65.0019 H   0  0  0  0  0  0  0  0  0  0  0  0
    0.1830   68.9052   68.2210 H   0  0  0  0  0  0  0  0  0  0  0  0
    1.8324   66.7861   68.0427 H   0  0  0  0  0  0  0  0  0  0  0  0
    1.3271   66.1162   65.5854 H   0  0  0  0  0  0  0  0  0  0  0  0
    2.7040   69.1405   68.8179 H   0  0  0  0  0  0  0  0  0  0  0  0
    2.7857   70.0820   67.2848 H   0  0  0  0  0  0  0  0  0  0  0  0
    1.6285   70.7437   69.7379 H   0  0  0  0  0  0  0  0  0  0  0  0
  2  1  1  0
  3  2  2  0
  4  3  1  0
  5  4  1  0
  6  5  2  0
  7  5  1  0
  8  7  1  0
  8  2  1  0
  9  8  2  0
 10  4  1  0
 11 10  1  0
 12 11  1  0
 13 12  1  0
 14 13  2  0
 14 10  1  0
 15 12  1  0
 16 15  1  0
  1 17  1  0
  1 18  1  0
  1 19  1  0
  3 20  1  0
  7 21  1  0
 10 22  1  6
 12 23  1  1
 13 24  1  0
 14 25  1  0
 15 26  1  0
 15 27  1  0
 16 28  1  0
M  END
>  <score>  (5) 
-7.666

$$$$
=
     RDKit          3D

 28 29  0  0  0  0  0  0  0  0999 V2000
    1.1740   69.2240   67.6730 C   0  0  0  0  0  0  0  0  0  0  0  0
    2.6060   69.4230   67.3040 C   0  0  0  0  0  0  0  0  0  0  0  0
    3.1430   69.0610   66.1320 C   0  0  0  0  0  0  0  0  0  0  0  0
    4.4770   69.2660   65.8280 N   0  0  0  0  0  0  0  0  0  0  0  0
    5.3490   69.8390   66.7430 C   0  0  0  0  0  0  0  0  0  0  0  0
    6.5530   69.9940   66.5490 O   0  0  0  0  0  0  0  0  0  0  0  0
    4.7900   70.2320   67.9300 N   0  0  0  0  0  0  0  0  0  0  0  0
    3.4900   70.0620   68.3060 C   0  0  0  0  0  0  0  0  0  0  0  0
    3.0800   70.4100   69.4070 O   0  0  0  0  0  0  0  0  0  0  0  0
    5.0480   68.8300   64.5620 C   0  0  2  0  0  0  0  0  0  0  0  0
    4.3700   69.4520   63.4500 O   0  0  0  0  0  0  0  0  0  0  0  0
    4.0770   68.4220   62.4700 C   0  0  1  0  0  0  0  0  0  0  0  0
    4.2870   67.1340   63.1830 C   0  0  0  0  0  0  0  0  0  0  0  0
    4.8380   67.3690   64.3730 C   0  0  0  0  0  0  0  0  0  0  0  0
    2.6470   68.6340   61.9690 C   0  0  0  0  0  0  0  0  0  0  0  0
    2.6590   68.9820   60.5830 O   0  0  0  0  0  0  0  0  0  0  0  0
    1.0761   69.2104   68.7686 H   0  0  0  0  0  0  0  0  0  0  0  0
    0.5715   70.0470   67.2612 H   0  0  0  0  0  0  0  0  0  0  0  0
    0.8187   68.2679   67.2612 H   0  0  0  0  0  0  0  0  0  0  0  0
    2.4978   68.5816   65.3811 H   0  0  0  0  0  0  0  0  0  0  0  0
    5.4115   70.7014   68.6040 H   0  0  0  0  0  0  0  0  0  0  0  0
    6.1146   69.0972   64.5915 H   0  0  0  0  0  0  0  0  0  0  0  0
    4.7168   68.4415   61.5754 H   0  0  0  0  0  0  0  0  0  0  0  0
    4.0274   66.1405   62.7887 H   0  0  0  0  0  0  0  0  0  0  0  0
    5.0999   66.5949   65.1094 H   0  0  0  0  0  0  0  0  0  0  0  0
    2.0721   67.7063   62.1063 H   0  0  0  0  0  0  0  0  0  0  0  0
    2.1822   69.4504   62.5413 H   0  0  0  0  0  0  0  0  0  0  0  0
    2.6930   69.9671   60.4904 H   0  0  0  0  0  0  0  0  0  0  0  0
  2  1  1  0
  3  2  2  0
  4  3  1  0
  5  4  1  0
  6  5  2  0
  7  5  1  0
  8  7  1  0
  8  2  1  0
  9  8  2  0
 10  4  1  0
 11 10  1  0
 12 11  1  0
 13 12  1  0
 14 13  2  0
 14 10  1  0
 15 12  1  0
 16 15  1  0
  1 17  1  0
  1 18  1  0
  1 19  1  0
  3 20  1  0
  7 21  1  0
 10 22  1  1
 12 23  1  6
 13 24  1  0
 14 25  1  0
 15 26  1  0
 15 27  1  0
 16 28  1  0
M  END
>  <score>  (6) 
-7.642

$$$$
=
     RDKit          3D

 28 29  0  0  0  0  0  0  0  0999 V2000
    0.6460   67.2050   68.7280 C   0  0  0  0  0  0  0  0  0  0  0  0
    0.4380   67.6850   67.3300 C   0  0  0  0  0  0  0  0  0  0  0  0
    1.4270   67.9610   66.4700 C   0  0  0  0  0  0  0  0  0  0  0  0
    1.1910   68.4020   65.1800 N   0  0  0  0  0  0  0  0  0  0  0  0
   -0.0970   68.6150   64.7110 C   0  0  0  0  0  0  0  0  0  0  0  0
   -0.3640   69.0580   63.5960 O   0  0  0  0  0  0  0  0  0  0  0  0
   -1.1060   68.3070   65.5850 N   0  0  0  0  0  0  0  0  0  0  0  0
   -0.9570   67.8720   66.8700 C   0  0  0  0  0  0  0  0  0  0  0  0
   -1.9170   67.6570   67.6000 O   0  0  0  0  0  0  0  0  0  0  0  0
    2.2810   68.7310   64.2740 C   0  0  2  0  0  0  0  0  0  0  0  0
    2.6620   67.5810   63.4880 O   0  0  0  0  0  0  0  0  0  0  0  0
    4.1100   67.4810   63.5130 C   0  0  1  0  0  0  0  0  0  0  0  0
    4.5460   68.3850   64.6100 C   0  0  0  0  0  0  0  0  0  0  0  0
    3.5040   69.0950   65.0410 C   0  0  0  0  0  0  0  0  0  0  0  0
    4.4820   66.0120   63.7300 C   0  0  0  0  0  0  0  0  0  0  0  0
    4.1730   65.2490   62.5620 O   0  0  0  0  0  0  0  0  0  0  0  0
    0.3109   67.9783   69.4349 H   0  0  0  0  0  0  0  0  0  0  0  0
    0.0661   66.2844   68.8897 H   0  0  0  0  0  0  0  0  0  0  0  0
    1.7143   66.9986   68.8897 H   0  0  0  0  0  0  0  0  0  0  0  0
    2.4676   67.8320   66.8023 H   0  0  0  0  0  0  0  0  0  0  0  0
   -2.0702   68.4141   65.2389 H   0  0  0  0  0  0  0  0  0  0  0  0
    1.9236   69.5581   63.6430 H   0  0  0  0  0  0  0  0  0  0  0  0
    4.6084   67.7865   62.5812 H   0  0  0  0  0  0  0  0  0  0  0  0
    5.5702   68.4566   65.0047 H   0  0  0  0  0  0  0  0  0  0  0  0
    3.5420   69.8423   65.8473 H   0  0  0  0  0  0  0  0  0  0  0  0
    5.5593   65.9367   63.9392 H   0  0  0  0  0  0  0  0  0  0  0  0
    3.9068   65.6170   64.5804 H   0  0  0  0  0  0  0  0  0  0  0  0
    3.8153   64.3656   62.8300 H   0  0  0  0  0  0  0  0  0  0  0  0
  2  1  1  0
  3  2  2  0
  4  3  1  0
  5  4  1  0
  6  5  2  0
  7  5  1  0
  8  7  1  0
  8  2  1  0
  9  8  2  0
 10  4  1  0
 11 10  1  0
 12 11  1  0
 13 12  1  0
 14 13  2  0
 14 10  1  0
 15 12  1  0
 16 15  1  0
  1 17  1  0
  1 18  1  0
  1 19  1  0
  3 20  1  0
  7 21  1  0
 10 22  1  6
 12 23  1  6
 13 24  1  0
 14 25  1  0
 15 26  1  0
 15 27  1  0
 16 28  1  0
M  END
>  <score>  (7) 
-7.41

$$$$
=
     RDKit          3D

 28 29  0  0  0  0  0  0  0  0999 V2000
    4.5950   69.4150   62.8680 C   0  0  0  0  0  0  0  0  0  0  0  0
    4.0610   68.1810   63.5180 C   0  0  0  0  0  0  0  0  0  0  0  0
    3.1910   68.1790   64.5360 C   0  0  0  0  0  0  0  0  0  0  0  0
    2.7170   67.0120   65.1080 N   0  0  0  0  0  0  0  0  0  0  0  0
    3.1460   65.7660   64.6740 C   0  0  0  0  0  0  0  0  0  0  0  0
    2.8020   64.7000   65.1800 O   0  0  0  0  0  0  0  0  0  0  0  0
    4.0150   65.7720   63.6150 N   0  0  0  0  0  0  0  0  0  0  0  0
    4.5300   66.8760   63.0000 C   0  0  0  0  0  0  0  0  0  0  0  0
    5.3360   66.7920   62.0800 O   0  0  0  0  0  0  0  0  0  0  0  0
    1.8010   67.0330   66.2390 C   0  0  2  0  0  0  0  0  0  0  0  0
    0.4300   66.9740   65.7920 O   0  0  0  0  0  0  0  0  0  0  0  0
   -0.3200   67.9870   66.5110 C   0  0  1  0  0  0  0  0  0  0  0  0
    0.7050   68.8670   67.1310 C   0  0  0  0  0  0  0  0  0  0  0  0
    1.9120   68.3220   66.9740 C   0  0  0  0  0  0  0  0  0  0  0  0
   -1.2360   68.7010   65.5140 C   0  0  0  0  0  0  0  0  0  0  0  0
   -2.2120   69.4770   66.2110 O   0  0  0  0  0  0  0  0  0  0  0  0
    4.9054   70.1322   63.6421 H   0  0  0  0  0  0  0  0  0  0  0  0
    5.4608   69.1541   62.2416 H   0  0  0  0  0  0  0  0  0  0  0  0
    3.8122   69.8675   62.2416 H   0  0  0  0  0  0  0  0  0  0  0  0
    2.8396   69.1428   64.9329 H   0  0  0  0  0  0  0  0  0  0  0  0
    4.3077   64.8553   63.2477 H   0  0  0  0  0  0  0  0  0  0  0  0
    2.0627   66.1704   66.8695 H   0  0  0  0  0  0  0  0  0  0  0  0
   -0.9783   67.5968   67.3011 H   0  0  0  0  0  0  0  0  0  0  0  0
    0.4998   69.8201   67.6404 H   0  0  0  0  0  0  0  0  0  0  0  0
    2.8533   68.7617   67.3355 H   0  0  0  0  0  0  0  0  0  0  0  0
   -0.6327   69.3635   64.8760 H   0  0  0  0  0  0  0  0  0  0  0  0
   -1.7489   67.9498   64.8954 H   0  0  0  0  0  0  0  0  0  0  0  0
   -2.0810   69.3728   67.1867 H   0  0  0  0  0  0  0  0  0  0  0  0
  2  1  1  0
  3  2  2  0
  4  3  1  0
  5  4  1  0
  6  5  2  0
  7  5  1  0
  8  7  1  0
  8  2  1  0
  9  8  2  0
 10  4  1  0
 11 10  1  0
 12 11  1  0
 13 12  1  0
 14 13  2  0
 14 10  1  0
 15 12  1  0
 16 15  1  0
  1 17  1  0
  1 18  1  0
  1 19  1  0
  3 20  1  0
  7 21  1  0
 10 22  1  1
 12 23  1  1
 13 24  1  0
 14 25  1  0
 15 26  1  0
 15 27  1  0
 16 28  1  0
M  END
>  <score>  (8) 
-7.353

$$$$
=
     RDKit          3D

 28 29  0  0  0  0  0  0  0  0999 V2000
    3.1220   68.7580   61.3190 C   0  0  0  0  0  0  0  0  0  0  0  0
    2.0030   68.7480   62.3080 C   0  0  0  0  0  0  0  0  0  0  0  0
    2.0920   68.2440   63.5450 C   0  0  0  0  0  0  0  0  0  0  0  0
    1.0320   68.2560   64.4330 N   0  0  0  0  0  0  0  0  0  0  0  0
   -0.2060   68.7720   64.0750 C   0  0  0  0  0  0  0  0  0  0  0  0
   -1.1980   68.7600   64.8020 O   0  0  0  0  0  0  0  0  0  0  0  0
   -0.2850   69.3110   62.8190 N   0  0  0  0  0  0  0  0  0  0  0  0
    0.7100   69.3330   61.8860 C   0  0  0  0  0  0  0  0  0  0  0  0
    0.5430   69.8020   60.7660 O   0  0  0  0  0  0  0  0  0  0  0  0
    1.1390   67.6690   65.7590 C   0  0  2  0  0  0  0  0  0  0  0  0
   -0.0110   66.8470   66.0530 O   0  0  0  0  0  0  0  0  0  0  0  0
   -0.4750   67.1830   67.3870 C   0  0  1  0  0  0  0  0  0  0  0  0
    0.2110   68.4570   67.7290 C   0  0  0  0  0  0  0  0  0  0  0  0
    1.1280   68.7320   66.8020 C   0  0  0  0  0  0  0  0  0  0  0  0
   -2.0010   67.2860   67.3480 C   0  0  0  0  0  0  0  0  0  0  0  0
   -2.3980   68.6520   67.2110 O   0  0  0  0  0  0  0  0  0  0  0  0
    4.0835   68.7666   61.8533 H   0  0  0  0  0  0  0  0  0  0  0  0
    3.0614   67.8593   60.6876 H   0  0  0  0  0  0  0  0  0  0  0  0
    3.0453   69.6555   60.6876 H   0  0  0  0  0  0  0  0  0  0  0  0
    3.0464   67.8027   63.8680 H   0  0  0  0  0  0  0  0  0  0  0  0
   -1.1821   69.7414   62.5529 H   0  0  0  0  0  0  0  0  0  0  0  0
    2.0719   67.0862   65.7675 H   0  0  0  0  0  0  0  0  0  0  0  0
   -0.2412   66.4347   68.1586 H   0  0  0  0  0  0  0  0  0  0  0  0
   -0.0052   69.0771   68.6114 H   0  0  0  0  0  0  0  0  0  0  0  0
    1.7822   69.6163   66.8065 H   0  0  0  0  0  0  0  0  0  0  0  0
   -2.3828   66.7087   66.4930 H   0  0  0  0  0  0  0  0  0  0  0  0
   -2.4129   66.8838   68.2853 H   0  0  0  0  0  0  0  0  0  0  0  0
   -2.5146   69.0533   68.1084 H   0  0  0  0  0  0  0  0  0  0  0  0
  2  1  1  0
  3  2  2  0
  4  3  1  0
  5  4  1  0
  6  5  2  0
  7  5  1  0
  8  7  1  0
  8  2  1  0
  9  8  2  0
 10  4  1  0
 11 10  1  0
 12 11  1  0
 13 12  1  0
 14 13  2  0
 14 10  1  0
 15 12  1  0
 16 15  1  0
  1 17  1  0
  1 18  1  0
  1 19  1  0
  3 20  1  0
  7 21  1  0
 10 22  1  6
 12 23  1  1
 13 24  1  0
 14 25  1  0
 15 26  1  0
 15 27  1  0
 16 28  1  0
M  END
>  <score>  (9) 
-7.165

$$$$
