=
     RDKit          3D

 50 52  0  0  0  0  0  0  0  0999 V2000
   -0.3460   66.2980   69.1370 C   0  0  0  0  0  0  0  0  0  0  0  0
   -0.2520   67.5620   68.2660 C   0  0  0  0  0  0  0  0  0  0  0  0
   -1.2210   67.4730   67.0720 C   0  0  0  0  0  0  0  0  0  0  0  0
   -0.7560   68.3390   65.9140 C   0  0  0  0  0  0  0  0  0  0  0  0
    0.5770   67.8310   65.3940 N   0  0  0  0  0  4  0  0  0  0  0  0
    1.4710   67.2080   66.4450 C   0  0  0  0  0  0  0  0  0  0  0  0
    1.1950   67.8190   67.8100 C   0  0  0  0  0  0  0  0  0  0  0  0
    1.3010   68.8680   64.5560 C   0  0  0  0  0  0  0  0  0  0  0  0
    2.7940   68.6800   64.5440 C   0  0  0  0  0  0  0  0  0  0  0  0
    3.3870   67.7370   63.6900 C   0  0  0  0  0  0  0  0  0  0  0  0
    4.7690   67.5410   63.7060 C   0  0  0  0  0  0  0  0  0  0  0  0
    5.5690   68.2830   64.5710 C   0  0  0  0  0  0  0  0  0  0  0  0
    4.9940   69.2250   65.4190 C   0  0  0  0  0  0  0  0  0  0  0  0
    3.6120   69.4240   65.4090 C   0  0  0  0  0  0  0  0  0  0  0  0
    0.7170   66.3180   70.0910 O   0  0  0  0  0  0  0  0  0  0  0  0
    2.2660   63.1020   70.2650 C   0  0  0  0  0  0  0  0  0  0  0  0
    1.6820   62.5380   71.3940 C   0  0  0  0  0  0  0  0  0  0  0  0
    0.7550   63.2960   72.1010 C   0  0  0  0  0  0  0  0  0  0  0  0
    0.4420   64.5780   71.6560 C   0  0  0  0  0  0  0  0  0  0  0  0
    1.0780   65.0540   70.5200 C   0  0  0  0  0  0  0  0  0  0  0  0
    1.9880   64.3520   69.8180 N   0  0  0  0  0  0  0  0  0  0  0  0
    3.2560   62.3280   69.4850 C   0  0  0  0  0  0  0  0  0  0  0  0
    4.1280   62.8430   68.8010 O   0  0  0  0  0  0  0  0  0  0  0  0
    4.2150   60.1050   69.4720 N   0  0  0  0  0  0  0  0  0  0  0  0
    3.1480   60.8350   69.5200 C   0  0  0  0  0  0  0  0  0  0  0  0
    3.8440   58.7560   69.5210 O   0  0  0  0  0  0  0  0  0  0  0  0
   -1.3131   66.2808   69.6609 H   0  0  0  0  0  0  0  0  0  0  0  0
   -0.2652   65.4011   68.5052 H   0  0  0  0  0  0  0  0  0  0  0  0
   -0.5548   68.4247   68.8775 H   0  0  0  0  0  0  0  0  0  0  0  0
   -1.2793   66.4273   66.7358 H   0  0  0  0  0  0  0  0  0  0  0  0
   -2.2072   67.8338   67.3994 H   0  0  0  0  0  0  0  0  0  0  0  0
   -1.5018   68.2999   65.1064 H   0  0  0  0  0  0  0  0  0  0  0  0
   -0.6388   69.3763   66.2607 H   0  0  0  0  0  0  0  0  0  0  0  0
    0.3324   67.0492   64.7697 H   0  0  0  0  0  0  0  0  0  0  0  0
    1.2795   66.1256   66.4876 H   0  0  0  0  0  0  0  0  0  0  0  0
    2.5208   67.3974   66.1764 H   0  0  0  0  0  0  0  0  0  0  0  0
    1.8842   67.3768   68.5445 H   0  0  0  0  0  0  0  0  0  0  0  0
    1.3433   68.9064   67.7355 H   0  0  0  0  0  0  0  0  0  0  0  0
    0.9316   68.8024   63.5220 H   0  0  0  0  0  0  0  0  0  0  0  0
    1.0980   69.8517   65.0044 H   0  0  0  0  0  0  0  0  0  0  0  0
    2.7592   67.1491   63.0043 H   0  0  0  0  0  0  0  0  0  0  0  0
    5.2265   66.7995   63.0345 H   0  0  0  0  0  0  0  0  0  0  0  0
    6.6574   68.1244   64.5842 H   0  0  0  0  0  0  0  0  0  0  0  0
    5.6289   69.8133   66.0978 H   0  0  0  0  0  0  0  0  0  0  0  0
    3.1617   70.1679   66.0827 H   0  0  0  0  0  0  0  0  0  0  0  0
    1.9459   61.5207   71.7187 H   0  0  0  0  0  0  0  0  0  0  0  0
    0.2741   62.8874   73.0020 H   0  0  0  0  0  0  0  0  0  0  0  0
   -0.2917   65.1975   72.1926 H   0  0  0  0  0  0  0  0  0  0  0  0
    2.1592   60.3578   69.5867 H   0  0  0  0  0  0  0  0  0  0  0  0
    4.5380   58.0505   69.4944 H   0  0  0  0  0  0  0  0  0  0  0  0
  2  1  1  0
  3  2  1  0
  4  3  1  0
  5  4  1  0
  6  5  1  0
  7  6  1  0
  7  2  1  0
  8  5  1  0
  9  8  1  0
 10  9  2  0
 11 10  1  0
 12 11  2  0
 13 12  1  0
 14  9  1  0
 14 13  2  0
 15  1  1  0
 17 16  2  0
 18 17  1  0
 19 18  2  0
 20 19  1  0
 20 15  1  0
 21 20  2  0
 21 16  1  0
 22 16  1  0
 23 22  2  0
 25 24  2  0
 25 22  1  0
 26 24  1  0
  1 27  1  0
  1 28  1  0
  2 29  1  0
  3 30  1  0
  3 31  1  0
  4 32  1  0
  4 33  1  0
  5 34  1  0
  6 35  1  0
  6 36  1  0
  7 37  1  0
  7 38  1  0
  8 39  1  0
  8 40  1  0
 10 41  1  0
 11 42  1  0
 12 43  1  0
 13 44  1  0
 14 45  1  0
 17 46  1  0
 18 47  1  0
 19 48  1  0
 25 49  1  0
 26 50  1  0
M  CHG  1   5   1
M  END
>  <score>  (1) 
-9.592

$$$$
=
     RDKit          3D

 50 52  0  0  0  0  0  0  0  0999 V2000
   -0.0170   64.5900   69.8940 C   0  0  0  0  0  0  0  0  0  0  0  0
   -0.1570   66.1180   69.7880 C   0  0  0  0  0  0  0  0  0  0  0  0
   -0.8780   66.5080   68.4830 C   0  0  0  0  0  0  0  0  0  0  0  0
   -0.5130   67.9170   68.0460 C   0  0  0  0  0  0  0  0  0  0  0  0
    0.9700   67.9890   67.7280 N   0  0  0  0  0  4  0  0  0  0  0  0
    1.8410   67.0660   68.5560 C   0  0  0  0  0  0  0  0  0  0  0  0
    1.2090   66.8140   69.9150 C   0  0  0  0  0  0  0  0  0  0  0  0
    1.4860   69.4150   67.7110 C   0  0  0  0  0  0  0  0  0  0  0  0
    2.8920   69.5270   67.1850 C   0  0  0  0  0  0  0  0  0  0  0  0
    3.9150   70.0490   67.9930 C   0  0  0  0  0  0  0  0  0  0  0  0
    5.2100   70.1820   67.4910 C   0  0  0  0  0  0  0  0  0  0  0  0
    5.4970   69.7950   66.1840 C   0  0  0  0  0  0  0  0  0  0  0  0
    4.4920   69.2700   65.3750 C   0  0  0  0  0  0  0  0  0  0  0  0
    3.1940   69.1360   65.8710 C   0  0  0  0  0  0  0  0  0  0  0  0
    1.3440   64.2740   70.1920 O   0  0  0  0  0  0  0  0  0  0  0  0
    2.5920   61.0790   71.1940 C   0  0  0  0  0  0  0  0  0  0  0  0
    1.6490   60.6560   72.1240 C   0  0  0  0  0  0  0  0  0  0  0  0
    0.5830   61.5030   72.4080 C   0  0  0  0  0  0  0  0  0  0  0  0
    0.4940   62.7290   71.7550 C   0  0  0  0  0  0  0  0  0  0  0  0
    1.4840   63.0640   70.8440 C   0  0  0  0  0  0  0  0  0  0  0  0
    2.5360   62.2740   70.5530 N   0  0  0  0  0  0  0  0  0  0  0  0
    3.7400   60.2070   70.8630 C   0  0  0  0  0  0  0  0  0  0  0  0
    4.8020   60.6260   70.4250 O   0  0  0  0  0  0  0  0  0  0  0  0
    3.9560   57.9090   70.1330 N   0  0  0  0  0  0  0  0  0  0  0  0
    3.5640   58.7330   71.0500 C   0  0  0  0  0  0  0  0  0  0  0  0
    3.6800   56.6010   70.5500 O   0  0  0  0  0  0  0  0  0  0  0  0
   -0.6686   64.2134   70.6963 H   0  0  0  0  0  0  0  0  0  0  0  0
   -0.3114   64.1200   68.9440 H   0  0  0  0  0  0  0  0  0  0  0  0
   -0.7750   66.4662   70.6287 H   0  0  0  0  0  0  0  0  0  0  0  0
   -0.5898   65.8018   67.6904 H   0  0  0  0  0  0  0  0  0  0  0  0
   -1.9625   66.4721   68.6633 H   0  0  0  0  0  0  0  0  0  0  0  0
   -1.0921   68.1828   67.1493 H   0  0  0  0  0  0  0  0  0  0  0  0
   -0.7447   68.6209   68.8590 H   0  0  0  0  0  0  0  0  0  0  0  0
    1.0494   67.6233   66.7684 H   0  0  0  0  0  0  0  0  0  0  0  0
    1.9576   66.1081   68.0279 H   0  0  0  0  0  0  0  0  0  0  0  0
    2.8226   67.5403   68.7028 H   0  0  0  0  0  0  0  0  0  0  0  0
    1.8806   66.1753   70.5074 H   0  0  0  0  0  0  0  0  0  0  0  0
    1.0538   67.7860   70.4061 H   0  0  0  0  0  0  0  0  0  0  0  0
    0.8242   70.0194   67.0732 H   0  0  0  0  0  0  0  0  0  0  0  0
    1.4949   69.7735   68.7509 H   0  0  0  0  0  0  0  0  0  0  0  0
    3.6944   70.3545   69.0265 H   0  0  0  0  0  0  0  0  0  0  0  0
    6.0062   70.5934   68.1288 H   0  0  0  0  0  0  0  0  0  0  0  0
    6.5184   69.9041   65.7904 H   0  0  0  0  0  0  0  0  0  0  0  0
    4.7213   68.9608   64.3446 H   0  0  0  0  0  0  0  0  0  0  0  0
    2.4032   68.7216   65.2284 H   0  0  0  0  0  0  0  0  0  0  0  0
    1.7433   59.6792   72.6210 H   0  0  0  0  0  0  0  0  0  0  0  0
   -0.1819   61.2071   73.1411 H   0  0  0  0  0  0  0  0  0  0  0  0
   -0.3415   63.4154   71.9568 H   0  0  0  0  0  0  0  0  0  0  0  0
    3.0998   58.3487   71.9702 H   0  0  0  0  0  0  0  0  0  0  0  0
    3.9150   55.8358   69.9675 H   0  0  0  0  0  0  0  0  0  0  0  0
  2  1  1  0
  3  2  1  0
  4  3  1  0
  5  4  1  0
  6  5  1  0
  7  6  1  0
  7  2  1  0
  8  5  1  0
  9  8  1  0
 10  9  2  0
 11 10  1  0
 12 11  2  0
 13 12  1  0
 14  9  1  0
 14 13  2  0
 15  1  1  0
 17 16  2  0
 18 17  1  0
 19 18  2  0
 20 19  1  0
 20 15  1  0
 21 20  2  0
 21 16  1  0
 22 16  1  0
 23 22  2  0
 25 24  2  0
 25 22  1  0
 26 24  1  0
  1 27  1  0
  1 28  1  0
  2 29  1  0
  3 30  1  0
  3 31  1  0
  4 32  1  0
  4 33  1  0
  5 34  1  0
  6 35  1  0
  6 36  1  0
  7 37  1  0
  7 38  1  0
  8 39  1  0
  8 40  1  0
 10 41  1  0
 11 42  1  0
 12 43  1  0
 13 44  1  0
 14 45  1  0
 17 46  1  0
 18 47  1  0
 19 48  1  0
 25 49  1  0
 26 50  1  0
M  CHG  1   5   1
M  END
>  <score>  (2) 
-9.488

$$$$
=
     RDKit          3D

 50 52  0  0  0  0  0  0  0  0999 V2000
    0.3540   66.4020   69.2520 C   0  0  0  0  0  0  0  0  0  0  0  0
    1.1170   65.7330   70.4070 C   0  0  0  0  0  0  0  0  0  0  0  0
    2.3460   64.9710   69.8780 C   0  0  0  0  0  0  0  0  0  0  0  0
    2.7530   63.8490   70.8190 C   0  0  0  0  0  0  0  0  0  0  0  0
    1.6400   62.8190   70.9020 N   0  0  0  0  0  4  0  0  0  0  0  0
    0.2430   63.3820   70.7480 C   0  0  0  0  0  0  0  0  0  0  0  0
    0.1920   64.8220   71.2330 C   0  0  0  0  0  0  0  0  0  0  0  0
    1.7760   61.9210   72.1170 C   0  0  0  0  0  0  0  0  0  0  0  0
    2.2840   60.5460   71.7800 C   0  0  0  0  0  0  0  0  0  0  0  0
    3.1050   60.3430   70.6600 C   0  0  0  0  0  0  0  0  0  0  0  0
    3.5470   59.0610   70.3320 C   0  0  0  0  0  0  0  0  0  0  0  0
    3.1770   57.9720   71.1170 C   0  0  0  0  0  0  0  0  0  0  0  0
    2.3680   58.1610   72.2350 C   0  0  0  0  0  0  0  0  0  0  0  0
    1.9210   59.4410   72.5670 C   0  0  0  0  0  0  0  0  0  0  0  0
    0.7620   67.7680   69.1620 O   0  0  0  0  0  0  0  0  0  0  0  0
    2.1780   67.4880   65.8920 C   0  0  0  0  0  0  0  0  0  0  0  0
    3.0000   68.6060   65.8150 C   0  0  0  0  0  0  0  0  0  0  0  0
    3.0440   69.4650   66.9080 C   0  0  0  0  0  0  0  0  0  0  0  0
    2.2760   69.1770   68.0320 C   0  0  0  0  0  0  0  0  0  0  0  0
    1.4850   68.0380   68.0150 C   0  0  0  0  0  0  0  0  0  0  0  0
    1.4090   67.1910   66.9700 N   0  0  0  0  0  0  0  0  0  0  0  0
    2.1040   66.5490   64.7520 C   0  0  0  0  0  0  0  0  0  0  0  0
    1.2440   65.6880   64.6410 O   0  0  0  0  0  0  0  0  0  0  0  0
    4.1020   65.7640   63.6330 N   0  0  0  0  0  0  0  0  0  0  0  0
    3.1650   66.6530   63.7020 C   0  0  0  0  0  0  0  0  0  0  0  0
    4.9590   66.0880   62.5750 O   0  0  0  0  0  0  0  0  0  0  0  0
    0.5831   65.8847   68.3087 H   0  0  0  0  0  0  0  0  0  0  0  0
   -0.7289   66.3464   69.4372 H   0  0  0  0  0  0  0  0  0  0  0  0
    1.4792   66.5220   71.0825 H   0  0  0  0  0  0  0  0  0  0  0  0
    2.1047   64.5425   68.8941 H   0  0  0  0  0  0  0  0  0  0  0  0
    3.1845   65.6788   69.8017 H   0  0  0  0  0  0  0  0  0  0  0  0
    3.6676   63.3689   70.4410 H   0  0  0  0  0  0  0  0  0  0  0  0
    2.9395   64.2641   71.8204 H   0  0  0  0  0  0  0  0  0  0  0  0
    1.7695   62.2271   70.0691 H   0  0  0  0  0  0  0  0  0  0  0  0
   -0.0464   63.3469   69.6873 H   0  0  0  0  0  0  0  0  0  0  0  0
   -0.4517   62.7790   71.3511 H   0  0  0  0  0  0  0  0  0  0  0  0
   -0.8408   65.1908   71.1475 H   0  0  0  0  0  0  0  0  0  0  0  0
    0.5328   64.8443   72.2786 H   0  0  0  0  0  0  0  0  0  0  0  0
    2.4775   62.3903   72.8225 H   0  0  0  0  0  0  0  0  0  0  0  0
    0.7725   61.8027   72.5516 H   0  0  0  0  0  0  0  0  0  0  0  0
    3.4017   61.1997   70.0371 H   0  0  0  0  0  0  0  0  0  0  0  0
    4.1890   58.9102   69.4516 H   0  0  0  0  0  0  0  0  0  0  0  0
    3.5239   56.9618   70.8540 H   0  0  0  0  0  0  0  0  0  0  0  0
    2.0810   57.3004   72.8571 H   0  0  0  0  0  0  0  0  0  0  0  0
    1.2809   59.5850   73.4499 H   0  0  0  0  0  0  0  0  0  0  0  0
    3.5992   68.8060   64.9145 H   0  0  0  0  0  0  0  0  0  0  0  0
    3.6793   70.3627   66.8841 H   0  0  0  0  0  0  0  0  0  0  0  0
    2.2958   69.8364   68.9122 H   0  0  0  0  0  0  0  0  0  0  0  0
    3.1481   67.4883   62.9864 H   0  0  0  0  0  0  0  0  0  0  0  0
    5.7385   65.5114   62.3750 H   0  0  0  0  0  0  0  0  0  0  0  0
  2  1  1  0
  3  2  1  0
  4  3  1  0
  5  4  1  0
  6  5  1  0
  7  6  1  0
  7  2  1  0
  8  5  1  0
  9  8  1  0
 10  9  2  0
 11 10  1  0
 12 11  2  0
 13 12  1  0
 14  9  1  0
 14 13  2  0
 15  1  1  0
 17 16  2  0
 18 17  1  0
 19 18  2  0
 20 19  1  0
 20 15  1  0
 21 20  2  0
 21 16  1  0
 22 16  1  0
 23 22  2  0
 25 24  2  0
 25 22  1  0
 26 24  1  0
  1 27  1  0
  1 28  1  0
  2 29  1  0
  3 30  1  0
  3 31  1  0
  4 32  1  0
  4 33  1  0
  5 34  1  0
  6 35  1  0
  6 36  1  0
  7 37  1  0
  7 38  1  0
  8 39  1  0
  8 40  1  0
 10 41  1  0
 11 42  1  0
 12 43  1  0
 13 44  1  0
 14 45  1  0
 17 46  1  0
 18 47  1  0
 19 48  1  0
 25 49  1  0
 26 50  1  0
M  CHG  1   5   1
M  END
>  <score>  (3) 
-8.887

$$$$
=
     RDKit          3D

 50 52  0  0  0  0  0  0  0  0999 V2000
    0.8220   64.7630   70.4290 C   0  0  0  0  0  0  0  0  0  0  0  0
    1.9120   63.8260   70.9750 C   0  0  0  0  0  0  0  0  0  0  0  0
    3.3110   64.3180   70.5590 C   0  0  0  0  0  0  0  0  0  0  0  0
    4.3160   63.1790   70.5310 C   0  0  0  0  0  0  0  0  0  0  0  0
    3.9120   62.1630   69.4770 N   0  0  0  0  0  4  0  0  0  0  0  0
    2.4190   62.0300   69.2650 C   0  0  0  0  0  0  0  0  0  0  0  0
    1.6670   62.3710   70.5410 C   0  0  0  0  0  0  0  0  0  0  0  0
    4.5930   60.8230   69.6800 C   0  0  0  0  0  0  0  0  0  0  0  0
    4.1160   60.0990   70.9090 C   0  0  0  0  0  0  0  0  0  0  0  0
    4.5250   60.5160   72.1860 C   0  0  0  0  0  0  0  0  0  0  0  0
    4.1070   59.8220   73.3220 C   0  0  0  0  0  0  0  0  0  0  0  0
    3.2780   58.7100   73.1960 C   0  0  0  0  0  0  0  0  0  0  0  0
    2.8610   58.2900   71.9360 C   0  0  0  0  0  0  0  0  0  0  0  0
    3.2770   58.9790   70.7950 C   0  0  0  0  0  0  0  0  0  0  0  0
    1.4510   65.8750   69.7900 O   0  0  0  0  0  0  0  0  0  0  0  0
    0.3980   67.7150   66.9120 C   0  0  0  0  0  0  0  0  0  0  0  0
   -0.9870   67.6390   66.9860 C   0  0  0  0  0  0  0  0  0  0  0  0
   -1.5500   66.9280   68.0410 C   0  0  0  0  0  0  0  0  0  0  0  0
   -0.7150   66.3280   68.9800 C   0  0  0  0  0  0  0  0  0  0  0  0
    0.6560   66.4570   68.8200 C   0  0  0  0  0  0  0  0  0  0  0  0
    1.2350   67.1280   67.8050 N   0  0  0  0  0  0  0  0  0  0  0  0
    1.0360   68.4620   65.8060 C   0  0  0  0  0  0  0  0  0  0  0  0
    2.1420   68.9760   65.8870 O   0  0  0  0  0  0  0  0  0  0  0  0
    0.4980   67.8440   63.5280 N   0  0  0  0  0  0  0  0  0  0  0  0
    0.2560   68.6150   64.5370 C   0  0  0  0  0  0  0  0  0  0  0  0
   -0.3600   68.1890   62.4760 O   0  0  0  0  0  0  0  0  0  0  0  0
    0.1993   64.2218   69.7014 H   0  0  0  0  0  0  0  0  0  0  0  0
    0.1845   65.1160   71.2530 H   0  0  0  0  0  0  0  0  0  0  0  0
    1.8634   63.8468   72.0737 H   0  0  0  0  0  0  0  0  0  0  0  0
    3.2491   64.7649   69.5558 H   0  0  0  0  0  0  0  0  0  0  0  0
    3.6500   65.0594   71.2976 H   0  0  0  0  0  0  0  0  0  0  0  0
    5.3129   63.5773   70.2912 H   0  0  0  0  0  0  0  0  0  0  0  0
    4.3394   62.6907   71.5164 H   0  0  0  0  0  0  0  0  0  0  0  0
    4.2617   62.5528   68.5901 H   0  0  0  0  0  0  0  0  0  0  0  0
    2.1045   62.7165   68.4652 H   0  0  0  0  0  0  0  0  0  0  0  0
    2.1909   60.9910   68.9849 H   0  0  0  0  0  0  0  0  0  0  0  0
    0.5901   62.2269   70.3693 H   0  0  0  0  0  0  0  0  0  0  0  0
    2.0311   61.7091   71.3405 H   0  0  0  0  0  0  0  0  0  0  0  0
    4.3924   60.1917   68.8018 H   0  0  0  0  0  0  0  0  0  0  0  0
    5.6678   61.0177   69.8104 H   0  0  0  0  0  0  0  0  0  0  0  0
    5.1785   61.3946   72.2913 H   0  0  0  0  0  0  0  0  0  0  0  0
    4.4328   60.1538   74.3189 H   0  0  0  0  0  0  0  0  0  0  0  0
    2.9524   58.1630   74.0931 H   0  0  0  0  0  0  0  0  0  0  0  0
    2.2028   57.4140   71.8391 H   0  0  0  0  0  0  0  0  0  0  0  0
    2.9456   58.6425   69.8015 H   0  0  0  0  0  0  0  0  0  0  0  0
   -1.6210   68.1274   66.2314 H   0  0  0  0  0  0  0  0  0  0  0  0
   -2.6427   66.8408   68.1324 H   0  0  0  0  0  0  0  0  0  0  0  0
   -1.1329   65.7655   69.8279 H   0  0  0  0  0  0  0  0  0  0  0  0
   -0.5253   69.3858   64.4631 H   0  0  0  0  0  0  0  0  0  0  0  0
   -0.3133   67.6978   61.6177 H   0  0  0  0  0  0  0  0  0  0  0  0
  2  1  1  0
  3  2  1  0
  4  3  1  0
  5  4  1  0
  6  5  1  0
  7  6  1  0
  7  2  1  0
  8  5  1  0
  9  8  1  0
 10  9  2  0
 11 10  1  0
 12 11  2  0
 13 12  1  0
 14  9  1  0
 14 13  2  0
 15  1  1  0
 17 16  2  0
 18 17  1  0
 19 18  2  0
 20 19  1  0
 20 15  1  0
 21 20  2  0
 21 16  1  0
 22 16  1  0
 23 22  2  0
 25 24  2  0
 25 22  1  0
 26 24  1  0
  1 27  1  0
  1 28  1  0
  2 29  1  0
  3 30  1  0
  3 31  1  0
  4 32  1  0
  4 33  1  0
  5 34  1  0
  6 35  1  0
  6 36  1  0
  7 37  1  0
  7 38  1  0
  8 39  1  0
  8 40  1  0
 10 41  1  0
 11 42  1  0
 12 43  1  0
 13 44  1  0
 14 45  1  0
 17 46  1  0
 18 47  1  0
 19 48  1  0
 25 49  1  0
 26 50  1  0
M  CHG  1   5   1
M  END
>  <score>  (4) 
-8.517

$$$$
=
     RDKit          3D

 50 52  0  0  0  0  0  0  0  0999 V2000
    3.9550   67.3940   61.8920 C   0  0  0  0  0  0  0  0  0  0  0  0
    5.1940   67.9500   62.6110 C   0  0  0  0  0  0  0  0  0  0  0  0
    5.4350   67.2030   63.9370 C   0  0  0  0  0  0  0  0  0  0  0  0
    6.2090   68.0590   64.9250 C   0  0  0  0  0  0  0  0  0  0  0  0
    5.3930   69.2860   65.2930 N   0  0  0  0  0  4  0  0  0  0  0  0
    4.4950   69.8040   64.1880 C   0  0  0  0  0  0  0  0  0  0  0  0
    5.0800   69.4700   62.8260 C   0  0  0  0  0  0  0  0  0  0  0  0
    6.2440   70.3790   65.9120 C   0  0  0  0  0  0  0  0  0  0  0  0
    6.0610   70.4970   67.4000 C   0  0  0  0  0  0  0  0  0  0  0  0
    7.1720   70.6400   68.2460 C   0  0  0  0  0  0  0  0  0  0  0  0
    7.0000   70.7160   69.6290 C   0  0  0  0  0  0  0  0  0  0  0  0
    5.7230   70.6520   70.1790 C   0  0  0  0  0  0  0  0  0  0  0  0
    4.6120   70.5160   69.3500 C   0  0  0  0  0  0  0  0  0  0  0  0
    4.7770   70.4370   67.9660 C   0  0  0  0  0  0  0  0  0  0  0  0
    3.1320   66.7220   62.8470 O   0  0  0  0  0  0  0  0  0  0  0  0
    0.5780   68.1140   64.9230 C   0  0  0  0  0  0  0  0  0  0  0  0
   -0.0410   69.0300   64.0800 C   0  0  0  0  0  0  0  0  0  0  0  0
    0.4510   69.1670   62.7870 C   0  0  0  0  0  0  0  0  0  0  0  0
    1.5310   68.3870   62.3820 C   0  0  0  0  0  0  0  0  0  0  0  0
    2.0830   67.5020   63.2960 C   0  0  0  0  0  0  0  0  0  0  0  0
    1.6390   67.3520   64.5590 N   0  0  0  0  0  0  0  0  0  0  0  0
    0.0840   67.9380   66.3060 C   0  0  0  0  0  0  0  0  0  0  0  0
   -0.4040   66.8970   66.7220 O   0  0  0  0  0  0  0  0  0  0  0  0
    1.3010   69.4740   67.7270 N   0  0  0  0  0  0  0  0  0  0  0  0
    0.1650   69.1180   67.2240 C   0  0  0  0  0  0  0  0  0  0  0  0
    1.1060   70.5960   68.5420 O   0  0  0  0  0  0  0  0  0  0  0  0
    3.3912   68.2202   61.4343 H   0  0  0  0  0  0  0  0  0  0  0  0
    4.2638   66.6912   61.1041 H   0  0  0  0  0  0  0  0  0  0  0  0
    6.0695   67.7797   61.9673 H   0  0  0  0  0  0  0  0  0  0  0  0
    4.4635   66.9367   64.3790 H   0  0  0  0  0  0  0  0  0  0  0  0
    6.0278   66.3015   63.7227 H   0  0  0  0  0  0  0  0  0  0  0  0
    6.4159   67.4726   65.8323 H   0  0  0  0  0  0  0  0  0  0  0  0
    7.1562   68.3775   64.4652 H   0  0  0  0  0  0  0  0  0  0  0  0
    4.7411   68.9579   66.0198 H   0  0  0  0  0  0  0  0  0  0  0  0
    3.5027   69.3383   64.2798 H   0  0  0  0  0  0  0  0  0  0  0  0
    4.4112   70.8969   64.2808 H   0  0  0  0  0  0  0  0  0  0  0  0
    4.4298   69.8924   62.0457 H   0  0  0  0  0  0  0  0  0  0  0  0
    6.0911   69.9000   62.7729 H   0  0  0  0  0  0  0  0  0  0  0  0
    7.3017   70.1584   65.7057 H   0  0  0  0  0  0  0  0  0  0  0  0
    5.9279   71.3334   65.4657 H   0  0  0  0  0  0  0  0  0  0  0  0
    8.1834   70.6924   67.8167 H   0  0  0  0  0  0  0  0  0  0  0  0
    7.8755   70.8267   70.2857 H   0  0  0  0  0  0  0  0  0  0  0  0
    5.5910   70.7089   71.2696 H   0  0  0  0  0  0  0  0  0  0  0  0
    3.6033   70.4708   69.7864 H   0  0  0  0  0  0  0  0  0  0  0  0
    3.8968   70.3272   67.3154 H   0  0  0  0  0  0  0  0  0  0  0  0
   -0.8959   69.6294   64.4263 H   0  0  0  0  0  0  0  0  0  0  0  0
   -0.0082   69.8843   62.0909 H   0  0  0  0  0  0  0  0  0  0  0  0
    1.9362   68.4707   61.3628 H   0  0  0  0  0  0  0  0  0  0  0  0
   -0.7454   69.6838   67.4711 H   0  0  0  0  0  0  0  0  0  0  0  0
    1.8749   71.0064   69.0115 H   0  0  0  0  0  0  0  0  0  0  0  0
  2  1  1  0
  3  2  1  0
  4  3  1  0
  5  4  1  0
  6  5  1  0
  7  6  1  0
  7  2  1  0
  8  5  1  0
  9  8  1  0
 10  9  2  0
 11 10  1  0
 12 11  2  0
 13 12  1  0
 14  9  1  0
 14 13  2  0
 15  1  1  0
 17 16  2  0
 18 17  1  0
 19 18  2  0
 20 19  1  0
 20 15  1  0
 21 20  2  0
 21 16  1  0
 22 16  1  0
 23 22  2  0
 25 24  2  0
 25 22  1  0
 26 24  1  0
  1 27  1  0
  1 28  1  0
  2 29  1  0
  3 30  1  0
  3 31  1  0
  4 32  1  0
  4 33  1  0
  5 34  1  0
  6 35  1  0
  6 36  1  0
  7 37  1  0
  7 38  1  0
  8 39  1  0
  8 40  1  0
 10 41  1  0
 11 42  1  0
 12 43  1  0
 13 44  1  0
 14 45  1  0
 17 46  1  0
 18 47  1  0
 19 48  1  0
 25 49  1  0
 26 50  1  0
M  CHG  1   5   1
M  END
>  <score>  (5) 
-8.515

$$$$
=
     RDKit          3D

 50 52  0  0  0  0  0  0  0  0999 V2000
    0.9430   66.4070   69.9680 C   0  0  0  0  0  0  0  0  0  0  0  0
    0.5330   65.0000   70.4340 C   0  0  0  0  0  0  0  0  0  0  0  0
    0.0600   65.0290   71.8990 C   0  0  0  0  0  0  0  0  0  0  0  0
    0.2290   63.6740   72.5650 C   0  0  0  0  0  0  0  0  0  0  0  0
    1.7020   63.3090   72.6210 N   0  0  0  0  0  4  0  0  0  0  0  0
    2.5300   63.8380   71.4680 C   0  0  0  0  0  0  0  0  0  0  0  0
    1.6730   63.9880   70.2220 C   0  0  0  0  0  0  0  0  0  0  0  0
    1.9200   61.8270   72.8620 C   0  0  0  0  0  0  0  0  0  0  0  0
    3.0750   61.2660   72.0790 C   0  0  0  0  0  0  0  0  0  0  0  0
    4.3930   61.4420   72.5270 C   0  0  0  0  0  0  0  0  0  0  0  0
    5.4640   60.9490   71.7800 C   0  0  0  0  0  0  0  0  0  0  0  0
    5.2300   60.2750   70.5840 C   0  0  0  0  0  0  0  0  0  0  0  0
    3.9260   60.0880   70.1320 C   0  0  0  0  0  0  0  0  0  0  0  0
    2.8510   60.5810   70.8740 C   0  0  0  0  0  0  0  0  0  0  0  0
    0.2060   66.7330   68.7880 O   0  0  0  0  0  0  0  0  0  0  0  0
    1.6290   68.0610   65.7910 C   0  0  0  0  0  0  0  0  0  0  0  0
    2.4100   69.1110   66.2590 C   0  0  0  0  0  0  0  0  0  0  0  0
    2.4240   69.3600   67.6270 C   0  0  0  0  0  0  0  0  0  0  0  0
    1.6680   68.5540   68.4740 C   0  0  0  0  0  0  0  0  0  0  0  0
    0.9180   67.5310   67.9130 C   0  0  0  0  0  0  0  0  0  0  0  0
    0.8720   67.2700   66.5920 N   0  0  0  0  0  0  0  0  0  0  0  0
    1.5870   67.7640   64.3430 C   0  0  0  0  0  0  0  0  0  0  0  0
    2.0800   66.7620   63.8450 O   0  0  0  0  0  0  0  0  0  0  0  0
   -0.3550   68.7720   63.3070 N   0  0  0  0  0  0  0  0  0  0  0  0
    0.9300   68.7700   63.4500 C   0  0  0  0  0  0  0  0  0  0  0  0
   -0.7130   69.8020   62.4290 O   0  0  0  0  0  0  0  0  0  0  0  0
    0.7185   67.1385   70.7583 H   0  0  0  0  0  0  0  0  0  0  0  0
    2.0217   66.4308   69.7540 H   0  0  0  0  0  0  0  0  0  0  0  0
   -0.3137   64.6659   69.8164 H   0  0  0  0  0  0  0  0  0  0  0  0
    0.6510   65.7748   72.4508 H   0  0  0  0  0  0  0  0  0  0  0  0
   -1.0087   65.2892   71.9118 H   0  0  0  0  0  0  0  0  0  0  0  0
   -0.1760   63.7162   73.5869 H   0  0  0  0  0  0  0  0  0  0  0  0
   -0.3120   62.9132   71.9833 H   0  0  0  0  0  0  0  0  0  0  0  0
    2.0631   63.8088   73.4460 H   0  0  0  0  0  0  0  0  0  0  0  0
    2.9462   64.8189   71.7413 H   0  0  0  0  0  0  0  0  0  0  0  0
    3.3422   63.1267   71.2576 H   0  0  0  0  0  0  0  0  0  0  0  0
    2.3073   64.3340   69.3926 H   0  0  0  0  0  0  0  0  0  0  0  0
    1.2251   63.0096   69.9939 H   0  0  0  0  0  0  0  0  0  0  0  0
    2.1148   61.6714   73.9334 H   0  0  0  0  0  0  0  0  0  0  0  0
    1.0121   61.3032   72.5283 H   0  0  0  0  0  0  0  0  0  0  0  0
    4.5833   61.9715   73.4722 H   0  0  0  0  0  0  0  0  0  0  0  0
    6.4946   61.0931   72.1365 H   0  0  0  0  0  0  0  0  0  0  0  0
    6.0760   59.8899   69.9957 H   0  0  0  0  0  0  0  0  0  0  0  0
    3.7429   59.5513   69.1894 H   0  0  0  0  0  0  0  0  0  0  0  0
    1.8228   60.4319   70.5126 H   0  0  0  0  0  0  0  0  0  0  0  0
    3.0009   69.7282   65.5662 H   0  0  0  0  0  0  0  0  0  0  0  0
    3.0260   70.1850   68.0357 H   0  0  0  0  0  0  0  0  0  0  0  0
    1.6656   68.7243   69.5607 H   0  0  0  0  0  0  0  0  0  0  0  0
    1.5425   69.5099   62.9138 H   0  0  0  0  0  0  0  0  0  0  0  0
   -1.6652   69.9511   62.2029 H   0  0  0  0  0  0  0  0  0  0  0  0
  2  1  1  0
  3  2  1  0
  4  3  1  0
  5  4  1  0
  6  5  1  0
  7  6  1  0
  7  2  1  0
  8  5  1  0
  9  8  1  0
 10  9  2  0
 11 10  1  0
 12 11  2  0
 13 12  1  0
 14  9  1  0
 14 13  2  0
 15  1  1  0
 17 16  2  0
 18 17  1  0
 19 18  2  0
 20 19  1  0
 20 15  1  0
 21 20  2  0
 21 16  1  0
 22 16  1  0
 23 22  2  0
 25 24  2  0
 25 22  1  0
 26 24  1  0
  1 27  1  0
  1 28  1  0
  2 29  1  0
  3 30  1  0
  3 31  1  0
  4 32  1  0
  4 33  1  0
  5 34  1  0
  6 35  1  0
  6 36  1  0
  7 37  1  0
  7 38  1  0
  8 39  1  0
  8 40  1  0
 10 41  1  0
 11 42  1  0
 12 43  1  0
 13 44  1  0
 14 45  1  0
 17 46  1  0
 18 47  1  0
 19 48  1  0
 25 49  1  0
 26 50  1  0
M  CHG  1   5   1
M  END
>  <score>  (6) 
-8.441

$$$$
=
     RDKit          3D

 50 52  0  0  0  0  0  0  0  0999 V2000
    1.4950   65.4030   70.2740 C   0  0  0  0  0  0  0  0  0  0  0  0
    1.6720   63.8760   70.2680 C   0  0  0  0  0  0  0  0  0  0  0  0
    1.5320   63.3070   71.6930 C   0  0  0  0  0  0  0  0  0  0  0  0
    2.2680   61.9860   71.8400 C   0  0  0  0  0  0  0  0  0  0  0  0
    3.7570   62.2020   71.6330 N   0  0  0  0  0  4  0  0  0  0  0  0
    4.1080   63.3060   70.6590 C   0  0  0  0  0  0  0  0  0  0  0  0
    3.0090   63.4710   69.6220 C   0  0  0  0  0  0  0  0  0  0  0  0
    4.4900   60.9070   71.3350 C   0  0  0  0  0  0  0  0  0  0  0  0
    3.7560   59.6880   71.8240 C   0  0  0  0  0  0  0  0  0  0  0  0
    3.3330   58.7010   70.9200 C   0  0  0  0  0  0  0  0  0  0  0  0
    2.6240   57.5870   71.3720 C   0  0  0  0  0  0  0  0  0  0  0  0
    2.3330   57.4480   72.7270 C   0  0  0  0  0  0  0  0  0  0  0  0
    2.7530   58.4170   73.6350 C   0  0  0  0  0  0  0  0  0  0  0  0
    3.4610   59.5340   73.1870 C   0  0  0  0  0  0  0  0  0  0  0  0
    0.1500   65.7110   69.9030 O   0  0  0  0  0  0  0  0  0  0  0  0
    0.9730   68.3990   67.6970 C   0  0  0  0  0  0  0  0  0  0  0  0
   -0.1870   68.5500   66.9460 C   0  0  0  0  0  0  0  0  0  0  0  0
   -1.2530   67.6950   67.2080 C   0  0  0  0  0  0  0  0  0  0  0  0
   -1.1250   66.7320   68.2060 C   0  0  0  0  0  0  0  0  0  0  0  0
    0.0730   66.6570   68.8990 C   0  0  0  0  0  0  0  0  0  0  0  0
    1.1290   67.4600   68.6640 N   0  0  0  0  0  0  0  0  0  0  0  0
    2.1290   69.2880   67.4500 C   0  0  0  0  0  0  0  0  0  0  0  0
    2.6690   69.4070   66.3590 O   0  0  0  0  0  0  0  0  0  0  0  0
    3.9510   70.2280   68.7370 N   0  0  0  0  0  0  0  0  0  0  0  0
    2.6760   70.0490   68.6170 C   0  0  0  0  0  0  0  0  0  0  0  0
    4.1970   70.9650   69.9020 O   0  0  0  0  0  0  0  0  0  0  0  0
    1.7000   65.7952   71.2811 H   0  0  0  0  0  0  0  0  0  0  0  0
    2.1947   65.8636   69.5611 H   0  0  0  0  0  0  0  0  0  0  0  0
    0.8712   63.4398   69.6528 H   0  0  0  0  0  0  0  0  0  0  0  0
    1.9492   64.0302   72.4092 H   0  0  0  0  0  0  0  0  0  0  0  0
    0.4644   63.1311   71.8910 H   0  0  0  0  0  0  0  0  0  0  0  0
    2.0942   61.5811   72.8479 H   0  0  0  0  0  0  0  0  0  0  0  0
    1.8953   61.2763   71.0867 H   0  0  0  0  0  0  0  0  0  0  0  0
    4.0998   62.5456   72.5415 H   0  0  0  0  0  0  0  0  0  0  0  0
    4.2299   64.2499   71.2105 H   0  0  0  0  0  0  0  0  0  0  0  0
    5.0446   63.0428   70.1457 H   0  0  0  0  0  0  0  0  0  0  0  0
    3.3091   64.2499   68.9056 H   0  0  0  0  0  0  0  0  0  0  0  0
    2.8665   62.5042   69.1170 H   0  0  0  0  0  0  0  0  0  0  0  0
    4.6230   60.8224   70.2464 H   0  0  0  0  0  0  0  0  0  0  0  0
    5.4528   60.9452   71.8655 H   0  0  0  0  0  0  0  0  0  0  0  0
    3.5616   58.8061   69.8492 H   0  0  0  0  0  0  0  0  0  0  0  0
    2.2948   56.8182   70.6575 H   0  0  0  0  0  0  0  0  0  0  0  0
    1.7705   56.5714   73.0806 H   0  0  0  0  0  0  0  0  0  0  0  0
    2.5269   58.3023   74.7054 H   0  0  0  0  0  0  0  0  0  0  0  0
    3.7895   60.2979   73.9071 H   0  0  0  0  0  0  0  0  0  0  0  0
   -0.2601   69.3232   66.1670 H   0  0  0  0  0  0  0  0  0  0  0  0
   -2.1870   67.7788   66.6330 H   0  0  0  0  0  0  0  0  0  0  0  0
   -1.9543   66.0478   68.4385 H   0  0  0  0  0  0  0  0  0  0  0  0
    1.9913   70.4573   69.3749 H   0  0  0  0  0  0  0  0  0  0  0  0
    5.1258   71.1968   70.1542 H   0  0  0  0  0  0  0  0  0  0  0  0
  2  1  1  0
  3  2  1  0
  4  3  1  0
  5  4  1  0
  6  5  1  0
  7  6  1  0
  7  2  1  0
  8  5  1  0
  9  8  1  0
 10  9  2  0
 11 10  1  0
 12 11  2  0
 13 12  1  0
 14  9  1  0
 14 13  2  0
 15  1  1  0
 17 16  2  0
 18 17  1  0
 19 18  2  0
 20 19  1  0
 20 15  1  0
 21 20  2  0
 21 16  1  0
 22 16  1  0
 23 22  2  0
 25 24  2  0
 25 22  1  0
 26 24  1  0
  1 27  1  0
  1 28  1  0
  2 29  1  0
  3 30  1  0
  3 31  1  0
  4 32  1  0
  4 33  1  0
  5 34  1  0
  6 35  1  0
  6 36  1  0
  7 37  1  0
  7 38  1  0
  8 39  1  0
  8 40  1  0
 10 41  1  0
 11 42  1  0
 12 43  1  0
 13 44  1  0
 14 45  1  0
 17 46  1  0
 18 47  1  0
 19 48  1  0
 25 49  1  0
 26 50  1  0
M  CHG  1   5   1
M  END
>  <score>  (7) 
-8.183

$$$$
=
     RDKit          3D

 50 52  0  0  0  0  0  0  0  0999 V2000
    1.4280   65.8360   70.2770 C   0  0  0  0  0  0  0  0  0  0  0  0
    1.3840   64.3000   70.2480 C   0  0  0  0  0  0  0  0  0  0  0  0
    1.1520   63.7350   71.6630 C   0  0  0  0  0  0  0  0  0  0  0  0
    1.6900   62.3200   71.7920 C   0  0  0  0  0  0  0  0  0  0  0  0
    3.1960   62.3230   71.5970 N   0  0  0  0  0  4  0  0  0  0  0  0
    3.7100   63.3810   70.6420 C   0  0  0  0  0  0  0  0  0  0  0  0
    2.6530   63.7170   69.6020 C   0  0  0  0  0  0  0  0  0  0  0  0
    3.7380   60.9420   71.2820 C   0  0  0  0  0  0  0  0  0  0  0  0
    3.4130   59.9250   72.3420 C   0  0  0  0  0  0  0  0  0  0  0  0
    2.4250   58.9520   72.1180 C   0  0  0  0  0  0  0  0  0  0  0  0
    2.1040   58.0320   73.1160 C   0  0  0  0  0  0  0  0  0  0  0  0
    2.7630   58.0710   74.3420 C   0  0  0  0  0  0  0  0  0  0  0  0
    3.7480   59.0260   74.5740 C   0  0  0  0  0  0  0  0  0  0  0  0
    4.0740   59.9510   73.5800 C   0  0  0  0  0  0  0  0  0  0  0  0
    0.4480   66.3410   69.3680 O   0  0  0  0  0  0  0  0  0  0  0  0
    1.3940   67.8510   66.2700 C   0  0  0  0  0  0  0  0  0  0  0  0
    2.1140   68.9680   66.6770 C   0  0  0  0  0  0  0  0  0  0  0  0
    2.2530   69.1960   68.0420 C   0  0  0  0  0  0  0  0  0  0  0  0
    1.6780   68.3050   68.9440 C   0  0  0  0  0  0  0  0  0  0  0  0
    0.9770   67.2200   68.4420 C   0  0  0  0  0  0  0  0  0  0  0  0
    0.8120   66.9740   67.1270 N   0  0  0  0  0  0  0  0  0  0  0  0
    1.2230   67.5720   64.8270 C   0  0  0  0  0  0  0  0  0  0  0  0
    1.4650   66.4880   64.3160 O   0  0  0  0  0  0  0  0  0  0  0  0
   -0.3580   68.6050   63.3130 N   0  0  0  0  0  0  0  0  0  0  0  0
    0.7600   68.6980   63.9570 C   0  0  0  0  0  0  0  0  0  0  0  0
   -0.5580   69.7810   62.5800 O   0  0  0  0  0  0  0  0  0  0  0  0
    1.2082   66.1932   71.2939 H   0  0  0  0  0  0  0  0  0  0  0  0
    2.4279   66.1873   69.9824 H   0  0  0  0  0  0  0  0  0  0  0  0
    0.5333   63.9927   69.6220 H   0  0  0  0  0  0  0  0  0  0  0  0
    1.6626   64.3796   72.3936 H   0  0  0  0  0  0  0  0  0  0  0  0
    0.0686   63.7112   71.8521 H   0  0  0  0  0  0  0  0  0  0  0  0
    1.4520   61.9285   72.7920 H   0  0  0  0  0  0  0  0  0  0  0  0
    1.2255   61.6833   71.0247 H   0  0  0  0  0  0  0  0  0  0  0  0
    3.5770   62.5996   72.5131 H   0  0  0  0  0  0  0  0  0  0  0  0
    3.9617   64.2893   71.2091 H   0  0  0  0  0  0  0  0  0  0  0  0
    4.6035   62.9946   70.1298 H   0  0  0  0  0  0  0  0  0  0  0  0
    3.0665   64.4552   68.8991 H   0  0  0  0  0  0  0  0  0  0  0  0
    2.3770   62.7882   69.0812 H   0  0  0  0  0  0  0  0  0  0  0  0
    3.3048   60.6049   70.3287 H   0  0  0  0  0  0  0  0  0  0  0  0
    4.8338   61.0234   71.2303 H   0  0  0  0  0  0  0  0  0  0  0  0
    1.9020   58.9154   71.1510 H   0  0  0  0  0  0  0  0  0  0  0  0
    1.3282   57.2737   72.9341 H   0  0  0  0  0  0  0  0  0  0  0  0
    2.5046   57.3461   75.1279 H   0  0  0  0  0  0  0  0  0  0  0  0
    4.2705   59.0524   75.5416 H   0  0  0  0  0  0  0  0  0  0  0  0
    4.8532   60.7043   73.7682 H   0  0  0  0  0  0  0  0  0  0  0  0
    2.5611   69.6521   65.9407 H   0  0  0  0  0  0  0  0  0  0  0  0
    2.8115   70.0713   68.4051 H   0  0  0  0  0  0  0  0  0  0  0  0
    1.7776   68.4584   70.0287 H   0  0  0  0  0  0  0  0  0  0  0  0
    1.3721   69.6073   63.8648 H   0  0  0  0  0  0  0  0  0  0  0  0
   -1.3700   69.8852   62.0233 H   0  0  0  0  0  0  0  0  0  0  0  0
  2  1  1  0
  3  2  1  0
  4  3  1  0
  5  4  1  0
  6  5  1  0
  7  6  1  0
  7  2  1  0
  8  5  1  0
  9  8  1  0
 10  9  2  0
 11 10  1  0
 12 11  2  0
 13 12  1  0
 14  9  1  0
 14 13  2  0
 15  1  1  0
 17 16  2  0
 18 17  1  0
 19 18  2  0
 20 19  1  0
 20 15  1  0
 21 20  2  0
 21 16  1  0
 22 16  1  0
 23 22  2  0
 25 24  2  0
 25 22  1  0
 26 24  1  0
  1 27  1  0
  1 28  1  0
  2 29  1  0
  3 30  1  0
  3 31  1  0
  4 32  1  0
  4 33  1  0
  5 34  1  0
  6 35  1  0
  6 36  1  0
  7 37  1  0
  7 38  1  0
  8 39  1  0
  8 40  1  0
 10 41  1  0
 11 42  1  0
 12 43  1  0
 13 44  1  0
 14 45  1  0
 17 46  1  0
 18 47  1  0
 19 48  1  0
 25 49  1  0
 26 50  1  0
M  CHG  1   5   1
M  END
>  <score>  (8) 
-8.152

$$$$
=
     RDKit          3D

 50 52  0  0  0  0  0  0  0  0999 V2000
    1.0550   65.4750   70.3570 C   0  0  0  0  0  0  0  0  0  0  0  0
    1.0390   63.9400   70.2820 C   0  0  0  0  0  0  0  0  0  0  0  0
    0.3160   63.3430   71.5050 C   0  0  0  0  0  0  0  0  0  0  0  0
    0.7850   61.9270   71.7910 C   0  0  0  0  0  0  0  0  0  0  0  0
    2.2590   61.9360   72.1550 N   0  0  0  0  0  4  0  0  0  0  0  0
    3.0730   63.0150   71.4730 C   0  0  0  0  0  0  0  0  0  0  0  0
    2.4620   63.3740   70.1280 C   0  0  0  0  0  0  0  0  0  0  0  0
    2.8910   60.5630   72.0300 C   0  0  0  0  0  0  0  0  0  0  0  0
    2.0450   59.4670   72.6190 C   0  0  0  0  0  0  0  0  0  0  0  0
    2.3260   58.1210   72.3390 C   0  0  0  0  0  0  0  0  0  0  0  0
    1.5180   57.1090   72.8600 C   0  0  0  0  0  0  0  0  0  0  0  0
    0.4280   57.4300   73.6650 C   0  0  0  0  0  0  0  0  0  0  0  0
    0.1430   58.7610   73.9550 C   0  0  0  0  0  0  0  0  0  0  0  0
    0.9450   59.7780   73.4350 C   0  0  0  0  0  0  0  0  0  0  0  0
   -0.0380   65.9830   69.5890 O   0  0  0  0  0  0  0  0  0  0  0  0
   -0.0190   68.3330   66.8970 C   0  0  0  0  0  0  0  0  0  0  0  0
    1.1610   69.0370   67.1100 C   0  0  0  0  0  0  0  0  0  0  0  0
    1.9410   68.6940   68.2090 C   0  0  0  0  0  0  0  0  0  0  0  0
    1.5210   67.6640   69.0470 C   0  0  0  0  0  0  0  0  0  0  0  0
    0.3280   67.0210   68.7530 C   0  0  0  0  0  0  0  0  0  0  0  0
   -0.4570   67.3350   67.7050 N   0  0  0  0  0  0  0  0  0  0  0  0
   -0.8760   68.6680   65.7390 C   0  0  0  0  0  0  0  0  0  0  0  0
   -0.4720   68.6940   64.5850 O   0  0  0  0  0  0  0  0  0  0  0  0
   -3.2410   68.1570   65.8070 N   0  0  0  0  0  0  0  0  0  0  0  0
   -2.3030   69.0220   66.0160 C   0  0  0  0  0  0  0  0  0  0  0  0
   -4.4730   68.7310   66.1430 O   0  0  0  0  0  0  0  0  0  0  0  0
    0.9520   65.7955   71.4042 H   0  0  0  0  0  0  0  0  0  0  0  0
    2.0047   65.8598   69.9571 H   0  0  0  0  0  0  0  0  0  0  0  0
    0.4757   63.6454   69.3843 H   0  0  0  0  0  0  0  0  0  0  0  0
    0.5209   63.9720   72.3838 H   0  0  0  0  0  0  0  0  0  0  0  0
   -0.7621   63.3129   71.2885 H   0  0  0  0  0  0  0  0  0  0  0  0
    0.2047   61.5125   72.6285 H   0  0  0  0  0  0  0  0  0  0  0  0
    0.6366   61.3076   70.8942 H   0  0  0  0  0  0  0  0  0  0  0  0
    2.2802   62.1922   73.1524 H   0  0  0  0  0  0  0  0  0  0  0  0
    3.0939   63.9105   72.1115 H   0  0  0  0  0  0  0  0  0  0  0  0
    4.0945   62.6405   71.3107 H   0  0  0  0  0  0  0  0  0  0  0  0
    3.0950   64.1291   69.6391 H   0  0  0  0  0  0  0  0  0  0  0  0
    2.4028   62.4574   69.5227 H   0  0  0  0  0  0  0  0  0  0  0  0
    3.0505   60.3470   70.9633 H   0  0  0  0  0  0  0  0  0  0  0  0
    3.8363   60.5851   72.5920 H   0  0  0  0  0  0  0  0  0  0  0  0
    3.1874   57.8621   71.7057 H   0  0  0  0  0  0  0  0  0  0  0  0
    1.7427   56.0561   72.6343 H   0  0  0  0  0  0  0  0  0  0  0  0
   -0.2085   56.6306   74.0722 H   0  0  0  0  0  0  0  0  0  0  0  0
   -0.7157   59.0119   74.5951 H   0  0  0  0  0  0  0  0  0  0  0  0
    0.7144   60.8286   73.6655 H   0  0  0  0  0  0  0  0  0  0  0  0
    1.4691   69.8431   66.4279 H   0  0  0  0  0  0  0  0  0  0  0  0
    2.8793   69.2303   68.4141 H   0  0  0  0  0  0  0  0  0  0  0  0
    2.1206   67.3679   69.9204 H   0  0  0  0  0  0  0  0  0  0  0  0
   -2.5551   70.0219   66.3989 H   0  0  0  0  0  0  0  0  0  0  0  0
   -5.3068   68.2064   66.0444 H   0  0  0  0  0  0  0  0  0  0  0  0
  2  1  1  0
  3  2  1  0
  4  3  1  0
  5  4  1  0
  6  5  1  0
  7  6  1  0
  7  2  1  0
  8  5  1  0
  9  8  1  0
 10  9  2  0
 11 10  1  0
 12 11  2  0
 13 12  1  0
 14  9  1  0
 14 13  2  0
 15  1  1  0
 17 16  2  0
 18 17  1  0
 19 18  2  0
 20 19  1  0
 20 15  1  0
 21 20  2  0
 21 16  1  0
 22 16  1  0
 23 22  2  0
 25 24  2  0
 25 22  1  0
 26 24  1  0
  1 27  1  0
  1 28  1  0
  2 29  1  0
  3 30  1  0
  3 31  1  0
  4 32  1  0
  4 33  1  0
  5 34  1  0
  6 35  1  0
  6 36  1  0
  7 37  1  0
  7 38  1  0
  8 39  1  0
  8 40  1  0
 10 41  1  0
 11 42  1  0
 12 43  1  0
 13 44  1  0
 14 45  1  0
 17 46  1  0
 18 47  1  0
 19 48  1  0
 25 49  1  0
 26 50  1  0
M  CHG  1   5   1
M  END
>  <score>  (9) 
-7.967

$$$$
