=
     RDKit          3D

 26 27  0  0  0  0  0  0  0  0999 V2000
    2.5480   68.7260   65.4610 C   0  0  0  0  0  0  0  0  0  0  0  0
    2.4650   69.1440   64.3100 O   0  0  0  0  0  0  0  0  0  0  0  0
    6.8890   71.2480   68.8120 Cl  0  0  0  0  0  0  0  0  0  0  0  0
    5.6360   70.5320   67.8780 C   0  0  0  0  0  0  0  0  0  0  0  0
    5.8870   70.1310   66.5710 C   0  0  0  0  0  0  0  0  0  0  0  0
    4.8620   69.5490   65.8160 C   0  0  0  0  0  0  0  0  0  0  0  0
    3.5730   69.3590   66.3550 C   0  0  0  0  0  0  0  0  0  0  0  0
    3.3450   69.7710   67.6730 C   0  0  0  0  0  0  0  0  0  0  0  0
    4.3710   70.3540   68.4300 C   0  0  0  0  0  0  0  0  0  0  0  0
    1.6160   67.5980   65.9180 C   0  0  0  0  0  0  0  0  0  0  0  0
    2.0680   66.4620   66.0350 O   0  0  0  0  0  0  0  0  0  0  0  0
    0.1650   67.8050   66.2330 C   0  0  0  0  0  0  0  0  0  0  0  0
   -0.3890   67.0110   67.2550 C   0  0  0  0  0  0  0  0  0  0  0  0
   -1.7320   67.1320   67.6220 C   0  0  0  0  0  0  0  0  0  0  0  0
   -2.5480   68.0510   66.9710 C   0  0  0  0  0  0  0  0  0  0  0  0
   -2.0190   68.8450   65.9570 C   0  0  0  0  0  0  0  0  0  0  0  0
   -0.6720   68.7240   65.5900 C   0  0  0  0  0  0  0  0  0  0  0  0
    6.8860   70.2703   66.1322 H   0  0  0  0  0  0  0  0  0  0  0  0
    5.0661   69.2337   64.7821 H   0  0  0  0  0  0  0  0  0  0  0  0
    2.3491   69.6358   68.1202 H   0  0  0  0  0  0  0  0  0  0  0  0
    4.1752   70.6721   69.4647 H   0  0  0  0  0  0  0  0  0  0  0  0
    0.2481   66.2806   67.7752 H   0  0  0  0  0  0  0  0  0  0  0  0
   -2.1429   66.5015   68.4243 H   0  0  0  0  0  0  0  0  0  0  0  0
   -3.6059   68.1500   67.2558 H   0  0  0  0  0  0  0  0  0  0  0  0
   -2.6627   69.5722   65.4405 H   0  0  0  0  0  0  0  0  0  0  0  0
   -0.2680   69.3585   64.7874 H   0  0  0  0  0  0  0  0  0  0  0  0
  2  1  2  0
  4  3  1  0
  5  4  2  0
  6  5  1  0
  7  6  2  0
  7  1  1  0
  8  7  1  0
  9  8  2  0
  9  4  1  0
 10  1  1  0
 11 10  2  0
 12 10  1  0
 13 12  2  0
 14 13  1  0
 15 14  2  0
 16 15  1  0
 17 16  2  0
 17 12  1  0
  5 18  1  0
  6 19  1  0
  8 20  1  0
  9 21  1  0
 13 22  1  0
 14 23  1  0
 15 24  1  0
 16 25  1  0
 17 26  1  0
M  END
>  <score>  (1) 
-9.567

$$$$
=
     RDKit          3D

 26 27  0  0  0  0  0  0  0  0999 V2000
    1.6700   68.9370   66.9280 C   0  0  0  0  0  0  0  0  0  0  0  0
    0.6960   69.2590   67.6020 O   0  0  0  0  0  0  0  0  0  0  0  0
    6.8920   71.3340   68.7750 Cl  0  0  0  0  0  0  0  0  0  0  0  0
    5.4170   70.6460   68.2260 C   0  0  0  0  0  0  0  0  0  0  0  0
    4.2990   70.6460   69.0540 C   0  0  0  0  0  0  0  0  0  0  0  0
    3.1010   70.0830   68.6000 C   0  0  0  0  0  0  0  0  0  0  0  0
    3.0000   69.5120   67.3150 C   0  0  0  0  0  0  0  0  0  0  0  0
    4.1390   69.5240   66.5000 C   0  0  0  0  0  0  0  0  0  0  0  0
    5.3400   70.0880   66.9530 C   0  0  0  0  0  0  0  0  0  0  0  0
    1.4800   67.9800   65.7460 C   0  0  0  0  0  0  0  0  0  0  0  0
    1.4890   66.7690   65.9520 O   0  0  0  0  0  0  0  0  0  0  0  0
    1.2820   68.4440   64.3340 C   0  0  0  0  0  0  0  0  0  0  0  0
    2.3740   68.3070   63.4560 C   0  0  0  0  0  0  0  0  0  0  0  0
    2.2860   68.7100   62.1200 C   0  0  0  0  0  0  0  0  0  0  0  0
    1.1030   69.2580   61.6380 C   0  0  0  0  0  0  0  0  0  0  0  0
    0.0120   69.4010   62.4920 C   0  0  0  0  0  0  0  0  0  0  0  0
    0.1000   68.9970   63.8300 C   0  0  0  0  0  0  0  0  0  0  0  0
    4.3564   71.0863   70.0604 H   0  0  0  0  0  0  0  0  0  0  0  0
    2.2203   70.0860   69.2591 H   0  0  0  0  0  0  0  0  0  0  0  0
    4.0907   69.0856   65.4923 H   0  0  0  0  0  0  0  0  0  0  0  0
    6.2251   70.0896   66.2998 H   0  0  0  0  0  0  0  0  0  0  0  0
    3.3145   67.8746   63.8282 H   0  0  0  0  0  0  0  0  0  0  0  0
    3.1517   68.5935   61.4514 H   0  0  0  0  0  0  0  0  0  0  0  0
    1.0288   69.5770   60.5879 H   0  0  0  0  0  0  0  0  0  0  0  0
   -0.9253   69.8343   62.1128 H   0  0  0  0  0  0  0  0  0  0  0  0
   -0.7703   69.1159   64.4922 H   0  0  0  0  0  0  0  0  0  0  0  0
  2  1  2  0
  4  3  1  0
  5  4  2  0
  6  5  1  0
  7  6  2  0
  7  1  1  0
  8  7  1  0
  9  8  2  0
  9  4  1  0
 10  1  1  0
 11 10  2  0
 12 10  1  0
 13 12  2  0
 14 13  1  0
 15 14  2  0
 16 15  1  0
 17 16  2  0
 17 12  1  0
  5 18  1  0
  6 19  1  0
  8 20  1  0
  9 21  1  0
 13 22  1  0
 14 23  1  0
 15 24  1  0
 16 25  1  0
 17 26  1  0
M  END
>  <score>  (2) 
-9.551

$$$$
=
     RDKit          3D

 26 27  0  0  0  0  0  0  0  0999 V2000
    2.3140   68.9950   66.2350 C   0  0  0  0  0  0  0  0  0  0  0  0
    1.2980   68.9990   66.9230 O   0  0  0  0  0  0  0  0  0  0  0  0
    7.1990   71.2030   69.0090 Cl  0  0  0  0  0  0  0  0  0  0  0  0
    5.8230   70.5700   68.1980 C   0  0  0  0  0  0  0  0  0  0  0  0
    4.5940   70.5250   68.8460 C   0  0  0  0  0  0  0  0  0  0  0  0
    3.4780   70.0080   68.1790 C   0  0  0  0  0  0  0  0  0  0  0  0
    3.5720   69.5290   66.8570 C   0  0  0  0  0  0  0  0  0  0  0  0
    4.8200   69.5840   66.2250 C   0  0  0  0  0  0  0  0  0  0  0  0
    5.9390   70.1020   66.8920 C   0  0  0  0  0  0  0  0  0  0  0  0
    2.2490   68.4560   64.8020 C   0  0  0  0  0  0  0  0  0  0  0  0
    1.5670   69.0520   63.9720 O   0  0  0  0  0  0  0  0  0  0  0  0
    2.9780   67.2270   64.3510 C   0  0  0  0  0  0  0  0  0  0  0  0
    2.6850   66.0250   65.0230 C   0  0  0  0  0  0  0  0  0  0  0  0
    3.3130   64.8250   64.6730 C   0  0  0  0  0  0  0  0  0  0  0  0
    4.2470   64.8070   63.6430 C   0  0  0  0  0  0  0  0  0  0  0  0
    4.5500   65.9860   62.9670 C   0  0  0  0  0  0  0  0  0  0  0  0
    3.9210   67.1880   63.3170 C   0  0  0  0  0  0  0  0  0  0  0  0
    4.4993   70.8940   69.8779 H   0  0  0  0  0  0  0  0  0  0  0  0
    2.5080   69.9748   68.6968 H   0  0  0  0  0  0  0  0  0  0  0  0
    4.9237   69.2166   65.1934 H   0  0  0  0  0  0  0  0  0  0  0  0
    6.9126   70.1388   66.3814 H   0  0  0  0  0  0  0  0  0  0  0  0
    1.9477   66.0296   65.8393 H   0  0  0  0  0  0  0  0  0  0  0  0
    3.0685   63.8975   65.2115 H   0  0  0  0  0  0  0  0  0  0  0  0
    4.7439   63.8662   63.3637 H   0  0  0  0  0  0  0  0  0  0  0  0
    5.2887   65.9736   62.1521 H   0  0  0  0  0  0  0  0  0  0  0  0
    4.1708   68.1111   62.7734 H   0  0  0  0  0  0  0  0  0  0  0  0
  2  1  2  0
  4  3  1  0
  5  4  2  0
  6  5  1  0
  7  6  2  0
  7  1  1  0
  8  7  1  0
  9  8  2  0
  9  4  1  0
 10  1  1  0
 11 10  2  0
 12 10  1  0
 13 12  2  0
 14 13  1  0
 15 14  2  0
 16 15  1  0
 17 16  2  0
 17 12  1  0
  5 18  1  0
  6 19  1  0
  8 20  1  0
  9 21  1  0
 13 22  1  0
 14 23  1  0
 15 24  1  0
 16 25  1  0
 17 26  1  0
M  END
>  <score>  (3) 
-9.311

$$$$
=
     RDKit          3D

 26 27  0  0  0  0  0  0  0  0999 V2000
    4.6250   69.0830   63.9600 C   0  0  0  0  0  0  0  0  0  0  0  0
    5.4920   69.5430   63.2230 O   0  0  0  0  0  0  0  0  0  0  0  0
    5.1310   70.7240   69.7470 Cl  0  0  0  0  0  0  0  0  0  0  0  0
    4.9610   70.2510   68.1030 C   0  0  0  0  0  0  0  0  0  0  0  0
    6.0510   70.3250   67.2430 C   0  0  0  0  0  0  0  0  0  0  0  0
    5.9060   69.9390   65.9060 C   0  0  0  0  0  0  0  0  0  0  0  0
    4.6720   69.4730   65.4080 C   0  0  0  0  0  0  0  0  0  0  0  0
    3.5890   69.4060   66.2940 C   0  0  0  0  0  0  0  0  0  0  0  0
    3.7340   69.7940   67.6340 C   0  0  0  0  0  0  0  0  0  0  0  0
    3.5580   68.1530   63.3740 C   0  0  0  0  0  0  0  0  0  0  0  0
    3.8280   66.9660   63.2080 O   0  0  0  0  0  0  0  0  0  0  0  0
    2.1850   68.6150   62.9860 C   0  0  0  0  0  0  0  0  0  0  0  0
    1.1820   68.5410   63.9700 C   0  0  0  0  0  0  0  0  0  0  0  0
   -0.1290   68.9500   63.7040 C   0  0  0  0  0  0  0  0  0  0  0  0
   -0.4590   69.4390   62.4450 C   0  0  0  0  0  0  0  0  0  0  0  0
    0.5200   69.5190   61.4580 C   0  0  0  0  0  0  0  0  0  0  0  0
    1.8330   69.1100   61.7250 C   0  0  0  0  0  0  0  0  0  0  0  0
    7.0226   70.6853   67.6120 H   0  0  0  0  0  0  0  0  0  0  0  0
    6.7717   70.0003   65.2301 H   0  0  0  0  0  0  0  0  0  0  0  0
    2.6140   69.0451   65.9348 H   0  0  0  0  0  0  0  0  0  0  0  0
    2.8736   69.7366   68.3169 H   0  0  0  0  0  0  0  0  0  0  0  0
    1.4338   68.1538   64.9683 H   0  0  0  0  0  0  0  0  0  0  0  0
   -0.8969   68.8849   64.4889 H   0  0  0  0  0  0  0  0  0  0  0  0
   -1.4885   69.7611   62.2297 H   0  0  0  0  0  0  0  0  0  0  0  0
    0.2605   69.9061   60.4616 H   0  0  0  0  0  0  0  0  0  0  0  0
    2.5955   69.1786   60.9352 H   0  0  0  0  0  0  0  0  0  0  0  0
  2  1  2  0
  4  3  1  0
  5  4  2  0
  6  5  1  0
  7  6  2  0
  7  1  1  0
  8  7  1  0
  9  8  2  0
  9  4  1  0
 10  1  1  0
 11 10  2  0
 12 10  1  0
 13 12  2  0
 14 13  1  0
 15 14  2  0
 16 15  1  0
 17 16  2  0
 17 12  1  0
  5 18  1  0
  6 19  1  0
  8 20  1  0
  9 21  1  0
 13 22  1  0
 14 23  1  0
 15 24  1  0
 16 25  1  0
 17 26  1  0
M  END
>  <score>  (4) 
-9.129

$$$$
=
     RDKit          3D

 26 27  0  0  0  0  0  0  0  0999 V2000
    2.6000   68.4690   64.9110 C   0  0  0  0  0  0  0  0  0  0  0  0
    2.1470   69.1120   63.9690 O   0  0  0  0  0  0  0  0  0  0  0  0
    5.0370   63.1210   63.5350 Cl  0  0  0  0  0  0  0  0  0  0  0  0
    4.3250   64.6310   63.9420 C   0  0  0  0  0  0  0  0  0  0  0  0
    4.8560   65.8100   63.4300 C   0  0  0  0  0  0  0  0  0  0  0  0
    4.2720   67.0360   63.7650 C   0  0  0  0  0  0  0  0  0  0  0  0
    3.1500   67.1040   64.6160 C   0  0  0  0  0  0  0  0  0  0  0  0
    2.6330   65.9040   65.1190 C   0  0  0  0  0  0  0  0  0  0  0  0
    3.2180   64.6750   64.7840 C   0  0  0  0  0  0  0  0  0  0  0  0
    2.5830   69.0820   66.3150 C   0  0  0  0  0  0  0  0  0  0  0  0
    1.5320   69.0880   66.9500 O   0  0  0  0  0  0  0  0  0  0  0  0
    3.7920   69.6850   66.9660 C   0  0  0  0  0  0  0  0  0  0  0  0
    4.9630   69.7680   66.1890 C   0  0  0  0  0  0  0  0  0  0  0  0
    6.1410   70.3150   66.7070 C   0  0  0  0  0  0  0  0  0  0  0  0
    6.1680   70.7890   68.0140 C   0  0  0  0  0  0  0  0  0  0  0  0
    5.0200   70.7150   68.7980 C   0  0  0  0  0  0  0  0  0  0  0  0
    3.8400   70.1670   68.2790 C   0  0  0  0  0  0  0  0  0  0  0  0
    5.7313   65.7785   62.7646 H   0  0  0  0  0  0  0  0  0  0  0  0
    4.6963   67.9651   63.3566 H   0  0  0  0  0  0  0  0  0  0  0  0
    1.7576   65.9259   65.7848 H   0  0  0  0  0  0  0  0  0  0  0  0
    2.8002   63.7413   65.1885 H   0  0  0  0  0  0  0  0  0  0  0  0
    4.9510   69.3953   65.1541 H   0  0  0  0  0  0  0  0  0  0  0  0
    7.0444   70.3702   66.0819 H   0  0  0  0  0  0  0  0  0  0  0  0
    7.0920   71.2204   68.4264 H   0  0  0  0  0  0  0  0  0  0  0  0
    5.0397   71.0894   69.8321 H   0  0  0  0  0  0  0  0  0  0  0  0
    2.9409   70.1149   68.9106 H   0  0  0  0  0  0  0  0  0  0  0  0
  2  1  2  0
  4  3  1  0
  5  4  2  0
  6  5  1  0
  7  6  2  0
  7  1  1  0
  8  7  1  0
  9  8  2  0
  9  4  1  0
 10  1  1  0
 11 10  2  0
 12 10  1  0
 13 12  2  0
 14 13  1  0
 15 14  2  0
 16 15  1  0
 17 16  2  0
 17 12  1  0
  5 18  1  0
  6 19  1  0
  8 20  1  0
  9 21  1  0
 13 22  1  0
 14 23  1  0
 15 24  1  0
 16 25  1  0
 17 26  1  0
M  END
>  <score>  (5) 
-9.103

$$$$
=
     RDKit          3D

 26 27  0  0  0  0  0  0  0  0999 V2000
    4.5300   69.0480   63.8890 C   0  0  0  0  0  0  0  0  0  0  0  0
    5.2830   69.6850   63.1590 O   0  0  0  0  0  0  0  0  0  0  0  0
    4.6570   70.6630   69.7040 Cl  0  0  0  0  0  0  0  0  0  0  0  0
    4.5950   70.1980   68.0510 C   0  0  0  0  0  0  0  0  0  0  0  0
    5.7460   70.2430   67.2720 C   0  0  0  0  0  0  0  0  0  0  0  0
    5.6880   69.8630   65.9270 C   0  0  0  0  0  0  0  0  0  0  0  0
    4.4820   69.4330   65.3390 C   0  0  0  0  0  0  0  0  0  0  0  0
    3.3360   69.3960   66.1420 C   0  0  0  0  0  0  0  0  0  0  0  0
    3.3930   69.7760   67.4910 C   0  0  0  0  0  0  0  0  0  0  0  0
    3.6910   67.9120   63.2930 C   0  0  0  0  0  0  0  0  0  0  0  0
    2.9480   68.1540   62.3450 O   0  0  0  0  0  0  0  0  0  0  0  0
    3.7250   66.5050   63.8090 C   0  0  0  0  0  0  0  0  0  0  0  0
    4.7120   65.6520   63.2800 C   0  0  0  0  0  0  0  0  0  0  0  0
    4.8240   64.3230   63.6990 C   0  0  0  0  0  0  0  0  0  0  0  0
    3.9480   63.8230   64.6560 C   0  0  0  0  0  0  0  0  0  0  0  0
    2.9660   64.6510   65.1910 C   0  0  0  0  0  0  0  0  0  0  0  0
    2.8540   65.9830   64.7720 C   0  0  0  0  0  0  0  0  0  0  0  0
    6.6979   70.5759   67.7115 H   0  0  0  0  0  0  0  0  0  0  0  0
    6.6021   69.9006   65.3163 H   0  0  0  0  0  0  0  0  0  0  0  0
    2.3799   69.0652   65.7102 H   0  0  0  0  0  0  0  0  0  0  0  0
    2.4837   69.7403   68.1089 H   0  0  0  0  0  0  0  0  0  0  0  0
    5.4089   66.0388   62.5219 H   0  0  0  0  0  0  0  0  0  0  0  0
    5.6034   63.6743   63.2726 H   0  0  0  0  0  0  0  0  0  0  0  0
    4.0309   62.7778   64.9886 H   0  0  0  0  0  0  0  0  0  0  0  0
    2.2726   64.2568   65.9485 H   0  0  0  0  0  0  0  0  0  0  0  0
    2.0730   66.6256   65.2046 H   0  0  0  0  0  0  0  0  0  0  0  0
  2  1  2  0
  4  3  1  0
  5  4  2  0
  6  5  1  0
  7  6  2  0
  7  1  1  0
  8  7  1  0
  9  8  2  0
  9  4  1  0
 10  1  1  0
 11 10  2  0
 12 10  1  0
 13 12  2  0
 14 13  1  0
 15 14  2  0
 16 15  1  0
 17 16  2  0
 17 12  1  0
  5 18  1  0
  6 19  1  0
  8 20  1  0
  9 21  1  0
 13 22  1  0
 14 23  1  0
 15 24  1  0
 16 25  1  0
 17 26  1  0
M  END
>  <score>  (6) 
-9.082

$$$$
=
     RDKit          3D

 26 27  0  0  0  0  0  0  0  0999 V2000
    2.2210   67.0800   65.3950 C   0  0  0  0  0  0  0  0  0  0  0  0
    1.2060   66.7120   65.9770 O   0  0  0  0  0  0  0  0  0  0  0  0
    5.6750   62.6170   63.2530 Cl  0  0  0  0  0  0  0  0  0  0  0  0
    4.6990   63.9030   63.8420 C   0  0  0  0  0  0  0  0  0  0  0  0
    3.9730   63.7420   65.0170 C   0  0  0  0  0  0  0  0  0  0  0  0
    3.1810   64.7930   65.4910 C   0  0  0  0  0  0  0  0  0  0  0  0
    3.1000   66.0190   64.8000 C   0  0  0  0  0  0  0  0  0  0  0  0
    3.8400   66.1570   63.6190 C   0  0  0  0  0  0  0  0  0  0  0  0
    4.6350   65.1040   63.1430 C   0  0  0  0  0  0  0  0  0  0  0  0
    2.5340   68.5770   65.3060 C   0  0  0  0  0  0  0  0  0  0  0  0
    1.9320   69.2650   64.4860 O   0  0  0  0  0  0  0  0  0  0  0  0
    3.5490   69.2600   66.1740 C   0  0  0  0  0  0  0  0  0  0  0  0
    3.1340   69.6440   67.4640 C   0  0  0  0  0  0  0  0  0  0  0  0
    4.0080   70.2850   68.3470 C   0  0  0  0  0  0  0  0  0  0  0  0
    5.3150   70.5540   67.9540 C   0  0  0  0  0  0  0  0  0  0  0  0
    5.7430   70.1820   66.6830 C   0  0  0  0  0  0  0  0  0  0  0  0
    4.8670   69.5390   65.7980 C   0  0  0  0  0  0  0  0  0  0  0  0
    4.0213   62.7929   65.5710 H   0  0  0  0  0  0  0  0  0  0  0  0
    2.6099   64.6602   66.4217 H   0  0  0  0  0  0  0  0  0  0  0  0
    3.7973   67.1023   63.0581 H   0  0  0  0  0  0  0  0  0  0  0  0
    5.2100   65.2284   62.2135 H   0  0  0  0  0  0  0  0  0  0  0  0
    2.1021   69.4355   67.7829 H   0  0  0  0  0  0  0  0  0  0  0  0
    3.6630   70.5760   69.3502 H   0  0  0  0  0  0  0  0  0  0  0  0
    6.0070   71.0583   68.6445 H   0  0  0  0  0  0  0  0  0  0  0  0
    6.7762   70.3942   66.3709 H   0  0  0  0  0  0  0  0  0  0  0  0
    5.2198   69.2506   64.7968 H   0  0  0  0  0  0  0  0  0  0  0  0
  2  1  2  0
  4  3  1  0
  5  4  2  0
  6  5  1  0
  7  6  2  0
  7  1  1  0
  8  7  1  0
  9  8  2  0
  9  4  1  0
 10  1  1  0
 11 10  2  0
 12 10  1  0
 13 12  2  0
 14 13  1  0
 15 14  2  0
 16 15  1  0
 17 16  2  0
 17 12  1  0
  5 18  1  0
  6 19  1  0
  8 20  1  0
  9 21  1  0
 13 22  1  0
 14 23  1  0
 15 24  1  0
 16 25  1  0
 17 26  1  0
M  END
>  <score>  (7) 
-8.944

$$$$
=
     RDKit          3D

 26 27  0  0  0  0  0  0  0  0999 V2000
    2.1390   68.0020   66.0410 C   0  0  0  0  0  0  0  0  0  0  0  0
    1.8720   66.8540   66.3840 O   0  0  0  0  0  0  0  0  0  0  0  0
    3.3230   68.9490   60.1990 Cl  0  0  0  0  0  0  0  0  0  0  0  0
    3.0120   68.6750   61.8660 C   0  0  0  0  0  0  0  0  0  0  0  0
    1.7100   68.7410   62.3500 C   0  0  0  0  0  0  0  0  0  0  0  0
    1.4640   68.5180   63.7090 C   0  0  0  0  0  0  0  0  0  0  0  0
    2.5120   68.2250   64.6050 C   0  0  0  0  0  0  0  0  0  0  0  0
    3.8150   68.1640   64.0950 C   0  0  0  0  0  0  0  0  0  0  0  0
    4.0630   68.3880   62.7330 C   0  0  0  0  0  0  0  0  0  0  0  0
    2.0780   69.1280   67.0790 C   0  0  0  0  0  0  0  0  0  0  0  0
    0.9830   69.5700   67.4150 O   0  0  0  0  0  0  0  0  0  0  0  0
    3.2960   69.7300   67.7130 C   0  0  0  0  0  0  0  0  0  0  0  0
    4.4690   69.7740   66.9360 C   0  0  0  0  0  0  0  0  0  0  0  0
    5.6550   70.3170   67.4400 C   0  0  0  0  0  0  0  0  0  0  0  0
    5.6880   70.8260   68.7330 C   0  0  0  0  0  0  0  0  0  0  0  0
    4.5390   70.7920   69.5170 C   0  0  0  0  0  0  0  0  0  0  0  0
    3.3500   70.2480   69.0120 C   0  0  0  0  0  0  0  0  0  0  0  0
    0.8775   68.9675   61.6676 H   0  0  0  0  0  0  0  0  0  0  0  0
    0.4320   68.5724   64.0859 H   0  0  0  0  0  0  0  0  0  0  0  0
    4.6533   67.9378   64.7704 H   0  0  0  0  0  0  0  0  0  0  0  0
    5.0922   68.3367   62.3480 H   0  0  0  0  0  0  0  0  0  0  0  0
    4.4523   69.3732   65.9118 H   0  0  0  0  0  0  0  0  0  0  0  0
    6.5597   70.3413   66.8147 H   0  0  0  0  0  0  0  0  0  0  0  0
    6.6184   71.2538   69.1347 H   0  0  0  0  0  0  0  0  0  0  0  0
    4.5639   71.1949   70.5403 H   0  0  0  0  0  0  0  0  0  0  0  0
    2.4496   70.2280   69.6435 H   0  0  0  0  0  0  0  0  0  0  0  0
  2  1  2  0
  4  3  1  0
  5  4  2  0
  6  5  1  0
  7  6  2  0
  7  1  1  0
  8  7  1  0
  9  8  2  0
  9  4  1  0
 10  1  1  0
 11 10  2  0
 12 10  1  0
 13 12  2  0
 14 13  1  0
 15 14  2  0
 16 15  1  0
 17 16  2  0
 17 12  1  0
  5 18  1  0
  6 19  1  0
  8 20  1  0
  9 21  1  0
 13 22  1  0
 14 23  1  0
 15 24  1  0
 16 25  1  0
 17 26  1  0
M  END
>  <score>  (8) 
-8.645

$$$$
=
     RDKit          3D

 26 27  0  0  0  0  0  0  0  0999 V2000
    2.7660   59.1620   72.5860 C   0  0  0  0  0  0  0  0  0  0  0  0
    3.3380   58.5370   73.4740 O   0  0  0  0  0  0  0  0  0  0  0  0
   -2.8500   60.9280   73.9210 Cl  0  0  0  0  0  0  0  0  0  0  0  0
   -1.2470   60.4480   73.5280 C   0  0  0  0  0  0  0  0  0  0  0  0
   -0.7730   59.2080   73.9390 C   0  0  0  0  0  0  0  0  0  0  0  0
    0.5330   58.8230   73.6160 C   0  0  0  0  0  0  0  0  0  0  0  0
    1.3850   59.6710   72.8790 C   0  0  0  0  0  0  0  0  0  0  0  0
    0.8850   60.9150   72.4760 C   0  0  0  0  0  0  0  0  0  0  0  0
   -0.4240   61.3010   72.7990 C   0  0  0  0  0  0  0  0  0  0  0  0
    3.4790   59.3870   71.2480 C   0  0  0  0  0  0  0  0  0  0  0  0
    3.8010   58.4130   70.5730 O   0  0  0  0  0  0  0  0  0  0  0  0
    3.8100   60.7470   70.7100 C   0  0  0  0  0  0  0  0  0  0  0  0
    3.1740   61.1360   69.5160 C   0  0  0  0  0  0  0  0  0  0  0  0
    3.4170   62.3850   68.9360 C   0  0  0  0  0  0  0  0  0  0  0  0
    4.3040   63.2680   69.5430 C   0  0  0  0  0  0  0  0  0  0  0  0
    4.9430   62.9010   70.7230 C   0  0  0  0  0  0  0  0  0  0  0  0
    4.6990   61.6500   71.3040 C   0  0  0  0  0  0  0  0  0  0  0  0
   -1.4215   58.5321   74.5157 H   0  0  0  0  0  0  0  0  0  0  0  0
    0.9021   57.8398   73.9434 H   0  0  0  0  0  0  0  0  0  0  0  0
    1.5264   61.5977   71.8993 H   0  0  0  0  0  0  0  0  0  0  0  0
   -0.8016   62.2820   72.4748 H   0  0  0  0  0  0  0  0  0  0  0  0
    2.4716   60.4434   69.0293 H   0  0  0  0  0  0  0  0  0  0  0  0
    2.9083   62.6683   68.0027 H   0  0  0  0  0  0  0  0  0  0  0  0
    4.4993   64.2521   69.0920 H   0  0  0  0  0  0  0  0  0  0  0  0
    5.6451   63.5984   71.2033 H   0  0  0  0  0  0  0  0  0  0  0  0
    5.2117   61.3743   72.2373 H   0  0  0  0  0  0  0  0  0  0  0  0
  2  1  2  0
  4  3  1  0
  5  4  2  0
  6  5  1  0
  7  6  2  0
  7  1  1  0
  8  7  1  0
  9  8  2  0
  9  4  1  0
 10  1  1  0
 11 10  2  0
 12 10  1  0
 13 12  2  0
 14 13  1  0
 15 14  2  0
 16 15  1  0
 17 16  2  0
 17 12  1  0
  5 18  1  0
  6 19  1  0
  8 20  1  0
  9 21  1  0
 13 22  1  0
 14 23  1  0
 15 24  1  0
 16 25  1  0
 17 26  1  0
M  END
>  <score>  (9) 
-7.776

$$$$
