=
     RDKit          3D

 53 56  0  0  0  0  0  0  0  0999 V2000
    1.1220   67.1590   68.3540 C   0  0  0  0  0  0  0  0  0  0  0  0
    1.5870   66.2970   67.5980 O   0  0  0  0  0  0  0  0  0  0  0  0
    4.7740   69.4650   65.4170 C   0  0  0  0  0  0  0  0  0  0  0  0
    3.4680   69.0980   65.0960 C   0  0  0  0  0  0  0  0  0  0  0  0
    2.5150   69.1580   66.0940 C   0  0  0  0  0  0  0  0  0  0  0  0
    0.8400   68.6190   65.9850 S   0  0  0  0  0  0  0  0  0  0  0  0
    0.6860   68.5260   67.8090 C   0  0  2  0  0  0  0  0  0  0  0  0
    1.6450   69.6270   68.3140 C   0  0  0  0  0  0  0  0  0  0  0  0
    2.8320   69.5990   67.3800 C   0  0  0  0  0  0  0  0  0  0  0  0
    4.1350   69.9710   67.7020 C   0  0  0  0  0  0  0  0  0  0  0  0
    5.1260   69.8780   66.7190 C   0  0  0  0  0  0  0  0  0  0  0  0
    5.0870   69.1970   63.1570 C   0  0  0  0  0  0  0  0  0  0  0  0
    5.7240   69.2980   64.4370 O   0  0  0  0  0  0  0  0  0  0  0  0
    6.4600   70.0940   66.9480 O   0  0  0  0  0  0  0  0  0  0  0  0
    6.7960   70.6600   68.2140 C   0  0  0  0  0  0  0  0  0  0  0  0
    1.0860   66.8880   69.8520 C   0  0  0  0  0  0  0  0  0  0  0  0
    0.3830   65.5630   70.1630 C   0  0  0  0  0  0  0  0  0  0  0  0
    1.2760   64.5440   70.8420 C   0  0  0  0  0  0  0  0  0  0  0  0
    0.8350   63.8060   71.9380 C   0  0  0  0  0  0  0  0  0  0  0  0
    1.6790   62.8630   72.5220 C   0  0  0  0  0  0  0  0  0  0  0  0
    2.9220   62.6490   72.0320 N   0  0  0  0  0  4  0  0  0  0  0  0
    3.3680   63.3450   70.9620 C   0  0  0  0  0  0  0  0  0  0  0  0
    2.5630   64.3020   70.3570 C   0  0  0  0  0  0  0  0  0  0  0  0
    3.8070   61.6400   72.6660 C   0  0  0  0  0  0  0  0  0  0  0  0
    3.5070   60.2830   72.1070 C   0  0  0  0  0  0  0  0  0  0  0  0
    2.8220   59.2820   72.7750 C   0  0  0  0  0  0  0  0  0  0  0  0
    2.6660   57.8500   71.8520 S   0  0  0  0  0  0  0  0  0  0  0  0
    3.4890   58.5490   70.5300 C   0  0  0  0  0  0  0  0  0  0  0  0
    3.8800   59.8430   70.7900 C   0  0  0  0  0  0  0  0  0  0  0  0
    3.2046   68.7708   64.0794 H   0  0  0  0  0  0  0  0  0  0  0  0
   -0.3548   68.6599   68.1387 H   0  0  0  0  0  0  0  0  0  0  0  0
    1.1525   70.6099   68.2782 H   0  0  0  0  0  0  0  0  0  0  0  0
    1.9467   69.4537   69.3575 H   0  0  0  0  0  0  0  0  0  0  0  0
    4.3806   70.3317   68.7118 H   0  0  0  0  0  0  0  0  0  0  0  0
    4.0093   69.0261   63.2962 H   0  0  0  0  0  0  0  0  0  0  0  0
    5.2408   70.1307   62.5962 H   0  0  0  0  0  0  0  0  0  0  0  0
    5.5221   68.3566   62.5962 H   0  0  0  0  0  0  0  0  0  0  0  0
    6.4126   70.0142   69.0177 H   0  0  0  0  0  0  0  0  0  0  0  0
    7.8895   70.7426   68.3001 H   0  0  0  0  0  0  0  0  0  0  0  0
    6.3449   71.6595   68.3001 H   0  0  0  0  0  0  0  0  0  0  0  0
    2.1171   66.8442   70.2328 H   0  0  0  0  0  0  0  0  0  0  0  0
    0.5250   67.7001   70.3376 H   0  0  0  0  0  0  0  0  0  0  0  0
   -0.4720   65.7702   70.8234 H   0  0  0  0  0  0  0  0  0  0  0  0
    0.0745   65.1292   69.2004 H   0  0  0  0  0  0  0  0  0  0  0  0
   -0.1757   63.9669   72.3412 H   0  0  0  0  0  0  0  0  0  0  0  0
    1.3306   62.2860   73.3913 H   0  0  0  0  0  0  0  0  0  0  0  0
    4.3764   63.1519   70.5674 H   0  0  0  0  0  0  0  0  0  0  0  0
    2.9402   64.8704   69.4940 H   0  0  0  0  0  0  0  0  0  0  0  0
    4.8574   61.8954   72.4623 H   0  0  0  0  0  0  0  0  0  0  0  0
    3.6325   61.6334   73.7520 H   0  0  0  0  0  0  0  0  0  0  0  0
    2.4202   59.3957   73.7927 H   0  0  0  0  0  0  0  0  0  0  0  0
    3.6840   58.0268   69.5817 H   0  0  0  0  0  0  0  0  0  0  0  0
    4.4199   60.4728   70.0676 H   0  0  0  0  0  0  0  0  0  0  0  0
  2  1  2  0
  4  3  2  0
  5  4  1  0
  6  5  1  0
  7  6  1  0
  7  1  1  0
  8  7  1  0
  9  8  1  0
  9  5  2  0
 10  9  1  0
 11 10  2  0
 11  3  1  0
 13 12  1  0
 13  3  1  0
 14 11  1  0
 15 14  1  0
 16  1  1  0
 17 16  1  0
 18 17  1  0
 19 18  2  0
 20 19  1  0
 21 20  2  0
 22 21  1  0
 23 18  1  0
 23 22  2  0
 24 21  1  0
 25 24  1  0
 26 25  2  0
 27 26  1  0
 28 27  1  0
 29 28  2  0
 29 25  1  0
  4 30  1  0
  7 31  1  6
  8 32  1  0
  8 33  1  0
 10 34  1  0
 12 35  1  0
 12 36  1  0
 12 37  1  0
 15 38  1  0
 15 39  1  0
 15 40  1  0
 16 41  1  0
 16 42  1  0
 17 43  1  0
 17 44  1  0
 19 45  1  0
 20 46  1  0
 22 47  1  0
 23 48  1  0
 24 49  1  0
 24 50  1  0
 26 51  1  0
 28 52  1  0
 29 53  1  0
M  CHG  1  21   1
M  END
>  <score>  (1) 
-9.411

$$$$
=
     RDKit          3D

 53 56  0  0  0  0  0  0  0  0999 V2000
   -0.0990   67.3140   68.0590 C   0  0  0  0  0  0  0  0  0  0  0  0
   -0.7410   66.4590   67.4350 O   0  0  0  0  0  0  0  0  0  0  0  0
    2.4910   68.0570   63.5850 C   0  0  0  0  0  0  0  0  0  0  0  0
    1.1620   68.3300   63.9060 C   0  0  0  0  0  0  0  0  0  0  0  0
    0.8730   68.7050   65.2020 C   0  0  0  0  0  0  0  0  0  0  0  0
   -0.7290   68.9660   65.8920 S   0  0  0  0  0  0  0  0  0  0  0  0
   -0.0920   68.7780   67.6010 C   0  0  2  0  0  0  0  0  0  0  0  0
    1.3610   69.2960   67.5080 C   0  0  0  0  0  0  0  0  0  0  0  0
    1.8760   68.8410   66.1640 C   0  0  0  0  0  0  0  0  0  0  0  0
    3.2060   68.5740   65.8450 C   0  0  0  0  0  0  0  0  0  0  0  0
    3.5170   68.1500   64.5490 C   0  0  0  0  0  0  0  0  0  0  0  0
    2.9460   68.6850   61.4230 C   0  0  0  0  0  0  0  0  0  0  0  0
    2.7390   67.5850   62.3180 O   0  0  0  0  0  0  0  0  0  0  0  0
    4.7630   67.7390   64.1520 O   0  0  0  0  0  0  0  0  0  0  0  0
    5.6920   68.7710   63.8310 C   0  0  0  0  0  0  0  0  0  0  0  0
    0.7730   66.8760   69.2280 C   0  0  0  0  0  0  0  0  0  0  0  0
    0.0470   65.8610   70.1170 C   0  0  0  0  0  0  0  0  0  0  0  0
    0.9650   64.8220   70.7290 C   0  0  0  0  0  0  0  0  0  0  0  0
    2.2840   64.6740   70.3050 C   0  0  0  0  0  0  0  0  0  0  0  0
    3.1020   63.7210   70.9070 C   0  0  0  0  0  0  0  0  0  0  0  0
    2.6350   62.9390   71.9070 N   0  0  0  0  0  4  0  0  0  0  0  0
    1.3620   63.0710   72.3440 C   0  0  0  0  0  0  0  0  0  0  0  0
    0.5090   64.0010   71.7640 C   0  0  0  0  0  0  0  0  0  0  0  0
    3.5210   61.9290   72.5380 C   0  0  0  0  0  0  0  0  0  0  0  0
    3.4210   60.6330   71.7920 C   0  0  0  0  0  0  0  0  0  0  0  0
    3.0310   59.4250   72.3450 C   0  0  0  0  0  0  0  0  0  0  0  0
    3.0400   58.1410   71.2160 S   0  0  0  0  0  0  0  0  0  0  0  0
    3.5410   59.1800   69.9570 C   0  0  0  0  0  0  0  0  0  0  0  0
    3.7040   60.4760   70.3910 C   0  0  0  0  0  0  0  0  0  0  0  0
    0.3680   68.2489   63.1491 H   0  0  0  0  0  0  0  0  0  0  0  0
   -0.7106   69.3213   68.3305 H   0  0  0  0  0  0  0  0  0  0  0  0
    1.3810   70.3938   67.5739 H   0  0  0  0  0  0  0  0  0  0  0  0
    1.9812   68.9101   68.3304 H   0  0  0  0  0  0  0  0  0  0  0  0
    3.9975   68.6946   66.5994 H   0  0  0  0  0  0  0  0  0  0  0  0
    3.1187   69.6029   62.0040 H   0  0  0  0  0  0  0  0  0  0  0  0
    3.8217   68.4821   60.7890 H   0  0  0  0  0  0  0  0  0  0  0  0
    2.0564   68.8143   60.7890 H   0  0  0  0  0  0  0  0  0  0  0  0
    6.0873   69.2101   64.7589 H   0  0  0  0  0  0  0  0  0  0  0  0
    6.5204   68.3488   63.2432 H   0  0  0  0  0  0  0  0  0  0  0  0
    5.1854   69.5506   63.2432 H   0  0  0  0  0  0  0  0  0  0  0  0
    1.6921   66.4158   68.8363 H   0  0  0  0  0  0  0  0  0  0  0  0
    1.0087   67.7623   69.8354 H   0  0  0  0  0  0  0  0  0  0  0  0
   -0.4519   66.4067   70.9314 H   0  0  0  0  0  0  0  0  0  0  0  0
   -0.6657   65.3226   69.4749 H   0  0  0  0  0  0  0  0  0  0  0  0
    2.6781   65.3080   69.4971 H   0  0  0  0  0  0  0  0  0  0  0  0
    4.1408   63.6028   70.5650 H   0  0  0  0  0  0  0  0  0  0  0  0
    0.9990   62.4363   73.1659 H   0  0  0  0  0  0  0  0  0  0  0  0
   -0.5278   64.0916   72.1201 H   0  0  0  0  0  0  0  0  0  0  0  0
    4.5608   62.2870   72.5113 H   0  0  0  0  0  0  0  0  0  0  0  0
    3.2107   61.7734   73.5818 H   0  0  0  0  0  0  0  0  0  0  0  0
    2.7453   59.3040   73.4003 H   0  0  0  0  0  0  0  0  0  0  0  0
    3.7132   58.8522   68.9212 H   0  0  0  0  0  0  0  0  0  0  0  0
    4.0171   61.3027   69.7364 H   0  0  0  0  0  0  0  0  0  0  0  0
  2  1  2  0
  4  3  2  0
  5  4  1  0
  6  5  1  0
  7  6  1  0
  7  1  1  0
  8  7  1  0
  9  8  1  0
  9  5  2  0
 10  9  1  0
 11 10  2  0
 11  3  1  0
 13 12  1  0
 13  3  1  0
 14 11  1  0
 15 14  1  0
 16  1  1  0
 17 16  1  0
 18 17  1  0
 19 18  2  0
 20 19  1  0
 21 20  2  0
 22 21  1  0
 23 18  1  0
 23 22  2  0
 24 21  1  0
 25 24  1  0
 26 25  2  0
 27 26  1  0
 28 27  1  0
 29 28  2  0
 29 25  1  0
  4 30  1  0
  7 31  1  1
  8 32  1  0
  8 33  1  0
 10 34  1  0
 12 35  1  0
 12 36  1  0
 12 37  1  0
 15 38  1  0
 15 39  1  0
 15 40  1  0
 16 41  1  0
 16 42  1  0
 17 43  1  0
 17 44  1  0
 19 45  1  0
 20 46  1  0
 22 47  1  0
 23 48  1  0
 24 49  1  0
 24 50  1  0
 26 51  1  0
 28 52  1  0
 29 53  1  0
M  CHG  1  21   1
M  END
>  <score>  (2) 
-9.28

$$$$
=
     RDKit          3D

 53 56  0  0  0  0  0  0  0  0999 V2000
    1.6640   63.7970   70.2990 C   0  0  0  0  0  0  0  0  0  0  0  0
    0.7780   63.0160   69.9280 O   0  0  0  0  0  0  0  0  0  0  0  0
    3.8550   59.1570   71.2710 C   0  0  0  0  0  0  0  0  0  0  0  0
    3.6150   59.7960   70.0550 C   0  0  0  0  0  0  0  0  0  0  0  0
    3.6850   61.1750   70.0240 C   0  0  0  0  0  0  0  0  0  0  0  0
    3.2900   62.2200   68.6600 S   0  0  0  0  0  0  0  0  0  0  0  0
    3.0930   63.6780   69.7530 C   0  0  2  0  0  0  0  0  0  0  0  0
    4.0800   63.4030   70.9100 C   0  0  0  0  0  0  0  0  0  0  0  0
    4.0170   61.9150   71.1600 C   0  0  0  0  0  0  0  0  0  0  0  0
    4.2630   61.2790   72.3750 C   0  0  0  0  0  0  0  0  0  0  0  0
    4.1550   59.8860   72.4410 C   0  0  0  0  0  0  0  0  0  0  0  0
    2.3270   57.4900   71.6750 C   0  0  0  0  0  0  0  0  0  0  0  0
    3.6760   57.7940   71.3010 O   0  0  0  0  0  0  0  0  0  0  0  0
    4.2480   59.1610   73.6010 O   0  0  0  0  0  0  0  0  0  0  0  0
    3.2890   59.4660   74.6110 C   0  0  0  0  0  0  0  0  0  0  0  0
    1.3450   64.8150   71.3860 C   0  0  0  0  0  0  0  0  0  0  0  0
    0.1130   65.6520   71.0240 C   0  0  0  0  0  0  0  0  0  0  0  0
    0.2640   66.4310   69.7330 C   0  0  0  0  0  0  0  0  0  0  0  0
   -0.7300   66.4240   68.7580 C   0  0  0  0  0  0  0  0  0  0  0  0
   -0.5630   67.1700   67.5930 C   0  0  0  0  0  0  0  0  0  0  0  0
    0.5520   67.9120   67.4000 N   0  0  0  0  0  4  0  0  0  0  0  0
    1.5260   67.9440   68.3380 C   0  0  0  0  0  0  0  0  0  0  0  0
    1.4050   67.2060   69.5080 C   0  0  0  0  0  0  0  0  0  0  0  0
    0.7140   68.7020   66.1540 C   0  0  0  0  0  0  0  0  0  0  0  0
    1.9120   68.2140   65.3990 C   0  0  0  0  0  0  0  0  0  0  0  0
    2.0520   66.9450   64.8620 C   0  0  0  0  0  0  0  0  0  0  0  0
    3.5530   66.7150   64.0760 S   0  0  0  0  0  0  0  0  0  0  0  0
    4.0380   68.3170   64.4160 C   0  0  0  0  0  0  0  0  0  0  0  0
    3.0780   69.0080   65.1190 C   0  0  0  0  0  0  0  0  0  0  0  0
    3.3773   59.2197   69.1487 H   0  0  0  0  0  0  0  0  0  0  0  0
    3.2877   64.6197   69.2189 H   0  0  0  0  0  0  0  0  0  0  0  0
    5.0993   63.7003   70.6227 H   0  0  0  0  0  0  0  0  0  0  0  0
    3.8171   63.9763   71.8112 H   0  0  0  0  0  0  0  0  0  0  0  0
    4.5373   61.8620   73.2665 H   0  0  0  0  0  0  0  0  0  0  0  0
    2.2459   57.4717   72.7719 H   0  0  0  0  0  0  0  0  0  0  0  0
    1.6522   58.2586   71.2702 H   0  0  0  0  0  0  0  0  0  0  0  0
    2.0471   56.5063   71.2702 H   0  0  0  0  0  0  0  0  0  0  0  0
    3.7425   59.3218   75.6027 H   0  0  0  0  0  0  0  0  0  0  0  0
    2.9645   60.5117   74.5047 H   0  0  0  0  0  0  0  0  0  0  0  0
    2.4201   58.7999   74.5047 H   0  0  0  0  0  0  0  0  0  0  0  0
    1.1517   64.2829   72.3291 H   0  0  0  0  0  0  0  0  0  0  0  0
    2.2056   65.4923   71.4894 H   0  0  0  0  0  0  0  0  0  0  0  0
   -0.7488   64.9759   70.9229 H   0  0  0  0  0  0  0  0  0  0  0  0
   -0.0236   66.3883   71.8297 H   0  0  0  0  0  0  0  0  0  0  0  0
   -1.6446   65.8312   68.9070 H   0  0  0  0  0  0  0  0  0  0  0  0
   -1.3467   67.1556   66.8212 H   0  0  0  0  0  0  0  0  0  0  0  0
    2.4220   68.5602   68.1725 H   0  0  0  0  0  0  0  0  0  0  0  0
    2.2084   67.2314   70.2589 H   0  0  0  0  0  0  0  0  0  0  0  0
   -0.1838   68.5872   65.5289 H   0  0  0  0  0  0  0  0  0  0  0  0
    0.8523   69.7627   66.4106 H   0  0  0  0  0  0  0  0  0  0  0  0
    1.2783   66.1664   64.9337 H   0  0  0  0  0  0  0  0  0  0  0  0
    5.0035   68.7456   64.1093 H   0  0  0  0  0  0  0  0  0  0  0  0
    3.1904   70.0561   65.4334 H   0  0  0  0  0  0  0  0  0  0  0  0
  2  1  2  0
  4  3  2  0
  5  4  1  0
  6  5  1  0
  7  6  1  0
  7  1  1  0
  8  7  1  0
  9  8  1  0
  9  5  2  0
 10  9  1  0
 11 10  2  0
 11  3  1  0
 13 12  1  0
 13  3  1  0
 14 11  1  0
 15 14  1  0
 16  1  1  0
 17 16  1  0
 18 17  1  0
 19 18  2  0
 20 19  1  0
 21 20  2  0
 22 21  1  0
 23 18  1  0
 23 22  2  0
 24 21  1  0
 25 24  1  0
 26 25  2  0
 27 26  1  0
 28 27  1  0
 29 28  2  0
 29 25  1  0
  4 30  1  0
  7 31  1  6
  8 32  1  0
  8 33  1  0
 10 34  1  0
 12 35  1  0
 12 36  1  0
 12 37  1  0
 15 38  1  0
 15 39  1  0
 15 40  1  0
 16 41  1  0
 16 42  1  0
 17 43  1  0
 17 44  1  0
 19 45  1  0
 20 46  1  0
 22 47  1  0
 23 48  1  0
 24 49  1  0
 24 50  1  0
 26 51  1  0
 28 52  1  0
 29 53  1  0
M  CHG  1  21   1
M  END
>  <score>  (3) 
-8.708

$$$$
=
     RDKit          3D

 53 56  0  0  0  0  0  0  0  0999 V2000
    1.3540   63.3980   70.5580 C   0  0  0  0  0  0  0  0  0  0  0  0
    1.6020   62.7820   69.5130 O   0  0  0  0  0  0  0  0  0  0  0  0
    2.0760   58.5990   72.4890 C   0  0  0  0  0  0  0  0  0  0  0  0
    3.0000   59.4980   71.9570 C   0  0  0  0  0  0  0  0  0  0  0  0
    2.7730   60.8460   72.1450 C   0  0  0  0  0  0  0  0  0  0  0  0
    3.7040   62.1780   71.4600 S   0  0  0  0  0  0  0  0  0  0  0  0
    2.3330   63.3630   71.7390 C   0  0  2  0  0  0  0  0  0  0  0  0
    1.6240   62.8110   72.9970 C   0  0  0  0  0  0  0  0  0  0  0  0
    1.6730   61.3070   72.8720 C   0  0  0  0  0  0  0  0  0  0  0  0
    0.7510   60.4120   73.4090 C   0  0  0  0  0  0  0  0  0  0  0  0
    0.9370   59.0420   73.1940 C   0  0  0  0  0  0  0  0  0  0  0  0
    3.0890   57.1400   71.0320 C   0  0  0  0  0  0  0  0  0  0  0  0
    2.2680   57.2690   72.1990 O   0  0  0  0  0  0  0  0  0  0  0  0
    0.0370   58.0760   73.5620 O   0  0  0  0  0  0  0  0  0  0  0  0
   -1.0770   58.5180   74.3340 C   0  0  0  0  0  0  0  0  0  0  0  0
    0.0140   64.1070   70.6990 C   0  0  0  0  0  0  0  0  0  0  0  0
    0.1990   65.6060   70.9530 C   0  0  0  0  0  0  0  0  0  0  0  0
    0.3120   66.4290   69.6850 C   0  0  0  0  0  0  0  0  0  0  0  0
    1.4490   67.1850   69.4070 C   0  0  0  0  0  0  0  0  0  0  0  0
    1.5240   67.9120   68.2210 C   0  0  0  0  0  0  0  0  0  0  0  0
    0.5070   67.8880   67.3290 N   0  0  0  0  0  4  0  0  0  0  0  0
   -0.6020   67.1530   67.5720 C   0  0  0  0  0  0  0  0  0  0  0  0
   -0.7220   66.4230   68.7470 C   0  0  0  0  0  0  0  0  0  0  0  0
    0.6030   68.6680   66.0700 C   0  0  0  0  0  0  0  0  0  0  0  0
    1.8660   68.3070   65.3480 C   0  0  0  0  0  0  0  0  0  0  0  0
    2.0320   67.1880   64.5490 C   0  0  0  0  0  0  0  0  0  0  0  0
    3.6050   67.0710   63.8870 S   0  0  0  0  0  0  0  0  0  0  0  0
    4.0880   68.5270   64.6350 C   0  0  0  0  0  0  0  0  0  0  0  0
    3.0730   69.0870   65.3790 C   0  0  0  0  0  0  0  0  0  0  0  0
    3.8826   59.1434   71.4045 H   0  0  0  0  0  0  0  0  0  0  0  0
    2.6998   64.3938   71.8526 H   0  0  0  0  0  0  0  0  0  0  0  0
    2.1497   63.1368   73.9067 H   0  0  0  0  0  0  0  0  0  0  0  0
    0.5893   63.1770   73.0713 H   0  0  0  0  0  0  0  0  0  0  0  0
   -0.1081   60.7756   73.9918 H   0  0  0  0  0  0  0  0  0  0  0  0
    4.1336   56.9759   71.3349 H   0  0  0  0  0  0  0  0  0  0  0  0
    2.7424   56.2853   70.4325 H   0  0  0  0  0  0  0  0  0  0  0  0
    3.0213   58.0598   70.4325 H   0  0  0  0  0  0  0  0  0  0  0  0
   -0.8415   58.4246   75.4044 H   0  0  0  0  0  0  0  0  0  0  0  0
   -1.2933   59.5701   74.0966 H   0  0  0  0  0  0  0  0  0  0  0  0
   -1.9558   57.9004   74.0966 H   0  0  0  0  0  0  0  0  0  0  0  0
   -0.5629   63.9695   69.7726 H   0  0  0  0  0  0  0  0  0  0  0  0
   -0.5184   63.6733   71.5583 H   0  0  0  0  0  0  0  0  0  0  0  0
   -0.6654   65.9702   71.5277 H   0  0  0  0  0  0  0  0  0  0  0  0
    1.1463   65.7252   71.4994 H   0  0  0  0  0  0  0  0  0  0  0  0
    2.2848   67.2077   70.1218 H   0  0  0  0  0  0  0  0  0  0  0  0
    2.4205   68.5125   68.0073 H   0  0  0  0  0  0  0  0  0  0  0  0
   -1.4160   67.1334   66.8324 H   0  0  0  0  0  0  0  0  0  0  0  0
   -1.6339   65.8386   68.9392 H   0  0  0  0  0  0  0  0  0  0  0  0
   -0.2622   68.4385   65.4306 H   0  0  0  0  0  0  0  0  0  0  0  0
    0.6125   69.7422   66.3064 H   0  0  0  0  0  0  0  0  0  0  0  0
    1.2364   66.4522   64.3601 H   0  0  0  0  0  0  0  0  0  0  0  0
    5.0914   68.9664   64.5348 H   0  0  0  0  0  0  0  0  0  0  0  0
    3.1751   70.0296   65.9368 H   0  0  0  0  0  0  0  0  0  0  0  0
  2  1  2  0
  4  3  2  0
  5  4  1  0
  6  5  1  0
  7  6  1  0
  7  1  1  0
  8  7  1  0
  9  8  1  0
  9  5  2  0
 10  9  1  0
 11 10  2  0
 11  3  1  0
 13 12  1  0
 13  3  1  0
 14 11  1  0
 15 14  1  0
 16  1  1  0
 17 16  1  0
 18 17  1  0
 19 18  2  0
 20 19  1  0
 21 20  2  0
 22 21  1  0
 23 18  1  0
 23 22  2  0
 24 21  1  0
 25 24  1  0
 26 25  2  0
 27 26  1  0
 28 27  1  0
 29 28  2  0
 29 25  1  0
  4 30  1  0
  7 31  1  1
  8 32  1  0
  8 33  1  0
 10 34  1  0
 12 35  1  0
 12 36  1  0
 12 37  1  0
 15 38  1  0
 15 39  1  0
 15 40  1  0
 16 41  1  0
 16 42  1  0
 17 43  1  0
 17 44  1  0
 19 45  1  0
 20 46  1  0
 22 47  1  0
 23 48  1  0
 24 49  1  0
 24 50  1  0
 26 51  1  0
 28 52  1  0
 29 53  1  0
M  CHG  1  21   1
M  END
>  <score>  (4) 
-8.432

$$$$
=
     RDKit          3D

 53 56  0  0  0  0  0  0  0  0999 V2000
    0.6990   67.0880   67.9170 C   0  0  0  0  0  0  0  0  0  0  0  0
    1.6480   66.4330   67.4670 O   0  0  0  0  0  0  0  0  0  0  0  0
    4.6520   69.3450   65.3550 C   0  0  0  0  0  0  0  0  0  0  0  0
    3.3850   68.9770   64.9020 C   0  0  0  0  0  0  0  0  0  0  0  0
    2.3330   69.0520   65.7920 C   0  0  0  0  0  0  0  0  0  0  0  0
    0.6760   68.5170   65.5130 S   0  0  0  0  0  0  0  0  0  0  0  0
    0.3290   68.4490   67.3110 C   0  0  2  0  0  0  0  0  0  0  0  0
    1.2340   69.5540   67.9000 C   0  0  0  0  0  0  0  0  0  0  0  0
    2.5130   69.5100   67.0990 C   0  0  0  0  0  0  0  0  0  0  0  0
    3.7750   69.8830   67.5530 C   0  0  0  0  0  0  0  0  0  0  0  0
    4.8650   69.7750   66.6820 C   0  0  0  0  0  0  0  0  0  0  0  0
    5.3400   68.1950   63.4890 C   0  0  0  0  0  0  0  0  0  0  0  0
    5.6990   69.1620   64.4840 O   0  0  0  0  0  0  0  0  0  0  0  0
    6.1680   69.9900   67.0490 O   0  0  0  0  0  0  0  0  0  0  0  0
    6.3680   70.7940   68.2090 C   0  0  0  0  0  0  0  0  0  0  0  0
   -0.0330   66.5780   69.1510 C   0  0  0  0  0  0  0  0  0  0  0  0
    0.9230   66.4070   70.3370 C   0  0  0  0  0  0  0  0  0  0  0  0
    0.9220   65.0100   70.9230 C   0  0  0  0  0  0  0  0  0  0  0  0
    1.5230   63.9420   70.2600 C   0  0  0  0  0  0  0  0  0  0  0  0
    1.5190   62.6760   70.8420 C   0  0  0  0  0  0  0  0  0  0  0  0
    0.9460   62.4710   72.0500 N   0  0  0  0  0  4  0  0  0  0  0  0
    0.3670   63.4940   72.7180 C   0  0  0  0  0  0  0  0  0  0  0  0
    0.3390   64.7700   72.1690 C   0  0  0  0  0  0  0  0  0  0  0  0
    0.9520   61.1160   72.6560 C   0  0  0  0  0  0  0  0  0  0  0  0
   -0.2440   60.9550   73.5440 C   0  0  0  0  0  0  0  0  0  0  0  0
   -0.1960   60.6590   74.8960 C   0  0  0  0  0  0  0  0  0  0  0  0
   -1.7480   60.5320   75.6050 S   0  0  0  0  0  0  0  0  0  0  0  0
   -2.5140   60.8940   74.1240 C   0  0  0  0  0  0  0  0  0  0  0  0
   -1.6060   61.1010   73.1100 C   0  0  0  0  0  0  0  0  0  0  0  0
    3.2293   68.6375   63.8673 H   0  0  0  0  0  0  0  0  0  0  0  0
   -0.7403   68.5903   67.5269 H   0  0  0  0  0  0  0  0  0  0  0  0
    0.7524   70.5378   67.7986 H   0  0  0  0  0  0  0  0  0  0  0  0
    1.4224   69.3939   68.9719 H   0  0  0  0  0  0  0  0  0  0  0  0
    3.9130   70.2561   68.5785 H   0  0  0  0  0  0  0  0  0  0  0  0
    4.9976   67.2726   63.9809 H   0  0  0  0  0  0  0  0  0  0  0  0
    4.5315   68.5977   62.8612 H   0  0  0  0  0  0  0  0  0  0  0  0
    6.2154   67.9725   62.8612 H   0  0  0  0  0  0  0  0  0  0  0  0
    6.2157   70.1818   69.1101 H   0  0  0  0  0  0  0  0  0  0  0  0
    7.3929   71.1935   68.2060 H   0  0  0  0  0  0  0  0  0  0  0  0
    5.6497   71.6271   68.2060 H   0  0  0  0  0  0  0  0  0  0  0  0
   -0.8179   67.2984   69.4249 H   0  0  0  0  0  0  0  0  0  0  0  0
   -0.4697   65.5967   68.9138 H   0  0  0  0  0  0  0  0  0  0  0  0
    1.9429   66.6405   69.9975 H   0  0  0  0  0  0  0  0  0  0  0  0
    0.5782   67.0882   71.1289 H   0  0  0  0  0  0  0  0  0  0  0  0
    1.9989   64.0977   69.2806 H   0  0  0  0  0  0  0  0  0  0  0  0
    1.9875   61.8331   70.3127 H   0  0  0  0  0  0  0  0  0  0  0  0
   -0.0857   63.3146   73.7044 H   0  0  0  0  0  0  0  0  0  0  0  0
   -0.1434   65.5928   72.7169 H   0  0  0  0  0  0  0  0  0  0  0  0
    0.9202   60.3587   71.8588 H   0  0  0  0  0  0  0  0  0  0  0  0
    1.8679   60.9871   73.2514 H   0  0  0  0  0  0  0  0  0  0  0  0
    0.7411   60.5202   75.4551 H   0  0  0  0  0  0  0  0  0  0  0  0
   -3.6047   60.9548   73.9946 H   0  0  0  0  0  0  0  0  0  0  0  0
   -1.8926   61.3514   72.0779 H   0  0  0  0  0  0  0  0  0  0  0  0
  2  1  2  0
  4  3  2  0
  5  4  1  0
  6  5  1  0
  7  6  1  0
  7  1  1  0
  8  7  1  0
  9  8  1  0
  9  5  2  0
 10  9  1  0
 11 10  2  0
 11  3  1  0
 13 12  1  0
 13  3  1  0
 14 11  1  0
 15 14  1  0
 16  1  1  0
 17 16  1  0
 18 17  1  0
 19 18  2  0
 20 19  1  0
 21 20  2  0
 22 21  1  0
 23 18  1  0
 23 22  2  0
 24 21  1  0
 25 24  1  0
 26 25  2  0
 27 26  1  0
 28 27  1  0
 29 28  2  0
 29 25  1  0
  4 30  1  0
  7 31  1  6
  8 32  1  0
  8 33  1  0
 10 34  1  0
 12 35  1  0
 12 36  1  0
 12 37  1  0
 15 38  1  0
 15 39  1  0
 15 40  1  0
 16 41  1  0
 16 42  1  0
 17 43  1  0
 17 44  1  0
 19 45  1  0
 20 46  1  0
 22 47  1  0
 23 48  1  0
 24 49  1  0
 24 50  1  0
 26 51  1  0
 28 52  1  0
 29 53  1  0
M  CHG  1  21   1
M  END
>  <score>  (5) 
-8.109

$$$$
=
     RDKit          3D

 53 56  0  0  0  0  0  0  0  0999 V2000
    3.1920   62.4150   69.9550 C   0  0  0  0  0  0  0  0  0  0  0  0
    2.3030   62.3450   69.0970 O   0  0  0  0  0  0  0  0  0  0  0  0
    2.3210   58.6160   73.4320 C   0  0  0  0  0  0  0  0  0  0  0  0
    2.5270   58.5390   72.0550 C   0  0  0  0  0  0  0  0  0  0  0  0
    3.3710   59.4650   71.4740 C   0  0  0  0  0  0  0  0  0  0  0  0
    3.6850   59.6700   69.7510 S   0  0  0  0  0  0  0  0  0  0  0  0
    4.3160   61.3720   70.0050 C   0  0  2  0  0  0  0  0  0  0  0  0
    4.9320   61.3260   71.4220 C   0  0  0  0  0  0  0  0  0  0  0  0
    4.0270   60.4340   72.2370 C   0  0  0  0  0  0  0  0  0  0  0  0
    3.8260   60.5100   73.6130 C   0  0  0  0  0  0  0  0  0  0  0  0
    2.9430   59.6090   74.2170 C   0  0  0  0  0  0  0  0  0  0  0  0
    1.7280   56.4040   73.6080 C   0  0  0  0  0  0  0  0  0  0  0  0
    1.3980   57.7500   73.9700 O   0  0  0  0  0  0  0  0  0  0  0  0
    2.5690   59.6650   75.5350 O   0  0  0  0  0  0  0  0  0  0  0  0
    3.4060   58.9670   76.4540 C   0  0  0  0  0  0  0  0  0  0  0  0
    3.0990   63.4890   71.0310 C   0  0  0  0  0  0  0  0  0  0  0  0
    1.6430   63.8730   71.3130 C   0  0  0  0  0  0  0  0  0  0  0  0
    0.9790   63.0120   72.3680 C   0  0  0  0  0  0  0  0  0  0  0  0
    0.2790   61.8560   72.0290 C   0  0  0  0  0  0  0  0  0  0  0  0
   -0.3000   61.0790   73.0310 C   0  0  0  0  0  0  0  0  0  0  0  0
   -0.1850   61.4290   74.3320 N   0  0  0  0  0  4  0  0  0  0  0  0
    0.5000   62.5400   74.6870 C   0  0  0  0  0  0  0  0  0  0  0  0
    1.0830   63.3490   73.7200 C   0  0  0  0  0  0  0  0  0  0  0  0
   -0.8070   60.5890   75.3860 C   0  0  0  0  0  0  0  0  0  0  0  0
   -2.2980   60.6120   75.2360 C   0  0  0  0  0  0  0  0  0  0  0  0
   -3.1010   61.7190   75.4520 C   0  0  0  0  0  0  0  0  0  0  0  0
   -4.7620   61.3940   75.2050 S   0  0  0  0  0  0  0  0  0  0  0  0
   -4.4380   59.7740   74.7790 C   0  0  0  0  0  0  0  0  0  0  0  0
   -3.0930   59.4850   74.8310 C   0  0  0  0  0  0  0  0  0  0  0  0
    2.0325   57.7646   71.4502 H   0  0  0  0  0  0  0  0  0  0  0  0
    5.0296   61.6650   69.2208 H   0  0  0  0  0  0  0  0  0  0  0  0
    5.9486   60.9076   71.3840 H   0  0  0  0  0  0  0  0  0  0  0  0
    5.0108   62.3314   71.8613 H   0  0  0  0  0  0  0  0  0  0  0  0
    4.3526   61.2656   74.2144 H   0  0  0  0  0  0  0  0  0  0  0  0
    1.8749   55.8049   74.5188 H   0  0  0  0  0  0  0  0  0  0  0  0
    0.9090   55.9729   73.0136 H   0  0  0  0  0  0  0  0  0  0  0  0
    2.6536   56.4006   73.0136 H   0  0  0  0  0  0  0  0  0  0  0  0
    3.1078   59.2157   77.4832 H   0  0  0  0  0  0  0  0  0  0  0  0
    3.3028   57.8836   76.2939 H   0  0  0  0  0  0  0  0  0  0  0  0
    4.4532   59.2632   76.2939 H   0  0  0  0  0  0  0  0  0  0  0  0
    3.5545   63.1083   71.9570 H   0  0  0  0  0  0  0  0  0  0  0  0
    3.6301   64.3837   70.6740 H   0  0  0  0  0  0  0  0  0  0  0  0
    1.6194   64.9188   71.6531 H   0  0  0  0  0  0  0  0  0  0  0  0
    1.0842   63.7229   70.3775 H   0  0  0  0  0  0  0  0  0  0  0  0
    0.1836   61.5576   70.9745 H   0  0  0  0  0  0  0  0  0  0  0  0
   -0.8572   60.1701   72.7601 H   0  0  0  0  0  0  0  0  0  0  0  0
    0.5962   62.8050   75.7503 H   0  0  0  0  0  0  0  0  0  0  0  0
    1.6276   64.2567   74.0192 H   0  0  0  0  0  0  0  0  0  0  0  0
   -0.4458   59.5545   75.2896 H   0  0  0  0  0  0  0  0  0  0  0  0
   -0.5343   60.9849   76.3754 H   0  0  0  0  0  0  0  0  0  0  0  0
   -2.7119   62.7035   75.7509 H   0  0  0  0  0  0  0  0  0  0  0  0
   -5.2127   59.0461   74.4961 H   0  0  0  0  0  0  0  0  0  0  0  0
   -2.6721   58.4980   74.5887 H   0  0  0  0  0  0  0  0  0  0  0  0
  2  1  2  0
  4  3  2  0
  5  4  1  0
  6  5  1  0
  7  6  1  0
  7  1  1  0
  8  7  1  0
  9  8  1  0
  9  5  2  0
 10  9  1  0
 11 10  2  0
 11  3  1  0
 13 12  1  0
 13  3  1  0
 14 11  1  0
 15 14  1  0
 16  1  1  0
 17 16  1  0
 18 17  1  0
 19 18  2  0
 20 19  1  0
 21 20  2  0
 22 21  1  0
 23 18  1  0
 23 22  2  0
 24 21  1  0
 25 24  1  0
 26 25  2  0
 27 26  1  0
 28 27  1  0
 29 28  2  0
 29 25  1  0
  4 30  1  0
  7 31  1  6
  8 32  1  0
  8 33  1  0
 10 34  1  0
 12 35  1  0
 12 36  1  0
 12 37  1  0
 15 38  1  0
 15 39  1  0
 15 40  1  0
 16 41  1  0
 16 42  1  0
 17 43  1  0
 17 44  1  0
 19 45  1  0
 20 46  1  0
 22 47  1  0
 23 48  1  0
 24 49  1  0
 24 50  1  0
 26 51  1  0
 28 52  1  0
 29 53  1  0
M  CHG  1  21   1
M  END
>  <score>  (6) 
-7.969

$$$$
=
     RDKit          3D

 53 56  0  0  0  0  0  0  0  0999 V2000
    4.0400   64.5090   64.8850 C   0  0  0  0  0  0  0  0  0  0  0  0
    5.1910   64.1220   64.6440 O   0  0  0  0  0  0  0  0  0  0  0  0
    4.7750   69.6190   65.6760 C   0  0  0  0  0  0  0  0  0  0  0  0
    5.0390   68.8410   64.5500 C   0  0  0  0  0  0  0  0  0  0  0  0
    4.2020   67.7740   64.2890 C   0  0  0  0  0  0  0  0  0  0  0  0
    4.3990   66.5640   63.0220 S   0  0  0  0  0  0  0  0  0  0  0  0
    3.2840   65.3910   63.8820 C   0  0  2  0  0  0  0  0  0  0  0  0
    2.2920   66.3100   64.6300 C   0  0  0  0  0  0  0  0  0  0  0  0
    3.1040   67.4920   65.1050 C   0  0  0  0  0  0  0  0  0  0  0  0
    2.8340   68.2710   66.2280 C   0  0  0  0  0  0  0  0  0  0  0  0
    3.6940   69.3310   66.5350 C   0  0  0  0  0  0  0  0  0  0  0  0
    6.5740   70.1600   66.9980 C   0  0  0  0  0  0  0  0  0  0  0  0
    5.6810   70.6100   65.9720 O   0  0  0  0  0  0  0  0  0  0  0  0
    3.6060   70.0860   67.6760 O   0  0  0  0  0  0  0  0  0  0  0  0
    2.5190   69.7820   68.5480 C   0  0  0  0  0  0  0  0  0  0  0  0
    3.4190   64.1880   66.2380 C   0  0  0  0  0  0  0  0  0  0  0  0
    4.1600   63.0410   66.9340 C   0  0  0  0  0  0  0  0  0  0  0  0
    3.7810   62.8670   68.3910 C   0  0  0  0  0  0  0  0  0  0  0  0
    4.5440   63.4260   69.4140 C   0  0  0  0  0  0  0  0  0  0  0  0
    4.1510   63.2610   70.7400 C   0  0  0  0  0  0  0  0  0  0  0  0
    3.0310   62.5690   71.0490 N   0  0  0  0  0  4  0  0  0  0  0  0
    2.2680   62.0260   70.0730 C   0  0  0  0  0  0  0  0  0  0  0  0
    2.6290   62.1570   68.7390 C   0  0  0  0  0  0  0  0  0  0  0  0
    2.6260   62.4030   72.4680 C   0  0  0  0  0  0  0  0  0  0  0  0
    2.3490   60.9570   72.7470 C   0  0  0  0  0  0  0  0  0  0  0  0
    3.3140   59.9730   72.8770 C   0  0  0  0  0  0  0  0  0  0  0  0
    2.6520   58.4250   73.1790 S   0  0  0  0  0  0  0  0  0  0  0  0
    1.0610   59.0440   73.1690 C   0  0  0  0  0  0  0  0  0  0  0  0
    1.0360   60.4000   72.9330 C   0  0  0  0  0  0  0  0  0  0  0  0
    5.8882   69.0699   63.8894 H   0  0  0  0  0  0  0  0  0  0  0  0
    2.8010   64.6965   63.1788 H   0  0  0  0  0  0  0  0  0  0  0  0
    1.4921   66.6424   63.9521 H   0  0  0  0  0  0  0  0  0  0  0  0
    1.8093   65.7871   65.4688 H   0  0  0  0  0  0  0  0  0  0  0  0
    1.9608   68.0566   66.8616 H   0  0  0  0  0  0  0  0  0  0  0  0
    6.1393   70.3791   67.9844 H   0  0  0  0  0  0  0  0  0  0  0  0
    6.7300   69.0757   66.8987 H   0  0  0  0  0  0  0  0  0  0  0  0
    7.5383   70.6798   66.8987 H   0  0  0  0  0  0  0  0  0  0  0  0
    2.8502   69.8746   69.5929 H   0  0  0  0  0  0  0  0  0  0  0  0
    1.6924   70.4834   68.3618 H   0  0  0  0  0  0  0  0  0  0  0  0
    2.1762   68.7535   68.3618 H   0  0  0  0  0  0  0  0  0  0  0  0
    3.4660   65.0835   66.8751 H   0  0  0  0  0  0  0  0  0  0  0  0
    2.3757   63.8791   66.0762 H   0  0  0  0  0  0  0  0  0  0  0  0
    3.9314   62.1060   66.4015 H   0  0  0  0  0  0  0  0  0  0  0  0
    5.2317   63.2874   66.9076 H   0  0  0  0  0  0  0  0  0  0  0  0
    5.4540   63.9959   69.1752 H   0  0  0  0  0  0  0  0  0  0  0  0
    4.7589   63.6988   71.5455 H   0  0  0  0  0  0  0  0  0  0  0  0
    1.3533   61.4757   70.3387 H   0  0  0  0  0  0  0  0  0  0  0  0
    2.0071   61.7011   67.9546 H   0  0  0  0  0  0  0  0  0  0  0  0
    3.4371   62.7532   73.1234 H   0  0  0  0  0  0  0  0  0  0  0  0
    1.7169   62.9921   72.6592 H   0  0  0  0  0  0  0  0  0  0  0  0
    4.3937   60.1664   72.7947 H   0  0  0  0  0  0  0  0  0  0  0  0
    0.1619   58.4316   73.3319 H   0  0  0  0  0  0  0  0  0  0  0  0
    0.1110   60.9939   72.8912 H   0  0  0  0  0  0  0  0  0  0  0  0
  2  1  2  0
  4  3  2  0
  5  4  1  0
  6  5  1  0
  7  6  1  0
  7  1  1  0
  8  7  1  0
  9  8  1  0
  9  5  2  0
 10  9  1  0
 11 10  2  0
 11  3  1  0
 13 12  1  0
 13  3  1  0
 14 11  1  0
 15 14  1  0
 16  1  1  0
 17 16  1  0
 18 17  1  0
 19 18  2  0
 20 19  1  0
 21 20  2  0
 22 21  1  0
 23 18  1  0
 23 22  2  0
 24 21  1  0
 25 24  1  0
 26 25  2  0
 27 26  1  0
 28 27  1  0
 29 28  2  0
 29 25  1  0
  4 30  1  0
  7 31  1  6
  8 32  1  0
  8 33  1  0
 10 34  1  0
 12 35  1  0
 12 36  1  0
 12 37  1  0
 15 38  1  0
 15 39  1  0
 15 40  1  0
 16 41  1  0
 16 42  1  0
 17 43  1  0
 17 44  1  0
 19 45  1  0
 20 46  1  0
 22 47  1  0
 23 48  1  0
 24 49  1  0
 24 50  1  0
 26 51  1  0
 28 52  1  0
 29 53  1  0
M  CHG  1  21   1
M  END
>  <score>  (7) 
-7.361

$$$$
=
     RDKit          3D

 53 56  0  0  0  0  0  0  0  0999 V2000
    3.8350   59.4390   70.7840 C   0  0  0  0  0  0  0  0  0  0  0  0
    3.6400   59.2290   69.5800 O   0  0  0  0  0  0  0  0  0  0  0  0
    1.0520   63.5940   72.2900 C   0  0  0  0  0  0  0  0  0  0  0  0
    1.9820   62.8350   72.9990 C   0  0  0  0  0  0  0  0  0  0  0  0
    3.0380   62.2870   72.3000 C   0  0  0  0  0  0  0  0  0  0  0  0
    4.2600   61.1820   72.9290 S   0  0  0  0  0  0  0  0  0  0  0  0
    4.7060   60.6150   71.2440 C   0  0  2  0  0  0  0  0  0  0  0  0
    4.4340   61.8520   70.3590 C   0  0  0  0  0  0  0  0  0  0  0  0
    3.1980   62.5040   70.9290 C   0  0  0  0  0  0  0  0  0  0  0  0
    2.2730   63.2660   70.2190 C   0  0  0  0  0  0  0  0  0  0  0  0
    1.1710   63.7960   70.8990 C   0  0  0  0  0  0  0  0  0  0  0  0
    0.2380   64.0350   74.3930 C   0  0  0  0  0  0  0  0  0  0  0  0
   -0.0450   64.0410   72.9880 O   0  0  0  0  0  0  0  0  0  0  0  0
    0.1330   64.4520   70.2890 O   0  0  0  0  0  0  0  0  0  0  0  0
    0.3090   65.8520   70.0860 C   0  0  0  0  0  0  0  0  0  0  0  0
    3.2870   58.4510   71.8050 C   0  0  0  0  0  0  0  0  0  0  0  0
    1.9980   58.9720   72.4500 C   0  0  0  0  0  0  0  0  0  0  0  0
    1.1920   57.8980   73.1530 C   0  0  0  0  0  0  0  0  0  0  0  0
   -0.0330   58.1830   73.7520 C   0  0  0  0  0  0  0  0  0  0  0  0
   -0.7550   57.1640   74.3710 C   0  0  0  0  0  0  0  0  0  0  0  0
   -0.2840   55.8960   74.3910 N   0  0  0  0  0  4  0  0  0  0  0  0
    0.8970   55.5930   73.8070 C   0  0  0  0  0  0  0  0  0  0  0  0
    1.6540   56.5800   73.1890 C   0  0  0  0  0  0  0  0  0  0  0  0
   -1.0660   54.8220   75.0540 C   0  0  0  0  0  0  0  0  0  0  0  0
   -0.1880   54.0790   76.0150 C   0  0  0  0  0  0  0  0  0  0  0  0
    0.2000   54.5450   77.2600 C   0  0  0  0  0  0  0  0  0  0  0  0
    1.2160   53.4500   78.0940 S   0  0  0  0  0  0  0  0  0  0  0  0
    1.1370   52.3200   76.8160 C   0  0  0  0  0  0  0  0  0  0  0  0
    0.3590   52.7720   75.7750 C   0  0  0  0  0  0  0  0  0  0  0  0
    1.8772   62.6778   74.0826 H   0  0  0  0  0  0  0  0  0  0  0  0
    5.7439   60.2540   71.1949 H   0  0  0  0  0  0  0  0  0  0  0  0
    5.2862   62.5463   70.3994 H   0  0  0  0  0  0  0  0  0  0  0  0
    4.2932   61.5715   69.3047 H   0  0  0  0  0  0  0  0  0  0  0  0
    2.4066   63.4479   69.1424 H   0  0  0  0  0  0  0  0  0  0  0  0
   -0.7060   64.0550   74.9573 H   0  0  0  0  0  0  0  0  0  0  0  0
    0.7996   63.1247   74.6500 H   0  0  0  0  0  0  0  0  0  0  0  0
    0.8377   64.9206   74.6500 H   0  0  0  0  0  0  0  0  0  0  0  0
    0.3727   66.3586   71.0603 H   0  0  0  0  0  0  0  0  0  0  0  0
    1.2362   66.0268   69.5205 H   0  0  0  0  0  0  0  0  0  0  0  0
   -0.5461   66.2509   69.5205 H   0  0  0  0  0  0  0  0  0  0  0  0
    3.0749   57.4963   71.3014 H   0  0  0  0  0  0  0  0  0  0  0  0
    4.0400   58.3160   72.5954 H   0  0  0  0  0  0  0  0  0  0  0  0
    2.2655   59.7438   73.1868 H   0  0  0  0  0  0  0  0  0  0  0  0
    1.3690   59.3670   71.6386 H   0  0  0  0  0  0  0  0  0  0  0  0
   -0.4293   59.2090   73.7365 H   0  0  0  0  0  0  0  0  0  0  0  0
   -1.7189   57.3935   74.8487 H   0  0  0  0  0  0  0  0  0  0  0  0
    1.2617   54.5553   73.8214 H   0  0  0  0  0  0  0  0  0  0  0  0
    2.6188   56.3235   72.7272 H   0  0  0  0  0  0  0  0  0  0  0  0
   -1.9105   55.2681   75.5998 H   0  0  0  0  0  0  0  0  0  0  0  0
   -1.4458   54.1245   74.2929 H   0  0  0  0  0  0  0  0  0  0  0  0
   -0.1122   55.5170   77.6696 H   0  0  0  0  0  0  0  0  0  0  0  0
    1.6478   51.3458   76.8241 H   0  0  0  0  0  0  0  0  0  0  0  0
    0.1753   52.1945   74.8570 H   0  0  0  0  0  0  0  0  0  0  0  0
  2  1  2  0
  4  3  2  0
  5  4  1  0
  6  5  1  0
  7  6  1  0
  7  1  1  0
  8  7  1  0
  9  8  1  0
  9  5  2  0
 10  9  1  0
 11 10  2  0
 11  3  1  0
 13 12  1  0
 13  3  1  0
 14 11  1  0
 15 14  1  0
 16  1  1  0
 17 16  1  0
 18 17  1  0
 19 18  2  0
 20 19  1  0
 21 20  2  0
 22 21  1  0
 23 18  1  0
 23 22  2  0
 24 21  1  0
 25 24  1  0
 26 25  2  0
 27 26  1  0
 28 27  1  0
 29 28  2  0
 29 25  1  0
  4 30  1  0
  7 31  1  1
  8 32  1  0
  8 33  1  0
 10 34  1  0
 12 35  1  0
 12 36  1  0
 12 37  1  0
 15 38  1  0
 15 39  1  0
 15 40  1  0
 16 41  1  0
 16 42  1  0
 17 43  1  0
 17 44  1  0
 19 45  1  0
 20 46  1  0
 22 47  1  0
 23 48  1  0
 24 49  1  0
 24 50  1  0
 26 51  1  0
 28 52  1  0
 29 53  1  0
M  CHG  1  21   1
M  END
>  <score>  (8) 
-7.359

$$$$
=
     RDKit          3D

 53 56  0  0  0  0  0  0  0  0999 V2000
    1.1770   59.8060   74.4430 C   0  0  0  0  0  0  0  0  0  0  0  0
    1.6990   59.0230   73.6380 O   0  0  0  0  0  0  0  0  0  0  0  0
    0.9680   63.6950   70.9630 C   0  0  0  0  0  0  0  0  0  0  0  0
    0.5410   63.6570   72.2890 C   0  0  0  0  0  0  0  0  0  0  0  0
    1.2550   62.8780   73.1770 C   0  0  0  0  0  0  0  0  0  0  0  0
    0.8440   62.5510   74.8600 S   0  0  0  0  0  0  0  0  0  0  0  0
    1.9200   61.0680   74.9010 C   0  0  2  0  0  0  0  0  0  0  0  0
    3.0500   61.4090   73.9030 C   0  0  0  0  0  0  0  0  0  0  0  0
    2.3900   62.1690   72.7770 C   0  0  0  0  0  0  0  0  0  0  0  0
    2.8220   62.2080   71.4540 C   0  0  0  0  0  0  0  0  0  0  0  0
    2.0890   62.9570   70.5270 C   0  0  0  0  0  0  0  0  0  0  0  0
    0.3710   65.8020   70.2670 C   0  0  0  0  0  0  0  0  0  0  0  0
    0.1820   64.3940   70.0780 O   0  0  0  0  0  0  0  0  0  0  0  0
    2.3400   62.9720   69.1790 O   0  0  0  0  0  0  0  0  0  0  0  0
    3.5180   62.2920   68.7530 C   0  0  0  0  0  0  0  0  0  0  0  0
   -0.1700   59.4490   75.0560 C   0  0  0  0  0  0  0  0  0  0  0  0
   -1.2710   59.3970   73.9920 C   0  0  0  0  0  0  0  0  0  0  0  0
   -2.6260   59.8510   74.4960 C   0  0  0  0  0  0  0  0  0  0  0  0
   -3.5260   58.9570   75.0710 C   0  0  0  0  0  0  0  0  0  0  0  0
   -4.7550   59.4170   75.5410 C   0  0  0  0  0  0  0  0  0  0  0  0
   -5.0830   60.7260   75.4540 N   0  0  0  0  0  4  0  0  0  0  0  0
   -4.2220   61.6150   74.9100 C   0  0  0  0  0  0  0  0  0  0  0  0
   -2.9920   61.1970   74.4190 C   0  0  0  0  0  0  0  0  0  0  0  0
   -6.3960   61.2000   75.9610 C   0  0  0  0  0  0  0  0  0  0  0  0
   -7.1850   61.7970   74.8360 C   0  0  0  0  0  0  0  0  0  0  0  0
   -7.5860   63.1200   74.7610 C   0  0  0  0  0  0  0  0  0  0  0  0
   -8.4860   63.4650   73.3480 S   0  0  0  0  0  0  0  0  0  0  0  0
   -8.3360   61.8570   72.7950 C   0  0  0  0  0  0  0  0  0  0  0  0
   -7.6210   61.0740   73.6730 C   0  0  0  0  0  0  0  0  0  0  0  0
   -0.3382   64.2303   72.6179 H   0  0  0  0  0  0  0  0  0  0  0  0
    2.2780   60.8498   75.9180 H   0  0  0  0  0  0  0  0  0  0  0  0
    3.8149   62.0324   74.3890 H   0  0  0  0  0  0  0  0  0  0  0  0
    3.5546   60.5023   73.5379 H   0  0  0  0  0  0  0  0  0  0  0  0
    3.7235   61.6597   71.1431 H   0  0  0  0  0  0  0  0  0  0  0  0
    0.4012   66.0267   71.3434 H   0  0  0  0  0  0  0  0  0  0  0  0
    1.3186   66.1105   69.8013 H   0  0  0  0  0  0  0  0  0  0  0  0
   -0.4617   66.3495   69.8013 H   0  0  0  0  0  0  0  0  0  0  0  0
    4.0895   61.9621   69.6331 H   0  0  0  0  0  0  0  0  0  0  0  0
    3.2378   61.4167   68.1486 H   0  0  0  0  0  0  0  0  0  0  0  0
    4.1358   62.9724   68.1486 H   0  0  0  0  0  0  0  0  0  0  0  0
   -0.0933   58.4644   75.5404 H   0  0  0  0  0  0  0  0  0  0  0  0
   -0.4335   60.2249   75.7898 H   0  0  0  0  0  0  0  0  0  0  0  0
   -0.9761   60.0468   73.1549 H   0  0  0  0  0  0  0  0  0  0  0  0
   -1.3763   58.3448   73.6891 H   0  0  0  0  0  0  0  0  0  0  0  0
   -3.2677   57.8910   75.1540 H   0  0  0  0  0  0  0  0  0  0  0  0
   -5.4664   58.7069   75.9879 H   0  0  0  0  0  0  0  0  0  0  0  0
   -4.4980   62.6784   74.8558 H   0  0  0  0  0  0  0  0  0  0  0  0
   -2.3042   61.9276   73.9683 H   0  0  0  0  0  0  0  0  0  0  0  0
   -6.9514   60.3517   76.3875 H   0  0  0  0  0  0  0  0  0  0  0  0
   -6.2336   61.9623   76.7372 H   0  0  0  0  0  0  0  0  0  0  0  0
   -7.3505   63.8707   75.5297 H   0  0  0  0  0  0  0  0  0  0  0  0
   -8.7605   61.4899   71.8489 H   0  0  0  0  0  0  0  0  0  0  0  0
   -7.4063   60.0087   73.5026 H   0  0  0  0  0  0  0  0  0  0  0  0
  2  1  2  0
  4  3  2  0
  5  4  1  0
  6  5  1  0
  7  6  1  0
  7  1  1  0
  8  7  1  0
  9  8  1  0
  9  5  2  0
 10  9  1  0
 11 10  2  0
 11  3  1  0
 13 12  1  0
 13  3  1  0
 14 11  1  0
 15 14  1  0
 16  1  1  0
 17 16  1  0
 18 17  1  0
 19 18  2  0
 20 19  1  0
 21 20  2  0
 22 21  1  0
 23 18  1  0
 23 22  2  0
 24 21  1  0
 25 24  1  0
 26 25  2  0
 27 26  1  0
 28 27  1  0
 29 28  2  0
 29 25  1  0
  4 30  1  0
  7 31  1  1
  8 32  1  0
  8 33  1  0
 10 34  1  0
 12 35  1  0
 12 36  1  0
 12 37  1  0
 15 38  1  0
 15 39  1  0
 15 40  1  0
 16 41  1  0
 16 42  1  0
 17 43  1  0
 17 44  1  0
 19 45  1  0
 20 46  1  0
 22 47  1  0
 23 48  1  0
 24 49  1  0
 24 50  1  0
 26 51  1  0
 28 52  1  0
 29 53  1  0
M  CHG  1  21   1
M  END
>  <score>  (9) 
-6.905

$$$$
