=
     RDKit          3D

 39 40  0  0  0  0  0  0  0  0999 V2000
    3.2330   69.2970   65.6510 C   0  0  1  0  0  0  0  0  0  0  0  0
    4.3530   69.7330   66.5940 C   0  0  0  0  0  0  0  0  0  0  0  0
    5.7020   69.7930   66.2070 C   0  0  0  0  0  0  0  0  0  0  0  0
    6.6850   70.2120   67.1080 C   0  0  0  0  0  0  0  0  0  0  0  0
    6.3330   70.5810   68.4030 C   0  0  0  0  0  0  0  0  0  0  0  0
    5.0010   70.5400   68.8050 C   0  0  0  0  0  0  0  0  0  0  0  0
    4.0170   70.1210   67.9050 C   0  0  0  0  0  0  0  0  0  0  0  0
    7.5460   71.0960   69.5060 Cl  0  0  0  0  0  0  0  0  0  0  0  0
    3.6960   68.4710   64.4580 C   0  0  0  0  0  0  0  0  0  0  0  0
    4.0430   69.0370   63.2340 C   0  0  0  0  0  0  0  0  0  0  0  0
    4.4630   68.2040   62.1980 C   0  0  0  0  0  0  0  0  0  0  0  0
    4.5290   66.8330   62.4070 C   0  0  0  0  0  0  0  0  0  0  0  0
    4.1840   66.3480   63.6540 C   0  0  0  0  0  0  0  0  0  0  0  0
    3.7930   67.1320   64.6860 N   0  0  0  0  0  0  0  0  0  0  0  0
    2.0410   68.6120   66.3650 C   0  0  0  0  0  0  0  0  0  0  0  0
    0.7980   68.5390   65.4720 C   0  0  0  0  0  0  0  0  0  0  0  0
   -0.0170   67.4610   67.6130 C   0  0  0  0  0  0  0  0  0  0  0  0
   -0.3350   67.8110   66.1830 N   0  0  0  0  0  4  0  0  0  0  0  0
   -1.6160   68.6010   66.1010 C   0  0  0  0  0  0  0  0  0  0  0  0
    2.8670   70.2528   65.2478 H   0  0  0  0  0  0  0  0  0  0  0  0
    5.9878   69.5072   65.1840 H   0  0  0  0  0  0  0  0  0  0  0  0
    7.7383   70.2502   66.7931 H   0  0  0  0  0  0  0  0  0  0  0  0
    4.7237   70.8363   69.8274 H   0  0  0  0  0  0  0  0  0  0  0  0
    2.9651   70.0940   68.2256 H   0  0  0  0  0  0  0  0  0  0  0  0
    3.9865   70.1256   63.0866 H   0  0  0  0  0  0  0  0  0  0  0  0
    4.7400   68.6298   61.2223 H   0  0  0  0  0  0  0  0  0  0  0  0
    4.8467   66.1526   61.6032 H   0  0  0  0  0  0  0  0  0  0  0  0
    4.2297   65.2612   63.8177 H   0  0  0  0  0  0  0  0  0  0  0  0
    2.3359   67.5903   66.6464 H   0  0  0  0  0  0  0  0  0  0  0  0
    1.7866   69.2126   67.2507 H   0  0  0  0  0  0  0  0  0  0  0  0
    0.4715   69.5597   65.2238 H   0  0  0  0  0  0  0  0  0  0  0  0
    1.0532   67.9860   64.5560 H   0  0  0  0  0  0  0  0  0  0  0  0
   -0.6017   68.1046   68.2867 H   0  0  0  0  0  0  0  0  0  0  0  0
   -0.2733   66.4074   67.7983 H   0  0  0  0  0  0  0  0  0  0  0  0
    1.0562   67.6154   67.7983 H   0  0  0  0  0  0  0  0  0  0  0  0
   -0.4572   66.9172   65.6859 H   0  0  0  0  0  0  0  0  0  0  0  0
   -1.9756   68.8228   67.1166 H   0  0  0  0  0  0  0  0  0  0  0  0
   -1.4322   69.5428   65.5633 H   0  0  0  0  0  0  0  0  0  0  0  0
   -2.3751   68.0139   65.5633 H   0  0  0  0  0  0  0  0  0  0  0  0
  2  1  1  0
  3  2  2  0
  4  3  1  0
  5  4  2  0
  6  5  1  0
  7  6  2  0
  7  2  1  0
  8  5  1  0
  9  1  1  0
 10  9  2  0
 11 10  1  0
 12 11  2  0
 13 12  1  0
 14 13  2  0
 14  9  1  0
 15  1  1  0
 16 15  1  0
 18 17  1  0
 18 16  1  0
 19 18  1  0
  1 20  1  6
  3 21  1  0
  4 22  1  0
  6 23  1  0
  7 24  1  0
 10 25  1  0
 11 26  1  0
 12 27  1  0
 13 28  1  0
 15 29  1  0
 15 30  1  0
 16 31  1  0
 16 32  1  0
 17 33  1  0
 17 34  1  0
 17 35  1  0
 18 36  1  0
 19 37  1  0
 19 38  1  0
 19 39  1  0
M  CHG  1  18   1
M  END
>  <score>  (1) 
-9.344

$$$$
=
     RDKit          3D

 39 40  0  0  0  0  0  0  0  0999 V2000
    1.7620   68.3650   65.4020 C   0  0  1  0  0  0  0  0  0  0  0  0
    2.7930   69.0560   66.2920 C   0  0  0  0  0  0  0  0  0  0  0  0
    2.5140   69.4780   67.6030 C   0  0  0  0  0  0  0  0  0  0  0  0
    3.5000   70.0940   68.3790 C   0  0  0  0  0  0  0  0  0  0  0  0
    4.7760   70.2900   67.8590 C   0  0  0  0  0  0  0  0  0  0  0  0
    5.0780   69.8700   66.5670 C   0  0  0  0  0  0  0  0  0  0  0  0
    4.0930   69.2540   65.7900 C   0  0  0  0  0  0  0  0  0  0  0  0
    5.9840   71.0490   68.8180 Cl  0  0  0  0  0  0  0  0  0  0  0  0
    0.3990   68.1610   66.0510 C   0  0  0  0  0  0  0  0  0  0  0  0
   -0.7260   68.9030   65.6990 C   0  0  0  0  0  0  0  0  0  0  0  0
   -1.9350   68.6430   66.3420 C   0  0  0  0  0  0  0  0  0  0  0  0
   -1.9940   67.6540   67.3140 C   0  0  0  0  0  0  0  0  0  0  0  0
   -0.8400   66.9500   67.5970 C   0  0  0  0  0  0  0  0  0  0  0  0
    0.3440   67.1640   66.9750 N   0  0  0  0  0  0  0  0  0  0  0  0
    1.6130   69.0060   63.9990 C   0  0  0  0  0  0  0  0  0  0  0  0
    1.9310   68.0150   62.8750 C   0  0  0  0  0  0  0  0  0  0  0  0
    4.2000   66.9540   62.5050 C   0  0  0  0  0  0  0  0  0  0  0  0
    3.3610   68.1980   62.3830 N   0  0  0  0  0  4  0  0  0  0  0  0
    3.3790   68.7150   60.9670 C   0  0  0  0  0  0  0  0  0  0  0  0
    2.1941   67.3634   65.2605 H   0  0  0  0  0  0  0  0  0  0  0  0
    1.5093   69.3220   68.0229 H   0  0  0  0  0  0  0  0  0  0  0  0
    3.2671   70.4243   69.4021 H   0  0  0  0  0  0  0  0  0  0  0  0
    6.0881   70.0223   66.1589 H   0  0  0  0  0  0  0  0  0  0  0  0
    4.3373   68.9190   64.7711 H   0  0  0  0  0  0  0  0  0  0  0  0
   -0.6613   69.6823   64.9254 H   0  0  0  0  0  0  0  0  0  0  0  0
   -2.8360   69.2175   66.0810 H   0  0  0  0  0  0  0  0  0  0  0  0
   -2.9332   67.4371   67.8439 H   0  0  0  0  0  0  0  0  0  0  0  0
   -0.8850   66.1707   68.3721 H   0  0  0  0  0  0  0  0  0  0  0  0
    0.5781   69.3587   63.8784 H   0  0  0  0  0  0  0  0  0  0  0  0
    2.3293   69.8379   63.9293 H   0  0  0  0  0  0  0  0  0  0  0  0
    1.8078   66.9892   63.2527 H   0  0  0  0  0  0  0  0  0  0  0  0
    1.2428   68.1989   62.0368 H   0  0  0  0  0  0  0  0  0  0  0  0
    4.3574   66.7207   63.5684 H   0  0  0  0  0  0  0  0  0  0  0  0
    3.6832   66.1140   62.0179 H   0  0  0  0  0  0  0  0  0  0  0  0
    5.1725   67.1184   62.0179 H   0  0  0  0  0  0  0  0  0  0  0  0
    3.7899   68.8986   63.0044 H   0  0  0  0  0  0  0  0  0  0  0  0
    3.4173   69.8143   60.9785 H   0  0  0  0  0  0  0  0  0  0  0  0
    4.2640   68.3227   60.4447 H   0  0  0  0  0  0  0  0  0  0  0  0
    2.4688   68.3852   60.4447 H   0  0  0  0  0  0  0  0  0  0  0  0
  2  1  1  0
  3  2  2  0
  4  3  1  0
  5  4  2  0
  6  5  1  0
  7  6  2  0
  7  2  1  0
  8  5  1  0
  9  1  1  0
 10  9  2  0
 11 10  1  0
 12 11  2  0
 13 12  1  0
 14 13  2  0
 14  9  1  0
 15  1  1  0
 16 15  1  0
 18 17  1  0
 18 16  1  0
 19 18  1  0
  1 20  1  6
  3 21  1  0
  4 22  1  0
  6 23  1  0
  7 24  1  0
 10 25  1  0
 11 26  1  0
 12 27  1  0
 13 28  1  0
 15 29  1  0
 15 30  1  0
 16 31  1  0
 16 32  1  0
 17 33  1  0
 17 34  1  0
 17 35  1  0
 18 36  1  0
 19 37  1  0
 19 38  1  0
 19 39  1  0
M  CHG  1  18   1
M  END
>  <score>  (2) 
-9.066

$$$$
=
     RDKit          3D

 39 40  0  0  0  0  0  0  0  0999 V2000
    2.4470   68.1030   65.2830 C   0  0  1  0  0  0  0  0  0  0  0  0
    3.4010   68.9740   66.1000 C   0  0  0  0  0  0  0  0  0  0  0  0
    3.0890   69.4570   67.3820 C   0  0  0  0  0  0  0  0  0  0  0  0
    4.0050   70.2400   68.0910 C   0  0  0  0  0  0  0  0  0  0  0  0
    5.2440   70.5430   67.5320 C   0  0  0  0  0  0  0  0  0  0  0  0
    5.5780   70.0660   66.2680 C   0  0  0  0  0  0  0  0  0  0  0  0
    4.6630   69.2830   65.5580 C   0  0  0  0  0  0  0  0  0  0  0  0
    6.3650   71.5060   68.4080 Cl  0  0  0  0  0  0  0  0  0  0  0  0
    3.0810   66.8480   64.6970 C   0  0  0  0  0  0  0  0  0  0  0  0
    3.9640   66.8770   63.6210 C   0  0  0  0  0  0  0  0  0  0  0  0
    4.5010   65.6790   63.1550 C   0  0  0  0  0  0  0  0  0  0  0  0
    4.1490   64.4860   63.7710 C   0  0  0  0  0  0  0  0  0  0  0  0
    3.2790   64.5390   64.8430 C   0  0  0  0  0  0  0  0  0  0  0  0
    2.7570   65.6890   65.3320 N   0  0  0  0  0  0  0  0  0  0  0  0
    1.1240   67.7620   66.0150 C   0  0  0  0  0  0  0  0  0  0  0  0
   -0.0770   68.4910   65.4040 C   0  0  0  0  0  0  0  0  0  0  0  0
   -1.2680   67.2190   67.2410 C   0  0  0  0  0  0  0  0  0  0  0  0
   -1.3830   67.8780   65.8920 N   0  0  0  0  0  4  0  0  0  0  0  0
   -2.4890   68.9030   65.8940 C   0  0  0  0  0  0  0  0  0  0  0  0
    2.1915   68.7515   64.4320 H   0  0  0  0  0  0  0  0  0  0  0  0
    2.1146   69.2168   67.8323 H   0  0  0  0  0  0  0  0  0  0  0  0
    3.7467   70.6171   69.0915 H   0  0  0  0  0  0  0  0  0  0  0  0
    6.5582   70.3042   65.8293 H   0  0  0  0  0  0  0  0  0  0  0  0
    4.9330   68.9029   64.5617 H   0  0  0  0  0  0  0  0  0  0  0  0
    4.2336   67.8317   63.1458 H   0  0  0  0  0  0  0  0  0  0  0  0
    5.1990   65.6785   62.3049 H   0  0  0  0  0  0  0  0  0  0  0  0
    4.5512   63.5258   63.4158 H   0  0  0  0  0  0  0  0  0  0  0  0
    2.9941   63.5932   65.3269 H   0  0  0  0  0  0  0  0  0  0  0  0
    0.9516   66.6776   65.9494 H   0  0  0  0  0  0  0  0  0  0  0  0
    1.2218   68.0879   67.0610 H   0  0  0  0  0  0  0  0  0  0  0  0
   -0.0436   69.5507   65.6970 H   0  0  0  0  0  0  0  0  0  0  0  0
   -0.0289   68.3965   64.3091 H   0  0  0  0  0  0  0  0  0  0  0  0
   -1.3997   67.9738   68.0302 H   0  0  0  0  0  0  0  0  0  0  0  0
   -2.0449   66.4465   67.3391 H   0  0  0  0  0  0  0  0  0  0  0  0
   -0.2754   66.7553   67.3391 H   0  0  0  0  0  0  0  0  0  0  0  0
   -1.6155   67.1303   65.2229 H   0  0  0  0  0  0  0  0  0  0  0  0
   -2.7569   69.1513   66.9316 H   0  0  0  0  0  0  0  0  0  0  0  0
   -2.1479   69.8115   65.3759 H   0  0  0  0  0  0  0  0  0  0  0  0
   -3.3689   68.4940   65.3759 H   0  0  0  0  0  0  0  0  0  0  0  0
  2  1  1  0
  3  2  2  0
  4  3  1  0
  5  4  2  0
  6  5  1  0
  7  6  2  0
  7  2  1  0
  8  5  1  0
  9  1  1  0
 10  9  2  0
 11 10  1  0
 12 11  2  0
 13 12  1  0
 14 13  2  0
 14  9  1  0
 15  1  1  0
 16 15  1  0
 18 17  1  0
 18 16  1  0
 19 18  1  0
  1 20  1  6
  3 21  1  0
  4 22  1  0
  6 23  1  0
  7 24  1  0
 10 25  1  0
 11 26  1  0
 12 27  1  0
 13 28  1  0
 15 29  1  0
 15 30  1  0
 16 31  1  0
 16 32  1  0
 17 33  1  0
 17 34  1  0
 17 35  1  0
 18 36  1  0
 19 37  1  0
 19 38  1  0
 19 39  1  0
M  CHG  1  18   1
M  END
>  <score>  (3) 
-8.837

$$$$
=
     RDKit          3D

 39 40  0  0  0  0  0  0  0  0999 V2000
    1.6240   67.3690   66.1650 C   0  0  1  0  0  0  0  0  0  0  0  0
    2.5780   68.4170   66.7350 C   0  0  0  0  0  0  0  0  0  0  0  0
    3.7180   68.8710   66.0490 C   0  0  0  0  0  0  0  0  0  0  0  0
    4.5510   69.8420   66.6120 C   0  0  0  0  0  0  0  0  0  0  0  0
    4.2530   70.3760   67.8630 C   0  0  0  0  0  0  0  0  0  0  0  0
    3.1230   69.9500   68.5560 C   0  0  0  0  0  0  0  0  0  0  0  0
    2.2900   68.9780   67.9940 C   0  0  0  0  0  0  0  0  0  0  0  0
    5.2800   71.5690   68.5510 Cl  0  0  0  0  0  0  0  0  0  0  0  0
    0.1480   67.6750   66.3780 C   0  0  0  0  0  0  0  0  0  0  0  0
   -0.5240   68.6850   65.6910 C   0  0  0  0  0  0  0  0  0  0  0  0
   -1.8780   68.8890   65.9450 C   0  0  0  0  0  0  0  0  0  0  0  0
   -2.5300   68.0860   66.8700 C   0  0  0  0  0  0  0  0  0  0  0  0
   -1.8010   67.0950   67.4990 C   0  0  0  0  0  0  0  0  0  0  0  0
   -0.4900   66.8570   67.2590 N   0  0  0  0  0  0  0  0  0  0  0  0
    1.9030   67.0030   64.6850 C   0  0  0  0  0  0  0  0  0  0  0  0
    2.5370   65.6160   64.5440 C   0  0  0  0  0  0  0  0  0  0  0  0
    4.6930   64.3990   64.0150 C   0  0  0  0  0  0  0  0  0  0  0  0
    4.0050   65.7310   64.1560 N   0  0  0  0  0  4  0  0  0  0  0  0
    4.1660   66.5480   62.9000 C   0  0  0  0  0  0  0  0  0  0  0  0
    1.8498   66.4782   66.7696 H   0  0  0  0  0  0  0  0  0  0  0  0
    3.9571   68.4575   65.0581 H   0  0  0  0  0  0  0  0  0  0  0  0
    5.4426   70.1846   66.0664 H   0  0  0  0  0  0  0  0  0  0  0  0
    2.8866   70.3766   69.5420 H   0  0  0  0  0  0  0  0  0  0  0  0
    1.3965   68.6466   68.5434 H   0  0  0  0  0  0  0  0  0  0  0  0
    0.0073   69.3114   64.9593 H   0  0  0  0  0  0  0  0  0  0  0  0
   -2.4271   69.6817   65.4157 H   0  0  0  0  0  0  0  0  0  0  0  0
   -3.5963   68.2341   67.0960 H   0  0  0  0  0  0  0  0  0  0  0  0
   -2.3156   66.4628   68.2376 H   0  0  0  0  0  0  0  0  0  0  0  0
    0.9527   67.0166   64.1311 H   0  0  0  0  0  0  0  0  0  0  0  0
    2.6110   67.7416   64.2812 H   0  0  0  0  0  0  0  0  0  0  0  0
    2.4579   65.0838   65.5034 H   0  0  0  0  0  0  0  0  0  0  0  0
    2.0055   65.0632   63.7554 H   0  0  0  0  0  0  0  0  0  0  0  0
    4.9051   63.9884   65.0132 H   0  0  0  0  0  0  0  0  0  0  0  0
    4.0403   63.7056   63.4644 H   0  0  0  0  0  0  0  0  0  0  0  0
    5.6362   64.5300   63.4644 H   0  0  0  0  0  0  0  0  0  0  0  0
    4.4698   66.2163   64.9366 H   0  0  0  0  0  0  0  0  0  0  0  0
    4.3723   67.5949   63.1675 H   0  0  0  0  0  0  0  0  0  0  0  0
    5.0028   66.1491   62.3079 H   0  0  0  0  0  0  0  0  0  0  0  0
    3.2404   66.4964   62.3079 H   0  0  0  0  0  0  0  0  0  0  0  0
  2  1  1  0
  3  2  2  0
  4  3  1  0
  5  4  2  0
  6  5  1  0
  7  6  2  0
  7  2  1  0
  8  5  1  0
  9  1  1  0
 10  9  2  0
 11 10  1  0
 12 11  2  0
 13 12  1  0
 14 13  2  0
 14  9  1  0
 15  1  1  0
 16 15  1  0
 18 17  1  0
 18 16  1  0
 19 18  1  0
  1 20  1  1
  3 21  1  0
  4 22  1  0
  6 23  1  0
  7 24  1  0
 10 25  1  0
 11 26  1  0
 12 27  1  0
 13 28  1  0
 15 29  1  0
 15 30  1  0
 16 31  1  0
 16 32  1  0
 17 33  1  0
 17 34  1  0
 17 35  1  0
 18 36  1  0
 19 37  1  0
 19 38  1  0
 19 39  1  0
M  CHG  1  18   1
M  END
>  <score>  (4) 
-8.572

$$$$
=
     RDKit          3D

 39 40  0  0  0  0  0  0  0  0999 V2000
    2.5050   68.5690   66.3680 C   0  0  1  0  0  0  0  0  0  0  0  0
    2.7580   68.6470   64.8630 C   0  0  0  0  0  0  0  0  0  0  0  0
    4.0420   68.5890   64.2980 C   0  0  0  0  0  0  0  0  0  0  0  0
    4.2160   68.6520   62.9120 C   0  0  0  0  0  0  0  0  0  0  0  0
    3.1080   68.7670   62.0750 C   0  0  0  0  0  0  0  0  0  0  0  0
    1.8260   68.8150   62.6130 C   0  0  0  0  0  0  0  0  0  0  0  0
    1.6520   68.7530   63.9980 C   0  0  0  0  0  0  0  0  0  0  0  0
    3.3270   68.8440   60.3720 Cl  0  0  0  0  0  0  0  0  0  0  0  0
    3.4250   69.4430   67.2100 C   0  0  0  0  0  0  0  0  0  0  0  0
    4.7160   69.7850   66.8160 C   0  0  0  0  0  0  0  0  0  0  0  0
    5.4850   70.5960   67.6480 C   0  0  0  0  0  0  0  0  0  0  0  0
    4.9510   71.0470   68.8470 C   0  0  0  0  0  0  0  0  0  0  0  0
    3.6570   70.6790   69.1620 C   0  0  0  0  0  0  0  0  0  0  0  0
    2.8780   69.9110   68.3650 N   0  0  0  0  0  0  0  0  0  0  0  0
    1.0230   68.7830   66.7690 C   0  0  0  0  0  0  0  0  0  0  0  0
    0.3040   67.4590   67.0460 C   0  0  0  0  0  0  0  0  0  0  0  0
   -2.1490   67.0600   67.5280 C   0  0  0  0  0  0  0  0  0  0  0  0
   -1.1240   67.5000   66.5170 N   0  0  0  0  0  4  0  0  0  0  0  0
   -1.4580   68.8690   65.9830 C   0  0  0  0  0  0  0  0  0  0  0  0
    2.7599   67.5255   66.6050 H   0  0  0  0  0  0  0  0  0  0  0  0
    4.9207   68.4930   64.9528 H   0  0  0  0  0  0  0  0  0  0  0  0
    5.2278   68.6108   62.4824 H   0  0  0  0  0  0  0  0  0  0  0  0
    0.9523   68.9015   61.9503 H   0  0  0  0  0  0  0  0  0  0  0  0
    0.6362   68.7875   64.4187 H   0  0  0  0  0  0  0  0  0  0  0  0
    5.1230   69.4201   65.8614 H   0  0  0  0  0  0  0  0  0  0  0  0
    6.5079   70.8768   67.3567 H   0  0  0  0  0  0  0  0  0  0  0  0
    5.5409   71.6792   69.5269 H   0  0  0  0  0  0  0  0  0  0  0  0
    3.2357   71.0304   70.1154 H   0  0  0  0  0  0  0  0  0  0  0  0
    0.9872   69.4028   67.6771 H   0  0  0  0  0  0  0  0  0  0  0  0
    0.5126   69.2763   65.9287 H   0  0  0  0  0  0  0  0  0  0  0  0
    0.8490   66.6418   66.5509 H   0  0  0  0  0  0  0  0  0  0  0  0
    0.2735   67.2942   68.1332 H   0  0  0  0  0  0  0  0  0  0  0  0
   -1.7586   67.2276   68.5427 H   0  0  0  0  0  0  0  0  0  0  0  0
   -3.0729   67.6408   67.3900 H   0  0  0  0  0  0  0  0  0  0  0  0
   -2.3644   65.9901   67.3900 H   0  0  0  0  0  0  0  0  0  0  0  0
   -1.1644   66.8171   65.7470 H   0  0  0  0  0  0  0  0  0  0  0  0
   -1.6264   69.5591   66.8229 H   0  0  0  0  0  0  0  0  0  0  0  0
   -0.6232   69.2365   65.3682 H   0  0  0  0  0  0  0  0  0  0  0  0
   -2.3683   68.8107   65.3682 H   0  0  0  0  0  0  0  0  0  0  0  0
  2  1  1  0
  3  2  2  0
  4  3  1  0
  5  4  2  0
  6  5  1  0
  7  6  2  0
  7  2  1  0
  8  5  1  0
  9  1  1  0
 10  9  2  0
 11 10  1  0
 12 11  2  0
 13 12  1  0
 14 13  2  0
 14  9  1  0
 15  1  1  0
 16 15  1  0
 18 17  1  0
 18 16  1  0
 19 18  1  0
  1 20  1  1
  3 21  1  0
  4 22  1  0
  6 23  1  0
  7 24  1  0
 10 25  1  0
 11 26  1  0
 12 27  1  0
 13 28  1  0
 15 29  1  0
 15 30  1  0
 16 31  1  0
 16 32  1  0
 17 33  1  0
 17 34  1  0
 17 35  1  0
 18 36  1  0
 19 37  1  0
 19 38  1  0
 19 39  1  0
M  CHG  1  18   1
M  END
>  <score>  (5) 
-8.48

$$$$
=
     RDKit          3D

 39 40  0  0  0  0  0  0  0  0999 V2000
    3.4600   67.7130   63.8810 C   0  0  1  0  0  0  0  0  0  0  0  0
    3.9130   68.5730   65.0590 C   0  0  0  0  0  0  0  0  0  0  0  0
    3.0740   68.9020   66.1370 C   0  0  0  0  0  0  0  0  0  0  0  0
    3.5450   69.6830   67.1960 C   0  0  0  0  0  0  0  0  0  0  0  0
    4.8600   70.1400   67.1950 C   0  0  0  0  0  0  0  0  0  0  0  0
    5.7120   69.8180   66.1430 C   0  0  0  0  0  0  0  0  0  0  0  0
    5.2420   69.0370   65.0830 C   0  0  0  0  0  0  0  0  0  0  0  0
    5.4340   71.1010   68.4990 Cl  0  0  0  0  0  0  0  0  0  0  0  0
    3.7430   66.2250   64.0390 C   0  0  0  0  0  0  0  0  0  0  0  0
    3.1160   65.4310   64.9970 C   0  0  0  0  0  0  0  0  0  0  0  0
    3.4310   64.0760   65.0640 C   0  0  0  0  0  0  0  0  0  0  0  0
    4.3580   63.5450   64.1770 C   0  0  0  0  0  0  0  0  0  0  0  0
    4.9250   64.3910   63.2450 C   0  0  0  0  0  0  0  0  0  0  0  0
    4.6240   65.7070   63.1400 N   0  0  0  0  0  0  0  0  0  0  0  0
    1.9880   67.9520   63.4580 C   0  0  0  0  0  0  0  0  0  0  0  0
    1.8710   68.9980   62.3450 C   0  0  0  0  0  0  0  0  0  0  0  0
   -0.1130   69.8810   61.0440 C   0  0  0  0  0  0  0  0  0  0  0  0
    0.5160   69.6920   62.3980 N   0  0  0  0  0  4  0  0  0  0  0  0
   -0.4240   68.9620   63.3240 C   0  0  0  0  0  0  0  0  0  0  0  0
    4.0982   68.0679   63.0584 H   0  0  0  0  0  0  0  0  0  0  0  0
    2.0350   68.5409   66.1476 H   0  0  0  0  0  0  0  0  0  0  0  0
    2.8758   69.9369   68.0313 H   0  0  0  0  0  0  0  0  0  0  0  0
    6.7518   70.1768   66.1454 H   0  0  0  0  0  0  0  0  0  0  0  0
    5.9204   68.7813   64.2557 H   0  0  0  0  0  0  0  0  0  0  0  0
    2.3826   65.8681   65.6906 H   0  0  0  0  0  0  0  0  0  0  0  0
    2.9491   63.4314   65.8139 H   0  0  0  0  0  0  0  0  0  0  0  0
    4.6328   62.4806   64.2158 H   0  0  0  0  0  0  0  0  0  0  0  0
    5.6645   63.9715   62.5470 H   0  0  0  0  0  0  0  0  0  0  0  0
    1.5636   67.0029   63.0988 H   0  0  0  0  0  0  0  0  0  0  0  0
    1.4402   68.3276   64.3349 H   0  0  0  0  0  0  0  0  0  0  0  0
    2.6659   69.7481   62.4695 H   0  0  0  0  0  0  0  0  0  0  0  0
    1.9716   68.4927   61.3731 H   0  0  0  0  0  0  0  0  0  0  0  0
   -1.1599   70.1956   61.1667 H   0  0  0  0  0  0  0  0  0  0  0  0
    0.4390   70.6529   60.4878 H   0  0  0  0  0  0  0  0  0  0  0  0
   -0.0779   68.9326   60.4878 H   0  0  0  0  0  0  0  0  0  0  0  0
    0.6921   70.6363   62.7697 H   0  0  0  0  0  0  0  0  0  0  0  0
   -0.1496   69.1751   64.3677 H   0  0  0  0  0  0  0  0  0  0  0  0
   -1.4549   69.2985   63.1399 H   0  0  0  0  0  0  0  0  0  0  0  0
   -0.3532   67.8798   63.1399 H   0  0  0  0  0  0  0  0  0  0  0  0
  2  1  1  0
  3  2  2  0
  4  3  1  0
  5  4  2  0
  6  5  1  0
  7  6  2  0
  7  2  1  0
  8  5  1  0
  9  1  1  0
 10  9  2  0
 11 10  1  0
 12 11  2  0
 13 12  1  0
 14 13  2  0
 14  9  1  0
 15  1  1  0
 16 15  1  0
 18 17  1  0
 18 16  1  0
 19 18  1  0
  1 20  1  6
  3 21  1  0
  4 22  1  0
  6 23  1  0
  7 24  1  0
 10 25  1  0
 11 26  1  0
 12 27  1  0
 13 28  1  0
 15 29  1  0
 15 30  1  0
 16 31  1  0
 16 32  1  0
 17 33  1  0
 17 34  1  0
 17 35  1  0
 18 36  1  0
 19 37  1  0
 19 38  1  0
 19 39  1  0
M  CHG  1  18   1
M  END
>  <score>  (6) 
-8.344

$$$$
=
     RDKit          3D

 39 40  0  0  0  0  0  0  0  0999 V2000
    1.6210   68.6830   66.1570 C   0  0  1  0  0  0  0  0  0  0  0  0
    2.8880   69.3250   66.7190 C   0  0  0  0  0  0  0  0  0  0  0  0
    2.9450   69.9240   67.9880 C   0  0  0  0  0  0  0  0  0  0  0  0
    4.1350   70.4870   68.4590 C   0  0  0  0  0  0  0  0  0  0  0  0
    5.2820   70.4520   67.6700 C   0  0  0  0  0  0  0  0  0  0  0  0
    5.2510   69.8540   66.4140 C   0  0  0  0  0  0  0  0  0  0  0  0
    4.0620   69.2920   65.9430 C   0  0  0  0  0  0  0  0  0  0  0  0
    6.7430   71.1460   68.2540 Cl  0  0  0  0  0  0  0  0  0  0  0  0
    1.4460   68.8380   64.6520 C   0  0  0  0  0  0  0  0  0  0  0  0
    2.5060   68.7530   63.7530 C   0  0  0  0  0  0  0  0  0  0  0  0
    2.2510   68.9010   62.3910 C   0  0  0  0  0  0  0  0  0  0  0  0
    0.9520   69.1280   61.9590 C   0  0  0  0  0  0  0  0  0  0  0  0
   -0.0490   69.1840   62.9090 C   0  0  0  0  0  0  0  0  0  0  0  0
    0.1630   69.0220   64.2370 N   0  0  0  0  0  0  0  0  0  0  0  0
    1.4220   67.2060   66.5850 C   0  0  0  0  0  0  0  0  0  0  0  0
    1.4750   67.0340   68.1060 C   0  0  0  0  0  0  0  0  0  0  0  0
   -1.0110   66.7760   67.7000 C   0  0  0  0  0  0  0  0  0  0  0  0
    0.0730   67.0740   68.7010 N   0  0  0  0  0  4  0  0  0  0  0  0
   -0.0320   66.1500   69.8880 C   0  0  0  0  0  0  0  0  0  0  0  0
    0.8196   69.2715   66.6276 H   0  0  0  0  0  0  0  0  0  0  0  0
    2.0438   69.9505   68.6181 H   0  0  0  0  0  0  0  0  0  0  0  0
    4.1652   70.9576   69.4528 H   0  0  0  0  0  0  0  0  0  0  0  0
    6.1593   69.8239   65.7943 H   0  0  0  0  0  0  0  0  0  0  0  0
    4.0429   68.8167   64.9512 H   0  0  0  0  0  0  0  0  0  0  0  0
    3.5296   68.5717   64.1127 H   0  0  0  0  0  0  0  0  0  0  0  0
    3.0737   68.8383   61.6635 H   0  0  0  0  0  0  0  0  0  0  0  0
    0.7260   69.2596   60.8905 H   0  0  0  0  0  0  0  0  0  0  0  0
   -1.0778   69.3710   62.5674 H   0  0  0  0  0  0  0  0  0  0  0  0
    0.4422   66.8609   66.2231 H   0  0  0  0  0  0  0  0  0  0  0  0
    2.2401   66.6141   66.1488 H   0  0  0  0  0  0  0  0  0  0  0  0
    1.9410   66.0664   68.3441 H   0  0  0  0  0  0  0  0  0  0  0  0
    2.0651   67.8573   68.5349 H   0  0  0  0  0  0  0  0  0  0  0  0
   -1.9400   66.5206   68.2307 H   0  0  0  0  0  0  0  0  0  0  0  0
   -1.1806   67.6608   67.0689 H   0  0  0  0  0  0  0  0  0  0  0  0
   -0.7045   65.9288   67.0689 H   0  0  0  0  0  0  0  0  0  0  0  0
   -0.0782   68.0442   69.0120 H   0  0  0  0  0  0  0  0  0  0  0  0
    0.0346   66.7365   70.8162 H   0  0  0  0  0  0  0  0  0  0  0  0
   -0.9960   65.6211   69.8568 H   0  0  0  0  0  0  0  0  0  0  0  0
    0.7888   65.4183   69.8568 H   0  0  0  0  0  0  0  0  0  0  0  0
  2  1  1  0
  3  2  2  0
  4  3  1  0
  5  4  2  0
  6  5  1  0
  7  6  2  0
  7  2  1  0
  8  5  1  0
  9  1  1  0
 10  9  2  0
 11 10  1  0
 12 11  2  0
 13 12  1  0
 14 13  2  0
 14  9  1  0
 15  1  1  0
 16 15  1  0
 18 17  1  0
 18 16  1  0
 19 18  1  0
  1 20  1  1
  3 21  1  0
  4 22  1  0
  6 23  1  0
  7 24  1  0
 10 25  1  0
 11 26  1  0
 12 27  1  0
 13 28  1  0
 15 29  1  0
 15 30  1  0
 16 31  1  0
 16 32  1  0
 17 33  1  0
 17 34  1  0
 17 35  1  0
 18 36  1  0
 19 37  1  0
 19 38  1  0
 19 39  1  0
M  CHG  1  18   1
M  END
>  <score>  (7) 
-7.486

$$$$
=
     RDKit          3D

 39 40  0  0  0  0  0  0  0  0999 V2000
    2.2790   68.5620   65.4540 C   0  0  1  0  0  0  0  0  0  0  0  0
    2.9240   67.2610   64.9820 C   0  0  0  0  0  0  0  0  0  0  0  0
    2.5160   65.9940   65.4340 C   0  0  0  0  0  0  0  0  0  0  0  0
    3.1330   64.8340   64.9590 C   0  0  0  0  0  0  0  0  0  0  0  0
    4.1590   64.9230   64.0220 C   0  0  0  0  0  0  0  0  0  0  0  0
    4.5720   66.1660   63.5510 C   0  0  0  0  0  0  0  0  0  0  0  0
    3.9560   67.3270   64.0270 C   0  0  0  0  0  0  0  0  0  0  0  0
    4.9140   63.4930   63.4410 Cl  0  0  0  0  0  0  0  0  0  0  0  0
    0.8070   68.4410   65.8260 C   0  0  0  0  0  0  0  0  0  0  0  0
    0.3740   68.1010   67.1060 C   0  0  0  0  0  0  0  0  0  0  0  0
   -0.9940   68.0210   67.3580 C   0  0  0  0  0  0  0  0  0  0  0  0
   -1.8940   68.2810   66.3340 C   0  0  0  0  0  0  0  0  0  0  0  0
   -1.3890   68.6270   65.0960 C   0  0  0  0  0  0  0  0  0  0  0  0
   -0.0670   68.7350   64.8260 N   0  0  0  0  0  0  0  0  0  0  0  0
    3.0710   69.2870   66.5720 C   0  0  0  0  0  0  0  0  0  0  0  0
    4.5260   69.5490   66.1700 C   0  0  0  0  0  0  0  0  0  0  0  0
    6.4790   70.8880   67.0650 C   0  0  0  0  0  0  0  0  0  0  0  0
    5.3590   69.9340   67.3850 N   0  0  0  0  0  4  0  0  0  0  0  0
    4.4860   70.4900   68.4810 C   0  0  0  0  0  0  0  0  0  0  0  0
    2.3243   69.1962   64.5564 H   0  0  0  0  0  0  0  0  0  0  0  0
    1.7021   65.9150   66.1697 H   0  0  0  0  0  0  0  0  0  0  0  0
    2.8078   63.8492   65.3257 H   0  0  0  0  0  0  0  0  0  0  0  0
    5.3797   66.2344   62.8074 H   0  0  0  0  0  0  0  0  0  0  0  0
    4.2827   68.3072   63.6495 H   0  0  0  0  0  0  0  0  0  0  0  0
    1.1015   67.8987   67.9058 H   0  0  0  0  0  0  0  0  0  0  0  0
   -1.3580   67.7538   68.3611 H   0  0  0  0  0  0  0  0  0  0  0  0
   -2.9787   68.2134   66.5036 H   0  0  0  0  0  0  0  0  0  0  0  0
   -2.1021   68.8263   64.2825 H   0  0  0  0  0  0  0  0  0  0  0  0
    2.5831   70.2495   66.7853 H   0  0  0  0  0  0  0  0  0  0  0  0
    3.0764   68.6371   67.4595 H   0  0  0  0  0  0  0  0  0  0  0  0
    4.9456   68.6379   65.7185 H   0  0  0  0  0  0  0  0  0  0  0  0
    4.5495   70.3784   65.4478 H   0  0  0  0  0  0  0  0  0  0  0  0
    6.9195   71.2633   68.0005 H   0  0  0  0  0  0  0  0  0  0  0  0
    7.2502   70.3651   66.4804 H   0  0  0  0  0  0  0  0  0  0  0  0
    6.0855   71.7326   66.4804 H   0  0  0  0  0  0  0  0  0  0  0  0
    5.8025   69.0645   67.7138 H   0  0  0  0  0  0  0  0  0  0  0  0
    4.9096   70.2202   69.4596 H   0  0  0  0  0  0  0  0  0  0  0  0
    4.4381   71.5853   68.3916 H   0  0  0  0  0  0  0  0  0  0  0  0
    3.4732   70.0702   68.3916 H   0  0  0  0  0  0  0  0  0  0  0  0
  2  1  1  0
  3  2  2  0
  4  3  1  0
  5  4  2  0
  6  5  1  0
  7  6  2  0
  7  2  1  0
  8  5  1  0
  9  1  1  0
 10  9  2  0
 11 10  1  0
 12 11  2  0
 13 12  1  0
 14 13  2  0
 14  9  1  0
 15  1  1  0
 16 15  1  0
 18 17  1  0
 18 16  1  0
 19 18  1  0
  1 20  1  6
  3 21  1  0
  4 22  1  0
  6 23  1  0
  7 24  1  0
 10 25  1  0
 11 26  1  0
 12 27  1  0
 13 28  1  0
 15 29  1  0
 15 30  1  0
 16 31  1  0
 16 32  1  0
 17 33  1  0
 17 34  1  0
 17 35  1  0
 18 36  1  0
 19 37  1  0
 19 38  1  0
 19 39  1  0
M  CHG  1  18   1
M  END
>  <score>  (8) 
-7.429

$$$$
=
     RDKit          3D

 39 40  0  0  0  0  0  0  0  0999 V2000
    1.4920   62.4240   71.8110 C   0  0  1  0  0  0  0  0  0  0  0  0
    0.4990   61.5120   72.5280 C   0  0  0  0  0  0  0  0  0  0  0  0
    0.8290   60.2230   72.9790 C   0  0  0  0  0  0  0  0  0  0  0  0
   -0.1160   59.4350   73.6430 C   0  0  0  0  0  0  0  0  0  0  0  0
   -1.3990   59.9270   73.8690 C   0  0  0  0  0  0  0  0  0  0  0  0
   -1.7440   61.2050   73.4410 C   0  0  0  0  0  0  0  0  0  0  0  0
   -0.8010   61.9940   72.7770 C   0  0  0  0  0  0  0  0  0  0  0  0
   -2.5570   58.9540   74.6850 Cl  0  0  0  0  0  0  0  0  0  0  0  0
    2.8300   61.7730   71.4870 C   0  0  0  0  0  0  0  0  0  0  0  0
    3.0810   61.1110   70.2870 C   0  0  0  0  0  0  0  0  0  0  0  0
    4.3390   60.5510   70.0740 C   0  0  0  0  0  0  0  0  0  0  0  0
    5.3130   60.6630   71.0560 C   0  0  0  0  0  0  0  0  0  0  0  0
    4.9950   61.3480   72.2130 C   0  0  0  0  0  0  0  0  0  0  0  0
    3.7900   61.9220   72.4410 N   0  0  0  0  0  0  0  0  0  0  0  0
    0.9080   63.1300   70.5610 C   0  0  0  0  0  0  0  0  0  0  0  0
    1.5910   64.4730   70.2850 C   0  0  0  0  0  0  0  0  0  0  0  0
   -0.1660   65.9020   71.4150 C   0  0  0  0  0  0  0  0  0  0  0  0
    0.5590   65.5830   70.1360 N   0  0  0  0  0  4  0  0  0  0  0  0
    1.1860   66.8250   69.5560 C   0  0  0  0  0  0  0  0  0  0  0  0
    1.6948   63.2016   72.5621 H   0  0  0  0  0  0  0  0  0  0  0  0
    1.8418   59.8295   72.8079 H   0  0  0  0  0  0  0  0  0  0  0  0
    0.1542   58.4257   73.9871 H   0  0  0  0  0  0  0  0  0  0  0  0
   -2.7566   61.5934   73.6248 H   0  0  0  0  0  0  0  0  0  0  0  0
   -1.0776   63.0053   72.4442 H   0  0  0  0  0  0  0  0  0  0  0  0
    2.2975   61.0316   69.5190 H   0  0  0  0  0  0  0  0  0  0  0  0
    4.5585   60.0238   69.1339 H   0  0  0  0  0  0  0  0  0  0  0  0
    6.3098   60.2191   70.9173 H   0  0  0  0  0  0  0  0  0  0  0  0
    5.7651   61.4319   72.9939 H   0  0  0  0  0  0  0  0  0  0  0  0
    1.0461   62.4759   69.6875 H   0  0  0  0  0  0  0  0  0  0  0  0
   -0.1580   63.3250   70.7496 H   0  0  0  0  0  0  0  0  0  0  0  0
    2.2627   64.7149   71.1218 H   0  0  0  0  0  0  0  0  0  0  0  0
    2.1612   64.3930   69.3477 H   0  0  0  0  0  0  0  0  0  0  0  0
    0.4643   65.6247   72.2728 H   0  0  0  0  0  0  0  0  0  0  0  0
   -0.3845   66.9794   71.4537 H   0  0  0  0  0  0  0  0  0  0  0  0
   -1.1079   65.3352   71.4537 H   0  0  0  0  0  0  0  0  0  0  0  0
   -0.1518   65.2261   69.4815 H   0  0  0  0  0  0  0  0  0  0  0  0
    1.5184   67.4834   70.3722 H   0  0  0  0  0  0  0  0  0  0  0  0
    2.0504   66.5442   68.9363 H   0  0  0  0  0  0  0  0  0  0  0  0
    0.4468   67.3538   68.9363 H   0  0  0  0  0  0  0  0  0  0  0  0
  2  1  1  0
  3  2  2  0
  4  3  1  0
  5  4  2  0
  6  5  1  0
  7  6  2  0
  7  2  1  0
  8  5  1  0
  9  1  1  0
 10  9  2  0
 11 10  1  0
 12 11  2  0
 13 12  1  0
 14 13  2  0
 14  9  1  0
 15  1  1  0
 16 15  1  0
 18 17  1  0
 18 16  1  0
 19 18  1  0
  1 20  1  1
  3 21  1  0
  4 22  1  0
  6 23  1  0
  7 24  1  0
 10 25  1  0
 11 26  1  0
 12 27  1  0
 13 28  1  0
 15 29  1  0
 15 30  1  0
 16 31  1  0
 16 32  1  0
 17 33  1  0
 17 34  1  0
 17 35  1  0
 18 36  1  0
 19 37  1  0
 19 38  1  0
 19 39  1  0
M  CHG  1  18   1
M  END
>  <score>  (9) 
-7.075

$$$$
