=
     RDKit          3D

 50 53  0  0  0  0  0  0  0  0999 V2000
    1.3460   68.1140   68.1140 N   0  0  0  0  0  4  0  0  0  0  0  0
   -0.1470   67.8880   68.0490 C   0  0  0  0  0  0  0  0  0  0  0  0
   -0.4660   66.4620   68.4780 C   0  0  0  0  0  0  0  0  0  0  0  0
    0.0700   66.1620   69.8840 C   0  0  0  0  0  0  0  0  0  0  0  0
    1.5790   66.4420   69.9290 C   0  0  0  0  0  0  0  0  0  0  0  0
    1.8950   67.8670   69.4970 C   0  0  0  0  0  0  0  0  0  0  0  0
    1.7470   69.4820   67.6000 C   0  0  0  0  0  0  0  0  0  0  0  0
    5.3010   69.4470   65.1660 C   0  0  0  0  0  0  0  0  0  0  0  0
    5.3780   69.8280   66.5040 C   0  0  0  0  0  0  0  0  0  0  0  0
    4.2300   69.8310   67.2980 C   0  0  0  0  0  0  0  0  0  0  0  0
    2.9910   69.4530   66.7560 C   0  0  0  0  0  0  0  0  0  0  0  0
    2.9280   69.0660   65.4080 C   0  0  0  0  0  0  0  0  0  0  0  0
    4.0780   69.0630   64.6190 C   0  0  0  0  0  0  0  0  0  0  0  0
   -0.2190   64.7160   70.3360 C   0  0  0  0  0  0  0  0  0  0  0  0
    0.4090   64.3080   71.6750 C   0  0  0  0  0  0  0  0  0  0  0  0
    1.0420   62.9550   71.6470 C   0  0  0  0  0  0  0  0  0  0  0  0
    0.6510   62.0100   72.5150 N   0  0  0  0  0  0  0  0  0  0  0  0
    1.3790   60.9330   72.1570 N   0  0  0  0  0  0  0  0  0  0  0  0
    2.2750   61.1700   71.1510 C   0  0  0  0  0  0  0  0  0  0  0  0
    2.0740   62.4940   70.7850 C   0  0  0  0  0  0  0  0  0  0  0  0
    2.8470   63.0400   69.7430 C   0  0  0  0  0  0  0  0  0  0  0  0
    3.7990   62.2290   69.1120 C   0  0  0  0  0  0  0  0  0  0  0  0
    3.9790   60.9010   69.5040 C   0  0  0  0  0  0  0  0  0  0  0  0
    3.2170   60.3400   70.5330 C   0  0  0  0  0  0  0  0  0  0  0  0
    1.7698   67.4187   67.4832 H   0  0  0  0  0  0  0  0  0  0  0  0
   -0.6541   68.5951   68.7220 H   0  0  0  0  0  0  0  0  0  0  0  0
   -0.4963   68.0466   67.0181 H   0  0  0  0  0  0  0  0  0  0  0  0
   -1.5573   66.3240   68.4750 H   0  0  0  0  0  0  0  0  0  0  0  0
    0.0190   65.7732   67.7706 H   0  0  0  0  0  0  0  0  0  0  0  0
   -0.4576   66.8239   70.5865 H   0  0  0  0  0  0  0  0  0  0  0  0
    1.9399   66.2918   70.9572 H   0  0  0  0  0  0  0  0  0  0  0  0
    2.0790   65.7516   69.2338 H   0  0  0  0  0  0  0  0  0  0  0  0
    1.4357   68.5735   70.2040 H   0  0  0  0  0  0  0  0  0  0  0  0
    2.9856   68.0104   69.4864 H   0  0  0  0  0  0  0  0  0  0  0  0
    0.9218   69.8840   66.9938 H   0  0  0  0  0  0  0  0  0  0  0  0
    1.9593   70.1125   68.4760 H   0  0  0  0  0  0  0  0  0  0  0  0
    6.2061   69.4493   64.5409 H   0  0  0  0  0  0  0  0  0  0  0  0
    6.3448   70.1268   66.9352 H   0  0  0  0  0  0  0  0  0  0  0  0
    4.2963   70.1311   68.3542 H   0  0  0  0  0  0  0  0  0  0  0  0
    1.9650   68.7631   64.9711 H   0  0  0  0  0  0  0  0  0  0  0  0
    4.0197   68.7573   63.5640 H   0  0  0  0  0  0  0  0  0  0  0  0
   -1.3093   64.5989   70.4227 H   0  0  0  0  0  0  0  0  0  0  0  0
    0.2362   64.0638   69.5761 H   0  0  0  0  0  0  0  0  0  0  0  0
    1.1794   65.0477   71.9384 H   0  0  0  0  0  0  0  0  0  0  0  0
   -0.4031   64.2707   72.4160 H   0  0  0  0  0  0  0  0  0  0  0  0
    1.2698   60.0109   72.6028 H   0  0  0  0  0  0  0  0  0  0  0  0
    2.7060   64.0850   69.4298 H   0  0  0  0  0  0  0  0  0  0  0  0
    4.4121   62.6432   68.2980 H   0  0  0  0  0  0  0  0  0  0  0  0
    4.7342   60.2850   68.9938 H   0  0  0  0  0  0  0  0  0  0  0  0
    3.3518   59.2932   70.8430 H   0  0  0  0  0  0  0  0  0  0  0  0
  2  1  1  0
  3  2  1  0
  4  3  1  0
  5  4  1  0
  6  5  1  0
  6  1  1  0
  7  1  1  0
  9  8  2  0
 10  9  1  0
 11 10  2  0
 11  7  1  0
 12 11  1  0
 13  8  1  0
 13 12  2  0
 14  4  1  0
 15 14  1  0
 16 15  1  0
 17 16  2  0
 18 17  1  0
 19 18  1  0
 20 19  2  0
 20 16  1  0
 21 20  1  0
 22 21  2  0
 23 22  1  0
 24 23  2  0
 24 19  1  0
  1 25  1  0
  2 26  1  0
  2 27  1  0
  3 28  1  0
  3 29  1  0
  4 30  1  0
  5 31  1  0
  5 32  1  0
  6 33  1  0
  6 34  1  0
  7 35  1  0
  7 36  1  0
  8 37  1  0
  9 38  1  0
 10 39  1  0
 12 40  1  0
 13 41  1  0
 14 42  1  0
 14 43  1  0
 15 44  1  0
 15 45  1  0
 18 46  1  0
 21 47  1  0
 22 48  1  0
 23 49  1  0
 24 50  1  0
M  CHG  1   1   1
M  END
>  <score>  (1) 
-9.643

$$$$
=
     RDKit          3D

 50 53  0  0  0  0  0  0  0  0999 V2000
    1.0380   67.8460   68.1910 N   0  0  0  0  0  4  0  0  0  0  0  0
   -0.4250   67.4780   68.2720 C   0  0  0  0  0  0  0  0  0  0  0  0
   -0.5640   66.0370   68.7430 C   0  0  0  0  0  0  0  0  0  0  0  0
    0.1300   65.8140   70.0930 C   0  0  0  0  0  0  0  0  0  0  0  0
    1.6030   66.2370   69.9890 C   0  0  0  0  0  0  0  0  0  0  0  0
    1.7380   67.6770   69.5150 C   0  0  0  0  0  0  0  0  0  0  0  0
    1.2550   69.2350   67.6280 C   0  0  0  0  0  0  0  0  0  0  0  0
    5.3160   69.8660   66.3340 C   0  0  0  0  0  0  0  0  0  0  0  0
    4.3860   69.3050   65.4600 C   0  0  0  0  0  0  0  0  0  0  0  0
    3.0680   69.1090   65.8730 C   0  0  0  0  0  0  0  0  0  0  0  0
    2.6680   69.4720   67.1690 C   0  0  0  0  0  0  0  0  0  0  0  0
    3.6130   70.0400   68.0380 C   0  0  0  0  0  0  0  0  0  0  0  0
    4.9290   70.2350   67.6210 C   0  0  0  0  0  0  0  0  0  0  0  0
    0.0260   64.3560   70.5840 C   0  0  0  0  0  0  0  0  0  0  0  0
    1.2610   63.8190   71.3190 C   0  0  0  0  0  0  0  0  0  0  0  0
    2.0120   62.7860   70.5460 C   0  0  0  0  0  0  0  0  0  0  0  0
    2.4840   63.0700   69.3220 N   0  0  0  0  0  0  0  0  0  0  0  0
    3.1420   61.9480   68.9700 N   0  0  0  0  0  0  0  0  0  0  0  0
    3.0460   60.9310   69.8800 C   0  0  0  0  0  0  0  0  0  0  0  0
    2.3130   61.4530   70.9370 C   0  0  0  0  0  0  0  0  0  0  0  0
    2.0560   60.6410   72.0570 C   0  0  0  0  0  0  0  0  0  0  0  0
    2.5450   59.3280   72.0660 C   0  0  0  0  0  0  0  0  0  0  0  0
    3.2780   58.8310   70.9870 C   0  0  0  0  0  0  0  0  0  0  0  0
    3.5480   59.6250   69.8680 C   0  0  0  0  0  0  0  0  0  0  0  0
    1.4643   67.1823   67.5287 H   0  0  0  0  0  0  0  0  0  0  0  0
   -0.9317   68.1463   68.9838 H   0  0  0  0  0  0  0  0  0  0  0  0
   -0.8836   67.5831   67.2777 H   0  0  0  0  0  0  0  0  0  0  0  0
   -1.6325   65.7971   68.8471 H   0  0  0  0  0  0  0  0  0  0  0  0
   -0.0852   65.3842   67.9983 H   0  0  0  0  0  0  0  0  0  0  0  0
   -0.3896   66.4350   70.8375 H   0  0  0  0  0  0  0  0  0  0  0  0
    2.0731   66.1410   70.9788 H   0  0  0  0  0  0  0  0  0  0  0  0
    2.0984   65.5843   69.2551 H   0  0  0  0  0  0  0  0  0  0  0  0
    1.2834   68.3499   70.2570 H   0  0  0  0  0  0  0  0  0  0  0  0
    2.8038   67.9221   69.3964 H   0  0  0  0  0  0  0  0  0  0  0  0
    0.5804   69.3744   66.7704 H   0  0  0  0  0  0  0  0  0  0  0  0
    1.0481   69.9522   68.4359 H   0  0  0  0  0  0  0  0  0  0  0  0
    6.3555   70.0174   66.0077 H   0  0  0  0  0  0  0  0  0  0  0  0
    4.6918   69.0165   64.4435 H   0  0  0  0  0  0  0  0  0  0  0  0
    2.3376   68.6674   65.1791 H   0  0  0  0  0  0  0  0  0  0  0  0
    3.3131   70.3332   69.0549 H   0  0  0  0  0  0  0  0  0  0  0  0
    5.6628   70.6807   68.3087 H   0  0  0  0  0  0  0  0  0  0  0  0
   -0.8322   64.2890   71.2689 H   0  0  0  0  0  0  0  0  0  0  0  0
   -0.0805   63.7388   69.6798 H   0  0  0  0  0  0  0  0  0  0  0  0
    1.9381   64.6614   71.5234 H   0  0  0  0  0  0  0  0  0  0  0  0
    0.9043   63.3370   72.2412 H   0  0  0  0  0  0  0  0  0  0  0  0
    3.6720   61.8633   68.0909 H   0  0  0  0  0  0  0  0  0  0  0  0
    1.4813   61.0301   72.9104 H   0  0  0  0  0  0  0  0  0  0  0  0
    2.3489   58.6811   72.9338 H   0  0  0  0  0  0  0  0  0  0  0  0
    3.6499   57.7962   71.0175 H   0  0  0  0  0  0  0  0  0  0  0  0
    4.1288   59.2402   69.0168 H   0  0  0  0  0  0  0  0  0  0  0  0
  2  1  1  0
  3  2  1  0
  4  3  1  0
  5  4  1  0
  6  5  1  0
  6  1  1  0
  7  1  1  0
  9  8  2  0
 10  9  1  0
 11 10  2  0
 11  7  1  0
 12 11  1  0
 13  8  1  0
 13 12  2  0
 14  4  1  0
 15 14  1  0
 16 15  1  0
 17 16  2  0
 18 17  1  0
 19 18  1  0
 20 19  2  0
 20 16  1  0
 21 20  1  0
 22 21  2  0
 23 22  1  0
 24 23  2  0
 24 19  1  0
  1 25  1  0
  2 26  1  0
  2 27  1  0
  3 28  1  0
  3 29  1  0
  4 30  1  0
  5 31  1  0
  5 32  1  0
  6 33  1  0
  6 34  1  0
  7 35  1  0
  7 36  1  0
  8 37  1  0
  9 38  1  0
 10 39  1  0
 12 40  1  0
 13 41  1  0
 14 42  1  0
 14 43  1  0
 15 44  1  0
 15 45  1  0
 18 46  1  0
 21 47  1  0
 22 48  1  0
 23 49  1  0
 24 50  1  0
M  CHG  1   1   1
M  END
>  <score>  (2) 
-9.621

$$$$
=
     RDKit          3D

 50 53  0  0  0  0  0  0  0  0999 V2000
    1.8610   62.9930   71.5150 N   0  0  0  0  0  4  0  0  0  0  0  0
    2.8660   63.9470   70.9100 C   0  0  0  0  0  0  0  0  0  0  0  0
    2.1750   64.8280   69.8780 C   0  0  0  0  0  0  0  0  0  0  0  0
    0.9950   65.5950   70.4880 C   0  0  0  0  0  0  0  0  0  0  0  0
    0.0150   64.6020   71.1300 C   0  0  0  0  0  0  0  0  0  0  0  0
    0.7080   63.7200   72.1590 C   0  0  0  0  0  0  0  0  0  0  0  0
    2.5000   62.0130   72.4770 C   0  0  0  0  0  0  0  0  0  0  0  0
    3.4040   58.2230   70.6380 C   0  0  0  0  0  0  0  0  0  0  0  0
    3.5070   59.3990   69.8970 C   0  0  0  0  0  0  0  0  0  0  0  0
    3.2230   60.6290   70.4920 C   0  0  0  0  0  0  0  0  0  0  0  0
    2.8330   60.6920   71.8390 C   0  0  0  0  0  0  0  0  0  0  0  0
    2.7390   59.5010   72.5760 C   0  0  0  0  0  0  0  0  0  0  0  0
    3.0230   58.2750   71.9770 C   0  0  0  0  0  0  0  0  0  0  0  0
    0.2620   66.4790   69.4590 C   0  0  0  0  0  0  0  0  0  0  0  0
    1.1010   67.6060   68.8440 C   0  0  0  0  0  0  0  0  0  0  0  0
    1.1090   67.5960   67.3510 C   0  0  0  0  0  0  0  0  0  0  0  0
    0.1480   66.9480   66.6760 N   0  0  0  0  0  0  0  0  0  0  0  0
    0.4400   67.2060   65.3850 N   0  0  0  0  0  0  0  0  0  0  0  0
    1.5900   67.9240   65.2030 C   0  0  0  0  0  0  0  0  0  0  0  0
    2.0540   68.2060   66.4810 C   0  0  0  0  0  0  0  0  0  0  0  0
    3.2320   68.9620   66.6300 C   0  0  0  0  0  0  0  0  0  0  0  0
    3.9020   69.4010   65.4810 C   0  0  0  0  0  0  0  0  0  0  0  0
    3.4120   69.1000   64.2090 C   0  0  0  0  0  0  0  0  0  0  0  0
    2.2400   68.3560   64.0420 C   0  0  0  0  0  0  0  0  0  0  0  0
    1.4807   62.4420   70.7323 H   0  0  0  0  0  0  0  0  0  0  0  0
    3.2948   64.5782   71.7022 H   0  0  0  0  0  0  0  0  0  0  0  0
    3.6680   63.3730   70.4228 H   0  0  0  0  0  0  0  0  0  0  0  0
    2.9031   65.5506   69.4809 H   0  0  0  0  0  0  0  0  0  0  0  0
    1.7870   64.1804   69.0780 H   0  0  0  0  0  0  0  0  0  0  0  0
    1.4019   66.2728   71.2529 H   0  0  0  0  0  0  0  0  0  0  0  0
   -0.7901   65.1643   71.6256 H   0  0  0  0  0  0  0  0  0  0  0  0
   -0.3893   63.9551   70.3375 H   0  0  0  0  0  0  0  0  0  0  0  0
    1.0845   64.3455   72.9817 H   0  0  0  0  0  0  0  0  0  0  0  0
   -0.0110   62.9855   72.5508 H   0  0  0  0  0  0  0  0  0  0  0  0
    3.4280   62.4581   72.8653 H   0  0  0  0  0  0  0  0  0  0  0  0
    1.7713   61.8164   73.2772 H   0  0  0  0  0  0  0  0  0  0  0  0
    3.6235   57.2541   70.1657 H   0  0  0  0  0  0  0  0  0  0  0  0
    3.8127   59.3575   68.8412 H   0  0  0  0  0  0  0  0  0  0  0  0
    3.3052   61.5540   69.9024 H   0  0  0  0  0  0  0  0  0  0  0  0
    2.4391   59.5356   73.6338 H   0  0  0  0  0  0  0  0  0  0  0  0
    2.9462   57.3469   72.5625 H   0  0  0  0  0  0  0  0  0  0  0  0
   -0.0865   65.8306   68.6416 H   0  0  0  0  0  0  0  0  0  0  0  0
   -0.5524   66.9730   70.0092 H   0  0  0  0  0  0  0  0  0  0  0  0
    0.6924   68.5692   69.1835 H   0  0  0  0  0  0  0  0  0  0  0  0
    2.1392   67.4535   69.1741 H   0  0  0  0  0  0  0  0  0  0  0  0
   -0.1518   66.8898   64.6035 H   0  0  0  0  0  0  0  0  0  0  0  0
    3.6194   69.2037   67.6308 H   0  0  0  0  0  0  0  0  0  0  0  0
    4.8255   69.9901   65.5822 H   0  0  0  0  0  0  0  0  0  0  0  0
    3.9577   69.4545   63.3221 H   0  0  0  0  0  0  0  0  0  0  0  0
    1.8465   68.1208   63.0421 H   0  0  0  0  0  0  0  0  0  0  0  0
  2  1  1  0
  3  2  1  0
  4  3  1  0
  5  4  1  0
  6  5  1  0
  6  1  1  0
  7  1  1  0
  9  8  2  0
 10  9  1  0
 11 10  2  0
 11  7  1  0
 12 11  1  0
 13  8  1  0
 13 12  2  0
 14  4  1  0
 15 14  1  0
 16 15  1  0
 17 16  2  0
 18 17  1  0
 19 18  1  0
 20 19  2  0
 20 16  1  0
 21 20  1  0
 22 21  2  0
 23 22  1  0
 24 23  2  0
 24 19  1  0
  1 25  1  0
  2 26  1  0
  2 27  1  0
  3 28  1  0
  3 29  1  0
  4 30  1  0
  5 31  1  0
  5 32  1  0
  6 33  1  0
  6 34  1  0
  7 35  1  0
  7 36  1  0
  8 37  1  0
  9 38  1  0
 10 39  1  0
 12 40  1  0
 13 41  1  0
 14 42  1  0
 14 43  1  0
 15 44  1  0
 15 45  1  0
 18 46  1  0
 21 47  1  0
 22 48  1  0
 23 49  1  0
 24 50  1  0
M  CHG  1   1   1
M  END
>  <score>  (3) 
-9.308

$$$$
=
     RDKit          3D

 50 53  0  0  0  0  0  0  0  0999 V2000
    2.1230   59.0450   73.0540 N   0  0  0  0  0  4  0  0  0  0  0  0
    2.5750   58.4820   71.7260 C   0  0  0  0  0  0  0  0  0  0  0  0
    3.4750   59.4890   71.0240 C   0  0  0  0  0  0  0  0  0  0  0  0
    4.6800   59.8710   71.8920 C   0  0  0  0  0  0  0  0  0  0  0  0
    4.1900   60.3990   73.2480 C   0  0  0  0  0  0  0  0  0  0  0  0
    3.2880   59.3920   73.9460 C   0  0  0  0  0  0  0  0  0  0  0  0
    1.1380   58.1380   73.7630 C   0  0  0  0  0  0  0  0  0  0  0  0
   -2.6920   59.9970   74.4270 C   0  0  0  0  0  0  0  0  0  0  0  0
   -1.7160   60.6580   73.6820 C   0  0  0  0  0  0  0  0  0  0  0  0
   -0.4780   60.0550   73.4580 C   0  0  0  0  0  0  0  0  0  0  0  0
   -0.2050   58.7800   73.9790 C   0  0  0  0  0  0  0  0  0  0  0  0
   -1.1970   58.1220   74.7220 C   0  0  0  0  0  0  0  0  0  0  0  0
   -2.4330   58.7290   74.9440 C   0  0  0  0  0  0  0  0  0  0  0  0
    5.5980   60.9090   71.2150 C   0  0  0  0  0  0  0  0  0  0  0  0
    5.1950   62.3750   71.4170 C   0  0  0  0  0  0  0  0  0  0  0  0
    3.9220   62.7430   70.7280 C   0  0  0  0  0  0  0  0  0  0  0  0
    3.8900   62.8680   69.3920 N   0  0  0  0  0  0  0  0  0  0  0  0
    2.5950   63.1380   69.1320 N   0  0  0  0  0  0  0  0  0  0  0  0
    1.8140   63.2710   70.2470 C   0  0  0  0  0  0  0  0  0  0  0  0
    2.6570   63.0080   71.3190 C   0  0  0  0  0  0  0  0  0  0  0  0
    2.1340   63.0480   72.6250 C   0  0  0  0  0  0  0  0  0  0  0  0
    0.7790   63.3570   72.8010 C   0  0  0  0  0  0  0  0  0  0  0  0
   -0.0430   63.6180   71.7040 C   0  0  0  0  0  0  0  0  0  0  0  0
    0.4580   63.5770   70.3990 C   0  0  0  0  0  0  0  0  0  0  0  0
    1.6247   59.9207   72.8401 H   0  0  0  0  0  0  0  0  0  0  0  0
    3.1319   57.5485   71.8947 H   0  0  0  0  0  0  0  0  0  0  0  0
    1.6956   58.2778   71.0975 H   0  0  0  0  0  0  0  0  0  0  0  0
    3.8379   59.0486   70.0836 H   0  0  0  0  0  0  0  0  0  0  0  0
    2.8879   60.3990   70.8311 H   0  0  0  0  0  0  0  0  0  0  0  0
    5.2831   58.9625   72.0362 H   0  0  0  0  0  0  0  0  0  0  0  0
    5.0611   60.6024   73.8882 H   0  0  0  0  0  0  0  0  0  0  0  0
    3.6104   61.3171   73.0717 H   0  0  0  0  0  0  0  0  0  0  0  0
    3.8619   58.4803   74.1682 H   0  0  0  0  0  0  0  0  0  0  0  0
    2.9108   59.8301   74.8819 H   0  0  0  0  0  0  0  0  0  0  0  0
    0.9989   57.2306   73.1570 H   0  0  0  0  0  0  0  0  0  0  0  0
    1.5563   57.9108   74.7547 H   0  0  0  0  0  0  0  0  0  0  0  0
   -3.6658   60.4761   74.6065 H   0  0  0  0  0  0  0  0  0  0  0  0
   -1.9226   61.6568   73.2701 H   0  0  0  0  0  0  0  0  0  0  0  0
    0.2884   60.5813   72.8700 H   0  0  0  0  0  0  0  0  0  0  0  0
   -0.9985   57.1208   75.1321 H   0  0  0  0  0  0  0  0  0  0  0  0
   -3.2046   58.2060   75.5281 H   0  0  0  0  0  0  0  0  0  0  0  0
    6.6133   60.7777   71.6174 H   0  0  0  0  0  0  0  0  0  0  0  0
    5.5230   60.7204   70.1339 H   0  0  0  0  0  0  0  0  0  0  0  0
    5.0728   62.5572   72.4949 H   0  0  0  0  0  0  0  0  0  0  0  0
    5.9915   62.9932   70.9772 H   0  0  0  0  0  0  0  0  0  0  0  0
    2.2254   63.2358   68.1756 H   0  0  0  0  0  0  0  0  0  0  0  0
    2.7779   62.8403   73.4923 H   0  0  0  0  0  0  0  0  0  0  0  0
    0.3578   63.3943   73.8165 H   0  0  0  0  0  0  0  0  0  0  0  0
   -1.1033   63.8602   71.8686 H   0  0  0  0  0  0  0  0  0  0  0  0
   -0.1864   63.7767   69.5301 H   0  0  0  0  0  0  0  0  0  0  0  0
  2  1  1  0
  3  2  1  0
  4  3  1  0
  5  4  1  0
  6  5  1  0
  6  1  1  0
  7  1  1  0
  9  8  2  0
 10  9  1  0
 11 10  2  0
 11  7  1  0
 12 11  1  0
 13  8  1  0
 13 12  2  0
 14  4  1  0
 15 14  1  0
 16 15  1  0
 17 16  2  0
 18 17  1  0
 19 18  1  0
 20 19  2  0
 20 16  1  0
 21 20  1  0
 22 21  2  0
 23 22  1  0
 24 23  2  0
 24 19  1  0
  1 25  1  0
  2 26  1  0
  2 27  1  0
  3 28  1  0
  3 29  1  0
  4 30  1  0
  5 31  1  0
  5 32  1  0
  6 33  1  0
  6 34  1  0
  7 35  1  0
  7 36  1  0
  8 37  1  0
  9 38  1  0
 10 39  1  0
 12 40  1  0
 13 41  1  0
 14 42  1  0
 14 43  1  0
 15 44  1  0
 15 45  1  0
 18 46  1  0
 21 47  1  0
 22 48  1  0
 23 49  1  0
 24 50  1  0
M  CHG  1   1   1
M  END
>  <score>  (4) 
-8.739

$$$$
=
     RDKit          3D

 50 53  0  0  0  0  0  0  0  0999 V2000
    0.9940   64.7670   70.2260 N   0  0  0  0  0  4  0  0  0  0  0  0
    0.4410   63.7800   71.2280 C   0  0  0  0  0  0  0  0  0  0  0  0
    1.0150   62.3970   70.9510 C   0  0  0  0  0  0  0  0  0  0  0  0
    2.5480   62.4050   70.9830 C   0  0  0  0  0  0  0  0  0  0  0  0
    3.0780   63.4460   69.9870 C   0  0  0  0  0  0  0  0  0  0  0  0
    2.5000   64.8270   70.2640 C   0  0  0  0  0  0  0  0  0  0  0  0
    0.3860   66.1470   70.3760 C   0  0  0  0  0  0  0  0  0  0  0  0
   -0.3950   68.1170   66.6250 C   0  0  0  0  0  0  0  0  0  0  0  0
    0.8280   68.3020   67.2670 C   0  0  0  0  0  0  0  0  0  0  0  0
    1.0870   67.6580   68.4770 C   0  0  0  0  0  0  0  0  0  0  0  0
    0.1210   66.8210   69.0570 C   0  0  0  0  0  0  0  0  0  0  0  0
   -1.1050   66.6380   68.3980 C   0  0  0  0  0  0  0  0  0  0  0  0
   -1.3590   67.2840   67.1880 C   0  0  0  0  0  0  0  0  0  0  0  0
    3.1580   61.0200   70.6830 C   0  0  0  0  0  0  0  0  0  0  0  0
    3.6510   60.2390   71.9080 C   0  0  0  0  0  0  0  0  0  0  0  0
    2.9490   58.9360   72.1060 C   0  0  0  0  0  0  0  0  0  0  0  0
    3.4530   57.8110   71.5770 N   0  0  0  0  0  0  0  0  0  0  0  0
    2.6060   56.8540   72.0070 N   0  0  0  0  0  0  0  0  0  0  0  0
    1.5390   57.3270   72.7200 C   0  0  0  0  0  0  0  0  0  0  0  0
    1.7380   58.6980   72.8110 C   0  0  0  0  0  0  0  0  0  0  0  0
    0.8020   59.4790   73.5150 C   0  0  0  0  0  0  0  0  0  0  0  0
   -0.3040   58.8460   74.0970 C   0  0  0  0  0  0  0  0  0  0  0  0
   -0.4780   57.4650   73.9860 C   0  0  0  0  0  0  0  0  0  0  0  0
    0.4450   56.6730   73.2960 C   0  0  0  0  0  0  0  0  0  0  0  0
    0.7205   64.4161   69.2970 H   0  0  0  0  0  0  0  0  0  0  0  0
    0.7192   64.0952   72.2445 H   0  0  0  0  0  0  0  0  0  0  0  0
   -0.6550   63.7454   71.1408 H   0  0  0  0  0  0  0  0  0  0  0  0
    0.6457   61.6976   71.7155 H   0  0  0  0  0  0  0  0  0  0  0  0
    0.6936   62.0862   69.9460 H   0  0  0  0  0  0  0  0  0  0  0  0
    2.8546   62.6710   72.0054 H   0  0  0  0  0  0  0  0  0  0  0  0
    4.1739   63.4940   70.0692 H   0  0  0  0  0  0  0  0  0  0  0  0
    2.7746   63.1412   68.9746 H   0  0  0  0  0  0  0  0  0  0  0  0
    2.8270   65.1672   71.2576 H   0  0  0  0  0  0  0  0  0  0  0  0
    2.8551   65.5302   69.4962 H   0  0  0  0  0  0  0  0  0  0  0  0
   -0.5661   66.0531   70.9189 H   0  0  0  0  0  0  0  0  0  0  0  0
    1.1115   66.7678   70.9221 H   0  0  0  0  0  0  0  0  0  0  0  0
   -0.5992   68.6291   65.6731 H   0  0  0  0  0  0  0  0  0  0  0  0
    1.5901   68.9567   66.8190 H   0  0  0  0  0  0  0  0  0  0  0  0
    2.0540   67.8070   68.9796 H   0  0  0  0  0  0  0  0  0  0  0  0
   -1.8698   65.9814   68.8384 H   0  0  0  0  0  0  0  0  0  0  0  0
   -2.3221   67.1353   66.6777 H   0  0  0  0  0  0  0  0  0  0  0  0
    2.3909   60.4131   70.1797 H   0  0  0  0  0  0  0  0  0  0  0  0
    4.0483   61.2083   70.0650 H   0  0  0  0  0  0  0  0  0  0  0  0
    4.7258   60.0402   71.7847 H   0  0  0  0  0  0  0  0  0  0  0  0
    3.4399   60.8578   72.7926 H   0  0  0  0  0  0  0  0  0  0  0  0
    2.7502   55.8524   71.8149 H   0  0  0  0  0  0  0  0  0  0  0  0
    0.9366   60.5669   73.6065 H   0  0  0  0  0  0  0  0  0  0  0  0
   -1.0445   59.4443   74.6482 H   0  0  0  0  0  0  0  0  0  0  0  0
   -1.3564   56.9919   74.4494 H   0  0  0  0  0  0  0  0  0  0  0  0
    0.3164   55.5839   73.2100 H   0  0  0  0  0  0  0  0  0  0  0  0
  2  1  1  0
  3  2  1  0
  4  3  1  0
  5  4  1  0
  6  5  1  0
  6  1  1  0
  7  1  1  0
  9  8  2  0
 10  9  1  0
 11 10  2  0
 11  7  1  0
 12 11  1  0
 13  8  1  0
 13 12  2  0
 14  4  1  0
 15 14  1  0
 16 15  1  0
 17 16  2  0
 18 17  1  0
 19 18  1  0
 20 19  2  0
 20 16  1  0
 21 20  1  0
 22 21  2  0
 23 22  1  0
 24 23  2  0
 24 19  1  0
  1 25  1  0
  2 26  1  0
  2 27  1  0
  3 28  1  0
  3 29  1  0
  4 30  1  0
  5 31  1  0
  5 32  1  0
  6 33  1  0
  6 34  1  0
  7 35  1  0
  7 36  1  0
  8 37  1  0
  9 38  1  0
 10 39  1  0
 12 40  1  0
 13 41  1  0
 14 42  1  0
 14 43  1  0
 15 44  1  0
 15 45  1  0
 18 46  1  0
 21 47  1  0
 22 48  1  0
 23 49  1  0
 24 50  1  0
M  CHG  1   1   1
M  END
>  <score>  (5) 
-8.646

$$$$
=
     RDKit          3D

 50 53  0  0  0  0  0  0  0  0999 V2000
    0.6900   67.2900   67.7400 N   0  0  0  0  0  4  0  0  0  0  0  0
   -0.7240   66.9700   68.1660 C   0  0  0  0  0  0  0  0  0  0  0  0
   -0.7080   65.8270   69.1720 C   0  0  0  0  0  0  0  0  0  0  0  0
    0.1670   66.1570   70.3880 C   0  0  0  0  0  0  0  0  0  0  0  0
    1.5830   66.5190   69.9200 C   0  0  0  0  0  0  0  0  0  0  0  0
    1.5630   67.6600   68.9120 C   0  0  0  0  0  0  0  0  0  0  0  0
    0.7430   68.3500   66.6590 C   0  0  0  0  0  0  0  0  0  0  0  0
    4.5410   68.4370   64.6280 C   0  0  0  0  0  0  0  0  0  0  0  0
    3.5890   67.4780   64.2840 C   0  0  0  0  0  0  0  0  0  0  0  0
    2.3540   67.4540   64.9340 C   0  0  0  0  0  0  0  0  0  0  0  0
    2.0610   68.3910   65.9370 C   0  0  0  0  0  0  0  0  0  0  0  0
    3.0260   69.3540   66.2710 C   0  0  0  0  0  0  0  0  0  0  0  0
    4.2590   69.3750   65.6180 C   0  0  0  0  0  0  0  0  0  0  0  0
    0.2210   65.0060   71.4140 C   0  0  0  0  0  0  0  0  0  0  0  0
    0.6460   63.6440   70.8520 C   0  0  0  0  0  0  0  0  0  0  0  0
    0.3040   62.4970   71.7460 C   0  0  0  0  0  0  0  0  0  0  0  0
   -0.8270   62.5210   72.4690 N   0  0  0  0  0  0  0  0  0  0  0  0
   -0.8290   61.3230   73.0880 N   0  0  0  0  0  0  0  0  0  0  0  0
    0.2880   60.5680   72.8550 C   0  0  0  0  0  0  0  0  0  0  0  0
    1.0530   61.3100   71.9660 C   0  0  0  0  0  0  0  0  0  0  0  0
    2.2770   60.7830   71.5130 C   0  0  0  0  0  0  0  0  0  0  0  0
    2.6850   59.5260   71.9780 C   0  0  0  0  0  0  0  0  0  0  0  0
    1.8930   58.8050   72.8730 C   0  0  0  0  0  0  0  0  0  0  0  0
    0.6720   59.3100   73.3300 C   0  0  0  0  0  0  0  0  0  0  0  0
    1.0699   66.4240   67.3317 H   0  0  0  0  0  0  0  0  0  0  0  0
   -1.1769   67.8590   68.6292 H   0  0  0  0  0  0  0  0  0  0  0  0
   -1.3126   66.6734   67.2853 H   0  0  0  0  0  0  0  0  0  0  0  0
   -1.7364   65.6374   69.5132 H   0  0  0  0  0  0  0  0  0  0  0  0
   -0.2882   64.9389   68.6770 H   0  0  0  0  0  0  0  0  0  0  0  0
   -0.2915   67.0157   70.9002 H   0  0  0  0  0  0  0  0  0  0  0  0
    2.1809   66.8228   70.7919 H   0  0  0  0  0  0  0  0  0  0  0  0
    2.0218   65.6358   69.4328 H   0  0  0  0  0  0  0  0  0  0  0  0
    1.1643   68.5654   69.3930 H   0  0  0  0  0  0  0  0  0  0  0  0
    2.5868   67.8494   68.5571 H   0  0  0  0  0  0  0  0  0  0  0  0
   -0.0511   68.1429   65.9265 H   0  0  0  0  0  0  0  0  0  0  0  0
    0.6072   69.3253   67.1492 H   0  0  0  0  0  0  0  0  0  0  0  0
    5.5151   68.4526   64.1172 H   0  0  0  0  0  0  0  0  0  0  0  0
    3.8115   66.7396   63.4996 H   0  0  0  0  0  0  0  0  0  0  0  0
    1.6059   66.6961   64.6585 H   0  0  0  0  0  0  0  0  0  0  0  0
    2.8089   70.0970   67.0526 H   0  0  0  0  0  0  0  0  0  0  0  0
    5.0093   70.1335   65.8856 H   0  0  0  0  0  0  0  0  0  0  0  0
    0.9361   65.2864   72.2014 H   0  0  0  0  0  0  0  0  0  0  0  0
   -0.8087   64.8759   71.7783 H   0  0  0  0  0  0  0  0  0  0  0  0
    0.1429   63.4940   69.8854 H   0  0  0  0  0  0  0  0  0  0  0  0
    1.7415   63.6622   70.7540 H   0  0  0  0  0  0  0  0  0  0  0  0
   -1.6051   61.0036   73.6852 H   0  0  0  0  0  0  0  0  0  0  0  0
    2.9023   61.3482   70.8062 H   0  0  0  0  0  0  0  0  0  0  0  0
    3.6401   59.1026   71.6339 H   0  0  0  0  0  0  0  0  0  0  0  0
    2.2359   57.8210   73.2254 H   0  0  0  0  0  0  0  0  0  0  0  0
    0.0419   58.7434   74.0314 H   0  0  0  0  0  0  0  0  0  0  0  0
  2  1  1  0
  3  2  1  0
  4  3  1  0
  5  4  1  0
  6  5  1  0
  6  1  1  0
  7  1  1  0
  9  8  2  0
 10  9  1  0
 11 10  2  0
 11  7  1  0
 12 11  1  0
 13  8  1  0
 13 12  2  0
 14  4  1  0
 15 14  1  0
 16 15  1  0
 17 16  2  0
 18 17  1  0
 19 18  1  0
 20 19  2  0
 20 16  1  0
 21 20  1  0
 22 21  2  0
 23 22  1  0
 24 23  2  0
 24 19  1  0
  1 25  1  0
  2 26  1  0
  2 27  1  0
  3 28  1  0
  3 29  1  0
  4 30  1  0
  5 31  1  0
  5 32  1  0
  6 33  1  0
  6 34  1  0
  7 35  1  0
  7 36  1  0
  8 37  1  0
  9 38  1  0
 10 39  1  0
 12 40  1  0
 13 41  1  0
 14 42  1  0
 14 43  1  0
 15 44  1  0
 15 45  1  0
 18 46  1  0
 21 47  1  0
 22 48  1  0
 23 49  1  0
 24 50  1  0
M  CHG  1   1   1
M  END
>  <score>  (6) 
-8.62

$$$$
=
     RDKit          3D

 50 53  0  0  0  0  0  0  0  0999 V2000
    1.0230   67.7890   68.0570 N   0  0  0  0  0  4  0  0  0  0  0  0
   -0.4490   67.5290   68.2770 C   0  0  0  0  0  0  0  0  0  0  0  0
   -0.6320   66.1800   68.9600 C   0  0  0  0  0  0  0  0  0  0  0  0
    0.1390   66.1070   70.2840 C   0  0  0  0  0  0  0  0  0  0  0  0
    1.6210   66.4180   70.0330 C   0  0  0  0  0  0  0  0  0  0  0  0
    1.8010   67.7650   69.3480 C   0  0  0  0  0  0  0  0  0  0  0  0
    1.2760   69.0690   67.2860 C   0  0  0  0  0  0  0  0  0  0  0  0
    5.4170   70.2530   67.1960 C   0  0  0  0  0  0  0  0  0  0  0  0
    4.6210   70.5870   68.2900 C   0  0  0  0  0  0  0  0  0  0  0  0
    3.2820   70.1970   68.3270 C   0  0  0  0  0  0  0  0  0  0  0  0
    2.7260   69.4670   67.2640 C   0  0  0  0  0  0  0  0  0  0  0  0
    3.5390   69.1330   66.1700 C   0  0  0  0  0  0  0  0  0  0  0  0
    4.8770   69.5240   66.1380 C   0  0  0  0  0  0  0  0  0  0  0  0
   -0.0100   64.7430   70.9870 C   0  0  0  0  0  0  0  0  0  0  0  0
    0.6860   63.5650   70.2910 C   0  0  0  0  0  0  0  0  0  0  0  0
    1.2080   62.5370   71.2410 C   0  0  0  0  0  0  0  0  0  0  0  0
    2.5200   62.2560   71.2740 N   0  0  0  0  0  0  0  0  0  0  0  0
    2.6220   61.3520   72.2690 N   0  0  0  0  0  0  0  0  0  0  0  0
    1.4240   60.9840   72.8200 C   0  0  0  0  0  0  0  0  0  0  0  0
    0.4700   61.7550   72.1690 C   0  0  0  0  0  0  0  0  0  0  0  0
   -0.8830   61.6170   72.5330 C   0  0  0  0  0  0  0  0  0  0  0  0
   -1.2230   60.7030   73.5380 C   0  0  0  0  0  0  0  0  0  0  0  0
   -0.2400   59.9410   74.1730 C   0  0  0  0  0  0  0  0  0  0  0  0
    1.1090   60.0680   73.8290 C   0  0  0  0  0  0  0  0  0  0  0  0
    1.3673   67.0129   67.4739 H   0  0  0  0  0  0  0  0  0  0  0  0
   -0.8699   68.3217   68.9130 H   0  0  0  0  0  0  0  0  0  0  0  0
   -0.9680   67.5213   67.3072 H   0  0  0  0  0  0  0  0  0  0  0  0
   -1.7022   66.0243   69.1613 H   0  0  0  0  0  0  0  0  0  0  0  0
   -0.2400   65.4000   68.2907 H   0  0  0  0  0  0  0  0  0  0  0  0
   -0.2948   66.8586   70.9600 H   0  0  0  0  0  0  0  0  0  0  0  0
    2.1510   66.4337   70.9968 H   0  0  0  0  0  0  0  0  0  0  0  0
    2.0299   65.6385   69.3734 H   0  0  0  0  0  0  0  0  0  0  0  0
    1.4346   68.5633   70.0101 H   0  0  0  0  0  0  0  0  0  0  0  0
    2.8680   67.9232   69.1322 H   0  0  0  0  0  0  0  0  0  0  0  0
    0.9362   68.9265   66.2495 H   0  0  0  0  0  0  0  0  0  0  0  0
    0.7227   69.8728   67.7937 H   0  0  0  0  0  0  0  0  0  0  0  0
    6.4715   70.5647   67.1675 H   0  0  0  0  0  0  0  0  0  0  0  0
    5.0493   71.1593   69.1261 H   0  0  0  0  0  0  0  0  0  0  0  0
    2.6585   70.4627   69.1934 H   0  0  0  0  0  0  0  0  0  0  0  0
    3.1177   68.5587   65.3318 H   0  0  0  0  0  0  0  0  0  0  0  0
    5.5070   69.2568   65.2768 H   0  0  0  0  0  0  0  0  0  0  0  0
    0.4098   64.8352   71.9996 H   0  0  0  0  0  0  0  0  0  0  0  0
   -1.0851   64.5108   70.9742 H   0  0  0  0  0  0  0  0  0  0  0  0
   -0.0371   63.0817   69.6175 H   0  0  0  0  0  0  0  0  0  0  0  0
    1.5512   63.9742   69.7489 H   0  0  0  0  0  0  0  0  0  0  0  0
    3.5243   60.9707   72.5874 H   0  0  0  0  0  0  0  0  0  0  0  0
   -1.6598   62.2169   72.0364 H   0  0  0  0  0  0  0  0  0  0  0  0
   -2.2766   60.5839   73.8307 H   0  0  0  0  0  0  0  0  0  0  0  0
   -0.5324   59.2280   74.9580 H   0  0  0  0  0  0  0  0  0  0  0  0
    1.8880   59.4741   74.3295 H   0  0  0  0  0  0  0  0  0  0  0  0
  2  1  1  0
  3  2  1  0
  4  3  1  0
  5  4  1  0
  6  5  1  0
  6  1  1  0
  7  1  1  0
  9  8  2  0
 10  9  1  0
 11 10  2  0
 11  7  1  0
 12 11  1  0
 13  8  1  0
 13 12  2  0
 14  4  1  0
 15 14  1  0
 16 15  1  0
 17 16  2  0
 18 17  1  0
 19 18  1  0
 20 19  2  0
 20 16  1  0
 21 20  1  0
 22 21  2  0
 23 22  1  0
 24 23  2  0
 24 19  1  0
  1 25  1  0
  2 26  1  0
  2 27  1  0
  3 28  1  0
  3 29  1  0
  4 30  1  0
  5 31  1  0
  5 32  1  0
  6 33  1  0
  6 34  1  0
  7 35  1  0
  7 36  1  0
  8 37  1  0
  9 38  1  0
 10 39  1  0
 12 40  1  0
 13 41  1  0
 14 42  1  0
 14 43  1  0
 15 44  1  0
 15 45  1  0
 18 46  1  0
 21 47  1  0
 22 48  1  0
 23 49  1  0
 24 50  1  0
M  CHG  1   1   1
M  END
>  <score>  (7) 
-8.473

$$$$
=
     RDKit          3D

 50 53  0  0  0  0  0  0  0  0999 V2000
    2.9550   70.2300   68.2230 N   0  0  0  0  0  4  0  0  0  0  0  0
    1.7590   69.3360   68.4570 C   0  0  0  0  0  0  0  0  0  0  0  0
    1.0660   69.0530   67.1320 C   0  0  0  0  0  0  0  0  0  0  0  0
    2.0270   68.4230   66.1140 C   0  0  0  0  0  0  0  0  0  0  0  0
    3.2490   69.3340   65.9310 C   0  0  0  0  0  0  0  0  0  0  0  0
    3.9380   69.6170   67.2580 C   0  0  0  0  0  0  0  0  0  0  0  0
    3.6340   70.6390   69.5140 C   0  0  0  0  0  0  0  0  0  0  0  0
    7.8820   71.2340   69.1090 C   0  0  0  0  0  0  0  0  0  0  0  0
    7.3780   70.5380   70.2060 C   0  0  0  0  0  0  0  0  0  0  0  0
    6.0030   70.3350   70.3350 C   0  0  0  0  0  0  0  0  0  0  0  0
    5.1190   70.8300   69.3650 C   0  0  0  0  0  0  0  0  0  0  0  0
    5.6390   71.5260   68.2620 C   0  0  0  0  0  0  0  0  0  0  0  0
    7.0130   71.7260   68.1370 C   0  0  0  0  0  0  0  0  0  0  0  0
    1.3560   68.1470   64.7530 C   0  0  0  0  0  0  0  0  0  0  0  0
    2.2050   68.4870   63.5210 C   0  0  0  0  0  0  0  0  0  0  0  0
    3.2000   67.4290   63.1730 C   0  0  0  0  0  0  0  0  0  0  0  0
    4.0300   67.6010   62.1330 N   0  0  0  0  0  0  0  0  0  0  0  0
    4.8050   66.4980   62.1640 N   0  0  0  0  0  0  0  0  0  0  0  0
    4.4560   65.5920   63.1280 C   0  0  0  0  0  0  0  0  0  0  0  0
    3.4040   66.1800   63.8190 C   0  0  0  0  0  0  0  0  0  0  0  0
    2.8280   65.4900   64.9020 C   0  0  0  0  0  0  0  0  0  0  0  0
    3.3330   64.2290   65.2450 C   0  0  0  0  0  0  0  0  0  0  0  0
    4.3900   63.6640   64.5300 C   0  0  0  0  0  0  0  0  0  0  0  0
    4.9790   64.3370   63.4550 C   0  0  0  0  0  0  0  0  0  0  0  0
    2.5901   71.0901   67.7895 H   0  0  0  0  0  0  0  0  0  0  0  0
    2.0924   68.3885   68.9054 H   0  0  0  0  0  0  0  0  0  0  0  0
    1.0553   69.8380   69.1373 H   0  0  0  0  0  0  0  0  0  0  0  0
    0.2288   68.3615   67.3077 H   0  0  0  0  0  0  0  0  0  0  0  0
    0.7074   70.0081   66.7208 H   0  0  0  0  0  0  0  0  0  0  0  0
    2.3404   67.4476   66.5143 H   0  0  0  0  0  0  0  0  0  0  0  0
    3.9637   68.8417   65.2551 H   0  0  0  0  0  0  0  0  0  0  0  0
    2.9061   70.2905   65.5095 H   0  0  0  0  0  0  0  0  0  0  0  0
    4.3232   68.6759   67.6775 H   0  0  0  0  0  0  0  0  0  0  0  0
    4.7702   70.3172   67.0932 H   0  0  0  0  0  0  0  0  0  0  0  0
    3.1919   71.5859   69.8573 H   0  0  0  0  0  0  0  0  0  0  0  0
    3.4789   69.8256   70.2382 H   0  0  0  0  0  0  0  0  0  0  0  0
    8.9657   71.3950   69.0103 H   0  0  0  0  0  0  0  0  0  0  0  0
    8.0648   70.1479   70.9716 H   0  0  0  0  0  0  0  0  0  0  0  0
    5.6105   69.7837   71.2022 H   0  0  0  0  0  0  0  0  0  0  0  0
    4.9578   71.9160   67.4914 H   0  0  0  0  0  0  0  0  0  0  0  0
    7.4118   72.2729   67.2699 H   0  0  0  0  0  0  0  0  0  0  0  0
    1.1062   67.0767   64.7084 H   0  0  0  0  0  0  0  0  0  0  0  0
    0.4776   68.8076   64.7081 H   0  0  0  0  0  0  0  0  0  0  0  0
    1.5320   68.6280   62.6624 H   0  0  0  0  0  0  0  0  0  0  0  0
    2.7722   69.3986   63.7604 H   0  0  0  0  0  0  0  0  0  0  0  0
    5.5927   66.3501   61.5170 H   0  0  0  0  0  0  0  0  0  0  0  0
    1.9960   65.9329   65.4691 H   0  0  0  0  0  0  0  0  0  0  0  0
    2.8911   63.6776   66.0880 H   0  0  0  0  0  0  0  0  0  0  0  0
    4.7666   62.6712   64.8173 H   0  0  0  0  0  0  0  0  0  0  0  0
    5.8162   63.8988   62.8919 H   0  0  0  0  0  0  0  0  0  0  0  0
  2  1  1  0
  3  2  1  0
  4  3  1  0
  5  4  1  0
  6  5  1  0
  6  1  1  0
  7  1  1  0
  9  8  2  0
 10  9  1  0
 11 10  2  0
 11  7  1  0
 12 11  1  0
 13  8  1  0
 13 12  2  0
 14  4  1  0
 15 14  1  0
 16 15  1  0
 17 16  2  0
 18 17  1  0
 19 18  1  0
 20 19  2  0
 20 16  1  0
 21 20  1  0
 22 21  2  0
 23 22  1  0
 24 23  2  0
 24 19  1  0
  1 25  1  0
  2 26  1  0
  2 27  1  0
  3 28  1  0
  3 29  1  0
  4 30  1  0
  5 31  1  0
  5 32  1  0
  6 33  1  0
  6 34  1  0
  7 35  1  0
  7 36  1  0
  8 37  1  0
  9 38  1  0
 10 39  1  0
 12 40  1  0
 13 41  1  0
 14 42  1  0
 14 43  1  0
 15 44  1  0
 15 45  1  0
 18 46  1  0
 21 47  1  0
 22 48  1  0
 23 49  1  0
 24 50  1  0
M  CHG  1   1   1
M  END
>  <score>  (8) 
-8.407

$$$$
=
     RDKit          3D

 50 53  0  0  0  0  0  0  0  0999 V2000
    1.1110   62.9270   71.7350 N   0  0  0  0  0  4  0  0  0  0  0  0
   -0.1120   63.8040   71.8750 C   0  0  0  0  0  0  0  0  0  0  0  0
    0.2610   65.2500   71.5800 C   0  0  0  0  0  0  0  0  0  0  0  0
    0.8830   65.4010   70.1860 C   0  0  0  0  0  0  0  0  0  0  0  0
    2.0960   64.4680   70.0620 C   0  0  0  0  0  0  0  0  0  0  0  0
    1.7210   63.0230   70.3590 C   0  0  0  0  0  0  0  0  0  0  0  0
    0.8380   61.4870   72.1160 C   0  0  0  0  0  0  0  0  0  0  0  0
    4.3910   59.3530   73.2910 C   0  0  0  0  0  0  0  0  0  0  0  0
    4.4260   60.7400   73.1520 C   0  0  0  0  0  0  0  0  0  0  0  0
    3.2740   61.4340   72.7800 C   0  0  0  0  0  0  0  0  0  0  0  0
    2.0740   60.7450   72.5440 C   0  0  0  0  0  0  0  0  0  0  0  0
    2.0510   59.3490   72.6920 C   0  0  0  0  0  0  0  0  0  0  0  0
    3.2050   58.6590   73.0650 C   0  0  0  0  0  0  0  0  0  0  0  0
    1.2920   66.8540   69.8700 C   0  0  0  0  0  0  0  0  0  0  0  0
    0.7470   67.4190   68.5520 C   0  0  0  0  0  0  0  0  0  0  0  0
    1.7380   68.2500   67.8050 C   0  0  0  0  0  0  0  0  0  0  0  0
    2.3500   69.2780   68.4120 N   0  0  0  0  0  0  0  0  0  0  0  0
    3.1970   69.7400   67.4710 N   0  0  0  0  0  0  0  0  0  0  0  0
    3.0990   69.1040   66.2640 C   0  0  0  0  0  0  0  0  0  0  0  0
    2.1490   68.1080   66.4520 C   0  0  0  0  0  0  0  0  0  0  0  0
    1.8330   67.2540   65.3780 C   0  0  0  0  0  0  0  0  0  0  0  0
    2.4850   67.4410   64.1520 C   0  0  0  0  0  0  0  0  0  0  0  0
    3.4340   68.4520   63.9950 C   0  0  0  0  0  0  0  0  0  0  0  0
    3.7650   69.3060   65.0510 C   0  0  0  0  0  0  0  0  0  0  0  0
    1.8025   63.2899   72.4066 H   0  0  0  0  0  0  0  0  0  0  0  0
   -0.8836   63.4726   71.1645 H   0  0  0  0  0  0  0  0  0  0  0  0
   -0.5004   63.7287   72.9014 H   0  0  0  0  0  0  0  0  0  0  0  0
   -0.6455   65.8706   71.6353 H   0  0  0  0  0  0  0  0  0  0  0  0
    1.0042   65.5717   72.3244 H   0  0  0  0  0  0  0  0  0  0  0  0
    0.1150   65.1220   69.4495 H   0  0  0  0  0  0  0  0  0  0  0  0
    2.4923   64.5312   69.0378 H   0  0  0  0  0  0  0  0  0  0  0  0
    2.8523   64.7859   70.7948 H   0  0  0  0  0  0  0  0  0  0  0  0
    0.9935   62.6733   69.6117 H   0  0  0  0  0  0  0  0  0  0  0  0
    2.6245   62.3969   70.3173 H   0  0  0  0  0  0  0  0  0  0  0  0
    0.1175   61.4754   72.9471 H   0  0  0  0  0  0  0  0  0  0  0  0
    0.4446   60.9804   71.2223 H   0  0  0  0  0  0  0  0  0  0  0  0
    5.3010   58.8065   73.5794 H   0  0  0  0  0  0  0  0  0  0  0  0
    5.3623   61.2874   73.3357 H   0  0  0  0  0  0  0  0  0  0  0  0
    3.3064   62.5281   72.6710 H   0  0  0  0  0  0  0  0  0  0  0  0
    1.1173   58.7957   72.5128 H   0  0  0  0  0  0  0  0  0  0  0  0
    3.1779   57.5654   73.1807 H   0  0  0  0  0  0  0  0  0  0  0  0
    0.9309   67.4939   70.6886 H   0  0  0  0  0  0  0  0  0  0  0  0
    2.3870   66.8449   69.7662 H   0  0  0  0  0  0  0  0  0  0  0  0
    0.4447   66.5777   67.9111 H   0  0  0  0  0  0  0  0  0  0  0  0
   -0.0988   68.0747   68.8063 H   0  0  0  0  0  0  0  0  0  0  0  0
    3.8618   70.5070   67.6459 H   0  0  0  0  0  0  0  0  0  0  0  0
    1.0875   66.4543   65.4993 H   0  0  0  0  0  0  0  0  0  0  0  0
    2.2460   66.7832   63.3033 H   0  0  0  0  0  0  0  0  0  0  0  0
    3.9309   68.5793   63.0219 H   0  0  0  0  0  0  0  0  0  0  0  0
    4.5157   70.1013   64.9331 H   0  0  0  0  0  0  0  0  0  0  0  0
  2  1  1  0
  3  2  1  0
  4  3  1  0
  5  4  1  0
  6  5  1  0
  6  1  1  0
  7  1  1  0
  9  8  2  0
 10  9  1  0
 11 10  2  0
 11  7  1  0
 12 11  1  0
 13  8  1  0
 13 12  2  0
 14  4  1  0
 15 14  1  0
 16 15  1  0
 17 16  2  0
 18 17  1  0
 19 18  1  0
 20 19  2  0
 20 16  1  0
 21 20  1  0
 22 21  2  0
 23 22  1  0
 24 23  2  0
 24 19  1  0
  1 25  1  0
  2 26  1  0
  2 27  1  0
  3 28  1  0
  3 29  1  0
  4 30  1  0
  5 31  1  0
  5 32  1  0
  6 33  1  0
  6 34  1  0
  7 35  1  0
  7 36  1  0
  8 37  1  0
  9 38  1  0
 10 39  1  0
 12 40  1  0
 13 41  1  0
 14 42  1  0
 14 43  1  0
 15 44  1  0
 15 45  1  0
 18 46  1  0
 21 47  1  0
 22 48  1  0
 23 49  1  0
 24 50  1  0
M  CHG  1   1   1
M  END
>  <score>  (9) 
-8.105

$$$$
