=
     RDKit          3D

 35 37  0  0  0  0  0  0  0  0999 V2000
    2.3320   60.3270   72.2480 C   0  0  0  0  0  0  0  0  0  0  0  0
    1.6030   61.3890   72.7410 C   0  0  0  0  0  0  0  0  0  0  0  0
    0.9920   61.4230   73.8600 O   0  0  0  0  0  1  0  0  0  0  0  0
    1.5200   62.6500   71.8960 C   0  0  0  0  0  0  0  0  0  0  0  0
    0.4400   63.5460   72.0290 C   0  0  0  0  0  0  0  0  0  0  0  0
    0.3810   64.7490   71.3140 C   0  0  0  0  0  0  0  0  0  0  0  0
    1.4080   65.0930   70.4410 C   0  0  0  0  0  0  0  0  0  0  0  0
    2.4890   64.2300   70.2850 C   0  0  0  0  0  0  0  0  0  0  0  0
    2.5310   63.0360   71.0200 C   0  0  0  0  0  0  0  0  0  0  0  0
    3.7940   61.8740   70.7200 S   0  0  0  0  0  6  0  0  0  0  0  0
    4.8250   62.0030   71.7300 O   0  0  0  0  0  0  0  0  0  0  0  0
    4.1420   61.9870   69.3120 O   0  0  0  0  0  0  0  0  0  0  0  0
    2.9240   60.4400   70.9220 N   0  0  0  0  0  0  0  0  0  0  0  0
    3.5260   59.2730   70.2600 C   0  0  0  0  0  0  0  0  0  0  0  0
   -0.6320   53.8540   74.8350 C   0  0  0  0  0  0  0  0  0  0  0  0
    0.2770   54.9760   74.4970 C   0  0  0  0  0  0  0  0  0  0  0  0
    1.6120   55.1520   74.7930 C   0  0  0  0  0  0  0  0  0  0  0  0
    2.1810   56.3200   74.3310 N   0  0  0  0  0  0  0  0  0  0  0  0
    1.2750   57.0220   73.6930 C   0  0  0  0  0  0  0  0  0  0  0  0
   -0.2860   56.3270   73.6030 S   0  0  0  0  0  0  0  0  0  0  0  0
    1.3770   58.2270   73.0770 N   0  0  0  0  0  0  0  0  0  0  0  0
    2.5070   58.9990   73.0340 C   0  0  0  0  0  0  0  0  0  0  0  0
    3.5770   58.6970   73.5640 O   0  0  0  0  0  0  0  0  0  0  0  0
   -0.3815   63.2927   72.7152 H   0  0  0  0  0  0  0  0  0  0  0  0
   -0.4788   65.4228   71.4430 H   0  0  0  0  0  0  0  0  0  0  0  0
    1.3662   66.0379   69.8794 H   0  0  0  0  0  0  0  0  0  0  0  0
    3.3040   64.4824   69.5907 H   0  0  0  0  0  0  0  0  0  0  0  0
    3.8901   58.5671   71.0210 H   0  0  0  0  0  0  0  0  0  0  0  0
    2.7709   58.7777   69.6319 H   0  0  0  0  0  0  0  0  0  0  0  0
    4.3673   59.6012   69.6319 H   0  0  0  0  0  0  0  0  0  0  0  0
   -0.7079   53.7603   75.9284 H   0  0  0  0  0  0  0  0  0  0  0  0
   -1.6290   54.0501   74.4137 H   0  0  0  0  0  0  0  0  0  0  0  0
   -0.2333   52.9194   74.4137 H   0  0  0  0  0  0  0  0  0  0  0  0
    2.1874   54.4071   75.3622 H   0  0  0  0  0  0  0  0  0  0  0  0
    0.5371   58.5898   72.6039 H   0  0  0  0  0  0  0  0  0  0  0  0
  2  1  2  0
  3  2  1  0
  4  2  1  0
  5  4  2  0
  6  5  1  0
  7  6  2  0
  8  7  1  0
  9  8  2  0
  9  4  1  0
 10  9  1  0
 11 10  2  0
 12 10  2  0
 13 10  1  0
 13  1  1  0
 14 13  1  0
 16 15  1  0
 17 16  2  0
 18 17  1  0
 19 18  2  0
 20 19  1  0
 20 16  1  0
 21 19  1  0
 22 21  1  0
 22  1  1  0
 23 22  2  0
  5 24  1  0
  6 25  1  0
  7 26  1  0
  8 27  1  0
 14 28  1  0
 14 29  1  0
 14 30  1  0
 15 31  1  0
 15 32  1  0
 15 33  1  0
 17 34  1  0
 21 35  1  0
M  CHG  1   3  -1
M  END
>  <score>  (1) 
-8.301

$$$$
=
     RDKit          3D

 35 37  0  0  0  0  0  0  0  0999 V2000
    2.0400   59.5500   72.5260 C   0  0  0  0  0  0  0  0  0  0  0  0
    1.4900   60.7950   72.7470 C   0  0  0  0  0  0  0  0  0  0  0  0
    0.6380   61.0870   73.6500 O   0  0  0  0  0  1  0  0  0  0  0  0
    1.9400   61.9410   71.8550 C   0  0  0  0  0  0  0  0  0  0  0  0
    1.1140   63.0640   71.6410 C   0  0  0  0  0  0  0  0  0  0  0  0
    1.5380   64.1630   70.8830 C   0  0  0  0  0  0  0  0  0  0  0  0
    2.8080   64.1710   70.3150 C   0  0  0  0  0  0  0  0  0  0  0  0
    3.6480   63.0770   70.5050 C   0  0  0  0  0  0  0  0  0  0  0  0
    3.2050   61.9930   71.2770 C   0  0  0  0  0  0  0  0  0  0  0  0
    4.1790   60.5530   71.3950 S   0  0  0  0  0  6  0  0  0  0  0  0
    4.9130   60.5610   72.6440 O   0  0  0  0  0  0  0  0  0  0  0  0
    4.8970   60.4290   70.1340 O   0  0  0  0  0  0  0  0  0  0  0  0
    2.9640   59.3800   71.4120 N   0  0  0  0  0  0  0  0  0  0  0  0
    3.4120   58.0420   70.9990 C   0  0  0  0  0  0  0  0  0  0  0  0
    2.5770   55.8060   79.0890 C   0  0  0  0  0  0  0  0  0  0  0  0
    2.2360   56.2340   77.7110 C   0  0  0  0  0  0  0  0  0  0  0  0
    1.4430   55.6180   76.7650 C   0  0  0  0  0  0  0  0  0  0  0  0
    1.3220   56.2790   75.5600 N   0  0  0  0  0  0  0  0  0  0  0  0
    2.0260   57.3860   75.5990 C   0  0  0  0  0  0  0  0  0  0  0  0
    2.8530   57.6980   77.0640 S   0  0  0  0  0  0  0  0  0  0  0  0
    2.2040   58.3420   74.6530 N   0  0  0  0  0  0  0  0  0  0  0  0
    1.6760   58.3110   73.3900 C   0  0  0  0  0  0  0  0  0  0  0  0
    0.9780   57.3970   72.9490 O   0  0  0  0  0  0  0  0  0  0  0  0
    0.1066   63.0772   72.0826 H   0  0  0  0  0  0  0  0  0  0  0  0
    0.8657   65.0212   70.7366 H   0  0  0  0  0  0  0  0  0  0  0  0
    3.1453   65.0335   69.7214 H   0  0  0  0  0  0  0  0  0  0  0  0
    4.6509   63.0629   70.0533 H   0  0  0  0  0  0  0  0  0  0  0  0
    3.6162   57.4321   71.8913 H   0  0  0  0  0  0  0  0  0  0  0  0
    2.6258   57.5613   70.3983 H   0  0  0  0  0  0  0  0  0  0  0  0
    4.3292   58.1316   70.3983 H   0  0  0  0  0  0  0  0  0  0  0  0
    2.0607   56.4540   79.8125 H   0  0  0  0  0  0  0  0  0  0  0  0
    2.2592   54.7636   79.2384 H   0  0  0  0  0  0  0  0  0  0  0  0
    3.6641   55.8829   79.2384 H   0  0  0  0  0  0  0  0  0  0  0  0
    0.9388   54.6599   76.9592 H   0  0  0  0  0  0  0  0  0  0  0  0
    2.7825   59.1561   74.9049 H   0  0  0  0  0  0  0  0  0  0  0  0
  2  1  2  0
  3  2  1  0
  4  2  1  0
  5  4  2  0
  6  5  1  0
  7  6  2  0
  8  7  1  0
  9  8  2  0
  9  4  1  0
 10  9  1  0
 11 10  2  0
 12 10  2  0
 13 10  1  0
 13  1  1  0
 14 13  1  0
 16 15  1  0
 17 16  2  0
 18 17  1  0
 19 18  2  0
 20 19  1  0
 20 16  1  0
 21 19  1  0
 22 21  1  0
 22  1  1  0
 23 22  2  0
  5 24  1  0
  6 25  1  0
  7 26  1  0
  8 27  1  0
 14 28  1  0
 14 29  1  0
 14 30  1  0
 15 31  1  0
 15 32  1  0
 15 33  1  0
 17 34  1  0
 21 35  1  0
M  CHG  1   3  -1
M  END
>  <score>  (2) 
-7.743

$$$$
=
     RDKit          3D

 35 37  0  0  0  0  0  0  0  0999 V2000
    2.6570   59.3110   73.0950 C   0  0  0  0  0  0  0  0  0  0  0  0
    3.0320   59.1790   71.7740 C   0  0  0  0  0  0  0  0  0  0  0  0
    3.3540   58.0920   71.1920 O   0  0  0  0  0  1  0  0  0  0  0  0
    3.0530   60.4320   70.9120 C   0  0  0  0  0  0  0  0  0  0  0  0
    3.8770   60.5160   69.7710 C   0  0  0  0  0  0  0  0  0  0  0  0
    3.8580   61.6300   68.9210 C   0  0  0  0  0  0  0  0  0  0  0  0
    3.0070   62.6970   69.1900 C   0  0  0  0  0  0  0  0  0  0  0  0
    2.1820   62.6480   70.3100 C   0  0  0  0  0  0  0  0  0  0  0  0
    2.2110   61.5160   71.1400 C   0  0  0  0  0  0  0  0  0  0  0  0
    1.3030   61.5040   72.6270 S   0  0  0  0  0  6  0  0  0  0  0  0
    0.0660   60.7750   72.4370 O   0  0  0  0  0  0  0  0  0  0  0  0
    1.2680   62.8780   73.1080 O   0  0  0  0  0  0  0  0  0  0  0  0
    2.3710   60.6420   73.6120 N   0  0  0  0  0  0  0  0  0  0  0  0
    2.1770   60.8680   75.0520 C   0  0  0  0  0  0  0  0  0  0  0  0
   -0.9570   53.0740   75.4230 C   0  0  0  0  0  0  0  0  0  0  0  0
    0.0070   54.1870   75.2490 C   0  0  0  0  0  0  0  0  0  0  0  0
    1.1740   54.4600   75.9330 C   0  0  0  0  0  0  0  0  0  0  0  0
    1.8570   55.5880   75.5280 N   0  0  0  0  0  0  0  0  0  0  0  0
    1.2030   56.1630   74.5460 C   0  0  0  0  0  0  0  0  0  0  0  0
   -0.2410   55.3900   74.0530 S   0  0  0  0  0  0  0  0  0  0  0  0
    1.4950   57.2860   73.8420 N   0  0  0  0  0  0  0  0  0  0  0  0
    2.5740   58.0990   74.0630 C   0  0  0  0  0  0  0  0  0  0  0  0
    3.4160   57.9150   74.9430 O   0  0  0  0  0  0  0  0  0  0  0  0
    4.5557   59.6814   69.5409 H   0  0  0  0  0  0  0  0  0  0  0  0
    4.5165   61.6607   68.0404 H   0  0  0  0  0  0  0  0  0  0  0  0
    2.9862   63.5718   68.5234 H   0  0  0  0  0  0  0  0  0  0  0  0
    1.5127   63.4893   70.5429 H   0  0  0  0  0  0  0  0  0  0  0  0
    2.7901   60.1537   75.6211 H   0  0  0  0  0  0  0  0  0  0  0  0
    2.4794   61.8947   75.3060 H   0  0  0  0  0  0  0  0  0  0  0  0
    1.1164   60.7247   75.3060 H   0  0  0  0  0  0  0  0  0  0  0  0
   -1.1157   52.8908   76.4960 H   0  0  0  0  0  0  0  0  0  0  0  0
   -1.9141   53.3408   74.9511 H   0  0  0  0  0  0  0  0  0  0  0  0
   -0.5563   52.1647   74.9511 H   0  0  0  0  0  0  0  0  0  0  0  0
    1.5367   53.8186   76.7497 H   0  0  0  0  0  0  0  0  0  0  0  0
    0.8531   57.5476   73.0801 H   0  0  0  0  0  0  0  0  0  0  0  0
  2  1  2  0
  3  2  1  0
  4  2  1  0
  5  4  2  0
  6  5  1  0
  7  6  2  0
  8  7  1  0
  9  8  2  0
  9  4  1  0
 10  9  1  0
 11 10  2  0
 12 10  2  0
 13 10  1  0
 13  1  1  0
 14 13  1  0
 16 15  1  0
 17 16  2  0
 18 17  1  0
 19 18  2  0
 20 19  1  0
 20 16  1  0
 21 19  1  0
 22 21  1  0
 22  1  1  0
 23 22  2  0
  5 24  1  0
  6 25  1  0
  7 26  1  0
  8 27  1  0
 14 28  1  0
 14 29  1  0
 14 30  1  0
 15 31  1  0
 15 32  1  0
 15 33  1  0
 17 34  1  0
 21 35  1  0
M  CHG  1   3  -1
M  END
>  <score>  (3) 
-7.646

$$$$
=
     RDKit          3D

 35 37  0  0  0  0  0  0  0  0999 V2000
    1.9400   60.8570   73.3010 C   0  0  0  0  0  0  0  0  0  0  0  0
    2.3250   61.2780   72.0460 C   0  0  0  0  0  0  0  0  0  0  0  0
    2.9820   60.5930   71.1950 O   0  0  0  0  0  1  0  0  0  0  0  0
    1.9230   62.6790   71.6110 C   0  0  0  0  0  0  0  0  0  0  0  0
    2.6620   63.3770   70.6340 C   0  0  0  0  0  0  0  0  0  0  0  0
    2.2680   64.6370   70.1650 C   0  0  0  0  0  0  0  0  0  0  0  0
    1.1150   65.2370   70.6620 C   0  0  0  0  0  0  0  0  0  0  0  0
    0.3640   64.5760   71.6290 C   0  0  0  0  0  0  0  0  0  0  0  0
    0.7720   63.3100   72.0750 C   0  0  0  0  0  0  0  0  0  0  0  0
   -0.0660   62.5390   73.3930 S   0  0  0  0  0  6  0  0  0  0  0  0
   -0.9950   61.5570   72.8730 O   0  0  0  0  0  0  0  0  0  0  0  0
   -0.5480   63.6020   74.2620 O   0  0  0  0  0  0  0  0  0  0  0  0
    1.2360   61.7920   74.1690 N   0  0  0  0  0  0  0  0  0  0  0  0
    0.9910   61.4740   75.5830 C   0  0  0  0  0  0  0  0  0  0  0  0
   -0.0960   53.6290   74.2970 C   0  0  0  0  0  0  0  0  0  0  0  0
    0.6350   54.9180   74.2760 C   0  0  0  0  0  0  0  0  0  0  0  0
    1.8930   55.2280   74.7500 C   0  0  0  0  0  0  0  0  0  0  0  0
    2.2940   56.5370   74.5790 N   0  0  0  0  0  0  0  0  0  0  0  0
    1.3380   57.2090   73.9820 C   0  0  0  0  0  0  0  0  0  0  0  0
   -0.0700   56.3220   73.5890 S   0  0  0  0  0  0  0  0  0  0  0  0
    1.2870   58.5150   73.6140 N   0  0  0  0  0  0  0  0  0  0  0  0
    2.2710   59.4390   73.8440 C   0  0  0  0  0  0  0  0  0  0  0  0
    3.3290   59.2000   74.4280 O   0  0  0  0  0  0  0  0  0  0  0  0
    3.5756   62.9184   70.2277 H   0  0  0  0  0  0  0  0  0  0  0  0
    2.8708   65.1526   69.4030 H   0  0  0  0  0  0  0  0  0  0  0  0
    0.8002   66.2246   70.2938 H   0  0  0  0  0  0  0  0  0  0  0  0
   -0.5430   65.0427   72.0408 H   0  0  0  0  0  0  0  0  0  0  0  0
    1.5388   62.1850   76.2190 H   0  0  0  0  0  0  0  0  0  0  0  0
   -0.0860   61.5477   75.7941 H   0  0  0  0  0  0  0  0  0  0  0  0
    1.3369   60.4514   75.7941 H   0  0  0  0  0  0  0  0  0  0  0  0
   -0.2696   53.3229   75.3392 H   0  0  0  0  0  0  0  0  0  0  0  0
   -1.0617   53.7467   73.7837 H   0  0  0  0  0  0  0  0  0  0  0  0
    0.5008   52.8606   73.7837 H   0  0  0  0  0  0  0  0  0  0  0  0
    2.5362   54.4783   75.2341 H   0  0  0  0  0  0  0  0  0  0  0  0
    0.4407   58.8363   73.1227 H   0  0  0  0  0  0  0  0  0  0  0  0
  2  1  2  0
  3  2  1  0
  4  2  1  0
  5  4  2  0
  6  5  1  0
  7  6  2  0
  8  7  1  0
  9  8  2  0
  9  4  1  0
 10  9  1  0
 11 10  2  0
 12 10  2  0
 13 10  1  0
 13  1  1  0
 14 13  1  0
 16 15  1  0
 17 16  2  0
 18 17  1  0
 19 18  2  0
 20 19  1  0
 20 16  1  0
 21 19  1  0
 22 21  1  0
 22  1  1  0
 23 22  2  0
  5 24  1  0
  6 25  1  0
  7 26  1  0
  8 27  1  0
 14 28  1  0
 14 29  1  0
 14 30  1  0
 15 31  1  0
 15 32  1  0
 15 33  1  0
 17 34  1  0
 21 35  1  0
M  CHG  1   3  -1
M  END
>  <score>  (4) 
-7.621

$$$$
=
     RDKit          3D

 35 37  0  0  0  0  0  0  0  0999 V2000
    0.1490   61.2900   72.7310 C   0  0  0  0  0  0  0  0  0  0  0  0
    0.7180   62.1600   71.8250 C   0  0  0  0  0  0  0  0  0  0  0  0
    0.2950   63.3290   71.5410 O   0  0  0  0  0  1  0  0  0  0  0  0
    1.9750   61.7090   71.0980 C   0  0  0  0  0  0  0  0  0  0  0  0
    2.3230   62.2480   69.8420 C   0  0  0  0  0  0  0  0  0  0  0  0
    3.5130   61.9020   69.1890 C   0  0  0  0  0  0  0  0  0  0  0  0
    4.3960   61.0020   69.7780 C   0  0  0  0  0  0  0  0  0  0  0  0
    4.0820   60.4490   71.0170 C   0  0  0  0  0  0  0  0  0  0  0  0
    2.8890   60.8200   71.6560 C   0  0  0  0  0  0  0  0  0  0  0  0
    2.4060   60.0220   73.1280 S   0  0  0  0  0  6  0  0  0  0  0  0
    2.7450   60.8520   74.2660 O   0  0  0  0  0  0  0  0  0  0  0  0
    2.9110   58.6590   73.0510 O   0  0  0  0  0  0  0  0  0  0  0  0
    0.7340   59.9660   72.8940 N   0  0  0  0  0  0  0  0  0  0  0  0
    0.0510   58.9290   73.6800 C   0  0  0  0  0  0  0  0  0  0  0  0
   -2.9640   64.6110   78.7860 C   0  0  0  0  0  0  0  0  0  0  0  0
   -2.7340   63.8870   77.5120 C   0  0  0  0  0  0  0  0  0  0  0  0
   -3.6410   63.3130   76.6460 C   0  0  0  0  0  0  0  0  0  0  0  0
   -3.1040   62.7040   75.5310 N   0  0  0  0  0  0  0  0  0  0  0  0
   -1.7970   62.8170   75.5620 C   0  0  0  0  0  0  0  0  0  0  0  0
   -1.1480   63.6560   76.9040 S   0  0  0  0  0  0  0  0  0  0  0  0
   -0.8610   62.3740   74.6840 N   0  0  0  0  0  0  0  0  0  0  0  0
   -1.1210   61.6520   73.5500 C   0  0  0  0  0  0  0  0  0  0  0  0
   -2.2450   61.3010   73.1890 O   0  0  0  0  0  0  0  0  0  0  0  0
    1.6389   62.9621   69.3603 H   0  0  0  0  0  0  0  0  0  0  0  0
    3.7499   62.3423   68.2092 H   0  0  0  0  0  0  0  0  0  0  0  0
    5.3329   60.7300   69.2699 H   0  0  0  0  0  0  0  0  0  0  0  0
    4.7636   59.7273   71.4909 H   0  0  0  0  0  0  0  0  0  0  0  0
    0.1857   59.1335   74.7524 H   0  0  0  0  0  0  0  0  0  0  0  0
   -1.0220   58.9327   73.4380 H   0  0  0  0  0  0  0  0  0  0  0  0
    0.4781   57.9446   73.4380 H   0  0  0  0  0  0  0  0  0  0  0  0
   -2.7512   63.9410   79.6321 H   0  0  0  0  0  0  0  0  0  0  0  0
   -2.2997   65.4864   78.8354 H   0  0  0  0  0  0  0  0  0  0  0  0
   -4.0117   64.9425   78.8354 H   0  0  0  0  0  0  0  0  0  0  0  0
   -4.7247   63.3392   76.8328 H   0  0  0  0  0  0  0  0  0  0  0  0
    0.1234   62.5990   74.8872 H   0  0  0  0  0  0  0  0  0  0  0  0
  2  1  2  0
  3  2  1  0
  4  2  1  0
  5  4  2  0
  6  5  1  0
  7  6  2  0
  8  7  1  0
  9  8  2  0
  9  4  1  0
 10  9  1  0
 11 10  2  0
 12 10  2  0
 13 10  1  0
 13  1  1  0
 14 13  1  0
 16 15  1  0
 17 16  2  0
 18 17  1  0
 19 18  2  0
 20 19  1  0
 20 16  1  0
 21 19  1  0
 22 21  1  0
 22  1  1  0
 23 22  2  0
  5 24  1  0
  6 25  1  0
  7 26  1  0
  8 27  1  0
 14 28  1  0
 14 29  1  0
 14 30  1  0
 15 31  1  0
 15 32  1  0
 15 33  1  0
 17 34  1  0
 21 35  1  0
M  CHG  1   3  -1
M  END
>  <score>  (5) 
-7.402

$$$$
=
     RDKit          3D

 35 37  0  0  0  0  0  0  0  0999 V2000
    1.9210   68.7270   65.4390 C   0  0  0  0  0  0  0  0  0  0  0  0
    1.0170   69.0440   66.4310 C   0  0  0  0  0  0  0  0  0  0  0  0
    1.2950   69.5820   67.5530 O   0  0  0  0  0  1  0  0  0  0  0  0
   -0.4530   68.7490   66.1770 C   0  0  0  0  0  0  0  0  0  0  0  0
   -1.3490   68.5420   67.2450 C   0  0  0  0  0  0  0  0  0  0  0  0
   -2.7200   68.3410   67.0360 C   0  0  0  0  0  0  0  0  0  0  0  0
   -3.2360   68.3430   65.7440 C   0  0  0  0  0  0  0  0  0  0  0  0
   -2.3790   68.5420   64.6660 C   0  0  0  0  0  0  0  0  0  0  0  0
   -1.0110   68.7520   64.9010 C   0  0  0  0  0  0  0  0  0  0  0  0
    0.0980   68.8460   63.5610 S   0  0  0  0  0  6  0  0  0  0  0  0
    0.3960   70.2340   63.2720 O   0  0  0  0  0  0  0  0  0  0  0  0
   -0.4360   67.9870   62.5140 O   0  0  0  0  0  0  0  0  0  0  0  0
    1.4360   68.0650   64.2350 N   0  0  0  0  0  0  0  0  0  0  0  0
    2.3730   67.5140   63.2450 C   0  0  0  0  0  0  0  0  0  0  0  0
    7.7130   71.3450   69.5590 C   0  0  0  0  0  0  0  0  0  0  0  0
    6.8700   70.7460   68.4970 C   0  0  0  0  0  0  0  0  0  0  0  0
    7.2290   70.2300   67.2690 C   0  0  0  0  0  0  0  0  0  0  0  0
    6.1950   69.7410   66.4980 N   0  0  0  0  0  0  0  0  0  0  0  0
    5.0620   69.8940   67.1420 C   0  0  0  0  0  0  0  0  0  0  0  0
    5.1710   70.6130   68.6900 S   0  0  0  0  0  0  0  0  0  0  0  0
    3.7970   69.5640   66.7760 N   0  0  0  0  0  0  0  0  0  0  0  0
    3.4430   69.0070   65.5760 C   0  0  0  0  0  0  0  0  0  0  0  0
    4.2330   68.7440   64.6680 O   0  0  0  0  0  0  0  0  0  0  0  0
   -0.9603   68.5381   68.2740 H   0  0  0  0  0  0  0  0  0  0  0  0
   -3.3890   68.1815   67.8945 H   0  0  0  0  0  0  0  0  0  0  0  0
   -4.3121   68.1886   65.5761 H   0  0  0  0  0  0  0  0  0  0  0  0
   -2.7703   68.5348   63.6380 H   0  0  0  0  0  0  0  0  0  0  0  0
    3.2086   67.0226   63.7649 H   0  0  0  0  0  0  0  0  0  0  0  0
    1.8504   66.7794   62.6147 H   0  0  0  0  0  0  0  0  0  0  0  0
    2.7610   68.3278   62.6147 H   0  0  0  0  0  0  0  0  0  0  0  0
    7.3158   71.0628   70.5452 H   0  0  0  0  0  0  0  0  0  0  0  0
    8.7446   70.9762   69.4599 H   0  0  0  0  0  0  0  0  0  0  0  0
    7.7041   72.4405   69.4599 H   0  0  0  0  0  0  0  0  0  0  0  0
    8.2740   70.2098   66.9262 H   0  0  0  0  0  0  0  0  0  0  0  0
    3.0440   69.7470   67.4545 H   0  0  0  0  0  0  0  0  0  0  0  0
  2  1  2  0
  3  2  1  0
  4  2  1  0
  5  4  2  0
  6  5  1  0
  7  6  2  0
  8  7  1  0
  9  8  2  0
  9  4  1  0
 10  9  1  0
 11 10  2  0
 12 10  2  0
 13 10  1  0
 13  1  1  0
 14 13  1  0
 16 15  1  0
 17 16  2  0
 18 17  1  0
 19 18  2  0
 20 19  1  0
 20 16  1  0
 21 19  1  0
 22 21  1  0
 22  1  1  0
 23 22  2  0
  5 24  1  0
  6 25  1  0
  7 26  1  0
  8 27  1  0
 14 28  1  0
 14 29  1  0
 14 30  1  0
 15 31  1  0
 15 32  1  0
 15 33  1  0
 17 34  1  0
 21 35  1  0
M  CHG  1   3  -1
M  END
>  <score>  (6) 
-7.346

$$$$
=
     RDKit          3D

 35 37  0  0  0  0  0  0  0  0999 V2000
    1.0940   56.2970   74.6110 C   0  0  0  0  0  0  0  0  0  0  0  0
    1.3210   54.9560   74.3860 C   0  0  0  0  0  0  0  0  0  0  0  0
    2.4360   54.4290   74.0620 O   0  0  0  0  0  1  0  0  0  0  0  0
    0.1500   53.9990   74.5490 C   0  0  0  0  0  0  0  0  0  0  0  0
    0.1210   52.7620   73.8720 C   0  0  0  0  0  0  0  0  0  0  0  0
   -0.9100   51.8340   74.0650 C   0  0  0  0  0  0  0  0  0  0  0  0
   -1.9470   52.1180   74.9480 C   0  0  0  0  0  0  0  0  0  0  0  0
   -1.9510   53.3300   75.6310 C   0  0  0  0  0  0  0  0  0  0  0  0
   -0.9010   54.2390   75.4300 C   0  0  0  0  0  0  0  0  0  0  0  0
   -0.9700   55.8220   76.1540 S   0  0  0  0  0  6  0  0  0  0  0  0
   -0.1580   55.8450   77.3530 O   0  0  0  0  0  0  0  0  0  0  0  0
   -2.3760   56.1910   76.2250 O   0  0  0  0  0  0  0  0  0  0  0  0
   -0.2600   56.7360   74.9230 N   0  0  0  0  0  0  0  0  0  0  0  0
   -0.6010   58.1660   74.9620 C   0  0  0  0  0  0  0  0  0  0  0  0
    5.0870   61.1240   70.3530 C   0  0  0  0  0  0  0  0  0  0  0  0
    4.5310   60.3310   71.4750 C   0  0  0  0  0  0  0  0  0  0  0  0
    4.8700   60.3330   72.8120 C   0  0  0  0  0  0  0  0  0  0  0  0
    4.1560   59.4670   73.6140 N   0  0  0  0  0  0  0  0  0  0  0  0
    3.2870   58.8130   72.8810 C   0  0  0  0  0  0  0  0  0  0  0  0
    3.2680   59.2000   71.2150 S   0  0  0  0  0  0  0  0  0  0  0  0
    2.3800   57.8680   73.2360 N   0  0  0  0  0  0  0  0  0  0  0  0
    2.2180   57.3640   74.4990 C   0  0  0  0  0  0  0  0  0  0  0  0
    2.8890   57.7010   75.4750 O   0  0  0  0  0  0  0  0  0  0  0  0
    0.9330   52.5187   73.1710 H   0  0  0  0  0  0  0  0  0  0  0  0
   -0.8999   50.8797   73.5180 H   0  0  0  0  0  0  0  0  0  0  0  0
   -2.7569   51.3904   75.1048 H   0  0  0  0  0  0  0  0  0  0  0  0
   -2.7706   53.5738   76.3230 H   0  0  0  0  0  0  0  0  0  0  0  0
   -0.6796   58.4958   76.0085 H   0  0  0  0  0  0  0  0  0  0  0  0
    0.1844   58.7443   74.4534 H   0  0  0  0  0  0  0  0  0  0  0  0
   -1.5629   58.3276   74.4534 H   0  0  0  0  0  0  0  0  0  0  0  0
    5.6752   61.9630   70.7531 H   0  0  0  0  0  0  0  0  0  0  0  0
    5.7346   60.4832   69.7366 H   0  0  0  0  0  0  0  0  0  0  0  0
    4.2638   61.5144   69.7366 H   0  0  0  0  0  0  0  0  0  0  0  0
    5.6602   60.9844   73.2136 H   0  0  0  0  0  0  0  0  0  0  0  0
    1.7643   57.5005   72.4965 H   0  0  0  0  0  0  0  0  0  0  0  0
  2  1  2  0
  3  2  1  0
  4  2  1  0
  5  4  2  0
  6  5  1  0
  7  6  2  0
  8  7  1  0
  9  8  2  0
  9  4  1  0
 10  9  1  0
 11 10  2  0
 12 10  2  0
 13 10  1  0
 13  1  1  0
 14 13  1  0
 16 15  1  0
 17 16  2  0
 18 17  1  0
 19 18  2  0
 20 19  1  0
 20 16  1  0
 21 19  1  0
 22 21  1  0
 22  1  1  0
 23 22  2  0
  5 24  1  0
  6 25  1  0
  7 26  1  0
  8 27  1  0
 14 28  1  0
 14 29  1  0
 14 30  1  0
 15 31  1  0
 15 32  1  0
 15 33  1  0
 17 34  1  0
 21 35  1  0
M  CHG  1   3  -1
M  END
>  <score>  (7) 
-6.748

$$$$
=
     RDKit          3D

 35 37  0  0  0  0  0  0  0  0999 V2000
    0.6610   63.4380   73.1420 C   0  0  0  0  0  0  0  0  0  0  0  0
    1.6730   62.5090   73.0230 C   0  0  0  0  0  0  0  0  0  0  0  0
    1.8210   61.4660   73.7430 O   0  0  0  0  0  1  0  0  0  0  0  0
    2.7080   62.7200   71.9290 C   0  0  0  0  0  0  0  0  0  0  0  0
    4.0040   62.1750   72.0390 C   0  0  0  0  0  0  0  0  0  0  0  0
    4.9490   62.2940   71.0120 C   0  0  0  0  0  0  0  0  0  0  0  0
    4.6210   62.9650   69.8370 C   0  0  0  0  0  0  0  0  0  0  0  0
    3.3510   63.5170   69.6970 C   0  0  0  0  0  0  0  0  0  0  0  0
    2.4180   63.3740   70.7350 C   0  0  0  0  0  0  0  0  0  0  0  0
    0.8820   64.1910   70.6430 S   0  0  0  0  0  6  0  0  0  0  0  0
   -0.1390   63.2600   70.2060 O   0  0  0  0  0  0  0  0  0  0  0  0
    1.1050   65.4220   69.8990 O   0  0  0  0  0  0  0  0  0  0  0  0
    0.6730   64.6030   72.2680 N   0  0  0  0  0  0  0  0  0  0  0  0
   -0.2510   65.7250   72.4900 C   0  0  0  0  0  0  0  0  0  0  0  0
   -5.2590   59.6260   75.9370 C   0  0  0  0  0  0  0  0  0  0  0  0
   -4.1730   60.6080   75.7010 C   0  0  0  0  0  0  0  0  0  0  0  0
   -3.8360   61.7410   76.4100 C   0  0  0  0  0  0  0  0  0  0  0  0
   -2.7590   62.4540   75.9280 N   0  0  0  0  0  0  0  0  0  0  0  0
   -2.2900   61.8610   74.8560 C   0  0  0  0  0  0  0  0  0  0  0  0
   -3.0960   60.4290   74.3780 S   0  0  0  0  0  0  0  0  0  0  0  0
   -1.2480   62.2000   74.0540 N   0  0  0  0  0  0  0  0  0  0  0  0
   -0.4660   63.3130   74.2050 C   0  0  0  0  0  0  0  0  0  0  0  0
   -0.6190   64.1590   75.0870 O   0  0  0  0  0  0  0  0  0  0  0  0
    4.2812   61.6401   72.9594 H   0  0  0  0  0  0  0  0  0  0  0  0
    5.9511   61.8570   71.1339 H   0  0  0  0  0  0  0  0  0  0  0  0
    5.3589   63.0580   69.0266 H   0  0  0  0  0  0  0  0  0  0  0  0
    3.0810   64.0610   68.7799 H   0  0  0  0  0  0  0  0  0  0  0  0
   -0.3819   65.8839   73.5706 H   0  0  0  0  0  0  0  0  0  0  0  0
    0.1621   66.6362   72.0328 H   0  0  0  0  0  0  0  0  0  0  0  0
   -1.2245   65.4943   72.0328 H   0  0  0  0  0  0  0  0  0  0  0  0
   -5.4051   59.4939   77.0192 H   0  0  0  0  0  0  0  0  0  0  0  0
   -6.1911   59.9940   75.4834 H   0  0  0  0  0  0  0  0  0  0  0  0
   -4.9863   58.6617   75.4834 H   0  0  0  0  0  0  0  0  0  0  0  0
   -4.3920   62.0568   77.3051 H   0  0  0  0  0  0  0  0  0  0  0  0
   -1.0287   61.5694   73.2697 H   0  0  0  0  0  0  0  0  0  0  0  0
  2  1  2  0
  3  2  1  0
  4  2  1  0
  5  4  2  0
  6  5  1  0
  7  6  2  0
  8  7  1  0
  9  8  2  0
  9  4  1  0
 10  9  1  0
 11 10  2  0
 12 10  2  0
 13 10  1  0
 13  1  1  0
 14 13  1  0
 16 15  1  0
 17 16  2  0
 18 17  1  0
 19 18  2  0
 20 19  1  0
 20 16  1  0
 21 19  1  0
 22 21  1  0
 22  1  1  0
 23 22  2  0
  5 24  1  0
  6 25  1  0
  7 26  1  0
  8 27  1  0
 14 28  1  0
 14 29  1  0
 14 30  1  0
 15 31  1  0
 15 32  1  0
 15 33  1  0
 17 34  1  0
 21 35  1  0
M  CHG  1   3  -1
M  END
>  <score>  (8) 
-6.592

$$$$
=
     RDKit          3D

 35 37  0  0  0  0  0  0  0  0999 V2000
    1.6370   61.8220   74.3110 C   0  0  0  0  0  0  0  0  0  0  0  0
    2.7210   61.2610   73.6700 C   0  0  0  0  0  0  0  0  0  0  0  0
    3.2620   60.1410   73.9530 O   0  0  0  0  0  1  0  0  0  0  0  0
    3.3340   62.0240   72.5050 C   0  0  0  0  0  0  0  0  0  0  0  0
    4.6820   61.8330   72.1380 C   0  0  0  0  0  0  0  0  0  0  0  0
    5.2450   62.4690   71.0250 C   0  0  0  0  0  0  0  0  0  0  0  0
    4.4710   63.3190   70.2410 C   0  0  0  0  0  0  0  0  0  0  0  0
    3.1380   63.5330   70.5770 C   0  0  0  0  0  0  0  0  0  0  0  0
    2.5930   62.8750   71.6910 C   0  0  0  0  0  0  0  0  0  0  0  0
    0.9740   63.2510   72.2170 S   0  0  0  0  0  6  0  0  0  0  0  0
    0.0580   62.2370   71.7360 O   0  0  0  0  0  0  0  0  0  0  0  0
    0.7410   64.6500   71.8900 O   0  0  0  0  0  0  0  0  0  0  0  0
    1.1800   63.1400   73.8900 N   0  0  0  0  0  0  0  0  0  0  0  0
    0.1730   63.8760   74.6690 C   0  0  0  0  0  0  0  0  0  0  0  0
   -3.9680   57.3800   76.8070 C   0  0  0  0  0  0  0  0  0  0  0  0
   -2.7700   58.2470   76.7020 C   0  0  0  0  0  0  0  0  0  0  0  0
   -1.9080   58.6870   77.6850 C   0  0  0  0  0  0  0  0  0  0  0  0
   -0.8740   59.4950   77.2600 N   0  0  0  0  0  0  0  0  0  0  0  0
   -0.9610   59.6650   75.9620 C   0  0  0  0  0  0  0  0  0  0  0  0
   -2.2630   58.8700   75.1860 S   0  0  0  0  0  0  0  0  0  0  0  0
   -0.1700   60.3760   75.1180 N   0  0  0  0  0  0  0  0  0  0  0  0
    0.9140   61.1230   75.4950 C   0  0  0  0  0  0  0  0  0  0  0  0
    1.3020   61.2530   76.6570 O   0  0  0  0  0  0  0  0  0  0  0  0
    5.3103   61.1641   72.7445 H   0  0  0  0  0  0  0  0  0  0  0  0
    6.3010   62.2964   70.7699 H   0  0  0  0  0  0  0  0  0  0  0  0
    4.9091   63.8172   69.3636 H   0  0  0  0  0  0  0  0  0  0  0  0
    2.5163   64.2120   69.9749 H   0  0  0  0  0  0  0  0  0  0  0  0
    0.3655   63.7353   75.7429 H   0  0  0  0  0  0  0  0  0  0  0  0
    0.2301   64.9467   74.4234 H   0  0  0  0  0  0  0  0  0  0  0  0
   -0.8298   63.4965   74.4234 H   0  0  0  0  0  0  0  0  0  0  0  0
   -4.2048   57.2086   77.8675 H   0  0  0  0  0  0  0  0  0  0  0  0
   -4.8206   57.8716   76.3157 H   0  0  0  0  0  0  0  0  0  0  0  0
   -3.7675   56.4164   76.3157 H   0  0  0  0  0  0  0  0  0  0  0  0
   -2.0372   58.4107   78.7419 H   0  0  0  0  0  0  0  0  0  0  0  0
   -0.4037   60.3516   74.1152 H   0  0  0  0  0  0  0  0  0  0  0  0
  2  1  2  0
  3  2  1  0
  4  2  1  0
  5  4  2  0
  6  5  1  0
  7  6  2  0
  8  7  1  0
  9  8  2  0
  9  4  1  0
 10  9  1  0
 11 10  2  0
 12 10  2  0
 13 10  1  0
 13  1  1  0
 14 13  1  0
 16 15  1  0
 17 16  2  0
 18 17  1  0
 19 18  2  0
 20 19  1  0
 20 16  1  0
 21 19  1  0
 22 21  1  0
 22  1  1  0
 23 22  2  0
  5 24  1  0
  6 25  1  0
  7 26  1  0
  8 27  1  0
 14 28  1  0
 14 29  1  0
 14 30  1  0
 15 31  1  0
 15 32  1  0
 15 33  1  0
 17 34  1  0
 21 35  1  0
M  CHG  1   3  -1
M  END
>  <score>  (9) 
-6.592

$$$$
