=
     RDKit          3D

 54 57  0  0  0  0  0  0  0  0999 V2000
    0.4540   65.7720   69.0800 O   0  0  0  0  0  0  0  0  0  0  0  0
    1.8630   68.7610   64.6040 C   0  0  0  0  0  0  0  0  0  0  0  0
    0.7200   68.1850   65.1660 C   0  0  0  0  0  0  0  0  0  0  0  0
    0.7320   67.9340   66.5270 C   0  0  0  0  0  0  0  0  0  0  0  0
    1.8120   68.2270   67.3440 C   0  0  0  0  0  0  0  0  0  0  0  0
    2.9510   68.8040   66.8020 C   0  0  0  0  0  0  0  0  0  0  0  0
    2.9830   69.0720   65.4240 C   0  0  0  0  0  0  0  0  0  0  0  0
    1.5500   67.8960   68.7800 C   0  0  0  0  0  0  0  0  0  0  0  0
    0.1970   67.1390   68.7670 C   0  0  1  0  0  0  0  0  0  0  0  0
   -0.3140   67.3310   67.3390 C   0  0  0  0  0  0  0  0  0  0  0  0
   -1.4070   67.0140   66.9000 O   0  0  0  0  0  0  0  0  0  0  0  0
    0.9130   68.7430   62.4090 C   0  0  0  0  0  0  0  0  0  0  0  0
    1.9980   69.0590   63.2700 O   0  0  0  0  0  0  0  0  0  0  0  0
    4.0550   69.6320   64.7740 O   0  0  0  0  0  0  0  0  0  0  0  0
    5.2550   69.8230   65.5110 C   0  0  0  0  0  0  0  0  0  0  0  0
    0.4400   65.3840   70.3890 C   0  0  0  0  0  0  0  0  0  0  0  0
   -0.2880   65.9680   71.4210 C   0  0  0  0  0  0  0  0  0  0  0  0
   -0.2090   65.4530   72.7170 C   0  0  0  0  0  0  0  0  0  0  0  0
    0.6030   64.3530   72.9920 C   0  0  0  0  0  0  0  0  0  0  0  0
    1.3490   63.7560   71.9700 C   0  0  0  0  0  0  0  0  0  0  0  0
    1.2570   64.2830   70.6710 C   0  0  0  0  0  0  0  0  0  0  0  0
    2.2310   62.5710   72.2490 C   0  0  0  0  0  0  0  0  0  0  0  0
    2.9810   62.0940   71.0270 N   0  0  0  0  0  4  0  0  0  0  0  0
    4.4330   62.5710   70.9610 C   0  0  0  0  0  0  0  0  0  0  0  0
    5.3870   61.4370   71.3440 C   0  0  0  0  0  0  0  0  0  0  0  0
    5.2830   60.3030   70.4750 O   0  0  0  0  0  0  0  0  0  0  0  0
    3.9770   60.0770   69.9340 C   0  0  0  0  0  0  0  0  0  0  0  0
    2.8600   60.5830   70.8500 C   0  0  0  0  0  0  0  0  0  0  0  0
   -0.1571   67.9401   64.5490 H   0  0  0  0  0  0  0  0  0  0  0  0
    3.8134   69.0472   67.4400 H   0  0  0  0  0  0  0  0  0  0  0  0
    2.3489   67.2562   69.1829 H   0  0  0  0  0  0  0  0  0  0  0  0
    1.5197   68.7931   69.4158 H   0  0  0  0  0  0  0  0  0  0  0  0
   -0.5453   67.4953   69.4964 H   0  0  0  0  0  0  0  0  0  0  0  0
    0.0295   68.4857   63.0117 H   0  0  0  0  0  0  0  0  0  0  0  0
    0.6836   69.6116   61.7743 H   0  0  0  0  0  0  0  0  0  0  0  0
    1.1858   67.8870   61.7743 H   0  0  0  0  0  0  0  0  0  0  0  0
    5.0335   69.7877   66.5879 H   0  0  0  0  0  0  0  0  0  0  0  0
    5.9714   69.0276   65.2578 H   0  0  0  0  0  0  0  0  0  0  0  0
    5.6890   70.8015   65.2578 H   0  0  0  0  0  0  0  0  0  0  0  0
   -0.9282   66.8386   71.2155 H   0  0  0  0  0  0  0  0  0  0  0  0
   -0.7912   65.9182   73.5261 H   0  0  0  0  0  0  0  0  0  0  0  0
    0.6571   63.9536   74.0155 H   0  0  0  0  0  0  0  0  0  0  0  0
    1.8385   63.8213   69.8594 H   0  0  0  0  0  0  0  0  0  0  0  0
    2.9618   62.8519   73.0216 H   0  0  0  0  0  0  0  0  0  0  0  0
    1.5813   61.7471   72.5794 H   0  0  0  0  0  0  0  0  0  0  0  0
    2.5188   62.5427   70.2233 H   0  0  0  0  0  0  0  0  0  0  0  0
    4.6586   62.9038   69.9371 H   0  0  0  0  0  0  0  0  0  0  0  0
    4.5669   63.4030   71.6680 H   0  0  0  0  0  0  0  0  0  0  0  0
    6.4184   61.8172   71.3029 H   0  0  0  0  0  0  0  0  0  0  0  0
    5.1135   61.1034   72.3559 H   0  0  0  0  0  0  0  0  0  0  0  0
    3.9019   60.5973   68.9677 H   0  0  0  0  0  0  0  0  0  0  0  0
    3.8478   58.9902   69.8233 H   0  0  0  0  0  0  0  0  0  0  0  0
    1.8841   60.3449   70.4017 H   0  0  0  0  0  0  0  0  0  0  0  0
    2.9461   60.0943   71.8317 H   0  0  0  0  0  0  0  0  0  0  0  0
  3  2  2  0
  4  3  1  0
  5  4  2  0
  6  5  1  0
  7  2  1  0
  7  6  2  0
  8  5  1  0
  9  8  1  0
  9  1  1  0
 10  9  1  0
 10  4  1  0
 11 10  2  0
 13 12  1  0
 13  2  1  0
 14  7  1  0
 15 14  1  0
 16  1  1  0
 17 16  2  0
 18 17  1  0
 19 18  2  0
 20 19  1  0
 21 16  1  0
 21 20  2  0
 22 20  1  0
 23 22  1  0
 24 23  1  0
 25 24  1  0
 26 25  1  0
 27 26  1  0
 28 27  1  0
 28 23  1  0
  3 29  1  0
  6 30  1  0
  8 31  1  0
  8 32  1  0
  9 33  1  1
 12 34  1  0
 12 35  1  0
 12 36  1  0
 15 37  1  0
 15 38  1  0
 15 39  1  0
 17 40  1  0
 18 41  1  0
 19 42  1  0
 21 43  1  0
 22 44  1  0
 22 45  1  0
 23 46  1  0
 24 47  1  0
 24 48  1  0
 25 49  1  0
 25 50  1  0
 27 51  1  0
 27 52  1  0
 28 53  1  0
 28 54  1  0
M  CHG  1  23   1
M  END
>  <score>  (1) 
-9.327

$$$$
=
     RDKit          3D

 54 57  0  0  0  0  0  0  0  0999 V2000
    0.9950   65.7960   70.3580 O   0  0  0  0  0  0  0  0  0  0  0  0
    2.6490   61.4570   73.4200 C   0  0  0  0  0  0  0  0  0  0  0  0
    1.7820   62.5470   73.5250 C   0  0  0  0  0  0  0  0  0  0  0  0
    1.3200   63.1140   72.3510 C   0  0  0  0  0  0  0  0  0  0  0  0
    1.6750   62.6530   71.0930 C   0  0  0  0  0  0  0  0  0  0  0  0
    2.5300   61.5680   70.9720 C   0  0  0  0  0  0  0  0  0  0  0  0
    3.0260   60.9640   72.1390 C   0  0  0  0  0  0  0  0  0  0  0  0
    1.0050   63.4160   69.9930 C   0  0  0  0  0  0  0  0  0  0  0  0
    0.3040   64.6000   70.7080 C   0  0  1  0  0  0  0  0  0  0  0  0
    0.4320   64.2570   72.1920 C   0  0  0  0  0  0  0  0  0  0  0  0
   -0.0840   64.8420   73.1300 O   0  0  0  0  0  0  0  0  0  0  0  0
    2.2970   60.2320   75.4440 C   0  0  0  0  0  0  0  0  0  0  0  0
    3.1920   60.7970   74.4960 O   0  0  0  0  0  0  0  0  0  0  0  0
    3.8840   59.8920   72.1450 O   0  0  0  0  0  0  0  0  0  0  0  0
    3.4290   58.6710   71.5790 C   0  0  0  0  0  0  0  0  0  0  0  0
    0.5080   66.5630   69.3370 C   0  0  0  0  0  0  0  0  0  0  0  0
   -0.7440   66.4500   68.7390 C   0  0  0  0  0  0  0  0  0  0  0  0
   -1.1080   67.3150   67.7040 C   0  0  0  0  0  0  0  0  0  0  0  0
   -0.2230   68.2950   67.2570 C   0  0  0  0  0  0  0  0  0  0  0  0
    1.0430   68.4190   67.8400 C   0  0  0  0  0  0  0  0  0  0  0  0
    1.3950   67.5440   68.8810 C   0  0  0  0  0  0  0  0  0  0  0  0
    2.0110   69.4680   67.3680 C   0  0  0  0  0  0  0  0  0  0  0  0
    3.2820   68.8830   66.7980 N   0  0  0  0  0  4  0  0  0  0  0  0
    3.1070   68.2330   65.4240 C   0  0  0  0  0  0  0  0  0  0  0  0
    3.6560   69.1460   64.3260 C   0  0  0  0  0  0  0  0  0  0  0  0
    5.0520   69.4260   64.4780 O   0  0  0  0  0  0  0  0  0  0  0  0
    5.5130   69.4670   65.8330 C   0  0  0  0  0  0  0  0  0  0  0  0
    4.4230   69.8950   66.8180 C   0  0  0  0  0  0  0  0  0  0  0  0
    1.4775   62.9404   74.5061 H   0  0  0  0  0  0  0  0  0  0  0  0
    2.8146   61.1873   69.9800 H   0  0  0  0  0  0  0  0  0  0  0  0
    1.7463   63.7840   69.2684 H   0  0  0  0  0  0  0  0  0  0  0  0
    0.2974   62.7940   69.4252 H   0  0  0  0  0  0  0  0  0  0  0  0
   -0.7505   64.7535   70.4351 H   0  0  0  0  0  0  0  0  0  0  0  0
    2.6511   60.4556   76.4612 H   0  0  0  0  0  0  0  0  0  0  0  0
    1.2940   60.6610   75.3024 H   0  0  0  0  0  0  0  0  0  0  0  0
    2.2529   59.1420   75.3024 H   0  0  0  0  0  0  0  0  0  0  0  0
    3.1673   57.9687   72.3841 H   0  0  0  0  0  0  0  0  0  0  0  0
    2.5421   58.8631   70.9573 H   0  0  0  0  0  0  0  0  0  0  0  0
    4.2253   58.2358   70.9573 H   0  0  0  0  0  0  0  0  0  0  0  0
   -1.4483   65.6779   69.0821 H   0  0  0  0  0  0  0  0  0  0  0  0
   -2.1002   67.2221   67.2384 H   0  0  0  0  0  0  0  0  0  0  0  0
   -0.5208   68.9729   66.4435 H   0  0  0  0  0  0  0  0  0  0  0  0
    2.3876   67.6319   69.3468 H   0  0  0  0  0  0  0  0  0  0  0  0
    1.5222   70.0711   66.5887 H   0  0  0  0  0  0  0  0  0  0  0  0
    2.2905   70.0754   68.2415 H   0  0  0  0  0  0  0  0  0  0  0  0
    3.5389   68.1083   67.4263 H   0  0  0  0  0  0  0  0  0  0  0  0
    3.6496   67.2763   65.4043 H   0  0  0  0  0  0  0  0  0  0  0  0
    2.0350   68.0645   65.2439 H   0  0  0  0  0  0  0  0  0  0  0  0
    3.5004   68.6570   63.3530 H   0  0  0  0  0  0  0  0  0  0  0  0
    3.1187   70.1034   64.3947 H   0  0  0  0  0  0  0  0  0  0  0  0
    5.8667   68.4641   66.1143 H   0  0  0  0  0  0  0  0  0  0  0  0
    6.3188   70.2139   65.8860 H   0  0  0  0  0  0  0  0  0  0  0  0
    4.8470   69.9473   67.8317 H   0  0  0  0  0  0  0  0  0  0  0  0
    4.0373   70.8829   66.5260 H   0  0  0  0  0  0  0  0  0  0  0  0
  3  2  2  0
  4  3  1  0
  5  4  2  0
  6  5  1  0
  7  2  1  0
  7  6  2  0
  8  5  1  0
  9  8  1  0
  9  1  1  0
 10  9  1  0
 10  4  1  0
 11 10  2  0
 13 12  1  0
 13  2  1  0
 14  7  1  0
 15 14  1  0
 16  1  1  0
 17 16  2  0
 18 17  1  0
 19 18  2  0
 20 19  1  0
 21 16  1  0
 21 20  2  0
 22 20  1  0
 23 22  1  0
 24 23  1  0
 25 24  1  0
 26 25  1  0
 27 26  1  0
 28 27  1  0
 28 23  1  0
  3 29  1  0
  6 30  1  0
  8 31  1  0
  8 32  1  0
  9 33  1  6
 12 34  1  0
 12 35  1  0
 12 36  1  0
 15 37  1  0
 15 38  1  0
 15 39  1  0
 17 40  1  0
 18 41  1  0
 19 42  1  0
 21 43  1  0
 22 44  1  0
 22 45  1  0
 23 46  1  0
 24 47  1  0
 24 48  1  0
 25 49  1  0
 25 50  1  0
 27 51  1  0
 27 52  1  0
 28 53  1  0
 28 54  1  0
M  CHG  1  23   1
M  END
>  <score>  (2) 
-8.964

$$$$
=
     RDKit          3D

 54 57  0  0  0  0  0  0  0  0999 V2000
    5.5490   70.0350   65.3830 O   0  0  0  0  0  0  0  0  0  0  0  0
    1.3900   68.8200   61.8940 C   0  0  0  0  0  0  0  0  0  0  0  0
    2.7720   69.0200   61.8520 C   0  0  0  0  0  0  0  0  0  0  0  0
    3.4830   68.8360   63.0250 C   0  0  0  0  0  0  0  0  0  0  0  0
    2.8910   68.4650   64.2220 C   0  0  0  0  0  0  0  0  0  0  0  0
    1.5210   68.2570   64.2780 C   0  0  0  0  0  0  0  0  0  0  0  0
    0.7610   68.4370   63.1110 C   0  0  0  0  0  0  0  0  0  0  0  0
    3.8880   68.2930   65.3250 C   0  0  0  0  0  0  0  0  0  0  0  0
    5.2230   68.8110   64.7310 C   0  0  1  0  0  0  0  0  0  0  0  0
    4.9120   68.9980   63.2450 C   0  0  0  0  0  0  0  0  0  0  0  0
    5.7020   69.2720   62.3570 O   0  0  0  0  0  0  0  0  0  0  0  0
   -0.1670   70.1910   60.7040 C   0  0  0  0  0  0  0  0  0  0  0  0
    0.5560   68.9730   60.8130 O   0  0  0  0  0  0  0  0  0  0  0  0
   -0.6010   68.2680   63.0470 O   0  0  0  0  0  0  0  0  0  0  0  0
   -1.4070   68.9960   63.9640 C   0  0  0  0  0  0  0  0  0  0  0  0
    5.2460   70.1760   66.7080 C   0  0  0  0  0  0  0  0  0  0  0  0
    6.1310   70.4940   67.7330 C   0  0  0  0  0  0  0  0  0  0  0  0
    5.6710   70.6130   69.0460 C   0  0  0  0  0  0  0  0  0  0  0  0
    4.3240   70.4100   69.3460 C   0  0  0  0  0  0  0  0  0  0  0  0
    3.4200   70.0820   68.3290 C   0  0  0  0  0  0  0  0  0  0  0  0
    3.8960   69.9670   67.0120 C   0  0  0  0  0  0  0  0  0  0  0  0
    1.9650   69.8560   68.6350 C   0  0  0  0  0  0  0  0  0  0  0  0
    1.3640   68.7260   67.8330 N   0  0  0  0  0  4  0  0  0  0  0  0
    1.6280   67.3370   68.4200 C   0  0  0  0  0  0  0  0  0  0  0  0
    0.3770   66.8060   69.1240 C   0  0  0  0  0  0  0  0  0  0  0  0
   -0.7460   66.6790   68.2450 O   0  0  0  0  0  0  0  0  0  0  0  0
   -0.7940   67.6400   67.1850 C   0  0  0  0  0  0  0  0  0  0  0  0
   -0.1170   68.9620   67.5540 C   0  0  0  0  0  0  0  0  0  0  0  0
    3.2770   69.3133   60.9198 H   0  0  0  0  0  0  0  0  0  0  0  0
    1.0384   67.9564   65.2197 H   0  0  0  0  0  0  0  0  0  0  0  0
    3.5990   68.8857   66.2054 H   0  0  0  0  0  0  0  0  0  0  0  0
    3.9596   67.2487   65.6630 H   0  0  0  0  0  0  0  0  0  0  0  0
    6.0860   68.1425   64.8659 H   0  0  0  0  0  0  0  0  0  0  0  0
   -0.3942   70.5738   61.7099 H   0  0  0  0  0  0  0  0  0  0  0  0
    0.4390   70.9296   60.1588 H   0  0  0  0  0  0  0  0  0  0  0  0
   -1.1056   70.0127   60.1588 H   0  0  0  0  0  0  0  0  0  0  0  0
   -1.1184   68.7353   64.9930 H   0  0  0  0  0  0  0  0  0  0  0  0
   -1.2611   70.0745   63.8043 H   0  0  0  0  0  0  0  0  0  0  0  0
   -2.4652   68.7415   63.8043 H   0  0  0  0  0  0  0  0  0  0  0  0
    7.1962   70.6522   67.5086 H   0  0  0  0  0  0  0  0  0  0  0  0
    6.3765   70.8689   69.8502 H   0  0  0  0  0  0  0  0  0  0  0  0
    3.9716   70.5078   70.3834 H   0  0  0  0  0  0  0  0  0  0  0  0
    3.1947   69.7079   66.2051 H   0  0  0  0  0  0  0  0  0  0  0  0
    1.8639   69.6197   69.7046 H   0  0  0  0  0  0  0  0  0  0  0  0
    1.4245   70.7755   68.3659 H   0  0  0  0  0  0  0  0  0  0  0  0
    1.8586   68.7315   66.9296 H   0  0  0  0  0  0  0  0  0  0  0  0
    1.9068   66.6482   67.6089 H   0  0  0  0  0  0  0  0  0  0  0  0
    2.4449   67.4099   69.1531 H   0  0  0  0  0  0  0  0  0  0  0  0
    0.6055   65.8164   69.5466 H   0  0  0  0  0  0  0  0  0  0  0  0
    0.1046   67.5317   69.9045 H   0  0  0  0  0  0  0  0  0  0  0  0
   -0.2864   67.2185   66.3049 H   0  0  0  0  0  0  0  0  0  0  0  0
   -1.8531   67.8554   66.9800 H   0  0  0  0  0  0  0  0  0  0  0  0
   -0.2226   69.6713   66.7199 H   0  0  0  0  0  0  0  0  0  0  0  0
   -0.5943   69.3745   68.4551 H   0  0  0  0  0  0  0  0  0  0  0  0
  3  2  2  0
  4  3  1  0
  5  4  2  0
  6  5  1  0
  7  2  1  0
  7  6  2  0
  8  5  1  0
  9  8  1  0
  9  1  1  0
 10  9  1  0
 10  4  1  0
 11 10  2  0
 13 12  1  0
 13  2  1  0
 14  7  1  0
 15 14  1  0
 16  1  1  0
 17 16  2  0
 18 17  1  0
 19 18  2  0
 20 19  1  0
 21 16  1  0
 21 20  2  0
 22 20  1  0
 23 22  1  0
 24 23  1  0
 25 24  1  0
 26 25  1  0
 27 26  1  0
 28 27  1  0
 28 23  1  0
  3 29  1  0
  6 30  1  0
  8 31  1  0
  8 32  1  0
  9 33  1  6
 12 34  1  0
 12 35  1  0
 12 36  1  0
 15 37  1  0
 15 38  1  0
 15 39  1  0
 17 40  1  0
 18 41  1  0
 19 42  1  0
 21 43  1  0
 22 44  1  0
 22 45  1  0
 23 46  1  0
 24 47  1  0
 24 48  1  0
 25 49  1  0
 25 50  1  0
 27 51  1  0
 27 52  1  0
 28 53  1  0
 28 54  1  0
M  CHG  1  23   1
M  END
>  <score>  (3) 
-8.669

$$$$
=
     RDKit          3D

 54 57  0  0  0  0  0  0  0  0999 V2000
    1.6100   68.1360   69.1900 O   0  0  0  0  0  0  0  0  0  0  0  0
    3.5510   66.9230   64.1200 C   0  0  0  0  0  0  0  0  0  0  0  0
    2.4200   66.6700   64.9000 C   0  0  0  0  0  0  0  0  0  0  0  0
    2.1380   67.5540   65.9260 C   0  0  0  0  0  0  0  0  0  0  0  0
    2.9180   68.6650   66.2080 C   0  0  0  0  0  0  0  0  0  0  0  0
    4.0400   68.9320   65.4390 C   0  0  0  0  0  0  0  0  0  0  0  0
    4.3650   68.0580   64.3890 C   0  0  0  0  0  0  0  0  0  0  0  0
    2.3700   69.4770   67.3400 C   0  0  0  0  0  0  0  0  0  0  0  0
    1.2100   68.6210   67.9110 C   0  0  1  0  0  0  0  0  0  0  0  0
    1.0410   67.5030   66.8810 C   0  0  0  0  0  0  0  0  0  0  0  0
    0.1600   66.6600   66.8490 O   0  0  0  0  0  0  0  0  0  0  0  0
    4.4990   64.8540   63.3850 C   0  0  0  0  0  0  0  0  0  0  0  0
    3.9580   66.1310   63.0740 O   0  0  0  0  0  0  0  0  0  0  0  0
    5.4540   68.2150   63.5670 O   0  0  0  0  0  0  0  0  0  0  0  0
    5.6120   69.4600   62.9000 C   0  0  0  0  0  0  0  0  0  0  0  0
    1.1480   66.9200   69.6060 C   0  0  0  0  0  0  0  0  0  0  0  0
   -0.1830   66.5340   69.7270 C   0  0  0  0  0  0  0  0  0  0  0  0
   -0.5040   65.2450   70.1600 C   0  0  0  0  0  0  0  0  0  0  0  0
    0.5020   64.3350   70.4800 C   0  0  0  0  0  0  0  0  0  0  0  0
    1.8470   64.7060   70.3710 C   0  0  0  0  0  0  0  0  0  0  0  0
    2.1550   66.0050   69.9330 C   0  0  0  0  0  0  0  0  0  0  0  0
    2.9450   63.7380   70.7140 C   0  0  0  0  0  0  0  0  0  0  0  0
    2.5490   62.2970   70.4940 N   0  0  0  0  0  4  0  0  0  0  0  0
    3.0890   61.6930   69.1960 C   0  0  0  0  0  0  0  0  0  0  0  0
    4.2780   60.7750   69.4870 C   0  0  0  0  0  0  0  0  0  0  0  0
    3.9400   59.6790   70.3450 O   0  0  0  0  0  0  0  0  0  0  0  0
    2.9150   59.9600   71.3040 C   0  0  0  0  0  0  0  0  0  0  0  0
    2.8710   61.4340   71.7100 C   0  0  0  0  0  0  0  0  0  0  0  0
    1.7768   65.7991   64.7053 H   0  0  0  0  0  0  0  0  0  0  0  0
    4.6648   69.8130   65.6476 H   0  0  0  0  0  0  0  0  0  0  0  0
    3.1414   69.6456   68.1058 H   0  0  0  0  0  0  0  0  0  0  0  0
    2.0325   70.4719   67.0141 H   0  0  0  0  0  0  0  0  0  0  0  0
    0.2613   69.1574   68.0600 H   0  0  0  0  0  0  0  0  0  0  0  0
    4.5500   64.7335   64.4772 H   0  0  0  0  0  0  0  0  0  0  0  0
    3.8558   64.0697   62.9593 H   0  0  0  0  0  0  0  0  0  0  0  0
    5.5098   64.7704   62.9593 H   0  0  0  0  0  0  0  0  0  0  0  0
    5.7140   70.2640   63.6437 H   0  0  0  0  0  0  0  0  0  0  0  0
    6.5131   69.4267   62.2700 H   0  0  0  0  0  0  0  0  0  0  0  0
    4.7311   69.6529   62.2700 H   0  0  0  0  0  0  0  0  0  0  0  0
   -0.9850   67.2456   69.4811 H   0  0  0  0  0  0  0  0  0  0  0  0
   -1.5588   64.9461   70.2490 H   0  0  0  0  0  0  0  0  0  0  0  0
    0.2381   63.3224   70.8192 H   0  0  0  0  0  0  0  0  0  0  0  0
    3.2086   66.3088   69.8454 H   0  0  0  0  0  0  0  0  0  0  0  0
    3.8191   63.9616   70.0848 H   0  0  0  0  0  0  0  0  0  0  0  0
    3.1688   63.8588   71.7842 H   0  0  0  0  0  0  0  0  0  0  0  0
    1.5257   62.3050   70.3770 H   0  0  0  0  0  0  0  0  0  0  0  0
    2.2929   61.1110   68.7087 H   0  0  0  0  0  0  0  0  0  0  0  0
    3.4213   62.5075   68.5355 H   0  0  0  0  0  0  0  0  0  0  0  0
    4.6518   60.3722   68.5341 H   0  0  0  0  0  0  0  0  0  0  0  0
    5.0399   61.3763   70.0047 H   0  0  0  0  0  0  0  0  0  0  0  0
    1.9424   59.6860   70.8693 H   0  0  0  0  0  0  0  0  0  0  0  0
    3.1376   59.3741   72.2079 H   0  0  0  0  0  0  0  0  0  0  0  0
    2.0948   61.5785   72.4759 H   0  0  0  0  0  0  0  0  0  0  0  0
    3.8508   61.7282   72.1142 H   0  0  0  0  0  0  0  0  0  0  0  0
  3  2  2  0
  4  3  1  0
  5  4  2  0
  6  5  1  0
  7  2  1  0
  7  6  2  0
  8  5  1  0
  9  8  1  0
  9  1  1  0
 10  9  1  0
 10  4  1  0
 11 10  2  0
 13 12  1  0
 13  2  1  0
 14  7  1  0
 15 14  1  0
 16  1  1  0
 17 16  2  0
 18 17  1  0
 19 18  2  0
 20 19  1  0
 21 16  1  0
 21 20  2  0
 22 20  1  0
 23 22  1  0
 24 23  1  0
 25 24  1  0
 26 25  1  0
 27 26  1  0
 28 27  1  0
 28 23  1  0
  3 29  1  0
  6 30  1  0
  8 31  1  0
  8 32  1  0
  9 33  1  1
 12 34  1  0
 12 35  1  0
 12 36  1  0
 15 37  1  0
 15 38  1  0
 15 39  1  0
 17 40  1  0
 18 41  1  0
 19 42  1  0
 21 43  1  0
 22 44  1  0
 22 45  1  0
 23 46  1  0
 24 47  1  0
 24 48  1  0
 25 49  1  0
 25 50  1  0
 27 51  1  0
 27 52  1  0
 28 53  1  0
 28 54  1  0
M  CHG  1  23   1
M  END
>  <score>  (4) 
-8.229

$$$$
=
     RDKit          3D

 54 57  0  0  0  0  0  0  0  0999 V2000
   -0.2470   65.0490   69.4100 O   0  0  0  0  0  0  0  0  0  0  0  0
    0.6410   68.6670   65.2780 C   0  0  0  0  0  0  0  0  0  0  0  0
   -0.4290   68.1670   66.0250 C   0  0  0  0  0  0  0  0  0  0  0  0
   -0.1470   67.6340   67.2710 C   0  0  0  0  0  0  0  0  0  0  0  0
    1.1320   67.5770   67.8020 C   0  0  0  0  0  0  0  0  0  0  0  0
    2.2030   68.0750   67.0740 C   0  0  0  0  0  0  0  0  0  0  0  0
    1.9620   68.6210   65.8030 C   0  0  0  0  0  0  0  0  0  0  0  0
    1.1550   66.9930   69.1790 C   0  0  0  0  0  0  0  0  0  0  0  0
   -0.2880   66.4730   69.4090 C   0  0  1  0  0  0  0  0  0  0  0  0
   -1.0720   67.0410   68.2250 C   0  0  0  0  0  0  0  0  0  0  0  0
   -2.2790   66.9960   68.0530 O   0  0  0  0  0  0  0  0  0  0  0  0
   -0.5820   68.7950   63.2260 C   0  0  0  0  0  0  0  0  0  0  0  0
    0.5150   69.2170   64.0260 O   0  0  0  0  0  0  0  0  0  0  0  0
    2.9420   69.1340   64.9890 O   0  0  0  0  0  0  0  0  0  0  0  0
    4.1870   69.4800   65.5810 C   0  0  0  0  0  0  0  0  0  0  0  0
    0.6660   64.4170   70.2050 C   0  0  0  0  0  0  0  0  0  0  0  0
    2.0510   64.5420   70.1400 C   0  0  0  0  0  0  0  0  0  0  0  0
    2.8630   63.8360   71.0300 C   0  0  0  0  0  0  0  0  0  0  0  0
    2.2970   62.9970   71.9900 C   0  0  0  0  0  0  0  0  0  0  0  0
    0.9070   62.8520   72.0670 C   0  0  0  0  0  0  0  0  0  0  0  0
    0.1030   63.5700   71.1660 C   0  0  0  0  0  0  0  0  0  0  0  0
    0.2810   61.9500   73.0940 C   0  0  0  0  0  0  0  0  0  0  0  0
   -0.6910   62.6720   73.9970 N   0  0  0  0  0  4  0  0  0  0  0  0
   -1.5700   61.7420   74.8360 C   0  0  0  0  0  0  0  0  0  0  0  0
   -1.0720   61.6960   76.2830 C   0  0  0  0  0  0  0  0  0  0  0  0
   -1.0940   62.9770   76.9220 O   0  0  0  0  0  0  0  0  0  0  0  0
   -0.8620   64.0890   76.0500 C   0  0  0  0  0  0  0  0  0  0  0  0
    0.0110   63.7270   74.8470 C   0  0  0  0  0  0  0  0  0  0  0  0
   -1.4579   68.1959   65.6370 H   0  0  0  0  0  0  0  0  0  0  0  0
    3.2227   68.0427   67.4852 H   0  0  0  0  0  0  0  0  0  0  0  0
    1.8792   66.1672   69.2383 H   0  0  0  0  0  0  0  0  0  0  0  0
    1.4588   67.7285   69.9385 H   0  0  0  0  0  0  0  0  0  0  0  0
   -0.7491   66.7755   70.3608 H   0  0  0  0  0  0  0  0  0  0  0  0
   -1.4095   68.4767   63.8770 H   0  0  0  0  0  0  0  0  0  0  0  0
   -0.9151   69.6292   62.5910 H   0  0  0  0  0  0  0  0  0  0  0  0
   -0.2701   67.9527   62.5910 H   0  0  0  0  0  0  0  0  0  0  0  0
    4.0920   69.4536   66.6766 H   0  0  0  0  0  0  0  0  0  0  0  0
    4.9568   68.7617   65.2623 H   0  0  0  0  0  0  0  0  0  0  0  0
    4.4758   70.4924   65.2623 H   0  0  0  0  0  0  0  0  0  0  0  0
    2.5072   65.1991   69.3850 H   0  0  0  0  0  0  0  0  0  0  0  0
    3.9564   63.9422   70.9737 H   0  0  0  0  0  0  0  0  0  0  0  0
    2.9451   62.4476   72.6887 H   0  0  0  0  0  0  0  0  0  0  0  0
   -0.9907   63.4642   71.2170 H   0  0  0  0  0  0  0  0  0  0  0  0
   -0.2567   61.1445   72.5724 H   0  0  0  0  0  0  0  0  0  0  0  0
    1.0911   61.5588   73.7270 H   0  0  0  0  0  0  0  0  0  0  0  0
   -1.3456   63.1599   73.3691 H   0  0  0  0  0  0  0  0  0  0  0  0
   -2.6059   62.1117   74.8211 H   0  0  0  0  0  0  0  0  0  0  0  0
   -1.5234   60.7285   74.4109 H   0  0  0  0  0  0  0  0  0  0  0  0
   -1.7140   61.0085   76.8532 H   0  0  0  0  0  0  0  0  0  0  0  0
   -0.0259   61.3567   76.2609 H   0  0  0  0  0  0  0  0  0  0  0  0
   -1.8318   64.4559   75.6828 H   0  0  0  0  0  0  0  0  0  0  0  0
   -0.3273   64.8572   76.6280 H   0  0  0  0  0  0  0  0  0  0  0  0
    0.1871   64.6271   74.2397 H   0  0  0  0  0  0  0  0  0  0  0  0
    0.9714   63.3260   75.2031 H   0  0  0  0  0  0  0  0  0  0  0  0
  3  2  2  0
  4  3  1  0
  5  4  2  0
  6  5  1  0
  7  2  1  0
  7  6  2  0
  8  5  1  0
  9  8  1  0
  9  1  1  0
 10  9  1  0
 10  4  1  0
 11 10  2  0
 13 12  1  0
 13  2  1  0
 14  7  1  0
 15 14  1  0
 16  1  1  0
 17 16  2  0
 18 17  1  0
 19 18  2  0
 20 19  1  0
 21 16  1  0
 21 20  2  0
 22 20  1  0
 23 22  1  0
 24 23  1  0
 25 24  1  0
 26 25  1  0
 27 26  1  0
 28 27  1  0
 28 23  1  0
  3 29  1  0
  6 30  1  0
  8 31  1  0
  8 32  1  0
  9 33  1  1
 12 34  1  0
 12 35  1  0
 12 36  1  0
 15 37  1  0
 15 38  1  0
 15 39  1  0
 17 40  1  0
 18 41  1  0
 19 42  1  0
 21 43  1  0
 22 44  1  0
 22 45  1  0
 23 46  1  0
 24 47  1  0
 24 48  1  0
 25 49  1  0
 25 50  1  0
 27 51  1  0
 27 52  1  0
 28 53  1  0
 28 54  1  0
M  CHG  1  23   1
M  END
>  <score>  (5) 
-7.977

$$$$
=
     RDKit          3D

 54 57  0  0  0  0  0  0  0  0999 V2000
    2.7260   62.2760   69.2990 O   0  0  0  0  0  0  0  0  0  0  0  0
    3.0390   58.7890   73.6220 C   0  0  0  0  0  0  0  0  0  0  0  0
    3.2260   58.7650   72.2380 C   0  0  0  0  0  0  0  0  0  0  0  0
    3.5030   59.9660   71.6080 C   0  0  0  0  0  0  0  0  0  0  0  0
    3.6020   61.1730   72.2820 C   0  0  0  0  0  0  0  0  0  0  0  0
    3.4250   61.2110   73.6570 C   0  0  0  0  0  0  0  0  0  0  0  0
    3.1390   60.0160   74.3360 C   0  0  0  0  0  0  0  0  0  0  0  0
    3.9500   62.3100   71.3730 C   0  0  0  0  0  0  0  0  0  0  0  0
    3.8630   61.7100   69.9450 C   0  0  1  0  0  0  0  0  0  0  0  0
    3.7180   60.2080   70.1890 C   0  0  0  0  0  0  0  0  0  0  0  0
    3.7400   59.3210   69.3510 O   0  0  0  0  0  0  0  0  0  0  0  0
    1.7930   56.7620   73.8710 C   0  0  0  0  0  0  0  0  0  0  0  0
    2.7520   57.6790   74.3800 O   0  0  0  0  0  0  0  0  0  0  0  0
    2.9350   59.9310   75.6910 O   0  0  0  0  0  0  0  0  0  0  0  0
    1.7520   60.5100   76.2250 C   0  0  0  0  0  0  0  0  0  0  0  0
    1.8960   63.0880   70.0190 C   0  0  0  0  0  0  0  0  0  0  0  0
    1.0530   62.7020   71.0570 C   0  0  0  0  0  0  0  0  0  0  0  0
    0.2640   63.6520   71.7100 C   0  0  0  0  0  0  0  0  0  0  0  0
    0.3090   64.9930   71.3290 C   0  0  0  0  0  0  0  0  0  0  0  0
    1.1450   65.3990   70.2830 C   0  0  0  0  0  0  0  0  0  0  0  0
    1.9350   64.4330   69.6360 C   0  0  0  0  0  0  0  0  0  0  0  0
    1.2040   66.8390   69.8570 C   0  0  0  0  0  0  0  0  0  0  0  0
    0.9760   67.0240   68.3750 N   0  0  0  0  0  4  0  0  0  0  0  0
   -0.4840   66.8730   67.9440 C   0  0  0  0  0  0  0  0  0  0  0  0
   -1.1100   68.2440   67.6800 C   0  0  0  0  0  0  0  0  0  0  0  0
   -0.4440   68.9700   66.6400 O   0  0  0  0  0  0  0  0  0  0  0  0
    0.9620   68.7170   66.5350 C   0  0  0  0  0  0  0  0  0  0  0  0
    1.5950   68.3250   67.8710 C   0  0  0  0  0  0  0  0  0  0  0  0
    3.1557   57.8259   71.6695 H   0  0  0  0  0  0  0  0  0  0  0  0
    3.5073   62.1607   74.2059 H   0  0  0  0  0  0  0  0  0  0  0  0
    3.2328   63.1356   71.4917 H   0  0  0  0  0  0  0  0  0  0  0  0
    4.9439   62.7284   71.5899 H   0  0  0  0  0  0  0  0  0  0  0  0
    4.7279   61.9153   69.2971 H   0  0  0  0  0  0  0  0  0  0  0  0
    1.2771   56.2687   74.7080 H   0  0  0  0  0  0  0  0  0  0  0  0
    1.0591   57.3029   73.2555 H   0  0  0  0  0  0  0  0  0  0  0  0
    2.3005   56.0046   73.2555 H   0  0  0  0  0  0  0  0  0  0  0  0
    1.7968   60.4881   77.3239 H   0  0  0  0  0  0  0  0  0  0  0  0
    1.6666   61.5517   75.8822 H   0  0  0  0  0  0  0  0  0  0  0  0
    0.8770   59.9383   75.8822 H   0  0  0  0  0  0  0  0  0  0  0  0
    1.0079   61.6466   71.3638 H   0  0  0  0  0  0  0  0  0  0  0  0
   -0.3980   63.3400   72.5312 H   0  0  0  0  0  0  0  0  0  0  0  0
   -0.3143   65.7332   71.8521 H   0  0  0  0  0  0  0  0  0  0  0  0
    2.5966   64.7405   68.8127 H   0  0  0  0  0  0  0  0  0  0  0  0
    0.4306   67.3986   70.4036 H   0  0  0  0  0  0  0  0  0  0  0  0
    2.2147   67.2090   70.0840 H   0  0  0  0  0  0  0  0  0  0  0  0
    1.4684   66.2430   67.9184 H   0  0  0  0  0  0  0  0  0  0  0  0
   -0.5294   66.2713   67.0243 H   0  0  0  0  0  0  0  0  0  0  0  0
   -1.0432   66.3762   68.7505 H   0  0  0  0  0  0  0  0  0  0  0  0
   -2.1612   68.0999   67.3897 H   0  0  0  0  0  0  0  0  0  0  0  0
   -1.0177   68.8326   68.6047 H   0  0  0  0  0  0  0  0  0  0  0  0
    1.1191   67.8978   65.8179 H   0  0  0  0  0  0  0  0  0  0  0  0
    1.4422   69.6488   66.2017 H   0  0  0  0  0  0  0  0  0  0  0  0
    2.6776   68.1856   67.7351 H   0  0  0  0  0  0  0  0  0  0  0  0
    1.4132   69.1224   68.6066 H   0  0  0  0  0  0  0  0  0  0  0  0
  3  2  2  0
  4  3  1  0
  5  4  2  0
  6  5  1  0
  7  2  1  0
  7  6  2  0
  8  5  1  0
  9  8  1  0
  9  1  1  0
 10  9  1  0
 10  4  1  0
 11 10  2  0
 13 12  1  0
 13  2  1  0
 14  7  1  0
 15 14  1  0
 16  1  1  0
 17 16  2  0
 18 17  1  0
 19 18  2  0
 20 19  1  0
 21 16  1  0
 21 20  2  0
 22 20  1  0
 23 22  1  0
 24 23  1  0
 25 24  1  0
 26 25  1  0
 27 26  1  0
 28 27  1  0
 28 23  1  0
  3 29  1  0
  6 30  1  0
  8 31  1  0
  8 32  1  0
  9 33  1  6
 12 34  1  0
 12 35  1  0
 12 36  1  0
 15 37  1  0
 15 38  1  0
 15 39  1  0
 17 40  1  0
 18 41  1  0
 19 42  1  0
 21 43  1  0
 22 44  1  0
 22 45  1  0
 23 46  1  0
 24 47  1  0
 24 48  1  0
 25 49  1  0
 25 50  1  0
 27 51  1  0
 27 52  1  0
 28 53  1  0
 28 54  1  0
M  CHG  1  23   1
M  END
>  <score>  (6) 
-7.894

$$$$
=
     RDKit          3D

 54 57  0  0  0  0  0  0  0  0999 V2000
    0.4560   61.7370   71.8310 O   0  0  0  0  0  0  0  0  0  0  0  0
    0.6460   56.4820   73.6460 C   0  0  0  0  0  0  0  0  0  0  0  0
    1.5250   57.4680   73.1910 C   0  0  0  0  0  0  0  0  0  0  0  0
    1.1150   58.7860   73.2900 C   0  0  0  0  0  0  0  0  0  0  0  0
   -0.1100   59.1640   73.8160 C   0  0  0  0  0  0  0  0  0  0  0  0
   -0.9900   58.1960   74.2780 C   0  0  0  0  0  0  0  0  0  0  0  0
   -0.6160   56.8450   74.1920 C   0  0  0  0  0  0  0  0  0  0  0  0
   -0.2870   60.6500   73.8470 C   0  0  0  0  0  0  0  0  0  0  0  0
    0.9310   61.2060   73.0650 C   0  0  1  0  0  0  0  0  0  0  0  0
    1.8300   59.9840   72.8750 C   0  0  0  0  0  0  0  0  0  0  0  0
    2.9620   59.9670   72.4200 O   0  0  0  0  0  0  0  0  0  0  0  0
    1.9660   54.6440   74.4220 C   0  0  0  0  0  0  0  0  0  0  0  0
    0.9130   55.1340   73.6040 O   0  0  0  0  0  0  0  0  0  0  0  0
   -1.4050   55.8010   74.6070 O   0  0  0  0  0  0  0  0  0  0  0  0
   -1.6480   55.6620   76.0010 C   0  0  0  0  0  0  0  0  0  0  0  0
    1.0680   62.8420   71.3110 C   0  0  0  0  0  0  0  0  0  0  0  0
    2.4370   63.0370   71.1570 C   0  0  0  0  0  0  0  0  0  0  0  0
    2.9190   64.2230   70.5980 C   0  0  0  0  0  0  0  0  0  0  0  0
    2.0360   65.2240   70.1930 C   0  0  0  0  0  0  0  0  0  0  0  0
    0.6560   65.0500   70.3470 C   0  0  0  0  0  0  0  0  0  0  0  0
    0.1860   63.8510   70.9090 C   0  0  0  0  0  0  0  0  0  0  0  0
   -0.3090   66.1200   69.9180 C   0  0  0  0  0  0  0  0  0  0  0  0
   -0.1710   66.4870   68.4600 N   0  0  0  0  0  4  0  0  0  0  0  0
   -1.5020   66.5640   67.7080 C   0  0  0  0  0  0  0  0  0  0  0  0
   -1.9130   68.0230   67.4960 C   0  0  0  0  0  0  0  0  0  0  0  0
   -0.9590   68.7660   66.7280 O   0  0  0  0  0  0  0  0  0  0  0  0
    0.4010   68.3530   66.8970 C   0  0  0  0  0  0  0  0  0  0  0  0
    0.6700   67.7460   68.2750 C   0  0  0  0  0  0  0  0  0  0  0  0
    2.5068   57.2063   72.7696 H   0  0  0  0  0  0  0  0  0  0  0  0
   -1.9631   58.4815   74.7040 H   0  0  0  0  0  0  0  0  0  0  0  0
   -1.2282   60.9392   73.3565 H   0  0  0  0  0  0  0  0  0  0  0  0
   -0.3379   61.0425   74.8733 H   0  0  0  0  0  0  0  0  0  0  0  0
    1.4793   62.0169   73.5669 H   0  0  0  0  0  0  0  0  0  0  0  0
    1.6964   54.7695   75.4810 H   0  0  0  0  0  0  0  0  0  0  0  0
    2.1296   53.5773   74.2092 H   0  0  0  0  0  0  0  0  0  0  0  0
    2.8874   55.2058   74.2092 H   0  0  0  0  0  0  0  0  0  0  0  0
   -0.8281   56.1310   76.5647 H   0  0  0  0  0  0  0  0  0  0  0  0
   -2.5979   56.1533   76.2584 H   0  0  0  0  0  0  0  0  0  0  0  0
   -1.7060   54.5941   76.2584 H   0  0  0  0  0  0  0  0  0  0  0  0
    3.1417   62.2551   71.4763 H   0  0  0  0  0  0  0  0  0  0  0  0
    4.0025   64.3686   70.4763 H   0  0  0  0  0  0  0  0  0  0  0  0
    2.4256   66.1530   69.7512 H   0  0  0  0  0  0  0  0  0  0  0  0
   -0.8966   63.7027   71.0354 H   0  0  0  0  0  0  0  0  0  0  0  0
   -1.3333   65.7594   70.0935 H   0  0  0  0  0  0  0  0  0  0  0  0
   -0.0850   67.0214   70.5074 H   0  0  0  0  0  0  0  0  0  0  0  0
    0.3359   65.7041   68.0230 H   0  0  0  0  0  0  0  0  0  0  0  0
   -1.3944   66.0722   66.7299 H   0  0  0  0  0  0  0  0  0  0  0  0
   -2.2770   66.0584   68.3028 H   0  0  0  0  0  0  0  0  0  0  0  0
   -2.8787   68.0425   66.9696 H   0  0  0  0  0  0  0  0  0  0  0  0
   -1.9771   68.4948   68.4876 H   0  0  0  0  0  0  0  0  0  0  0  0
    0.6378   67.6013   66.1297 H   0  0  0  0  0  0  0  0  0  0  0  0
    1.0330   69.2481   66.8006 H   0  0  0  0  0  0  0  0  0  0  0  0
    1.7361   67.4881   68.3583 H   0  0  0  0  0  0  0  0  0  0  0  0
    0.4030   68.4777   69.0518 H   0  0  0  0  0  0  0  0  0  0  0  0
  3  2  2  0
  4  3  1  0
  5  4  2  0
  6  5  1  0
  7  2  1  0
  7  6  2  0
  8  5  1  0
  9  8  1  0
  9  1  1  0
 10  9  1  0
 10  4  1  0
 11 10  2  0
 13 12  1  0
 13  2  1  0
 14  7  1  0
 15 14  1  0
 16  1  1  0
 17 16  2  0
 18 17  1  0
 19 18  2  0
 20 19  1  0
 21 16  1  0
 21 20  2  0
 22 20  1  0
 23 22  1  0
 24 23  1  0
 25 24  1  0
 26 25  1  0
 27 26  1  0
 28 27  1  0
 28 23  1  0
  3 29  1  0
  6 30  1  0
  8 31  1  0
  8 32  1  0
  9 33  1  1
 12 34  1  0
 12 35  1  0
 12 36  1  0
 15 37  1  0
 15 38  1  0
 15 39  1  0
 17 40  1  0
 18 41  1  0
 19 42  1  0
 21 43  1  0
 22 44  1  0
 22 45  1  0
 23 46  1  0
 24 47  1  0
 24 48  1  0
 25 49  1  0
 25 50  1  0
 27 51  1  0
 27 52  1  0
 28 53  1  0
 28 54  1  0
M  CHG  1  23   1
M  END
>  <score>  (7) 
-7.831

$$$$
=
     RDKit          3D

 54 57  0  0  0  0  0  0  0  0999 V2000
    3.7760   58.9670   72.7600 O   0  0  0  0  0  0  0  0  0  0  0  0
    1.4540   55.1030   76.0190 C   0  0  0  0  0  0  0  0  0  0  0  0
    2.3210   56.1920   76.1350 C   0  0  0  0  0  0  0  0  0  0  0  0
    2.2620   57.1660   75.1550 C   0  0  0  0  0  0  0  0  0  0  0  0
    1.3900   57.1090   74.0790 C   0  0  0  0  0  0  0  0  0  0  0  0
    0.5190   56.0380   73.9530 C   0  0  0  0  0  0  0  0  0  0  0  0
    0.5490   55.0240   74.9250 C   0  0  0  0  0  0  0  0  0  0  0  0
    1.5000   58.3080   73.1890 C   0  0  0  0  0  0  0  0  0  0  0  0
    2.7320   59.0820   73.7240 C   0  0  1  0  0  0  0  0  0  0  0  0
    3.0630   58.3760   75.0400 C   0  0  0  0  0  0  0  0  0  0  0  0
    3.8850   58.7200   75.8730 O   0  0  0  0  0  0  0  0  0  0  0  0
    1.0000   54.3440   78.2420 C   0  0  0  0  0  0  0  0  0  0  0  0
    1.4050   54.0580   76.9100 O   0  0  0  0  0  0  0  0  0  0  0  0
   -0.2590   53.9130   74.9010 O   0  0  0  0  0  0  0  0  0  0  0  0
    0.0640   52.8740   73.9870 C   0  0  0  0  0  0  0  0  0  0  0  0
    3.6370   59.6080   71.5620 C   0  0  0  0  0  0  0  0  0  0  0  0
    3.6060   59.0160   70.3020 C   0  0  0  0  0  0  0  0  0  0  0  0
    3.4490   59.8040   69.1600 C   0  0  0  0  0  0  0  0  0  0  0  0
    3.3270   61.1890   69.2670 C   0  0  0  0  0  0  0  0  0  0  0  0
    3.3640   61.8040   70.5230 C   0  0  0  0  0  0  0  0  0  0  0  0
    3.5200   60.9990   71.6640 C   0  0  0  0  0  0  0  0  0  0  0  0
    3.2370   63.2960   70.6560 C   0  0  0  0  0  0  0  0  0  0  0  0
    1.8440   63.7970   70.3560 N   0  0  0  0  0  4  0  0  0  0  0  0
    0.7590   63.2040   71.2590 C   0  0  0  0  0  0  0  0  0  0  0  0
    0.3300   64.2210   72.3190 C   0  0  0  0  0  0  0  0  0  0  0  0
   -0.2100   65.4210   71.7550 O   0  0  0  0  0  0  0  0  0  0  0  0
    0.3480   65.7970   70.4920 C   0  0  0  0  0  0  0  0  0  0  0  0
    1.7920   65.3210   70.3170 C   0  0  0  0  0  0  0  0  0  0  0  0
    3.0256   56.2720   76.9759 H   0  0  0  0  0  0  0  0  0  0  0  0
   -0.1827   55.9830   73.1076 H   0  0  0  0  0  0  0  0  0  0  0  0
    1.6573   58.0026   72.1440 H   0  0  0  0  0  0  0  0  0  0  0  0
    0.5863   58.9203   73.2000 H   0  0  0  0  0  0  0  0  0  0  0  0
    2.5730   60.1577   73.8903 H   0  0  0  0  0  0  0  0  0  0  0  0
    1.6895   53.8571   78.9474 H   0  0  0  0  0  0  0  0  0  0  0  0
    1.0166   55.4318   78.4047 H   0  0  0  0  0  0  0  0  0  0  0  0
   -0.0195   53.9645   78.4047 H   0  0  0  0  0  0  0  0  0  0  0  0
    0.3454   51.9689   74.5453 H   0  0  0  0  0  0  0  0  0  0  0  0
   -0.8093   52.6578   73.3541 H   0  0  0  0  0  0  0  0  0  0  0  0
    0.9060   53.1910   73.3541 H   0  0  0  0  0  0  0  0  0  0  0  0
    3.7055   57.9247   70.2060 H   0  0  0  0  0  0  0  0  0  0  0  0
    3.4213   59.3286   68.1684 H   0  0  0  0  0  0  0  0  0  0  0  0
    3.2013   61.7999   68.3609 H   0  0  0  0  0  0  0  0  0  0  0  0
    3.5508   61.4713   72.6570 H   0  0  0  0  0  0  0  0  0  0  0  0
    3.4977   63.5799   71.6863 H   0  0  0  0  0  0  0  0  0  0  0  0
    3.9168   63.7517   69.9210 H   0  0  0  0  0  0  0  0  0  0  0  0
    1.6218   63.4503   69.4119 H   0  0  0  0  0  0  0  0  0  0  0  0
   -0.1125   62.9303   70.6461 H   0  0  0  0  0  0  0  0  0  0  0  0
    1.1626   62.3134   71.7628 H   0  0  0  0  0  0  0  0  0  0  0  0
   -0.4359   63.7587   72.9590 H   0  0  0  0  0  0  0  0  0  0  0  0
    1.2276   64.5002   72.8903 H   0  0  0  0  0  0  0  0  0  0  0  0
   -0.2662   65.3584   69.6917 H   0  0  0  0  0  0  0  0  0  0  0  0
    0.3534   66.8960   70.4460 H   0  0  0  0  0  0  0  0  0  0  0  0
    2.1780   65.6746   69.3495 H   0  0  0  0  0  0  0  0  0  0  0  0
    2.4084   65.7256   71.1333 H   0  0  0  0  0  0  0  0  0  0  0  0
  3  2  2  0
  4  3  1  0
  5  4  2  0
  6  5  1  0
  7  2  1  0
  7  6  2  0
  8  5  1  0
  9  8  1  0
  9  1  1  0
 10  9  1  0
 10  4  1  0
 11 10  2  0
 13 12  1  0
 13  2  1  0
 14  7  1  0
 15 14  1  0
 16  1  1  0
 17 16  2  0
 18 17  1  0
 19 18  2  0
 20 19  1  0
 21 16  1  0
 21 20  2  0
 22 20  1  0
 23 22  1  0
 24 23  1  0
 25 24  1  0
 26 25  1  0
 27 26  1  0
 28 27  1  0
 28 23  1  0
  3 29  1  0
  6 30  1  0
  8 31  1  0
  8 32  1  0
  9 33  1  1
 12 34  1  0
 12 35  1  0
 12 36  1  0
 15 37  1  0
 15 38  1  0
 15 39  1  0
 17 40  1  0
 18 41  1  0
 19 42  1  0
 21 43  1  0
 22 44  1  0
 22 45  1  0
 23 46  1  0
 24 47  1  0
 24 48  1  0
 25 49  1  0
 25 50  1  0
 27 51  1  0
 27 52  1  0
 28 53  1  0
 28 54  1  0
M  CHG  1  23   1
M  END
>  <score>  (8) 
-7.4

$$$$
=
     RDKit          3D

 54 57  0  0  0  0  0  0  0  0999 V2000
    0.7150   62.5150   73.6700 O   0  0  0  0  0  0  0  0  0  0  0  0
    0.8540   57.4680   76.0060 C   0  0  0  0  0  0  0  0  0  0  0  0
    0.1240   58.6540   76.1120 C   0  0  0  0  0  0  0  0  0  0  0  0
    0.1110   59.4990   75.0150 C   0  0  0  0  0  0  0  0  0  0  0  0
    0.7810   59.2210   73.8340 C   0  0  0  0  0  0  0  0  0  0  0  0
    1.5040   58.0440   73.7120 C   0  0  0  0  0  0  0  0  0  0  0  0
    1.5470   57.1600   74.8030 C   0  0  0  0  0  0  0  0  0  0  0  0
    0.5700   60.2760   72.7940 C   0  0  0  0  0  0  0  0  0  0  0  0
   -0.1800   61.4130   73.5360 C   0  0  1  0  0  0  0  0  0  0  0  0
   -0.5520   60.7870   74.8810 C   0  0  0  0  0  0  0  0  0  0  0  0
   -1.2620   61.2720   75.7460 O   0  0  0  0  0  0  0  0  0  0  0  0
   -0.0630   56.5050   77.9940 C   0  0  0  0  0  0  0  0  0  0  0  0
    0.9640   56.5390   77.0130 O   0  0  0  0  0  0  0  0  0  0  0  0
    2.2370   55.9720   74.8030 O   0  0  0  0  0  0  0  0  0  0  0  0
    1.9230   55.0200   73.7960 C   0  0  0  0  0  0  0  0  0  0  0  0
    1.1270   63.1680   72.5440 C   0  0  0  0  0  0  0  0  0  0  0  0
    0.3710   64.0390   71.7650 C   0  0  0  0  0  0  0  0  0  0  0  0
    0.9340   64.6430   70.6390 C   0  0  0  0  0  0  0  0  0  0  0  0
    2.2550   64.3770   70.2790 C   0  0  0  0  0  0  0  0  0  0  0  0
    3.0290   63.4980   71.0450 C   0  0  0  0  0  0  0  0  0  0  0  0
    2.4500   62.8990   72.1760 C   0  0  0  0  0  0  0  0  0  0  0  0
    4.4540   63.1980   70.6700 C   0  0  0  0  0  0  0  0  0  0  0  0
    4.6530   61.7730   70.2090 N   0  0  0  0  0  4  0  0  0  0  0  0
    5.3610   60.8810   71.2320 C   0  0  0  0  0  0  0  0  0  0  0  0
    4.3540   59.9610   71.9280 C   0  0  0  0  0  0  0  0  0  0  0  0
    3.6720   59.0900   71.0180 O   0  0  0  0  0  0  0  0  0  0  0  0
    3.4630   59.6310   69.7090 C   0  0  0  0  0  0  0  0  0  0  0  0
    3.3500   61.1570   69.7090 C   0  0  0  0  0  0  0  0  0  0  0  0
   -0.4208   58.9076   77.0334 H   0  0  0  0  0  0  0  0  0  0  0  0
    2.0342   57.8068   72.7779 H   0  0  0  0  0  0  0  0  0  0  0  0
    1.5339   60.6360   72.4050 H   0  0  0  0  0  0  0  0  0  0  0  0
    0.0059   59.9005   71.9275 H   0  0  0  0  0  0  0  0  0  0  0  0
   -1.0762   61.7946   73.0249 H   0  0  0  0  0  0  0  0  0  0  0  0
    0.3877   56.5199   78.9973 H   0  0  0  0  0  0  0  0  0  0  0  0
   -0.7157   57.3820   77.8721 H   0  0  0  0  0  0  0  0  0  0  0  0
   -0.6562   55.5867   77.8721 H   0  0  0  0  0  0  0  0  0  0  0  0
    1.6117   54.0763   74.2678 H   0  0  0  0  0  0  0  0  0  0  0  0
    1.1041   55.4047   73.1703 H   0  0  0  0  0  0  0  0  0  0  0  0
    2.8100   54.8420   73.1703 H   0  0  0  0  0  0  0  0  0  0  0  0
   -0.6732   64.2522   72.0372 H   0  0  0  0  0  0  0  0  0  0  0  0
    0.3312   65.3338   70.0313 H   0  0  0  0  0  0  0  0  0  0  0  0
    2.6894   64.8593   69.3909 H   0  0  0  0  0  0  0  0  0  0  0  0
    3.0484   62.2048   72.7843 H   0  0  0  0  0  0  0  0  0  0  0  0
    4.7528   63.8751   69.8563 H   0  0  0  0  0  0  0  0  0  0  0  0
    5.0697   63.3429   71.5699 H   0  0  0  0  0  0  0  0  0  0  0  0
    5.3007   61.8266   69.4099 H   0  0  0  0  0  0  0  0  0  0  0  0
    6.1158   60.2683   70.7173 H   0  0  0  0  0  0  0  0  0  0  0  0
    5.8423   61.5189   71.9880 H   0  0  0  0  0  0  0  0  0  0  0  0
    4.8914   59.3467   72.6654 H   0  0  0  0  0  0  0  0  0  0  0  0
    3.5957   60.6012   72.4026 H   0  0  0  0  0  0  0  0  0  0  0  0
    4.3100   59.3413   69.0697 H   0  0  0  0  0  0  0  0  0  0  0  0
    2.5111   59.2285   69.3325 H   0  0  0  0  0  0  0  0  0  0  0  0
    3.1493   61.5081   68.6860 H   0  0  0  0  0  0  0  0  0  0  0  0
    2.5273   61.4597   70.3735 H   0  0  0  0  0  0  0  0  0  0  0  0
  3  2  2  0
  4  3  1  0
  5  4  2  0
  6  5  1  0
  7  2  1  0
  7  6  2  0
  8  5  1  0
  9  8  1  0
  9  1  1  0
 10  9  1  0
 10  4  1  0
 11 10  2  0
 13 12  1  0
 13  2  1  0
 14  7  1  0
 15 14  1  0
 16  1  1  0
 17 16  2  0
 18 17  1  0
 19 18  2  0
 20 19  1  0
 21 16  1  0
 21 20  2  0
 22 20  1  0
 23 22  1  0
 24 23  1  0
 25 24  1  0
 26 25  1  0
 27 26  1  0
 28 27  1  0
 28 23  1  0
  3 29  1  0
  6 30  1  0
  8 31  1  0
  8 32  1  0
  9 33  1  6
 12 34  1  0
 12 35  1  0
 12 36  1  0
 15 37  1  0
 15 38  1  0
 15 39  1  0
 17 40  1  0
 18 41  1  0
 19 42  1  0
 21 43  1  0
 22 44  1  0
 22 45  1  0
 23 46  1  0
 24 47  1  0
 24 48  1  0
 25 49  1  0
 25 50  1  0
 27 51  1  0
 27 52  1  0
 28 53  1  0
 28 54  1  0
M  CHG  1  23   1
M  END
>  <score>  (9) 
-7.228

$$$$
