=
     RDKit          3D

 92 98  0  0  0  0  0  0  0  0999 V2000
    2.4890   64.2660   70.9010 C   0  0  0  0  0  0  0  0  0  0  0  0
    1.2000   64.8230   70.2870 C   0  0  0  0  0  0  0  0  0  0  0  0
    1.2310   66.3040   69.9040 C   0  0  0  0  0  0  0  0  0  0  0  0
    0.0000   66.7720   69.1220 C   0  0  0  0  0  0  0  0  0  0  0  0
    0.4290   67.5710   67.8890 C   0  0  0  0  0  0  0  0  0  0  0  0
    1.8640   68.0930   67.9650 C   0  0  0  0  0  0  0  0  0  0  0  0
    2.0480   69.2670   67.0960 N   0  0  0  0  0  0  0  0  0  0  0  0
    3.2780   64.2430   64.5080 C   0  0  0  0  0  0  0  0  0  0  0  0
    3.3180   65.6720   64.0530 C   0  0  0  0  0  0  0  0  0  0  0  0
    4.1890   66.1070   63.1260 C   0  0  0  0  0  0  0  0  0  0  0  0
    4.2260   67.5400   62.6470 C   0  0  1  0  0  0  0  0  0  0  0  0
    2.8820   68.2320   62.8740 C   0  0  0  0  0  0  0  0  0  0  0  0
    2.5270   68.1100   64.3630 C   0  0  1  0  0  0  0  0  0  0  0  0
    2.3290   66.6130   64.7090 C   0  0  0  0  0  0  0  0  0  0  0  0
    3.6030   68.7540   65.2310 C   0  0  0  0  0  0  0  0  0  0  0  0
    4.9280   68.7890   64.7700 C   0  0  0  0  0  0  0  0  0  0  0  0
    5.3180   68.3260   63.3820 C   0  0  0  0  0  0  0  0  0  0  0  0
    5.9530   69.3010   65.4900 N   0  0  0  0  0  0  0  0  0  0  0  0
    5.7150   69.8090   66.7020 C   0  0  0  0  0  0  0  0  0  0  0  0
    4.4230   69.8680   67.2560 C   0  0  0  0  0  0  0  0  0  0  0  0
    3.3460   69.3110   66.5040 C   0  0  0  0  0  0  0  0  0  0  0  0
    4.2640   70.5040   68.5100 C   0  0  0  0  0  0  0  0  0  0  0  0
    5.3520   71.0300   69.2040 C   0  0  0  0  0  0  0  0  0  0  0  0
    6.6180   70.9270   68.6490 C   0  0  0  0  0  0  0  0  0  0  0  0
    6.7910   70.3230   67.4080 C   0  0  0  0  0  0  0  0  0  0  0  0
    7.9770   71.5730   69.4830 Cl  0  0  0  0  0  0  0  0  0  0  0  0
    3.3250   63.4470   69.9160 C   0  0  0  0  0  0  0  0  0  0  0  0
    4.8190   63.4110   70.2470 C   0  0  0  0  0  0  0  0  0  0  0  0
    5.2540   62.3060   71.2090 C   0  0  0  0  0  0  0  0  0  0  0  0
    4.1550   61.5770   71.8050 N   0  0  0  0  0  0  0  0  0  0  0  0
    3.8130   60.3070   71.3970 C   0  0  0  0  0  0  0  0  0  0  0  0
    4.4290   59.6680   70.5540 O   0  0  0  0  0  0  0  0  0  0  0  0
    2.6150   59.7150   72.0470 C   0  0  0  0  0  0  0  0  0  0  0  0
    2.6220   58.3940   72.5030 C   0  0  0  0  0  0  0  0  0  0  0  0
    1.5150   57.8930   73.1840 C   0  0  0  0  0  0  0  0  0  0  0  0
    0.3900   58.6970   73.4190 C   0  0  0  0  0  0  0  0  0  0  0  0
    0.3810   60.0100   72.9480 C   0  0  0  0  0  0  0  0  0  0  0  0
    1.4950   60.5240   72.2680 C   0  0  0  0  0  0  0  0  0  0  0  0
   -0.7920   60.8750   73.1770 C   0  0  0  0  0  0  0  0  0  0  0  0
   -0.8180   62.0120   72.7220 O   0  0  0  0  0  0  0  0  0  0  0  0
   -1.9320   60.3570   73.9590 C   0  0  0  0  0  0  0  0  0  0  0  0
   -1.9200   59.0510   74.4500 C   0  0  0  0  0  0  0  0  0  0  0  0
   -0.7600   58.1810   74.1850 C   0  0  0  0  0  0  0  0  0  0  0  0
   -0.7330   57.0300   74.6200 O   0  0  0  0  0  0  0  0  0  0  0  0
   -3.0140   58.5880   75.1920 C   0  0  0  0  0  0  0  0  0  0  0  0
   -4.1100   59.4160   75.4340 C   0  0  0  0  0  0  0  0  0  0  0  0
   -4.1200   60.7190   74.9370 C   0  0  0  0  0  0  0  0  0  0  0  0
   -3.0330   61.1910   74.2030 C   0  0  0  0  0  0  0  0  0  0  0  0
    1.6120   56.5980   73.6180 O   0  0  0  0  0  0  0  0  0  0  0  0
   -3.0810   57.3280   75.7230 O   0  0  0  0  0  0  0  0  0  0  0  0
    3.0980   65.1094   71.2585 H   0  0  0  0  0  0  0  0  0  0  0  0
    2.1948   63.5907   71.7180 H   0  0  0  0  0  0  0  0  0  0  0  0
    0.9815   64.2437   69.3778 H   0  0  0  0  0  0  0  0  0  0  0  0
    0.4327   64.7328   71.0700 H   0  0  0  0  0  0  0  0  0  0  0  0
    1.3008   66.8984   70.8269 H   0  0  0  0  0  0  0  0  0  0  0  0
    2.0993   66.4433   69.2432 H   0  0  0  0  0  0  0  0  0  0  0  0
   -0.5822   65.8952   68.8022 H   0  0  0  0  0  0  0  0  0  0  0  0
   -0.6139   67.4146   69.7702 H   0  0  0  0  0  0  0  0  0  0  0  0
    0.3421   66.9208   67.0060 H   0  0  0  0  0  0  0  0  0  0  0  0
   -0.2304   68.4494   67.8291 H   0  0  0  0  0  0  0  0  0  0  0  0
    2.0886   68.3764   69.0039 H   0  0  0  0  0  0  0  0  0  0  0  0
    2.5435   67.2973   67.6256 H   0  0  0  0  0  0  0  0  0  0  0  0
    1.3206   69.9779   66.9332 H   0  0  0  0  0  0  0  0  0  0  0  0
    3.2770   64.2082   65.6074 H   0  0  0  0  0  0  0  0  0  0  0  0
    2.3660   63.7617   64.1251 H   0  0  0  0  0  0  0  0  0  0  0  0
    4.1616   63.7114   64.1251 H   0  0  0  0  0  0  0  0  0  0  0  0
    4.9049   65.3898   62.6981 H   0  0  0  0  0  0  0  0  0  0  0  0
    4.4444   67.5203   61.5691 H   0  0  0  0  0  0  0  0  0  0  0  0
    2.9573   69.2932   62.5946 H   0  0  0  0  0  0  0  0  0  0  0  0
    2.1024   67.7613   62.2570 H   0  0  0  0  0  0  0  0  0  0  0  0
    1.5899   68.6482   64.5683 H   0  0  0  0  0  0  0  0  0  0  0  0
    2.4201   66.4991   65.7993 H   0  0  0  0  0  0  0  0  0  0  0  0
    1.3365   66.3355   64.3244 H   0  0  0  0  0  0  0  0  0  0  0  0
    5.5675   69.2128   62.7809 H   0  0  0  0  0  0  0  0  0  0  0  0
    6.1687   67.6399   63.5071 H   0  0  0  0  0  0  0  0  0  0  0  0
    3.2579   70.5851   68.9473 H   0  0  0  0  0  0  0  0  0  0  0  0
    5.2082   71.5199   70.1783 H   0  0  0  0  0  0  0  0  0  0  0  0
    7.8013   70.2520   66.9788 H   0  0  0  0  0  0  0  0  0  0  0  0
    2.9458   62.4144   69.9156 H   0  0  0  0  0  0  0  0  0  0  0  0
    3.2282   63.9342   68.9345 H   0  0  0  0  0  0  0  0  0  0  0  0
    5.3715   63.2772   69.3053 H   0  0  0  0  0  0  0  0  0  0  0  0
    5.0376   64.3598   70.7588 H   0  0  0  0  0  0  0  0  0  0  0  0
    5.8820   61.5927   70.6550 H   0  0  0  0  0  0  0  0  0  0  0  0
    5.7942   62.7959   72.0325 H   0  0  0  0  0  0  0  0  0  0  0  0
    3.6114   62.0222   72.5582 H   0  0  0  0  0  0  0  0  0  0  0  0
    3.4978   57.7527   72.3249 H   0  0  0  0  0  0  0  0  0  0  0  0
    1.4881   61.5635   71.9083 H   0  0  0  0  0  0  0  0  0  0  0  0
   -4.9652   59.0418   76.0160 H   0  0  0  0  0  0  0  0  0  0  0  0
   -4.9843   61.3733   75.1239 H   0  0  0  0  0  0  0  0  0  0  0  0
   -3.0387   62.2200   73.8142 H   0  0  0  0  0  0  0  0  0  0  0  0
    0.8591   56.1827   74.1087 H   0  0  0  0  0  0  0  0  0  0  0  0
   -3.8783   57.0505   76.2401 H   0  0  0  0  0  0  0  0  0  0  0  0
  2  1  1  0
  3  2  1  0
  4  3  1  0
  5  4  1  0
  6  5  1  0
  7  6  1  0
  9  8  1  0
 10  9  2  0
 11 10  1  0
 12 11  1  0
 13 12  1  0
 14 13  1  0
 14  9  1  0
 15 13  1  0
 16 15  2  0
 17 16  1  0
 17 11  1  0
 18 16  1  0
 19 18  2  0
 20 19  1  0
 21 15  1  0
 21 20  2  0
 21  7  1  0
 22 20  1  0
 23 22  2  0
 24 23  1  0
 25 19  1  0
 25 24  2  0
 26 24  1  0
 27  1  1  0
 28 27  1  0
 29 28  1  0
 30 29  1  0
 31 30  1  0
 32 31  2  0
 33 31  1  0
 34 33  2  0
 35 34  1  0
 36 35  2  0
 37 36  1  0
 38 33  1  0
 38 37  2  0
 39 37  1  0
 40 39  2  0
 41 39  1  0
 42 41  2  0
 43 42  1  0
 43 36  1  0
 44 43  2  0
 45 42  1  0
 46 45  2  0
 47 46  1  0
 48 47  2  0
 48 41  1  0
 49 35  1  0
 50 45  1  0
  1 51  1  0
  1 52  1  0
  2 53  1  0
  2 54  1  0
  3 55  1  0
  3 56  1  0
  4 57  1  0
  4 58  1  0
  5 59  1  0
  5 60  1  0
  6 61  1  0
  6 62  1  0
  7 63  1  0
  8 64  1  0
  8 65  1  0
  8 66  1  0
 10 67  1  0
 11 68  1  6
 12 69  1  0
 12 70  1  0
 13 71  1  6
 14 72  1  0
 14 73  1  0
 17 74  1  0
 17 75  1  0
 22 76  1  0
 23 77  1  0
 25 78  1  0
 27 79  1  0
 27 80  1  0
 28 81  1  0
 28 82  1  0
 29 83  1  0
 29 84  1  0
 30 85  1  0
 34 86  1  0
 38 87  1  0
 46 88  1  0
 47 89  1  0
 48 90  1  0
 49 91  1  0
 50 92  1  0
M  END
>  <score>  (1) 
-13.991

$$$$
=
     RDKit          3D

 92 98  0  0  0  0  0  0  0  0999 V2000
    1.9780   63.8320   70.1900 C   0  0  0  0  0  0  0  0  0  0  0  0
    1.0610   64.9630   70.6680 C   0  0  0  0  0  0  0  0  0  0  0  0
    1.2380   66.3080   69.9590 C   0  0  0  0  0  0  0  0  0  0  0  0
    0.0540   66.7040   69.0700 C   0  0  0  0  0  0  0  0  0  0  0  0
    0.5530   67.4410   67.8240 C   0  0  0  0  0  0  0  0  0  0  0  0
    1.8710   68.1850   68.0380 C   0  0  0  0  0  0  0  0  0  0  0  0
    2.0270   69.2780   67.0630 N   0  0  0  0  0  0  0  0  0  0  0  0
    3.2650   64.2150   64.5570 C   0  0  0  0  0  0  0  0  0  0  0  0
    3.3140   65.6370   64.0820 C   0  0  0  0  0  0  0  0  0  0  0  0
    4.1940   66.0570   63.1560 C   0  0  0  0  0  0  0  0  0  0  0  0
    4.2400   67.4820   62.6590 C   0  0  1  0  0  0  0  0  0  0  0  0
    2.8950   68.1810   62.8640 C   0  0  0  0  0  0  0  0  0  0  0  0
    2.5270   68.0810   64.3510 C   0  0  1  0  0  0  0  0  0  0  0  0
    2.3210   66.5900   64.7160 C   0  0  0  0  0  0  0  0  0  0  0  0
    3.5970   68.7340   65.2190 C   0  0  0  0  0  0  0  0  0  0  0  0
    4.9260   68.7590   64.7690 C   0  0  0  0  0  0  0  0  0  0  0  0
    5.3270   68.2760   63.3920 C   0  0  0  0  0  0  0  0  0  0  0  0
    5.9460   69.2790   65.4920 N   0  0  0  0  0  0  0  0  0  0  0  0
    5.6990   69.8050   66.6940 C   0  0  0  0  0  0  0  0  0  0  0  0
    4.4020   69.8750   67.2360 C   0  0  0  0  0  0  0  0  0  0  0  0
    3.3300   69.3100   66.4820 C   0  0  0  0  0  0  0  0  0  0  0  0
    4.2340   70.5290   68.4790 C   0  0  0  0  0  0  0  0  0  0  0  0
    5.3180   71.0610   69.1760 C   0  0  0  0  0  0  0  0  0  0  0  0
    6.5880   70.9470   68.6340 C   0  0  0  0  0  0  0  0  0  0  0  0
    6.7710   70.3250   67.4030 C   0  0  0  0  0  0  0  0  0  0  0  0
    7.9410   71.6010   69.4700 Cl  0  0  0  0  0  0  0  0  0  0  0  0
    3.3990   63.9260   70.7470 C   0  0  0  0  0  0  0  0  0  0  0  0
    4.4230   63.0790   69.9870 C   0  0  0  0  0  0  0  0  0  0  0  0
    4.8900   61.8110   70.7020 C   0  0  0  0  0  0  0  0  0  0  0  0
    3.8650   61.1740   71.5020 N   0  0  0  0  0  0  0  0  0  0  0  0
    3.5520   59.8410   71.3620 C   0  0  0  0  0  0  0  0  0  0  0  0
    4.1380   59.0740   70.6090 O   0  0  0  0  0  0  0  0  0  0  0  0
    2.4270   59.3450   72.1960 C   0  0  0  0  0  0  0  0  0  0  0  0
    1.3960   60.2000   72.5980 C   0  0  0  0  0  0  0  0  0  0  0  0
    0.3110   59.6880   73.3050 C   0  0  0  0  0  0  0  0  0  0  0  0
    0.2380   58.3240   73.6220 C   0  0  0  0  0  0  0  0  0  0  0  0
    1.2750   57.4780   73.2330 C   0  0  0  0  0  0  0  0  0  0  0  0
    2.3680   57.9840   72.5130 C   0  0  0  0  0  0  0  0  0  0  0  0
    1.2250   56.0390   73.5590 C   0  0  0  0  0  0  0  0  0  0  0  0
    2.1580   55.3050   73.2580 O   0  0  0  0  0  0  0  0  0  0  0  0
    0.0380   55.4940   74.2480 C   0  0  0  0  0  0  0  0  0  0  0  0
   -1.0120   56.3330   74.6220 C   0  0  0  0  0  0  0  0  0  0  0  0
   -0.9360   57.7750   74.3260 C   0  0  0  0  0  0  0  0  0  0  0  0
   -1.8610   58.5250   74.6420 O   0  0  0  0  0  0  0  0  0  0  0  0
   -2.1270   55.7880   75.2720 C   0  0  0  0  0  0  0  0  0  0  0  0
   -2.1870   54.4230   75.5530 C   0  0  0  0  0  0  0  0  0  0  0  0
   -1.1330   53.5890   75.1820 C   0  0  0  0  0  0  0  0  0  0  0  0
   -0.0220   54.1220   74.5290 C   0  0  0  0  0  0  0  0  0  0  0  0
   -0.6650   60.5880   73.6400 O   0  0  0  0  0  0  0  0  0  0  0  0
   -3.2070   56.5330   75.6610 O   0  0  0  0  0  0  0  0  0  0  0  0
    1.5423   62.8727   70.5061 H   0  0  0  0  0  0  0  0  0  0  0  0
    2.0520   63.9145   69.0956 H   0  0  0  0  0  0  0  0  0  0  0  0
    0.0202   64.6385   70.5215 H   0  0  0  0  0  0  0  0  0  0  0  0
    1.3298   65.1417   71.7196 H   0  0  0  0  0  0  0  0  0  0  0  0
    1.3723   67.0872   70.7237 H   0  0  0  0  0  0  0  0  0  0  0  0
    2.1122   66.2075   69.2990 H   0  0  0  0  0  0  0  0  0  0  0  0
   -0.4893   65.7981   68.7633 H   0  0  0  0  0  0  0  0  0  0  0  0
   -0.6147   67.3685   69.6369 H   0  0  0  0  0  0  0  0  0  0  0  0
    0.6961   66.7051   67.0190 H   0  0  0  0  0  0  0  0  0  0  0  0
   -0.2057   68.1964   67.5714 H   0  0  0  0  0  0  0  0  0  0  0  0
    1.8854   68.6054   69.0544 H   0  0  0  0  0  0  0  0  0  0  0  0
    2.6996   67.4744   67.9019 H   0  0  0  0  0  0  0  0  0  0  0  0
    1.2787   69.9452   66.8268 H   0  0  0  0  0  0  0  0  0  0  0  0
    3.2643   64.1956   65.6568 H   0  0  0  0  0  0  0  0  0  0  0  0
    2.3498   63.7342   64.1812 H   0  0  0  0  0  0  0  0  0  0  0  0
    4.1450   63.6724   64.1812 H   0  0  0  0  0  0  0  0  0  0  0  0
    4.9106   65.3317   62.7431 H   0  0  0  0  0  0  0  0  0  0  0  0
    4.4691   67.4463   61.5837 H   0  0  0  0  0  0  0  0  0  0  0  0
    2.9756   69.2380   62.5701 H   0  0  0  0  0  0  0  0  0  0  0  0
    2.1196   67.7038   62.2467 H   0  0  0  0  0  0  0  0  0  0  0  0
    1.5899   68.6249   64.5407 H   0  0  0  0  0  0  0  0  0  0  0  0
    2.4015   66.4910   65.8086 H   0  0  0  0  0  0  0  0  0  0  0  0
    1.3312   66.3099   64.3263 H   0  0  0  0  0  0  0  0  0  0  0  0
    5.5835   69.1537   62.7806 H   0  0  0  0  0  0  0  0  0  0  0  0
    6.1752   67.5902   63.5341 H   0  0  0  0  0  0  0  0  0  0  0  0
    3.2243   70.6200   68.9058 H   0  0  0  0  0  0  0  0  0  0  0  0
    5.1671   71.5641   70.1425 H   0  0  0  0  0  0  0  0  0  0  0  0
    7.7851   70.2443   66.9845 H   0  0  0  0  0  0  0  0  0  0  0  0
    3.7189   64.9775   70.7029 H   0  0  0  0  0  0  0  0  0  0  0  0
    3.3642   63.5366   71.7752 H   0  0  0  0  0  0  0  0  0  0  0  0
    3.9719   62.7811   69.0290 H   0  0  0  0  0  0  0  0  0  0  0  0
    5.3168   63.7111   69.8793 H   0  0  0  0  0  0  0  0  0  0  0  0
    5.2327   61.0923   69.9430 H   0  0  0  0  0  0  0  0  0  0  0  0
    5.6912   62.1122   71.3929 H   0  0  0  0  0  0  0  0  0  0  0  0
    3.3540   61.7360   72.1977 H   0  0  0  0  0  0  0  0  0  0  0  0
    1.4419   61.2723   72.3568 H   0  0  0  0  0  0  0  0  0  0  0  0
    3.1784   57.3103   72.1979 H   0  0  0  0  0  0  0  0  0  0  0  0
   -3.0651   54.0049   76.0669 H   0  0  0  0  0  0  0  0  0  0  0  0
   -1.1777   52.5126   75.4040 H   0  0  0  0  0  0  0  0  0  0  0  0
    0.8089   53.4644   74.2338 H   0  0  0  0  0  0  0  0  0  0  0  0
   -1.4632   60.2882   74.1431 H   0  0  0  0  0  0  0  0  0  0  0  0
   -3.9700   56.0977   76.1176 H   0  0  0  0  0  0  0  0  0  0  0  0
  2  1  1  0
  3  2  1  0
  4  3  1  0
  5  4  1  0
  6  5  1  0
  7  6  1  0
  9  8  1  0
 10  9  2  0
 11 10  1  0
 12 11  1  0
 13 12  1  0
 14 13  1  0
 14  9  1  0
 15 13  1  0
 16 15  2  0
 17 16  1  0
 17 11  1  0
 18 16  1  0
 19 18  2  0
 20 19  1  0
 21 15  1  0
 21 20  2  0
 21  7  1  0
 22 20  1  0
 23 22  2  0
 24 23  1  0
 25 19  1  0
 25 24  2  0
 26 24  1  0
 27  1  1  0
 28 27  1  0
 29 28  1  0
 30 29  1  0
 31 30  1  0
 32 31  2  0
 33 31  1  0
 34 33  2  0
 35 34  1  0
 36 35  2  0
 37 36  1  0
 38 33  1  0
 38 37  2  0
 39 37  1  0
 40 39  2  0
 41 39  1  0
 42 41  2  0
 43 42  1  0
 43 36  1  0
 44 43  2  0
 45 42  1  0
 46 45  2  0
 47 46  1  0
 48 47  2  0
 48 41  1  0
 49 35  1  0
 50 45  1  0
  1 51  1  0
  1 52  1  0
  2 53  1  0
  2 54  1  0
  3 55  1  0
  3 56  1  0
  4 57  1  0
  4 58  1  0
  5 59  1  0
  5 60  1  0
  6 61  1  0
  6 62  1  0
  7 63  1  0
  8 64  1  0
  8 65  1  0
  8 66  1  0
 10 67  1  0
 11 68  1  6
 12 69  1  0
 12 70  1  0
 13 71  1  6
 14 72  1  0
 14 73  1  0
 17 74  1  0
 17 75  1  0
 22 76  1  0
 23 77  1  0
 25 78  1  0
 27 79  1  0
 27 80  1  0
 28 81  1  0
 28 82  1  0
 29 83  1  0
 29 84  1  0
 30 85  1  0
 34 86  1  0
 38 87  1  0
 46 88  1  0
 47 89  1  0
 48 90  1  0
 49 91  1  0
 50 92  1  0
M  END
>  <score>  (2) 
-13.655

$$$$
=
     RDKit          3D

 92 98  0  0  0  0  0  0  0  0999 V2000
    0.6930   63.8620   71.0470 C   0  0  0  0  0  0  0  0  0  0  0  0
    0.1440   65.2860   71.1810 C   0  0  0  0  0  0  0  0  0  0  0  0
    0.0070   66.0720   69.8760 C   0  0  0  0  0  0  0  0  0  0  0  0
    1.1420   67.0700   69.6260 C   0  0  0  0  0  0  0  0  0  0  0  0
    0.8110   67.9580   68.4240 C   0  0  0  0  0  0  0  0  0  0  0  0
    1.8350   67.8650   67.2930 C   0  0  0  0  0  0  0  0  0  0  0  0
    2.1290   69.1950   66.7340 N   0  0  0  0  0  0  0  0  0  0  0  0
    3.6340   64.2900   64.0650 C   0  0  0  0  0  0  0  0  0  0  0  0
    3.6620   65.7330   63.6570 C   0  0  0  0  0  0  0  0  0  0  0  0
    4.5720   66.2190   62.7950 C   0  0  0  0  0  0  0  0  0  0  0  0
    4.5980   67.6670   62.3650 C   0  0  1  0  0  0  0  0  0  0  0  0
    3.2250   68.3190   62.5360 C   0  0  0  0  0  0  0  0  0  0  0  0
    2.7910   68.1390   63.9970 C   0  0  1  0  0  0  0  0  0  0  0  0
    2.6130   66.6280   64.2850 C   0  0  0  0  0  0  0  0  0  0  0  0
    3.8000   68.7810   64.9450 C   0  0  0  0  0  0  0  0  0  0  0  0
    5.1470   68.8630   64.5610 C   0  0  0  0  0  0  0  0  0  0  0  0
    5.6260   68.4560   63.1840 C   0  0  0  0  0  0  0  0  0  0  0  0
    6.1160   69.3770   65.3540 N   0  0  0  0  0  0  0  0  0  0  0  0
    5.7970   69.8400   66.5650 C   0  0  0  0  0  0  0  0  0  0  0  0
    4.4750   69.8490   67.0470 C   0  0  0  0  0  0  0  0  0  0  0  0
    3.4570   69.2910   66.2180 C   0  0  0  0  0  0  0  0  0  0  0  0
    4.2290   70.4400   68.3090 C   0  0  0  0  0  0  0  0  0  0  0  0
    5.2630   70.9690   69.0800 C   0  0  0  0  0  0  0  0  0  0  0  0
    6.5600   70.9150   68.5950 C   0  0  0  0  0  0  0  0  0  0  0  0
    6.8180   70.3560   67.3480 C   0  0  0  0  0  0  0  0  0  0  0  0
    7.8520   71.5670   69.5250 Cl  0  0  0  0  0  0  0  0  0  0  0  0
    2.0870   63.6900   71.6510 C   0  0  0  0  0  0  0  0  0  0  0  0
    3.2290   63.9910   70.6770 C   0  0  0  0  0  0  0  0  0  0  0  0
    4.4010   63.0100   70.7120 C   0  0  0  0  0  0  0  0  0  0  0  0
    4.0440   61.6800   71.1580 N   0  0  0  0  0  0  0  0  0  0  0  0
    3.3450   60.8040   70.3590 C   0  0  0  0  0  0  0  0  0  0  0  0
    3.0190   61.0400   69.2030 O   0  0  0  0  0  0  0  0  0  0  0  0
    2.9830   59.5040   70.9800 C   0  0  0  0  0  0  0  0  0  0  0  0
    3.4890   58.3000   70.4800 C   0  0  0  0  0  0  0  0  0  0  0  0
    3.2000   57.1050   71.1340 C   0  0  0  0  0  0  0  0  0  0  0  0
    2.4070   57.0910   72.2900 C   0  0  0  0  0  0  0  0  0  0  0  0
    1.8910   58.2920   72.7770 C   0  0  0  0  0  0  0  0  0  0  0  0
    2.1830   59.5010   72.1280 C   0  0  0  0  0  0  0  0  0  0  0  0
    1.0480   58.3040   73.9880 C   0  0  0  0  0  0  0  0  0  0  0  0
    0.5570   59.3530   74.3880 O   0  0  0  0  0  0  0  0  0  0  0  0
    0.8050   57.0410   74.7140 C   0  0  0  0  0  0  0  0  0  0  0  0
    1.3360   55.8400   74.2430 C   0  0  0  0  0  0  0  0  0  0  0  0
    2.1460   55.8310   73.0110 C   0  0  0  0  0  0  0  0  0  0  0  0
    2.6270   54.7790   72.5900 O   0  0  0  0  0  0  0  0  0  0  0  0
    1.0920   54.6570   74.9540 C   0  0  0  0  0  0  0  0  0  0  0  0
    0.3210   54.6740   76.1150 C   0  0  0  0  0  0  0  0  0  0  0  0
   -0.2120   55.8760   76.5800 C   0  0  0  0  0  0  0  0  0  0  0  0
    0.0310   57.0590   75.8830 C   0  0  0  0  0  0  0  0  0  0  0  0
    3.7540   55.9760   70.5930 O   0  0  0  0  0  0  0  0  0  0  0  0
    1.5840   53.4380   74.5730 O   0  0  0  0  0  0  0  0  0  0  0  0
    0.0041   63.1731   71.5578 H   0  0  0  0  0  0  0  0  0  0  0  0
    0.7757   63.6454   69.9717 H   0  0  0  0  0  0  0  0  0  0  0  0
   -0.8525   65.2215   71.6424 H   0  0  0  0  0  0  0  0  0  0  0  0
    0.8817   65.8351   71.7845 H   0  0  0  0  0  0  0  0  0  0  0  0
   -0.0134   65.3556   69.0415 H   0  0  0  0  0  0  0  0  0  0  0  0
   -0.9202   66.6586   69.9544 H   0  0  0  0  0  0  0  0  0  0  0  0
    1.2744   67.7003   70.5177 H   0  0  0  0  0  0  0  0  0  0  0  0
    2.0683   66.5147   69.4173 H   0  0  0  0  0  0  0  0  0  0  0  0
   -0.1708   67.6573   68.0296 H   0  0  0  0  0  0  0  0  0  0  0  0
    0.8183   68.9986   68.7805 H   0  0  0  0  0  0  0  0  0  0  0  0
    2.7645   67.4265   67.6850 H   0  0  0  0  0  0  0  0  0  0  0  0
    1.4172   67.2346   66.4942 H   0  0  0  0  0  0  0  0  0  0  0  0
    1.4515   69.9706   66.7170 H   0  0  0  0  0  0  0  0  0  0  0  0
    3.6326   64.2193   65.1627 H   0  0  0  0  0  0  0  0  0  0  0  0
    2.7264   63.8136   63.6658 H   0  0  0  0  0  0  0  0  0  0  0  0
    4.5224   63.7788   63.6658 H   0  0  0  0  0  0  0  0  0  0  0  0
    5.3291   65.5339   62.3858 H   0  0  0  0  0  0  0  0  0  0  0  0
    4.8772   67.6870   61.3012 H   0  0  0  0  0  0  0  0  0  0  0  0
    3.2883   69.3904   62.2950 H   0  0  0  0  0  0  0  0  0  0  0  0
    2.4938   67.8509   61.8606 H   0  0  0  0  0  0  0  0  0  0  0  0
    1.8297   68.6467   64.1649 H   0  0  0  0  0  0  0  0  0  0  0  0
    2.6460   66.4812   65.3747 H   0  0  0  0  0  0  0  0  0  0  0  0
    1.6510   66.3388   63.8367 H   0  0  0  0  0  0  0  0  0  0  0  0
    5.8842   69.3680   62.6258 H   0  0  0  0  0  0  0  0  0  0  0  0
    6.4871   67.7884   63.3351 H   0  0  0  0  0  0  0  0  0  0  0  0
    3.1981   70.4830   68.6904 H   0  0  0  0  0  0  0  0  0  0  0  0
    5.0523   71.4229   70.0596 H   0  0  0  0  0  0  0  0  0  0  0  0
    7.8525   70.3226   66.9757 H   0  0  0  0  0  0  0  0  0  0  0  0
    2.1776   64.3698   72.5110 H   0  0  0  0  0  0  0  0  0  0  0  0
    2.1821   62.6318   71.9357 H   0  0  0  0  0  0  0  0  0  0  0  0
    2.8148   63.9876   69.6580 H   0  0  0  0  0  0  0  0  0  0  0  0
    3.6403   64.9633   70.9858 H   0  0  0  0  0  0  0  0  0  0  0  0
    4.8184   62.9338   69.6971 H   0  0  0  0  0  0  0  0  0  0  0  0
    5.1247   63.4055   71.4398 H   0  0  0  0  0  0  0  0  0  0  0  0
    4.3219   61.3796   72.1032 H   0  0  0  0  0  0  0  0  0  0  0  0
    4.1127   58.2969   69.5739 H   0  0  0  0  0  0  0  0  0  0  0  0
    1.7829   60.4470   72.5218 H   0  0  0  0  0  0  0  0  0  0  0  0
    0.1330   53.7397   76.6643 H   0  0  0  0  0  0  0  0  0  0  0  0
   -0.8228   55.8908   77.4947 H   0  0  0  0  0  0  0  0  0  0  0  0
   -0.3854   58.0083   76.2510 H   0  0  0  0  0  0  0  0  0  0  0  0
    3.5873   55.0939   71.0104 H   0  0  0  0  0  0  0  0  0  0  0  0
    1.3816   52.6323   75.1115 H   0  0  0  0  0  0  0  0  0  0  0  0
  2  1  1  0
  3  2  1  0
  4  3  1  0
  5  4  1  0
  6  5  1  0
  7  6  1  0
  9  8  1  0
 10  9  2  0
 11 10  1  0
 12 11  1  0
 13 12  1  0
 14 13  1  0
 14  9  1  0
 15 13  1  0
 16 15  2  0
 17 16  1  0
 17 11  1  0
 18 16  1  0
 19 18  2  0
 20 19  1  0
 21 15  1  0
 21 20  2  0
 21  7  1  0
 22 20  1  0
 23 22  2  0
 24 23  1  0
 25 19  1  0
 25 24  2  0
 26 24  1  0
 27  1  1  0
 28 27  1  0
 29 28  1  0
 30 29  1  0
 31 30  1  0
 32 31  2  0
 33 31  1  0
 34 33  2  0
 35 34  1  0
 36 35  2  0
 37 36  1  0
 38 33  1  0
 38 37  2  0
 39 37  1  0
 40 39  2  0
 41 39  1  0
 42 41  2  0
 43 42  1  0
 43 36  1  0
 44 43  2  0
 45 42  1  0
 46 45  2  0
 47 46  1  0
 48 47  2  0
 48 41  1  0
 49 35  1  0
 50 45  1  0
  1 51  1  0
  1 52  1  0
  2 53  1  0
  2 54  1  0
  3 55  1  0
  3 56  1  0
  4 57  1  0
  4 58  1  0
  5 59  1  0
  5 60  1  0
  6 61  1  0
  6 62  1  0
  7 63  1  0
  8 64  1  0
  8 65  1  0
  8 66  1  0
 10 67  1  0
 11 68  1  6
 12 69  1  0
 12 70  1  0
 13 71  1  6
 14 72  1  0
 14 73  1  0
 17 74  1  0
 17 75  1  0
 22 76  1  0
 23 77  1  0
 25 78  1  0
 27 79  1  0
 27 80  1  0
 28 81  1  0
 28 82  1  0
 29 83  1  0
 29 84  1  0
 30 85  1  0
 34 86  1  0
 38 87  1  0
 46 88  1  0
 47 89  1  0
 48 90  1  0
 49 91  1  0
 50 92  1  0
M  END
>  <score>  (3) 
-12.983

$$$$
=
     RDKit          3D

 92 98  0  0  0  0  0  0  0  0999 V2000
    1.8740   62.6630   70.4080 C   0  0  0  0  0  0  0  0  0  0  0  0
    3.2780   62.0620   70.5320 C   0  0  0  0  0  0  0  0  0  0  0  0
    3.7360   61.1920   69.3600 C   0  0  0  0  0  0  0  0  0  0  0  0
    3.5240   59.6900   69.5770 C   0  0  0  0  0  0  0  0  0  0  0  0
    3.7630   59.3300   71.0460 C   0  0  0  0  0  0  0  0  0  0  0  0
    2.9640   58.1150   71.5170 C   0  0  0  0  0  0  0  0  0  0  0  0
    2.8330   58.1030   72.9840 N   0  0  0  0  0  0  0  0  0  0  0  0
    1.1220   62.2830   76.5960 C   0  0  0  0  0  0  0  0  0  0  0  0
    0.5340   61.7000   75.3460 C   0  0  0  0  0  0  0  0  0  0  0  0
   -0.7930   61.6510   75.1290 C   0  0  0  0  0  0  0  0  0  0  0  0
   -1.3940   61.0820   73.8650 C   0  0  1  0  0  0  0  0  0  0  0  0
   -0.3920   61.1220   72.7110 C   0  0  0  0  0  0  0  0  0  0  0  0
    0.8760   60.3800   73.1540 C   0  0  1  0  0  0  0  0  0  0  0  0
    1.5190   61.1470   74.3360 C   0  0  0  0  0  0  0  0  0  0  0  0
    0.5570   58.9350   73.5230 C   0  0  0  0  0  0  0  0  0  0  0  0
   -0.7160   58.6180   74.0190 C   0  0  0  0  0  0  0  0  0  0  0  0
   -1.8390   59.6320   74.0850 C   0  0  0  0  0  0  0  0  0  0  0  0
   -1.0730   57.3720   74.4120 N   0  0  0  0  0  0  0  0  0  0  0  0
   -0.1860   56.3780   74.3270 C   0  0  0  0  0  0  0  0  0  0  0  0
    1.1090   56.5620   73.8080 C   0  0  0  0  0  0  0  0  0  0  0  0
    1.4900   57.8790   73.4120 C   0  0  0  0  0  0  0  0  0  0  0  0
    1.9440   55.4260   73.6800 C   0  0  0  0  0  0  0  0  0  0  0  0
    1.5220   54.1620   74.0860 C   0  0  0  0  0  0  0  0  0  0  0  0
    0.2530   54.0160   74.6250 C   0  0  0  0  0  0  0  0  0  0  0  0
   -0.5890   55.1170   74.7400 C   0  0  0  0  0  0  0  0  0  0  0  0
   -0.2940   52.4650   75.1270 Cl  0  0  0  0  0  0  0  0  0  0  0  0
    1.7450   64.0430   71.0550 C   0  0  0  0  0  0  0  0  0  0  0  0
    0.3560   64.3340   71.6310 C   0  0  0  0  0  0  0  0  0  0  0  0
   -0.1940   65.7310   71.3480 C   0  0  0  0  0  0  0  0  0  0  0  0
    0.6080   66.5050   70.4240 N   0  0  0  0  0  0  0  0  0  0  0  0
    0.1410   66.8780   69.1840 C   0  0  0  0  0  0  0  0  0  0  0  0
   -0.9910   66.6470   68.7800 O   0  0  0  0  0  0  0  0  0  0  0  0
    1.1040   67.6030   68.3160 C   0  0  0  0  0  0  0  0  0  0  0  0
    1.9350   68.6000   68.8350 C   0  0  0  0  0  0  0  0  0  0  0  0
    2.8870   69.2020   68.0160 C   0  0  0  0  0  0  0  0  0  0  0  0
    3.0250   68.8210   66.6740 C   0  0  0  0  0  0  0  0  0  0  0  0
    2.1840   67.8370   66.1550 C   0  0  0  0  0  0  0  0  0  0  0  0
    1.2270   67.2210   66.9750 C   0  0  0  0  0  0  0  0  0  0  0  0
    2.3040   67.4230   64.7440 C   0  0  0  0  0  0  0  0  0  0  0  0
    1.5340   66.5920   64.2770 O   0  0  0  0  0  0  0  0  0  0  0  0
    3.3620   68.0170   63.9020 C   0  0  0  0  0  0  0  0  0  0  0  0
    4.2190   68.9870   64.4210 C   0  0  0  0  0  0  0  0  0  0  0  0
    4.0680   69.4230   65.8220 C   0  0  0  0  0  0  0  0  0  0  0  0
    4.8240   70.2710   66.2950 O   0  0  0  0  0  0  0  0  0  0  0  0
    5.2160   69.5310   63.6010 C   0  0  0  0  0  0  0  0  0  0  0  0
    5.3490   69.1170   62.2760 C   0  0  0  0  0  0  0  0  0  0  0  0
    4.4870   68.1510   61.7600 C   0  0  0  0  0  0  0  0  0  0  0  0
    3.4950   67.5990   62.5700 C   0  0  0  0  0  0  0  0  0  0  0  0
    3.6750   70.1510   68.6090 O   0  0  0  0  0  0  0  0  0  0  0  0
    6.1090   70.4760   64.0310 O   0  0  0  0  0  0  0  0  0  0  0  0
    1.6267   62.7540   69.3400 H   0  0  0  0  0  0  0  0  0  0  0  0
    1.1844   61.9898   70.9384 H   0  0  0  0  0  0  0  0  0  0  0  0
    3.9924   62.8920   70.6355 H   0  0  0  0  0  0  0  0  0  0  0  0
    3.2403   61.3925   71.4040 H   0  0  0  0  0  0  0  0  0  0  0  0
    3.1736   61.4946   68.4644 H   0  0  0  0  0  0  0  0  0  0  0  0
    4.8197   61.3477   69.2532 H   0  0  0  0  0  0  0  0  0  0  0  0
    2.4928   59.4248   69.3009 H   0  0  0  0  0  0  0  0  0  0  0  0
    4.2354   59.1324   68.9501 H   0  0  0  0  0  0  0  0  0  0  0  0
    4.8334   59.1160   71.1817 H   0  0  0  0  0  0  0  0  0  0  0  0
    3.4281   60.1885   71.6467 H   0  0  0  0  0  0  0  0  0  0  0  0
    1.9608   58.1482   71.0670 H   0  0  0  0  0  0  0  0  0  0  0  0
    3.4971   57.2043   71.2063 H   0  0  0  0  0  0  0  0  0  0  0  0
    3.6234   58.2410   73.6298 H   0  0  0  0  0  0  0  0  0  0  0  0
    0.6518   61.8168   77.4744 H   0  0  0  0  0  0  0  0  0  0  0  0
    2.2051   62.0922   76.6153 H   0  0  0  0  0  0  0  0  0  0  0  0
    0.9404   63.3677   76.6153 H   0  0  0  0  0  0  0  0  0  0  0  0
   -1.4686   62.0415   75.9043 H   0  0  0  0  0  0  0  0  0  0  0  0
   -2.2651   61.7024   73.6077 H   0  0  0  0  0  0  0  0  0  0  0  0
   -0.8223   60.6295   71.8265 H   0  0  0  0  0  0  0  0  0  0  0  0
   -0.1524   62.1635   72.4505 H   0  0  0  0  0  0  0  0  0  0  0  0
    1.5957   60.3437   72.3229 H   0  0  0  0  0  0  0  0  0  0  0  0
    2.1979   60.4592   74.8614 H   0  0  0  0  0  0  0  0  0  0  0  0
    2.0337   62.0150   73.8983 H   0  0  0  0  0  0  0  0  0  0  0  0
   -2.5786   59.3776   73.3115 H   0  0  0  0  0  0  0  0  0  0  0  0
   -2.2504   59.5802   75.1039 H   0  0  0  0  0  0  0  0  0  0  0  0
    2.9495   55.5442   73.2499 H   0  0  0  0  0  0  0  0  0  0  0  0
    2.1864   53.2917   73.9804 H   0  0  0  0  0  0  0  0  0  0  0  0
   -1.5942   54.9850   75.1669 H   0  0  0  0  0  0  0  0  0  0  0  0
    2.4793   64.1123   71.8711 H   0  0  0  0  0  0  0  0  0  0  0  0
    1.9220   64.7841   70.2616 H   0  0  0  0  0  0  0  0  0  0  0  0
   -0.3467   63.6010   71.2079 H   0  0  0  0  0  0  0  0  0  0  0  0
    0.4622   64.2669   72.7238 H   0  0  0  0  0  0  0  0  0  0  0  0
   -1.2039   65.6257   70.9248 H   0  0  0  0  0  0  0  0  0  0  0  0
   -0.1893   66.2740   72.3046 H   0  0  0  0  0  0  0  0  0  0  0  0
    1.5588   66.7856   70.7035 H   0  0  0  0  0  0  0  0  0  0  0  0
    1.8373   68.9080   69.8865 H   0  0  0  0  0  0  0  0  0  0  0  0
    0.5731   66.4377   66.5641 H   0  0  0  0  0  0  0  0  0  0  0  0
    6.1331   69.5522   61.6390 H   0  0  0  0  0  0  0  0  0  0  0  0
    4.5890   67.8242   60.7146 H   0  0  0  0  0  0  0  0  0  0  0  0
    2.8161   66.8348   62.1636 H   0  0  0  0  0  0  0  0  0  0  0  0
    4.3713   70.6165   68.0812 H   0  0  0  0  0  0  0  0  0  0  0  0
    6.7949   70.8278   63.4098 H   0  0  0  0  0  0  0  0  0  0  0  0
  2  1  1  0
  3  2  1  0
  4  3  1  0
  5  4  1  0
  6  5  1  0
  7  6  1  0
  9  8  1  0
 10  9  2  0
 11 10  1  0
 12 11  1  0
 13 12  1  0
 14 13  1  0
 14  9  1  0
 15 13  1  0
 16 15  2  0
 17 16  1  0
 17 11  1  0
 18 16  1  0
 19 18  2  0
 20 19  1  0
 21 15  1  0
 21 20  2  0
 21  7  1  0
 22 20  1  0
 23 22  2  0
 24 23  1  0
 25 19  1  0
 25 24  2  0
 26 24  1  0
 27  1  1  0
 28 27  1  0
 29 28  1  0
 30 29  1  0
 31 30  1  0
 32 31  2  0
 33 31  1  0
 34 33  2  0
 35 34  1  0
 36 35  2  0
 37 36  1  0
 38 33  1  0
 38 37  2  0
 39 37  1  0
 40 39  2  0
 41 39  1  0
 42 41  2  0
 43 42  1  0
 43 36  1  0
 44 43  2  0
 45 42  1  0
 46 45  2  0
 47 46  1  0
 48 47  2  0
 48 41  1  0
 49 35  1  0
 50 45  1  0
  1 51  1  0
  1 52  1  0
  2 53  1  0
  2 54  1  0
  3 55  1  0
  3 56  1  0
  4 57  1  0
  4 58  1  0
  5 59  1  0
  5 60  1  0
  6 61  1  0
  6 62  1  0
  7 63  1  0
  8 64  1  0
  8 65  1  0
  8 66  1  0
 10 67  1  0
 11 68  1  6
 12 69  1  0
 12 70  1  0
 13 71  1  6
 14 72  1  0
 14 73  1  0
 17 74  1  0
 17 75  1  0
 22 76  1  0
 23 77  1  0
 25 78  1  0
 27 79  1  0
 27 80  1  0
 28 81  1  0
 28 82  1  0
 29 83  1  0
 29 84  1  0
 30 85  1  0
 34 86  1  0
 38 87  1  0
 46 88  1  0
 47 89  1  0
 48 90  1  0
 49 91  1  0
 50 92  1  0
M  END
>  <score>  (4) 
-12.176

$$$$
=
     RDKit          3D

 92 98  0  0  0  0  0  0  0  0999 V2000
    1.2860   65.7070   70.2260 C   0  0  0  0  0  0  0  0  0  0  0  0
    0.9650   66.8190   69.2220 C   0  0  0  0  0  0  0  0  0  0  0  0
   -0.4400   66.7860   68.6170 C   0  0  0  0  0  0  0  0  0  0  0  0
   -0.7610   67.9840   67.7180 C   0  0  0  0  0  0  0  0  0  0  0  0
    0.0350   67.8950   66.4130 C   0  0  0  0  0  0  0  0  0  0  0  0
    1.0540   69.0220   66.2380 C   0  0  0  0  0  0  0  0  0  0  0  0
    2.2500   68.7880   67.0630 N   0  0  0  0  0  0  0  0  0  0  0  0
    4.0840   64.6000   63.5210 C   0  0  0  0  0  0  0  0  0  0  0  0
    3.8260   66.0660   63.3340 C   0  0  0  0  0  0  0  0  0  0  0  0
    4.5100   66.8090   62.4460 C   0  0  0  0  0  0  0  0  0  0  0  0
    4.2450   68.2820   62.2380 C   0  0  1  0  0  0  0  0  0  0  0  0
    2.8290   68.6560   62.6770 C   0  0  0  0  0  0  0  0  0  0  0  0
    2.6520   68.2200   64.1380 C   0  0  1  0  0  0  0  0  0  0  0  0
    2.7570   66.6760   64.2160 C   0  0  0  0  0  0  0  0  0  0  0  0
    3.6780   68.9030   65.0360 C   0  0  0  0  0  0  0  0  0  0  0  0
    4.9230   69.2680   64.5020 C   0  0  0  0  0  0  0  0  0  0  0  0
    5.2490   69.1280   63.0300 C   0  0  0  0  0  0  0  0  0  0  0  0
    5.9090   69.8390   65.2340 N   0  0  0  0  0  0  0  0  0  0  0  0
    5.7060   70.0810   66.5310 C   0  0  0  0  0  0  0  0  0  0  0  0
    4.4860   69.7970   67.1720 C   0  0  0  0  0  0  0  0  0  0  0  0
    3.4540   69.1790   66.4040 C   0  0  0  0  0  0  0  0  0  0  0  0
    4.3430   70.1710   68.5290 C   0  0  0  0  0  0  0  0  0  0  0  0
    5.3850   70.7710   69.2340 C   0  0  0  0  0  0  0  0  0  0  0  0
    6.5870   71.0070   68.5860 C   0  0  0  0  0  0  0  0  0  0  0  0
    6.7400   70.6650   67.2470 C   0  0  0  0  0  0  0  0  0  0  0  0
    7.8870   71.7520   69.4320 Cl  0  0  0  0  0  0  0  0  0  0  0  0
    0.0570   64.9020   70.6530 C   0  0  0  0  0  0  0  0  0  0  0  0
    0.1530   64.3210   72.0660 C   0  0  0  0  0  0  0  0  0  0  0  0
    1.4870   63.6630   72.4170 C   0  0  0  0  0  0  0  0  0  0  0  0
    1.4360   62.2170   72.4720 N   0  0  0  0  0  0  0  0  0  0  0  0
    0.4980   61.5470   73.2240 C   0  0  0  0  0  0  0  0  0  0  0  0
   -0.3950   62.0950   73.8550 O   0  0  0  0  0  0  0  0  0  0  0  0
    0.6170   60.0660   73.2430 C   0  0  0  0  0  0  0  0  0  0  0  0
    1.7410   59.4250   72.7130 C   0  0  0  0  0  0  0  0  0  0  0  0
    1.8630   58.0420   72.8220 C   0  0  0  0  0  0  0  0  0  0  0  0
    0.8730   57.2810   73.4590 C   0  0  0  0  0  0  0  0  0  0  0  0
   -0.2530   57.9210   73.9740 C   0  0  0  0  0  0  0  0  0  0  0  0
   -0.3820   59.3150   73.8730 C   0  0  0  0  0  0  0  0  0  0  0  0
   -1.3130   57.1420   74.6430 C   0  0  0  0  0  0  0  0  0  0  0  0
   -2.3240   57.7000   75.0520 O   0  0  0  0  0  0  0  0  0  0  0  0
   -1.1420   55.6860   74.8150 C   0  0  0  0  0  0  0  0  0  0  0  0
   -0.0070   55.0420   74.3210 C   0  0  0  0  0  0  0  0  0  0  0  0
    1.0290   55.8230   73.6200 C   0  0  0  0  0  0  0  0  0  0  0  0
    2.0390   55.2680   73.1870 O   0  0  0  0  0  0  0  0  0  0  0  0
    0.1310   53.6600   74.5010 C   0  0  0  0  0  0  0  0  0  0  0  0
   -0.8570   52.9290   75.1610 C   0  0  0  0  0  0  0  0  0  0  0  0
   -1.9910   53.5750   75.6490 C   0  0  0  0  0  0  0  0  0  0  0  0
   -2.1350   54.9520   75.4800 C   0  0  0  0  0  0  0  0  0  0  0  0
    3.0040   57.4970   72.2970 O   0  0  0  0  0  0  0  0  0  0  0  0
    1.2160   52.9500   74.0620 O   0  0  0  0  0  0  0  0  0  0  0  0
    2.0106   65.0195   69.7653 H   0  0  0  0  0  0  0  0  0  0  0  0
    1.6881   66.1901   71.1288 H   0  0  0  0  0  0  0  0  0  0  0  0
    1.0883   67.7836   69.7362 H   0  0  0  0  0  0  0  0  0  0  0  0
    1.6562   66.6689   68.3795 H   0  0  0  0  0  0  0  0  0  0  0  0
   -0.5369   65.8685   68.0179 H   0  0  0  0  0  0  0  0  0  0  0  0
   -1.1487   66.8207   69.4576 H   0  0  0  0  0  0  0  0  0  0  0  0
   -1.8366   67.9875   67.4878 H   0  0  0  0  0  0  0  0  0  0  0  0
   -0.4860   68.9105   68.2434 H   0  0  0  0  0  0  0  0  0  0  0  0
    0.5723   66.9353   66.3984 H   0  0  0  0  0  0  0  0  0  0  0  0
   -0.6876   67.9832   65.5883 H   0  0  0  0  0  0  0  0  0  0  0  0
    1.3520   69.0758   65.1805 H   0  0  0  0  0  0  0  0  0  0  0  0
    0.5887   69.9663   66.5573 H   0  0  0  0  0  0  0  0  0  0  0  0
    2.2213   68.3865   68.0111 H   0  0  0  0  0  0  0  0  0  0  0  0
    4.1247   64.3690   64.5957 H   0  0  0  0  0  0  0  0  0  0  0  0
    3.2737   64.0224   63.0522 H   0  0  0  0  0  0  0  0  0  0  0  0
    5.0428   64.3337   63.0522 H   0  0  0  0  0  0  0  0  0  0  0  0
    5.2947   66.3245   61.8464 H   0  0  0  0  0  0  0  0  0  0  0  0
    4.3546   68.4859   61.1626 H   0  0  0  0  0  0  0  0  0  0  0  0
    2.6875   69.7436   62.5927 H   0  0  0  0  0  0  0  0  0  0  0  0
    2.0870   68.1556   62.0374 H   0  0  0  0  0  0  0  0  0  0  0  0
    1.6597   68.5266   64.5005 H   0  0  0  0  0  0  0  0  0  0  0  0
    2.9751   66.4002   65.2583 H   0  0  0  0  0  0  0  0  0  0  0  0
    1.7958   66.2820   63.8544 H   0  0  0  0  0  0  0  0  0  0  0  0
    5.2770   70.1342   62.5863 H   0  0  0  0  0  0  0  0  0  0  0  0
    6.2158   68.6067   62.9701 H   0  0  0  0  0  0  0  0  0  0  0  0
    3.3869   69.9838   69.0397 H   0  0  0  0  0  0  0  0  0  0  0  0
    5.2551   71.0530   70.2893 H   0  0  0  0  0  0  0  0  0  0  0  0
    7.6995   70.8614   66.7462 H   0  0  0  0  0  0  0  0  0  0  0  0
   -0.8214   65.5628   70.6097 H   0  0  0  0  0  0  0  0  0  0  0  0
   -0.0200   64.0489   69.9628 H   0  0  0  0  0  0  0  0  0  0  0  0
   -0.0203   65.1386   72.7812 H   0  0  0  0  0  0  0  0  0  0  0  0
   -0.6008   63.5214   72.1159 H   0  0  0  0  0  0  0  0  0  0  0  0
    2.2265   63.9540   71.6565 H   0  0  0  0  0  0  0  0  0  0  0  0
    1.7563   64.0097   73.4256 H   0  0  0  0  0  0  0  0  0  0  0  0
    2.1233   61.6727   71.9314 H   0  0  0  0  0  0  0  0  0  0  0  0
    2.5257   60.0108   72.2120 H   0  0  0  0  0  0  0  0  0  0  0  0
   -1.2680   59.8171   74.2889 H   0  0  0  0  0  0  0  0  0  0  0  0
   -0.7409   51.8435   75.2960 H   0  0  0  0  0  0  0  0  0  0  0  0
   -2.7721   52.9994   76.1672 H   0  0  0  0  0  0  0  0  0  0  0  0
   -3.0283   55.4628   75.8687 H   0  0  0  0  0  0  0  0  0  0  0  0
    3.1517   56.5191   72.3422 H   0  0  0  0  0  0  0  0  0  0  0  0
    1.2634   51.9731   74.2155 H   0  0  0  0  0  0  0  0  0  0  0  0
  2  1  1  0
  3  2  1  0
  4  3  1  0
  5  4  1  0
  6  5  1  0
  7  6  1  0
  9  8  1  0
 10  9  2  0
 11 10  1  0
 12 11  1  0
 13 12  1  0
 14 13  1  0
 14  9  1  0
 15 13  1  0
 16 15  2  0
 17 16  1  0
 17 11  1  0
 18 16  1  0
 19 18  2  0
 20 19  1  0
 21 15  1  0
 21 20  2  0
 21  7  1  0
 22 20  1  0
 23 22  2  0
 24 23  1  0
 25 19  1  0
 25 24  2  0
 26 24  1  0
 27  1  1  0
 28 27  1  0
 29 28  1  0
 30 29  1  0
 31 30  1  0
 32 31  2  0
 33 31  1  0
 34 33  2  0
 35 34  1  0
 36 35  2  0
 37 36  1  0
 38 33  1  0
 38 37  2  0
 39 37  1  0
 40 39  2  0
 41 39  1  0
 42 41  2  0
 43 42  1  0
 43 36  1  0
 44 43  2  0
 45 42  1  0
 46 45  2  0
 47 46  1  0
 48 47  2  0
 48 41  1  0
 49 35  1  0
 50 45  1  0
  1 51  1  0
  1 52  1  0
  2 53  1  0
  2 54  1  0
  3 55  1  0
  3 56  1  0
  4 57  1  0
  4 58  1  0
  5 59  1  0
  5 60  1  0
  6 61  1  0
  6 62  1  0
  7 63  1  0
  8 64  1  0
  8 65  1  0
  8 66  1  0
 10 67  1  0
 11 68  1  6
 12 69  1  0
 12 70  1  0
 13 71  1  1
 14 72  1  0
 14 73  1  0
 17 74  1  0
 17 75  1  0
 22 76  1  0
 23 77  1  0
 25 78  1  0
 27 79  1  0
 27 80  1  0
 28 81  1  0
 28 82  1  0
 29 83  1  0
 29 84  1  0
 30 85  1  0
 34 86  1  0
 38 87  1  0
 46 88  1  0
 47 89  1  0
 48 90  1  0
 49 91  1  0
 50 92  1  0
M  END
>  <score>  (5) 
-11.869

$$$$
