=
     RDKit          3D

 55 56  0  0  0  0  0  0  0  0999 V2000
    6.5440   70.7500   68.2330 C   0  0  0  0  0  0  0  0  0  0  0  0
    5.1870   71.3990   68.5250 C   0  0  0  0  0  0  0  0  0  0  0  0
    4.2010   70.5600   69.3400 C   0  0  0  0  0  0  0  0  0  0  0  0
    2.7570   70.4940   68.8270 C   0  0  0  0  0  0  0  0  0  0  0  0
    2.2870   69.1060   68.3770 C   0  0  0  0  0  0  0  0  0  0  0  0
    1.5940   69.1010   67.0200 C   0  0  0  0  0  0  0  0  0  0  0  0
    0.2750   68.4320   67.1500 N   0  0  0  0  0  4  0  0  0  0  0  0
    0.1300   67.3940   68.0090 C   0  0  0  0  0  0  0  0  0  0  0  0
   -1.0970   66.7570   68.1500 C   0  0  0  0  0  0  0  0  0  0  0  0
   -2.1810   67.1920   67.3990 C   0  0  0  0  0  0  0  0  0  0  0  0
   -2.0180   68.2560   66.5220 C   0  0  0  0  0  0  0  0  0  0  0  0
   -0.7750   68.8660   66.4110 C   0  0  0  0  0  0  0  0  0  0  0  0
    6.6350   69.9490   66.9290 C   0  0  0  0  0  0  0  0  0  0  0  0
    5.3340   69.8150   66.1290 C   0  0  0  0  0  0  0  0  0  0  0  0
    5.4860   69.0010   64.8410 C   0  0  0  0  0  0  0  0  0  0  0  0
    4.4160   69.3860   63.8140 C   0  0  0  0  0  0  0  0  0  0  0  0
    4.2240   68.2970   62.7640 C   0  0  0  0  0  0  0  0  0  0  0  0
    3.8370   67.0300   63.4330 N   0  0  0  0  0  4  0  0  0  0  0  0
    4.6010   65.9230   63.2670 C   0  0  0  0  0  0  0  0  0  0  0  0
    4.2610   64.7280   63.8900 C   0  0  0  0  0  0  0  0  0  0  0  0
    3.1290   64.6750   64.6910 C   0  0  0  0  0  0  0  0  0  0  0  0
    2.3570   65.8180   64.8560 C   0  0  0  0  0  0  0  0  0  0  0  0
    2.7320   66.9920   64.2140 C   0  0  0  0  0  0  0  0  0  0  0  0
    7.2982   71.5496   68.1910 H   0  0  0  0  0  0  0  0  0  0  0  0
    6.7069   70.0225   69.0418 H   0  0  0  0  0  0  0  0  0  0  0  0
    5.3725   72.3313   69.0785 H   0  0  0  0  0  0  0  0  0  0  0  0
    4.7114   71.5434   67.5437 H   0  0  0  0  0  0  0  0  0  0  0  0
    4.5889   69.5312   69.3742 H   0  0  0  0  0  0  0  0  0  0  0  0
    4.1359   71.0620   70.3166 H   0  0  0  0  0  0  0  0  0  0  0  0
    2.0927   70.8326   69.6358 H   0  0  0  0  0  0  0  0  0  0  0  0
    2.7213   71.1332   67.9325 H   0  0  0  0  0  0  0  0  0  0  0  0
    3.1639   68.4443   68.3209 H   0  0  0  0  0  0  0  0  0  0  0  0
    1.5473   68.7634   69.1156 H   0  0  0  0  0  0  0  0  0  0  0  0
    1.4497   70.1359   66.6764 H   0  0  0  0  0  0  0  0  0  0  0  0
    2.2135   68.5597   66.2898 H   0  0  0  0  0  0  0  0  0  0  0  0
    0.9921   67.0522   68.6006 H   0  0  0  0  0  0  0  0  0  0  0  0
   -1.2085   65.9159   68.8501 H   0  0  0  0  0  0  0  0  0  0  0  0
   -3.1591   66.6985   67.4979 H   0  0  0  0  0  0  0  0  0  0  0  0
   -2.8665   68.6131   65.9199 H   0  0  0  0  0  0  0  0  0  0  0  0
   -0.6416   69.7090   65.7170 H   0  0  0  0  0  0  0  0  0  0  0  0
    7.3777   70.4406   66.2834 H   0  0  0  0  0  0  0  0  0  0  0  0
    6.9051   68.9256   67.2285 H   0  0  0  0  0  0  0  0  0  0  0  0
    4.5841   69.3221   66.7651 H   0  0  0  0  0  0  0  0  0  0  0  0
    5.0311   70.8306   65.8343 H   0  0  0  0  0  0  0  0  0  0  0  0
    6.4807   69.1910   64.4115 H   0  0  0  0  0  0  0  0  0  0  0  0
    5.3670   67.9352   65.0859 H   0  0  0  0  0  0  0  0  0  0  0  0
    3.4621   69.5489   64.3371 H   0  0  0  0  0  0  0  0  0  0  0  0
    4.7462   70.3017   63.3017 H   0  0  0  0  0  0  0  0  0  0  0  0
    3.4318   68.5987   62.0630 H   0  0  0  0  0  0  0  0  0  0  0  0
    5.1639   68.1489   62.2121 H   0  0  0  0  0  0  0  0  0  0  0  0
    5.4988   65.9707   62.6332 H   0  0  0  0  0  0  0  0  0  0  0  0
    4.8837   63.8322   63.7494 H   0  0  0  0  0  0  0  0  0  0  0  0
    2.8457   63.7368   65.1905 H   0  0  0  0  0  0  0  0  0  0  0  0
    1.4575   65.7940   65.4887 H   0  0  0  0  0  0  0  0  0  0  0  0
    2.1245   67.9001   64.3418 H   0  0  0  0  0  0  0  0  0  0  0  0
  2  1  1  0
  3  2  1  0
  4  3  1  0
  5  4  1  0
  6  5  1  0
  7  6  1  0
  8  7  2  0
  9  8  1  0
 10  9  2  0
 11 10  1  0
 12 11  2  0
 12  7  1  0
 13  1  1  0
 14 13  1  0
 15 14  1  0
 16 15  1  0
 17 16  1  0
 18 17  1  0
 19 18  2  0
 20 19  1  0
 21 20  2  0
 22 21  1  0
 23 22  2  0
 23 18  1  0
  1 24  1  0
  1 25  1  0
  2 26  1  0
  2 27  1  0
  3 28  1  0
  3 29  1  0
  4 30  1  0
  4 31  1  0
  5 32  1  0
  5 33  1  0
  6 34  1  0
  6 35  1  0
  8 36  1  0
  9 37  1  0
 10 38  1  0
 11 39  1  0
 12 40  1  0
 13 41  1  0
 13 42  1  0
 14 43  1  0
 14 44  1  0
 15 45  1  0
 15 46  1  0
 16 47  1  0
 16 48  1  0
 17 49  1  0
 17 50  1  0
 19 51  1  0
 20 52  1  0
 21 53  1  0
 22 54  1  0
 23 55  1  0
M  CHG  2   7   1  18   1
M  END
>  <score>  (1) 
-8.314

$$$$
=
     RDKit          3D

 55 56  0  0  0  0  0  0  0  0999 V2000
    6.3670   70.9020   67.3310 C   0  0  0  0  0  0  0  0  0  0  0  0
    5.3590   71.3280   68.4030 C   0  0  0  0  0  0  0  0  0  0  0  0
    4.4500   70.2250   68.9480 C   0  0  0  0  0  0  0  0  0  0  0  0
    2.9420   70.5060   68.9480 C   0  0  0  0  0  0  0  0  0  0  0  0
    2.1350   69.7380   67.8960 C   0  0  0  0  0  0  0  0  0  0  0  0
    1.5880   68.4040   68.3930 C   0  0  0  0  0  0  0  0  0  0  0  0
    0.2100   68.2190   67.8720 N   0  0  0  0  0  4  0  0  0  0  0  0
   -0.3630   69.1950   67.1260 C   0  0  0  0  0  0  0  0  0  0  0  0
   -1.6500   69.0390   66.6240 C   0  0  0  0  0  0  0  0  0  0  0  0
   -2.3500   67.8710   66.8940 C   0  0  0  0  0  0  0  0  0  0  0  0
   -1.7510   66.8790   67.6590 C   0  0  0  0  0  0  0  0  0  0  0  0
   -0.4620   67.0740   68.1420 C   0  0  0  0  0  0  0  0  0  0  0  0
    5.9960   69.6550   66.5210 C   0  0  0  0  0  0  0  0  0  0  0  0
    4.9220   69.8470   65.4440 C   0  0  0  0  0  0  0  0  0  0  0  0
    5.2910   69.2290   64.0920 C   0  0  0  0  0  0  0  0  0  0  0  0
    4.9090   67.7460   64.0400 C   0  0  0  0  0  0  0  0  0  0  0  0
    4.1730   67.3980   62.7510 C   0  0  0  0  0  0  0  0  0  0  0  0
    2.8330   68.0340   62.7600 N   0  0  0  0  0  4  0  0  0  0  0  0
    2.4170   68.7380   61.6800 C   0  0  0  0  0  0  0  0  0  0  0  0
    1.1620   69.3360   61.6650 C   0  0  0  0  0  0  0  0  0  0  0  0
    0.3320   69.2050   62.7690 C   0  0  0  0  0  0  0  0  0  0  0  0
    0.7690   68.4780   63.8680 C   0  0  0  0  0  0  0  0  0  0  0  0
    2.0310   67.8970   63.8430 C   0  0  0  0  0  0  0  0  0  0  0  0
    6.4839   71.7389   66.6267 H   0  0  0  0  0  0  0  0  0  0  0  0
    7.2870   70.6410   67.8745 H   0  0  0  0  0  0  0  0  0  0  0  0
    5.9244   71.7461   69.2489 H   0  0  0  0  0  0  0  0  0  0  0  0
    4.6883   72.0466   67.9092 H   0  0  0  0  0  0  0  0  0  0  0  0
    4.6202   69.3237   68.3408 H   0  0  0  0  0  0  0  0  0  0  0  0
    4.7234   70.1258   70.0088 H   0  0  0  0  0  0  0  0  0  0  0  0
    2.5466   70.2416   69.9399 H   0  0  0  0  0  0  0  0  0  0  0  0
    2.8302   71.5718   68.7001 H   0  0  0  0  0  0  0  0  0  0  0  0
    1.2874   70.3654   67.5830 H   0  0  0  0  0  0  0  0  0  0  0  0
    2.8216   69.5136   67.0664 H   0  0  0  0  0  0  0  0  0  0  0  0
    2.2302   67.5861   68.0344 H   0  0  0  0  0  0  0  0  0  0  0  0
    1.5722   68.3968   69.4929 H   0  0  0  0  0  0  0  0  0  0  0  0
    0.1955   70.1191   66.9159 H   0  0  0  0  0  0  0  0  0  0  0  0
   -2.1095   69.8339   66.0183 H   0  0  0  0  0  0  0  0  0  0  0  0
   -3.3698   67.7326   66.5055 H   0  0  0  0  0  0  0  0  0  0  0  0
   -2.2916   65.9471   67.8809 H   0  0  0  0  0  0  0  0  0  0  0  0
    0.0167   66.2914   68.7490 H   0  0  0  0  0  0  0  0  0  0  0  0
    6.9084   69.2922   66.0252 H   0  0  0  0  0  0  0  0  0  0  0  0
    5.5655   68.9483   67.2458 H   0  0  0  0  0  0  0  0  0  0  0  0
    3.9896   69.3816   65.7961 H   0  0  0  0  0  0  0  0  0  0  0  0
    4.8153   70.9302   65.2848 H   0  0  0  0  0  0  0  0  0  0  0  0
    4.7569   69.7656   63.2940 H   0  0  0  0  0  0  0  0  0  0  0  0
    6.3790   69.3143   63.9545 H   0  0  0  0  0  0  0  0  0  0  0  0
    5.8247   67.1396   64.1025 H   0  0  0  0  0  0  0  0  0  0  0  0
    4.2379   67.5350   64.8856 H   0  0  0  0  0  0  0  0  0  0  0  0
    4.7483   67.7670   61.8891 H   0  0  0  0  0  0  0  0  0  0  0  0
    4.0604   66.3063   62.6762 H   0  0  0  0  0  0  0  0  0  0  0  0
    3.0784   68.8375   60.8067 H   0  0  0  0  0  0  0  0  0  0  0  0
    0.8301   69.9078   60.7858 H   0  0  0  0  0  0  0  0  0  0  0  0
   -0.6635   69.6730   62.7735 H   0  0  0  0  0  0  0  0  0  0  0  0
    0.1223   68.3630   64.7503 H   0  0  0  0  0  0  0  0  0  0  0  0
    2.3822   67.3201   64.7112 H   0  0  0  0  0  0  0  0  0  0  0  0
  2  1  1  0
  3  2  1  0
  4  3  1  0
  5  4  1  0
  6  5  1  0
  7  6  1  0
  8  7  2  0
  9  8  1  0
 10  9  2  0
 11 10  1  0
 12 11  2  0
 12  7  1  0
 13  1  1  0
 14 13  1  0
 15 14  1  0
 16 15  1  0
 17 16  1  0
 18 17  1  0
 19 18  2  0
 20 19  1  0
 21 20  2  0
 22 21  1  0
 23 22  2  0
 23 18  1  0
  1 24  1  0
  1 25  1  0
  2 26  1  0
  2 27  1  0
  3 28  1  0
  3 29  1  0
  4 30  1  0
  4 31  1  0
  5 32  1  0
  5 33  1  0
  6 34  1  0
  6 35  1  0
  8 36  1  0
  9 37  1  0
 10 38  1  0
 11 39  1  0
 12 40  1  0
 13 41  1  0
 13 42  1  0
 14 43  1  0
 14 44  1  0
 15 45  1  0
 15 46  1  0
 16 47  1  0
 16 48  1  0
 17 49  1  0
 17 50  1  0
 19 51  1  0
 20 52  1  0
 21 53  1  0
 22 54  1  0
 23 55  1  0
M  CHG  2   7   1  18   1
M  END
>  <score>  (2) 
-8.156

$$$$
=
     RDKit          3D

 55 56  0  0  0  0  0  0  0  0999 V2000
    0.4010   66.0840   70.6190 C   0  0  0  0  0  0  0  0  0  0  0  0
    1.2010   66.7910   69.5200 C   0  0  0  0  0  0  0  0  0  0  0  0
    0.4080   67.2360   68.2900 C   0  0  0  0  0  0  0  0  0  0  0  0
    0.5740   68.6960   67.8490 C   0  0  0  0  0  0  0  0  0  0  0  0
    1.9990   69.1000   67.4550 C   0  0  0  0  0  0  0  0  0  0  0  0
    2.6860   70.0040   68.4720 C   0  0  0  0  0  0  0  0  0  0  0  0
    4.1100   70.1750   68.0880 N   0  0  0  0  0  4  0  0  0  0  0  0
    4.9810   70.7270   68.9660 C   0  0  0  0  0  0  0  0  0  0  0  0
    6.3200   70.8910   68.6280 C   0  0  0  0  0  0  0  0  0  0  0  0
    6.7610   70.4840   67.3760 C   0  0  0  0  0  0  0  0  0  0  0  0
    5.8570   69.9210   66.4850 C   0  0  0  0  0  0  0  0  0  0  0  0
    4.5280   69.7740   66.8630 C   0  0  0  0  0  0  0  0  0  0  0  0
    0.5340   64.5580   70.6660 C   0  0  0  0  0  0  0  0  0  0  0  0
    0.3520   63.9100   72.0440 C   0  0  0  0  0  0  0  0  0  0  0  0
    0.0850   62.4030   71.9820 C   0  0  0  0  0  0  0  0  0  0  0  0
    1.1900   61.6160   72.6950 C   0  0  0  0  0  0  0  0  0  0  0  0
    1.9920   60.7620   71.7190 C   0  0  0  0  0  0  0  0  0  0  0  0
    2.8380   61.6400   70.8750 N   0  0  0  0  0  4  0  0  0  0  0  0
    2.6740   61.6370   69.5300 C   0  0  0  0  0  0  0  0  0  0  0  0
    3.4510   62.4570   68.7190 C   0  0  0  0  0  0  0  0  0  0  0  0
    4.4000   63.2860   69.3000 C   0  0  0  0  0  0  0  0  0  0  0  0
    4.5560   63.2820   70.6800 C   0  0  0  0  0  0  0  0  0  0  0  0
    3.7590   62.4460   71.4540 C   0  0  0  0  0  0  0  0  0  0  0  0
    0.7356   66.4817   71.5885 H   0  0  0  0  0  0  0  0  0  0  0  0
   -0.6568   66.2842   70.3934 H   0  0  0  0  0  0  0  0  0  0  0  0
    1.6632   67.6853   69.9634 H   0  0  0  0  0  0  0  0  0  0  0  0
    1.9213   66.0451   69.1529 H   0  0  0  0  0  0  0  0  0  0  0  0
    0.7142   66.5976   67.4482 H   0  0  0  0  0  0  0  0  0  0  0  0
   -0.6488   67.1422   68.5804 H   0  0  0  0  0  0  0  0  0  0  0  0
   -0.0803   68.8660   66.9812 H   0  0  0  0  0  0  0  0  0  0  0  0
    0.3127   69.3108   68.7230 H   0  0  0  0  0  0  0  0  0  0  0  0
    2.6000   68.1856   67.3421 H   0  0  0  0  0  0  0  0  0  0  0  0
    1.9223   69.6719   66.5185 H   0  0  0  0  0  0  0  0  0  0  0  0
    2.1886   70.9850   68.4878 H   0  0  0  0  0  0  0  0  0  0  0  0
    2.6243   69.5499   69.4720 H   0  0  0  0  0  0  0  0  0  0  0  0
    4.6259   71.0488   69.9561 H   0  0  0  0  0  0  0  0  0  0  0  0
    7.0230   71.3389   69.3457 H   0  0  0  0  0  0  0  0  0  0  0  0
    7.8168   70.6064   67.0925 H   0  0  0  0  0  0  0  0  0  0  0  0
    6.1900   69.5943   65.4888 H   0  0  0  0  0  0  0  0  0  0  0  0
    3.8082   69.3278   66.1610 H   0  0  0  0  0  0  0  0  0  0  0  0
   -0.2239   64.1331   69.9914 H   0  0  0  0  0  0  0  0  0  0  0  0
    1.5712   64.3412   70.3707 H   0  0  0  0  0  0  0  0  0  0  0  0
    1.2674   64.0772   72.6307 H   0  0  0  0  0  0  0  0  0  0  0  0
   -0.5313   64.3756   72.5055 H   0  0  0  0  0  0  0  0  0  0  0  0
   -0.8787   62.1888   72.4673 H   0  0  0  0  0  0  0  0  0  0  0  0
    0.0635   62.0956   70.9260 H   0  0  0  0  0  0  0  0  0  0  0  0
    1.8697   62.3248   73.1907 H   0  0  0  0  0  0  0  0  0  0  0  0
    0.7164   60.9466   73.4282 H   0  0  0  0  0  0  0  0  0  0  0  0
    2.6321   60.0659   72.2809 H   0  0  0  0  0  0  0  0  0  0  0  0
    1.3031   60.1909   71.0792 H   0  0  0  0  0  0  0  0  0  0  0  0
    1.9187   60.9793   69.0750 H   0  0  0  0  0  0  0  0  0  0  0  0
    3.3146   62.4485   67.6275 H   0  0  0  0  0  0  0  0  0  0  0  0
    5.0233   63.9406   68.6731 H   0  0  0  0  0  0  0  0  0  0  0  0
    5.3030   63.9341   71.1562 H   0  0  0  0  0  0  0  0  0  0  0  0
    3.8779   62.4394   72.5475 H   0  0  0  0  0  0  0  0  0  0  0  0
  2  1  1  0
  3  2  1  0
  4  3  1  0
  5  4  1  0
  6  5  1  0
  7  6  1  0
  8  7  2  0
  9  8  1  0
 10  9  2  0
 11 10  1  0
 12 11  2  0
 12  7  1  0
 13  1  1  0
 14 13  1  0
 15 14  1  0
 16 15  1  0
 17 16  1  0
 18 17  1  0
 19 18  2  0
 20 19  1  0
 21 20  2  0
 22 21  1  0
 23 22  2  0
 23 18  1  0
  1 24  1  0
  1 25  1  0
  2 26  1  0
  2 27  1  0
  3 28  1  0
  3 29  1  0
  4 30  1  0
  4 31  1  0
  5 32  1  0
  5 33  1  0
  6 34  1  0
  6 35  1  0
  8 36  1  0
  9 37  1  0
 10 38  1  0
 11 39  1  0
 12 40  1  0
 13 41  1  0
 13 42  1  0
 14 43  1  0
 14 44  1  0
 15 45  1  0
 15 46  1  0
 16 47  1  0
 16 48  1  0
 17 49  1  0
 17 50  1  0
 19 51  1  0
 20 52  1  0
 21 53  1  0
 22 54  1  0
 23 55  1  0
M  CHG  2   7   1  18   1
M  END
>  <score>  (3) 
-8.064

$$$$
=
     RDKit          3D

 55 56  0  0  0  0  0  0  0  0999 V2000
    0.3740   64.8310   71.0850 C   0  0  0  0  0  0  0  0  0  0  0  0
    0.2320   63.3050   71.0900 C   0  0  0  0  0  0  0  0  0  0  0  0
    0.5940   62.6000   72.3990 C   0  0  0  0  0  0  0  0  0  0  0  0
    0.6670   61.0680   72.3640 C   0  0  0  0  0  0  0  0  0  0  0  0
    2.0150   60.4700   72.7770 C   0  0  0  0  0  0  0  0  0  0  0  0
    2.8440   59.9530   71.6050 C   0  0  0  0  0  0  0  0  0  0  0  0
    3.3570   61.1070   70.8260 N   0  0  0  0  0  4  0  0  0  0  0  0
    4.1900   61.9990   71.4150 C   0  0  0  0  0  0  0  0  0  0  0  0
    4.6860   63.0840   70.7020 C   0  0  0  0  0  0  0  0  0  0  0  0
    4.3200   63.2500   69.3730 C   0  0  0  0  0  0  0  0  0  0  0  0
    3.4650   62.3300   68.7820 C   0  0  0  0  0  0  0  0  0  0  0  0
    2.9920   61.2590   69.5300 C   0  0  0  0  0  0  0  0  0  0  0  0
    1.5520   65.3900   70.2790 C   0  0  0  0  0  0  0  0  0  0  0  0
    1.3900   66.8230   69.7580 C   0  0  0  0  0  0  0  0  0  0  0  0
    0.2150   66.9950   68.7920 C   0  0  0  0  0  0  0  0  0  0  0  0
    0.6730   67.6190   67.4690 C   0  0  0  0  0  0  0  0  0  0  0  0
    0.8800   69.1240   67.5970 C   0  0  0  0  0  0  0  0  0  0  0  0
    2.3150   69.4430   67.4040 N   0  0  0  0  0  4  0  0  0  0  0  0
    3.0190   70.0060   68.4160 C   0  0  0  0  0  0  0  0  0  0  0  0
    4.3670   70.3070   68.2600 C   0  0  0  0  0  0  0  0  0  0  0  0
    4.9930   70.0220   67.0550 C   0  0  0  0  0  0  0  0  0  0  0  0
    4.2620   69.4410   66.0270 C   0  0  0  0  0  0  0  0  0  0  0  0
    2.9160   69.1580   66.2240 C   0  0  0  0  0  0  0  0  0  0  0  0
   -0.5514   65.2545   70.6675 H   0  0  0  0  0  0  0  0  0  0  0  0
    0.5657   65.1161   72.1300 H   0  0  0  0  0  0  0  0  0  0  0  0
   -0.8157   63.0641   70.8570 H   0  0  0  0  0  0  0  0  0  0  0  0
    0.9553   62.9383   70.3468 H   0  0  0  0  0  0  0  0  0  0  0  0
    1.5792   62.9727   72.7159 H   0  0  0  0  0  0  0  0  0  0  0  0
   -0.2312   62.8325   73.0881 H   0  0  0  0  0  0  0  0  0  0  0  0
   -0.1025   60.6750   73.0447 H   0  0  0  0  0  0  0  0  0  0  0  0
    0.5137   60.7789   71.3138 H   0  0  0  0  0  0  0  0  0  0  0  0
    2.5950   61.2474   73.2959 H   0  0  0  0  0  0  0  0  0  0  0  0
    1.7981   59.6058   73.4221 H   0  0  0  0  0  0  0  0  0  0  0  0
    3.6892   59.3602   71.9849 H   0  0  0  0  0  0  0  0  0  0  0  0
    2.2180   59.3194   70.9595 H   0  0  0  0  0  0  0  0  0  0  0  0
    4.4765   61.8629   72.4683 H   0  0  0  0  0  0  0  0  0  0  0  0
    5.3620   63.8043   71.1859 H   0  0  0  0  0  0  0  0  0  0  0  0
    4.7040   64.1027   68.7938 H   0  0  0  0  0  0  0  0  0  0  0  0
    3.1645   62.4479   67.7304 H   0  0  0  0  0  0  0  0  0  0  0  0
    2.3146   60.5273   69.0656 H   0  0  0  0  0  0  0  0  0  0  0  0
    2.4429   65.3650   70.9237 H   0  0  0  0  0  0  0  0  0  0  0  0
    1.6264   64.7555   69.3836 H   0  0  0  0  0  0  0  0  0  0  0  0
    1.2333   67.4902   70.6184 H   0  0  0  0  0  0  0  0  0  0  0  0
    2.3053   67.0684   69.1994 H   0  0  0  0  0  0  0  0  0  0  0  0
   -0.2301   66.0097   68.5891 H   0  0  0  0  0  0  0  0  0  0  0  0
   -0.5231   67.6653   69.2566 H   0  0  0  0  0  0  0  0  0  0  0  0
    1.6220   67.1533   67.1649 H   0  0  0  0  0  0  0  0  0  0  0  0
   -0.1110   67.4435   66.7176 H   0  0  0  0  0  0  0  0  0  0  0  0
    0.2829   69.6427   66.8325 H   0  0  0  0  0  0  0  0  0  0  0  0
    0.5619   69.4544   68.5968 H   0  0  0  0  0  0  0  0  0  0  0  0
    2.5186   70.2270   69.3704 H   0  0  0  0  0  0  0  0  0  0  0  0
    4.9322   70.7668   69.0841 H   0  0  0  0  0  0  0  0  0  0  0  0
    6.0591   70.2542   66.9151 H   0  0  0  0  0  0  0  0  0  0  0  0
    4.7439   69.2071   65.0662 H   0  0  0  0  0  0  0  0  0  0  0  0
    2.3323   68.6977   65.4132 H   0  0  0  0  0  0  0  0  0  0  0  0
  2  1  1  0
  3  2  1  0
  4  3  1  0
  5  4  1  0
  6  5  1  0
  7  6  1  0
  8  7  2  0
  9  8  1  0
 10  9  2  0
 11 10  1  0
 12 11  2  0
 12  7  1  0
 13  1  1  0
 14 13  1  0
 15 14  1  0
 16 15  1  0
 17 16  1  0
 18 17  1  0
 19 18  2  0
 20 19  1  0
 21 20  2  0
 22 21  1  0
 23 22  2  0
 23 18  1  0
  1 24  1  0
  1 25  1  0
  2 26  1  0
  2 27  1  0
  3 28  1  0
  3 29  1  0
  4 30  1  0
  4 31  1  0
  5 32  1  0
  5 33  1  0
  6 34  1  0
  6 35  1  0
  8 36  1  0
  9 37  1  0
 10 38  1  0
 11 39  1  0
 12 40  1  0
 13 41  1  0
 13 42  1  0
 14 43  1  0
 14 44  1  0
 15 45  1  0
 15 46  1  0
 16 47  1  0
 16 48  1  0
 17 49  1  0
 17 50  1  0
 19 51  1  0
 20 52  1  0
 21 53  1  0
 22 54  1  0
 23 55  1  0
M  CHG  2   7   1  18   1
M  END
>  <score>  (4) 
-7.988

$$$$
=
     RDKit          3D

 55 56  0  0  0  0  0  0  0  0999 V2000
    1.0800   64.6090   70.7520 C   0  0  0  0  0  0  0  0  0  0  0  0
    0.3940   65.9190   70.3490 C   0  0  0  0  0  0  0  0  0  0  0  0
    1.2530   66.9160   69.5700 C   0  0  0  0  0  0  0  0  0  0  0  0
    0.6120   67.5730   68.3420 C   0  0  0  0  0  0  0  0  0  0  0  0
    1.4710   67.5630   67.0730 C   0  0  0  0  0  0  0  0  0  0  0  0
    1.6570   68.9400   66.4450 C   0  0  0  0  0  0  0  0  0  0  0  0
    3.0890   69.3220   66.5260 N   0  0  0  0  0  4  0  0  0  0  0  0
    3.8920   69.1520   65.4480 C   0  0  0  0  0  0  0  0  0  0  0  0
    5.2350   69.5080   65.5020 C   0  0  0  0  0  0  0  0  0  0  0  0
    5.7520   70.0420   66.6750 C   0  0  0  0  0  0  0  0  0  0  0  0
    4.9180   70.2110   67.7720 C   0  0  0  0  0  0  0  0  0  0  0  0
    3.5820   69.8430   67.6760 C   0  0  0  0  0  0  0  0  0  0  0  0
    0.2550   63.6660   71.6340 C   0  0  0  0  0  0  0  0  0  0  0  0
    0.7820   63.4420   73.0570 C   0  0  0  0  0  0  0  0  0  0  0  0
    0.8470   61.9670   73.4630 C   0  0  0  0  0  0  0  0  0  0  0  0
    0.9560   61.0590   72.2330 C   0  0  0  0  0  0  0  0  0  0  0  0
    2.3870   60.5820   72.0090 C   0  0  0  0  0  0  0  0  0  0  0  0
    3.0750   61.5060   71.0760 N   0  0  0  0  0  4  0  0  0  0  0  0
    4.0410   62.3340   71.5410 C   0  0  0  0  0  0  0  0  0  0  0  0
    4.7040   63.2040   70.6830 C   0  0  0  0  0  0  0  0  0  0  0  0
    4.3710   63.2160   69.3360 C   0  0  0  0  0  0  0  0  0  0  0  0
    3.3820   62.3590   68.8700 C   0  0  0  0  0  0  0  0  0  0  0  0
    2.7430   61.5070   69.7630 C   0  0  0  0  0  0  0  0  0  0  0  0
    1.3402   64.0674   69.8306 H   0  0  0  0  0  0  0  0  0  0  0  0
    1.9484   64.9023   71.3602 H   0  0  0  0  0  0  0  0  0  0  0  0
   -0.4755   65.6650   69.7250 H   0  0  0  0  0  0  0  0  0  0  0  0
    0.1400   66.4224   71.2935 H   0  0  0  0  0  0  0  0  0  0  0  0
    1.5416   67.7192   70.2639 H   0  0  0  0  0  0  0  0  0  0  0  0
    2.0911   66.3240   69.1737 H   0  0  0  0  0  0  0  0  0  0  0  0
   -0.3256   67.0414   68.1223 H   0  0  0  0  0  0  0  0  0  0  0  0
    0.4665   68.6315   68.6035 H   0  0  0  0  0  0  0  0  0  0  0  0
    2.4627   67.1616   67.3286 H   0  0  0  0  0  0  0  0  0  0  0  0
    0.9434   66.9423   66.3338 H   0  0  0  0  0  0  0  0  0  0  0  0
    1.3430   68.9096   65.3912 H   0  0  0  0  0  0  0  0  0  0  0  0
    1.0456   69.6786   66.9842 H   0  0  0  0  0  0  0  0  0  0  0  0
    3.4775   68.7283   64.5213 H   0  0  0  0  0  0  0  0  0  0  0  0
    5.8821   69.3679   64.6235 H   0  0  0  0  0  0  0  0  0  0  0  0
    6.8124   70.3284   66.7345 H   0  0  0  0  0  0  0  0  0  0  0  0
    5.3116   70.6325   68.7087 H   0  0  0  0  0  0  0  0  0  0  0  0
    2.9173   69.9758   68.5423 H   0  0  0  0  0  0  0  0  0  0  0  0
   -0.7604   64.0815   71.7129 H   0  0  0  0  0  0  0  0  0  0  0  0
    0.3027   62.6831   71.1423 H   0  0  0  0  0  0  0  0  0  0  0  0
    1.7950   63.8656   73.1231 H   0  0  0  0  0  0  0  0  0  0  0  0
    0.0765   63.9339   73.7428 H   0  0  0  0  0  0  0  0  0  0  0  0
    1.7266   61.8096   74.1045 H   0  0  0  0  0  0  0  0  0  0  0  0
   -0.0768   61.7129   74.0033 H   0  0  0  0  0  0  0  0  0  0  0  0
    0.3068   60.1829   72.3780 H   0  0  0  0  0  0  0  0  0  0  0  0
    0.6455   61.6380   71.3508 H   0  0  0  0  0  0  0  0  0  0  0  0
    2.9225   60.5649   72.9697 H   0  0  0  0  0  0  0  0  0  0  0  0
    2.3732   59.5696   71.5791 H   0  0  0  0  0  0  0  0  0  0  0  0
    4.3037   62.3178   72.6091 H   0  0  0  0  0  0  0  0  0  0  0  0
    5.4849   63.8762   71.0681 H   0  0  0  0  0  0  0  0  0  0  0  0
    4.8856   63.8981   68.6433 H   0  0  0  0  0  0  0  0  0  0  0  0
    3.1073   62.3547   67.8049 H   0  0  0  0  0  0  0  0  0  0  0  0
    1.9592   60.8262   69.3994 H   0  0  0  0  0  0  0  0  0  0  0  0
  2  1  1  0
  3  2  1  0
  4  3  1  0
  5  4  1  0
  6  5  1  0
  7  6  1  0
  8  7  2  0
  9  8  1  0
 10  9  2  0
 11 10  1  0
 12 11  2  0
 12  7  1  0
 13  1  1  0
 14 13  1  0
 15 14  1  0
 16 15  1  0
 17 16  1  0
 18 17  1  0
 19 18  2  0
 20 19  1  0
 21 20  2  0
 22 21  1  0
 23 22  2  0
 23 18  1  0
  1 24  1  0
  1 25  1  0
  2 26  1  0
  2 27  1  0
  3 28  1  0
  3 29  1  0
  4 30  1  0
  4 31  1  0
  5 32  1  0
  5 33  1  0
  6 34  1  0
  6 35  1  0
  8 36  1  0
  9 37  1  0
 10 38  1  0
 11 39  1  0
 12 40  1  0
 13 41  1  0
 13 42  1  0
 14 43  1  0
 14 44  1  0
 15 45  1  0
 15 46  1  0
 16 47  1  0
 16 48  1  0
 17 49  1  0
 17 50  1  0
 19 51  1  0
 20 52  1  0
 21 53  1  0
 22 54  1  0
 23 55  1  0
M  CHG  2   7   1  18   1
M  END
>  <score>  (5) 
-7.872

$$$$
=
     RDKit          3D

 55 56  0  0  0  0  0  0  0  0999 V2000
    0.7090   68.7440   67.6120 C   0  0  0  0  0  0  0  0  0  0  0  0
    1.1220   67.5510   68.4800 C   0  0  0  0  0  0  0  0  0  0  0  0
   -0.0210   66.7300   69.0820 C   0  0  0  0  0  0  0  0  0  0  0  0
    0.2600   66.0260   70.4150 C   0  0  0  0  0  0  0  0  0  0  0  0
    1.5230   65.1600   70.4430 C   0  0  0  0  0  0  0  0  0  0  0  0
    1.3830   63.8920   71.2770 C   0  0  0  0  0  0  0  0  0  0  0  0
    2.1960   62.8130   70.6610 N   0  0  0  0  0  4  0  0  0  0  0  0
    2.1950   61.5740   71.2110 C   0  0  0  0  0  0  0  0  0  0  0  0
    2.9460   60.5490   70.6480 C   0  0  0  0  0  0  0  0  0  0  0  0
    3.7010   60.8030   69.5110 C   0  0  0  0  0  0  0  0  0  0  0  0
    3.6930   62.0760   68.9580 C   0  0  0  0  0  0  0  0  0  0  0  0
    2.9290   63.0730   69.5520 C   0  0  0  0  0  0  0  0  0  0  0  0
    0.9540   68.5930   66.1060 C   0  0  0  0  0  0  0  0  0  0  0  0
    1.6890   67.3200   65.6690 C   0  0  0  0  0  0  0  0  0  0  0  0
    3.0260   67.5910   64.9740 C   0  0  0  0  0  0  0  0  0  0  0  0
    3.4660   69.0460   65.1680 C   0  0  0  0  0  0  0  0  0  0  0  0
    4.9710   69.1560   65.3860 C   0  0  0  0  0  0  0  0  0  0  0  0
    5.2340   69.7840   66.7030 N   0  0  0  0  0  4  0  0  0  0  0  0
    6.4880   70.1950   67.0120 C   0  0  0  0  0  0  0  0  0  0  0  0
    6.7560   70.7920   68.2380 C   0  0  0  0  0  0  0  0  0  0  0  0
    5.7250   70.9680   69.1500 C   0  0  0  0  0  0  0  0  0  0  0  0
    4.4440   70.5450   68.8200 C   0  0  0  0  0  0  0  0  0  0  0  0
    4.2190   69.9520   67.5840 C   0  0  0  0  0  0  0  0  0  0  0  0
   -0.3672   68.9141   67.7630 H   0  0  0  0  0  0  0  0  0  0  0  0
    1.3453   69.5813   67.9346 H   0  0  0  0  0  0  0  0  0  0  0  0
    1.7291   66.8768   67.8580 H   0  0  0  0  0  0  0  0  0  0  0  0
    1.6609   67.9811   69.3371 H   0  0  0  0  0  0  0  0  0  0  0  0
   -0.8723   67.4090   69.2374 H   0  0  0  0  0  0  0  0  0  0  0  0
   -0.2032   65.9191   68.3614 H   0  0  0  0  0  0  0  0  0  0  0  0
    0.3594   66.7975   71.1927 H   0  0  0  0  0  0  0  0  0  0  0  0
   -0.5836   65.3399   70.5810 H   0  0  0  0  0  0  0  0  0  0  0  0
    1.7675   64.8703   69.4104 H   0  0  0  0  0  0  0  0  0  0  0  0
    2.3146   65.7642   70.9103 H   0  0  0  0  0  0  0  0  0  0  0  0
    1.7389   64.0829   72.3002 H   0  0  0  0  0  0  0  0  0  0  0  0
    0.3269   63.5862   71.3120 H   0  0  0  0  0  0  0  0  0  0  0  0
    1.5942   61.3780   72.1113 H   0  0  0  0  0  0  0  0  0  0  0  0
    2.9422   59.5458   71.0991 H   0  0  0  0  0  0  0  0  0  0  0  0
    4.3002   60.0025   69.0525 H   0  0  0  0  0  0  0  0  0  0  0  0
    4.2862   62.2936   68.0576 H   0  0  0  0  0  0  0  0  0  0  0  0
    2.9193   64.0834   69.1174 H   0  0  0  0  0  0  0  0  0  0  0  0
   -0.0241   68.6065   65.6029 H   0  0  0  0  0  0  0  0  0  0  0  0
    1.6147   69.4273   65.8278 H   0  0  0  0  0  0  0  0  0  0  0  0
    1.8793   66.7050   66.5609 H   0  0  0  0  0  0  0  0  0  0  0  0
    1.0437   66.8101   64.9385 H   0  0  0  0  0  0  0  0  0  0  0  0
    3.7921   66.9249   65.3975 H   0  0  0  0  0  0  0  0  0  0  0  0
    2.9029   67.4048   63.8969 H   0  0  0  0  0  0  0  0  0  0  0  0
    3.1924   69.6235   64.2727 H   0  0  0  0  0  0  0  0  0  0  0  0
    2.9604   69.4408   66.0616 H   0  0  0  0  0  0  0  0  0  0  0  0
    5.4195   68.1519   65.3623 H   0  0  0  0  0  0  0  0  0  0  0  0
    5.4131   69.7734   64.5901 H   0  0  0  0  0  0  0  0  0  0  0  0
    7.3017   70.0546   66.2852 H   0  0  0  0  0  0  0  0  0  0  0  0
    7.7762   71.1221   68.4833 H   0  0  0  0  0  0  0  0  0  0  0  0
    5.9205   71.4381   70.1251 H   0  0  0  0  0  0  0  0  0  0  0  0
    3.6151   70.6783   69.5308 H   0  0  0  0  0  0  0  0  0  0  0  0
    3.2061   69.6154   67.3181 H   0  0  0  0  0  0  0  0  0  0  0  0
  2  1  1  0
  3  2  1  0
  4  3  1  0
  5  4  1  0
  6  5  1  0
  7  6  1  0
  8  7  2  0
  9  8  1  0
 10  9  2  0
 11 10  1  0
 12 11  2  0
 12  7  1  0
 13  1  1  0
 14 13  1  0
 15 14  1  0
 16 15  1  0
 17 16  1  0
 18 17  1  0
 19 18  2  0
 20 19  1  0
 21 20  2  0
 22 21  1  0
 23 22  2  0
 23 18  1  0
  1 24  1  0
  1 25  1  0
  2 26  1  0
  2 27  1  0
  3 28  1  0
  3 29  1  0
  4 30  1  0
  4 31  1  0
  5 32  1  0
  5 33  1  0
  6 34  1  0
  6 35  1  0
  8 36  1  0
  9 37  1  0
 10 38  1  0
 11 39  1  0
 12 40  1  0
 13 41  1  0
 13 42  1  0
 14 43  1  0
 14 44  1  0
 15 45  1  0
 15 46  1  0
 16 47  1  0
 16 48  1  0
 17 49  1  0
 17 50  1  0
 19 51  1  0
 20 52  1  0
 21 53  1  0
 22 54  1  0
 23 55  1  0
M  CHG  2   7   1  18   1
M  END
>  <score>  (6) 
-7.857

$$$$
=
     RDKit          3D

 55 56  0  0  0  0  0  0  0  0999 V2000
    0.3510   66.2390   70.4030 C   0  0  0  0  0  0  0  0  0  0  0  0
    0.8850   64.8170   70.5990 C   0  0  0  0  0  0  0  0  0  0  0  0
    2.3700   64.6070   70.2930 C   0  0  0  0  0  0  0  0  0  0  0  0
    3.0690   63.4470   71.0120 C   0  0  0  0  0  0  0  0  0  0  0  0
    4.4800   63.1250   70.5110 C   0  0  0  0  0  0  0  0  0  0  0  0
    5.2350   62.1340   71.3900 C   0  0  0  0  0  0  0  0  0  0  0  0
    4.5350   60.8250   71.3590 N   0  0  0  0  0  4  0  0  0  0  0  0
    4.2130   60.2080   72.5210 C   0  0  0  0  0  0  0  0  0  0  0  0
    3.5530   58.9840   72.5150 C   0  0  0  0  0  0  0  0  0  0  0  0
    3.2240   58.3940   71.3020 C   0  0  0  0  0  0  0  0  0  0  0  0
    3.5600   59.0380   70.1180 C   0  0  0  0  0  0  0  0  0  0  0  0
    4.2190   60.2590   70.1690 C   0  0  0  0  0  0  0  0  0  0  0  0
    0.6850   66.9000   69.0610 C   0  0  0  0  0  0  0  0  0  0  0  0
   -0.5020   67.1640   68.1270 C   0  0  0  0  0  0  0  0  0  0  0  0
   -0.2520   68.2910   67.1200 C   0  0  0  0  0  0  0  0  0  0  0  0
    1.0750   69.0020   67.4040 C   0  0  0  0  0  0  0  0  0  0  0  0
    2.0700   68.8150   66.2630 C   0  0  0  0  0  0  0  0  0  0  0  0
    3.3790   69.3950   66.6510 N   0  0  0  0  0  4  0  0  0  0  0  0
    3.5570   69.8700   67.9070 C   0  0  0  0  0  0  0  0  0  0  0  0
    4.7780   70.4110   68.2940 C   0  0  0  0  0  0  0  0  0  0  0  0
    5.8210   70.4590   67.3810 C   0  0  0  0  0  0  0  0  0  0  0  0
    5.6270   69.9650   66.0970 C   0  0  0  0  0  0  0  0  0  0  0  0
    4.3900   69.4340   65.7510 C   0  0  0  0  0  0  0  0  0  0  0  0
   -0.7443   66.2039   70.4981 H   0  0  0  0  0  0  0  0  0  0  0  0
    0.8483   66.8521   71.1690 H   0  0  0  0  0  0  0  0  0  0  0  0
    0.7152   64.5360   71.6489 H   0  0  0  0  0  0  0  0  0  0  0  0
    0.3427   64.1950   69.8717 H   0  0  0  0  0  0  0  0  0  0  0  0
    2.4650   64.4329   69.2110 H   0  0  0  0  0  0  0  0  0  0  0  0
    2.8699   65.5153   70.6607 H   0  0  0  0  0  0  0  0  0  0  0  0
    3.1367   63.7001   72.0803 H   0  0  0  0  0  0  0  0  0  0  0  0
    2.4617   62.5523   70.8101 H   0  0  0  0  0  0  0  0  0  0  0  0
    4.4001   62.7002   69.4995 H   0  0  0  0  0  0  0  0  0  0  0  0
    5.0486   64.0665   70.5292 H   0  0  0  0  0  0  0  0  0  0  0  0
    6.2604   62.0123   71.0109 H   0  0  0  0  0  0  0  0  0  0  0  0
    5.2728   62.5094   72.4233 H   0  0  0  0  0  0  0  0  0  0  0  0
    4.4762   60.6799   73.4791 H   0  0  0  0  0  0  0  0  0  0  0  0
    3.2941   58.4880   73.4621 H   0  0  0  0  0  0  0  0  0  0  0  0
    2.7023   57.4259   71.2788 H   0  0  0  0  0  0  0  0  0  0  0  0
    3.3062   58.5846   69.1485 H   0  0  0  0  0  0  0  0  0  0  0  0
    4.4874   60.7722   69.2338 H   0  0  0  0  0  0  0  0  0  0  0  0
    1.1678   67.8655   69.2725 H   0  0  0  0  0  0  0  0  0  0  0  0
    1.3267   66.1823   68.5289 H   0  0  0  0  0  0  0  0  0  0  0  0
   -0.7174   66.2408   67.5691 H   0  0  0  0  0  0  0  0  0  0  0  0
   -1.3458   67.4778   68.7590 H   0  0  0  0  0  0  0  0  0  0  0  0
   -0.2217   67.8661   66.1058 H   0  0  0  0  0  0  0  0  0  0  0  0
   -1.0667   69.0248   67.2084 H   0  0  0  0  0  0  0  0  0  0  0  0
    0.8824   70.0769   67.5366 H   0  0  0  0  0  0  0  0  0  0  0  0
    1.5107   68.5646   68.3144 H   0  0  0  0  0  0  0  0  0  0  0  0
    2.1915   67.7419   66.0541 H   0  0  0  0  0  0  0  0  0  0  0  0
    1.6956   69.3229   65.3619 H   0  0  0  0  0  0  0  0  0  0  0  0
    2.7273   69.8273   68.6280 H   0  0  0  0  0  0  0  0  0  0  0  0
    4.9155   70.7973   69.3147 H   0  0  0  0  0  0  0  0  0  0  0  0
    6.7931   70.8844   67.6709 H   0  0  0  0  0  0  0  0  0  0  0  0
    6.4444   69.9938   65.3614 H   0  0  0  0  0  0  0  0  0  0  0  0
    4.2307   69.0415   64.7358 H   0  0  0  0  0  0  0  0  0  0  0  0
  2  1  1  0
  3  2  1  0
  4  3  1  0
  5  4  1  0
  6  5  1  0
  7  6  1  0
  8  7  2  0
  9  8  1  0
 10  9  2  0
 11 10  1  0
 12 11  2  0
 12  7  1  0
 13  1  1  0
 14 13  1  0
 15 14  1  0
 16 15  1  0
 17 16  1  0
 18 17  1  0
 19 18  2  0
 20 19  1  0
 21 20  2  0
 22 21  1  0
 23 22  2  0
 23 18  1  0
  1 24  1  0
  1 25  1  0
  2 26  1  0
  2 27  1  0
  3 28  1  0
  3 29  1  0
  4 30  1  0
  4 31  1  0
  5 32  1  0
  5 33  1  0
  6 34  1  0
  6 35  1  0
  8 36  1  0
  9 37  1  0
 10 38  1  0
 11 39  1  0
 12 40  1  0
 13 41  1  0
 13 42  1  0
 14 43  1  0
 14 44  1  0
 15 45  1  0
 15 46  1  0
 16 47  1  0
 16 48  1  0
 17 49  1  0
 17 50  1  0
 19 51  1  0
 20 52  1  0
 21 53  1  0
 22 54  1  0
 23 55  1  0
M  CHG  2   7   1  18   1
M  END
>  <score>  (7) 
-7.742

$$$$
=
     RDKit          3D

 55 56  0  0  0  0  0  0  0  0999 V2000
    5.7130   70.1940   68.3370 C   0  0  0  0  0  0  0  0  0  0  0  0
    6.2070   70.1390   66.8880 C   0  0  0  0  0  0  0  0  0  0  0  0
    5.1510   69.8190   65.8280 C   0  0  0  0  0  0  0  0  0  0  0  0
    5.6170   69.8090   64.3670 C   0  0  0  0  0  0  0  0  0  0  0  0
    4.9830   68.7250   63.4880 C   0  0  0  0  0  0  0  0  0  0  0  0
    3.8010   68.0160   64.1410 C   0  0  0  0  0  0  0  0  0  0  0  0
    2.5440   68.4720   63.4970 N   0  0  0  0  0  4  0  0  0  0  0  0
    1.4370   68.6720   64.2510 C   0  0  0  0  0  0  0  0  0  0  0  0
    0.2510   69.1040   63.6680 C   0  0  0  0  0  0  0  0  0  0  0  0
    0.2070   69.3290   62.2990 C   0  0  0  0  0  0  0  0  0  0  0  0
    1.3490   69.1180   61.5380 C   0  0  0  0  0  0  0  0  0  0  0  0
    2.5140   68.6880   62.1590 C   0  0  0  0  0  0  0  0  0  0  0  0
    4.7860   71.3640   68.6840 C   0  0  0  0  0  0  0  0  0  0  0  0
    3.3670   70.9890   69.1270 C   0  0  0  0  0  0  0  0  0  0  0  0
    3.0480   69.4990   68.9700 C   0  0  0  0  0  0  0  0  0  0  0  0
    2.2360   69.2380   67.6970 C   0  0  0  0  0  0  0  0  0  0  0  0
    0.8810   69.9350   67.7400 C   0  0  0  0  0  0  0  0  0  0  0  0
   -0.1950   68.9330   67.5430 N   0  0  0  0  0  4  0  0  0  0  0  0
   -0.0850   67.7090   68.1130 C   0  0  0  0  0  0  0  0  0  0  0  0
   -1.0850   66.7580   67.9470 C   0  0  0  0  0  0  0  0  0  0  0  0
   -2.2050   67.0720   67.1920 C   0  0  0  0  0  0  0  0  0  0  0  0
   -2.3080   68.3310   66.6150 C   0  0  0  0  0  0  0  0  0  0  0  0
   -1.2850   69.2530   66.8050 C   0  0  0  0  0  0  0  0  0  0  0  0
    5.1691   69.2604   68.5434 H   0  0  0  0  0  0  0  0  0  0  0  0
    6.6132   70.3344   68.9534 H   0  0  0  0  0  0  0  0  0  0  0  0
    6.6418   71.1195   66.6438 H   0  0  0  0  0  0  0  0  0  0  0  0
    6.9237   69.3053   66.8518 H   0  0  0  0  0  0  0  0  0  0  0  0
    4.7442   68.8223   66.0541 H   0  0  0  0  0  0  0  0  0  0  0  0
    4.4221   70.6404   65.8915 H   0  0  0  0  0  0  0  0  0  0  0  0
    5.3771   70.7880   63.9264 H   0  0  0  0  0  0  0  0  0  0  0  0
    6.6949   69.5909   64.3915 H   0  0  0  0  0  0  0  0  0  0  0  0
    4.6342   69.1942   62.5562 H   0  0  0  0  0  0  0  0  0  0  0  0
    5.7562   67.9627   63.3119 H   0  0  0  0  0  0  0  0  0  0  0  0
    3.9071   66.9287   64.0125 H   0  0  0  0  0  0  0  0  0  0  0  0
    3.7741   68.2533   65.2148 H   0  0  0  0  0  0  0  0  0  0  0  0
    1.4765   68.4909   65.3353 H   0  0  0  0  0  0  0  0  0  0  0  0
   -0.6444   69.2660   64.2861 H   0  0  0  0  0  0  0  0  0  0  0  0
   -0.7232   69.6710   61.8218 H   0  0  0  0  0  0  0  0  0  0  0  0
    1.3309   69.2901   60.4517 H   0  0  0  0  0  0  0  0  0  0  0  0
    3.4212   68.5210   61.5597 H   0  0  0  0  0  0  0  0  0  0  0  0
    5.2540   71.9334   69.5006 H   0  0  0  0  0  0  0  0  0  0  0  0
    4.6645   71.9329   67.7504 H   0  0  0  0  0  0  0  0  0  0  0  0
    3.2509   71.2595   70.1869 H   0  0  0  0  0  0  0  0  0  0  0  0
    2.6707   71.5378   68.4759 H   0  0  0  0  0  0  0  0  0  0  0  0
    3.9902   68.9339   68.9169 H   0  0  0  0  0  0  0  0  0  0  0  0
    2.4513   69.1771   69.8362 H   0  0  0  0  0  0  0  0  0  0  0  0
    2.8016   69.6113   66.8305 H   0  0  0  0  0  0  0  0  0  0  0  0
    2.0621   68.1548   67.6171 H   0  0  0  0  0  0  0  0  0  0  0  0
    0.7514   70.4256   68.7160 H   0  0  0  0  0  0  0  0  0  0  0  0
    0.8307   70.6900   66.9416 H   0  0  0  0  0  0  0  0  0  0  0  0
    0.8042   67.4654   68.7130 H   0  0  0  0  0  0  0  0  0  0  0  0
   -0.9888   65.7650   68.4104 H   0  0  0  0  0  0  0  0  0  0  0  0
   -3.0050   66.3302   67.0513 H   0  0  0  0  0  0  0  0  0  0  0  0
   -3.1901   68.5960   66.0137 H   0  0  0  0  0  0  0  0  0  0  0  0
   -1.3614   70.2523   66.3516 H   0  0  0  0  0  0  0  0  0  0  0  0
  2  1  1  0
  3  2  1  0
  4  3  1  0
  5  4  1  0
  6  5  1  0
  7  6  1  0
  8  7  2  0
  9  8  1  0
 10  9  2  0
 11 10  1  0
 12 11  2  0
 12  7  1  0
 13  1  1  0
 14 13  1  0
 15 14  1  0
 16 15  1  0
 17 16  1  0
 18 17  1  0
 19 18  2  0
 20 19  1  0
 21 20  2  0
 22 21  1  0
 23 22  2  0
 23 18  1  0
  1 24  1  0
  1 25  1  0
  2 26  1  0
  2 27  1  0
  3 28  1  0
  3 29  1  0
  4 30  1  0
  4 31  1  0
  5 32  1  0
  5 33  1  0
  6 34  1  0
  6 35  1  0
  8 36  1  0
  9 37  1  0
 10 38  1  0
 11 39  1  0
 12 40  1  0
 13 41  1  0
 13 42  1  0
 14 43  1  0
 14 44  1  0
 15 45  1  0
 15 46  1  0
 16 47  1  0
 16 48  1  0
 17 49  1  0
 17 50  1  0
 19 51  1  0
 20 52  1  0
 21 53  1  0
 22 54  1  0
 23 55  1  0
M  CHG  2   7   1  18   1
M  END
>  <score>  (8) 
-7.736

$$$$
=
     RDKit          3D

 55 56  0  0  0  0  0  0  0  0999 V2000
    2.4840   64.5860   70.4500 C   0  0  0  0  0  0  0  0  0  0  0  0
    0.9700   64.7350   70.6330 C   0  0  0  0  0  0  0  0  0  0  0  0
    0.3130   65.8960   69.8830 C   0  0  0  0  0  0  0  0  0  0  0  0
    1.2330   67.0330   69.4240 C   0  0  0  0  0  0  0  0  0  0  0  0
    0.8210   67.7180   68.1160 C   0  0  0  0  0  0  0  0  0  0  0  0
    1.1990   69.1930   68.0470 C   0  0  0  0  0  0  0  0  0  0  0  0
    2.4780   69.3330   67.3070 N   0  0  0  0  0  4  0  0  0  0  0  0
    2.5670   68.8900   66.0290 C   0  0  0  0  0  0  0  0  0  0  0  0
    3.7530   69.0160   65.3160 C   0  0  0  0  0  0  0  0  0  0  0  0
    4.8550   69.6030   65.9250 C   0  0  0  0  0  0  0  0  0  0  0  0
    4.7500   70.0520   67.2340 C   0  0  0  0  0  0  0  0  0  0  0  0
    3.5460   69.9070   67.9120 C   0  0  0  0  0  0  0  0  0  0  0  0
    2.9670   63.2140   69.9670 C   0  0  0  0  0  0  0  0  0  0  0  0
    4.4530   62.9080   70.1890 C   0  0  0  0  0  0  0  0  0  0  0  0
    4.7570   61.4140   70.3410 C   0  0  0  0  0  0  0  0  0  0  0  0
    5.2450   61.0910   71.7570 C   0  0  0  0  0  0  0  0  0  0  0  0
    4.3100   60.1180   72.4670 C   0  0  0  0  0  0  0  0  0  0  0  0
    3.0120   60.7850   72.7310 N   0  0  0  0  0  4  0  0  0  0  0  0
    2.9820   61.9350   73.4470 C   0  0  0  0  0  0  0  0  0  0  0  0
    1.7780   62.5810   73.7000 C   0  0  0  0  0  0  0  0  0  0  0  0
    0.5980   62.0390   73.2110 C   0  0  0  0  0  0  0  0  0  0  0  0
    0.6430   60.8610   72.4760 C   0  0  0  0  0  0  0  0  0  0  0  0
    1.8680   60.2470   72.2460 C   0  0  0  0  0  0  0  0  0  0  0  0
    2.8103   65.3364   69.7148 H   0  0  0  0  0  0  0  0  0  0  0  0
    2.9199   64.7201   71.4510 H   0  0  0  0  0  0  0  0  0  0  0  0
    0.4966   63.8029   70.2908 H   0  0  0  0  0  0  0  0  0  0  0  0
    0.8210   64.9508   71.7013 H   0  0  0  0  0  0  0  0  0  0  0  0
   -0.1741   65.4807   68.9884 H   0  0  0  0  0  0  0  0  0  0  0  0
   -0.3720   66.3566   70.6100 H   0  0  0  0  0  0  0  0  0  0  0  0
    1.2525   67.7959   70.2162 H   0  0  0  0  0  0  0  0  0  0  0  0
    2.2139   66.5736   69.2323 H   0  0  0  0  0  0  0  0  0  0  0  0
    1.3113   67.1952   67.2816 H   0  0  0  0  0  0  0  0  0  0  0  0
   -0.2763   67.6661   68.0596 H   0  0  0  0  0  0  0  0  0  0  0  0
    0.4084   69.7517   67.5248 H   0  0  0  0  0  0  0  0  0  0  0  0
    1.3142   69.5938   69.0649 H   0  0  0  0  0  0  0  0  0  0  0  0
    1.6914   68.4260   65.5515 H   0  0  0  0  0  0  0  0  0  0  0  0
    3.8186   68.6544   64.2792 H   0  0  0  0  0  0  0  0  0  0  0  0
    5.8016   69.7109   65.3751 H   0  0  0  0  0  0  0  0  0  0  0  0
    5.6132   70.5190   67.7308 H   0  0  0  0  0  0  0  0  0  0  0  0
    3.4589   70.2615   68.9497 H   0  0  0  0  0  0  0  0  0  0  0  0
    2.3827   62.4463   70.4955 H   0  0  0  0  0  0  0  0  0  0  0  0
    2.8245   63.2166   68.8763 H   0  0  0  0  0  0  0  0  0  0  0  0
    5.0193   63.2920   69.3277 H   0  0  0  0  0  0  0  0  0  0  0  0
    4.7443   63.3934   71.1321 H   0  0  0  0  0  0  0  0  0  0  0  0
    3.8420   60.8387   70.1365 H   0  0  0  0  0  0  0  0  0  0  0  0
    5.5506   61.1450   69.6284 H   0  0  0  0  0  0  0  0  0  0  0  0
    6.2471   60.6416   71.6950 H   0  0  0  0  0  0  0  0  0  0  0  0
    5.2682   62.0273   72.3338 H   0  0  0  0  0  0  0  0  0  0  0  0
    4.1464   59.2358   71.8306 H   0  0  0  0  0  0  0  0  0  0  0  0
    4.7617   59.8036   73.4195 H   0  0  0  0  0  0  0  0  0  0  0  0
    3.9201   62.3615   73.8318 H   0  0  0  0  0  0  0  0  0  0  0  0
    1.7605   63.5138   74.2828 H   0  0  0  0  0  0  0  0  0  0  0  0
   -0.3637   62.5372   73.4034 H   0  0  0  0  0  0  0  0  0  0  0  0
   -0.2828   60.4184   72.0797 H   0  0  0  0  0  0  0  0  0  0  0  0
    1.9089   59.3144   71.6640 H   0  0  0  0  0  0  0  0  0  0  0  0
  2  1  1  0
  3  2  1  0
  4  3  1  0
  5  4  1  0
  6  5  1  0
  7  6  1  0
  8  7  2  0
  9  8  1  0
 10  9  2  0
 11 10  1  0
 12 11  2  0
 12  7  1  0
 13  1  1  0
 14 13  1  0
 15 14  1  0
 16 15  1  0
 17 16  1  0
 18 17  1  0
 19 18  2  0
 20 19  1  0
 21 20  2  0
 22 21  1  0
 23 22  2  0
 23 18  1  0
  1 24  1  0
  1 25  1  0
  2 26  1  0
  2 27  1  0
  3 28  1  0
  3 29  1  0
  4 30  1  0
  4 31  1  0
  5 32  1  0
  5 33  1  0
  6 34  1  0
  6 35  1  0
  8 36  1  0
  9 37  1  0
 10 38  1  0
 11 39  1  0
 12 40  1  0
 13 41  1  0
 13 42  1  0
 14 43  1  0
 14 44  1  0
 15 45  1  0
 15 46  1  0
 16 47  1  0
 16 48  1  0
 17 49  1  0
 17 50  1  0
 19 51  1  0
 20 52  1  0
 21 53  1  0
 22 54  1  0
 23 55  1  0
M  CHG  2   7   1  18   1
M  END
>  <score>  (9) 
-7.724

$$$$
