=
     RDKit          3D

 49 51  0  0  0  0  0  0  0  0999 V2000
    2.9820   61.8690   73.2150 C   0  0  0  0  0  0  0  0  0  0  0  0
    1.8600   62.7020   73.2730 C   0  0  0  0  0  0  0  0  0  0  0  0
    1.6180   63.5280   72.1910 C   0  0  0  0  0  0  0  0  0  0  0  0
    2.4360   63.5620   71.0640 C   0  0  0  0  0  0  0  0  0  0  0  0
    3.5510   62.7410   70.9910 C   0  0  0  0  0  0  0  0  0  0  0  0
    3.8300   61.8870   72.0710 C   0  0  0  0  0  0  0  0  0  0  0  0
    1.9400   64.5440   70.0440 C   0  0  0  0  0  0  0  0  0  0  0  0
    0.7100   65.1320   70.6880 C   0  0  0  0  0  0  0  0  0  0  0  0
   -0.1300   66.0930   70.2790 C   0  0  0  0  0  0  0  0  0  0  0  0
    0.5220   64.4840   72.0240 C   0  0  0  0  0  0  0  0  0  0  0  0
   -0.3590   64.7180   72.8250 O   0  0  0  0  0  0  0  0  0  0  0  0
   -0.0170   66.8260   69.0170 C   0  0  0  0  0  0  0  0  0  0  0  0
   -1.0520   66.8410   68.0800 C   0  0  0  0  0  0  0  0  0  0  0  0
   -0.9210   67.5720   66.8990 C   0  0  0  0  0  0  0  0  0  0  0  0
    0.2390   68.3080   66.6520 C   0  0  0  0  0  0  0  0  0  0  0  0
    1.2810   68.3200   67.5910 C   0  0  0  0  0  0  0  0  0  0  0  0
    1.1430   67.5720   68.7710 C   0  0  0  0  0  0  0  0  0  0  0  0
    2.5150   69.1490   67.3540 C   0  0  0  0  0  0  0  0  0  0  0  0
    3.0540   69.0230   65.9450 N   0  0  0  0  0  4  0  0  0  0  0  0
    2.9540   67.6140   65.4390 C   0  0  0  0  0  0  0  0  0  0  0  0
    4.4500   69.5640   65.7980 C   0  0  0  0  0  0  0  0  0  0  0  0
    2.3170   60.4570   75.0280 C   0  0  0  0  0  0  0  0  0  0  0  0
    3.3470   60.9990   74.2130 O   0  0  0  0  0  0  0  0  0  0  0  0
    4.9040   61.0320   72.1170 O   0  0  0  0  0  0  0  0  0  0  0  0
    5.6590   60.8440   70.9290 C   0  0  0  0  0  0  0  0  0  0  0  0
    1.1938   62.7000   74.1483 H   0  0  0  0  0  0  0  0  0  0  0  0
    4.2036   62.7580   70.1057 H   0  0  0  0  0  0  0  0  0  0  0  0
    2.6923   65.3227   69.8500 H   0  0  0  0  0  0  0  0  0  0  0  0
    1.7317   64.0795   69.0689 H   0  0  0  0  0  0  0  0  0  0  0  0
   -0.9686   66.3506   70.9426 H   0  0  0  0  0  0  0  0  0  0  0  0
   -1.9745   66.2741   68.2738 H   0  0  0  0  0  0  0  0  0  0  0  0
   -1.7352   67.5683   66.1594 H   0  0  0  0  0  0  0  0  0  0  0  0
    0.3364   68.8806   65.7178 H   0  0  0  0  0  0  0  0  0  0  0  0
    1.9561   67.5717   69.5119 H   0  0  0  0  0  0  0  0  0  0  0  0
    2.2688   70.2046   67.5415 H   0  0  0  0  0  0  0  0  0  0  0  0
    3.2941   68.7799   68.0372 H   0  0  0  0  0  0  0  0  0  0  0  0
    2.4520   69.6142   65.3543 H   0  0  0  0  0  0  0  0  0  0  0  0
    2.9048   66.9208   66.2917 H   0  0  0  0  0  0  0  0  0  0  0  0
    2.0461   67.5077   64.8272 H   0  0  0  0  0  0  0  0  0  0  0  0
    3.8378   67.3805   64.8272 H   0  0  0  0  0  0  0  0  0  0  0  0
    4.8847   69.7325   66.7943 H   0  0  0  0  0  0  0  0  0  0  0  0
    5.0676   68.8401   65.2461 H   0  0  0  0  0  0  0  0  0  0  0  0
    4.4185   70.5150   65.2461 H   0  0  0  0  0  0  0  0  0  0  0  0
    2.5776   60.5941   76.0878 H   0  0  0  0  0  0  0  0  0  0  0  0
    1.3697   60.9734   74.8136 H   0  0  0  0  0  0  0  0  0  0  0  0
    2.2062   59.3838   74.8136 H   0  0  0  0  0  0  0  0  0  0  0  0
    6.6958   60.5858   71.1905 H   0  0  0  0  0  0  0  0  0  0  0  0
    5.2160   60.0287   70.3382 H   0  0  0  0  0  0  0  0  0  0  0  0
    5.6500   61.7718   70.3382 H   0  0  0  0  0  0  0  0  0  0  0  0
  2  1  2  0
  3  2  1  0
  4  3  2  0
  5  4  1  0
  6  5  2  0
  6  1  1  0
  7  4  1  0
  8  7  1  0
  9  8  2  0
 10  8  1  0
 10  3  1  0
 11 10  2  0
 12  9  1  0
 13 12  2  0
 14 13  1  0
 15 14  2  0
 16 15  1  0
 17 16  2  0
 17 12  1  0
 18 16  1  0
 19 18  1  0
 20 19  1  0
 21 19  1  0
 23 22  1  0
 23  1  1  0
 24  6  1  0
 25 24  1  0
  2 26  1  0
  5 27  1  0
  7 28  1  0
  7 29  1  0
  9 30  1  0
 13 31  1  0
 14 32  1  0
 15 33  1  0
 17 34  1  0
 18 35  1  0
 18 36  1  0
 19 37  1  0
 20 38  1  0
 20 39  1  0
 20 40  1  0
 21 41  1  0
 21 42  1  0
 21 43  1  0
 22 44  1  0
 22 45  1  0
 22 46  1  0
 25 47  1  0
 25 48  1  0
 25 49  1  0
M  CHG  1  19   1
M  END
>  <score>  (1) 
-9.23

$$$$
=
     RDKit          3D

 49 51  0  0  0  0  0  0  0  0999 V2000
    2.3880   60.3810   73.0020 C   0  0  0  0  0  0  0  0  0  0  0  0
    1.5090   61.4270   73.3000 C   0  0  0  0  0  0  0  0  0  0  0  0
    1.3820   62.4420   72.3700 C   0  0  0  0  0  0  0  0  0  0  0  0
    2.0860   62.4640   71.1690 C   0  0  0  0  0  0  0  0  0  0  0  0
    2.9610   61.4350   70.8580 C   0  0  0  0  0  0  0  0  0  0  0  0
    3.1160   60.3840   71.7770 C   0  0  0  0  0  0  0  0  0  0  0  0
    1.7560   63.6780   70.3510 C   0  0  0  0  0  0  0  0  0  0  0  0
    0.7620   64.4220   71.2070 C   0  0  0  0  0  0  0  0  0  0  0  0
    0.1470   65.5990   71.0290 C   0  0  0  0  0  0  0  0  0  0  0  0
    0.5380   63.6350   72.4600 C   0  0  0  0  0  0  0  0  0  0  0  0
   -0.1910   63.9350   73.3830 O   0  0  0  0  0  0  0  0  0  0  0  0
    0.3260   66.4730   69.8680 C   0  0  0  0  0  0  0  0  0  0  0  0
    1.4940   67.2160   69.6800 C   0  0  0  0  0  0  0  0  0  0  0  0
    1.6420   68.0170   68.5470 C   0  0  0  0  0  0  0  0  0  0  0  0
    0.6330   68.0700   67.5850 C   0  0  0  0  0  0  0  0  0  0  0  0
   -0.5380   67.3160   67.7480 C   0  0  0  0  0  0  0  0  0  0  0  0
   -0.6820   66.5200   68.8960 C   0  0  0  0  0  0  0  0  0  0  0  0
   -1.6110   67.3300   66.6920 C   0  0  0  0  0  0  0  0  0  0  0  0
   -1.7300   68.6630   65.9840 N   0  0  0  0  0  4  0  0  0  0  0  0
   -3.1480   68.9550   65.5910 C   0  0  0  0  0  0  0  0  0  0  0  0
   -0.7940   68.7950   64.8140 C   0  0  0  0  0  0  0  0  0  0  0  0
    1.6550   59.0340   74.8370 C   0  0  0  0  0  0  0  0  0  0  0  0
    2.6160   59.3080   73.8280 O   0  0  0  0  0  0  0  0  0  0  0  0
    3.9540   59.3120   71.5850 O   0  0  0  0  0  0  0  0  0  0  0  0
    3.5040   58.2550   70.7490 C   0  0  0  0  0  0  0  0  0  0  0  0
    0.9390   61.4417   74.2407 H   0  0  0  0  0  0  0  0  0  0  0  0
    3.5220   61.4413   69.9118 H   0  0  0  0  0  0  0  0  0  0  0  0
    2.6542   64.2873   70.1722 H   0  0  0  0  0  0  0  0  0  0  0  0
    1.3606   63.4283   69.3553 H   0  0  0  0  0  0  0  0  0  0  0  0
   -0.5454   65.9343   71.8153 H   0  0  0  0  0  0  0  0  0  0  0  0
    2.2996   67.1695   70.4275 H   0  0  0  0  0  0  0  0  0  0  0  0
    2.5588   68.6096   68.4117 H   0  0  0  0  0  0  0  0  0  0  0  0
    0.7564   68.7054   66.6956 H   0  0  0  0  0  0  0  0  0  0  0  0
   -1.5975   65.9260   69.0338 H   0  0  0  0  0  0  0  0  0  0  0  0
   -1.3776   66.5566   65.9454 H   0  0  0  0  0  0  0  0  0  0  0  0
   -2.5699   67.1396   67.1962 H   0  0  0  0  0  0  0  0  0  0  0  0
   -1.4384   69.3767   66.6669 H   0  0  0  0  0  0  0  0  0  0  0  0
   -3.7607   69.0812   66.4958 H   0  0  0  0  0  0  0  0  0  0  0  0
   -3.1804   69.8787   64.9945 H   0  0  0  0  0  0  0  0  0  0  0  0
   -3.5427   68.1193   64.9945 H   0  0  0  0  0  0  0  0  0  0  0  0
    0.2330   68.9398   65.1805 H   0  0  0  0  0  0  0  0  0  0  0  0
   -0.8398   67.8815   64.2029 H   0  0  0  0  0  0  0  0  0  0  0  0
   -1.0906   69.6602   64.2029 H   0  0  0  0  0  0  0  0  0  0  0  0
    2.1155   59.1653   75.8273 H   0  0  0  0  0  0  0  0  0  0  0  0
    0.8063   59.7260   74.7326 H   0  0  0  0  0  0  0  0  0  0  0  0
    1.2988   57.9985   74.7326 H   0  0  0  0  0  0  0  0  0  0  0  0
    3.1488   57.4208   71.3718 H   0  0  0  0  0  0  0  0  0  0  0  0
    2.6810   58.6148   70.1140 H   0  0  0  0  0  0  0  0  0  0  0  0
    4.3338   57.9111   70.1140 H   0  0  0  0  0  0  0  0  0  0  0  0
  2  1  2  0
  3  2  1  0
  4  3  2  0
  5  4  1  0
  6  5  2  0
  6  1  1  0
  7  4  1  0
  8  7  1  0
  9  8  2  0
 10  8  1  0
 10  3  1  0
 11 10  2  0
 12  9  1  0
 13 12  2  0
 14 13  1  0
 15 14  2  0
 16 15  1  0
 17 16  2  0
 17 12  1  0
 18 16  1  0
 19 18  1  0
 20 19  1  0
 21 19  1  0
 23 22  1  0
 23  1  1  0
 24  6  1  0
 25 24  1  0
  2 26  1  0
  5 27  1  0
  7 28  1  0
  7 29  1  0
  9 30  1  0
 13 31  1  0
 14 32  1  0
 15 33  1  0
 17 34  1  0
 18 35  1  0
 18 36  1  0
 19 37  1  0
 20 38  1  0
 20 39  1  0
 20 40  1  0
 21 41  1  0
 21 42  1  0
 21 43  1  0
 22 44  1  0
 22 45  1  0
 22 46  1  0
 25 47  1  0
 25 48  1  0
 25 49  1  0
M  CHG  1  19   1
M  END
>  <score>  (2) 
-8.794

$$$$
=
     RDKit          3D

 49 51  0  0  0  0  0  0  0  0999 V2000
    2.3820   61.8050   72.7840 C   0  0  0  0  0  0  0  0  0  0  0  0
    1.3980   62.7930   72.6870 C   0  0  0  0  0  0  0  0  0  0  0  0
    1.5440   63.7470   71.6980 C   0  0  0  0  0  0  0  0  0  0  0  0
    2.6160   63.7640   70.8100 C   0  0  0  0  0  0  0  0  0  0  0  0
    3.6010   62.7900   70.8930 C   0  0  0  0  0  0  0  0  0  0  0  0
    3.4870   61.8020   71.8850 C   0  0  0  0  0  0  0  0  0  0  0  0
    2.5230   64.9060   69.8420 C   0  0  0  0  0  0  0  0  0  0  0  0
    1.2550   65.6130   70.2500 C   0  0  0  0  0  0  0  0  0  0  0  0
    0.6750   66.7280   69.7860 C   0  0  0  0  0  0  0  0  0  0  0  0
    0.6560   64.8750   71.4060 C   0  0  0  0  0  0  0  0  0  0  0  0
   -0.3620   65.1640   72.0000 O   0  0  0  0  0  0  0  0  0  0  0  0
    1.1950   67.5540   68.6950 C   0  0  0  0  0  0  0  0  0  0  0  0
    2.0080   68.6640   68.9360 C   0  0  0  0  0  0  0  0  0  0  0  0
    2.5100   69.4120   67.8700 C   0  0  0  0  0  0  0  0  0  0  0  0
    2.2170   69.0480   66.5550 C   0  0  0  0  0  0  0  0  0  0  0  0
    1.4180   67.9250   66.2940 C   0  0  0  0  0  0  0  0  0  0  0  0
    0.9110   67.1850   67.3740 C   0  0  0  0  0  0  0  0  0  0  0  0
    1.1380   67.4980   64.8790 C   0  0  0  0  0  0  0  0  0  0  0  0
    1.3850   68.5960   63.8670 N   0  0  0  0  0  4  0  0  0  0  0  0
    0.1310   68.9590   63.1270 C   0  0  0  0  0  0  0  0  0  0  0  0
    2.5120   68.2820   62.9210 C   0  0  0  0  0  0  0  0  0  0  0  0
    1.8340   61.0850   74.9990 C   0  0  0  0  0  0  0  0  0  0  0  0
    2.3700   60.7950   73.7160 O   0  0  0  0  0  0  0  0  0  0  0  0
    4.3970   60.7900   72.0690 O   0  0  0  0  0  0  0  0  0  0  0  0
    5.6490   60.8890   71.4060 C   0  0  0  0  0  0  0  0  0  0  0  0
    0.5384   62.8105   73.3732 H   0  0  0  0  0  0  0  0  0  0  0  0
    4.4527   62.7916   70.1969 H   0  0  0  0  0  0  0  0  0  0  0  0
    3.3926   65.5730   69.9365 H   0  0  0  0  0  0  0  0  0  0  0  0
    2.5107   64.5772   68.7924 H   0  0  0  0  0  0  0  0  0  0  0  0
   -0.2642   67.0473   70.2614 H   0  0  0  0  0  0  0  0  0  0  0  0
    2.2534   68.9496   69.9695 H   0  0  0  0  0  0  0  0  0  0  0  0
    3.1394   70.2923   68.0672 H   0  0  0  0  0  0  0  0  0  0  0  0
    2.6141   69.6440   65.7200 H   0  0  0  0  0  0  0  0  0  0  0  0
    0.2822   66.3035   67.1801 H   0  0  0  0  0  0  0  0  0  0  0  0
    1.7885   66.6450   64.6356 H   0  0  0  0  0  0  0  0  0  0  0  0
    0.0719   67.2330   64.8215 H   0  0  0  0  0  0  0  0  0  0  0  0
    1.6827   69.4210   64.4071 H   0  0  0  0  0  0  0  0  0  0  0  0
   -0.6667   69.1899   63.8484 H   0  0  0  0  0  0  0  0  0  0  0  0
    0.3200   69.8393   62.4951 H   0  0  0  0  0  0  0  0  0  0  0  0
   -0.1795   68.1139   62.4951 H   0  0  0  0  0  0  0  0  0  0  0  0
    3.4148   68.0305   63.4969 H   0  0  0  0  0  0  0  0  0  0  0  0
    2.2315   67.4278   62.2872 H   0  0  0  0  0  0  0  0  0  0  0  0
    2.7136   69.1582   62.2872 H   0  0  0  0  0  0  0  0  0  0  0  0
    2.5196   60.7141   75.7752 H   0  0  0  0  0  0  0  0  0  0  0  0
    1.7111   62.1727   75.1077 H   0  0  0  0  0  0  0  0  0  0  0  0
    0.8563   60.5928   75.1077 H   0  0  0  0  0  0  0  0  0  0  0  0
    6.4549   60.9527   72.1520 H   0  0  0  0  0  0  0  0  0  0  0  0
    5.8017   60.0001   70.7763 H   0  0  0  0  0  0  0  0  0  0  0  0
    5.6601   61.7908   70.7763 H   0  0  0  0  0  0  0  0  0  0  0  0
  2  1  2  0
  3  2  1  0
  4  3  2  0
  5  4  1  0
  6  5  2  0
  6  1  1  0
  7  4  1  0
  8  7  1  0
  9  8  2  0
 10  8  1  0
 10  3  1  0
 11 10  2  0
 12  9  1  0
 13 12  2  0
 14 13  1  0
 15 14  2  0
 16 15  1  0
 17 16  2  0
 17 12  1  0
 18 16  1  0
 19 18  1  0
 20 19  1  0
 21 19  1  0
 23 22  1  0
 23  1  1  0
 24  6  1  0
 25 24  1  0
  2 26  1  0
  5 27  1  0
  7 28  1  0
  7 29  1  0
  9 30  1  0
 13 31  1  0
 14 32  1  0
 15 33  1  0
 17 34  1  0
 18 35  1  0
 18 36  1  0
 19 37  1  0
 20 38  1  0
 20 39  1  0
 20 40  1  0
 21 41  1  0
 21 42  1  0
 21 43  1  0
 22 44  1  0
 22 45  1  0
 22 46  1  0
 25 47  1  0
 25 48  1  0
 25 49  1  0
M  CHG  1  19   1
M  END
>  <score>  (3) 
-8.73

$$$$
=
     RDKit          3D

 49 51  0  0  0  0  0  0  0  0999 V2000
    1.3760   63.6780   70.7870 C   0  0  0  0  0  0  0  0  0  0  0  0
    0.2990   63.2010   71.5400 C   0  0  0  0  0  0  0  0  0  0  0  0
    0.4160   61.9430   72.1000 C   0  0  0  0  0  0  0  0  0  0  0  0
    1.5460   61.1450   71.9450 C   0  0  0  0  0  0  0  0  0  0  0  0
    2.6240   61.6040   71.2020 C   0  0  0  0  0  0  0  0  0  0  0  0
    2.5430   62.8780   70.6180 C   0  0  0  0  0  0  0  0  0  0  0  0
    1.4050   59.8320   72.6580 C   0  0  0  0  0  0  0  0  0  0  0  0
    0.0280   59.9080   73.2700 C   0  0  0  0  0  0  0  0  0  0  0  0
   -0.6730   59.0170   73.9830 C   0  0  0  0  0  0  0  0  0  0  0  0
   -0.5720   61.2320   72.9150 C   0  0  0  0  0  0  0  0  0  0  0  0
   -1.6730   61.6350   73.2270 O   0  0  0  0  0  0  0  0  0  0  0  0
   -0.2060   57.6790   74.3480 C   0  0  0  0  0  0  0  0  0  0  0  0
   -0.5780   56.5460   73.6200 C   0  0  0  0  0  0  0  0  0  0  0  0
   -0.0920   55.2880   73.9790 C   0  0  0  0  0  0  0  0  0  0  0  0
    0.7840   55.1540   75.0570 C   0  0  0  0  0  0  0  0  0  0  0  0
    1.1840   56.2830   75.7880 C   0  0  0  0  0  0  0  0  0  0  0  0
    0.6800   57.5430   75.4240 C   0  0  0  0  0  0  0  0  0  0  0  0
    2.1640   56.1530   76.9220 C   0  0  0  0  0  0  0  0  0  0  0  0
    3.0960   57.3410   77.0400 N   0  0  0  0  0  4  0  0  0  0  0  0
    4.4110   57.0820   76.3650 C   0  0  0  0  0  0  0  0  0  0  0  0
    3.2860   57.8010   78.4600 C   0  0  0  0  0  0  0  0  0  0  0  0
    0.3460   65.8120   70.4600 C   0  0  0  0  0  0  0  0  0  0  0  0
    1.4020   64.9070   70.1720 O   0  0  0  0  0  0  0  0  0  0  0  0
    3.5400   63.4410   69.8590 O   0  0  0  0  0  0  0  0  0  0  0  0
    3.8040   62.8790   68.5810 C   0  0  0  0  0  0  0  0  0  0  0  0
   -0.6091   63.8054   71.6817 H   0  0  0  0  0  0  0  0  0  0  0  0
    3.5228   60.9830   71.0733 H   0  0  0  0  0  0  0  0  0  0  0  0
    1.4752   58.9917   71.9516 H   0  0  0  0  0  0  0  0  0  0  0  0
    2.1959   59.6629   73.4036 H   0  0  0  0  0  0  0  0  0  0  0  0
   -1.6771   59.3138   74.3202 H   0  0  0  0  0  0  0  0  0  0  0  0
   -1.2568   56.6460   72.7602 H   0  0  0  0  0  0  0  0  0  0  0  0
   -0.4006   54.3986   73.4100 H   0  0  0  0  0  0  0  0  0  0  0  0
    1.1625   54.1592   75.3348 H   0  0  0  0  0  0  0  0  0  0  0  0
    0.9854   58.4344   75.9917 H   0  0  0  0  0  0  0  0  0  0  0  0
    1.6010   56.0548   77.8619 H   0  0  0  0  0  0  0  0  0  0  0  0
    2.7846   55.2676   76.7197 H   0  0  0  0  0  0  0  0  0  0  0  0
    2.6346   58.1171   76.5443 H   0  0  0  0  0  0  0  0  0  0  0  0
    5.1900   56.9286   77.1263 H   0  0  0  0  0  0  0  0  0  0  0  0
    4.3299   56.1826   75.7369 H   0  0  0  0  0  0  0  0  0  0  0  0
    4.6770   57.9450   75.7369 H   0  0  0  0  0  0  0  0  0  0  0  0
    2.9587   57.0085   79.1491 H   0  0  0  0  0  0  0  0  0  0  0  0
    4.3492   58.0225   78.6345 H   0  0  0  0  0  0  0  0  0  0  0  0
    2.6890   58.7083   78.6345 H   0  0  0  0  0  0  0  0  0  0  0  0
    0.2331   65.9088   71.5499 H   0  0  0  0  0  0  0  0  0  0  0  0
    0.5780   66.7960   70.0266 H   0  0  0  0  0  0  0  0  0  0  0  0
   -0.5909   65.4321   70.0266 H   0  0  0  0  0  0  0  0  0  0  0  0
    4.2687   61.8897   68.7044 H   0  0  0  0  0  0  0  0  0  0  0  0
    2.8609   62.7743   68.0246 H   0  0  0  0  0  0  0  0  0  0  0  0
    4.4867   63.5380   68.0246 H   0  0  0  0  0  0  0  0  0  0  0  0
  2  1  2  0
  3  2  1  0
  4  3  2  0
  5  4  1  0
  6  5  2  0
  6  1  1  0
  7  4  1  0
  8  7  1  0
  9  8  2  0
 10  8  1  0
 10  3  1  0
 11 10  2  0
 12  9  1  0
 13 12  2  0
 14 13  1  0
 15 14  2  0
 16 15  1  0
 17 16  2  0
 17 12  1  0
 18 16  1  0
 19 18  1  0
 20 19  1  0
 21 19  1  0
 23 22  1  0
 23  1  1  0
 24  6  1  0
 25 24  1  0
  2 26  1  0
  5 27  1  0
  7 28  1  0
  7 29  1  0
  9 30  1  0
 13 31  1  0
 14 32  1  0
 15 33  1  0
 17 34  1  0
 18 35  1  0
 18 36  1  0
 19 37  1  0
 20 38  1  0
 20 39  1  0
 20 40  1  0
 21 41  1  0
 21 42  1  0
 21 43  1  0
 22 44  1  0
 22 45  1  0
 22 46  1  0
 25 47  1  0
 25 48  1  0
 25 49  1  0
M  CHG  1  19   1
M  END
>  <score>  (4) 
-8.005

$$$$
=
     RDKit          3D

 49 51  0  0  0  0  0  0  0  0999 V2000
    0.9620   63.6170   70.5770 C   0  0  0  0  0  0  0  0  0  0  0  0
    0.0600   63.0210   71.4630 C   0  0  0  0  0  0  0  0  0  0  0  0
    0.4200   61.8120   72.0270 C   0  0  0  0  0  0  0  0  0  0  0  0
    1.6260   61.1730   71.7500 C   0  0  0  0  0  0  0  0  0  0  0  0
    2.5320   61.7520   70.8730 C   0  0  0  0  0  0  0  0  0  0  0  0
    2.2030   62.9820   70.2810 C   0  0  0  0  0  0  0  0  0  0  0  0
    1.7590   59.8800   72.4980 C   0  0  0  0  0  0  0  0  0  0  0  0
    0.4670   59.7840   73.2710 C   0  0  0  0  0  0  0  0  0  0  0  0
   -0.0120   58.8300   74.0800 C   0  0  0  0  0  0  0  0  0  0  0  0
   -0.3530   60.9990   72.9680 C   0  0  0  0  0  0  0  0  0  0  0  0
   -1.4560   61.2550   73.4050 O   0  0  0  0  0  0  0  0  0  0  0  0
    0.6810   57.5830   74.4080 C   0  0  0  0  0  0  0  0  0  0  0  0
    1.8850   57.5740   75.1160 C   0  0  0  0  0  0  0  0  0  0  0  0
    2.5040   56.3660   75.4360 C   0  0  0  0  0  0  0  0  0  0  0  0
    1.9170   55.1550   75.0670 C   0  0  0  0  0  0  0  0  0  0  0  0
    0.6980   55.1430   74.3720 C   0  0  0  0  0  0  0  0  0  0  0  0
    0.0890   56.3660   74.0470 C   0  0  0  0  0  0  0  0  0  0  0  0
    0.0350   53.8410   74.0120 C   0  0  0  0  0  0  0  0  0  0  0  0
   -0.4460   53.0660   75.2200 N   0  0  0  0  0  4  0  0  0  0  0  0
    0.3790   51.8340   75.4510 C   0  0  0  0  0  0  0  0  0  0  0  0
   -1.9150   52.7440   75.1680 C   0  0  0  0  0  0  0  0  0  0  0  0
    0.2020   65.8810   70.7110 C   0  0  0  0  0  0  0  0  0  0  0  0
    0.7400   64.8150   69.9420 O   0  0  0  0  0  0  0  0  0  0  0  0
    3.0140   63.6510   69.3970 O   0  0  0  0  0  0  0  0  0  0  0  0
    3.7420   62.8850   68.4490 C   0  0  0  0  0  0  0  0  0  0  0  0
   -0.9021   63.4974   71.7027 H   0  0  0  0  0  0  0  0  0  0  0  0
    3.4882   61.2577   70.6462 H   0  0  0  0  0  0  0  0  0  0  0  0
    1.8652   59.0335   71.8036 H   0  0  0  0  0  0  0  0  0  0  0  0
    2.6480   59.8496   73.1451 H   0  0  0  0  0  0  0  0  0  0  0  0
   -1.0009   58.9961   74.5321 H   0  0  0  0  0  0  0  0  0  0  0  0
    2.3470   58.5240   75.4225 H   0  0  0  0  0  0  0  0  0  0  0  0
    3.4591   56.3678   75.9817 H   0  0  0  0  0  0  0  0  0  0  0  0
    2.4117   54.2062   75.3219 H   0  0  0  0  0  0  0  0  0  0  0  0
   -0.8661   56.3682   73.5014 H   0  0  0  0  0  0  0  0  0  0  0  0
   -0.8295   54.0551   73.3664 H   0  0  0  0  0  0  0  0  0  0  0  0
    0.7863   53.2203   73.5018 H   0  0  0  0  0  0  0  0  0  0  0  0
   -0.3164   53.6897   76.0294 H   0  0  0  0  0  0  0  0  0  0  0  0
    0.4918   51.6656   76.5322 H   0  0  0  0  0  0  0  0  0  0  0  0
   -0.1213   50.9669   74.9951 H   0  0  0  0  0  0  0  0  0  0  0  0
    1.3713   51.9664   74.9951 H   0  0  0  0  0  0  0  0  0  0  0  0
   -2.3080   52.6579   76.1918 H   0  0  0  0  0  0  0  0  0  0  0  0
   -2.4478   53.5467   74.6371 H   0  0  0  0  0  0  0  0  0  0  0  0
   -2.0631   51.7921   74.6371 H   0  0  0  0  0  0  0  0  0  0  0  0
    0.3161   65.6549   71.7814 H   0  0  0  0  0  0  0  0  0  0  0  0
    0.7384   66.8115   70.4736 H   0  0  0  0  0  0  0  0  0  0  0  0
   -0.8652   66.0022   70.4736 H   0  0  0  0  0  0  0  0  0  0  0  0
    4.4071   62.1852   68.9761 H   0  0  0  0  0  0  0  0  0  0  0  0
    3.0405   62.3194   67.8182 H   0  0  0  0  0  0  0  0  0  0  0  0
    4.3425   63.5569   67.8182 H   0  0  0  0  0  0  0  0  0  0  0  0
  2  1  2  0
  3  2  1  0
  4  3  2  0
  5  4  1  0
  6  5  2  0
  6  1  1  0
  7  4  1  0
  8  7  1  0
  9  8  2  0
 10  8  1  0
 10  3  1  0
 11 10  2  0
 12  9  1  0
 13 12  2  0
 14 13  1  0
 15 14  2  0
 16 15  1  0
 17 16  2  0
 17 12  1  0
 18 16  1  0
 19 18  1  0
 20 19  1  0
 21 19  1  0
 23 22  1  0
 23  1  1  0
 24  6  1  0
 25 24  1  0
  2 26  1  0
  5 27  1  0
  7 28  1  0
  7 29  1  0
  9 30  1  0
 13 31  1  0
 14 32  1  0
 15 33  1  0
 17 34  1  0
 18 35  1  0
 18 36  1  0
 19 37  1  0
 20 38  1  0
 20 39  1  0
 20 40  1  0
 21 41  1  0
 21 42  1  0
 21 43  1  0
 22 44  1  0
 22 45  1  0
 22 46  1  0
 25 47  1  0
 25 48  1  0
 25 49  1  0
M  CHG  1  19   1
M  END
>  <score>  (5) 
-7.968

$$$$
=
     RDKit          3D

 49 51  0  0  0  0  0  0  0  0999 V2000
    0.6370   69.0730   64.4050 C   0  0  0  0  0  0  0  0  0  0  0  0
   -0.3400   68.7080   65.3360 C   0  0  0  0  0  0  0  0  0  0  0  0
    0.0610   67.9610   66.4270 C   0  0  0  0  0  0  0  0  0  0  0  0
    1.3800   67.5620   66.6310 C   0  0  0  0  0  0  0  0  0  0  0  0
    2.3610   67.9160   65.7170 C   0  0  0  0  0  0  0  0  0  0  0  0
    1.9920   68.6770   64.5960 C   0  0  0  0  0  0  0  0  0  0  0  0
    1.5340   66.7650   67.8930 C   0  0  0  0  0  0  0  0  0  0  0  0
    0.1310   66.7040   68.4460 C   0  0  0  0  0  0  0  0  0  0  0  0
   -0.3680   66.0890   69.5260 C   0  0  0  0  0  0  0  0  0  0  0  0
   -0.7720   67.4580   67.5210 C   0  0  0  0  0  0  0  0  0  0  0  0
   -1.9700   67.6110   67.6440 O   0  0  0  0  0  0  0  0  0  0  0  0
    0.4120   65.2880   70.4710 C   0  0  0  0  0  0  0  0  0  0  0  0
   -0.0690   64.9780   71.7460 C   0  0  0  0  0  0  0  0  0  0  0  0
    0.6890   64.1880   72.6110 C   0  0  0  0  0  0  0  0  0  0  0  0
    1.9270   63.6880   72.2040 C   0  0  0  0  0  0  0  0  0  0  0  0
    2.4180   63.9720   70.9210 C   0  0  0  0  0  0  0  0  0  0  0  0
    1.6500   64.7760   70.0620 C   0  0  0  0  0  0  0  0  0  0  0  0
    3.7280   63.3970   70.4580 C   0  0  0  0  0  0  0  0  0  0  0  0
    3.9080   61.9440   70.8420 N   0  0  0  0  0  4  0  0  0  0  0  0
    5.2450   61.7010   71.4770 C   0  0  0  0  0  0  0  0  0  0  0  0
    3.6600   60.9970   69.6990 C   0  0  0  0  0  0  0  0  0  0  0  0
   -0.3090   69.1790   62.2110 C   0  0  0  0  0  0  0  0  0  0  0  0
    0.3860   69.8130   63.2750 O   0  0  0  0  0  0  0  0  0  0  0  0
    2.8700   69.0860   63.6220 O   0  0  0  0  0  0  0  0  0  0  0  0
    4.2550   69.1060   63.9380 C   0  0  0  0  0  0  0  0  0  0  0  0
   -1.3909   69.0051   65.2046 H   0  0  0  0  0  0  0  0  0  0  0  0
    3.4061   67.6072   65.8669 H   0  0  0  0  0  0  0  0  0  0  0  0
    1.9153   65.7562   67.6766 H   0  0  0  0  0  0  0  0  0  0  0  0
    2.2522   67.2117   68.5963 H   0  0  0  0  0  0  0  0  0  0  0  0
   -1.4461   66.1937   69.7176 H   0  0  0  0  0  0  0  0  0  0  0  0
   -1.0493   65.3584   72.0690 H   0  0  0  0  0  0  0  0  0  0  0  0
    0.3095   63.9583   73.6176 H   0  0  0  0  0  0  0  0  0  0  0  0
    2.5204   63.0684   72.8925 H   0  0  0  0  0  0  0  0  0  0  0  0
    2.0261   65.0066   69.0544 H   0  0  0  0  0  0  0  0  0  0  0  0
    3.7781   63.4782   69.3621 H   0  0  0  0  0  0  0  0  0  0  0  0
    4.5289   63.9679   70.9506 H   0  0  0  0  0  0  0  0  0  0  0  0
    3.1832   61.7428   71.5456 H   0  0  0  0  0  0  0  0  0  0  0  0
    5.1399   61.7201   72.5718 H   0  0  0  0  0  0  0  0  0  0  0  0
    5.6272   60.7187   71.1624 H   0  0  0  0  0  0  0  0  0  0  0  0
    5.9484   62.4860   71.1624 H   0  0  0  0  0  0  0  0  0  0  0  0
    3.4000   60.0043   70.0951 H   0  0  0  0  0  0  0  0  0  0  0  0
    2.8305   61.3748   69.0832 H   0  0  0  0  0  0  0  0  0  0  0  0
    4.5682   60.9197   69.0832 H   0  0  0  0  0  0  0  0  0  0  0  0
   -1.0624   68.4917   62.6233 H   0  0  0  0  0  0  0  0  0  0  0  0
   -0.8067   69.9407   61.5928 H   0  0  0  0  0  0  0  0  0  0  0  0
    0.4039   68.6136   61.5928 H   0  0  0  0  0  0  0  0  0  0  0  0
    4.3818   69.1078   65.0307 H   0  0  0  0  0  0  0  0  0  0  0  0
    4.7407   68.2148   63.5140 H   0  0  0  0  0  0  0  0  0  0  0  0
    4.7148   70.0109   63.5140 H   0  0  0  0  0  0  0  0  0  0  0  0
  2  1  2  0
  3  2  1  0
  4  3  2  0
  5  4  1  0
  6  5  2  0
  6  1  1  0
  7  4  1  0
  8  7  1  0
  9  8  2  0
 10  8  1  0
 10  3  1  0
 11 10  2  0
 12  9  1  0
 13 12  2  0
 14 13  1  0
 15 14  2  0
 16 15  1  0
 17 16  2  0
 17 12  1  0
 18 16  1  0
 19 18  1  0
 20 19  1  0
 21 19  1  0
 23 22  1  0
 23  1  1  0
 24  6  1  0
 25 24  1  0
  2 26  1  0
  5 27  1  0
  7 28  1  0
  7 29  1  0
  9 30  1  0
 13 31  1  0
 14 32  1  0
 15 33  1  0
 17 34  1  0
 18 35  1  0
 18 36  1  0
 19 37  1  0
 20 38  1  0
 20 39  1  0
 20 40  1  0
 21 41  1  0
 21 42  1  0
 21 43  1  0
 22 44  1  0
 22 45  1  0
 22 46  1  0
 25 47  1  0
 25 48  1  0
 25 49  1  0
M  CHG  1  19   1
M  END
>  <score>  (6) 
-7.836

$$$$
=
     RDKit          3D

 49 51  0  0  0  0  0  0  0  0999 V2000
    2.7280   60.6050   71.4380 C   0  0  0  0  0  0  0  0  0  0  0  0
    2.0350   59.7680   72.3180 C   0  0  0  0  0  0  0  0  0  0  0  0
    0.7980   60.1930   72.7650 C   0  0  0  0  0  0  0  0  0  0  0  0
    0.2250   61.4020   72.3800 C   0  0  0  0  0  0  0  0  0  0  0  0
    0.8990   62.2430   71.5080 C   0  0  0  0  0  0  0  0  0  0  0  0
    2.1590   61.8450   71.0300 C   0  0  0  0  0  0  0  0  0  0  0  0
   -1.1200   61.6090   73.0120 C   0  0  0  0  0  0  0  0  0  0  0  0
   -1.3080   60.3740   73.8570 C   0  0  0  0  0  0  0  0  0  0  0  0
   -2.2940   60.0120   74.6890 C   0  0  0  0  0  0  0  0  0  0  0  0
   -0.1050   59.5000   73.6880 C   0  0  0  0  0  0  0  0  0  0  0  0
    0.0940   58.4300   74.2250 O   0  0  0  0  0  0  0  0  0  0  0  0
   -3.4920   60.8070   74.9660 C   0  0  0  0  0  0  0  0  0  0  0  0
   -3.4430   61.9610   75.7510 C   0  0  0  0  0  0  0  0  0  0  0  0
   -4.5990   62.7100   75.9730 C   0  0  0  0  0  0  0  0  0  0  0  0
   -5.8100   62.3220   75.3980 C   0  0  0  0  0  0  0  0  0  0  0  0
   -5.8750   61.1760   74.5910 C   0  0  0  0  0  0  0  0  0  0  0  0
   -4.7070   60.4240   74.3830 C   0  0  0  0  0  0  0  0  0  0  0  0
   -7.1660   60.7780   73.9290 C   0  0  0  0  0  0  0  0  0  0  0  0
   -8.2490   61.8260   74.0610 N   0  0  0  0  0  4  0  0  0  0  0  0
   -9.3490   61.3730   74.9770 C   0  0  0  0  0  0  0  0  0  0  0  0
   -8.7900   62.2860   72.7350 C   0  0  0  0  0  0  0  0  0  0  0  0
    5.0990   60.5160   71.7440 C   0  0  0  0  0  0  0  0  0  0  0  0
    3.9640   60.3150   70.9130 O   0  0  0  0  0  0  0  0  0  0  0  0
    2.9240   62.5910   70.1660 O   0  0  0  0  0  0  0  0  0  0  0  0
    3.4140   63.8440   70.6210 C   0  0  0  0  0  0  0  0  0  0  0  0
    2.4588   58.8063   72.6427 H   0  0  0  0  0  0  0  0  0  0  0  0
    0.4570   63.2011   71.1970 H   0  0  0  0  0  0  0  0  0  0  0  0
   -1.1261   62.5157   73.6347 H   0  0  0  0  0  0  0  0  0  0  0  0
   -1.9229   61.7479   72.2731 H   0  0  0  0  0  0  0  0  0  0  0  0
   -2.1960   59.0443   75.2028 H   0  0  0  0  0  0  0  0  0  0  0  0
   -2.4892   62.2807   76.1961 H   0  0  0  0  0  0  0  0  0  0  0  0
   -4.5557   63.6101   76.6039 H   0  0  0  0  0  0  0  0  0  0  0  0
   -6.7174   62.9171   75.5782 H   0  0  0  0  0  0  0  0  0  0  0  0
   -4.7468   59.5224   73.7540 H   0  0  0  0  0  0  0  0  0  0  0  0
   -6.9728   60.6071   72.8597 H   0  0  0  0  0  0  0  0  0  0  0  0
   -7.5262   59.8691   74.4331 H   0  0  0  0  0  0  0  0  0  0  0  0
   -7.7997   62.6480   74.4892 H   0  0  0  0  0  0  0  0  0  0  0  0
   -9.0326   61.5033   76.0224 H   0  0  0  0  0  0  0  0  0  0  0  0
  -10.2522   61.9724   74.7898 H   0  0  0  0  0  0  0  0  0  0  0  0
   -9.5682   60.3114   74.7898 H   0  0  0  0  0  0  0  0  0  0  0  0
   -9.6184   62.9903   72.9014 H   0  0  0  0  0  0  0  0  0  0  0  0
   -7.9918   62.7863   72.1670 H   0  0  0  0  0  0  0  0  0  0  0  0
   -9.1554   61.4178   72.1670 H   0  0  0  0  0  0  0  0  0  0  0  0
    4.7947   60.4621   72.7997 H   0  0  0  0  0  0  0  0  0  0  0  0
    5.8471   59.7364   71.5378 H   0  0  0  0  0  0  0  0  0  0  0  0
    5.5339   61.5051   71.5378 H   0  0  0  0  0  0  0  0  0  0  0  0
    3.4195   63.8581   71.7209 H   0  0  0  0  0  0  0  0  0  0  0  0
    4.4375   63.9951   70.2473 H   0  0  0  0  0  0  0  0  0  0  0  0
    2.7645   64.6493   70.2473 H   0  0  0  0  0  0  0  0  0  0  0  0
  2  1  2  0
  3  2  1  0
  4  3  2  0
  5  4  1  0
  6  5  2  0
  6  1  1  0
  7  4  1  0
  8  7  1  0
  9  8  2  0
 10  8  1  0
 10  3  1  0
 11 10  2  0
 12  9  1  0
 13 12  2  0
 14 13  1  0
 15 14  2  0
 16 15  1  0
 17 16  2  0
 17 12  1  0
 18 16  1  0
 19 18  1  0
 20 19  1  0
 21 19  1  0
 23 22  1  0
 23  1  1  0
 24  6  1  0
 25 24  1  0
  2 26  1  0
  5 27  1  0
  7 28  1  0
  7 29  1  0
  9 30  1  0
 13 31  1  0
 14 32  1  0
 15 33  1  0
 17 34  1  0
 18 35  1  0
 18 36  1  0
 19 37  1  0
 20 38  1  0
 20 39  1  0
 20 40  1  0
 21 41  1  0
 21 42  1  0
 21 43  1  0
 22 44  1  0
 22 45  1  0
 22 46  1  0
 25 47  1  0
 25 48  1  0
 25 49  1  0
M  CHG  1  19   1
M  END
>  <score>  (7) 
-7.732

$$$$
=
     RDKit          3D

 49 51  0  0  0  0  0  0  0  0999 V2000
    2.5590   60.7270   71.7170 C   0  0  0  0  0  0  0  0  0  0  0  0
    1.8190   59.8690   72.5350 C   0  0  0  0  0  0  0  0  0  0  0  0
    0.5440   60.2660   72.8930 C   0  0  0  0  0  0  0  0  0  0  0  0
   -0.0220   61.4690   72.4780 C   0  0  0  0  0  0  0  0  0  0  0  0
    0.7000   62.3310   71.6660 C   0  0  0  0  0  0  0  0  0  0  0  0
    1.9990   61.9620   71.2800 C   0  0  0  0  0  0  0  0  0  0  0  0
   -1.4130   61.6450   73.0110 C   0  0  0  0  0  0  0  0  0  0  0  0
   -1.6400   60.3970   73.8280 C   0  0  0  0  0  0  0  0  0  0  0  0
   -2.6780   60.0090   74.5800 C   0  0  0  0  0  0  0  0  0  0  0  0
   -0.4110   59.5470   73.7390 C   0  0  0  0  0  0  0  0  0  0  0  0
   -0.2320   58.4750   74.2790 O   0  0  0  0  0  0  0  0  0  0  0  0
   -3.9070   60.7790   74.7760 C   0  0  0  0  0  0  0  0  0  0  0  0
   -5.1510   60.2990   74.3590 C   0  0  0  0  0  0  0  0  0  0  0  0
   -6.3060   61.0470   74.5860 C   0  0  0  0  0  0  0  0  0  0  0  0
   -6.2310   62.2730   75.2480 C   0  0  0  0  0  0  0  0  0  0  0  0
   -4.9940   62.7620   75.6920 C   0  0  0  0  0  0  0  0  0  0  0  0
   -3.8360   62.0050   75.4490 C   0  0  0  0  0  0  0  0  0  0  0  0
   -4.9110   64.0600   76.4480 C   0  0  0  0  0  0  0  0  0  0  0  0
   -4.5390   65.2370   75.5710 N   0  0  0  0  0  4  0  0  0  0  0  0
   -3.5960   66.1720   76.2700 C   0  0  0  0  0  0  0  0  0  0  0  0
   -5.7360   65.9660   75.0230 C   0  0  0  0  0  0  0  0  0  0  0  0
    4.8800   60.4940   72.2440 C   0  0  0  0  0  0  0  0  0  0  0  0
    3.8360   60.4660   71.2820 O   0  0  0  0  0  0  0  0  0  0  0  0
    2.8110   62.7310   70.4820 O   0  0  0  0  0  0  0  0  0  0  0  0
    2.6440   64.1410   70.5220 C   0  0  0  0  0  0  0  0  0  0  0  0
    2.2360   58.9120   72.8817 H   0  0  0  0  0  0  0  0  0  0  0  0
    0.2643   63.2839   71.3313 H   0  0  0  0  0  0  0  0  0  0  0  0
   -1.4816   62.5445   73.6405 H   0  0  0  0  0  0  0  0  0  0  0  0
   -2.1618   61.7779   72.2162 H   0  0  0  0  0  0  0  0  0  0  0  0
   -2.6009   59.0371   75.0894 H   0  0  0  0  0  0  0  0  0  0  0  0
   -5.2198   59.3266   73.8493 H   0  0  0  0  0  0  0  0  0  0  0  0
   -7.2800   60.6690   74.2418 H   0  0  0  0  0  0  0  0  0  0  0  0
   -7.1459   62.8583   75.4223 H   0  0  0  0  0  0  0  0  0  0  0  0
   -2.8605   62.3802   75.7919 H   0  0  0  0  0  0  0  0  0  0  0  0
   -5.8905   64.2611   76.9064 H   0  0  0  0  0  0  0  0  0  0  0  0
   -4.1175   63.9497   77.2018 H   0  0  0  0  0  0  0  0  0  0  0  0
   -4.0458   64.8424   74.7574 H   0  0  0  0  0  0  0  0  0  0  0  0
   -3.7086   66.0603   77.3585 H   0  0  0  0  0  0  0  0  0  0  0  0
   -2.5617   65.9327   75.9819 H   0  0  0  0  0  0  0  0  0  0  0  0
   -3.8265   67.2083   75.9819 H   0  0  0  0  0  0  0  0  0  0  0  0
   -6.3502   66.3401   75.8554 H   0  0  0  0  0  0  0  0  0  0  0  0
   -5.3992   66.8125   74.4065 H   0  0  0  0  0  0  0  0  0  0  0  0
   -6.3336   65.2783   74.4065 H   0  0  0  0  0  0  0  0  0  0  0  0
    4.4472   60.4824   73.2552 H   0  0  0  0  0  0  0  0  0  0  0  0
    5.5249   59.6128   72.1110 H   0  0  0  0  0  0  0  0  0  0  0  0
    5.4767   61.4085   72.1110 H   0  0  0  0  0  0  0  0  0  0  0  0
    2.6043   64.4760   71.5690 H   0  0  0  0  0  0  0  0  0  0  0  0
    3.4911   64.6251   70.0140 H   0  0  0  0  0  0  0  0  0  0  0  0
    1.7073   64.4138   70.0140 H   0  0  0  0  0  0  0  0  0  0  0  0
  2  1  2  0
  3  2  1  0
  4  3  2  0
  5  4  1  0
  6  5  2  0
  6  1  1  0
  7  4  1  0
  8  7  1  0
  9  8  2  0
 10  8  1  0
 10  3  1  0
 11 10  2  0
 12  9  1  0
 13 12  2  0
 14 13  1  0
 15 14  2  0
 16 15  1  0
 17 16  2  0
 17 12  1  0
 18 16  1  0
 19 18  1  0
 20 19  1  0
 21 19  1  0
 23 22  1  0
 23  1  1  0
 24  6  1  0
 25 24  1  0
  2 26  1  0
  5 27  1  0
  7 28  1  0
  7 29  1  0
  9 30  1  0
 13 31  1  0
 14 32  1  0
 15 33  1  0
 17 34  1  0
 18 35  1  0
 18 36  1  0
 19 37  1  0
 20 38  1  0
 20 39  1  0
 20 40  1  0
 21 41  1  0
 21 42  1  0
 21 43  1  0
 22 44  1  0
 22 45  1  0
 22 46  1  0
 25 47  1  0
 25 48  1  0
 25 49  1  0
M  CHG  1  19   1
M  END
>  <score>  (8) 
-7.689

$$$$
=
     RDKit          3D

 49 51  0  0  0  0  0  0  0  0999 V2000
    3.0330   62.6790   69.5620 C   0  0  0  0  0  0  0  0  0  0  0  0
    3.4130   61.3340   69.5680 C   0  0  0  0  0  0  0  0  0  0  0  0
    2.9340   60.5370   70.5910 C   0  0  0  0  0  0  0  0  0  0  0  0
    2.1030   61.0160   71.6010 C   0  0  0  0  0  0  0  0  0  0  0  0
    1.7160   62.3480   71.6080 C   0  0  0  0  0  0  0  0  0  0  0  0
    2.1820   63.1890   70.5840 C   0  0  0  0  0  0  0  0  0  0  0  0
    1.7330   59.9390   72.5780 C   0  0  0  0  0  0  0  0  0  0  0  0
    2.4560   58.7230   72.0540 C   0  0  0  0  0  0  0  0  0  0  0  0
    2.5470   57.4740   72.5300 C   0  0  0  0  0  0  0  0  0  0  0  0
    3.1960   59.1140   70.8130 C   0  0  0  0  0  0  0  0  0  0  0  0
    3.8950   58.3940   70.1300 O   0  0  0  0  0  0  0  0  0  0  0  0
    1.9060   56.9940   73.7560 C   0  0  0  0  0  0  0  0  0  0  0  0
    2.4770   57.2000   75.0140 C   0  0  0  0  0  0  0  0  0  0  0  0
    1.8250   56.7540   76.1640 C   0  0  0  0  0  0  0  0  0  0  0  0
    0.5890   56.1130   76.0670 C   0  0  0  0  0  0  0  0  0  0  0  0
   -0.0090   55.9140   74.8140 C   0  0  0  0  0  0  0  0  0  0  0  0
    0.6610   56.3590   73.6630 C   0  0  0  0  0  0  0  0  0  0  0  0
   -1.3630   55.2670   74.7060 C   0  0  0  0  0  0  0  0  0  0  0  0
   -2.1030   55.2130   76.0250 N   0  0  0  0  0  4  0  0  0  0  0  0
   -2.6290   53.8360   76.3080 C   0  0  0  0  0  0  0  0  0  0  0  0
   -3.1860   56.2510   76.1370 C   0  0  0  0  0  0  0  0  0  0  0  0
    3.8110   63.0870   67.3370 C   0  0  0  0  0  0  0  0  0  0  0  0
    3.4310   63.5870   68.6110 O   0  0  0  0  0  0  0  0  0  0  0  0
    1.8720   64.5230   70.4850 O   0  0  0  0  0  0  0  0  0  0  0  0
    0.5640   64.9340   70.8560 C   0  0  0  0  0  0  0  0  0  0  0  0
    4.0698   60.9242   68.7866 H   0  0  0  0  0  0  0  0  0  0  0  0
    1.0580   62.7375   72.3988 H   0  0  0  0  0  0  0  0  0  0  0  0
    2.0757   60.1934   73.5918 H   0  0  0  0  0  0  0  0  0  0  0  0
    0.6462   59.7891   72.6585 H   0  0  0  0  0  0  0  0  0  0  0  0
    3.1491   56.7542   71.9561 H   0  0  0  0  0  0  0  0  0  0  0  0
    3.4448   57.7160   75.0984 H   0  0  0  0  0  0  0  0  0  0  0  0
    2.2866   56.9081   77.1505 H   0  0  0  0  0  0  0  0  0  0  0  0
    0.0814   55.7622   76.9776 H   0  0  0  0  0  0  0  0  0  0  0  0
    0.2019   56.2069   72.6750 H   0  0  0  0  0  0  0  0  0  0  0  0
   -1.9684   55.8401   73.9883 H   0  0  0  0  0  0  0  0  0  0  0  0
   -1.2050   54.2295   74.3763 H   0  0  0  0  0  0  0  0  0  0  0  0
   -1.4093   55.4417   76.7512 H   0  0  0  0  0  0  0  0  0  0  0  0
   -2.6877   53.6823   77.3956 H   0  0  0  0  0  0  0  0  0  0  0  0
   -3.6314   53.7288   75.8679 H   0  0  0  0  0  0  0  0  0  0  0  0
   -1.9534   53.0878   75.8679 H   0  0  0  0  0  0  0  0  0  0  0  0
   -3.3942   56.4506   77.1985 H   0  0  0  0  0  0  0  0  0  0  0  0
   -2.8564   57.1791   75.6472 H   0  0  0  0  0  0  0  0  0  0  0  0
   -4.0993   55.8823   75.6472 H   0  0  0  0  0  0  0  0  0  0  0  0
    4.4720   62.2173   67.4667 H   0  0  0  0  0  0  0  0  0  0  0  0
    2.9126   62.7848   66.7788 H   0  0  0  0  0  0  0  0  0  0  0  0
    4.3427   63.8717   66.7788 H   0  0  0  0  0  0  0  0  0  0  0  0
    0.4848   64.9589   71.9529 H   0  0  0  0  0  0  0  0  0  0  0  0
    0.3664   65.9375   70.4512 H   0  0  0  0  0  0  0  0  0  0  0  0
   -0.1721   64.2239   70.4512 H   0  0  0  0  0  0  0  0  0  0  0  0
  2  1  2  0
  3  2  1  0
  4  3  2  0
  5  4  1  0
  6  5  2  0
  6  1  1  0
  7  4  1  0
  8  7  1  0
  9  8  2  0
 10  8  1  0
 10  3  1  0
 11 10  2  0
 12  9  1  0
 13 12  2  0
 14 13  1  0
 15 14  2  0
 16 15  1  0
 17 16  2  0
 17 12  1  0
 18 16  1  0
 19 18  1  0
 20 19  1  0
 21 19  1  0
 23 22  1  0
 23  1  1  0
 24  6  1  0
 25 24  1  0
  2 26  1  0
  5 27  1  0
  7 28  1  0
  7 29  1  0
  9 30  1  0
 13 31  1  0
 14 32  1  0
 15 33  1  0
 17 34  1  0
 18 35  1  0
 18 36  1  0
 19 37  1  0
 20 38  1  0
 20 39  1  0
 20 40  1  0
 21 41  1  0
 21 42  1  0
 21 43  1  0
 22 44  1  0
 22 45  1  0
 22 46  1  0
 25 47  1  0
 25 48  1  0
 25 49  1  0
M  CHG  1  19   1
M  END
>  <score>  (9) 
-7.559

$$$$
