=
     RDKit          3D

 54 57  0  0  0  0  0  0  0  0999 V2000
    2.2570   68.7240   64.5190 C   0  0  1  0  0  0  0  0  0  0  0  0
    0.7500   68.6090   64.2730 C   0  0  0  0  0  0  0  0  0  0  0  0
    0.2380   68.6550   65.6850 C   0  0  0  0  0  0  0  0  0  0  0  0
    1.1340   68.9100   66.5910 N   0  0  0  0  0  0  0  0  0  0  0  0
    2.3450   68.9910   65.9600 N   0  0  0  0  0  0  0  0  0  0  0  0
    4.4310   65.1290   63.3640 C   0  0  0  0  0  0  0  0  0  0  0  0
    3.5470   65.1210   64.4400 C   0  0  0  0  0  0  0  0  0  0  0  0
    2.8620   66.2900   64.7970 C   0  0  0  0  0  0  0  0  0  0  0  0
    3.0310   67.4890   64.0800 C   0  0  0  0  0  0  0  0  0  0  0  0
    3.9200   67.4740   62.9950 C   0  0  0  0  0  0  0  0  0  0  0  0
    4.6220   66.3120   62.6520 C   0  0  0  0  0  0  0  0  0  0  0  0
    5.0340   62.8450   63.6340 C   0  0  0  0  0  0  0  0  0  0  0  0
    5.1680   64.0660   62.9200 O   0  0  0  0  0  0  0  0  0  0  0  0
    4.1840   68.6300   62.3100 O   0  0  0  0  0  0  0  0  0  0  0  0
    5.5470   69.0240   62.4830 C   0  0  0  0  0  0  0  0  0  0  0  0
    3.4580   69.4580   66.6560 C   0  0  0  0  0  0  0  0  0  0  0  0
    3.3990   69.8720   67.9960 C   0  0  0  0  0  0  0  0  0  0  0  0
    4.5330   70.3390   68.6750 C   0  0  0  0  0  0  0  0  0  0  0  0
    5.7580   70.3930   68.0130 C   0  0  0  0  0  0  0  0  0  0  0  0
    5.8560   70.0040   66.6810 C   0  0  0  0  0  0  0  0  0  0  0  0
    4.7140   69.5370   66.0220 C   0  0  0  0  0  0  0  0  0  0  0  0
    7.1920   70.9780   68.8700 S   0  0  0  0  0  6  0  0  0  0  0  0
    7.2650   72.4120   68.7250 O   0  0  0  0  0  0  0  0  0  0  0  0
    8.3040   70.1080   68.5600 O   0  0  0  0  0  0  0  0  0  0  0  0
    6.7840   70.6410   70.4710 N   0  0  0  0  0  0  0  0  0  0  0  0
   -1.1970   68.4590   66.0010 C   0  0  0  0  0  0  0  0  0  0  0  0
   -1.5480   67.6410   67.0830 C   0  0  0  0  0  0  0  0  0  0  0  0
   -2.8900   67.4370   67.4050 C   0  0  0  0  0  0  0  0  0  0  0  0
   -3.8890   68.0490   66.6490 C   0  0  0  0  0  0  0  0  0  0  0  0
   -3.5470   68.8630   65.5710 C   0  0  0  0  0  0  0  0  0  0  0  0
   -2.2030   69.0700   65.2450 C   0  0  0  0  0  0  0  0  0  0  0  0
    2.7255   69.5180   63.9190 H   0  0  0  0  0  0  0  0  0  0  0  0
    0.3705   69.4512   63.6758 H   0  0  0  0  0  0  0  0  0  0  0  0
    0.4450   67.7187   63.7035 H   0  0  0  0  0  0  0  0  0  0  0  0
    3.3861   64.1947   65.0110 H   0  0  0  0  0  0  0  0  0  0  0  0
    2.1766   66.2701   65.6572 H   0  0  0  0  0  0  0  0  0  0  0  0
    5.3317   66.3330   61.8118 H   0  0  0  0  0  0  0  0  0  0  0  0
    5.0563   63.0480   64.7149 H   0  0  0  0  0  0  0  0  0  0  0  0
    4.0782   62.3688   63.3700 H   0  0  0  0  0  0  0  0  0  0  0  0
    5.8638   62.1729   63.3700 H   0  0  0  0  0  0  0  0  0  0  0  0
    5.7761   69.0902   63.5568 H   0  0  0  0  0  0  0  0  0  0  0  0
    6.2064   68.2797   62.0126 H   0  0  0  0  0  0  0  0  0  0  0  0
    5.7075   70.0053   62.0126 H   0  0  0  0  0  0  0  0  0  0  0  0
    2.4370   69.8288   68.5276 H   0  0  0  0  0  0  0  0  0  0  0  0
    4.4563   70.6609   69.7241 H   0  0  0  0  0  0  0  0  0  0  0  0
    6.8191   70.0629   66.1528 H   0  0  0  0  0  0  0  0  0  0  0  0
    4.7994   69.2203   64.9720 H   0  0  0  0  0  0  0  0  0  0  0  0
    7.4118   71.1596   71.1017 H   0  0  0  0  0  0  0  0  0  0  0  0
    5.8099   70.9272   70.6446 H   0  0  0  0  0  0  0  0  0  0  0  0
   -0.7618   67.1574   67.6814 H   0  0  0  0  0  0  0  0  0  0  0  0
   -3.1600   66.7934   68.2552 H   0  0  0  0  0  0  0  0  0  0  0  0
   -4.9471   67.8892   66.9036 H   0  0  0  0  0  0  0  0  0  0  0  0
   -4.3364   69.3441   64.9748 H   0  0  0  0  0  0  0  0  0  0  0  0
   -1.9367   69.7136   64.3936 H   0  0  0  0  0  0  0  0  0  0  0  0
  2  1  1  0
  3  2  1  0
  4  3  2  0
  5  1  1  0
  5  4  1  0
  7  6  2  0
  8  7  1  0
  9  8  2  0
  9  1  1  0
 10  9  1  0
 11  6  1  0
 11 10  2  0
 13 12  1  0
 13  6  1  0
 14 10  1  0
 15 14  1  0
 16  5  1  0
 17 16  2  0
 18 17  1  0
 19 18  2  0
 20 19  1  0
 21 16  1  0
 21 20  2  0
 22 19  1  0
 23 22  2  0
 24 22  2  0
 25 22  1  0
 26  3  1  0
 27 26  2  0
 28 27  1  0
 29 28  2  0
 30 29  1  0
 31 30  2  0
 31 26  1  0
  1 32  1  6
  2 33  1  0
  2 34  1  0
  7 35  1  0
  8 36  1  0
 11 37  1  0
 12 38  1  0
 12 39  1  0
 12 40  1  0
 15 41  1  0
 15 42  1  0
 15 43  1  0
 17 44  1  0
 18 45  1  0
 20 46  1  0
 21 47  1  0
 25 48  1  0
 25 49  1  0
 27 50  1  0
 28 51  1  0
 29 52  1  0
 30 53  1  0
 31 54  1  0
M  END
>  <score>  (1) 
-9.408

$$$$
=
     RDKit          3D

 54 57  0  0  0  0  0  0  0  0999 V2000
    2.1380   63.8350   71.6780 C   0  0  1  0  0  0  0  0  0  0  0  0
    2.3050   64.9470   70.6390 C   0  0  0  0  0  0  0  0  0  0  0  0
    0.8690   65.3170   70.3990 C   0  0  0  0  0  0  0  0  0  0  0  0
    0.0100   64.7410   71.1860 N   0  0  0  0  0  0  0  0  0  0  0  0
    0.7020   63.8740   71.9850 N   0  0  0  0  0  0  0  0  0  0  0  0
    3.4740   59.9800   70.1490 C   0  0  0  0  0  0  0  0  0  0  0  0
    3.0290   60.9800   69.2880 C   0  0  0  0  0  0  0  0  0  0  0  0
    2.6000   62.2110   69.8020 C   0  0  0  0  0  0  0  0  0  0  0  0
    2.6170   62.4770   71.1840 C   0  0  0  0  0  0  0  0  0  0  0  0
    3.0760   61.4590   72.0330 C   0  0  0  0  0  0  0  0  0  0  0  0
    3.4840   60.2210   71.5210 C   0  0  0  0  0  0  0  0  0  0  0  0
    3.5420   57.6510   70.6230 C   0  0  0  0  0  0  0  0  0  0  0  0
    3.9060   58.7360   69.7810 O   0  0  0  0  0  0  0  0  0  0  0  0
    3.0420   61.6320   73.3910 O   0  0  0  0  0  0  0  0  0  0  0  0
    2.5310   60.4660   74.0400 C   0  0  0  0  0  0  0  0  0  0  0  0
    0.0640   63.2700   73.0670 C   0  0  0  0  0  0  0  0  0  0  0  0
    0.1450   63.7720   74.3750 C   0  0  0  0  0  0  0  0  0  0  0  0
   -0.5050   63.1460   75.4480 C   0  0  0  0  0  0  0  0  0  0  0  0
   -1.2600   61.9970   75.2190 C   0  0  0  0  0  0  0  0  0  0  0  0
   -1.3540   61.4600   73.9390 C   0  0  0  0  0  0  0  0  0  0  0  0
   -0.7010   62.1010   72.8810 C   0  0  0  0  0  0  0  0  0  0  0  0
   -2.0850   61.2070   76.5720 S   0  0  0  0  0  6  0  0  0  0  0  0
   -1.1740   61.1270   77.6880 O   0  0  0  0  0  0  0  0  0  0  0  0
   -2.8020   60.0580   76.0680 O   0  0  0  0  0  0  0  0  0  0  0  0
   -3.2670   62.3480   76.9510 N   0  0  0  0  0  0  0  0  0  0  0  0
    0.4790   66.2990   69.3600 C   0  0  0  0  0  0  0  0  0  0  0  0
    1.3980   67.2880   68.9820 C   0  0  0  0  0  0  0  0  0  0  0  0
    1.0600   68.2270   68.0060 C   0  0  0  0  0  0  0  0  0  0  0  0
   -0.1950   68.1830   67.4020 C   0  0  0  0  0  0  0  0  0  0  0  0
   -1.1130   67.2020   67.7720 C   0  0  0  0  0  0  0  0  0  0  0  0
   -0.7790   66.2600   68.7500 C   0  0  0  0  0  0  0  0  0  0  0  0
    2.7608   63.9915   72.5711 H   0  0  0  0  0  0  0  0  0  0  0  0
    2.8808   65.7941   71.0401 H   0  0  0  0  0  0  0  0  0  0  0  0
    2.8586   64.6505   69.7359 H   0  0  0  0  0  0  0  0  0  0  0  0
    3.0142   60.8032   68.2024 H   0  0  0  0  0  0  0  0  0  0  0  0
    2.2418   62.9871   69.1096 H   0  0  0  0  0  0  0  0  0  0  0  0
    3.8160   59.4302   72.2098 H   0  0  0  0  0  0  0  0  0  0  0  0
    3.6435   57.9537   71.6756 H   0  0  0  0  0  0  0  0  0  0  0  0
    2.4988   57.3653   70.4226 H   0  0  0  0  0  0  0  0  0  0  0  0
    4.2018   56.7940   70.4226 H   0  0  0  0  0  0  0  0  0  0  0  0
    2.5889   60.5982   75.1305 H   0  0  0  0  0  0  0  0  0  0  0  0
    1.4827   60.3116   73.7446 H   0  0  0  0  0  0  0  0  0  0  0  0
    3.1280   59.5906   73.7446 H   0  0  0  0  0  0  0  0  0  0  0  0
    0.7345   64.6814   74.5635 H   0  0  0  0  0  0  0  0  0  0  0  0
   -0.4197   63.5590   76.4640 H   0  0  0  0  0  0  0  0  0  0  0  0
   -1.9346   60.5428   73.7612 H   0  0  0  0  0  0  0  0  0  0  0  0
   -0.7875   61.6782   71.8692 H   0  0  0  0  0  0  0  0  0  0  0  0
   -3.3506   62.4287   77.9744 H   0  0  0  0  0  0  0  0  0  0  0  0
   -3.0021   63.2612   76.5551 H   0  0  0  0  0  0  0  0  0  0  0  0
    2.3897   67.3242   69.4566 H   0  0  0  0  0  0  0  0  0  0  0  0
    1.7843   69.0016   67.7137 H   0  0  0  0  0  0  0  0  0  0  0  0
   -0.4612   68.9229   66.6328 H   0  0  0  0  0  0  0  0  0  0  0  0
   -2.1029   67.1686   67.2935 H   0  0  0  0  0  0  0  0  0  0  0  0
   -1.5064   65.4875   69.0399 H   0  0  0  0  0  0  0  0  0  0  0  0
  2  1  1  0
  3  2  1  0
  4  3  2  0
  5  1  1  0
  5  4  1  0
  7  6  2  0
  8  7  1  0
  9  8  2  0
  9  1  1  0
 10  9  1  0
 11  6  1  0
 11 10  2  0
 13 12  1  0
 13  6  1  0
 14 10  1  0
 15 14  1  0
 16  5  1  0
 17 16  2  0
 18 17  1  0
 19 18  2  0
 20 19  1  0
 21 16  1  0
 21 20  2  0
 22 19  1  0
 23 22  2  0
 24 22  2  0
 25 22  1  0
 26  3  1  0
 27 26  2  0
 28 27  1  0
 29 28  2  0
 30 29  1  0
 31 30  2  0
 31 26  1  0
  1 32  1  1
  2 33  1  0
  2 34  1  0
  7 35  1  0
  8 36  1  0
 11 37  1  0
 12 38  1  0
 12 39  1  0
 12 40  1  0
 15 41  1  0
 15 42  1  0
 15 43  1  0
 17 44  1  0
 18 45  1  0
 20 46  1  0
 21 47  1  0
 25 48  1  0
 25 49  1  0
 27 50  1  0
 28 51  1  0
 29 52  1  0
 30 53  1  0
 31 54  1  0
M  END
>  <score>  (2) 
-8.725

$$$$
=
     RDKit          3D

 54 57  0  0  0  0  0  0  0  0999 V2000
    1.4840   59.7400   74.3020 C   0  0  1  0  0  0  0  0  0  0  0  0
    2.5880   60.4820   73.5450 C   0  0  0  0  0  0  0  0  0  0  0  0
    1.8150   60.9940   72.3630 C   0  0  0  0  0  0  0  0  0  0  0  0
    0.5320   60.7990   72.4150 N   0  0  0  0  0  0  0  0  0  0  0  0
    0.2690   60.0880   73.5530 N   0  0  0  0  0  0  0  0  0  0  0  0
    2.1450   55.4360   74.4660 C   0  0  0  0  0  0  0  0  0  0  0  0
    1.7780   56.0630   73.2780 C   0  0  0  0  0  0  0  0  0  0  0  0
    1.5660   57.4470   73.2490 C   0  0  0  0  0  0  0  0  0  0  0  0
    1.7290   58.2410   74.4000 C   0  0  0  0  0  0  0  0  0  0  0  0
    2.1050   57.5910   75.5850 C   0  0  0  0  0  0  0  0  0  0  0  0
    2.2950   56.2040   75.6190 C   0  0  0  0  0  0  0  0  0  0  0  0
    1.2940   53.3230   75.1470 C   0  0  0  0  0  0  0  0  0  0  0  0
    2.3690   54.0980   74.6340 O   0  0  0  0  0  0  0  0  0  0  0  0
    2.2020   58.2990   76.7530 O   0  0  0  0  0  0  0  0  0  0  0  0
    3.5650   58.4220   77.1630 C   0  0  0  0  0  0  0  0  0  0  0  0
   -1.0480   59.9130   73.9720 C   0  0  0  0  0  0  0  0  0  0  0  0
   -1.4700   58.7990   74.7130 C   0  0  0  0  0  0  0  0  0  0  0  0
   -2.8020   58.6450   75.1220 C   0  0  0  0  0  0  0  0  0  0  0  0
   -3.7390   59.6210   74.7950 C   0  0  0  0  0  0  0  0  0  0  0  0
   -3.3650   60.7350   74.0490 C   0  0  0  0  0  0  0  0  0  0  0  0
   -2.0300   60.8730   73.6530 C   0  0  0  0  0  0  0  0  0  0  0  0
   -5.4210   59.4320   75.3140 S   0  0  0  0  0  6  0  0  0  0  0  0
   -6.2780   60.0980   74.3630 O   0  0  0  0  0  0  0  0  0  0  0  0
   -5.4970   59.6780   76.7360 O   0  0  0  0  0  0  0  0  0  0  0  0
   -5.6400   57.7700   75.1290 N   0  0  0  0  0  0  0  0  0  0  0  0
    2.4800   61.7010   71.2430 C   0  0  0  0  0  0  0  0  0  0  0  0
    2.5230   63.1010   71.2540 C   0  0  0  0  0  0  0  0  0  0  0  0
    3.1420   63.7950   70.2130 C   0  0  0  0  0  0  0  0  0  0  0  0
    3.7220   63.0940   69.1570 C   0  0  0  0  0  0  0  0  0  0  0  0
    3.6830   61.7010   69.1390 C   0  0  0  0  0  0  0  0  0  0  0  0
    3.0640   61.0020   70.1800 C   0  0  0  0  0  0  0  0  0  0  0  0
    1.4218   60.0361   75.3596 H   0  0  0  0  0  0  0  0  0  0  0  0
    3.0076   61.3046   74.1427 H   0  0  0  0  0  0  0  0  0  0  0  0
    3.4615   59.8647   73.2882 H   0  0  0  0  0  0  0  0  0  0  0  0
    1.6543   55.4697   72.3600 H   0  0  0  0  0  0  0  0  0  0  0  0
    1.2651   57.9248   72.3049 H   0  0  0  0  0  0  0  0  0  0  0  0
    2.5657   55.7153   76.5666 H   0  0  0  0  0  0  0  0  0  0  0  0
    1.3203   53.3420   76.2465 H   0  0  0  0  0  0  0  0  0  0  0  0
    0.3395   53.7421   74.7958 H   0  0  0  0  0  0  0  0  0  0  0  0
    1.3900   52.2850   74.7958 H   0  0  0  0  0  0  0  0  0  0  0  0
    3.6184   58.4268   78.2617 H   0  0  0  0  0  0  0  0  0  0  0  0
    4.1438   57.5724   76.7715 H   0  0  0  0  0  0  0  0  0  0  0  0
    3.9823   59.3615   76.7715 H   0  0  0  0  0  0  0  0  0  0  0  0
   -0.7355   58.0251   74.9804 H   0  0  0  0  0  0  0  0  0  0  0  0
   -3.1049   57.7581   75.6979 H   0  0  0  0  0  0  0  0  0  0  0  0
   -4.1092   61.4970   73.7743 H   0  0  0  0  0  0  0  0  0  0  0  0
   -1.7368   61.7606   73.0732 H   0  0  0  0  0  0  0  0  0  0  0  0
   -5.6985   57.3261   76.0566 H   0  0  0  0  0  0  0  0  0  0  0  0
   -6.5114   57.5943   74.6087 H   0  0  0  0  0  0  0  0  0  0  0  0
    2.0668   63.6562   72.0869 H   0  0  0  0  0  0  0  0  0  0  0  0
    3.1721   64.8945   70.2260 H   0  0  0  0  0  0  0  0  0  0  0  0
    4.2109   63.6407   68.3372 H   0  0  0  0  0  0  0  0  0  0  0  0
    4.1402   61.1501   68.3039 H   0  0  0  0  0  0  0  0  0  0  0  0
    3.0360   59.9025   70.1636 H   0  0  0  0  0  0  0  0  0  0  0  0
  2  1  1  0
  3  2  1  0
  4  3  2  0
  5  1  1  0
  5  4  1  0
  7  6  2  0
  8  7  1  0
  9  8  2  0
  9  1  1  0
 10  9  1  0
 11  6  1  0
 11 10  2  0
 13 12  1  0
 13  6  1  0
 14 10  1  0
 15 14  1  0
 16  5  1  0
 17 16  2  0
 18 17  1  0
 19 18  2  0
 20 19  1  0
 21 16  1  0
 21 20  2  0
 22 19  1  0
 23 22  2  0
 24 22  2  0
 25 22  1  0
 26  3  1  0
 27 26  2  0
 28 27  1  0
 29 28  2  0
 30 29  1  0
 31 30  2  0
 31 26  1  0
  1 32  1  1
  2 33  1  0
  2 34  1  0
  7 35  1  0
  8 36  1  0
 11 37  1  0
 12 38  1  0
 12 39  1  0
 12 40  1  0
 15 41  1  0
 15 42  1  0
 15 43  1  0
 17 44  1  0
 18 45  1  0
 20 46  1  0
 21 47  1  0
 25 48  1  0
 25 49  1  0
 27 50  1  0
 28 51  1  0
 29 52  1  0
 30 53  1  0
 31 54  1  0
M  END
>  <score>  (3) 
-8.009

$$$$
=
     RDKit          3D

 54 57  0  0  0  0  0  0  0  0999 V2000
    1.9850   63.4490   71.9380 C   0  0  1  0  0  0  0  0  0  0  0  0
    2.2710   64.6180   70.9910 C   0  0  0  0  0  0  0  0  0  0  0  0
    0.8710   65.0340   70.6380 C   0  0  0  0  0  0  0  0  0  0  0  0
   -0.0690   64.4310   71.3010 N   0  0  0  0  0  0  0  0  0  0  0  0
    0.5270   63.5020   72.1080 N   0  0  0  0  0  0  0  0  0  0  0  0
    3.4370   59.5850   70.5440 C   0  0  0  0  0  0  0  0  0  0  0  0
    3.1590   59.8060   71.8900 C   0  0  0  0  0  0  0  0  0  0  0  0
    2.6980   61.0580   72.3170 C   0  0  0  0  0  0  0  0  0  0  0  0
    2.4880   62.1130   71.4090 C   0  0  0  0  0  0  0  0  0  0  0  0
    2.7660   61.8670   70.0570 C   0  0  0  0  0  0  0  0  0  0  0  0
    3.2500   60.6230   69.6340 C   0  0  0  0  0  0  0  0  0  0  0  0
    3.5050   57.2090   70.6290 C   0  0  0  0  0  0  0  0  0  0  0  0
    3.9020   58.4200   69.9990 O   0  0  0  0  0  0  0  0  0  0  0  0
    2.6570   62.8790   69.1400 O   0  0  0  0  0  0  0  0  0  0  0  0
    3.7250   62.8230   68.1910 C   0  0  0  0  0  0  0  0  0  0  0  0
   -0.2230   62.8480   73.0830 C   0  0  0  0  0  0  0  0  0  0  0  0
   -0.2020   63.2200   74.4370 C   0  0  0  0  0  0  0  0  0  0  0  0
   -0.9650   62.5460   75.4000 C   0  0  0  0  0  0  0  0  0  0  0  0
   -1.7750   61.4810   75.0140 C   0  0  0  0  0  0  0  0  0  0  0  0
   -1.8140   61.0720   73.6850 C   0  0  0  0  0  0  0  0  0  0  0  0
   -1.0480   61.7590   72.7380 C   0  0  0  0  0  0  0  0  0  0  0  0
   -2.7430   60.6310   76.2290 S   0  0  0  0  0  6  0  0  0  0  0  0
   -4.1390   60.8920   75.9740 O   0  0  0  0  0  0  0  0  0  0  0  0
   -2.1380   60.8310   77.5260 O   0  0  0  0  0  0  0  0  0  0  0  0
   -2.4380   59.0210   75.8290 N   0  0  0  0  0  0  0  0  0  0  0  0
    0.6010   66.0850   69.6290 C   0  0  0  0  0  0  0  0  0  0  0  0
   -0.6350   66.0920   68.9700 C   0  0  0  0  0  0  0  0  0  0  0  0
   -0.9190   67.0690   68.0150 C   0  0  0  0  0  0  0  0  0  0  0  0
    0.0300   68.0450   67.7130 C   0  0  0  0  0  0  0  0  0  0  0  0
    1.2630   68.0430   68.3640 C   0  0  0  0  0  0  0  0  0  0  0  0
    1.5510   67.0660   69.3220 C   0  0  0  0  0  0  0  0  0  0  0  0
    2.5202   63.5369   72.8950 H   0  0  0  0  0  0  0  0  0  0  0  0
    2.8191   65.4261   71.4975 H   0  0  0  0  0  0  0  0  0  0  0  0
    2.9049   64.3644   70.1285 H   0  0  0  0  0  0  0  0  0  0  0  0
    3.3017   58.9956   72.6200 H   0  0  0  0  0  0  0  0  0  0  0  0
    2.4955   61.2204   73.3859 H   0  0  0  0  0  0  0  0  0  0  0  0
    3.4852   60.4636   68.5713 H   0  0  0  0  0  0  0  0  0  0  0  0
    3.5458   57.3334   71.7212 H   0  0  0  0  0  0  0  0  0  0  0  0
    2.4776   56.9581   70.3266 H   0  0  0  0  0  0  0  0  0  0  0  0
    4.1845   56.3985   70.3266 H   0  0  0  0  0  0  0  0  0  0  0  0
    4.6863   62.7726   68.7234 H   0  0  0  0  0  0  0  0  0  0  0  0
    3.6082   61.9297   67.5598 H   0  0  0  0  0  0  0  0  0  0  0  0
    3.7022   63.7236   67.5598 H   0  0  0  0  0  0  0  0  0  0  0  0
    0.4307   64.0635   74.7502 H   0  0  0  0  0  0  0  0  0  0  0  0
   -0.9243   62.8563   76.4545 H   0  0  0  0  0  0  0  0  0  0  0  0
   -2.4394   60.2190   73.3828 H   0  0  0  0  0  0  0  0  0  0  0  0
   -1.0910   61.4380   71.6868 H   0  0  0  0  0  0  0  0  0  0  0  0
   -2.3331   58.4670   76.6910 H   0  0  0  0  0  0  0  0  0  0  0  0
   -3.2236   58.6499   75.2759 H   0  0  0  0  0  0  0  0  0  0  0  0
   -1.3856   65.3234   69.2065 H   0  0  0  0  0  0  0  0  0  0  0  0
   -1.8913   67.0692   67.5005 H   0  0  0  0  0  0  0  0  0  0  0  0
   -0.1940   68.8163   66.9614 H   0  0  0  0  0  0  0  0  0  0  0  0
    2.0114   68.8123   68.1232 H   0  0  0  0  0  0  0  0  0  0  0  0
    2.5243   67.0684   69.8345 H   0  0  0  0  0  0  0  0  0  0  0  0
  2  1  1  0
  3  2  1  0
  4  3  2  0
  5  1  1  0
  5  4  1  0
  7  6  2  0
  8  7  1  0
  9  8  2  0
  9  1  1  0
 10  9  1  0
 11  6  1  0
 11 10  2  0
 13 12  1  0
 13  6  1  0
 14 10  1  0
 15 14  1  0
 16  5  1  0
 17 16  2  0
 18 17  1  0
 19 18  2  0
 20 19  1  0
 21 16  1  0
 21 20  2  0
 22 19  1  0
 23 22  2  0
 24 22  2  0
 25 22  1  0
 26  3  1  0
 27 26  2  0
 28 27  1  0
 29 28  2  0
 30 29  1  0
 31 30  2  0
 31 26  1  0
  1 32  1  1
  2 33  1  0
  2 34  1  0
  7 35  1  0
  8 36  1  0
 11 37  1  0
 12 38  1  0
 12 39  1  0
 12 40  1  0
 15 41  1  0
 15 42  1  0
 15 43  1  0
 17 44  1  0
 18 45  1  0
 20 46  1  0
 21 47  1  0
 25 48  1  0
 25 49  1  0
 27 50  1  0
 28 51  1  0
 29 52  1  0
 30 53  1  0
 31 54  1  0
M  END
>  <score>  (4) 
-7.959

$$$$
=
     RDKit          3D

 54 57  0  0  0  0  0  0  0  0999 V2000
   -0.1170   60.7320   73.0610 C   0  0  1  0  0  0  0  0  0  0  0  0
    0.3970   61.8000   72.0930 C   0  0  0  0  0  0  0  0  0  0  0  0
    1.7210   61.2050   71.7050 C   0  0  0  0  0  0  0  0  0  0  0  0
    1.9390   60.0030   72.1480 N   0  0  0  0  0  0  0  0  0  0  0  0
    0.8740   59.6560   72.9330 N   0  0  0  0  0  0  0  0  0  0  0  0
   -0.4670   62.1620   77.1620 C   0  0  0  0  0  0  0  0  0  0  0  0
    0.7540   61.7250   76.6530 C   0  0  0  0  0  0  0  0  0  0  0  0
    0.8430   61.2650   75.3330 C   0  0  0  0  0  0  0  0  0  0  0  0
   -0.2810   61.2430   74.4850 C   0  0  0  0  0  0  0  0  0  0  0  0
   -1.4990   61.6940   75.0140 C   0  0  0  0  0  0  0  0  0  0  0  0
   -1.5920   62.1320   76.3410 C   0  0  0  0  0  0  0  0  0  0  0  0
   -1.6250   63.6830   78.5750 C   0  0  0  0  0  0  0  0  0  0  0  0
   -0.6920   62.6210   78.4300 O   0  0  0  0  0  0  0  0  0  0  0  0
   -2.6410   61.6210   74.2620 O   0  0  0  0  0  0  0  0  0  0  0  0
   -3.4740   60.5470   74.7030 C   0  0  0  0  0  0  0  0  0  0  0  0
    0.7400   58.3420   73.3760 C   0  0  0  0  0  0  0  0  0  0  0  0
   -0.4470   57.8430   73.9340 C   0  0  0  0  0  0  0  0  0  0  0  0
   -0.5570   56.5160   74.3730 C   0  0  0  0  0  0  0  0  0  0  0  0
    0.5340   55.6590   74.2520 C   0  0  0  0  0  0  0  0  0  0  0  0
    1.7340   56.1180   73.7170 C   0  0  0  0  0  0  0  0  0  0  0  0
    1.8230   57.4440   73.2810 C   0  0  0  0  0  0  0  0  0  0  0  0
    0.3970   53.9820   74.8020 S   0  0  0  0  0  6  0  0  0  0  0  0
   -0.4900   53.2730   73.9110 O   0  0  0  0  0  0  0  0  0  0  0  0
    0.2240   53.9780   76.2370 O   0  0  0  0  0  0  0  0  0  0  0  0
    1.9620   53.4150   74.5320 N   0  0  0  0  0  0  0  0  0  0  0  0
    2.6830   61.9360   70.8460 C   0  0  0  0  0  0  0  0  0  0  0  0
    3.6480   62.7520   71.4500 C   0  0  0  0  0  0  0  0  0  0  0  0
    4.5670   63.4530   70.6680 C   0  0  0  0  0  0  0  0  0  0  0  0
    4.5280   63.3410   69.2790 C   0  0  0  0  0  0  0  0  0  0  0  0
    3.5700   62.5310   68.6710 C   0  0  0  0  0  0  0  0  0  0  0  0
    2.6470   61.8270   69.4510 C   0  0  0  0  0  0  0  0  0  0  0  0
   -1.1347   60.3928   72.8175 H   0  0  0  0  0  0  0  0  0  0  0  0
   -0.2674   61.9135   71.2237 H   0  0  0  0  0  0  0  0  0  0  0  0
    0.4570   62.8127   72.5182 H   0  0  0  0  0  0  0  0  0  0  0  0
    1.6509   61.7413   77.2897 H   0  0  0  0  0  0  0  0  0  0  0  0
    1.8124   60.9131   74.9503 H   0  0  0  0  0  0  0  0  0  0  0  0
   -2.5647   62.4561   76.7396 H   0  0  0  0  0  0  0  0  0  0  0  0
   -1.7959   63.8775   79.6441 H   0  0  0  0  0  0  0  0  0  0  0  0
   -1.2259   64.5896   78.0966 H   0  0  0  0  0  0  0  0  0  0  0  0
   -2.5754   63.4040   78.0966 H   0  0  0  0  0  0  0  0  0  0  0  0
   -3.4916   60.5243   75.8026 H   0  0  0  0  0  0  0  0  0  0  0  0
   -4.4955   60.6954   74.3229 H   0  0  0  0  0  0  0  0  0  0  0  0
   -3.0761   59.5945   74.3229 H   0  0  0  0  0  0  0  0  0  0  0  0
   -1.3153   58.5116   74.0296 H   0  0  0  0  0  0  0  0  0  0  0  0
   -1.4992   56.1541   74.8103 H   0  0  0  0  0  0  0  0  0  0  0  0
    2.6016   55.4464   73.6380 H   0  0  0  0  0  0  0  0  0  0  0  0
    2.7705   57.7985   72.8491 H   0  0  0  0  0  0  0  0  0  0  0  0
    2.4268   53.2466   75.4356 H   0  0  0  0  0  0  0  0  0  0  0  0
    1.9211   52.5353   73.9977 H   0  0  0  0  0  0  0  0  0  0  0  0
    3.6816   62.8407   72.5459 H   0  0  0  0  0  0  0  0  0  0  0  0
    5.3218   64.0936   71.1474 H   0  0  0  0  0  0  0  0  0  0  0  0
    5.2534   63.8920   68.6624 H   0  0  0  0  0  0  0  0  0  0  0  0
    3.5400   62.4454   67.5747 H   0  0  0  0  0  0  0  0  0  0  0  0
    1.8930   61.1878   68.9684 H   0  0  0  0  0  0  0  0  0  0  0  0
  2  1  1  0
  3  2  1  0
  4  3  2  0
  5  1  1  0
  5  4  1  0
  7  6  2  0
  8  7  1  0
  9  8  2  0
  9  1  1  0
 10  9  1  0
 11  6  1  0
 11 10  2  0
 13 12  1  0
 13  6  1  0
 14 10  1  0
 15 14  1  0
 16  5  1  0
 17 16  2  0
 18 17  1  0
 19 18  2  0
 20 19  1  0
 21 16  1  0
 21 20  2  0
 22 19  1  0
 23 22  2  0
 24 22  2  0
 25 22  1  0
 26  3  1  0
 27 26  2  0
 28 27  1  0
 29 28  2  0
 30 29  1  0
 31 30  2  0
 31 26  1  0
  1 32  1  6
  2 33  1  0
  2 34  1  0
  7 35  1  0
  8 36  1  0
 11 37  1  0
 12 38  1  0
 12 39  1  0
 12 40  1  0
 15 41  1  0
 15 42  1  0
 15 43  1  0
 17 44  1  0
 18 45  1  0
 20 46  1  0
 21 47  1  0
 25 48  1  0
 25 49  1  0
 27 50  1  0
 28 51  1  0
 29 52  1  0
 30 53  1  0
 31 54  1  0
M  END
>  <score>  (5) 
-7.795

$$$$
=
     RDKit          3D

 54 57  0  0  0  0  0  0  0  0999 V2000
   -0.4040   60.5470   72.8730 C   0  0  1  0  0  0  0  0  0  0  0  0
    0.2990   61.6230   72.0410 C   0  0  0  0  0  0  0  0  0  0  0  0
    1.7250   61.1600   72.1430 C   0  0  0  0  0  0  0  0  0  0  0  0
    1.8940   60.0100   72.7240 N   0  0  0  0  0  0  0  0  0  0  0  0
    0.6670   59.5820   73.1520 N   0  0  0  0  0  0  0  0  0  0  0  0
   -2.4150   62.0970   76.4150 C   0  0  0  0  0  0  0  0  0  0  0  0
   -3.1230   61.4230   75.4220 C   0  0  0  0  0  0  0  0  0  0  0  0
   -2.4570   60.9370   74.2890 C   0  0  0  0  0  0  0  0  0  0  0  0
   -1.0680   61.0990   74.1270 C   0  0  0  0  0  0  0  0  0  0  0  0
   -0.3730   61.7730   75.1420 C   0  0  0  0  0  0  0  0  0  0  0  0
   -1.0420   62.2790   76.2630 C   0  0  0  0  0  0  0  0  0  0  0  0
   -4.2650   63.1450   77.4800 C   0  0  0  0  0  0  0  0  0  0  0  0
   -2.9430   62.6290   77.5580 O   0  0  0  0  0  0  0  0  0  0  0  0
    0.9650   62.0290   75.0020 O   0  0  0  0  0  0  0  0  0  0  0  0
    1.2260   63.4320   75.0790 C   0  0  0  0  0  0  0  0  0  0  0  0
    0.5160   58.2810   73.6280 C   0  0  0  0  0  0  0  0  0  0  0  0
   -0.7210   57.7590   74.0370 C   0  0  0  0  0  0  0  0  0  0  0  0
   -0.8480   56.4470   74.5130 C   0  0  0  0  0  0  0  0  0  0  0  0
    0.2760   55.6290   74.5830 C   0  0  0  0  0  0  0  0  0  0  0  0
    1.5240   56.1120   74.2000 C   0  0  0  0  0  0  0  0  0  0  0  0
    1.6300   57.4230   73.7240 C   0  0  0  0  0  0  0  0  0  0  0  0
    0.1180   53.9700   75.1810 S   0  0  0  0  0  6  0  0  0  0  0  0
   -0.7260   53.9780   76.3510 O   0  0  0  0  0  0  0  0  0  0  0  0
    1.4210   53.3460   75.1650 O   0  0  0  0  0  0  0  0  0  0  0  0
   -0.7470   53.2460   73.9270 N   0  0  0  0  0  0  0  0  0  0  0  0
    2.8440   61.9540   71.5830 C   0  0  0  0  0  0  0  0  0  0  0  0
    4.1590   61.5320   71.8180 C   0  0  0  0  0  0  0  0  0  0  0  0
    5.2340   62.2590   71.3030 C   0  0  0  0  0  0  0  0  0  0  0  0
    5.0010   63.4090   70.5510 C   0  0  0  0  0  0  0  0  0  0  0  0
    3.6950   63.8340   70.3140 C   0  0  0  0  0  0  0  0  0  0  0  0
    2.6160   63.1100   70.8270 C   0  0  0  0  0  0  0  0  0  0  0  0
   -1.2515   60.0873   72.3434 H   0  0  0  0  0  0  0  0  0  0  0  0
   -0.0536   61.6255   70.9990 H   0  0  0  0  0  0  0  0  0  0  0  0
    0.1261   62.6536   72.3843 H   0  0  0  0  0  0  0  0  0  0  0  0
   -4.2074   61.2721   75.5278 H   0  0  0  0  0  0  0  0  0  0  0  0
   -3.0324   60.4173   73.5087 H   0  0  0  0  0  0  0  0  0  0  0  0
   -0.4774   62.8263   77.0322 H   0  0  0  0  0  0  0  0  0  0  0  0
   -4.6591   63.2988   78.4954 H   0  0  0  0  0  0  0  0  0  0  0  0
   -4.2530   64.1044   76.9421 H   0  0  0  0  0  0  0  0  0  0  0  0
   -4.9061   62.4311   76.9421 H   0  0  0  0  0  0  0  0  0  0  0  0
    1.2827   63.7370   76.1343 H   0  0  0  0  0  0  0  0  0  0  0  0
    2.1811   63.6552   74.5810 H   0  0  0  0  0  0  0  0  0  0  0  0
    0.4151   63.9837   74.5810 H   0  0  0  0  0  0  0  0  0  0  0  0
   -1.6153   58.3972   73.9824 H   0  0  0  0  0  0  0  0  0  0  0  0
   -1.8302   56.0659   74.8294 H   0  0  0  0  0  0  0  0  0  0  0  0
    2.4152   55.4711   74.2707 H   0  0  0  0  0  0  0  0  0  0  0  0
    2.6168   57.7972   73.4139 H   0  0  0  0  0  0  0  0  0  0  0  0
   -1.4767   52.6352   74.3212 H   0  0  0  0  0  0  0  0  0  0  0  0
   -1.1860   53.9752   73.3470 H   0  0  0  0  0  0  0  0  0  0  0  0
    4.3454   60.6242   72.4106 H   0  0  0  0  0  0  0  0  0  0  0  0
    6.2648   61.9241   71.4908 H   0  0  0  0  0  0  0  0  0  0  0  0
    5.8479   63.9813   70.1445 H   0  0  0  0  0  0  0  0  0  0  0  0
    3.5132   64.7425   69.7211 H   0  0  0  0  0  0  0  0  0  0  0  0
    1.5868   63.4484   70.6368 H   0  0  0  0  0  0  0  0  0  0  0  0
  2  1  1  0
  3  2  1  0
  4  3  2  0
  5  1  1  0
  5  4  1  0
  7  6  2  0
  8  7  1  0
  9  8  2  0
  9  1  1  0
 10  9  1  0
 11  6  1  0
 11 10  2  0
 13 12  1  0
 13  6  1  0
 14 10  1  0
 15 14  1  0
 16  5  1  0
 17 16  2  0
 18 17  1  0
 19 18  2  0
 20 19  1  0
 21 16  1  0
 21 20  2  0
 22 19  1  0
 23 22  2  0
 24 22  2  0
 25 22  1  0
 26  3  1  0
 27 26  2  0
 28 27  1  0
 29 28  2  0
 30 29  1  0
 31 30  2  0
 31 26  1  0
  1 32  1  6
  2 33  1  0
  2 34  1  0
  7 35  1  0
  8 36  1  0
 11 37  1  0
 12 38  1  0
 12 39  1  0
 12 40  1  0
 15 41  1  0
 15 42  1  0
 15 43  1  0
 17 44  1  0
 18 45  1  0
 20 46  1  0
 21 47  1  0
 25 48  1  0
 25 49  1  0
 27 50  1  0
 28 51  1  0
 29 52  1  0
 30 53  1  0
 31 54  1  0
M  END
>  <score>  (6) 
-7.187

$$$$
=
     RDKit          3D

 54 57  0  0  0  0  0  0  0  0999 V2000
    0.8530   59.8820   74.4590 C   0  0  1  0  0  0  0  0  0  0  0  0
    2.0840   60.0790   73.5710 C   0  0  0  0  0  0  0  0  0  0  0  0
    1.5070   60.9510   72.4910 C   0  0  0  0  0  0  0  0  0  0  0  0
    0.2920   61.3600   72.7010 N   0  0  0  0  0  0  0  0  0  0  0  0
   -0.1400   60.7850   73.8640 N   0  0  0  0  0  0  0  0  0  0  0  0
   -0.4350   55.7200   74.5410 C   0  0  0  0  0  0  0  0  0  0  0  0
    0.1980   56.2560   73.4230 C   0  0  0  0  0  0  0  0  0  0  0  0
    0.6000   57.5980   73.4160 C   0  0  0  0  0  0  0  0  0  0  0  0
    0.3930   58.4330   74.5300 C   0  0  0  0  0  0  0  0  0  0  0  0
   -0.2400   57.8720   75.6490 C   0  0  0  0  0  0  0  0  0  0  0  0
   -0.6620   56.5370   75.6470 C   0  0  0  0  0  0  0  0  0  0  0  0
   -2.0300   54.2350   75.4920 C   0  0  0  0  0  0  0  0  0  0  0  0
   -0.8860   54.4360   74.6730 O   0  0  0  0  0  0  0  0  0  0  0  0
   -0.5390   58.6560   76.7310 O   0  0  0  0  0  0  0  0  0  0  0  0
   -1.9390   58.6160   77.0180 C   0  0  0  0  0  0  0  0  0  0  0  0
   -1.3360   61.2070   74.4420 C   0  0  0  0  0  0  0  0  0  0  0  0
   -2.5940   60.7860   73.9850 C   0  0  0  0  0  0  0  0  0  0  0  0
   -3.7830   61.2250   74.5820 C   0  0  0  0  0  0  0  0  0  0  0  0
   -3.7270   62.1010   75.6640 C   0  0  0  0  0  0  0  0  0  0  0  0
   -2.5000   62.5540   76.1400 C   0  0  0  0  0  0  0  0  0  0  0  0
   -1.3240   62.1010   75.5330 C   0  0  0  0  0  0  0  0  0  0  0  0
   -5.2270   62.6540   76.4230 S   0  0  0  0  0  6  0  0  0  0  0  0
   -4.9250   63.1330   77.7510 O   0  0  0  0  0  0  0  0  0  0  0  0
   -6.2630   61.6810   76.1640 O   0  0  0  0  0  0  0  0  0  0  0  0
   -5.6090   63.9900   75.4680 N   0  0  0  0  0  0  0  0  0  0  0  0
    2.2940   61.3370   71.2960 C   0  0  0  0  0  0  0  0  0  0  0  0
    3.0680   60.3640   70.6510 C   0  0  0  0  0  0  0  0  0  0  0  0
    3.8210   60.6970   69.5230 C   0  0  0  0  0  0  0  0  0  0  0  0
    3.8030   62.0020   69.0350 C   0  0  0  0  0  0  0  0  0  0  0  0
    3.0350   62.9750   69.6720 C   0  0  0  0  0  0  0  0  0  0  0  0
    2.2800   62.6460   70.8020 C   0  0  0  0  0  0  0  0  0  0  0  0
    1.0492   60.1165   75.5157 H   0  0  0  0  0  0  0  0  0  0  0  0
    2.8972   60.5861   74.1110 H   0  0  0  0  0  0  0  0  0  0  0  0
    2.5428   59.1465   73.2106 H   0  0  0  0  0  0  0  0  0  0  0  0
    0.3832   55.6237   72.5421 H   0  0  0  0  0  0  0  0  0  0  0  0
    1.0884   58.0083   72.5198 H   0  0  0  0  0  0  0  0  0  0  0  0
   -1.1784   56.1285   76.5281 H   0  0  0  0  0  0  0  0  0  0  0  0
   -1.7365   54.2866   76.5509 H   0  0  0  0  0  0  0  0  0  0  0  0
   -2.7749   55.0160   75.2795 H   0  0  0  0  0  0  0  0  0  0  0  0
   -2.4640   53.2468   75.2795 H   0  0  0  0  0  0  0  0  0  0  0  0
   -2.0899   58.6117   78.1076 H   0  0  0  0  0  0  0  0  0  0  0  0
   -2.4278   59.5005   76.5836 H   0  0  0  0  0  0  0  0  0  0  0  0
   -2.3765   57.7050   76.5836 H   0  0  0  0  0  0  0  0  0  0  0  0
   -2.6483   60.0915   73.1337 H   0  0  0  0  0  0  0  0  0  0  0  0
   -4.7548   60.8802   74.1989 H   0  0  0  0  0  0  0  0  0  0  0  0
   -2.4557   63.2594   76.9829 H   0  0  0  0  0  0  0  0  0  0  0  0
   -0.3566   62.4541   75.9197 H   0  0  0  0  0  0  0  0  0  0  0  0
   -5.8380   64.7909   76.0738 H   0  0  0  0  0  0  0  0  0  0  0  0
   -4.8026   64.2288   74.8734 H   0  0  0  0  0  0  0  0  0  0  0  0
    3.0828   59.3332   71.0346 H   0  0  0  0  0  0  0  0  0  0  0  0
    4.4279   59.9296   69.0201 H   0  0  0  0  0  0  0  0  0  0  0  0
    4.3955   62.2645   68.1462 H   0  0  0  0  0  0  0  0  0  0  0  0
    3.0227   64.0045   69.2848 H   0  0  0  0  0  0  0  0  0  0  0  0
    1.6750   63.4163   71.3026 H   0  0  0  0  0  0  0  0  0  0  0  0
  2  1  1  0
  3  2  1  0
  4  3  2  0
  5  1  1  0
  5  4  1  0
  7  6  2  0
  8  7  1  0
  9  8  2  0
  9  1  1  0
 10  9  1  0
 11  6  1  0
 11 10  2  0
 13 12  1  0
 13  6  1  0
 14 10  1  0
 15 14  1  0
 16  5  1  0
 17 16  2  0
 18 17  1  0
 19 18  2  0
 20 19  1  0
 21 16  1  0
 21 20  2  0
 22 19  1  0
 23 22  2  0
 24 22  2  0
 25 22  1  0
 26  3  1  0
 27 26  2  0
 28 27  1  0
 29 28  2  0
 30 29  1  0
 31 30  2  0
 31 26  1  0
  1 32  1  1
  2 33  1  0
  2 34  1  0
  7 35  1  0
  8 36  1  0
 11 37  1  0
 12 38  1  0
 12 39  1  0
 12 40  1  0
 15 41  1  0
 15 42  1  0
 15 43  1  0
 17 44  1  0
 18 45  1  0
 20 46  1  0
 21 47  1  0
 25 48  1  0
 25 49  1  0
 27 50  1  0
 28 51  1  0
 29 52  1  0
 30 53  1  0
 31 54  1  0
M  END
>  <score>  (7) 
-7.178

$$$$
=
     RDKit          3D

 54 57  0  0  0  0  0  0  0  0999 V2000
   -0.1910   60.2660   73.6140 C   0  0  1  0  0  0  0  0  0  0  0  0
    0.2520   61.3890   72.6730 C   0  0  0  0  0  0  0  0  0  0  0  0
    1.5050   60.7890   72.1010 C   0  0  0  0  0  0  0  0  0  0  0  0
    1.7280   59.5530   72.4310 N   0  0  0  0  0  0  0  0  0  0  0  0
    0.7430   59.1770   73.3020 N   0  0  0  0  0  0  0  0  0  0  0  0
   -0.2900   61.4560   77.8050 C   0  0  0  0  0  0  0  0  0  0  0  0
   -1.4640   61.3090   77.0700 C   0  0  0  0  0  0  0  0  0  0  0  0
   -1.4090   60.9300   75.7230 C   0  0  0  0  0  0  0  0  0  0  0  0
   -0.1820   60.6740   75.0800 C   0  0  0  0  0  0  0  0  0  0  0  0
    0.9870   60.8200   75.8400 C   0  0  0  0  0  0  0  0  0  0  0  0
    0.9330   61.2210   77.1800 C   0  0  0  0  0  0  0  0  0  0  0  0
    1.0560   61.6610   79.7540 C   0  0  0  0  0  0  0  0  0  0  0  0
   -0.2030   61.8300   79.1160 O   0  0  0  0  0  0  0  0  0  0  0  0
    2.2120   60.6610   75.2480 O   0  0  0  0  0  0  0  0  0  0  0  0
    3.0080   59.7180   75.9690 C   0  0  0  0  0  0  0  0  0  0  0  0
    0.6130   57.8370   73.6630 C   0  0  0  0  0  0  0  0  0  0  0  0
   -0.6140   57.2640   74.0330 C   0  0  0  0  0  0  0  0  0  0  0  0
   -0.7200   55.9130   74.3930 C   0  0  0  0  0  0  0  0  0  0  0  0
    0.4160   55.1070   74.3800 C   0  0  0  0  0  0  0  0  0  0  0  0
    1.6540   55.6400   74.0320 C   0  0  0  0  0  0  0  0  0  0  0  0
    1.7380   56.9890   73.6730 C   0  0  0  0  0  0  0  0  0  0  0  0
    0.2850   53.4000   74.8300 S   0  0  0  0  0  6  0  0  0  0  0  0
    1.4660   53.0230   75.5690 O   0  0  0  0  0  0  0  0  0  0  0  0
   -0.1870   52.6540   73.6860 O   0  0  0  0  0  0  0  0  0  0  0  0
   -1.0090   53.4400   75.9110 N   0  0  0  0  0  0  0  0  0  0  0  0
    2.3930   61.5560   71.1950 C   0  0  0  0  0  0  0  0  0  0  0  0
    2.6010   62.9190   71.4430 C   0  0  0  0  0  0  0  0  0  0  0  0
    3.4320   63.6680   70.6070 C   0  0  0  0  0  0  0  0  0  0  0  0
    4.0600   63.0590   69.5220 C   0  0  0  0  0  0  0  0  0  0  0  0
    3.8570   61.7030   69.2700 C   0  0  0  0  0  0  0  0  0  0  0  0
    3.0250   60.9500   70.1040 C   0  0  0  0  0  0  0  0  0  0  0  0
   -1.2401   59.9731   73.4607 H   0  0  0  0  0  0  0  0  0  0  0  0
   -0.4979   61.5840   71.8922 H   0  0  0  0  0  0  0  0  0  0  0  0
    0.3922   62.3657   73.1592 H   0  0  0  0  0  0  0  0  0  0  0  0
   -2.4373   61.4912   77.5491 H   0  0  0  0  0  0  0  0  0  0  0  0
   -2.3451   60.8299   75.1541 H   0  0  0  0  0  0  0  0  0  0  0  0
    1.8669   61.3521   77.7462 H   0  0  0  0  0  0  0  0  0  0  0  0
    0.9194   61.6793   80.8453 H   0  0  0  0  0  0  0  0  0  0  0  0
    1.4919   60.6963   79.4552 H   0  0  0  0  0  0  0  0  0  0  0  0
    1.7309   62.4766   79.4552 H   0  0  0  0  0  0  0  0  0  0  0  0
    2.8747   59.8759   77.0494 H   0  0  0  0  0  0  0  0  0  0  0  0
    2.6946   58.6968   75.7062 H   0  0  0  0  0  0  0  0  0  0  0  0
    4.0673   59.8555   75.7062 H   0  0  0  0  0  0  0  0  0  0  0  0
   -1.5170   57.8921   74.0407 H   0  0  0  0  0  0  0  0  0  0  0  0
   -1.6939   55.4924   74.6838 H   0  0  0  0  0  0  0  0  0  0  0  0
    2.5545   55.0083   74.0393 H   0  0  0  0  0  0  0  0  0  0  0  0
    2.7168   57.4025   73.3884 H   0  0  0  0  0  0  0  0  0  0  0  0
   -0.6503   53.4289   76.8765 H   0  0  0  0  0  0  0  0  0  0  0  0
   -1.5575   54.2983   75.7584 H   0  0  0  0  0  0  0  0  0  0  0  0
    2.1077   63.4013   72.2998 H   0  0  0  0  0  0  0  0  0  0  0  0
    3.5908   64.7383   70.8048 H   0  0  0  0  0  0  0  0  0  0  0  0
    4.7159   63.6484   68.8644 H   0  0  0  0  0  0  0  0  0  0  0  0
    4.3527   61.2242   68.4127 H   0  0  0  0  0  0  0  0  0  0  0  0
    2.8673   59.8803   69.9021 H   0  0  0  0  0  0  0  0  0  0  0  0
  2  1  1  0
  3  2  1  0
  4  3  2  0
  5  1  1  0
  5  4  1  0
  7  6  2  0
  8  7  1  0
  9  8  2  0
  9  1  1  0
 10  9  1  0
 11  6  1  0
 11 10  2  0
 13 12  1  0
 13  6  1  0
 14 10  1  0
 15 14  1  0
 16  5  1  0
 17 16  2  0
 18 17  1  0
 19 18  2  0
 20 19  1  0
 21 16  1  0
 21 20  2  0
 22 19  1  0
 23 22  2  0
 24 22  2  0
 25 22  1  0
 26  3  1  0
 27 26  2  0
 28 27  1  0
 29 28  2  0
 30 29  1  0
 31 30  2  0
 31 26  1  0
  1 32  1  6
  2 33  1  0
  2 34  1  0
  7 35  1  0
  8 36  1  0
 11 37  1  0
 12 38  1  0
 12 39  1  0
 12 40  1  0
 15 41  1  0
 15 42  1  0
 15 43  1  0
 17 44  1  0
 18 45  1  0
 20 46  1  0
 21 47  1  0
 25 48  1  0
 25 49  1  0
 27 50  1  0
 28 51  1  0
 29 52  1  0
 30 53  1  0
 31 54  1  0
M  END
>  <score>  (8) 
-6.974

$$$$
=
     RDKit          3D

 54 57  0  0  0  0  0  0  0  0999 V2000
    0.3350   58.3660   73.9020 C   0  0  1  0  0  0  0  0  0  0  0  0
   -0.3440   57.0570   73.4930 C   0  0  0  0  0  0  0  0  0  0  0  0
    0.0040   56.1880   74.6690 C   0  0  0  0  0  0  0  0  0  0  0  0
    0.5900   56.8000   75.6540 N   0  0  0  0  0  0  0  0  0  0  0  0
    0.7870   58.0980   75.2730 N   0  0  0  0  0  0  0  0  0  0  0  0
    3.5840   59.4230   71.1970 C   0  0  0  0  0  0  0  0  0  0  0  0
    3.2770   58.0920   71.4680 C   0  0  0  0  0  0  0  0  0  0  0  0
    2.2310   57.7750   72.3440 C   0  0  0  0  0  0  0  0  0  0  0  0
    1.4580   58.7780   72.9600 C   0  0  0  0  0  0  0  0  0  0  0  0
    1.7780   60.1110   72.6680 C   0  0  0  0  0  0  0  0  0  0  0  0
    2.8380   60.4280   71.8100 C   0  0  0  0  0  0  0  0  0  0  0  0
    5.3250   60.9970   70.8150 C   0  0  0  0  0  0  0  0  0  0  0  0
    4.5820   59.8680   70.3750 O   0  0  0  0  0  0  0  0  0  0  0  0
    1.1120   61.1290   73.2970 O   0  0  0  0  0  0  0  0  0  0  0  0
    0.1910   61.7630   72.4070 C   0  0  0  0  0  0  0  0  0  0  0  0
    1.2110   59.0380   76.2100 C   0  0  0  0  0  0  0  0  0  0  0  0
    0.3810   60.0610   76.6920 C   0  0  0  0  0  0  0  0  0  0  0  0
    0.8310   60.9960   77.6350 C   0  0  0  0  0  0  0  0  0  0  0  0
    2.1350   60.9130   78.1170 C   0  0  0  0  0  0  0  0  0  0  0  0
    2.9950   59.9220   77.6540 C   0  0  0  0  0  0  0  0  0  0  0  0
    2.5260   58.9970   76.7160 C   0  0  0  0  0  0  0  0  0  0  0  0
    2.7040   62.0900   79.3110 S   0  0  0  0  0  6  0  0  0  0  0  0
    2.4620   61.5640   80.6320 O   0  0  0  0  0  0  0  0  0  0  0  0
    2.2700   63.4080   78.9060 O   0  0  0  0  0  0  0  0  0  0  0  0
    4.3680   62.0580   79.0400 N   0  0  0  0  0  0  0  0  0  0  0  0
   -0.3370   54.7460   74.7020 C   0  0  0  0  0  0  0  0  0  0  0  0
   -1.4940   54.3380   75.3790 C   0  0  0  0  0  0  0  0  0  0  0  0
   -1.8410   52.9870   75.4270 C   0  0  0  0  0  0  0  0  0  0  0  0
   -1.0360   52.0380   74.8000 C   0  0  0  0  0  0  0  0  0  0  0  0
    0.1160   52.4370   74.1250 C   0  0  0  0  0  0  0  0  0  0  0  0
    0.4680   53.7890   74.0740 C   0  0  0  0  0  0  0  0  0  0  0  0
   -0.3430   59.2306   73.8481 H   0  0  0  0  0  0  0  0  0  0  0  0
   -1.4319   57.1799   73.3869 H   0  0  0  0  0  0  0  0  0  0  0  0
   -0.0233   56.6595   72.5188 H   0  0  0  0  0  0  0  0  0  0  0  0
    3.8575   57.2875   70.9929 H   0  0  0  0  0  0  0  0  0  0  0  0
    2.0084   56.7187   72.5555 H   0  0  0  0  0  0  0  0  0  0  0  0
    3.0849   61.4825   71.6175 H   0  0  0  0  0  0  0  0  0  0  0  0
    5.3402   61.0201   71.9147 H   0  0  0  0  0  0  0  0  0  0  0  0
    6.3552   60.9286   70.4354 H   0  0  0  0  0  0  0  0  0  0  0  0
    4.8547   61.9161   70.4354 H   0  0  0  0  0  0  0  0  0  0  0  0
   -0.5773   62.2919   72.9901 H   0  0  0  0  0  0  0  0  0  0  0  0
    0.7300   62.4824   71.7729 H   0  0  0  0  0  0  0  0  0  0  0  0
   -0.2886   61.0028   71.7729 H   0  0  0  0  0  0  0  0  0  0  0  0
   -0.6517   60.1316   76.3198 H   0  0  0  0  0  0  0  0  0  0  0  0
    0.1584   61.7900   77.9918 H   0  0  0  0  0  0  0  0  0  0  0  0
    4.0305   59.8669   78.0211 H   0  0  0  0  0  0  0  0  0  0  0  0
    3.2071   58.2098   76.3605 H   0  0  0  0  0  0  0  0  0  0  0  0
    4.8628   62.0485   79.9433 H   0  0  0  0  0  0  0  0  0  0  0  0
    4.6126   61.2121   78.5056 H   0  0  0  0  0  0  0  0  0  0  0  0
   -2.1312   55.0853   75.8745 H   0  0  0  0  0  0  0  0  0  0  0  0
   -2.7501   52.6713   75.9599 H   0  0  0  0  0  0  0  0  0  0  0  0
   -1.3100   50.9734   74.8379 H   0  0  0  0  0  0  0  0  0  0  0  0
    0.7501   51.6861   73.6310 H   0  0  0  0  0  0  0  0  0  0  0  0
    1.3779   54.1006   73.5401 H   0  0  0  0  0  0  0  0  0  0  0  0
  2  1  1  0
  3  2  1  0
  4  3  2  0
  5  1  1  0
  5  4  1  0
  7  6  2  0
  8  7  1  0
  9  8  2  0
  9  1  1  0
 10  9  1  0
 11  6  1  0
 11 10  2  0
 13 12  1  0
 13  6  1  0
 14 10  1  0
 15 14  1  0
 16  5  1  0
 17 16  2  0
 18 17  1  0
 19 18  2  0
 20 19  1  0
 21 16  1  0
 21 20  2  0
 22 19  1  0
 23 22  2  0
 24 22  2  0
 25 22  1  0
 26  3  1  0
 27 26  2  0
 28 27  1  0
 29 28  2  0
 30 29  1  0
 31 30  2  0
 31 26  1  0
  1 32  1  1
  2 33  1  0
  2 34  1  0
  7 35  1  0
  8 36  1  0
 11 37  1  0
 12 38  1  0
 12 39  1  0
 12 40  1  0
 15 41  1  0
 15 42  1  0
 15 43  1  0
 17 44  1  0
 18 45  1  0
 20 46  1  0
 21 47  1  0
 25 48  1  0
 25 49  1  0
 27 50  1  0
 28 51  1  0
 29 52  1  0
 30 53  1  0
 31 54  1  0
M  END
>  <score>  (9) 
-6.914

$$$$
