=
     RDKit          3D

 48 54  0  0  0  0  0  0  0  0999 V2000
    4.0670   59.1190   69.3230 O   0  0  0  0  0  0  0  0  0  0  0  0
    3.3930   59.0220   70.3480 C   0  0  0  0  0  0  0  0  0  0  0  0
    3.2460   57.6580   71.0400 C   0  0  0  0  0  0  0  0  0  0  0  0
    2.8100   57.6440   72.5290 C   0  0  2  0  0  0  0  0  0  0  0  0
    1.5060   57.0470   72.5760 O   0  0  0  0  0  0  0  0  0  0  0  0
    1.0700   56.6710   73.8730 C   0  0  0  0  0  0  0  0  0  0  0  0
    0.3290   57.8230   74.4840 C   0  0  0  0  0  0  0  0  0  0  0  0
    0.8890   59.0050   74.8090 C   0  0  0  0  0  0  0  0  0  0  0  0
    2.3660   59.2690   74.5630 C   0  0  1  0  0  0  0  0  0  0  0  0
    2.8010   59.0660   73.1070 C   0  0  2  0  0  0  0  0  0  0  0  0
    1.9400   59.8930   72.1530 C   0  0  2  0  0  0  0  0  0  0  0  0
    2.7480   60.0800   70.9610 N   0  0  0  0  0  0  0  0  0  0  0  0
    2.8960   61.4460   70.7080 C   0  0  0  0  0  0  0  0  0  0  0  0
    3.6280   62.0600   69.7080 C   0  0  0  0  0  0  0  0  0  0  0  0
    3.6530   63.4560   69.6650 C   0  0  0  0  0  0  0  0  0  0  0  0
    2.9510   64.2120   70.6140 C   0  0  0  0  0  0  0  0  0  0  0  0
    2.2150   63.5850   71.6220 C   0  0  0  0  0  0  0  0  0  0  0  0
    2.1980   62.1960   71.6670 C   0  0  0  0  0  0  0  0  0  0  0  0
    1.4610   61.2970   72.6380 C   0  0  1  0  0  0  0  0  0  0  0  0
   -0.0720   61.4300   72.4510 C   0  0  0  0  0  0  0  0  0  0  0  0
   -0.6190   61.9510   73.7620 C   0  0  0  0  0  0  0  0  0  0  0  0
    0.3590   61.4820   74.8000 N   0  0  2  0  0  4  0  0  0  0  0  0
    1.7220   61.6240   74.1320 C   0  0  1  0  0  0  0  0  0  0  0  0
    2.7020   60.7330   74.8760 C   0  0  0  0  0  0  0  0  0  0  0  0
    0.0830   60.1240   75.4130 C   0  0  0  0  0  0  0  0  0  0  0  0
    2.4988   57.0822   70.4742 H   0  0  0  0  0  0  0  0  0  0  0  0
    4.2635   57.2400   71.0460 H   0  0  0  0  0  0  0  0  0  0  0  0
    3.5162   57.0652   73.1424 H   0  0  0  0  0  0  0  0  0  0  0  0
    0.4038   55.7987   73.8011 H   0  0  0  0  0  0  0  0  0  0  0  0
    1.9362   56.4086   74.4982 H   0  0  0  0  0  0  0  0  0  0  0  0
   -0.7456   57.6943   74.6804 H   0  0  0  0  0  0  0  0  0  0  0  0
    2.8866   58.5491   75.2116 H   0  0  0  0  0  0  0  0  0  0  0  0
    3.8527   59.3820   73.1709 H   0  0  0  0  0  0  0  0  0  0  0  0
    1.0032   59.3316   72.0215 H   0  0  0  0  0  0  0  0  0  0  0  0
    4.1772   61.4635   68.9646 H   0  0  0  0  0  0  0  0  0  0  0  0
    4.2289   63.9668   68.8792 H   0  0  0  0  0  0  0  0  0  0  0  0
    2.9801   65.3105   70.5643 H   0  0  0  0  0  0  0  0  0  0  0  0
    1.6606   64.1779   72.3644 H   0  0  0  0  0  0  0  0  0  0  0  0
   -0.2962   62.1361   71.6379 H   0  0  0  0  0  0  0  0  0  0  0  0
   -0.5264   60.4642   72.1851 H   0  0  0  0  0  0  0  0  0  0  0  0
   -0.6737   63.0496   73.7497 H   0  0  0  0  0  0  0  0  0  0  0  0
   -1.6388   61.5889   73.9592 H   0  0  0  0  0  0  0  0  0  0  0  0
    0.2880   62.0579   75.6510 H   0  0  0  0  0  0  0  0  0  0  0  0
    2.1884   62.6195   74.1712 H   0  0  0  0  0  0  0  0  0  0  0  0
    2.6159   60.9099   75.9583 H   0  0  0  0  0  0  0  0  0  0  0  0
    3.7309   60.9588   74.5592 H   0  0  0  0  0  0  0  0  0  0  0  0
   -0.9841   59.8938   75.2779 H   0  0  0  0  0  0  0  0  0  0  0  0
    0.3713   60.1883   76.4726 H   0  0  0  0  0  0  0  0  0  0  0  0
  2  1  2  0
  3  2  1  0
  4  3  1  0
  5  4  1  0
  6  5  1  0
  7  6  1  0
  8  7  2  0
  9  8  1  0
 10  9  1  0
 10  4  1  0
 11 10  1  0
 12  2  1  0
 12 11  1  0
 13 12  1  0
 14 13  2  0
 15 14  1  0
 16 15  2  0
 17 16  1  0
 18 13  1  0
 18 17  2  0
 19 11  1  0
 19 18  1  0
 19 20  1  6
 21 20  1  0
 22 21  1  0
 23 22  1  0
 23 19  1  0
 24  9  1  0
 24 23  1  0
 25  8  1  0
 25 22  1  0
  3 26  1  0
  3 27  1  0
  4 28  1  1
  6 29  1  0
  6 30  1  0
  7 31  1  0
  9 32  1  1
 10 33  1  1
 11 34  1  6
 14 35  1  0
 15 36  1  0
 16 37  1  0
 17 38  1  0
 20 39  1  0
 20 40  1  0
 21 41  1  0
 21 42  1  0
 22 43  1  1
 23 44  1  6
 24 45  1  0
 24 46  1  0
 25 47  1  0
 25 48  1  0
M  CHG  1  22   1
M  END
>  <score>  (1) 
-9.581

$$$$
=
     RDKit          3D

 48 54  0  0  0  0  0  0  0  0999 V2000
    3.0600   63.0570   68.3890 O   0  0  0  0  0  0  0  0  0  0  0  0
    2.9060   62.2330   69.2890 C   0  0  0  0  0  0  0  0  0  0  0  0
    3.7110   60.9240   69.2710 C   0  0  0  0  0  0  0  0  0  0  0  0
    3.8550   60.1450   70.6060 C   0  0  2  0  0  0  0  0  0  0  0  0
    3.1370   58.9130   70.4490 O   0  0  0  0  0  0  0  0  0  0  0  0
    3.4040   57.9370   71.4440 C   0  0  0  0  0  0  0  0  0  0  0  0
    2.4260   58.1150   72.5670 C   0  0  0  0  0  0  0  0  0  0  0  0
    2.3750   59.1960   73.3710 C   0  0  0  0  0  0  0  0  0  0  0  0
    3.3360   60.3590   73.1870 C   0  0  1  0  0  0  0  0  0  0  0  0
    3.3110   60.9700   71.7800 C   0  0  2  0  0  0  0  0  0  0  0  0
    1.8940   61.3730   71.3780 C   0  0  2  0  0  0  0  0  0  0  0  0
    2.0530   62.4000   70.3640 N   0  0  0  0  0  0  0  0  0  0  0  0
    1.3920   63.5630   70.7690 C   0  0  0  0  0  0  0  0  0  0  0  0
    1.3370   64.7880   70.1290 C   0  0  0  0  0  0  0  0  0  0  0  0
    0.6310   65.8250   70.7410 C   0  0  0  0  0  0  0  0  0  0  0  0
   -0.0040   65.6260   71.9750 C   0  0  0  0  0  0  0  0  0  0  0  0
    0.0570   64.3880   72.6160 C   0  0  0  0  0  0  0  0  0  0  0  0
    0.7670   63.3580   72.0080 C   0  0  0  0  0  0  0  0  0  0  0  0
    0.9540   61.9350   72.4910 C   0  0  1  0  0  0  0  0  0  0  0  0
   -0.3950   61.1720   72.4830 C   0  0  0  0  0  0  0  0  0  0  0  0
   -0.6690   60.7730   73.9170 C   0  0  0  0  0  0  0  0  0  0  0  0
    0.6870   60.6690   74.5530 N   0  0  2  0  0  4  0  0  0  0  0  0
    1.4820   61.8200   73.9450 C   0  0  1  0  0  0  0  0  0  0  0  0
    2.9590   61.5120   74.1260 C   0  0  0  0  0  0  0  0  0  0  0  0
    1.3590   59.3130   74.4760 C   0  0  0  0  0  0  0  0  0  0  0  0
    3.2264   60.2506   68.5487 H   0  0  0  0  0  0  0  0  0  0  0  0
    4.7361   61.2324   69.0180 H   0  0  0  0  0  0  0  0  0  0  0  0
    4.9121   59.9435   70.8340 H   0  0  0  0  0  0  0  0  0  0  0  0
    3.2946   56.9305   71.0140 H   0  0  0  0  0  0  0  0  0  0  0  0
    4.4312   58.0557   71.8193 H   0  0  0  0  0  0  0  0  0  0  0  0
    1.7004   57.3081   72.7470 H   0  0  0  0  0  0  0  0  0  0  0  0
    4.3289   59.9319   73.3912 H   0  0  0  0  0  0  0  0  0  0  0  0
    4.0075   61.8100   71.9190 H   0  0  0  0  0  0  0  0  0  0  0  0
    1.3924   60.4477   71.0582 H   0  0  0  0  0  0  0  0  0  0  0  0
    1.8374   64.9412   69.1614 H   0  0  0  0  0  0  0  0  0  0  0  0
    0.5723   66.8078   70.2504 H   0  0  0  0  0  0  0  0  0  0  0  0
   -0.5561   66.4545   72.4428 H   0  0  0  0  0  0  0  0  0  0  0  0
   -0.4457   64.2300   73.5816 H   0  0  0  0  0  0  0  0  0  0  0  0
   -1.1985   61.8238   72.1094 H   0  0  0  0  0  0  0  0  0  0  0  0
   -0.3510   60.2912   71.8256 H   0  0  0  0  0  0  0  0  0  0  0  0
   -1.2763   61.5382   74.4226 H   0  0  0  0  0  0  0  0  0  0  0  0
   -1.2324   59.8307   73.9850 H   0  0  0  0  0  0  0  0  0  0  0  0
    0.6149   60.7522   75.5771 H   0  0  0  0  0  0  0  0  0  0  0  0
    1.3586   62.8073   74.4141 H   0  0  0  0  0  0  0  0  0  0  0  0
    3.1516   61.2192   75.1687 H   0  0  0  0  0  0  0  0  0  0  0  0
    3.5607   62.4020   73.8895 H   0  0  0  0  0  0  0  0  0  0  0  0
    0.5826   58.5507   74.3144 H   0  0  0  0  0  0  0  0  0  0  0  0
    1.9004   59.1714   75.4230 H   0  0  0  0  0  0  0  0  0  0  0  0
  2  1  2  0
  3  2  1  0
  4  3  1  0
  5  4  1  0
  6  5  1  0
  7  6  1  0
  8  7  2  0
  9  8  1  0
 10  9  1  0
 10  4  1  0
 11 10  1  0
 12  2  1  0
 12 11  1  0
 13 12  1  0
 14 13  2  0
 15 14  1  0
 16 15  2  0
 17 16  1  0
 18 13  1  0
 18 17  2  0
 19 11  1  0
 19 18  1  0
 19 20  1  1
 21 20  1  0
 22 21  1  0
 23 22  1  0
 23 19  1  0
 24  9  1  0
 24 23  1  0
 25  8  1  0
 25 22  1  0
  3 26  1  0
  3 27  1  0
  4 28  1  1
  6 29  1  0
  6 30  1  0
  7 31  1  0
  9 32  1  1
 10 33  1  1
 11 34  1  6
 14 35  1  0
 15 36  1  0
 16 37  1  0
 17 38  1  0
 20 39  1  0
 20 40  1  0
 21 41  1  0
 21 42  1  0
 22 43  1  1
 23 44  1  1
 24 45  1  0
 24 46  1  0
 25 47  1  0
 25 48  1  0
M  CHG  1  22   1
M  END
>  <score>  (2) 
-9.502

$$$$
=
     RDKit          3D

 48 54  0  0  0  0  0  0  0  0999 V2000
   -0.1830   65.2050   72.5210 O   0  0  0  0  0  0  0  0  0  0  0  0
    0.5330   64.3070   72.0810 C   0  0  0  0  0  0  0  0  0  0  0  0
    1.1320   64.4320   70.6700 C   0  0  0  0  0  0  0  0  0  0  0  0
    2.3670   63.5580   70.3280 C   0  0  2  0  0  0  0  0  0  0  0  0
    1.9480   62.6150   69.3310 O   0  0  0  0  0  0  0  0  0  0  0  0
    3.0050   61.9340   68.6730 C   0  0  0  0  0  0  0  0  0  0  0  0
    3.3090   60.6740   69.4280 C   0  0  0  0  0  0  0  0  0  0  0  0
    3.8080   60.6350   70.6790 C   0  0  0  0  0  0  0  0  0  0  0  0
    4.1050   61.9130   71.4480 C   0  0  1  0  0  0  0  0  0  0  0  0
    2.9000   62.8520   71.5830 C   0  0  2  0  0  0  0  0  0  0  0  0
    1.7000   62.1260   72.1880 C   0  0  2  0  0  0  0  0  0  0  0  0
    0.8740   63.1640   72.7790 N   0  0  0  0  0  0  0  0  0  0  0  0
    0.6860   62.8940   74.1370 C   0  0  0  0  0  0  0  0  0  0  0  0
    0.0110   63.6500   75.0790 C   0  0  0  0  0  0  0  0  0  0  0  0
   -0.0240   63.1910   76.3970 C   0  0  0  0  0  0  0  0  0  0  0  0
    0.6100   61.9930   76.7530 C   0  0  0  0  0  0  0  0  0  0  0  0
    1.2910   61.2350   75.7980 C   0  0  0  0  0  0  0  0  0  0  0  0
    1.3310   61.6980   74.4870 C   0  0  0  0  0  0  0  0  0  0  0  0
    1.9770   61.0480   73.2820 C   0  0  1  0  0  0  0  0  0  0  0  0
    1.2560   59.7250   72.9200 C   0  0  0  0  0  0  0  0  0  0  0  0
    2.2840   58.6240   73.0630 C   0  0  0  0  0  0  0  0  0  0  0  0
    3.6030   59.2970   72.8200 N   0  0  2  0  0  4  0  0  0  0  0  0
    3.4650   60.6600   73.4890 C   0  0  1  0  0  0  0  0  0  0  0  0
    4.5130   61.5820   72.8890 C   0  0  0  0  0  0  0  0  0  0  0  0
    4.0810   59.3330   71.3830 C   0  0  0  0  0  0  0  0  0  0  0  0
    0.3388   64.1739   69.9529 H   0  0  0  0  0  0  0  0  0  0  0  0
    1.5019   65.4666   70.6170 H   0  0  0  0  0  0  0  0  0  0  0  0
    3.1933   64.1752   69.9456 H   0  0  0  0  0  0  0  0  0  0  0  0
    2.7021   61.6856   67.6451 H   0  0  0  0  0  0  0  0  0  0  0  0
    3.8986   62.5744   68.6374 H   0  0  0  0  0  0  0  0  0  0  0  0
    3.1109   59.7157   68.9257 H   0  0  0  0  0  0  0  0  0  0  0  0
    4.8992   62.4061   70.8683 H   0  0  0  0  0  0  0  0  0  0  0  0
    3.3339   63.6370   72.2198 H   0  0  0  0  0  0  0  0  0  0  0  0
    1.2457   61.5507   71.3679 H   0  0  0  0  0  0  0  0  0  0  0  0
   -0.4859   64.5898   74.7963 H   0  0  0  0  0  0  0  0  0  0  0  0
   -0.5543   63.7753   77.1634 H   0  0  0  0  0  0  0  0  0  0  0  0
    0.5708   61.6459   77.7961 H   0  0  0  0  0  0  0  0  0  0  0  0
    1.7850   60.2924   76.0765 H   0  0  0  0  0  0  0  0  0  0  0  0
    0.4142   59.5507   73.6062 H   0  0  0  0  0  0  0  0  0  0  0  0
    0.8490   59.7597   71.8987 H   0  0  0  0  0  0  0  0  0  0  0  0
    2.2502   58.1912   74.0737 H   0  0  0  0  0  0  0  0  0  0  0  0
    2.1053   57.7955   72.3618 H   0  0  0  0  0  0  0  0  0  0  0  0
    4.3712   58.7458   73.2286 H   0  0  0  0  0  0  0  0  0  0  0  0
    3.6647   60.7015   74.5699 H   0  0  0  0  0  0  0  0  0  0  0  0
    5.4924   61.0812   72.8913 H   0  0  0  0  0  0  0  0  0  0  0  0
    4.5845   62.5061   73.4814 H   0  0  0  0  0  0  0  0  0  0  0  0
    3.5748   58.5281   70.8299 H   0  0  0  0  0  0  0  0  0  0  0  0
    5.1736   59.2080   71.4080 H   0  0  0  0  0  0  0  0  0  0  0  0
  2  1  2  0
  3  2  1  0
  4  3  1  0
  5  4  1  0
  6  5  1  0
  7  6  1  0
  8  7  2  0
  9  8  1  0
 10  9  1  0
 10  4  1  0
 11 10  1  0
 12  2  1  0
 12 11  1  0
 13 12  1  0
 14 13  2  0
 15 14  1  0
 16 15  2  0
 17 16  1  0
 18 13  1  0
 18 17  2  0
 19 11  1  0
 19 18  1  0
 19 20  1  6
 21 20  1  0
 22 21  1  0
 23 22  1  0
 23 19  1  0
 24  9  1  0
 24 23  1  0
 25  8  1  0
 25 22  1  0
  3 26  1  0
  3 27  1  0
  4 28  1  6
  6 29  1  0
  6 30  1  0
  7 31  1  0
  9 32  1  6
 10 33  1  1
 11 34  1  6
 14 35  1  0
 15 36  1  0
 16 37  1  0
 17 38  1  0
 20 39  1  0
 20 40  1  0
 21 41  1  0
 21 42  1  0
 22 43  1  1
 23 44  1  1
 24 45  1  0
 24 46  1  0
 25 47  1  0
 25 48  1  0
M  CHG  1  22   1
M  END
>  <score>  (3) 
-9.482

$$$$
=
     RDKit          3D

 48 54  0  0  0  0  0  0  0  0999 V2000
   -1.7950   61.8410   73.1560 O   0  0  0  0  0  0  0  0  0  0  0  0
   -0.6640   61.9250   72.6830 C   0  0  0  0  0  0  0  0  0  0  0  0
   -0.1600   63.2740   72.1440 C   0  0  0  0  0  0  0  0  0  0  0  0
    1.3720   63.4680   71.9970 C   0  0  2  0  0  0  0  0  0  0  0  0
    1.6470   63.5740   70.5930 O   0  0  0  0  0  0  0  0  0  0  0  0
    2.9430   64.0570   70.2740 C   0  0  0  0  0  0  0  0  0  0  0  0
    3.8740   62.8880   70.1490 C   0  0  0  0  0  0  0  0  0  0  0  0
    4.2200   62.0760   71.1670 C   0  0  0  0  0  0  0  0  0  0  0  0
    3.6660   62.2880   72.5660 C   0  0  1  0  0  0  0  0  0  0  0  0
    2.1330   62.2980   72.6340 C   0  0  2  0  0  0  0  0  0  0  0  0
    1.5460   61.0350   72.0070 C   0  0  2  0  0  0  0  0  0  0  0  0
    0.2330   60.8760   72.6090 N   0  0  0  0  0  0  0  0  0  0  0  0
    0.1500   59.6240   73.2250 C   0  0  0  0  0  0  0  0  0  0  0  0
   -0.8980   59.0930   73.9550 C   0  0  0  0  0  0  0  0  0  0  0  0
   -0.7430   57.8200   74.5060 C   0  0  0  0  0  0  0  0  0  0  0  0
    0.4450   57.1010   74.3230 C   0  0  0  0  0  0  0  0  0  0  0  0
    1.5000   57.6440   73.5860 C   0  0  0  0  0  0  0  0  0  0  0  0
    1.3480   58.9150   73.0440 C   0  0  0  0  0  0  0  0  0  0  0  0
    2.3280   59.6970   72.1960 C   0  0  1  0  0  0  0  0  0  0  0  0
    2.5390   59.0060   70.8240 C   0  0  0  0  0  0  0  0  0  0  0  0
    4.0040   58.6360   70.7530 C   0  0  0  0  0  0  0  0  0  0  0  0
    4.6960   59.6320   71.6370 N   0  0  2  0  0  4  0  0  0  0  0  0
    3.7460   59.8230   72.8140 C   0  0  1  0  0  0  0  0  0  0  0  0
    4.0960   61.1390   73.4870 C   0  0  0  0  0  0  0  0  0  0  0  0
    5.1550   60.9130   70.9690 C   0  0  0  0  0  0  0  0  0  0  0  0
   -0.6057   63.4166   71.1485 H   0  0  0  0  0  0  0  0  0  0  0  0
   -0.4597   64.0066   72.9079 H   0  0  0  0  0  0  0  0  0  0  0  0
    1.7066   64.3760   72.5200 H   0  0  0  0  0  0  0  0  0  0  0  0
    2.9092   64.6068   69.3219 H   0  0  0  0  0  0  0  0  0  0  0  0
    3.2960   64.7345   71.0654 H   0  0  0  0  0  0  0  0  0  0  0  0
    4.3039   62.6791   69.1583 H   0  0  0  0  0  0  0  0  0  0  0  0
    4.0596   63.2683   72.8727 H   0  0  0  0  0  0  0  0  0  0  0  0
    1.9848   62.3864   73.7204 H   0  0  0  0  0  0  0  0  0  0  0  0
    1.5671   61.1955   70.9190 H   0  0  0  0  0  0  0  0  0  0  0  0
   -1.8300   59.6596   74.0977 H   0  0  0  0  0  0  0  0  0  0  0  0
   -1.5627   57.3766   75.0903 H   0  0  0  0  0  0  0  0  0  0  0  0
    0.5482   56.0986   74.7641 H   0  0  0  0  0  0  0  0  0  0  0  0
    2.4314   57.0778   73.4376 H   0  0  0  0  0  0  0  0  0  0  0  0
    1.9147   58.1031   70.7528 H   0  0  0  0  0  0  0  0  0  0  0  0
    2.2549   59.6707   69.9948 H   0  0  0  0  0  0  0  0  0  0  0  0
    4.1633   57.6127   71.1238 H   0  0  0  0  0  0  0  0  0  0  0  0
    4.3880   58.6593   69.7224 H   0  0  0  0  0  0  0  0  0  0  0  0
    5.6126   59.2723   71.9392 H   0  0  0  0  0  0  0  0  0  0  0  0
    3.8133   59.0852   73.6271 H   0  0  0  0  0  0  0  0  0  0  0  0
    5.1810   61.1894   73.6609 H   0  0  0  0  0  0  0  0  0  0  0  0
    3.5767   61.2171   74.4536 H   0  0  0  0  0  0  0  0  0  0  0  0
    5.2497   60.7253   69.8893 H   0  0  0  0  0  0  0  0  0  0  0  0
    6.1114   61.1905   71.4363 H   0  0  0  0  0  0  0  0  0  0  0  0
  2  1  2  0
  3  2  1  0
  4  3  1  0
  5  4  1  0
  6  5  1  0
  7  6  1  0
  8  7  2  0
  9  8  1  0
 10  9  1  0
 10  4  1  0
 11 10  1  0
 12  2  1  0
 12 11  1  0
 13 12  1  0
 14 13  2  0
 15 14  1  0
 16 15  2  0
 17 16  1  0
 18 13  1  0
 18 17  2  0
 19 11  1  0
 19 18  1  0
 19 20  1  6
 21 20  1  0
 22 21  1  0
 23 22  1  0
 23 19  1  0
 24  9  1  0
 24 23  1  0
 25  8  1  0
 25 22  1  0
  3 26  1  0
  3 27  1  0
  4 28  1  1
  6 29  1  0
  6 30  1  0
  7 31  1  0
  9 32  1  1
 10 33  1  1
 11 34  1  6
 14 35  1  0
 15 36  1  0
 16 37  1  0
 17 38  1  0
 20 39  1  0
 20 40  1  0
 21 41  1  0
 21 42  1  0
 22 43  1  1
 23 44  1  1
 24 45  1  0
 24 46  1  0
 25 47  1  0
 25 48  1  0
M  CHG  1  22   1
M  END
>  <score>  (4) 
-9.07

$$$$
=
     RDKit          3D

 48 54  0  0  0  0  0  0  0  0999 V2000
    2.2690   63.8400   69.5270 O   0  0  0  0  0  0  0  0  0  0  0  0
    1.8290   63.5870   70.6470 C   0  0  0  0  0  0  0  0  0  0  0  0
    0.9390   64.6120   71.3670 C   0  0  0  0  0  0  0  0  0  0  0  0
    0.0370   64.1030   72.5230 C   0  0  2  0  0  0  0  0  0  0  0  0
    0.5330   64.6980   73.7300 O   0  0  0  0  0  0  0  0  0  0  0  0
   -0.3390   64.5970   74.8460 C   0  0  0  0  0  0  0  0  0  0  0  0
   -0.0210   63.3350   75.5910 C   0  0  0  0  0  0  0  0  0  0  0  0
   -0.1980   62.0920   75.1000 C   0  0  0  0  0  0  0  0  0  0  0  0
   -0.7460   61.8720   73.6990 C   0  0  1  0  0  0  0  0  0  0  0  0
    0.0610   62.5710   72.5980 C   0  0  2  0  0  0  0  0  0  0  0  0
    1.5380   62.1840   72.6660 C   0  0  2  0  0  0  0  0  0  0  0  0
    2.0610   62.4080   71.3300 N   0  0  0  0  0  0  0  0  0  0  0  0
    2.6160   61.2220   70.8420 C   0  0  0  0  0  0  0  0  0  0  0  0
    3.1720   60.9810   69.5990 C   0  0  0  0  0  0  0  0  0  0  0  0
    3.6440   59.6970   69.3200 C   0  0  0  0  0  0  0  0  0  0  0  0
    3.5530   58.6790   70.2790 C   0  0  0  0  0  0  0  0  0  0  0  0
    2.9880   58.9280   71.5320 C   0  0  0  0  0  0  0  0  0  0  0  0
    2.5130   60.2060   71.8040 C   0  0  0  0  0  0  0  0  0  0  0  0
    1.8890   60.7220   73.0840 C   0  0  1  0  0  0  0  0  0  0  0  0
    2.9270   60.7320   74.2350 C   0  0  0  0  0  0  0  0  0  0  0  0
    2.3960   59.7950   75.2980 C   0  0  0  0  0  0  0  0  0  0  0  0
    0.9070   59.8130   75.1170 N   0  0  2  0  0  4  0  0  0  0  0  0
    0.7060   59.8640   73.6060 C   0  0  1  0  0  0  0  0  0  0  0  0
   -0.6970   60.3810   73.3400 C   0  0  0  0  0  0  0  0  0  0  0  0
    0.1510   60.8670   75.9010 C   0  0  0  0  0  0  0  0  0  0  0  0
    1.6008   65.3855   71.7837 H   0  0  0  0  0  0  0  0  0  0  0  0
    0.2333   64.9554   70.5962 H   0  0  0  0  0  0  0  0  0  0  0  0
   -1.0130   64.3880   72.3607 H   0  0  0  0  0  0  0  0  0  0  0  0
   -0.1954   65.4639   75.5078 H   0  0  0  0  0  0  0  0  0  0  0  0
   -1.3845   64.5777   74.5046 H   0  0  0  0  0  0  0  0  0  0  0  0
    0.3849   63.4301   76.6089 H   0  0  0  0  0  0  0  0  0  0  0  0
   -1.7654   62.2840   73.7327 H   0  0  0  0  0  0  0  0  0  0  0  0
   -0.4701   62.2086   71.7055 H   0  0  0  0  0  0  0  0  0  0  0  0
    1.9774   62.7941   73.4689 H   0  0  0  0  0  0  0  0  0  0  0  0
    3.2408   61.7818   68.8480 H   0  0  0  0  0  0  0  0  0  0  0  0
    4.0915   59.4823   68.3383 H   0  0  0  0  0  0  0  0  0  0  0  0
    3.9305   57.6733   70.0425 H   0  0  0  0  0  0  0  0  0  0  0  0
    2.9204   58.1306   72.2867 H   0  0  0  0  0  0  0  0  0  0  0  0
    3.9029   60.3793   73.8701 H   0  0  0  0  0  0  0  0  0  0  0  0
    3.0701   61.7471   74.6339 H   0  0  0  0  0  0  0  0  0  0  0  0
    2.7917   58.7791   75.1516 H   0  0  0  0  0  0  0  0  0  0  0  0
    2.6946   60.1045   76.3105 H   0  0  0  0  0  0  0  0  0  0  0  0
    0.4819   58.9712   75.5312 H   0  0  0  0  0  0  0  0  0  0  0  0
    0.7392   58.9036   73.0708 H   0  0  0  0  0  0  0  0  0  0  0  0
   -1.4193   59.8272   73.9578 H   0  0  0  0  0  0  0  0  0  0  0  0
   -0.9540   60.2413   72.2796 H   0  0  0  0  0  0  0  0  0  0  0  0
    0.7733   61.1768   76.7535 H   0  0  0  0  0  0  0  0  0  0  0  0
   -0.7993   60.4101   76.2144 H   0  0  0  0  0  0  0  0  0  0  0  0
  2  1  2  0
  3  2  1  0
  4  3  1  0
  5  4  1  0
  6  5  1  0
  7  6  1  0
  8  7  2  0
  9  8  1  0
 10  9  1  0
 10  4  1  0
 11 10  1  0
 12  2  1  0
 12 11  1  0
 13 12  1  0
 14 13  2  0
 15 14  1  0
 16 15  2  0
 17 16  1  0
 18 13  1  0
 18 17  2  0
 19 11  1  0
 19 18  1  0
 19 20  1  1
 21 20  1  0
 22 21  1  0
 23 22  1  0
 23 19  1  0
 24  9  1  0
 24 23  1  0
 25  8  1  0
 25 22  1  0
  3 26  1  0
  3 27  1  0
  4 28  1  6
  6 29  1  0
  6 30  1  0
  7 31  1  0
  9 32  1  1
 10 33  1  6
 11 34  1  1
 14 35  1  0
 15 36  1  0
 16 37  1  0
 17 38  1  0
 20 39  1  0
 20 40  1  0
 21 41  1  0
 21 42  1  0
 22 43  1  1
 23 44  1  6
 24 45  1  0
 24 46  1  0
 25 47  1  0
 25 48  1  0
M  CHG  1  22   1
M  END
>  <score>  (5) 
-8.96

$$$$
=
     RDKit          3D

 48 54  0  0  0  0  0  0  0  0999 V2000
    1.4710   65.1930   70.6590 O   0  0  0  0  0  0  0  0  0  0  0  0
    1.8420   64.0250   70.7550 C   0  0  0  0  0  0  0  0  0  0  0  0
    2.7600   63.4240   69.6790 C   0  0  0  0  0  0  0  0  0  0  0  0
    3.5740   62.1550   70.0470 C   0  0  2  0  0  0  0  0  0  0  0  0
    3.0610   61.0830   69.2440 O   0  0  0  0  0  0  0  0  0  0  0  0
    3.8720   59.9190   69.2150 C   0  0  0  0  0  0  0  0  0  0  0  0
    3.4440   59.0060   70.3250 C   0  0  0  0  0  0  0  0  0  0  0  0
    3.5660   59.2900   71.6370 C   0  0  0  0  0  0  0  0  0  0  0  0
    4.1630   60.6070   72.1040 C   0  0  1  0  0  0  0  0  0  0  0  0
    3.4520   61.8460   71.5450 C   0  0  2  0  0  0  0  0  0  0  0  0
    1.9540   61.8000   71.8360 C   0  0  2  0  0  0  0  0  0  0  0  0
    1.5070   63.1820   71.7980 N   0  0  0  0  0  0  0  0  0  0  0  0
    0.9040   63.5110   73.0150 C   0  0  0  0  0  0  0  0  0  0  0  0
    0.3910   64.7310   73.4180 C   0  0  0  0  0  0  0  0  0  0  0  0
   -0.1450   64.8330   74.7030 C   0  0  0  0  0  0  0  0  0  0  0  0
   -0.1610   63.7250   75.5610 C   0  0  0  0  0  0  0  0  0  0  0  0
    0.3600   62.4970   75.1480 C   0  0  0  0  0  0  0  0  0  0  0  0
    0.9000   62.3990   73.8710 C   0  0  0  0  0  0  0  0  0  0  0  0
    1.4950   61.1810   73.1940 C   0  0  1  0  0  0  0  0  0  0  0  0
    0.4070   60.1050   72.9480 C   0  0  0  0  0  0  0  0  0  0  0  0
    0.8290   58.8830   73.7320 C   0  0  0  0  0  0  0  0  0  0  0  0
    2.3240   58.9810   73.8230 N   0  0  2  0  0  4  0  0  0  0  0  0
    2.5970   60.4690   74.0210 C   0  0  1  0  0  0  0  0  0  0  0  0
    4.0400   60.7340   73.6280 C   0  0  0  0  0  0  0  0  0  0  0  0
    3.1060   58.3290   72.7010 C   0  0  0  0  0  0  0  0  0  0  0  0
    2.1291   63.1695   68.8146 H   0  0  0  0  0  0  0  0  0  0  0  0
    3.5207   64.1983   69.5007 H   0  0  0  0  0  0  0  0  0  0  0  0
    4.6458   62.3011   69.8472 H   0  0  0  0  0  0  0  0  0  0  0  0
    3.7514   59.4080   68.2484 H   0  0  0  0  0  0  0  0  0  0  0  0
    4.9288   60.1956   69.3442 H   0  0  0  0  0  0  0  0  0  0  0  0
    3.0000   58.0380   70.0496 H   0  0  0  0  0  0  0  0  0  0  0  0
    5.2031   60.5806   71.7469 H   0  0  0  0  0  0  0  0  0  0  0  0
    3.9997   62.6415   72.0715 H   0  0  0  0  0  0  0  0  0  0  0  0
    1.5169   61.1265   71.0841 H   0  0  0  0  0  0  0  0  0  0  0  0
    0.4051   65.5992   72.7426 H   0  0  0  0  0  0  0  0  0  0  0  0
   -0.5590   65.7928   75.0456 H   0  0  0  0  0  0  0  0  0  0  0  0
   -0.5882   63.8236   76.5698 H   0  0  0  0  0  0  0  0  0  0  0  0
    0.3434   61.6256   75.8191 H   0  0  0  0  0  0  0  0  0  0  0  0
   -0.5705   60.4648   73.3016 H   0  0  0  0  0  0  0  0  0  0  0  0
    0.3078   59.8763   71.8766 H   0  0  0  0  0  0  0  0  0  0  0  0
    0.3786   58.8922   74.7355 H   0  0  0  0  0  0  0  0  0  0  0  0
    0.5034   57.9490   73.2508 H   0  0  0  0  0  0  0  0  0  0  0  0
    2.6769   58.4185   74.6104 H   0  0  0  0  0  0  0  0  0  0  0  0
    2.5294   60.8506   75.0505 H   0  0  0  0  0  0  0  0  0  0  0  0
    4.6978   59.9994   74.1155 H   0  0  0  0  0  0  0  0  0  0  0  0
    4.3369   61.7442   73.9463 H   0  0  0  0  0  0  0  0  0  0  0  0
    2.4653   57.5701   72.2282 H   0  0  0  0  0  0  0  0  0  0  0  0
    4.0111   57.8969   73.1528 H   0  0  0  0  0  0  0  0  0  0  0  0
  2  1  2  0
  3  2  1  0
  4  3  1  0
  5  4  1  0
  6  5  1  0
  7  6  1  0
  8  7  2  0
  9  8  1  0
 10  9  1  0
 10  4  1  0
 11 10  1  0
 12  2  1  0
 12 11  1  0
 13 12  1  0
 14 13  2  0
 15 14  1  0
 16 15  2  0
 17 16  1  0
 18 13  1  0
 18 17  2  0
 19 11  1  0
 19 18  1  0
 19 20  1  6
 21 20  1  0
 22 21  1  0
 23 22  1  0
 23 19  1  0
 24  9  1  0
 24 23  1  0
 25  8  1  0
 25 22  1  0
  3 26  1  0
  3 27  1  0
  4 28  1  6
  6 29  1  0
  6 30  1  0
  7 31  1  0
  9 32  1  1
 10 33  1  1
 11 34  1  6
 14 35  1  0
 15 36  1  0
 16 37  1  0
 17 38  1  0
 20 39  1  0
 20 40  1  0
 21 41  1  0
 21 42  1  0
 22 43  1  1
 23 44  1  1
 24 45  1  0
 24 46  1  0
 25 47  1  0
 25 48  1  0
M  CHG  1  22   1
M  END
>  <score>  (6) 
-8.825

$$$$
=
     RDKit          3D

 48 54  0  0  0  0  0  0  0  0999 V2000
    2.9370   58.0210   72.6480 O   0  0  0  0  0  0  0  0  0  0  0  0
    2.9550   59.1930   72.2770 C   0  0  0  0  0  0  0  0  0  0  0  0
    4.1110   59.7000   71.4010 C   0  0  0  0  0  0  0  0  0  0  0  0
    3.8820   60.9970   70.5790 C   0  0  2  0  0  0  0  0  0  0  0  0
    4.7550   61.9960   71.1240 O   0  0  0  0  0  0  0  0  0  0  0  0
    4.9130   63.1540   70.3190 C   0  0  0  0  0  0  0  0  0  0  0  0
    3.8700   64.1580   70.7120 C   0  0  0  0  0  0  0  0  0  0  0  0
    2.5440   63.9880   70.5420 C   0  0  0  0  0  0  0  0  0  0  0  0
    1.9870   62.7160   69.9230 C   0  0  1  0  0  0  0  0  0  0  0  0
    2.4120   61.4340   70.6490 C   0  0  2  0  0  0  0  0  0  0  0  0
    2.0730   61.5030   72.1370 C   0  0  2  0  0  0  0  0  0  0  0  0
    1.9770   60.1230   72.5790 N   0  0  0  0  0  0  0  0  0  0  0  0
    0.7150   59.8990   73.1380 C   0  0  0  0  0  0  0  0  0  0  0  0
    0.1910   58.7170   73.6310 C   0  0  0  0  0  0  0  0  0  0  0  0
   -1.1160   58.7250   74.1210 C   0  0  0  0  0  0  0  0  0  0  0  0
   -1.8750   59.9030   74.1110 C   0  0  0  0  0  0  0  0  0  0  0  0
   -1.3410   61.0920   73.6100 C   0  0  0  0  0  0  0  0  0  0  0  0
   -0.0410   61.0800   73.1160 C   0  0  0  0  0  0  0  0  0  0  0  0
    0.7580   62.2350   72.5500 C   0  0  1  0  0  0  0  0  0  0  0  0
    1.0570   63.2860   73.6500 C   0  0  0  0  0  0  0  0  0  0  0  0
    0.3950   64.5710   73.2050 C   0  0  0  0  0  0  0  0  0  0  0  0
    0.3500   64.4820   71.7070 N   0  0  2  0  0  4  0  0  0  0  0  0
    0.0350   63.0170   71.4220 C   0  0  1  0  0  0  0  0  0  0  0  0
    0.4540   62.7210   69.9920 C   0  0  0  0  0  0  0  0  0  0  0  0
    1.5510   65.0360   70.9680 C   0  0  0  0  0  0  0  0  0  0  0  0
    4.9705   59.8791   72.0637 H   0  0  0  0  0  0  0  0  0  0  0  0
    4.2504   58.9138   70.6444 H   0  0  0  0  0  0  0  0  0  0  0  0
    4.1065   60.8345   69.5145 H   0  0  0  0  0  0  0  0  0  0  0  0
    5.9149   63.5801   70.4759 H   0  0  0  0  0  0  0  0  0  0  0  0
    4.7991   62.8910   69.2570 H   0  0  0  0  0  0  0  0  0  0  0  0
    4.2111   65.0979   71.1706 H   0  0  0  0  0  0  0  0  0  0  0  0
    2.3813   62.7117   68.8961 H   0  0  0  0  0  0  0  0  0  0  0  0
    1.8384   60.6876   70.0798 H   0  0  0  0  0  0  0  0  0  0  0  0
    2.8637   62.1090   72.6033 H   0  0  0  0  0  0  0  0  0  0  0  0
    0.7895   57.7941   73.6366 H   0  0  0  0  0  0  0  0  0  0  0  0
   -1.5544   57.7978   74.5188 H   0  0  0  0  0  0  0  0  0  0  0  0
   -2.9030   59.8909   74.5022 H   0  0  0  0  0  0  0  0  0  0  0  0
   -1.9354   62.0176   73.6061 H   0  0  0  0  0  0  0  0  0  0  0  0
    0.6402   62.9573   74.6134 H   0  0  0  0  0  0  0  0  0  0  0  0
    2.1399   63.4223   73.7871 H   0  0  0  0  0  0  0  0  0  0  0  0
   -0.6212   64.6467   73.6192 H   0  0  0  0  0  0  0  0  0  0  0  0
    0.9415   65.4606   73.5513 H   0  0  0  0  0  0  0  0  0  0  0  0
   -0.3728   65.1102   71.3279 H   0  0  0  0  0  0  0  0  0  0  0  0
   -1.0250   62.7247   71.4525 H   0  0  0  0  0  0  0  0  0  0  0  0
    0.0552   63.4960   69.3209 H   0  0  0  0  0  0  0  0  0  0  0  0
    0.0602   61.7426   69.6795 H   0  0  0  0  0  0  0  0  0  0  0  0
    2.0641   65.7507   71.6283 H   0  0  0  0  0  0  0  0  0  0  0  0
    1.1705   65.5064   70.0493 H   0  0  0  0  0  0  0  0  0  0  0  0
  2  1  2  0
  3  2  1  0
  4  3  1  0
  5  4  1  0
  6  5  1  0
  7  6  1  0
  8  7  2  0
  9  8  1  0
 10  9  1  0
 10  4  1  0
 11 10  1  0
 12  2  1  0
 12 11  1  0
 13 12  1  0
 14 13  2  0
 15 14  1  0
 16 15  2  0
 17 16  1  0
 18 13  1  0
 18 17  2  0
 19 11  1  0
 19 18  1  0
 19 20  1  1
 21 20  1  0
 22 21  1  0
 23 22  1  0
 23 19  1  0
 24  9  1  0
 24 23  1  0
 25  8  1  0
 25 22  1  0
  3 26  1  0
  3 27  1  0
  4 28  1  6
  6 29  1  0
  6 30  1  0
  7 31  1  0
  9 32  1  6
 10 33  1  6
 11 34  1  1
 14 35  1  0
 15 36  1  0
 16 37  1  0
 17 38  1  0
 20 39  1  0
 20 40  1  0
 21 41  1  0
 21 42  1  0
 22 43  1  6
 23 44  1  6
 24 45  1  0
 24 46  1  0
 25 47  1  0
 25 48  1  0
M  CHG  1  22   1
M  END
>  <score>  (7) 
-8.676

$$$$
=
     RDKit          3D

 48 54  0  0  0  0  0  0  0  0999 V2000
    3.0150   69.9600   68.9290 O   0  0  0  0  0  0  0  0  0  0  0  0
    3.3020   69.7550   67.7510 C   0  0  0  0  0  0  0  0  0  0  0  0
    4.7400   69.9960   67.2630 C   0  0  0  0  0  0  0  0  0  0  0  0
    5.1830   69.3050   65.9460 C   0  0  2  0  0  0  0  0  0  0  0  0
    5.4050   70.3460   64.9840 O   0  0  0  0  0  0  0  0  0  0  0  0
    6.1030   69.9400   63.8170 C   0  0  0  0  0  0  0  0  0  0  0  0
    5.1050   69.4970   62.7890 C   0  0  0  0  0  0  0  0  0  0  0  0
    4.3060   68.4190   62.9150 C   0  0  0  0  0  0  0  0  0  0  0  0
    4.3540   67.5460   64.1580 C   0  0  1  0  0  0  0  0  0  0  0  0
    4.1160   68.3120   65.4660 C   0  0  2  0  0  0  0  0  0  0  0  0
    2.8110   69.1020   65.4140 C   0  0  2  0  0  0  0  0  0  0  0  0
    2.4140   69.2930   66.7980 N   0  0  0  0  0  0  0  0  0  0  0  0
    1.1350   68.7660   66.9940 C   0  0  0  0  0  0  0  0  0  0  0  0
    0.4060   68.6910   68.1670 C   0  0  0  0  0  0  0  0  0  0  0  0
   -0.8530   68.0900   68.1280 C   0  0  0  0  0  0  0  0  0  0  0  0
   -1.3640   67.5780   66.9280 C   0  0  0  0  0  0  0  0  0  0  0  0
   -0.6230   67.6550   65.7480 C   0  0  0  0  0  0  0  0  0  0  0  0
    0.6350   68.2460   65.7900 C   0  0  0  0  0  0  0  0  0  0  0  0
    1.6060   68.4680   64.6490 C   0  0  1  0  0  0  0  0  0  0  0  0
    1.0310   69.4830   63.6280 C   0  0  0  0  0  0  0  0  0  0  0  0
    0.9020   68.7420   62.3150 C   0  0  0  0  0  0  0  0  0  0  0  0
    1.9480   67.6670   62.3770 N   0  0  2  0  0  4  0  0  0  0  0  0
    1.9230   67.1920   63.8260 C   0  0  1  0  0  0  0  0  0  0  0  0
    3.2410   66.4920   64.1090 C   0  0  0  0  0  0  0  0  0  0  0  0
    3.3180   68.0370   61.8460 C   0  0  0  0  0  0  0  0  0  0  0  0
    4.8609   71.0801   67.1214 H   0  0  0  0  0  0  0  0  0  0  0  0
    5.3751   69.5448   68.0395 H   0  0  0  0  0  0  0  0  0  0  0  0
    6.1033   68.7214   66.0960 H   0  0  0  0  0  0  0  0  0  0  0  0
    6.6893   70.7837   63.4241 H   0  0  0  0  0  0  0  0  0  0  0  0
    6.7855   69.1117   64.0579 H   0  0  0  0  0  0  0  0  0  0  0  0
    5.0192   70.0931   61.8685 H   0  0  0  0  0  0  0  0  0  0  0  0
    5.3669   67.1170   64.1551 H   0  0  0  0  0  0  0  0  0  0  0  0
    4.1217   67.4789   66.1843 H   0  0  0  0  0  0  0  0  0  0  0  0
    3.0299   70.0150   64.8409 H   0  0  0  0  0  0  0  0  0  0  0  0
    0.8086   69.0951   69.1075 H   0  0  0  0  0  0  0  0  0  0  0  0
   -1.4503   68.0175   69.0488 H   0  0  0  0  0  0  0  0  0  0  0  0
   -2.3596   67.1105   66.9159 H   0  0  0  0  0  0  0  0  0  0  0  0
   -1.0254   67.2567   64.8049 H   0  0  0  0  0  0  0  0  0  0  0  0
    0.0457   69.8410   63.9612 H   0  0  0  0  0  0  0  0  0  0  0  0
    1.6854   70.3615   63.5274 H   0  0  0  0  0  0  0  0  0  0  0  0
   -0.1010   68.3014   62.2156 H   0  0  0  0  0  0  0  0  0  0  0  0
    1.0394   69.4055   61.4485 H   0  0  0  0  0  0  0  0  0  0  0  0
    1.7237   66.9050   61.7213 H   0  0  0  0  0  0  0  0  0  0  0  0
    1.1637   66.4399   64.0865 H   0  0  0  0  0  0  0  0  0  0  0  0
    3.4536   65.7654   63.3110 H   0  0  0  0  0  0  0  0  0  0  0  0
    3.1850   65.9595   65.0699 H   0  0  0  0  0  0  0  0  0  0  0  0
    3.2044   68.8890   61.1595 H   0  0  0  0  0  0  0  0  0  0  0  0
    3.7186   67.1420   61.3475 H   0  0  0  0  0  0  0  0  0  0  0  0
  2  1  2  0
  3  2  1  0
  4  3  1  0
  5  4  1  0
  6  5  1  0
  7  6  1  0
  8  7  2  0
  9  8  1  0
 10  9  1  0
 10  4  1  0
 11 10  1  0
 12  2  1  0
 12 11  1  0
 13 12  1  0
 14 13  2  0
 15 14  1  0
 16 15  2  0
 17 16  1  0
 18 13  1  0
 18 17  2  0
 19 11  1  0
 19 18  1  0
 19 20  1  6
 21 20  1  0
 22 21  1  0
 23 22  1  0
 23 19  1  0
 24  9  1  0
 24 23  1  0
 25  8  1  0
 25 22  1  0
  3 26  1  0
  3 27  1  0
  4 28  1  1
  6 29  1  0
  6 30  1  0
  7 31  1  0
  9 32  1  1
 10 33  1  1
 11 34  1  6
 14 35  1  0
 15 36  1  0
 16 37  1  0
 17 38  1  0
 20 39  1  0
 20 40  1  0
 21 41  1  0
 21 42  1  0
 22 43  1  6
 23 44  1  6
 24 45  1  0
 24 46  1  0
 25 47  1  0
 25 48  1  0
M  CHG  1  22   1
M  END
>  <score>  (8) 
-8.359

$$$$
=
     RDKit          3D

 48 54  0  0  0  0  0  0  0  0999 V2000
    4.4870   58.9550   74.2790 O   0  0  0  0  0  0  0  0  0  0  0  0
    3.9660   59.9190   73.7190 C   0  0  0  0  0  0  0  0  0  0  0  0
    4.4540   60.3480   72.3270 C   0  0  0  0  0  0  0  0  0  0  0  0
    3.5070   61.2250   71.4660 C   0  0  2  0  0  0  0  0  0  0  0  0
    4.1320   62.5100   71.3360 O   0  0  0  0  0  0  0  0  0  0  0  0
    3.5700   63.3490   70.3380 C   0  0  0  0  0  0  0  0  0  0  0  0
    2.4860   64.1770   70.9610 C   0  0  0  0  0  0  0  0  0  0  0  0
    1.3370   63.6810   71.4600 C   0  0  0  0  0  0  0  0  0  0  0  0
    1.0470   62.1890   71.4350 C   0  0  1  0  0  0  0  0  0  0  0  0
    2.1220   61.3350   72.1190 C   0  0  2  0  0  0  0  0  0  0  0  0
    2.3770   61.8100   73.5480 C   0  0  2  0  0  0  0  0  0  0  0  0
    2.9280   60.6630   74.2480 N   0  0  0  0  0  0  0  0  0  0  0  0
    2.1320   60.3670   75.3590 C   0  0  0  0  0  0  0  0  0  0  0  0
    2.2670   59.3280   76.2610 C   0  0  0  0  0  0  0  0  0  0  0  0
    1.3270   59.2140   77.2870 C   0  0  0  0  0  0  0  0  0  0  0  0
    0.2740   60.1330   77.3960 C   0  0  0  0  0  0  0  0  0  0  0  0
    0.1430   61.1790   76.4810 C   0  0  0  0  0  0  0  0  0  0  0  0
    1.0760   61.2860   75.4560 C   0  0  0  0  0  0  0  0  0  0  0  0
    1.1580   62.3370   74.3690 C   0  0  1  0  0  0  0  0  0  0  0  0
    1.4850   63.7270   74.9730 C   0  0  0  0  0  0  0  0  0  0  0  0
    0.3130   64.6240   74.6400 C   0  0  0  0  0  0  0  0  0  0  0  0
   -0.2700   64.0450   73.3850 N   0  0  2  0  0  4  0  0  0  0  0  0
   -0.1590   62.5350   73.5730 C   0  0  1  0  0  0  0  0  0  0  0  0
   -0.2460   61.8870   72.2020 C   0  0  0  0  0  0  0  0  0  0  0  0
    0.2940   64.5720   72.0810 C   0  0  0  0  0  0  0  0  0  0  0  0
    5.3875   60.9129   72.4665 H   0  0  0  0  0  0  0  0  0  0  0  0
    4.5474   59.4073   71.7646 H   0  0  0  0  0  0  0  0  0  0  0  0
    3.3467   60.7769   70.4743 H   0  0  0  0  0  0  0  0  0  0  0  0
    4.3489   64.0078   69.9266 H   0  0  0  0  0  0  0  0  0  0  0  0
    3.1535   62.7368   69.5245 H   0  0  0  0  0  0  0  0  0  0  0  0
    2.6396   65.2649   71.0143 H   0  0  0  0  0  0  0  0  0  0  0  0
    0.9933   61.9360   70.3658 H   0  0  0  0  0  0  0  0  0  0  0  0
    1.6614   60.3393   72.0385 H   0  0  0  0  0  0  0  0  0  0  0  0
    3.0321   62.6898   73.4648 H   0  0  0  0  0  0  0  0  0  0  0  0
    3.0946   58.6088   76.1725 H   0  0  0  0  0  0  0  0  0  0  0  0
    1.4135   58.3954   78.0167 H   0  0  0  0  0  0  0  0  0  0  0  0
   -0.4569   60.0287   78.2114 H   0  0  0  0  0  0  0  0  0  0  0  0
   -0.6806   61.9029   76.5691 H   0  0  0  0  0  0  0  0  0  0  0  0
    1.6065   63.6489   76.0635 H   0  0  0  0  0  0  0  0  0  0  0  0
    2.4236   64.1288   74.5636 H   0  0  0  0  0  0  0  0  0  0  0  0
   -0.4278   64.6110   75.4530 H   0  0  0  0  0  0  0  0  0  0  0  0
    0.6175   65.6730   74.5102 H   0  0  0  0  0  0  0  0  0  0  0  0
   -1.2483   64.3454   73.2684 H   0  0  0  0  0  0  0  0  0  0  0  0
   -0.9621   62.0484   74.1460 H   0  0  0  0  0  0  0  0  0  0  0  0
   -1.1068   62.2961   71.6527 H   0  0  0  0  0  0  0  0  0  0  0  0
   -0.3748   60.7997   72.3078 H   0  0  0  0  0  0  0  0  0  0  0  0
    0.7488   65.5550   72.2731 H   0  0  0  0  0  0  0  0  0  0  0  0
   -0.5438   64.6244   71.3701 H   0  0  0  0  0  0  0  0  0  0  0  0
  2  1  2  0
  3  2  1  0
  4  3  1  0
  5  4  1  0
  6  5  1  0
  7  6  1  0
  8  7  2  0
  9  8  1  0
 10  9  1  0
 10  4  1  0
 11 10  1  0
 12  2  1  0
 12 11  1  0
 13 12  1  0
 14 13  2  0
 15 14  1  0
 16 15  2  0
 17 16  1  0
 18 13  1  0
 18 17  2  0
 19 11  1  0
 19 18  1  0
 19 20  1  1
 21 20  1  0
 22 21  1  0
 23 22  1  0
 23 19  1  0
 24  9  1  0
 24 23  1  0
 25  8  1  0
 25 22  1  0
  3 26  1  0
  3 27  1  0
  4 28  1  6
  6 29  1  0
  6 30  1  0
  7 31  1  0
  9 32  1  6
 10 33  1  1
 11 34  1  6
 14 35  1  0
 15 36  1  0
 16 37  1  0
 17 38  1  0
 20 39  1  0
 20 40  1  0
 21 41  1  0
 21 42  1  0
 22 43  1  6
 23 44  1  1
 24 45  1  0
 24 46  1  0
 25 47  1  0
 25 48  1  0
M  CHG  1  22   1
M  END
>  <score>  (9) 
-8.31

$$$$
