=
     RDKit          3D

 33 33  0  0  0  0  0  0  0  0999 V2000
    3.5430   69.3380   66.5240 C   0  0  0  0  0  0  0  0  0  0  0  0
    4.8360   69.8730   66.6050 C   0  0  0  0  0  0  0  0  0  0  0  0
    5.6470   69.9470   65.4720 C   0  0  0  0  0  0  0  0  0  0  0  0
    5.1710   69.4960   64.2460 C   0  0  0  0  0  0  0  0  0  0  0  0
    3.8750   68.9820   64.1500 C   0  0  0  0  0  0  0  0  0  0  0  0
    3.0460   68.8780   65.2830 C   0  0  0  0  0  0  0  0  0  0  0  0
    2.9630   70.0300   68.7400 C   0  0  0  0  0  0  0  0  0  0  0  0
    2.6930   69.2250   67.5960 O   0  0  0  0  0  0  0  0  0  0  0  0
    1.6620   68.2560   65.1400 C   0  0  1  0  0  0  0  0  0  0  0  0
    1.7500   66.7350   65.2980 C   0  0  0  0  0  0  0  0  0  0  0  0
    0.6680   68.7550   66.1240 N   0  0  0  0  0  0  0  0  0  0  0  0
   -0.9420   68.4790   65.8140 S   0  0  0  0  0  6  0  0  0  0  0  0
   -1.1410   68.6720   64.4020 O   0  0  0  0  0  0  0  0  0  0  0  0
   -1.3960   67.3210   66.5340 O   0  0  0  0  0  0  0  0  0  0  0  0
   -1.5380   69.8210   66.5830 N   0  0  0  0  0  0  0  0  0  0  0  0
    3.4130   68.5050   62.9480 O   0  0  0  0  0  0  0  0  0  0  0  0
    4.2900   67.5160   62.4020 C   0  0  0  0  0  0  0  0  0  0  0  0
    5.2150   70.2380   67.5710 H   0  0  0  0  0  0  0  0  0  0  0  0
    6.6628   70.3621   65.5488 H   0  0  0  0  0  0  0  0  0  0  0  0
    5.8128   69.5436   63.3539 H   0  0  0  0  0  0  0  0  0  0  0  0
    2.7677   69.4476   69.6525 H   0  0  0  0  0  0  0  0  0  0  0  0
    4.0164   70.3464   68.7254 H   0  0  0  0  0  0  0  0  0  0  0  0
    2.3134   70.9176   68.7254 H   0  0  0  0  0  0  0  0  0  0  0  0
    1.3164   68.5464   64.1369 H   0  0  0  0  0  0  0  0  0  0  0  0
    1.7649   66.4777   66.3674 H   0  0  0  0  0  0  0  0  0  0  0  0
    0.8775   66.2656   64.8200 H   0  0  0  0  0  0  0  0  0  0  0  0
    2.6708   66.3694   64.8200 H   0  0  0  0  0  0  0  0  0  0  0  0
    0.8856   68.3149   67.0295 H   0  0  0  0  0  0  0  0  0  0  0  0
   -1.4786   69.6872   67.6025 H   0  0  0  0  0  0  0  0  0  0  0  0
   -0.9843   70.6462   66.3122 H   0  0  0  0  0  0  0  0  0  0  0  0
    4.7775   66.9662   63.2206 H   0  0  0  0  0  0  0  0  0  0  0  0
    3.7115   66.8147   61.7827 H   0  0  0  0  0  0  0  0  0  0  0  0
    5.0555   68.0065   61.7827 H   0  0  0  0  0  0  0  0  0  0  0  0
  2  1  2  0
  3  2  1  0
  4  3  2  0
  5  4  1  0
  6  5  2  0
  6  1  1  0
  8  7  1  0
  8  1  1  0
  9  6  1  0
 10  9  1  0
 11  9  1  0
 12 11  1  0
 13 12  2  0
 14 12  2  0
 15 12  1  0
 16  5  1  0
 17 16  1  0
  2 18  1  0
  3 19  1  0
  4 20  1  0
  7 21  1  0
  7 22  1  0
  7 23  1  0
  9 24  1  6
 10 25  1  0
 10 26  1  0
 10 27  1  0
 11 28  1  0
 15 29  1  0
 15 30  1  0
 17 31  1  0
 17 32  1  0
 17 33  1  0
M  END
>  <score>  (1) 
-7.488

$$$$
=
     RDKit          3D

 33 33  0  0  0  0  0  0  0  0999 V2000
    3.8970   69.0240   64.2170 C   0  0  0  0  0  0  0  0  0  0  0  0
    5.1660   69.5870   64.4100 C   0  0  0  0  0  0  0  0  0  0  0  0
    5.5690   70.0150   65.6750 C   0  0  0  0  0  0  0  0  0  0  0  0
    4.7120   69.8760   66.7610 C   0  0  0  0  0  0  0  0  0  0  0  0
    3.4540   69.2950   66.5840 C   0  0  0  0  0  0  0  0  0  0  0  0
    3.0160   68.8760   65.3130 C   0  0  0  0  0  0  0  0  0  0  0  0
    4.1090   67.5030   62.3820 C   0  0  0  0  0  0  0  0  0  0  0  0
    3.4290   68.5900   63.0010 O   0  0  0  0  0  0  0  0  0  0  0  0
    1.6130   68.3020   65.1580 C   0  0  1  0  0  0  0  0  0  0  0  0
    1.6470   66.7790   65.3190 C   0  0  0  0  0  0  0  0  0  0  0  0
    0.6270   68.8370   66.1320 N   0  0  0  0  0  0  0  0  0  0  0  0
   -0.9810   68.5040   65.8750 S   0  0  0  0  0  6  0  0  0  0  0  0
   -1.2360   68.7020   64.4730 O   0  0  0  0  0  0  0  0  0  0  0  0
   -1.3670   67.3240   66.5980 O   0  0  0  0  0  0  0  0  0  0  0  0
   -1.5980   69.8160   66.6780 N   0  0  0  0  0  0  0  0  0  0  0  0
    2.5910   69.1870   67.6480 O   0  0  0  0  0  0  0  0  0  0  0  0
    2.9900   70.0240   68.7360 C   0  0  0  0  0  0  0  0  0  0  0  0
    5.8508   69.6924   63.5556 H   0  0  0  0  0  0  0  0  0  0  0  0
    6.5644   70.4623   65.8133 H   0  0  0  0  0  0  0  0  0  0  0  0
    5.0239   70.2227   67.7573 H   0  0  0  0  0  0  0  0  0  0  0  0
    4.5232   66.8408   63.1565 H   0  0  0  0  0  0  0  0  0  0  0  0
    3.4031   66.9379   61.7556 H   0  0  0  0  0  0  0  0  0  0  0  0
    4.9260   67.8905   61.7556 H   0  0  0  0  0  0  0  0  0  0  0  0
    1.2870   68.6025   64.1513 H   0  0  0  0  0  0  0  0  0  0  0  0
    1.6527   66.5234   66.3889 H   0  0  0  0  0  0  0  0  0  0  0  0
    0.7584   66.3399   64.8419 H   0  0  0  0  0  0  0  0  0  0  0  0
    2.5543   66.3800   64.8419 H   0  0  0  0  0  0  0  0  0  0  0  0
    0.8742   68.4588   67.0576 H   0  0  0  0  0  0  0  0  0  0  0  0
   -1.5256   69.6620   67.6938 H   0  0  0  0  0  0  0  0  0  0  0  0
   -1.0649   70.6586   66.4196 H   0  0  0  0  0  0  0  0  0  0  0  0
    2.7527   69.5262   69.6878 H   0  0  0  0  0  0  0  0  0  0  0  0
    4.0729   70.2085   68.6787 H   0  0  0  0  0  0  0  0  0  0  0  0
    2.4514   70.9814   68.6787 H   0  0  0  0  0  0  0  0  0  0  0  0
  2  1  2  0
  3  2  1  0
  4  3  2  0
  5  4  1  0
  6  5  2  0
  6  1  1  0
  8  7  1  0
  8  1  1  0
  9  6  1  0
 10  9  1  0
 11  9  1  0
 12 11  1  0
 13 12  2  0
 14 12  2  0
 15 12  1  0
 16  5  1  0
 17 16  1  0
  2 18  1  0
  3 19  1  0
  4 20  1  0
  7 21  1  0
  7 22  1  0
  7 23  1  0
  9 24  1  6
 10 25  1  0
 10 26  1  0
 10 27  1  0
 11 28  1  0
 15 29  1  0
 15 30  1  0
 17 31  1  0
 17 32  1  0
 17 33  1  0
M  END
>  <score>  (2) 
-7.472

$$$$
=
     RDKit          3D

 33 33  0  0  0  0  0  0  0  0999 V2000
    2.9640   69.2340   66.5330 C   0  0  0  0  0  0  0  0  0  0  0  0
    3.9210   69.8450   67.3550 C   0  0  0  0  0  0  0  0  0  0  0  0
    5.2480   69.9560   66.9400 C   0  0  0  0  0  0  0  0  0  0  0  0
    5.6310   69.4660   65.6970 C   0  0  0  0  0  0  0  0  0  0  0  0
    4.6810   68.8760   64.8600 C   0  0  0  0  0  0  0  0  0  0  0  0
    3.3400   68.7330   65.2650 C   0  0  0  0  0  0  0  0  0  0  0  0
    1.3530   68.3960   68.0910 C   0  0  0  0  0  0  0  0  0  0  0  0
    1.6430   69.0810   66.8770 O   0  0  0  0  0  0  0  0  0  0  0  0
    2.3520   68.0300   64.3430 C   0  0  1  0  0  0  0  0  0  0  0  0
    2.0030   66.6470   64.9010 C   0  0  0  0  0  0  0  0  0  0  0  0
    1.0800   68.7670   64.1390 N   0  0  0  0  0  0  0  0  0  0  0  0
    0.4870   68.8880   62.5900 S   0  0  0  0  0  6  0  0  0  0  0  0
   -0.3440   67.7360   62.3640 O   0  0  0  0  0  0  0  0  0  0  0  0
    0.0750   70.2370   62.3180 O   0  0  0  0  0  0  0  0  0  0  0  0
    1.9190   68.6250   61.7970 N   0  0  0  0  0  0  0  0  0  0  0  0
    5.0610   68.3600   63.6450 O   0  0  0  0  0  0  0  0  0  0  0  0
    5.5310   69.3830   62.7630 C   0  0  0  0  0  0  0  0  0  0  0  0
    3.6225   70.2408   68.3370 H   0  0  0  0  0  0  0  0  0  0  0  0
    5.9916   70.4314   67.5966 H   0  0  0  0  0  0  0  0  0  0  0  0
    6.6795   69.5426   65.3732 H   0  0  0  0  0  0  0  0  0  0  0  0
    1.6231   69.0339   68.9455 H   0  0  0  0  0  0  0  0  0  0  0  0
    0.2789   68.1626   68.1327 H   0  0  0  0  0  0  0  0  0  0  0  0
    1.9330   67.4623   68.1327 H   0  0  0  0  0  0  0  0  0  0  0  0
    2.8619   67.9656   63.3705 H   0  0  0  0  0  0  0  0  0  0  0  0
    2.0119   66.6823   66.0004 H   0  0  0  0  0  0  0  0  0  0  0  0
    1.0024   66.3525   64.5517 H   0  0  0  0  0  0  0  0  0  0  0  0
    2.7441   65.9130   64.5517 H   0  0  0  0  0  0  0  0  0  0  0  0
    0.3599   68.2980   64.7068 H   0  0  0  0  0  0  0  0  0  0  0  0
    2.6724   68.4866   62.4856 H   0  0  0  0  0  0  0  0  0  0  0  0
    1.8352   67.7853   61.2064 H   0  0  0  0  0  0  0  0  0  0  0  0
    5.9185   70.2265   63.3533 H   0  0  0  0  0  0  0  0  0  0  0  0
    6.3341   68.9797   62.1287 H   0  0  0  0  0  0  0  0  0  0  0  0
    4.7019   69.7296   62.1287 H   0  0  0  0  0  0  0  0  0  0  0  0
  2  1  2  0
  3  2  1  0
  4  3  2  0
  5  4  1  0
  6  5  2  0
  6  1  1  0
  8  7  1  0
  8  1  1  0
  9  6  1  0
 10  9  1  0
 11  9  1  0
 12 11  1  0
 13 12  2  0
 14 12  2  0
 15 12  1  0
 16  5  1  0
 17 16  1  0
  2 18  1  0
  3 19  1  0
  4 20  1  0
  7 21  1  0
  7 22  1  0
  7 23  1  0
  9 24  1  6
 10 25  1  0
 10 26  1  0
 10 27  1  0
 11 28  1  0
 15 29  1  0
 15 30  1  0
 17 31  1  0
 17 32  1  0
 17 33  1  0
M  END
>  <score>  (3) 
-7.391

$$$$
=
     RDKit          3D

 33 33  0  0  0  0  0  0  0  0999 V2000
    2.0630   68.7490   66.3010 C   0  0  0  0  0  0  0  0  0  0  0  0
    1.7410   69.3440   67.5290 C   0  0  0  0  0  0  0  0  0  0  0  0
    2.7160   70.0080   68.2740 C   0  0  0  0  0  0  0  0  0  0  0  0
    4.0180   70.0930   67.7960 C   0  0  0  0  0  0  0  0  0  0  0  0
    4.3440   69.5230   66.5630 C   0  0  0  0  0  0  0  0  0  0  0  0
    3.3830   68.8280   65.8030 C   0  0  0  0  0  0  0  0  0  0  0  0
   -0.1990   68.4960   65.5600 C   0  0  0  0  0  0  0  0  0  0  0  0
    1.1600   68.0720   65.5180 O   0  0  0  0  0  0  0  0  0  0  0  0
    3.8000   68.1730   64.4920 C   0  0  1  0  0  0  0  0  0  0  0  0
    3.7600   66.6480   64.6310 C   0  0  0  0  0  0  0  0  0  0  0  0
    2.9510   68.5420   63.3310 N   0  0  0  0  0  0  0  0  0  0  0  0
    3.6130   68.4210   61.8110 S   0  0  0  0  0  6  0  0  0  0  0  0
    3.9570   67.0390   61.6070 O   0  0  0  0  0  0  0  0  0  0  0  0
    2.8540   69.2020   60.8740 O   0  0  0  0  0  0  0  0  0  0  0  0
    5.0200   69.2370   62.1300 N   0  0  0  0  0  0  0  0  0  0  0  0
    5.6380   69.5740   66.1020 O   0  0  0  0  0  0  0  0  0  0  0  0
    6.5250   70.1130   67.0850 C   0  0  0  0  0  0  0  0  0  0  0  0
    0.7102   69.2868   67.9086 H   0  0  0  0  0  0  0  0  0  0  0  0
    2.4540   70.4643   69.2400 H   0  0  0  0  0  0  0  0  0  0  0  0
    4.7899   70.6077   68.3869 H   0  0  0  0  0  0  0  0  0  0  0  0
   -0.5197   68.5960   66.6075 H   0  0  0  0  0  0  0  0  0  0  0  0
   -0.2960   69.4671   65.0525 H   0  0  0  0  0  0  0  0  0  0  0  0
   -0.8310   67.7523   65.0525 H   0  0  0  0  0  0  0  0  0  0  0  0
    4.8169   68.5430   64.2945 H   0  0  0  0  0  0  0  0  0  0  0  0
    3.7529   66.3770   65.6971 H   0  0  0  0  0  0  0  0  0  0  0  0
    2.8514   66.2595   64.1479 H   0  0  0  0  0  0  0  0  0  0  0  0
    4.6470   66.2124   64.1479 H   0  0  0  0  0  0  0  0  0  0  0  0
    2.1206   67.9330   63.3529 H   0  0  0  0  0  0  0  0  0  0  0  0
    5.1498   69.3123   63.1490 H   0  0  0  0  0  0  0  0  0  0  0  0
    5.8142   68.7254   61.7196 H   0  0  0  0  0  0  0  0  0  0  0  0
    6.1431   69.8809   68.0901 H   0  0  0  0  0  0  0  0  0  0  0  0
    7.5236   69.6689   66.9606 H   0  0  0  0  0  0  0  0  0  0  0  0
    6.5908   71.2040   66.9606 H   0  0  0  0  0  0  0  0  0  0  0  0
  2  1  2  0
  3  2  1  0
  4  3  2  0
  5  4  1  0
  6  5  2  0
  6  1  1  0
  8  7  1  0
  8  1  1  0
  9  6  1  0
 10  9  1  0
 11  9  1  0
 12 11  1  0
 13 12  2  0
 14 12  2  0
 15 12  1  0
 16  5  1  0
 17 16  1  0
  2 18  1  0
  3 19  1  0
  4 20  1  0
  7 21  1  0
  7 22  1  0
  7 23  1  0
  9 24  1  6
 10 25  1  0
 10 26  1  0
 10 27  1  0
 11 28  1  0
 15 29  1  0
 15 30  1  0
 17 31  1  0
 17 32  1  0
 17 33  1  0
M  END
>  <score>  (4) 
-7.074

$$$$
=
     RDKit          3D

 33 33  0  0  0  0  0  0  0  0999 V2000
    3.4340   69.0930   66.3320 C   0  0  0  0  0  0  0  0  0  0  0  0
    3.2450   69.7750   67.5420 C   0  0  0  0  0  0  0  0  0  0  0  0
    2.1230   69.5220   68.3320 C   0  0  0  0  0  0  0  0  0  0  0  0
    1.1840   68.5810   67.9260 C   0  0  0  0  0  0  0  0  0  0  0  0
    1.3750   67.8790   66.7330 C   0  0  0  0  0  0  0  0  0  0  0  0
    2.4880   68.1310   65.9080 C   0  0  0  0  0  0  0  0  0  0  0  0
    5.6020   70.0520   66.0050 C   0  0  0  0  0  0  0  0  0  0  0  0
    4.5070   69.2950   65.4990 O   0  0  0  0  0  0  0  0  0  0  0  0
    2.6230   67.3840   64.5880 C   0  0  1  0  0  0  0  0  0  0  0  0
    2.3850   68.3400   63.4150 C   0  0  0  0  0  0  0  0  0  0  0  0
    3.9470   66.7430   64.3840 N   0  0  0  0  0  0  0  0  0  0  0  0
    3.9860   65.1060   64.1010 S   0  0  0  0  0  6  0  0  0  0  0  0
    5.2630   64.6270   64.5570 O   0  0  0  0  0  0  0  0  0  0  0  0
    2.7320   64.5080   64.4650 O   0  0  0  0  0  0  0  0  0  0  0  0
    4.0510   65.1800   62.4460 N   0  0  0  0  0  0  0  0  0  0  0  0
    0.4340   66.9720   66.3110 O   0  0  0  0  0  0  0  0  0  0  0  0
   -0.8630   67.2800   66.8290 C   0  0  0  0  0  0  0  0  0  0  0  0
    3.9879   70.5163   67.8717 H   0  0  0  0  0  0  0  0  0  0  0  0
    1.9815   70.0676   69.2766 H   0  0  0  0  0  0  0  0  0  0  0  0
    0.2931   68.3895   68.5421 H   0  0  0  0  0  0  0  0  0  0  0  0
    5.5808   70.0374   67.1047 H   0  0  0  0  0  0  0  0  0  0  0  0
    6.5462   69.6129   65.6506 H   0  0  0  0  0  0  0  0  0  0  0  0
    5.5247   71.0905   65.6506 H   0  0  0  0  0  0  0  0  0  0  0  0
    1.8668   66.5863   64.6303 H   0  0  0  0  0  0  0  0  0  0  0  0
    2.1362   69.3395   63.8012 H   0  0  0  0  0  0  0  0  0  0  0  0
    3.2955   68.4005   62.8007 H   0  0  0  0  0  0  0  0  0  0  0  0
    1.5524   67.9665   62.8007 H   0  0  0  0  0  0  0  0  0  0  0  0
    4.3893   67.2041   63.5761 H   0  0  0  0  0  0  0  0  0  0  0  0
    4.7042   65.9236   62.1610 H   0  0  0  0  0  0  0  0  0  0  0  0
    4.3764   64.2762   62.0744 H   0  0  0  0  0  0  0  0  0  0  0  0
   -0.8301   67.2722   67.9285 H   0  0  0  0  0  0  0  0  0  0  0  0
   -1.1707   68.2762   66.4785 H   0  0  0  0  0  0  0  0  0  0  0  0
   -1.5858   66.5285   66.4785 H   0  0  0  0  0  0  0  0  0  0  0  0
  2  1  2  0
  3  2  1  0
  4  3  2  0
  5  4  1  0
  6  5  2  0
  6  1  1  0
  8  7  1  0
  8  1  1  0
  9  6  1  0
 10  9  1  0
 11  9  1  0
 12 11  1  0
 13 12  2  0
 14 12  2  0
 15 12  1  0
 16  5  1  0
 17 16  1  0
  2 18  1  0
  3 19  1  0
  4 20  1  0
  7 21  1  0
  7 22  1  0
  7 23  1  0
  9 24  1  1
 10 25  1  0
 10 26  1  0
 10 27  1  0
 11 28  1  0
 15 29  1  0
 15 30  1  0
 17 31  1  0
 17 32  1  0
 17 33  1  0
M  END
>  <score>  (5) 
-6.872

$$$$
=
     RDKit          3D

 33 33  0  0  0  0  0  0  0  0999 V2000
    1.4250   68.3920   65.2880 C   0  0  0  0  0  0  0  0  0  0  0  0
    0.7990   68.8420   66.4580 C   0  0  0  0  0  0  0  0  0  0  0  0
    1.5480   69.4010   67.4950 C   0  0  0  0  0  0  0  0  0  0  0  0
    2.9260   69.5230   67.3690 C   0  0  0  0  0  0  0  0  0  0  0  0
    3.5580   69.0980   66.1970 C   0  0  0  0  0  0  0  0  0  0  0  0
    2.8270   68.5120   65.1460 C   0  0  0  0  0  0  0  0  0  0  0  0
    0.0560   68.6950   63.3480 C   0  0  0  0  0  0  0  0  0  0  0  0
    0.7560   67.8240   64.2310 O   0  0  0  0  0  0  0  0  0  0  0  0
    3.5660   68.0100   63.9120 C   0  0  1  0  0  0  0  0  0  0  0  0
    4.3910   69.1430   63.2950 C   0  0  0  0  0  0  0  0  0  0  0  0
    4.4870   66.8740   64.1750 N   0  0  0  0  0  0  0  0  0  0  0  0
    3.9550   65.3400   63.8160 S   0  0  0  0  0  6  0  0  0  0  0  0
    2.7580   65.1170   64.5820 O   0  0  0  0  0  0  0  0  0  0  0  0
    4.0580   65.0950   62.4040 O   0  0  0  0  0  0  0  0  0  0  0  0
    5.1800   64.5130   64.5660 N   0  0  0  0  0  0  0  0  0  0  0  0
    4.9240   69.1860   66.0820 O   0  0  0  0  0  0  0  0  0  0  0  0
    5.4780   70.0690   67.0600 C   0  0  0  0  0  0  0  0  0  0  0  0
   -0.2927   68.7540   66.5603 H   0  0  0  0  0  0  0  0  0  0  0  0
    1.0470   69.7449   68.4119 H   0  0  0  0  0  0  0  0  0  0  0  0
    3.5186   69.9532   68.1899 H   0  0  0  0  0  0  0  0  0  0  0  0
   -0.5270   69.4204   63.9344 H   0  0  0  0  0  0  0  0  0  0  0  0
    0.7773   69.2313   62.7138 H   0  0  0  0  0  0  0  0  0  0  0  0
   -0.6229   68.1060   62.7138 H   0  0  0  0  0  0  0  0  0  0  0  0
    2.7797   67.6541   63.2301 H   0  0  0  0  0  0  0  0  0  0  0  0
    4.8345   69.7521   64.0965 H   0  0  0  0  0  0  0  0  0  0  0  0
    5.1916   68.7167   62.6727 H   0  0  0  0  0  0  0  0  0  0  0  0
    3.7395   69.7741   62.6727 H   0  0  0  0  0  0  0  0  0  0  0  0
    5.3418   67.0386   63.6244 H   0  0  0  0  0  0  0  0  0  0  0  0
    5.0696   64.5876   65.5873 H   0  0  0  0  0  0  0  0  0  0  0  0
    5.1453   63.5217   64.2884 H   0  0  0  0  0  0  0  0  0  0  0  0
    5.2430   69.6944   68.0672 H   0  0  0  0  0  0  0  0  0  0  0  0
    6.5695   70.1187   66.9327 H   0  0  0  0  0  0  0  0  0  0  0  0
    5.0479   71.0734   66.9327 H   0  0  0  0  0  0  0  0  0  0  0  0
  2  1  2  0
  3  2  1  0
  4  3  2  0
  5  4  1  0
  6  5  2  0
  6  1  1  0
  8  7  1  0
  8  1  1  0
  9  6  1  0
 10  9  1  0
 11  9  1  0
 12 11  1  0
 13 12  2  0
 14 12  2  0
 15 12  1  0
 16  5  1  0
 17 16  1  0
  2 18  1  0
  3 19  1  0
  4 20  1  0
  7 21  1  0
  7 22  1  0
  7 23  1  0
  9 24  1  6
 10 25  1  0
 10 26  1  0
 10 27  1  0
 11 28  1  0
 15 29  1  0
 15 30  1  0
 17 31  1  0
 17 32  1  0
 17 33  1  0
M  END
>  <score>  (6) 
-6.675

$$$$
=
     RDKit          3D

 33 33  0  0  0  0  0  0  0  0999 V2000
    2.8850   68.6860   64.3100 C   0  0  0  0  0  0  0  0  0  0  0  0
    3.9570   68.9440   63.4450 C   0  0  0  0  0  0  0  0  0  0  0  0
    5.1530   69.4710   63.9320 C   0  0  0  0  0  0  0  0  0  0  0  0
    5.2930   69.7390   65.2890 C   0  0  0  0  0  0  0  0  0  0  0  0
    4.2390   69.4650   66.1640 C   0  0  0  0  0  0  0  0  0  0  0  0
    3.0140   68.9520   65.6930 C   0  0  0  0  0  0  0  0  0  0  0  0
    1.1270   68.6740   62.6860 C   0  0  0  0  0  0  0  0  0  0  0  0
    1.6760   68.1770   63.9020 O   0  0  0  0  0  0  0  0  0  0  0  0
    1.8730   68.7250   66.6760 C   0  0  1  0  0  0  0  0  0  0  0  0
    2.2190   69.3400   68.0350 C   0  0  0  0  0  0  0  0  0  0  0  0
    0.5730   69.2960   66.2410 N   0  0  0  0  0  0  0  0  0  0  0  0
   -0.7630   68.3070   66.2700 S   0  0  0  0  0  6  0  0  0  0  0  0
   -1.2700   68.3200   67.6160 O   0  0  0  0  0  0  0  0  0  0  0  0
   -1.5760   68.5340   65.1080 O   0  0  0  0  0  0  0  0  0  0  0  0
    0.0350   66.8700   66.0590 N   0  0  0  0  0  0  0  0  0  0  0  0
    4.3600   69.7590   67.5000 O   0  0  0  0  0  0  0  0  0  0  0  0
    5.6100   70.3900   67.7880 C   0  0  0  0  0  0  0  0  0  0  0  0
    3.8541   68.7287   62.3712 H   0  0  0  0  0  0  0  0  0  0  0  0
    5.9855   69.6746   63.2424 H   0  0  0  0  0  0  0  0  0  0  0  0
    6.2314   70.1658   65.6728 H   0  0  0  0  0  0  0  0  0  0  0  0
    0.3290   69.3965   62.9123 H   0  0  0  0  0  0  0  0  0  0  0  0
    1.9167   69.1706   62.1031 H   0  0  0  0  0  0  0  0  0  0  0  0
    0.7112   67.8389   62.1031 H   0  0  0  0  0  0  0  0  0  0  0  0
    1.7566   67.6328   66.7354 H   0  0  0  0  0  0  0  0  0  0  0  0
    1.8505   68.6851   68.8383 H   0  0  0  0  0  0  0  0  0  0  0  0
    3.3103   69.4480   68.1215 H   0  0  0  0  0  0  0  0  0  0  0  0
    1.7447   70.3287   68.1215 H   0  0  0  0  0  0  0  0  0  0  0  0
    0.3719   70.1003   66.8522 H   0  0  0  0  0  0  0  0  0  0  0  0
    0.2604   66.4642   66.9785 H   0  0  0  0  0  0  0  0  0  0  0  0
   -0.5649   66.2180   65.5337 H   0  0  0  0  0  0  0  0  0  0  0  0
    5.7441   70.4577   68.8777 H   0  0  0  0  0  0  0  0  0  0  0  0
    6.4286   69.7971   67.3540 H   0  0  0  0  0  0  0  0  0  0  0  0
    5.6191   71.4007   67.3540 H   0  0  0  0  0  0  0  0  0  0  0  0
  2  1  2  0
  3  2  1  0
  4  3  2  0
  5  4  1  0
  6  5  2  0
  6  1  1  0
  8  7  1  0
  8  1  1  0
  9  6  1  0
 10  9  1  0
 11  9  1  0
 12 11  1  0
 13 12  2  0
 14 12  2  0
 15 12  1  0
 16  5  1  0
 17 16  1  0
  2 18  1  0
  3 19  1  0
  4 20  1  0
  7 21  1  0
  7 22  1  0
  7 23  1  0
  9 24  1  1
 10 25  1  0
 10 26  1  0
 10 27  1  0
 11 28  1  0
 15 29  1  0
 15 30  1  0
 17 31  1  0
 17 32  1  0
 17 33  1  0
M  END
>  <score>  (7) 
-6.547

$$$$
=
     RDKit          3D

 33 33  0  0  0  0  0  0  0  0999 V2000
    1.4800   68.6910   66.2390 C   0  0  0  0  0  0  0  0  0  0  0  0
    0.1750   68.7770   66.7440 C   0  0  0  0  0  0  0  0  0  0  0  0
   -0.9190   68.8280   65.8790 C   0  0  0  0  0  0  0  0  0  0  0  0
   -0.7210   68.7850   64.5050 C   0  0  0  0  0  0  0  0  0  0  0  0
    0.5740   68.6770   63.9910 C   0  0  0  0  0  0  0  0  0  0  0  0
    1.6950   68.6460   64.8420 C   0  0  0  0  0  0  0  0  0  0  0  0
    2.6040   69.4200   68.2220 C   0  0  0  0  0  0  0  0  0  0  0  0
    2.6040   68.6460   67.0270 O   0  0  0  0  0  0  0  0  0  0  0  0
    3.0910   68.5870   64.2350 C   0  0  1  0  0  0  0  0  0  0  0  0
    4.0530   69.4660   65.0410 C   0  0  0  0  0  0  0  0  0  0  0  0
    3.6710   67.2220   64.1760 N   0  0  0  0  0  0  0  0  0  0  0  0
    4.3750   66.7350   62.7500 S   0  0  0  0  0  6  0  0  0  0  0  0
    5.6890   67.3190   62.7050 O   0  0  0  0  0  0  0  0  0  0  0  0
    4.1110   65.3420   62.5150 O   0  0  0  0  0  0  0  0  0  0  0  0
    3.4110   67.6140   61.7290 N   0  0  0  0  0  0  0  0  0  0  0  0
    0.7760   68.6690   62.6330 O   0  0  0  0  0  0  0  0  0  0  0  0
    0.0430   69.7120   61.9850 C   0  0  0  0  0  0  0  0  0  0  0  0
    0.0119   68.8045   67.8315 H   0  0  0  0  0  0  0  0  0  0  0  0
   -1.9384   68.9023   66.2856 H   0  0  0  0  0  0  0  0  0  0  0  0
   -1.5821   68.8359   63.8225 H   0  0  0  0  0  0  0  0  0  0  0  0
    3.6411   69.6193   68.5297 H   0  0  0  0  0  0  0  0  0  0  0  0
    2.0855   70.3732   68.0415 H   0  0  0  0  0  0  0  0  0  0  0  0
    2.0855   68.8655   69.0180 H   0  0  0  0  0  0  0  0  0  0  0  0
    2.9716   68.9457   63.2020 H   0  0  0  0  0  0  0  0  0  0  0  0
    3.8805   69.3084   66.1159 H   0  0  0  0  0  0  0  0  0  0  0  0
    5.0904   69.1973   64.7929 H   0  0  0  0  0  0  0  0  0  0  0  0
    3.8787   70.5234   64.7929 H   0  0  0  0  0  0  0  0  0  0  0  0
    4.3918   67.1633   64.9094 H   0  0  0  0  0  0  0  0  0  0  0  0
    2.7690   68.1994   62.2821 H   0  0  0  0  0  0  0  0  0  0  0  0
    3.9990   68.2160   61.1350 H   0  0  0  0  0  0  0  0  0  0  0  0
   -0.4151   70.3639   62.7434 H   0  0  0  0  0  0  0  0  0  0  0  0
    0.7250   70.3036   61.3566 H   0  0  0  0  0  0  0  0  0  0  0  0
   -0.7447   69.2708   61.3566 H   0  0  0  0  0  0  0  0  0  0  0  0
  2  1  2  0
  3  2  1  0
  4  3  2  0
  5  4  1  0
  6  5  2  0
  6  1  1  0
  8  7  1  0
  8  1  1  0
  9  6  1  0
 10  9  1  0
 11  9  1  0
 12 11  1  0
 13 12  2  0
 14 12  2  0
 15 12  1  0
 16  5  1  0
 17 16  1  0
  2 18  1  0
  3 19  1  0
  4 20  1  0
  7 21  1  0
  7 22  1  0
  7 23  1  0
  9 24  1  6
 10 25  1  0
 10 26  1  0
 10 27  1  0
 11 28  1  0
 15 29  1  0
 15 30  1  0
 17 31  1  0
 17 32  1  0
 17 33  1  0
M  END
>  <score>  (8) 
-6.208

$$$$
=
     RDKit          3D

 33 33  0  0  0  0  0  0  0  0999 V2000
   -0.0850   61.8470   72.4450 C   0  0  0  0  0  0  0  0  0  0  0  0
   -1.3540   61.5550   72.9630 C   0  0  0  0  0  0  0  0  0  0  0  0
   -1.5800   60.3680   73.6620 C   0  0  0  0  0  0  0  0  0  0  0  0
   -0.5400   59.4670   73.8570 C   0  0  0  0  0  0  0  0  0  0  0  0
    0.7350   59.7600   73.3640 C   0  0  0  0  0  0  0  0  0  0  0  0
    0.9830   60.9400   72.6380 C   0  0  0  0  0  0  0  0  0  0  0  0
    0.2590   64.2150   72.4620 C   0  0  0  0  0  0  0  0  0  0  0  0
    0.2100   62.9890   71.7400 O   0  0  0  0  0  0  0  0  0  0  0  0
    2.3740   61.1880   72.0690 C   0  0  1  0  0  0  0  0  0  0  0  0
    3.3460   61.5490   73.1960 C   0  0  0  0  0  0  0  0  0  0  0  0
    2.9460   60.0310   71.3340 N   0  0  0  0  0  0  0  0  0  0  0  0
    3.9300   60.3440   70.0310 S   0  0  0  0  0  6  0  0  0  0  0  0
    3.2750   61.3490   69.2370 O   0  0  0  0  0  0  0  0  0  0  0  0
    5.3010   60.4260   70.4520 O   0  0  0  0  0  0  0  0  0  0  0  0
    3.7220   58.8930   69.2580 N   0  0  0  0  0  0  0  0  0  0  0  0
    1.7580   58.8570   73.5260 O   0  0  0  0  0  0  0  0  0  0  0  0
    1.3120   57.5150   73.3190 C   0  0  0  0  0  0  0  0  0  0  0  0
   -2.1793   62.2675   72.8175 H   0  0  0  0  0  0  0  0  0  0  0  0
   -2.5816   60.1457   74.0586 H   0  0  0  0  0  0  0  0  0  0  0  0
   -0.7195   58.5260   74.3977 H   0  0  0  0  0  0  0  0  0  0  0  0
    0.2506   64.0052   73.5418 H   0  0  0  0  0  0  0  0  0  0  0  0
    1.1796   64.7577   72.2010 H   0  0  0  0  0  0  0  0  0  0  0  0
   -0.6153   64.8294   72.2010 H   0  0  0  0  0  0  0  0  0  0  0  0
    2.2495   62.0124   71.3514 H   0  0  0  0  0  0  0  0  0  0  0  0
    2.8633   61.3697   74.1680 H   0  0  0  0  0  0  0  0  0  0  0  0
    4.2492   60.9263   73.1147 H   0  0  0  0  0  0  0  0  0  0  0  0
    3.6238   62.6102   73.1147 H   0  0  0  0  0  0  0  0  0  0  0  0
    3.4968   59.4813   72.0088 H   0  0  0  0  0  0  0  0  0  0  0  0
    3.6146   58.1440   69.9568 H   0  0  0  0  0  0  0  0  0  0  0  0
    2.8786   58.9359   68.6684 H   0  0  0  0  0  0  0  0  0  0  0  0
    1.1502   57.0282   74.2921 H   0  0  0  0  0  0  0  0  0  0  0  0
    0.3690   57.5252   72.7528 H   0  0  0  0  0  0  0  0  0  0  0  0
    2.0736   56.9587   72.7528 H   0  0  0  0  0  0  0  0  0  0  0  0
  2  1  2  0
  3  2  1  0
  4  3  2  0
  5  4  1  0
  6  5  2  0
  6  1  1  0
  8  7  1  0
  8  1  1  0
  9  6  1  0
 10  9  1  0
 11  9  1  0
 12 11  1  0
 13 12  2  0
 14 12  2  0
 15 12  1  0
 16  5  1  0
 17 16  1  0
  2 18  1  0
  3 19  1  0
  4 20  1  0
  7 21  1  0
  7 22  1  0
  7 23  1  0
  9 24  1  6
 10 25  1  0
 10 26  1  0
 10 27  1  0
 11 28  1  0
 15 29  1  0
 15 30  1  0
 17 31  1  0
 17 32  1  0
 17 33  1  0
M  END
>  <score>  (9) 
-6.182

$$$$
