=
     RDKit          3D

 57 60  0  0  0  0  0  0  0  0999 V2000
    0.5290   66.2470   69.5680 C   0  0  0  0  0  0  0  0  0  0  0  0
    1.4220   67.2590   69.1930 C   0  0  0  0  0  0  0  0  0  0  0  0
    1.1040   68.1340   68.1500 C   0  0  0  0  0  0  0  0  0  0  0  0
   -0.1100   68.0090   67.4600 C   0  0  0  0  0  0  0  0  0  0  0  0
   -1.0200   67.0190   67.8640 C   0  0  0  0  0  0  0  0  0  0  0  0
   -0.7000   66.1470   68.9050 C   0  0  0  0  0  0  0  0  0  0  0  0
    3.6010   61.5700   72.2050 C   0  0  0  0  0  0  0  0  0  0  0  0
    3.2710   62.4890   71.1980 C   0  0  0  0  0  0  0  0  0  0  0  0
    2.2490   63.4200   71.4030 C   0  0  0  0  0  0  0  0  0  0  0  0
    1.8750   64.3910   70.3840 C   0  0  0  0  0  0  0  0  0  0  0  0
    0.8860   65.2700   70.6130 C   0  0  0  0  0  0  0  0  0  0  0  0
    0.1520   65.2800   71.9130 C   0  0  0  0  0  0  0  0  0  0  0  0
   -0.7540   66.0790   72.1350 O   0  0  0  0  0  0  0  0  0  0  0  0
    0.5370   64.3420   72.8630 O   0  0  0  0  0  0  0  0  0  0  0  0
    1.5710   63.4200   72.6140 C   0  0  0  0  0  0  0  0  0  0  0  0
    1.8770   62.5190   73.6310 C   0  0  0  0  0  0  0  0  0  0  0  0
    2.8970   61.5850   73.4310 C   0  0  0  0  0  0  0  0  0  0  0  0
    5.7400   60.9400   71.3310 C   0  0  0  0  0  0  0  0  0  0  0  0
    4.5850   60.6210   72.0940 O   0  0  0  0  0  0  0  0  0  0  0  0
    3.2850   60.6510   74.3590 O   0  0  0  0  0  0  0  0  0  0  0  0
    2.3070   60.1820   75.2770 C   0  0  0  0  0  0  0  0  0  0  0  0
   -0.4150   68.8780   66.2690 C   0  0  0  0  0  0  0  0  0  0  0  0
    0.2210   68.3620   64.9990 N   0  0  1  0  0  4  0  0  0  0  0  0
   -0.5670   68.7420   63.7810 C   0  0  0  0  0  0  0  0  0  0  0  0
    1.6860   68.7250   64.8810 C   0  0  0  0  0  0  0  0  0  0  0  0
    2.5420   67.5400   64.5260 C   0  0  0  0  0  0  0  0  0  0  0  0
    2.2230   66.2680   65.0280 C   0  0  0  0  0  0  0  0  0  0  0  0
    2.9960   65.1590   64.6810 C   0  0  0  0  0  0  0  0  0  0  0  0
    4.0890   65.3080   63.8330 C   0  0  0  0  0  0  0  0  0  0  0  0
    4.4180   66.5660   63.3330 C   0  0  0  0  0  0  0  0  0  0  0  0
    3.6490   67.6800   63.6770 C   0  0  0  0  0  0  0  0  0  0  0  0
    2.3801   67.3660   69.7228 H   0  0  0  0  0  0  0  0  0  0  0  0
    1.8122   68.9272   67.8684 H   0  0  0  0  0  0  0  0  0  0  0  0
   -1.9918   66.9303   67.3563 H   0  0  0  0  0  0  0  0  0  0  0  0
   -1.4206   65.3731   69.2079 H   0  0  0  0  0  0  0  0  0  0  0  0
    3.8183   62.4769   70.2439 H   0  0  0  0  0  0  0  0  0  0  0  0
    2.4060   64.4044   69.4207 H   0  0  0  0  0  0  0  0  0  0  0  0
    1.3222   62.5423   74.5806 H   0  0  0  0  0  0  0  0  0  0  0  0
    6.5751   61.1706   72.0089 H   0  0  0  0  0  0  0  0  0  0  0  0
    6.0088   60.0825   70.6967 H   0  0  0  0  0  0  0  0  0  0  0  0
    5.5306   61.8139   70.6967 H   0  0  0  0  0  0  0  0  0  0  0  0
    2.6588   60.3507   76.3055 H   0  0  0  0  0  0  0  0  0  0  0  0
    1.3642   60.7260   75.1181 H   0  0  0  0  0  0  0  0  0  0  0  0
    2.1409   59.1063   75.1181 H   0  0  0  0  0  0  0  0  0  0  0  0
   -1.5054   68.9139   66.1283 H   0  0  0  0  0  0  0  0  0  0  0  0
   -0.0003   69.8770   66.4688 H   0  0  0  0  0  0  0  0  0  0  0  0
    0.1947   67.3342   65.0603 H   0  0  0  0  0  0  0  0  0  0  0  0
   -1.5184   69.2008   64.0882 H   0  0  0  0  0  0  0  0  0  0  0  0
    0.0098   69.4610   63.1807 H   0  0  0  0  0  0  0  0  0  0  0  0
   -0.7704   67.8430   63.1807 H   0  0  0  0  0  0  0  0  0  0  0  0
    1.7988   69.4898   64.0984 H   0  0  0  0  0  0  0  0  0  0  0  0
    2.0195   69.0992   65.8602 H   0  0  0  0  0  0  0  0  0  0  0  0
    1.3594   66.1450   65.6982 H   0  0  0  0  0  0  0  0  0  0  0  0
    2.7408   64.1656   65.0785 H   0  0  0  0  0  0  0  0  0  0  0  0
    4.6939   64.4317   63.5571 H   0  0  0  0  0  0  0  0  0  0  0  0
    5.2850   66.6821   62.6661 H   0  0  0  0  0  0  0  0  0  0  0  0
    3.9130   68.6714   63.2802 H   0  0  0  0  0  0  0  0  0  0  0  0
  2  1  2  0
  3  2  1  0
  4  3  2  0
  5  4  1  0
  6  5  2  0
  6  1  1  0
  8  7  2  0
  9  8  1  0
 10  9  1  0
 11 10  2  0
 11  1  1  0
 12 11  1  0
 13 12  2  0
 14 12  1  0
 15 14  1  0
 15  9  2  0
 16 15  1  0
 17 16  2  0
 17  7  1  0
 19  7  1  0
 19 18  1  0
 20 17  1  0
 21 20  1  0
 22  4  1  0
 23 22  1  0
 24 23  1  0
 25 23  1  0
 26 25  1  0
 27 26  2  0
 28 27  1  0
 29 28  2  0
 30 29  1  0
 31 30  2  0
 31 26  1  0
  2 32  1  0
  3 33  1  0
  5 34  1  0
  6 35  1  0
  8 36  1  0
 10 37  1  0
 16 38  1  0
 18 39  1  0
 18 40  1  0
 18 41  1  0
 21 42  1  0
 21 43  1  0
 21 44  1  0
 22 45  1  0
 22 46  1  0
 23 47  1  1
 24 48  1  0
 24 49  1  0
 24 50  1  0
 25 51  1  0
 25 52  1  0
 27 53  1  0
 28 54  1  0
 29 55  1  0
 30 56  1  0
 31 57  1  0
M  CHG  1  23   1
M  END
>  <score>  (1) 
-10.227

$$$$
=
     RDKit          3D

 57 60  0  0  0  0  0  0  0  0999 V2000
    0.4550   65.6420   70.3540 C   0  0  0  0  0  0  0  0  0  0  0  0
    1.5540   66.4860   70.1520 C   0  0  0  0  0  0  0  0  0  0  0  0
    1.5790   67.3710   69.0700 C   0  0  0  0  0  0  0  0  0  0  0  0
    0.5070   67.4230   68.1680 C   0  0  0  0  0  0  0  0  0  0  0  0
   -0.6110   66.6040   68.3960 C   0  0  0  0  0  0  0  0  0  0  0  0
   -0.6330   65.7220   69.4770 C   0  0  0  0  0  0  0  0  0  0  0  0
    1.5470   60.2430   73.1690 C   0  0  0  0  0  0  0  0  0  0  0  0
    1.5540   61.1730   72.1190 C   0  0  0  0  0  0  0  0  0  0  0  0
    1.0040   62.4440   72.3010 C   0  0  0  0  0  0  0  0  0  0  0  0
    0.9910   63.4380   71.2380 C   0  0  0  0  0  0  0  0  0  0  0  0
    0.4520   64.6500   71.4460 C   0  0  0  0  0  0  0  0  0  0  0  0
   -0.1390   65.0120   72.7690 C   0  0  0  0  0  0  0  0  0  0  0  0
   -0.6340   66.1170   72.9720 O   0  0  0  0  0  0  0  0  0  0  0  0
   -0.1060   64.0400   73.7610 O   0  0  0  0  0  0  0  0  0  0  0  0
    0.4560   62.7690   73.5340 C   0  0  0  0  0  0  0  0  0  0  0  0
    0.4340   61.8660   74.5940 C   0  0  0  0  0  0  0  0  0  0  0  0
    0.9810   60.5930   74.4170 C   0  0  0  0  0  0  0  0  0  0  0  0
    2.6070   58.5560   71.8400 C   0  0  0  0  0  0  0  0  0  0  0  0
    2.0600   58.9730   73.0830 O   0  0  0  0  0  0  0  0  0  0  0  0
    1.0170   59.6220   75.3870 O   0  0  0  0  0  0  0  0  0  0  0  0
    1.6030   59.9560   76.6370 C   0  0  0  0  0  0  0  0  0  0  0  0
    0.5690   68.2960   66.9430 C   0  0  0  0  0  0  0  0  0  0  0  0
    1.6930   67.9050   66.0120 N   0  0  1  0  0  4  0  0  0  0  0  0
    1.2530   66.8980   64.9910 C   0  0  0  0  0  0  0  0  0  0  0  0
    2.3890   69.0970   65.3910 C   0  0  0  0  0  0  0  0  0  0  0  0
    3.6280   69.4930   66.1470 C   0  0  0  0  0  0  0  0  0  0  0  0
    4.8750   69.4990   65.5010 C   0  0  0  0  0  0  0  0  0  0  0  0
    6.0240   69.8920   66.1880 C   0  0  0  0  0  0  0  0  0  0  0  0
    5.9400   70.2820   67.5220 C   0  0  0  0  0  0  0  0  0  0  0  0
    4.7090   70.2750   68.1750 C   0  0  0  0  0  0  0  0  0  0  0  0
    3.5560   69.8820   67.4930 C   0  0  0  0  0  0  0  0  0  0  0  0
    2.4038   66.4524   70.8497 H   0  0  0  0  0  0  0  0  0  0  0  0
    2.4465   68.0317   68.9253 H   0  0  0  0  0  0  0  0  0  0  0  0
   -1.4752   66.6583   67.7177 H   0  0  0  0  0  0  0  0  0  0  0  0
   -1.5136   65.0836   69.6415 H   0  0  0  0  0  0  0  0  0  0  0  0
    1.9943   60.9004   71.1485 H   0  0  0  0  0  0  0  0  0  0  0  0
    1.4258   63.1946   70.2573 H   0  0  0  0  0  0  0  0  0  0  0  0
   -0.0090   62.1519   75.5594 H   0  0  0  0  0  0  0  0  0  0  0  0
    3.4698   57.8982   72.0213 H   0  0  0  0  0  0  0  0  0  0  0  0
    1.8428   58.0092   71.2681 H   0  0  0  0  0  0  0  0  0  0  0  0
    2.9319   59.4377   71.2681 H   0  0  0  0  0  0  0  0  0  0  0  0
    0.9613   59.5903   77.4522 H   0  0  0  0  0  0  0  0  0  0  0  0
    2.5955   59.4879   76.7134 H   0  0  0  0  0  0  0  0  0  0  0  0
    1.7060   61.0485   76.7134 H   0  0  0  0  0  0  0  0  0  0  0  0
   -0.3842   68.2115   66.4006 H   0  0  0  0  0  0  0  0  0  0  0  0
    0.7537   69.3279   67.2762 H   0  0  0  0  0  0  0  0  0  0  0  0
    2.4041   67.4432   66.5967 H   0  0  0  0  0  0  0  0  0  0  0  0
    0.8628   66.0050   65.5012 H   0  0  0  0  0  0  0  0  0  0  0  0
    0.4638   67.3349   64.3615 H   0  0  0  0  0  0  0  0  0  0  0  0
    2.1098   66.6157   64.3615 H   0  0  0  0  0  0  0  0  0  0  0  0
    2.6707   68.8436   64.3583 H   0  0  0  0  0  0  0  0  0  0  0  0
    1.6911   69.9468   65.4203 H   0  0  0  0  0  0  0  0  0  0  0  0
    4.9463   69.1920   64.4471 H   0  0  0  0  0  0  0  0  0  0  0  0
    6.9972   69.8937   65.6753 H   0  0  0  0  0  0  0  0  0  0  0  0
    6.8461   70.5959   68.0609 H   0  0  0  0  0  0  0  0  0  0  0  0
    4.6456   70.5798   69.2300 H   0  0  0  0  0  0  0  0  0  0  0  0
    2.5868   69.8773   68.0133 H   0  0  0  0  0  0  0  0  0  0  0  0
  2  1  2  0
  3  2  1  0
  4  3  2  0
  5  4  1  0
  6  5  2  0
  6  1  1  0
  8  7  2  0
  9  8  1  0
 10  9  1  0
 11 10  2  0
 11  1  1  0
 12 11  1  0
 13 12  2  0
 14 12  1  0
 15 14  1  0
 15  9  2  0
 16 15  1  0
 17 16  2  0
 17  7  1  0
 19  7  1  0
 19 18  1  0
 20 17  1  0
 21 20  1  0
 22  4  1  0
 23 22  1  0
 24 23  1  0
 25 23  1  0
 26 25  1  0
 27 26  2  0
 28 27  1  0
 29 28  2  0
 30 29  1  0
 31 30  2  0
 31 26  1  0
  2 32  1  0
  3 33  1  0
  5 34  1  0
  6 35  1  0
  8 36  1  0
 10 37  1  0
 16 38  1  0
 18 39  1  0
 18 40  1  0
 18 41  1  0
 21 42  1  0
 21 43  1  0
 21 44  1  0
 22 45  1  0
 22 46  1  0
 23 47  1  1
 24 48  1  0
 24 49  1  0
 24 50  1  0
 25 51  1  0
 25 52  1  0
 27 53  1  0
 28 54  1  0
 29 55  1  0
 30 56  1  0
 31 57  1  0
M  CHG  1  23   1
M  END
>  <score>  (2) 
-9.66

$$$$
=
     RDKit          3D

 57 60  0  0  0  0  0  0  0  0999 V2000
    0.7550   64.3970   70.6100 C   0  0  0  0  0  0  0  0  0  0  0  0
    1.9060   65.1950   70.5830 C   0  0  0  0  0  0  0  0  0  0  0  0
    1.9140   66.4020   69.8790 C   0  0  0  0  0  0  0  0  0  0  0  0
    0.7730   66.8300   69.1860 C   0  0  0  0  0  0  0  0  0  0  0  0
   -0.3910   66.0480   69.2480 C   0  0  0  0  0  0  0  0  0  0  0  0
   -0.3970   64.8430   69.9510 C   0  0  0  0  0  0  0  0  0  0  0  0
   -1.3950   59.7550   74.0880 C   0  0  0  0  0  0  0  0  0  0  0  0
   -1.4120   61.0090   73.4600 C   0  0  0  0  0  0  0  0  0  0  0  0
   -0.3250   61.4230   72.6860 C   0  0  0  0  0  0  0  0  0  0  0  0
   -0.3040   62.7160   72.0170 C   0  0  0  0  0  0  0  0  0  0  0  0
    0.7590   63.0840   71.2830 C   0  0  0  0  0  0  0  0  0  0  0  0
    1.9370   62.1790   71.1280 C   0  0  0  0  0  0  0  0  0  0  0  0
    2.9150   62.5040   70.4600 O   0  0  0  0  0  0  0  0  0  0  0  0
    1.8800   60.9530   71.7780 O   0  0  0  0  0  0  0  0  0  0  0  0
    0.7660   60.5760   72.5500 C   0  0  0  0  0  0  0  0  0  0  0  0
    0.8110   59.3260   73.1640 C   0  0  0  0  0  0  0  0  0  0  0  0
   -0.2730   58.9080   73.9390 C   0  0  0  0  0  0  0  0  0  0  0  0
   -3.7040   59.8400   74.7210 C   0  0  0  0  0  0  0  0  0  0  0  0
   -2.4130   59.2650   74.8670 O   0  0  0  0  0  0  0  0  0  0  0  0
   -0.3410   57.7000   74.5900 O   0  0  0  0  0  0  0  0  0  0  0  0
    0.7870   57.2940   75.3520 C   0  0  0  0  0  0  0  0  0  0  0  0
    0.8040   68.0760   68.3400 C   0  0  0  0  0  0  0  0  0  0  0  0
    1.9370   68.0670   67.3400 N   0  0  1  0  0  4  0  0  0  0  0  0
    1.6570   67.1590   66.1810 C   0  0  0  0  0  0  0  0  0  0  0  0
    2.3540   69.4560   66.9050 C   0  0  0  0  0  0  0  0  0  0  0  0
    3.6920   69.8530   67.4660 C   0  0  0  0  0  0  0  0  0  0  0  0
    4.8290   69.8460   66.6430 C   0  0  0  0  0  0  0  0  0  0  0  0
    6.0690   70.2400   67.1490 C   0  0  0  0  0  0  0  0  0  0  0  0
    6.1850   70.6440   68.4760 C   0  0  0  0  0  0  0  0  0  0  0  0
    5.0630   70.6500   69.3040 C   0  0  0  0  0  0  0  0  0  0  0  0
    3.8210   70.2570   68.8030 C   0  0  0  0  0  0  0  0  0  0  0  0
    2.8094   64.8693   71.1195 H   0  0  0  0  0  0  0  0  0  0  0  0
    2.8230   67.0214   69.8685 H   0  0  0  0  0  0  0  0  0  0  0  0
   -1.3049   66.3877   68.7387 H   0  0  0  0  0  0  0  0  0  0  0  0
   -1.3149   64.2379   69.9879 H   0  0  0  0  0  0  0  0  0  0  0  0
   -2.2842   61.6689   73.5773 H   0  0  0  0  0  0  0  0  0  0  0  0
   -1.1637   63.3955   72.1132 H   0  0  0  0  0  0  0  0  0  0  0  0
    1.6898   58.6762   73.0398 H   0  0  0  0  0  0  0  0  0  0  0  0
   -4.1345   60.0318   75.7149 H   0  0  0  0  0  0  0  0  0  0  0  0
   -3.6231   60.7872   74.1675 H   0  0  0  0  0  0  0  0  0  0  0  0
   -4.3539   59.1463   74.1675 H   0  0  0  0  0  0  0  0  0  0  0  0
    0.5547   57.3776   76.4239 H   0  0  0  0  0  0  0  0  0  0  0  0
    1.0357   56.2499   75.1111 H   0  0  0  0  0  0  0  0  0  0  0  0
    1.6441   57.9401   75.1111 H   0  0  0  0  0  0  0  0  0  0  0  0
   -0.1478   68.1560   67.7944 H   0  0  0  0  0  0  0  0  0  0  0  0
    0.9574   68.9332   69.0120 H   0  0  0  0  0  0  0  0  0  0  0  0
    2.7526   67.6753   67.8321 H   0  0  0  0  0  0  0  0  0  0  0  0
    1.3522   66.1705   66.5550 H   0  0  0  0  0  0  0  0  0  0  0  0
    0.8484   67.5847   65.5687 H   0  0  0  0  0  0  0  0  0  0  0  0
    2.5649   67.0554   65.5687 H   0  0  0  0  0  0  0  0  0  0  0  0
    2.4096   69.4808   65.8067 H   0  0  0  0  0  0  0  0  0  0  0  0
    1.6055   70.1665   67.2858 H   0  0  0  0  0  0  0  0  0  0  0  0
    4.7425   69.5283   65.5934 H   0  0  0  0  0  0  0  0  0  0  0  0
    6.9557   70.2312   66.4981 H   0  0  0  0  0  0  0  0  0  0  0  0
    7.1620   70.9586   68.8716 H   0  0  0  0  0  0  0  0  0  0  0  0
    5.1569   70.9650   70.3537 H   0  0  0  0  0  0  0  0  0  0  0  0
    2.9388   70.2641   69.4600 H   0  0  0  0  0  0  0  0  0  0  0  0
  2  1  2  0
  3  2  1  0
  4  3  2  0
  5  4  1  0
  6  5  2  0
  6  1  1  0
  8  7  2  0
  9  8  1  0
 10  9  1  0
 11 10  2  0
 11  1  1  0
 12 11  1  0
 13 12  2  0
 14 12  1  0
 15 14  1  0
 15  9  2  0
 16 15  1  0
 17 16  2  0
 17  7  1  0
 19  7  1  0
 19 18  1  0
 20 17  1  0
 21 20  1  0
 22  4  1  0
 23 22  1  0
 24 23  1  0
 25 23  1  0
 26 25  1  0
 27 26  2  0
 28 27  1  0
 29 28  2  0
 30 29  1  0
 31 30  2  0
 31 26  1  0
  2 32  1  0
  3 33  1  0
  5 34  1  0
  6 35  1  0
  8 36  1  0
 10 37  1  0
 16 38  1  0
 18 39  1  0
 18 40  1  0
 18 41  1  0
 21 42  1  0
 21 43  1  0
 21 44  1  0
 22 45  1  0
 22 46  1  0
 23 47  1  1
 24 48  1  0
 24 49  1  0
 24 50  1  0
 25 51  1  0
 25 52  1  0
 27 53  1  0
 28 54  1  0
 29 55  1  0
 30 56  1  0
 31 57  1  0
M  CHG  1  23   1
M  END
>  <score>  (3) 
-9.442

$$$$
=
     RDKit          3D

 57 60  0  0  0  0  0  0  0  0999 V2000
    1.4720   63.0170   71.3630 C   0  0  0  0  0  0  0  0  0  0  0  0
    0.4400   63.8640   71.7880 C   0  0  0  0  0  0  0  0  0  0  0  0
    0.3240   65.1550   71.2670 C   0  0  0  0  0  0  0  0  0  0  0  0
    1.2400   65.6250   70.3160 C   0  0  0  0  0  0  0  0  0  0  0  0
    2.2490   64.7610   69.8620 C   0  0  0  0  0  0  0  0  0  0  0  0
    2.3630   63.4710   70.3840 C   0  0  0  0  0  0  0  0  0  0  0  0
   -0.1550   57.7430   74.1560 C   0  0  0  0  0  0  0  0  0  0  0  0
   -0.3430   59.0140   73.5950 C   0  0  0  0  0  0  0  0  0  0  0  0
    0.7410   59.7140   73.0580 C   0  0  0  0  0  0  0  0  0  0  0  0
    0.5880   61.0350   72.4670 C   0  0  0  0  0  0  0  0  0  0  0  0
    1.6520   61.6810   71.9630 C   0  0  0  0  0  0  0  0  0  0  0  0
    3.0110   61.0620   71.9890 C   0  0  0  0  0  0  0  0  0  0  0  0
    3.9920   61.6420   71.5300 O   0  0  0  0  0  0  0  0  0  0  0  0
    3.1180   59.8000   72.5580 O   0  0  0  0  0  0  0  0  0  0  0  0
    2.0000   59.1300   73.0900 C   0  0  0  0  0  0  0  0  0  0  0  0
    2.2160   57.8700   73.6410 C   0  0  0  0  0  0  0  0  0  0  0  0
    1.1360   57.1670   74.1800 C   0  0  0  0  0  0  0  0  0  0  0  0
   -1.7770   57.4530   75.8950 C   0  0  0  0  0  0  0  0  0  0  0  0
   -1.1570   56.9840   74.7070 O   0  0  0  0  0  0  0  0  0  0  0  0
    1.2280   55.9210   74.7490 O   0  0  0  0  0  0  0  0  0  0  0  0
    2.1440   55.7480   75.8210 C   0  0  0  0  0  0  0  0  0  0  0  0
    1.1860   67.0480   69.8270 C   0  0  0  0  0  0  0  0  0  0  0  0
    0.5980   67.1600   68.4390 N   0  0  1  0  0  4  0  0  0  0  0  0
   -0.7670   66.5470   68.3550 C   0  0  0  0  0  0  0  0  0  0  0  0
    0.6380   68.5710   67.8910 C   0  0  0  0  0  0  0  0  0  0  0  0
    1.9570   68.8950   67.2440 C   0  0  0  0  0  0  0  0  0  0  0  0
    2.1950   68.5260   65.9100 C   0  0  0  0  0  0  0  0  0  0  0  0
    3.4050   68.8480   65.2940 C   0  0  0  0  0  0  0  0  0  0  0  0
    4.3860   69.5390   66.0010 C   0  0  0  0  0  0  0  0  0  0  0  0
    4.1630   69.9060   67.3270 C   0  0  0  0  0  0  0  0  0  0  0  0
    2.9540   69.5860   67.9480 C   0  0  0  0  0  0  0  0  0  0  0  0
   -0.2837   63.5101   72.5369 H   0  0  0  0  0  0  0  0  0  0  0  0
   -0.4934   65.8084   71.6061 H   0  0  0  0  0  0  0  0  0  0  0  0
    2.9543   65.1025   69.0901 H   0  0  0  0  0  0  0  0  0  0  0  0
    3.1606   62.8054   70.0223 H   0  0  0  0  0  0  0  0  0  0  0  0
   -1.3475   59.4620   73.5774 H   0  0  0  0  0  0  0  0  0  0  0  0
   -0.4049   61.5071   72.4329 H   0  0  0  0  0  0  0  0  0  0  0  0
    3.2254   57.4331   73.6518 H   0  0  0  0  0  0  0  0  0  0  0  0
   -1.2450   57.0506   76.7697 H   0  0  0  0  0  0  0  0  0  0  0  0
   -1.7413   58.5522   75.9179 H   0  0  0  0  0  0  0  0  0  0  0  0
   -2.8250   57.1196   75.9179 H   0  0  0  0  0  0  0  0  0  0  0  0
    1.6114   55.8486   76.7782 H   0  0  0  0  0  0  0  0  0  0  0  0
    2.5982   54.7482   75.7574 H   0  0  0  0  0  0  0  0  0  0  0  0
    2.9316   56.5133   75.7574 H   0  0  0  0  0  0  0  0  0  0  0  0
    0.5677   67.6364   70.5208 H   0  0  0  0  0  0  0  0  0  0  0  0
    2.2178   67.4269   69.7850 H   0  0  0  0  0  0  0  0  0  0  0  0
    1.2091   66.6064   67.8218 H   0  0  0  0  0  0  0  0  0  0  0  0
   -1.1540   66.3732   69.3699 H   0  0  0  0  0  0  0  0  0  0  0  0
   -1.4424   67.2282   67.8167 H   0  0  0  0  0  0  0  0  0  0  0  0
   -0.7065   65.5896   67.8167 H   0  0  0  0  0  0  0  0  0  0  0  0
   -0.1601   68.6825   67.1423 H   0  0  0  0  0  0  0  0  0  0  0  0
    0.4976   69.2635   68.7340 H   0  0  0  0  0  0  0  0  0  0  0  0
    1.4232   67.9801   65.3476 H   0  0  0  0  0  0  0  0  0  0  0  0
    3.5842   68.5557   64.2488 H   0  0  0  0  0  0  0  0  0  0  0  0
    5.3376   69.7954   65.5125 H   0  0  0  0  0  0  0  0  0  0  0  0
    4.9404   70.4484   67.8850 H   0  0  0  0  0  0  0  0  0  0  0  0
    2.7826   69.8774   68.9948 H   0  0  0  0  0  0  0  0  0  0  0  0
  2  1  2  0
  3  2  1  0
  4  3  2  0
  5  4  1  0
  6  5  2  0
  6  1  1  0
  8  7  2  0
  9  8  1  0
 10  9  1  0
 11 10  2  0
 11  1  1  0
 12 11  1  0
 13 12  2  0
 14 12  1  0
 15 14  1  0
 15  9  2  0
 16 15  1  0
 17 16  2  0
 17  7  1  0
 19  7  1  0
 19 18  1  0
 20 17  1  0
 21 20  1  0
 22  4  1  0
 23 22  1  0
 24 23  1  0
 25 23  1  0
 26 25  1  0
 27 26  2  0
 28 27  1  0
 29 28  2  0
 30 29  1  0
 31 30  2  0
 31 26  1  0
  2 32  1  0
  3 33  1  0
  5 34  1  0
  6 35  1  0
  8 36  1  0
 10 37  1  0
 16 38  1  0
 18 39  1  0
 18 40  1  0
 18 41  1  0
 21 42  1  0
 21 43  1  0
 21 44  1  0
 22 45  1  0
 22 46  1  0
 23 47  1  6
 24 48  1  0
 24 49  1  0
 24 50  1  0
 25 51  1  0
 25 52  1  0
 27 53  1  0
 28 54  1  0
 29 55  1  0
 30 56  1  0
 31 57  1  0
M  CHG  1  23   1
M  END
>  <score>  (4) 
-9.159

$$$$
=
     RDKit          3D

 57 60  0  0  0  0  0  0  0  0999 V2000
    0.2090   67.0320   68.1340 C   0  0  0  0  0  0  0  0  0  0  0  0
   -0.8700   66.3020   68.6470 C   0  0  0  0  0  0  0  0  0  0  0  0
   -0.7710   65.6700   69.8900 C   0  0  0  0  0  0  0  0  0  0  0  0
    0.4110   65.7540   70.6390 C   0  0  0  0  0  0  0  0  0  0  0  0
    1.4760   66.5190   70.1410 C   0  0  0  0  0  0  0  0  0  0  0  0
    1.3760   67.1490   68.8990 C   0  0  0  0  0  0  0  0  0  0  0  0
    2.1330   68.5420   62.4520 C   0  0  0  0  0  0  0  0  0  0  0  0
    2.2120   67.9650   63.7280 C   0  0  0  0  0  0  0  0  0  0  0  0
    1.1450   68.0840   64.6220 C   0  0  0  0  0  0  0  0  0  0  0  0
    1.1880   67.5010   65.9550 C   0  0  0  0  0  0  0  0  0  0  0  0
    0.1450   67.6370   66.7890 C   0  0  0  0  0  0  0  0  0  0  0  0
   -1.0820   68.3790   66.3730 C   0  0  0  0  0  0  0  0  0  0  0  0
   -2.0430   68.5100   67.1280 O   0  0  0  0  0  0  0  0  0  0  0  0
   -1.0890   68.9190   65.0940 O   0  0  0  0  0  0  0  0  0  0  0  0
    0.0100   68.7780   64.2250 C   0  0  0  0  0  0  0  0  0  0  0  0
   -0.0960   69.3610   62.9650 C   0  0  0  0  0  0  0  0  0  0  0  0
    0.9690   69.2460   62.0680 C   0  0  0  0  0  0  0  0  0  0  0  0
    4.2240   67.6070   61.7520 C   0  0  0  0  0  0  0  0  0  0  0  0
    3.1290   68.4780   61.5100 O   0  0  0  0  0  0  0  0  0  0  0  0
    0.9770   69.7780   60.8030 O   0  0  0  0  0  0  0  0  0  0  0  0
   -0.2550   69.8270   60.0960 C   0  0  0  0  0  0  0  0  0  0  0  0
    0.5640   64.9920   71.9290 C   0  0  0  0  0  0  0  0  0  0  0  0
    0.8200   63.5200   71.7040 N   0  0  1  0  0  4  0  0  0  0  0  0
   -0.3950   62.6880   71.9840 C   0  0  0  0  0  0  0  0  0  0  0  0
    1.4280   63.2260   70.3480 C   0  0  0  0  0  0  0  0  0  0  0  0
    2.6740   62.3900   70.4500 C   0  0  0  0  0  0  0  0  0  0  0  0
    3.4240   62.3880   71.6380 C   0  0  0  0  0  0  0  0  0  0  0  0
    4.5660   61.5940   71.7490 C   0  0  0  0  0  0  0  0  0  0  0  0
    4.9690   60.7970   70.6820 C   0  0  0  0  0  0  0  0  0  0  0  0
    4.2360   60.7950   69.4970 C   0  0  0  0  0  0  0  0  0  0  0  0
    3.0930   61.5870   69.3790 C   0  0  0  0  0  0  0  0  0  0  0  0
   -1.8021   66.2252   68.0679 H   0  0  0  0  0  0  0  0  0  0  0  0
   -1.6272   65.1024   70.2834 H   0  0  0  0  0  0  0  0  0  0  0  0
    2.3969   66.6234   70.7334 H   0  0  0  0  0  0  0  0  0  0  0  0
    2.2207   67.7420   68.5184 H   0  0  0  0  0  0  0  0  0  0  0  0
    3.1178   67.4166   64.0260 H   0  0  0  0  0  0  0  0  0  0  0  0
    2.0801   66.9459   66.2807 H   0  0  0  0  0  0  0  0  0  0  0  0
   -1.0078   69.9059   62.6791 H   0  0  0  0  0  0  0  0  0  0  0  0
    4.3684   67.4921   62.8364 H   0  0  0  0  0  0  0  0  0  0  0  0
    4.0168   66.6242   61.3035 H   0  0  0  0  0  0  0  0  0  0  0  0
    5.1350   68.0300   61.3035 H   0  0  0  0  0  0  0  0  0  0  0  0
   -1.0883   69.8601   60.8133 H   0  0  0  0  0  0  0  0  0  0  0  0
   -0.2794   70.7268   59.4638 H   0  0  0  0  0  0  0  0  0  0  0  0
   -0.3508   68.9320   59.4638 H   0  0  0  0  0  0  0  0  0  0  0  0
    1.4097   65.4154   72.4908 H   0  0  0  0  0  0  0  0  0  0  0  0
   -0.3794   65.0860   72.4869 H   0  0  0  0  0  0  0  0  0  0  0  0
    1.5332   63.2426   72.3935 H   0  0  0  0  0  0  0  0  0  0  0  0
   -0.5324   62.5939   73.0713 H   0  0  0  0  0  0  0  0  0  0  0  0
   -1.2796   63.1708   71.5431 H   0  0  0  0  0  0  0  0  0  0  0  0
   -0.2647   61.6887   71.5431 H   0  0  0  0  0  0  0  0  0  0  0  0
    0.6886   62.6859   69.7384 H   0  0  0  0  0  0  0  0  0  0  0  0
    1.7039   64.1862   69.8877 H   0  0  0  0  0  0  0  0  0  0  0  0
    3.1093   63.0155   72.4849 H   0  0  0  0  0  0  0  0  0  0  0  0
    5.1489   61.5981   72.6819 H   0  0  0  0  0  0  0  0  0  0  0  0
    5.8668   60.1681   70.7740 H   0  0  0  0  0  0  0  0  0  0  0  0
    4.5589   60.1679   68.6529 H   0  0  0  0  0  0  0  0  0  0  0  0
    2.5178   61.5815   68.4414 H   0  0  0  0  0  0  0  0  0  0  0  0
  2  1  2  0
  3  2  1  0
  4  3  2  0
  5  4  1  0
  6  5  2  0
  6  1  1  0
  8  7  2  0
  9  8  1  0
 10  9  1  0
 11 10  2  0
 11  1  1  0
 12 11  1  0
 13 12  2  0
 14 12  1  0
 15 14  1  0
 15  9  2  0
 16 15  1  0
 17 16  2  0
 17  7  1  0
 19  7  1  0
 19 18  1  0
 20 17  1  0
 21 20  1  0
 22  4  1  0
 23 22  1  0
 24 23  1  0
 25 23  1  0
 26 25  1  0
 27 26  2  0
 28 27  1  0
 29 28  2  0
 30 29  1  0
 31 30  2  0
 31 26  1  0
  2 32  1  0
  3 33  1  0
  5 34  1  0
  6 35  1  0
  8 36  1  0
 10 37  1  0
 16 38  1  0
 18 39  1  0
 18 40  1  0
 18 41  1  0
 21 42  1  0
 21 43  1  0
 21 44  1  0
 22 45  1  0
 22 46  1  0
 23 47  1  1
 24 48  1  0
 24 49  1  0
 24 50  1  0
 25 51  1  0
 25 52  1  0
 27 53  1  0
 28 54  1  0
 29 55  1  0
 30 56  1  0
 31 57  1  0
M  CHG  1  23   1
M  END
>  <score>  (5) 
-9.101

$$$$
=
     RDKit          3D

 57 60  0  0  0  0  0  0  0  0999 V2000
    0.7770   60.3740   73.1930 C   0  0  0  0  0  0  0  0  0  0  0  0
    1.8460   61.1930   73.5780 C   0  0  0  0  0  0  0  0  0  0  0  0
    1.8230   62.5640   73.3070 C   0  0  0  0  0  0  0  0  0  0  0  0
    0.7320   63.1400   72.6410 C   0  0  0  0  0  0  0  0  0  0  0  0
   -0.3560   62.3240   72.2920 C   0  0  0  0  0  0  0  0  0  0  0  0
   -0.3300   60.9560   72.5630 C   0  0  0  0  0  0  0  0  0  0  0  0
   -1.1630   54.8050   75.0580 C   0  0  0  0  0  0  0  0  0  0  0  0
   -1.2230   56.1940   74.8710 C   0  0  0  0  0  0  0  0  0  0  0  0
   -0.1760   56.8630   74.2320 C   0  0  0  0  0  0  0  0  0  0  0  0
   -0.1990   58.3030   74.0180 C   0  0  0  0  0  0  0  0  0  0  0  0
    0.8250   58.9150   73.4020 C   0  0  0  0  0  0  0  0  0  0  0  0
    2.0050   58.1390   72.9160 C   0  0  0  0  0  0  0  0  0  0  0  0
    2.9480   58.6870   72.3510 O   0  0  0  0  0  0  0  0  0  0  0  0
    1.9910   56.7670   73.1340 O   0  0  0  0  0  0  0  0  0  0  0  0
    0.9170   56.1320   73.7860 C   0  0  0  0  0  0  0  0  0  0  0  0
    1.0030   54.7530   73.9580 C   0  0  0  0  0  0  0  0  0  0  0  0
   -0.0400   54.0790   74.5980 C   0  0  0  0  0  0  0  0  0  0  0  0
   -2.9620   54.7090   76.6360 C   0  0  0  0  0  0  0  0  0  0  0  0
   -2.1400   54.0640   75.6750 O   0  0  0  0  0  0  0  0  0  0  0  0
   -0.0650   52.7250   74.8230 O   0  0  0  0  0  0  0  0  0  0  0  0
    0.8780   52.1880   75.7400 C   0  0  0  0  0  0  0  0  0  0  0  0
    0.7430   64.5950   72.2530 C   0  0  0  0  0  0  0  0  0  0  0  0
    0.8320   64.7920   70.7570 N   0  0  1  0  0  4  0  0  0  0  0  0
   -0.0370   65.9190   70.2870 C   0  0  0  0  0  0  0  0  0  0  0  0
    2.2580   64.9080   70.2590 C   0  0  0  0  0  0  0  0  0  0  0  0
    2.9450   63.5730   70.1780 C   0  0  0  0  0  0  0  0  0  0  0  0
    4.2390   63.4160   70.7000 C   0  0  0  0  0  0  0  0  0  0  0  0
    4.8730   62.1730   70.6540 C   0  0  0  0  0  0  0  0  0  0  0  0
    4.2230   61.0790   70.0890 C   0  0  0  0  0  0  0  0  0  0  0  0
    2.9400   61.2250   69.5620 C   0  0  0  0  0  0  0  0  0  0  0  0
    2.3020   62.4650   69.6060 C   0  0  0  0  0  0  0  0  0  0  0  0
    2.7103   60.7538   74.0977 H   0  0  0  0  0  0  0  0  0  0  0  0
    2.6676   63.1961   73.6187 H   0  0  0  0  0  0  0  0  0  0  0  0
   -1.2353   62.7668   71.8013 H   0  0  0  0  0  0  0  0  0  0  0  0
   -1.1874   60.3282   72.2791 H   0  0  0  0  0  0  0  0  0  0  0  0
   -2.0970   56.7582   75.2285 H   0  0  0  0  0  0  0  0  0  0  0  0
   -1.0607   58.8932   74.3632 H   0  0  0  0  0  0  0  0  0  0  0  0
    1.8820   54.2007   73.5942 H   0  0  0  0  0  0  0  0  0  0  0  0
   -2.6220   54.4422   77.6475 H   0  0  0  0  0  0  0  0  0  0  0  0
   -2.8960   55.7989   76.5026 H   0  0  0  0  0  0  0  0  0  0  0  0
   -4.0049   54.3857   76.5026 H   0  0  0  0  0  0  0  0  0  0  0  0
    0.5397   52.3807   76.7688 H   0  0  0  0  0  0  0  0  0  0  0  0
    0.9678   51.1033   75.5806 H   0  0  0  0  0  0  0  0  0  0  0  0
    1.8567   52.6643   75.5806 H   0  0  0  0  0  0  0  0  0  0  0  0
   -0.1829   65.0645   72.6166 H   0  0  0  0  0  0  0  0  0  0  0  0
    1.6334   65.0559   72.7054 H   0  0  0  0  0  0  0  0  0  0  0  0
    0.4594   63.9323   70.3293 H   0  0  0  0  0  0  0  0  0  0  0  0
   -0.4482   66.4523   71.1568 H   0  0  0  0  0  0  0  0  0  0  0  0
    0.5610   66.6144   69.6796 H   0  0  0  0  0  0  0  0  0  0  0  0
   -0.8616   65.5175   69.6796 H   0  0  0  0  0  0  0  0  0  0  0  0
    2.2468   65.3614   69.2568 H   0  0  0  0  0  0  0  0  0  0  0  0
    2.8149   65.5299   70.9754 H   0  0  0  0  0  0  0  0  0  0  0  0
    4.7562   64.2774   71.1478 H   0  0  0  0  0  0  0  0  0  0  0  0
    5.8870   62.0578   71.0645 H   0  0  0  0  0  0  0  0  0  0  0  0
    4.7217   60.0990   70.0583 H   0  0  0  0  0  0  0  0  0  0  0  0
    2.4302   60.3610   69.1109 H   0  0  0  0  0  0  0  0  0  0  0  0
    1.2896   62.5745   69.1900 H   0  0  0  0  0  0  0  0  0  0  0  0
  2  1  2  0
  3  2  1  0
  4  3  2  0
  5  4  1  0
  6  5  2  0
  6  1  1  0
  8  7  2  0
  9  8  1  0
 10  9  1  0
 11 10  2  0
 11  1  1  0
 12 11  1  0
 13 12  2  0
 14 12  1  0
 15 14  1  0
 15  9  2  0
 16 15  1  0
 17 16  2  0
 17  7  1  0
 19  7  1  0
 19 18  1  0
 20 17  1  0
 21 20  1  0
 22  4  1  0
 23 22  1  0
 24 23  1  0
 25 23  1  0
 26 25  1  0
 27 26  2  0
 28 27  1  0
 29 28  2  0
 30 29  1  0
 31 30  2  0
 31 26  1  0
  2 32  1  0
  3 33  1  0
  5 34  1  0
  6 35  1  0
  8 36  1  0
 10 37  1  0
 16 38  1  0
 18 39  1  0
 18 40  1  0
 18 41  1  0
 21 42  1  0
 21 43  1  0
 21 44  1  0
 22 45  1  0
 22 46  1  0
 23 47  1  6
 24 48  1  0
 24 49  1  0
 24 50  1  0
 25 51  1  0
 25 52  1  0
 27 53  1  0
 28 54  1  0
 29 55  1  0
 30 56  1  0
 31 57  1  0
M  CHG  1  23   1
M  END
>  <score>  (6) 
-9.025

$$$$
=
     RDKit          3D

 57 60  0  0  0  0  0  0  0  0999 V2000
    0.6340   65.6750   70.0440 C   0  0  0  0  0  0  0  0  0  0  0  0
    1.5120   66.7050   69.6850 C   0  0  0  0  0  0  0  0  0  0  0  0
    1.1620   67.6200   68.6880 C   0  0  0  0  0  0  0  0  0  0  0  0
   -0.0710   67.5180   68.0290 C   0  0  0  0  0  0  0  0  0  0  0  0
   -0.9660   66.5090   68.4180 C   0  0  0  0  0  0  0  0  0  0  0  0
   -0.6130   65.5960   69.4130 C   0  0  0  0  0  0  0  0  0  0  0  0
    0.5140   62.5770   75.3960 C   0  0  0  0  0  0  0  0  0  0  0  0
    0.1340   63.5540   74.4650 C   0  0  0  0  0  0  0  0  0  0  0  0
    0.7620   63.6210   73.2190 C   0  0  0  0  0  0  0  0  0  0  0  0
    0.3980   64.6190   72.2250 C   0  0  0  0  0  0  0  0  0  0  0  0
    1.0250   64.6570   71.0380 C   0  0  0  0  0  0  0  0  0  0  0  0
    2.1010   63.6770   70.7050 C   0  0  0  0  0  0  0  0  0  0  0  0
    2.6820   63.7010   69.6230 O   0  0  0  0  0  0  0  0  0  0  0  0
    2.4200   62.7370   71.6760 O   0  0  0  0  0  0  0  0  0  0  0  0
    1.7630   62.7060   72.9210 C   0  0  0  0  0  0  0  0  0  0  0  0
    2.1610   61.7260   73.8260 C   0  0  0  0  0  0  0  0  0  0  0  0
    1.5370   61.6560   75.0740 C   0  0  0  0  0  0  0  0  0  0  0  0
   -0.9660   63.4250   77.0790 C   0  0  0  0  0  0  0  0  0  0  0  0
   -0.0440   62.4360   76.6420 O   0  0  0  0  0  0  0  0  0  0  0  0
    1.8450   60.7350   76.0440 O   0  0  0  0  0  0  0  0  0  0  0  0
    2.8740   59.7960   75.7640 C   0  0  0  0  0  0  0  0  0  0  0  0
   -0.4140   68.4340   66.8840 C   0  0  0  0  0  0  0  0  0  0  0  0
    0.6860   68.5010   65.8500 N   0  0  1  0  0  4  0  0  0  0  0  0
    0.1460   68.7210   64.4680 C   0  0  0  0  0  0  0  0  0  0  0  0
    1.7780   69.4850   66.2110 C   0  0  0  0  0  0  0  0  0  0  0  0
    3.0750   69.1820   65.5100 C   0  0  0  0  0  0  0  0  0  0  0  0
    3.0630   68.6000   64.2320 C   0  0  0  0  0  0  0  0  0  0  0  0
    4.2600   68.3420   63.5630 C   0  0  0  0  0  0  0  0  0  0  0  0
    5.4760   68.6620   64.1610 C   0  0  0  0  0  0  0  0  0  0  0  0
    5.5000   69.2350   65.4310 C   0  0  0  0  0  0  0  0  0  0  0  0
    4.3060   69.4950   66.1050 C   0  0  0  0  0  0  0  0  0  0  0  0
    2.4844   66.7947   70.1913 H   0  0  0  0  0  0  0  0  0  0  0  0
    1.8597   68.4266   68.4184 H   0  0  0  0  0  0  0  0  0  0  0  0
   -1.9520   66.4374   67.9355 H   0  0  0  0  0  0  0  0  0  0  0  0
   -1.3217   64.8067   69.7041 H   0  0  0  0  0  0  0  0  0  0  0  0
   -0.6617   64.2706   74.7167 H   0  0  0  0  0  0  0  0  0  0  0  0
   -0.3960   65.3472   72.4471 H   0  0  0  0  0  0  0  0  0  0  0  0
    2.9576   61.0150   73.5616 H   0  0  0  0  0  0  0  0  0  0  0  0
   -0.9864   63.4469   78.1786 H   0  0  0  0  0  0  0  0  0  0  0  0
   -0.6557   64.4093   76.6983 H   0  0  0  0  0  0  0  0  0  0  0  0
   -1.9696   63.1844   76.6983 H   0  0  0  0  0  0  0  0  0  0  0  0
    3.2905   59.4159   76.7085 H   0  0  0  0  0  0  0  0  0  0  0  0
    2.4586   58.9591   75.1834 H   0  0  0  0  0  0  0  0  0  0  0  0
    3.6695   60.2860   75.1834 H   0  0  0  0  0  0  0  0  0  0  0  0
   -1.3313   68.0668   66.4005 H   0  0  0  0  0  0  0  0  0  0  0  0
   -0.5512   69.4457   67.2935 H   0  0  0  0  0  0  0  0  0  0  0  0
    1.1370   67.5750   65.8483 H   0  0  0  0  0  0  0  0  0  0  0  0
   -0.8709   69.1353   64.5333 H   0  0  0  0  0  0  0  0  0  0  0  0
    0.7953   69.4263   63.9286 H   0  0  0  0  0  0  0  0  0  0  0  0
    0.1176   67.7628   63.9286 H   0  0  0  0  0  0  0  0  0  0  0  0
    1.4507   70.4962   65.9277 H   0  0  0  0  0  0  0  0  0  0  0  0
    1.9551   69.4086   67.2940 H   0  0  0  0  0  0  0  0  0  0  0  0
    2.1045   68.3461   63.7557 H   0  0  0  0  0  0  0  0  0  0  0  0
    4.2430   67.8854   62.5624 H   0  0  0  0  0  0  0  0  0  0  0  0
    6.4186   68.4623   63.6304 H   0  0  0  0  0  0  0  0  0  0  0  0
    6.4621   69.4829   65.9032 H   0  0  0  0  0  0  0  0  0  0  0  0
    4.3304   69.9474   67.1074 H   0  0  0  0  0  0  0  0  0  0  0  0
  2  1  2  0
  3  2  1  0
  4  3  2  0
  5  4  1  0
  6  5  2  0
  6  1  1  0
  8  7  2  0
  9  8  1  0
 10  9  1  0
 11 10  2  0
 11  1  1  0
 12 11  1  0
 13 12  2  0
 14 12  1  0
 15 14  1  0
 15  9  2  0
 16 15  1  0
 17 16  2  0
 17  7  1  0
 19  7  1  0
 19 18  1  0
 20 17  1  0
 21 20  1  0
 22  4  1  0
 23 22  1  0
 24 23  1  0
 25 23  1  0
 26 25  1  0
 27 26  2  0
 28 27  1  0
 29 28  2  0
 30 29  1  0
 31 30  2  0
 31 26  1  0
  2 32  1  0
  3 33  1  0
  5 34  1  0
  6 35  1  0
  8 36  1  0
 10 37  1  0
 16 38  1  0
 18 39  1  0
 18 40  1  0
 18 41  1  0
 21 42  1  0
 21 43  1  0
 21 44  1  0
 22 45  1  0
 22 46  1  0
 23 47  1  6
 24 48  1  0
 24 49  1  0
 24 50  1  0
 25 51  1  0
 25 52  1  0
 27 53  1  0
 28 54  1  0
 29 55  1  0
 30 56  1  0
 31 57  1  0
M  CHG  1  23   1
M  END
>  <score>  (7) 
-8.173

$$$$
=
     RDKit          3D

 57 60  0  0  0  0  0  0  0  0999 V2000
    0.2050   63.9360   71.8240 C   0  0  0  0  0  0  0  0  0  0  0  0
   -0.4280   62.7040   71.6150 C   0  0  0  0  0  0  0  0  0  0  0  0
   -0.6420   61.8270   72.6820 C   0  0  0  0  0  0  0  0  0  0  0  0
   -0.2220   62.1650   73.9760 C   0  0  0  0  0  0  0  0  0  0  0  0
    0.3760   63.4160   74.1900 C   0  0  0  0  0  0  0  0  0  0  0  0
    0.5890   64.2900   73.1230 C   0  0  0  0  0  0  0  0  0  0  0  0
   -0.9180   68.0270   67.3220 C   0  0  0  0  0  0  0  0  0  0  0  0
   -1.2230   67.1730   68.3920 C   0  0  0  0  0  0  0  0  0  0  0  0
   -0.2130   66.4310   69.0110 C   0  0  0  0  0  0  0  0  0  0  0  0
   -0.4880   65.5340   70.1240 C   0  0  0  0  0  0  0  0  0  0  0  0
    0.5070   64.8350   70.6930 C   0  0  0  0  0  0  0  0  0  0  0  0
    1.9130   64.9630   70.2090 C   0  0  0  0  0  0  0  0  0  0  0  0
    2.8310   64.3290   70.7220 O   0  0  0  0  0  0  0  0  0  0  0  0
    2.1380   65.8300   69.1480 O   0  0  0  0  0  0  0  0  0  0  0  0
    1.0910   66.5570   68.5510 C   0  0  0  0  0  0  0  0  0  0  0  0
    1.4220   67.3960   67.4900 C   0  0  0  0  0  0  0  0  0  0  0  0
    0.4160   68.1380   66.8670 C   0  0  0  0  0  0  0  0  0  0  0  0
   -3.0200   68.1540   66.1810 C   0  0  0  0  0  0  0  0  0  0  0  0
   -1.8410   68.7900   66.6530 O   0  0  0  0  0  0  0  0  0  0  0  0
    0.6240   68.9960   65.8150 O   0  0  0  0  0  0  0  0  0  0  0  0
    1.0300   68.4360   64.5740 C   0  0  0  0  0  0  0  0  0  0  0  0
   -0.3530   61.1840   75.1120 C   0  0  0  0  0  0  0  0  0  0  0  0
    0.9860   60.6830   75.6010 N   0  0  1  0  0  4  0  0  0  0  0  0
    0.9570   60.3310   77.0570 C   0  0  0  0  0  0  0  0  0  0  0  0
    1.5500   59.5710   74.7430 C   0  0  0  0  0  0  0  0  0  0  0  0
    2.3520   60.0940   73.5830 C   0  0  0  0  0  0  0  0  0  0  0  0
    3.3090   61.1020   73.7870 C   0  0  0  0  0  0  0  0  0  0  0  0
    4.0760   61.5730   72.7210 C   0  0  0  0  0  0  0  0  0  0  0  0
    3.8970   61.0450   71.4450 C   0  0  0  0  0  0  0  0  0  0  0  0
    2.9460   60.0480   71.2300 C   0  0  0  0  0  0  0  0  0  0  0  0
    2.1760   59.5740   72.2920 C   0  0  0  0  0  0  0  0  0  0  0  0
   -0.7590   62.4248   70.6038 H   0  0  0  0  0  0  0  0  0  0  0  0
   -1.1438   60.8643   72.5050 H   0  0  0  0  0  0  0  0  0  0  0  0
    0.6790   63.7100   75.2057 H   0  0  0  0  0  0  0  0  0  0  0  0
    1.0629   65.2660   73.3043 H   0  0  0  0  0  0  0  0  0  0  0  0
   -2.2611   67.0868   68.7454 H   0  0  0  0  0  0  0  0  0  0  0  0
   -1.5161   65.4284   70.5007 H   0  0  0  0  0  0  0  0  0  0  0  0
    2.4641   67.4735   67.1464 H   0  0  0  0  0  0  0  0  0  0  0  0
   -3.6277   67.8262   67.0373 H   0  0  0  0  0  0  0  0  0  0  0  0
   -3.5991   68.8621   65.5701 H   0  0  0  0  0  0  0  0  0  0  0  0
   -2.7463   67.2812   65.5701 H   0  0  0  0  0  0  0  0  0  0  0  0
    1.6665   67.5581   64.7586 H   0  0  0  0  0  0  0  0  0  0  0  0
    0.1418   68.1310   64.0013 H   0  0  0  0  0  0  0  0  0  0  0  0
    1.5961   69.1854   64.0013 H   0  0  0  0  0  0  0  0  0  0  0  0
   -0.8711   61.6783   75.9470 H   0  0  0  0  0  0  0  0  0  0  0  0
   -0.9193   60.3169   74.7413 H   0  0  0  0  0  0  0  0  0  0  0  0
    1.6431   61.4698   75.5007 H   0  0  0  0  0  0  0  0  0  0  0  0
    1.0327   61.2493   77.6578 H   0  0  0  0  0  0  0  0  0  0  0  0
    0.0134   59.8164   77.2911 H   0  0  0  0  0  0  0  0  0  0  0  0
    1.8036   59.6689   77.2911 H   0  0  0  0  0  0  0  0  0  0  0  0
    2.2001   58.9390   75.3659 H   0  0  0  0  0  0  0  0  0  0  0  0
    0.7035   58.9990   74.3354 H   0  0  0  0  0  0  0  0  0  0  0  0
    3.4545   61.5224   74.7930 H   0  0  0  0  0  0  0  0  0  0  0  0
    4.8232   62.3626   72.8888 H   0  0  0  0  0  0  0  0  0  0  0  0
    4.5058   61.4144   70.6066 H   0  0  0  0  0  0  0  0  0  0  0  0
    2.8028   59.6345   70.2208 H   0  0  0  0  0  0  0  0  0  0  0  0
    1.4266   58.7881   72.1163 H   0  0  0  0  0  0  0  0  0  0  0  0
  2  1  2  0
  3  2  1  0
  4  3  2  0
  5  4  1  0
  6  5  2  0
  6  1  1  0
  8  7  2  0
  9  8  1  0
 10  9  1  0
 11 10  2  0
 11  1  1  0
 12 11  1  0
 13 12  2  0
 14 12  1  0
 15 14  1  0
 15  9  2  0
 16 15  1  0
 17 16  2  0
 17  7  1  0
 19  7  1  0
 19 18  1  0
 20 17  1  0
 21 20  1  0
 22  4  1  0
 23 22  1  0
 24 23  1  0
 25 23  1  0
 26 25  1  0
 27 26  2  0
 28 27  1  0
 29 28  2  0
 30 29  1  0
 31 30  2  0
 31 26  1  0
  2 32  1  0
  3 33  1  0
  5 34  1  0
  6 35  1  0
  8 36  1  0
 10 37  1  0
 16 38  1  0
 18 39  1  0
 18 40  1  0
 18 41  1  0
 21 42  1  0
 21 43  1  0
 21 44  1  0
 22 45  1  0
 22 46  1  0
 23 47  1  1
 24 48  1  0
 24 49  1  0
 24 50  1  0
 25 51  1  0
 25 52  1  0
 27 53  1  0
 28 54  1  0
 29 55  1  0
 30 56  1  0
 31 57  1  0
M  CHG  1  23   1
M  END
>  <score>  (8) 
-8.004

$$$$
=
     RDKit          3D

 57 60  0  0  0  0  0  0  0  0999 V2000
   -1.5310   60.2610   74.1530 C   0  0  0  0  0  0  0  0  0  0  0  0
   -0.7040   60.9970   73.2950 C   0  0  0  0  0  0  0  0  0  0  0  0
    0.4580   60.4250   72.7670 C   0  0  0  0  0  0  0  0  0  0  0  0
    0.8150   59.1090   73.0910 C   0  0  0  0  0  0  0  0  0  0  0  0
   -0.0370   58.3600   73.9190 C   0  0  0  0  0  0  0  0  0  0  0  0
   -1.1950   58.9330   74.4450 C   0  0  0  0  0  0  0  0  0  0  0  0
   -7.4820   61.8090   74.8220 C   0  0  0  0  0  0  0  0  0  0  0  0
   -6.3650   61.2200   74.2110 C   0  0  0  0  0  0  0  0  0  0  0  0
   -5.1000   61.3380   74.7940 C   0  0  0  0  0  0  0  0  0  0  0  0
   -3.9160   60.7420   74.1920 C   0  0  0  0  0  0  0  0  0  0  0  0
   -2.7160   60.8780   74.7780 C   0  0  0  0  0  0  0  0  0  0  0  0
   -2.5650   61.6310   76.0580 C   0  0  0  0  0  0  0  0  0  0  0  0
   -1.4720   61.7610   76.6040 O   0  0  0  0  0  0  0  0  0  0  0  0
   -3.7160   62.1830   76.6050 O   0  0  0  0  0  0  0  0  0  0  0  0
   -4.9710   62.0430   75.9830 C   0  0  0  0  0  0  0  0  0  0  0  0
   -6.0630   62.6370   76.6110 C   0  0  0  0  0  0  0  0  0  0  0  0
   -7.3290   62.5240   76.0310 C   0  0  0  0  0  0  0  0  0  0  0  0
   -8.9630   62.0900   72.9600 C   0  0  0  0  0  0  0  0  0  0  0  0
   -8.7590   61.7470   74.3230 O   0  0  0  0  0  0  0  0  0  0  0  0
   -8.4740   63.0670   76.5580 O   0  0  0  0  0  0  0  0  0  0  0  0
   -8.5570   64.4830   76.6450 C   0  0  0  0  0  0  0  0  0  0  0  0
    2.1160   58.5210   72.6120 C   0  0  0  0  0  0  0  0  0  0  0  0
    3.2860   59.4500   72.8340 N   0  0  1  0  0  4  0  0  0  0  0  0
    3.9910   59.1680   74.1270 C   0  0  0  0  0  0  0  0  0  0  0  0
    4.2340   59.5010   71.6540 C   0  0  0  0  0  0  0  0  0  0  0  0
    4.1150   60.7860   70.8810 C   0  0  0  0  0  0  0  0  0  0  0  0
    4.9000   61.8950   71.2380 C   0  0  0  0  0  0  0  0  0  0  0  0
    4.8160   63.0820   70.5090 C   0  0  0  0  0  0  0  0  0  0  0  0
    3.9530   63.1740   69.4210 C   0  0  0  0  0  0  0  0  0  0  0  0
    3.1660   62.0820   69.0610 C   0  0  0  0  0  0  0  0  0  0  0  0
    3.2440   60.8920   69.7870 C   0  0  0  0  0  0  0  0  0  0  0  0
   -0.9702   62.0320   73.0346 H   0  0  0  0  0  0  0  0  0  0  0  0
    1.0971   61.0129   72.0918 H   0  0  0  0  0  0  0  0  0  0  0  0
    0.2105   57.3144   74.1543 H   0  0  0  0  0  0  0  0  0  0  0  0
   -1.8508   58.3359   75.0956 H   0  0  0  0  0  0  0  0  0  0  0  0
   -6.4850   60.6634   73.2699 H   0  0  0  0  0  0  0  0  0  0  0  0
   -4.0052   60.1774   73.2522 H   0  0  0  0  0  0  0  0  0  0  0  0
   -5.9302   63.1890   77.5532 H   0  0  0  0  0  0  0  0  0  0  0  0
   -9.5244   63.0340   72.8995 H   0  0  0  0  0  0  0  0  0  0  0  0
   -7.9893   62.2099   72.4624 H   0  0  0  0  0  0  0  0  0  0  0  0
   -9.5332   61.2917   72.4624 H   0  0  0  0  0  0  0  0  0  0  0  0
   -8.5747   64.7850   77.7026 H   0  0  0  0  0  0  0  0  0  0  0  0
   -7.6837   64.9326   76.1499 H   0  0  0  0  0  0  0  0  0  0  0  0
   -9.4769   64.8275   76.1499 H   0  0  0  0  0  0  0  0  0  0  0  0
    2.3014   57.5835   73.1568 H   0  0  0  0  0  0  0  0  0  0  0  0
    2.0266   58.3482   71.5293 H   0  0  0  0  0  0  0  0  0  0  0  0
    2.8901   60.3976   72.9126 H   0  0  0  0  0  0  0  0  0  0  0  0
    3.3331   59.4312   74.9683 H   0  0  0  0  0  0  0  0  0  0  0  0
    4.2450   58.0991   74.1806 H   0  0  0  0  0  0  0  0  0  0  0  0
    4.9121   59.7669   74.1806 H   0  0  0  0  0  0  0  0  0  0  0  0
    5.2653   59.4053   72.0244 H   0  0  0  0  0  0  0  0  0  0  0  0
    3.9722   58.6751   70.9762 H   0  0  0  0  0  0  0  0  0  0  0  0
    5.5844   61.8274   72.0965 H   0  0  0  0  0  0  0  0  0  0  0  0
    5.4331   63.9466   70.7948 H   0  0  0  0  0  0  0  0  0  0  0  0
    3.8922   64.1092   68.8450 H   0  0  0  0  0  0  0  0  0  0  0  0
    2.4818   62.1576   68.2030 H   0  0  0  0  0  0  0  0  0  0  0  0
    2.6193   60.0335   69.4995 H   0  0  0  0  0  0  0  0  0  0  0  0
  2  1  2  0
  3  2  1  0
  4  3  2  0
  5  4  1  0
  6  5  2  0
  6  1  1  0
  8  7  2  0
  9  8  1  0
 10  9  1  0
 11 10  2  0
 11  1  1  0
 12 11  1  0
 13 12  2  0
 14 12  1  0
 15 14  1  0
 15  9  2  0
 16 15  1  0
 17 16  2  0
 17  7  1  0
 19  7  1  0
 19 18  1  0
 20 17  1  0
 21 20  1  0
 22  4  1  0
 23 22  1  0
 24 23  1  0
 25 23  1  0
 26 25  1  0
 27 26  2  0
 28 27  1  0
 29 28  2  0
 30 29  1  0
 31 30  2  0
 31 26  1  0
  2 32  1  0
  3 33  1  0
  5 34  1  0
  6 35  1  0
  8 36  1  0
 10 37  1  0
 16 38  1  0
 18 39  1  0
 18 40  1  0
 18 41  1  0
 21 42  1  0
 21 43  1  0
 21 44  1  0
 22 45  1  0
 22 46  1  0
 23 47  1  1
 24 48  1  0
 24 49  1  0
 24 50  1  0
 25 51  1  0
 25 52  1  0
 27 53  1  0
 28 54  1  0
 29 55  1  0
 30 56  1  0
 31 57  1  0
M  CHG  1  23   1
M  END
>  <score>  (9) 
-7.994

$$$$
