=
     RDKit          3D

 54 57  0  0  0  0  0  0  0  0999 V2000
    1.9910   69.1710   67.9350 C   0  0  2  0  0  0  0  0  0  0  0  0
    1.3660   68.5250   69.1740 C   0  0  0  0  0  0  0  0  0  0  0  0
    1.5170   67.0700   68.8240 C   0  0  0  0  0  0  0  0  0  0  0  0
    1.9020   66.8330   67.6070 N   0  0  0  0  0  0  0  0  0  0  0  0
    2.1150   68.0420   67.0090 N   0  0  0  0  0  0  0  0  0  0  0  0
    1.2090   65.9960   69.7990 C   0  0  0  0  0  0  0  0  0  0  0  0
    2.0230   64.8530   69.8250 C   0  0  0  0  0  0  0  0  0  0  0  0
    1.7610   63.8240   70.7310 C   0  0  0  0  0  0  0  0  0  0  0  0
    0.6880   63.9400   71.6060 C   0  0  0  0  0  0  0  0  0  0  0  0
   -0.1290   65.0650   71.5910 C   0  0  0  0  0  0  0  0  0  0  0  0
    0.1300   66.0980   70.6860 C   0  0  0  0  0  0  0  0  0  0  0  0
    0.4350   62.9530   72.4750 F   0  0  0  0  0  0  0  0  0  0  0  0
    5.8030   71.0910   68.8200 C   0  0  0  0  0  0  0  0  0  0  0  0
    4.8150   70.9900   69.8070 C   0  0  0  0  0  0  0  0  0  0  0  0
    3.5920   70.3650   69.5400 C   0  0  0  0  0  0  0  0  0  0  0  0
    3.3210   69.8230   68.2770 C   0  0  0  0  0  0  0  0  0  0  0  0
    4.3110   69.9280   67.2900 C   0  0  0  0  0  0  0  0  0  0  0  0
    5.5480   70.5300   67.5570 C   0  0  0  0  0  0  0  0  0  0  0  0
    8.0110   71.0570   69.7360 C   0  0  0  0  0  0  0  0  0  0  0  0
    6.9980   71.7330   69.0010 O   0  0  0  0  0  0  0  0  0  0  0  0
    6.3920   70.5490   66.4730 O   0  0  0  0  0  0  0  0  0  0  0  0
    5.8810   69.9430   65.2900 C   0  0  0  0  0  0  0  0  0  0  0  0
    2.3780   68.1290   65.6430 C   0  0  0  0  0  0  0  0  0  0  0  0
    3.4030   67.3600   65.0590 C   0  0  0  0  0  0  0  0  0  0  0  0
    3.6930   67.4250   63.6910 C   0  0  0  0  0  0  0  0  0  0  0  0
    2.9460   68.2670   62.8730 C   0  0  0  0  0  0  0  0  0  0  0  0
    1.9310   69.0530   63.4160 C   0  0  0  0  0  0  0  0  0  0  0  0
    1.6520   68.9760   64.7870 C   0  0  0  0  0  0  0  0  0  0  0  0
    3.3240   68.3830   61.1520 S   0  0  0  0  0  6  0  0  0  0  0  0
    2.2310   69.0310   60.4650 O   0  0  0  0  0  0  0  0  0  0  0  0
    3.8890   67.1330   60.7010 O   0  0  0  0  0  0  0  0  0  0  0  0
    4.5900   69.4860   61.1480 N   0  0  0  0  0  0  0  0  0  0  0  0
    1.3990   69.9911   67.5027 H   0  0  0  0  0  0  0  0  0  0  0  0
    1.9183   68.7827   70.0897 H   0  0  0  0  0  0  0  0  0  0  0  0
    0.3347   68.8423   69.3879 H   0  0  0  0  0  0  0  0  0  0  0  0
    2.8705   64.7678   69.1289 H   0  0  0  0  0  0  0  0  0  0  0  0
    2.3991   62.9282   70.7521 H   0  0  0  0  0  0  0  0  0  0  0  0
   -0.9759   65.1417   72.2887 H   0  0  0  0  0  0  0  0  0  0  0  0
   -0.5130   66.9903   70.6704 H   0  0  0  0  0  0  0  0  0  0  0  0
    5.0031   71.4081   70.8069 H   0  0  0  0  0  0  0  0  0  0  0  0
    2.8326   70.2983   70.3330 H   0  0  0  0  0  0  0  0  0  0  0  0
    4.1125   69.5292   66.2842 H   0  0  0  0  0  0  0  0  0  0  0  0
    7.8264   71.1802   70.8134 H   0  0  0  0  0  0  0  0  0  0  0  0
    7.9965   69.9869   69.4815 H   0  0  0  0  0  0  0  0  0  0  0  0
    8.9935   71.4811   69.4815 H   0  0  0  0  0  0  0  0  0  0  0  0
    5.1940   69.1283   65.5627 H   0  0  0  0  0  0  0  0  0  0  0  0
    5.3405   70.6953   64.6967 H   0  0  0  0  0  0  0  0  0  0  0  0
    6.7137   69.5373   64.6967 H   0  0  0  0  0  0  0  0  0  0  0  0
    3.9942   66.6873   65.6977 H   0  0  0  0  0  0  0  0  0  0  0  0
    4.5044   66.8157   63.2664 H   0  0  0  0  0  0  0  0  0  0  0  0
    1.3518   69.7305   62.7713 H   0  0  0  0  0  0  0  0  0  0  0  0
    0.8438   69.5944   65.2046 H   0  0  0  0  0  0  0  0  0  0  0  0
    4.8506   69.7131   62.1183 H   0  0  0  0  0  0  0  0  0  0  0  0
    5.4004   69.0767   60.6616 H   0  0  0  0  0  0  0  0  0  0  0  0
  2  1  1  0
  3  2  1  0
  4  3  2  0
  5  4  1  0
  5  1  1  0
  6  3  1  0
  7  6  2  0
  8  7  1  0
  9  8  2  0
 10  9  1  0
 11 10  2  0
 11  6  1  0
 12  9  1  0
 14 13  2  0
 15 14  1  0
 16 15  2  0
 16  1  1  0
 17 16  1  0
 18 17  2  0
 18 13  1  0
 20 19  1  0
 20 13  1  0
 21 18  1  0
 22 21  1  0
 23  5  1  0
 24 23  2  0
 25 24  1  0
 26 25  2  0
 27 26  1  0
 28 27  2  0
 28 23  1  0
 29 26  1  0
 30 29  2  0
 31 29  2  0
 32 29  1  0
  1 33  1  6
  2 34  1  0
  2 35  1  0
  7 36  1  0
  8 37  1  0
 10 38  1  0
 11 39  1  0
 14 40  1  0
 15 41  1  0
 17 42  1  0
 19 43  1  0
 19 44  1  0
 19 45  1  0
 22 46  1  0
 22 47  1  0
 22 48  1  0
 24 49  1  0
 25 50  1  0
 27 51  1  0
 28 52  1  0
 32 53  1  0
 32 54  1  0
M  END
>  <score>  (1) 
-8.567

$$$$
=
     RDKit          3D

 54 57  0  0  0  0  0  0  0  0999 V2000
    3.5660   69.0970   64.6680 C   0  0  2  0  0  0  0  0  0  0  0  0
    4.8530   69.7570   65.1680 C   0  0  0  0  0  0  0  0  0  0  0  0
    4.5820   69.7950   66.6460 C   0  0  0  0  0  0  0  0  0  0  0  0
    3.3700   69.4790   66.9910 N   0  0  0  0  0  0  0  0  0  0  0  0
    2.7020   69.1390   65.8500 N   0  0  0  0  0  0  0  0  0  0  0  0
    5.6210   70.2000   67.6230 C   0  0  0  0  0  0  0  0  0  0  0  0
    5.2310   70.5170   68.9330 C   0  0  0  0  0  0  0  0  0  0  0  0
    6.1850   70.9010   69.8770 C   0  0  0  0  0  0  0  0  0  0  0  0
    7.5230   70.9670   69.5080 C   0  0  0  0  0  0  0  0  0  0  0  0
    7.9250   70.6580   68.2130 C   0  0  0  0  0  0  0  0  0  0  0  0
    6.9740   70.2730   67.2650 C   0  0  0  0  0  0  0  0  0  0  0  0
    8.4400   71.3360   70.4130 F   0  0  0  0  0  0  0  0  0  0  0  0
    4.2470   65.0300   63.2580 C   0  0  0  0  0  0  0  0  0  0  0  0
    4.7350   66.1220   62.5310 C   0  0  0  0  0  0  0  0  0  0  0  0
    4.5350   67.4320   62.9780 C   0  0  0  0  0  0  0  0  0  0  0  0
    3.8400   67.6880   64.1670 C   0  0  0  0  0  0  0  0  0  0  0  0
    3.3490   66.5930   64.8920 C   0  0  0  0  0  0  0  0  0  0  0  0
    3.5680   65.2760   64.4630 C   0  0  0  0  0  0  0  0  0  0  0  0
    5.4420   62.9620   63.3760 C   0  0  0  0  0  0  0  0  0  0  0  0
    4.3660   63.7290   62.8500 O   0  0  0  0  0  0  0  0  0  0  0  0
    3.0130   64.3330   65.2920 O   0  0  0  0  0  0  0  0  0  0  0  0
    3.8800   63.8120   66.2940 C   0  0  0  0  0  0  0  0  0  0  0  0
    1.3260   68.9110   65.8680 C   0  0  0  0  0  0  0  0  0  0  0  0
    0.6690   68.5830   67.0690 C   0  0  0  0  0  0  0  0  0  0  0  0
   -0.7100   68.3450   67.1210 C   0  0  0  0  0  0  0  0  0  0  0  0
   -1.4640   68.4410   65.9550 C   0  0  0  0  0  0  0  0  0  0  0  0
   -0.8470   68.7510   64.7440 C   0  0  0  0  0  0  0  0  0  0  0  0
    0.5340   68.9870   64.7090 C   0  0  0  0  0  0  0  0  0  0  0  0
   -3.1980   68.1100   66.0000 S   0  0  0  0  0  6  0  0  0  0  0  0
   -3.4280   66.7200   65.6830 O   0  0  0  0  0  0  0  0  0  0  0  0
   -3.9070   69.1820   65.3400 O   0  0  0  0  0  0  0  0  0  0  0  0
   -3.5400   68.2740   67.6350 N   0  0  0  0  0  0  0  0  0  0  0  0
    3.1031   69.5980   63.8050 H   0  0  0  0  0  0  0  0  0  0  0  0
    5.7393   69.1495   64.9327 H   0  0  0  0  0  0  0  0  0  0  0  0
    5.0731   70.7354   64.7160 H   0  0  0  0  0  0  0  0  0  0  0  0
    4.1697   70.4627   69.2172 H   0  0  0  0  0  0  0  0  0  0  0  0
    5.8801   71.1492   70.9043 H   0  0  0  0  0  0  0  0  0  0  0  0
    8.9880   70.7166   67.9362 H   0  0  0  0  0  0  0  0  0  0  0  0
    7.2865   70.0276   66.2393 H   0  0  0  0  0  0  0  0  0  0  0  0
    5.2841   65.9472   61.5940 H   0  0  0  0  0  0  0  0  0  0  0  0
    4.9288   68.2727   62.3879 H   0  0  0  0  0  0  0  0  0  0  0  0
    2.7801   66.7707   65.8166 H   0  0  0  0  0  0  0  0  0  0  0  0
    5.4071   62.9869   64.4752 H   0  0  0  0  0  0  0  0  0  0  0  0
    5.3542   61.9216   63.0298 H   0  0  0  0  0  0  0  0  0  0  0  0
    6.3969   63.3843   63.0298 H   0  0  0  0  0  0  0  0  0  0  0  0
    3.4777   64.0538   67.2888 H   0  0  0  0  0  0  0  0  0  0  0  0
    3.9535   62.7200   66.1837 H   0  0  0  0  0  0  0  0  0  0  0  0
    4.8787   64.2597   66.1837 H   0  0  0  0  0  0  0  0  0  0  0  0
    1.2573   68.5114   67.9957 H   0  0  0  0  0  0  0  0  0  0  0  0
   -1.1928   68.0846   68.0745 H   0  0  0  0  0  0  0  0  0  0  0  0
   -1.4413   68.8101   63.8202 H   0  0  0  0  0  0  0  0  0  0  0  0
    1.0105   69.2382   63.7499 H   0  0  0  0  0  0  0  0  0  0  0  0
   -2.7570   67.8985   68.1889 H   0  0  0  0  0  0  0  0  0  0  0  0
   -3.6728   69.2704   67.8597 H   0  0  0  0  0  0  0  0  0  0  0  0
  2  1  1  0
  3  2  1  0
  4  3  2  0
  5  4  1  0
  5  1  1  0
  6  3  1  0
  7  6  2  0
  8  7  1  0
  9  8  2  0
 10  9  1  0
 11 10  2  0
 11  6  1  0
 12  9  1  0
 14 13  2  0
 15 14  1  0
 16 15  2  0
 16  1  1  0
 17 16  1  0
 18 17  2  0
 18 13  1  0
 20 19  1  0
 20 13  1  0
 21 18  1  0
 22 21  1  0
 23  5  1  0
 24 23  2  0
 25 24  1  0
 26 25  2  0
 27 26  1  0
 28 27  2  0
 28 23  1  0
 29 26  1  0
 30 29  2  0
 31 29  2  0
 32 29  1  0
  1 33  1  6
  2 34  1  0
  2 35  1  0
  7 36  1  0
  8 37  1  0
 10 38  1  0
 11 39  1  0
 14 40  1  0
 15 41  1  0
 17 42  1  0
 19 43  1  0
 19 44  1  0
 19 45  1  0
 22 46  1  0
 22 47  1  0
 22 48  1  0
 24 49  1  0
 25 50  1  0
 27 51  1  0
 28 52  1  0
 32 53  1  0
 32 54  1  0
M  END
>  <score>  (2) 
-8.402

$$$$
=
     RDKit          3D

 54 57  0  0  0  0  0  0  0  0999 V2000
    0.7940   59.6560   74.4780 C   0  0  2  0  0  0  0  0  0  0  0  0
    1.5110   60.7760   73.7220 C   0  0  0  0  0  0  0  0  0  0  0  0
    1.9320   60.0380   72.4810 C   0  0  0  0  0  0  0  0  0  0  0  0
    1.7580   58.7520   72.5200 N   0  0  0  0  0  0  0  0  0  0  0  0
    1.1650   58.4620   73.7150 N   0  0  0  0  0  0  0  0  0  0  0  0
    2.5330   60.7380   71.3200 C   0  0  0  0  0  0  0  0  0  0  0  0
    2.0690   62.0190   70.9880 C   0  0  0  0  0  0  0  0  0  0  0  0
    2.6140   62.7050   69.9020 C   0  0  0  0  0  0  0  0  0  0  0  0
    3.6210   62.1080   69.1520 C   0  0  0  0  0  0  0  0  0  0  0  0
    4.0910   60.8390   69.4680 C   0  0  0  0  0  0  0  0  0  0  0  0
    3.5470   60.1480   70.5540 C   0  0  0  0  0  0  0  0  0  0  0  0
    4.1450   62.7650   68.1090 F   0  0  0  0  0  0  0  0  0  0  0  0
   -3.5000   60.3650   74.7100 C   0  0  0  0  0  0  0  0  0  0  0  0
   -2.7070   61.1090   73.8270 C   0  0  0  0  0  0  0  0  0  0  0  0
   -1.3290   60.8820   73.7340 C   0  0  0  0  0  0  0  0  0  0  0  0
   -0.7050   59.9060   74.5210 C   0  0  0  0  0  0  0  0  0  0  0  0
   -1.5020   59.1650   75.4050 C   0  0  0  0  0  0  0  0  0  0  0  0
   -2.8860   59.3690   75.4860 C   0  0  0  0  0  0  0  0  0  0  0  0
   -5.2540   61.7780   75.5160 C   0  0  0  0  0  0  0  0  0  0  0  0
   -4.8420   60.5710   74.8850 O   0  0  0  0  0  0  0  0  0  0  0  0
   -3.5040   58.5590   76.4090 O   0  0  0  0  0  0  0  0  0  0  0  0
   -3.9260   57.2900   75.9230 C   0  0  0  0  0  0  0  0  0  0  0  0
    0.9990   57.1400   74.1300 C   0  0  0  0  0  0  0  0  0  0  0  0
   -0.0560   56.3570   73.6230 C   0  0  0  0  0  0  0  0  0  0  0  0
   -0.2530   55.0300   74.0200 C   0  0  0  0  0  0  0  0  0  0  0  0
    0.6210   54.4540   74.9370 C   0  0  0  0  0  0  0  0  0  0  0  0
    1.6700   55.2010   75.4710 C   0  0  0  0  0  0  0  0  0  0  0  0
    1.8530   56.5290   75.0630 C   0  0  0  0  0  0  0  0  0  0  0  0
    0.3640   52.7910   75.4710 S   0  0  0  0  0  6  0  0  0  0  0  0
   -0.9810   52.6540   75.9800 O   0  0  0  0  0  0  0  0  0  0  0  0
    1.5200   52.3410   76.2120 O   0  0  0  0  0  0  0  0  0  0  0  0
    0.3960   51.9500   74.0190 N   0  0  0  0  0  0  0  0  0  0  0  0
    1.0774   59.5686   75.5373 H   0  0  0  0  0  0  0  0  0  0  0  0
    0.8316   61.6091   73.4890 H   0  0  0  0  0  0  0  0  0  0  0  0
    2.3341   61.2511   74.2760 H   0  0  0  0  0  0  0  0  0  0  0  0
    1.2721   62.4850   71.5862 H   0  0  0  0  0  0  0  0  0  0  0  0
    2.2499   63.7098   69.6414 H   0  0  0  0  0  0  0  0  0  0  0  0
    4.8885   60.3800   68.8653 H   0  0  0  0  0  0  0  0  0  0  0  0
    3.9143   59.1425   70.8071 H   0  0  0  0  0  0  0  0  0  0  0  0
   -3.1734   61.8819   73.1984 H   0  0  0  0  0  0  0  0  0  0  0  0
   -0.7274   61.4788   73.0326 H   0  0  0  0  0  0  0  0  0  0  0  0
   -1.0309   58.4075   76.0486 H   0  0  0  0  0  0  0  0  0  0  0  0
   -5.2116   61.6538   76.6081 H   0  0  0  0  0  0  0  0  0  0  0  0
   -4.5845   62.5968   75.2138 H   0  0  0  0  0  0  0  0  0  0  0  0
   -6.2844   62.0165   75.2138 H   0  0  0  0  0  0  0  0  0  0  0  0
   -4.1465   56.6269   76.7725 H   0  0  0  0  0  0  0  0  0  0  0  0
   -4.8311   57.4145   75.3104 H   0  0  0  0  0  0  0  0  0  0  0  0
   -3.1266   56.8476   75.3104 H   0  0  0  0  0  0  0  0  0  0  0  0
   -0.7467   56.8026   72.8920 H   0  0  0  0  0  0  0  0  0  0  0  0
   -1.0914   54.4471   73.6109 H   0  0  0  0  0  0  0  0  0  0  0  0
    2.3503   54.7504   76.2086 H   0  0  0  0  0  0  0  0  0  0  0  0
    2.6876   57.1084   75.4846 H   0  0  0  0  0  0  0  0  0  0  0  0
    0.4345   50.9384   74.2089 H   0  0  0  0  0  0  0  0  0  0  0  0
   -0.4538   52.1658   73.4785 H   0  0  0  0  0  0  0  0  0  0  0  0
  2  1  1  0
  3  2  1  0
  4  3  2  0
  5  4  1  0
  5  1  1  0
  6  3  1  0
  7  6  2  0
  8  7  1  0
  9  8  2  0
 10  9  1  0
 11 10  2  0
 11  6  1  0
 12  9  1  0
 14 13  2  0
 15 14  1  0
 16 15  2  0
 16  1  1  0
 17 16  1  0
 18 17  2  0
 18 13  1  0
 20 19  1  0
 20 13  1  0
 21 18  1  0
 22 21  1  0
 23  5  1  0
 24 23  2  0
 25 24  1  0
 26 25  2  0
 27 26  1  0
 28 27  2  0
 28 23  1  0
 29 26  1  0
 30 29  2  0
 31 29  2  0
 32 29  1  0
  1 33  1  1
  2 34  1  0
  2 35  1  0
  7 36  1  0
  8 37  1  0
 10 38  1  0
 11 39  1  0
 14 40  1  0
 15 41  1  0
 17 42  1  0
 19 43  1  0
 19 44  1  0
 19 45  1  0
 22 46  1  0
 22 47  1  0
 22 48  1  0
 24 49  1  0
 25 50  1  0
 27 51  1  0
 28 52  1  0
 32 53  1  0
 32 54  1  0
M  END
>  <score>  (3) 
-8.131

$$$$
=
     RDKit          3D

 54 57  0  0  0  0  0  0  0  0999 V2000
    2.4330   60.1020   74.5940 C   0  0  2  0  0  0  0  0  0  0  0  0
    3.1820   61.0980   73.7060 C   0  0  0  0  0  0  0  0  0  0  0  0
    2.7590   60.6170   72.3450 C   0  0  0  0  0  0  0  0  0  0  0  0
    2.1200   59.4870   72.3350 N   0  0  0  0  0  0  0  0  0  0  0  0
    1.9740   59.0950   73.6350 N   0  0  0  0  0  0  0  0  0  0  0  0
    3.0880   61.3720   71.1120 C   0  0  0  0  0  0  0  0  0  0  0  0
    3.3490   60.6590   69.9320 C   0  0  0  0  0  0  0  0  0  0  0  0
    3.6600   61.3390   68.7540 C   0  0  0  0  0  0  0  0  0  0  0  0
    3.7090   62.7280   68.7590 C   0  0  0  0  0  0  0  0  0  0  0  0
    3.4540   63.4480   69.9200 C   0  0  0  0  0  0  0  0  0  0  0  0
    3.1430   62.7720   71.1020 C   0  0  0  0  0  0  0  0  0  0  0  0
    4.0080   63.3820   67.6290 F   0  0  0  0  0  0  0  0  0  0  0  0
   -0.8650   62.0850   76.6400 C   0  0  0  0  0  0  0  0  0  0  0  0
   -0.3010   60.9180   77.1710 C   0  0  0  0  0  0  0  0  0  0  0  0
    0.7660   60.2790   76.5320 C   0  0  0  0  0  0  0  0  0  0  0  0
    1.3010   60.7880   75.3410 C   0  0  0  0  0  0  0  0  0  0  0  0
    0.7320   61.9540   74.8100 C   0  0  0  0  0  0  0  0  0  0  0  0
   -0.3200   62.6140   75.4580 C   0  0  0  0  0  0  0  0  0  0  0  0
   -1.7110   63.5660   78.3160 C   0  0  0  0  0  0  0  0  0  0  0  0
   -1.9410   62.7290   77.1890 O   0  0  0  0  0  0  0  0  0  0  0  0
   -0.7540   63.7350   74.7930 O   0  0  0  0  0  0  0  0  0  0  0  0
   -0.0270   64.9280   75.0650 C   0  0  0  0  0  0  0  0  0  0  0  0
    1.4730   57.8320   73.9490 C   0  0  0  0  0  0  0  0  0  0  0  0
    0.2280   57.4090   73.4460 C   0  0  0  0  0  0  0  0  0  0  0  0
   -0.3060   56.1500   73.7440 C   0  0  0  0  0  0  0  0  0  0  0  0
    0.4140   55.2780   74.5560 C   0  0  0  0  0  0  0  0  0  0  0  0
    1.6450   55.6660   75.0840 C   0  0  0  0  0  0  0  0  0  0  0  0
    2.1640   56.9300   74.7750 C   0  0  0  0  0  0  0  0  0  0  0  0
   -0.2630   53.7000   74.9680 S   0  0  0  0  0  6  0  0  0  0  0  0
   -0.0010   53.4160   76.3600 O   0  0  0  0  0  0  0  0  0  0  0  0
    0.0430   52.7590   73.9160 O   0  0  0  0  0  0  0  0  0  0  0  0
   -1.9130   53.9890   74.8580 N   0  0  0  0  0  0  0  0  0  0  0  0
    3.0440   59.6566   75.3929 H   0  0  0  0  0  0  0  0  0  0  0  0
    2.8570   62.1325   73.8911 H   0  0  0  0  0  0  0  0  0  0  0  0
    4.2699   61.1289   73.8654 H   0  0  0  0  0  0  0  0  0  0  0  0
    3.3083   59.5598   69.9357 H   0  0  0  0  0  0  0  0  0  0  0  0
    3.8647   60.7803   67.8288 H   0  0  0  0  0  0  0  0  0  0  0  0
    3.4970   64.5471   69.9081 H   0  0  0  0  0  0  0  0  0  0  0  0
    2.9416   63.3378   72.0236 H   0  0  0  0  0  0  0  0  0  0  0  0
   -0.7035   60.4980   78.1046 H   0  0  0  0  0  0  0  0  0  0  0  0
    1.1913   59.3641   76.9702 H   0  0  0  0  0  0  0  0  0  0  0  0
    1.1201   62.3594   73.8639 H   0  0  0  0  0  0  0  0  0  0  0  0
   -1.8694   62.9895   79.2393 H   0  0  0  0  0  0  0  0  0  0  0  0
   -0.6768   63.9399   78.2901 H   0  0  0  0  0  0  0  0  0  0  0  0
   -2.4089   64.4159   78.2901 H   0  0  0  0  0  0  0  0  0  0  0  0
    0.0572   65.0661   76.1530 H   0  0  0  0  0  0  0  0  0  0  0  0
    0.9788   64.8526   74.6261 H   0  0  0  0  0  0  0  0  0  0  0  0
   -0.5551   65.7873   74.6261 H   0  0  0  0  0  0  0  0  0  0  0  0
   -0.3435   58.0898   72.7980 H   0  0  0  0  0  0  0  0  0  0  0  0
   -1.2851   55.8524   73.3405 H   0  0  0  0  0  0  0  0  0  0  0  0
    2.2055   54.9833   75.7396 H   0  0  0  0  0  0  0  0  0  0  0  0
    3.1391   57.2242   75.1905 H   0  0  0  0  0  0  0  0  0  0  0  0
   -2.3131   54.0591   75.8045 H   0  0  0  0  0  0  0  0  0  0  0  0
   -2.0740   54.8710   74.3510 H   0  0  0  0  0  0  0  0  0  0  0  0
  2  1  1  0
  3  2  1  0
  4  3  2  0
  5  4  1  0
  5  1  1  0
  6  3  1  0
  7  6  2  0
  8  7  1  0
  9  8  2  0
 10  9  1  0
 11 10  2  0
 11  6  1  0
 12  9  1  0
 14 13  2  0
 15 14  1  0
 16 15  2  0
 16  1  1  0
 17 16  1  0
 18 17  2  0
 18 13  1  0
 20 19  1  0
 20 13  1  0
 21 18  1  0
 22 21  1  0
 23  5  1  0
 24 23  2  0
 25 24  1  0
 26 25  2  0
 27 26  1  0
 28 27  2  0
 28 23  1  0
 29 26  1  0
 30 29  2  0
 31 29  2  0
 32 29  1  0
  1 33  1  1
  2 34  1  0
  2 35  1  0
  7 36  1  0
  8 37  1  0
 10 38  1  0
 11 39  1  0
 14 40  1  0
 15 41  1  0
 17 42  1  0
 19 43  1  0
 19 44  1  0
 19 45  1  0
 22 46  1  0
 22 47  1  0
 22 48  1  0
 24 49  1  0
 25 50  1  0
 27 51  1  0
 28 52  1  0
 32 53  1  0
 32 54  1  0
M  END
>  <score>  (4) 
-8.062

$$$$
=
     RDKit          3D

 54 57  0  0  0  0  0  0  0  0999 V2000
    1.1220   58.4090   73.2480 C   0  0  2  0  0  0  0  0  0  0  0  0
    2.2580   58.8770   72.3360 C   0  0  0  0  0  0  0  0  0  0  0  0
    2.0060   60.3590   72.3270 C   0  0  0  0  0  0  0  0  0  0  0  0
    0.8870   60.7300   72.8720 N   0  0  0  0  0  0  0  0  0  0  0  0
    0.2830   59.6060   73.3590 N   0  0  0  0  0  0  0  0  0  0  0  0
    2.9570   61.3110   71.7060 C   0  0  0  0  0  0  0  0  0  0  0  0
    4.3340   61.0740   71.8360 C   0  0  0  0  0  0  0  0  0  0  0  0
    5.2560   61.9500   71.2610 C   0  0  0  0  0  0  0  0  0  0  0  0
    4.7990   63.0600   70.5600 C   0  0  0  0  0  0  0  0  0  0  0  0
    3.4380   63.3100   70.4240 C   0  0  0  0  0  0  0  0  0  0  0  0
    2.5120   62.4350   70.9970 C   0  0  0  0  0  0  0  0  0  0  0  0
    5.6830   63.9020   70.0090 F   0  0  0  0  0  0  0  0  0  0  0  0
    2.7130   56.9280   77.0260 C   0  0  0  0  0  0  0  0  0  0  0  0
    2.8660   58.2750   76.6720 C   0  0  0  0  0  0  0  0  0  0  0  0
    2.3490   58.7660   75.4690 C   0  0  0  0  0  0  0  0  0  0  0  0
    1.6640   57.9240   74.5830 C   0  0  0  0  0  0  0  0  0  0  0  0
    1.5160   56.5760   74.9370 C   0  0  0  0  0  0  0  0  0  0  0  0
    2.0080   56.0820   76.1530 C   0  0  0  0  0  0  0  0  0  0  0  0
    4.3810   56.9950   78.7390 C   0  0  0  0  0  0  0  0  0  0  0  0
    3.2370   56.3750   78.1620 O   0  0  0  0  0  0  0  0  0  0  0  0
    1.7770   54.7400   76.3310 O   0  0  0  0  0  0  0  0  0  0  0  0
    1.7270   53.9650   75.1380 C   0  0  0  0  0  0  0  0  0  0  0  0
   -1.0180   59.6510   73.8560 C   0  0  0  0  0  0  0  0  0  0  0  0
   -1.8320   60.7780   73.6360 C   0  0  0  0  0  0  0  0  0  0  0  0
   -3.1410   60.8570   74.1240 C   0  0  0  0  0  0  0  0  0  0  0  0
   -3.6670   59.7880   74.8440 C   0  0  0  0  0  0  0  0  0  0  0  0
   -2.8890   58.6590   75.0940 C   0  0  0  0  0  0  0  0  0  0  0  0
   -1.5800   58.5970   74.5980 C   0  0  0  0  0  0  0  0  0  0  0  0
   -5.3060   59.8880   75.4940 S   0  0  0  0  0  6  0  0  0  0  0  0
   -5.8460   61.2020   75.2300 O   0  0  0  0  0  0  0  0  0  0  0  0
   -5.3380   59.2890   76.8080 O   0  0  0  0  0  0  0  0  0  0  0  0
   -6.1440   58.8350   74.4900 N   0  0  0  0  0  0  0  0  0  0  0  0
    0.5569   57.5469   72.8640 H   0  0  0  0  0  0  0  0  0  0  0  0
    3.2444   58.6350   72.7584 H   0  0  0  0  0  0  0  0  0  0  0  0
    2.2716   58.4074   71.3414 H   0  0  0  0  0  0  0  0  0  0  0  0
    4.6882   60.1943   72.3933 H   0  0  0  0  0  0  0  0  0  0  0  0
    6.3354   61.7636   71.3617 H   0  0  0  0  0  0  0  0  0  0  0  0
    3.0918   64.1934   69.8674 H   0  0  0  0  0  0  0  0  0  0  0  0
    1.4342   62.6281   70.8918 H   0  0  0  0  0  0  0  0  0  0  0  0
    3.4006   58.9563   77.3503 H   0  0  0  0  0  0  0  0  0  0  0  0
    2.4819   59.8279   75.2148 H   0  0  0  0  0  0  0  0  0  0  0  0
    1.0028   55.8911   74.2459 H   0  0  0  0  0  0  0  0  0  0  0  0
    4.3061   56.9544   79.8357 H   0  0  0  0  0  0  0  0  0  0  0  0
    5.2885   56.4652   78.4136 H   0  0  0  0  0  0  0  0  0  0  0  0
    4.4326   58.0445   78.4136 H   0  0  0  0  0  0  0  0  0  0  0  0
    1.6582   52.8980   75.3965 H   0  0  0  0  0  0  0  0  0  0  0  0
    0.8458   54.2569   74.5478 H   0  0  0  0  0  0  0  0  0  0  0  0
    2.6384   54.1412   74.5478 H   0  0  0  0  0  0  0  0  0  0  0  0
   -1.4260   61.6239   73.0619 H   0  0  0  0  0  0  0  0  0  0  0  0
   -3.7487   61.7553   73.9404 H   0  0  0  0  0  0  0  0  0  0  0  0
   -3.3001   57.8217   75.6771 H   0  0  0  0  0  0  0  0  0  0  0  0
   -0.9755   57.6993   74.7944 H   0  0  0  0  0  0  0  0  0  0  0  0
   -6.6770   58.1653   75.0630 H   0  0  0  0  0  0  0  0  0  0  0  0
   -6.7926   59.3705   73.8955 H   0  0  0  0  0  0  0  0  0  0  0  0
  2  1  1  0
  3  2  1  0
  4  3  2  0
  5  4  1  0
  5  1  1  0
  6  3  1  0
  7  6  2  0
  8  7  1  0
  9  8  2  0
 10  9  1  0
 11 10  2  0
 11  6  1  0
 12  9  1  0
 14 13  2  0
 15 14  1  0
 16 15  2  0
 16  1  1  0
 17 16  1  0
 18 17  2  0
 18 13  1  0
 20 19  1  0
 20 13  1  0
 21 18  1  0
 22 21  1  0
 23  5  1  0
 24 23  2  0
 25 24  1  0
 26 25  2  0
 27 26  1  0
 28 27  2  0
 28 23  1  0
 29 26  1  0
 30 29  2  0
 31 29  2  0
 32 29  1  0
  1 33  1  6
  2 34  1  0
  2 35  1  0
  7 36  1  0
  8 37  1  0
 10 38  1  0
 11 39  1  0
 14 40  1  0
 15 41  1  0
 17 42  1  0
 19 43  1  0
 19 44  1  0
 19 45  1  0
 22 46  1  0
 22 47  1  0
 22 48  1  0
 24 49  1  0
 25 50  1  0
 27 51  1  0
 28 52  1  0
 32 53  1  0
 32 54  1  0
M  END
>  <score>  (5) 
-7.969

$$$$
=
     RDKit          3D

 54 57  0  0  0  0  0  0  0  0999 V2000
   -0.1720   59.3260   74.9430 C   0  0  2  0  0  0  0  0  0  0  0  0
   -1.4960   59.4480   75.7020 C   0  0  0  0  0  0  0  0  0  0  0  0
   -2.3650   60.0530   74.6340 C   0  0  0  0  0  0  0  0  0  0  0  0
   -1.7350   60.4410   73.5660 N   0  0  0  0  0  0  0  0  0  0  0  0
   -0.4210   60.1120   73.7320 N   0  0  0  0  0  0  0  0  0  0  0  0
   -3.8270   60.2190   74.8160 C   0  0  0  0  0  0  0  0  0  0  0  0
   -4.6430   59.0780   74.8100 C   0  0  0  0  0  0  0  0  0  0  0  0
   -6.0230   59.2000   74.9800 C   0  0  0  0  0  0  0  0  0  0  0  0
   -6.5810   60.4610   75.1550 C   0  0  0  0  0  0  0  0  0  0  0  0
   -5.7860   61.6010   75.1620 C   0  0  0  0  0  0  0  0  0  0  0  0
   -4.4040   61.4830   74.9920 C   0  0  0  0  0  0  0  0  0  0  0  0
   -7.9060   60.5800   75.3180 F   0  0  0  0  0  0  0  0  0  0  0  0
    0.8090   55.1370   74.2420 C   0  0  0  0  0  0  0  0  0  0  0  0
   -0.3880   55.6760   73.7530 C   0  0  0  0  0  0  0  0  0  0  0  0
   -0.7090   57.0210   73.9600 C   0  0  0  0  0  0  0  0  0  0  0  0
    0.1580   57.8680   74.6620 C   0  0  0  0  0  0  0  0  0  0  0  0
    1.3530   57.3260   75.1540 C   0  0  0  0  0  0  0  0  0  0  0  0
    1.6940   55.9850   74.9280 C   0  0  0  0  0  0  0  0  0  0  0  0
    0.6840   52.9090   75.1000 C   0  0  0  0  0  0  0  0  0  0  0  0
    1.1590   53.8200   74.1170 O   0  0  0  0  0  0  0  0  0  0  0  0
    2.8980   55.6270   75.4860 O   0  0  0  0  0  0  0  0  0  0  0  0
    3.5670   56.6540   76.2090 C   0  0  0  0  0  0  0  0  0  0  0  0
    0.5460   60.5480   72.8260 C   0  0  0  0  0  0  0  0  0  0  0  0
    0.4130   61.7910   72.1790 C   0  0  0  0  0  0  0  0  0  0  0  0
    1.3630   62.2570   71.2630 C   0  0  0  0  0  0  0  0  0  0  0  0
    2.4810   61.4780   70.9820 C   0  0  0  0  0  0  0  0  0  0  0  0
    2.6420   60.2360   71.5930 C   0  0  0  0  0  0  0  0  0  0  0  0
    1.6820   59.7840   72.5080 C   0  0  0  0  0  0  0  0  0  0  0  0
    3.6700   62.0400   69.8030 S   0  0  0  0  0  6  0  0  0  0  0  0
    4.6610   62.8500   70.4720 O   0  0  0  0  0  0  0  0  0  0  0  0
    2.9880   62.4820   68.6090 O   0  0  0  0  0  0  0  0  0  0  0  0
    4.4470   60.6120   69.3850 N   0  0  0  0  0  0  0  0  0  0  0  0
    0.7051   59.6932   75.4960 H   0  0  0  0  0  0  0  0  0  0  0  0
   -1.8720   58.4658   76.0243 H   0  0  0  0  0  0  0  0  0  0  0  0
   -1.4400   60.0301   76.6337 H   0  0  0  0  0  0  0  0  0  0  0  0
   -4.1937   58.0836   74.6708 H   0  0  0  0  0  0  0  0  0  0  0  0
   -6.6636   58.3058   74.9755 H   0  0  0  0  0  0  0  0  0  0  0  0
   -6.2428   62.5920   75.3008 H   0  0  0  0  0  0  0  0  0  0  0  0
   -3.7700   62.3819   74.9964 H   0  0  0  0  0  0  0  0  0  0  0  0
   -1.0856   55.0316   73.1980 H   0  0  0  0  0  0  0  0  0  0  0  0
   -1.6556   57.4195   73.5661 H   0  0  0  0  0  0  0  0  0  0  0  0
    2.0378   57.9661   75.7296 H   0  0  0  0  0  0  0  0  0  0  0  0
    0.8930   53.3098   76.1028 H   0  0  0  0  0  0  0  0  0  0  0  0
   -0.4006   52.7715   74.9788 H   0  0  0  0  0  0  0  0  0  0  0  0
    1.1922   51.9410   74.9788 H   0  0  0  0  0  0  0  0  0  0  0  0
    3.4518   56.4771   77.2886 H   0  0  0  0  0  0  0  0  0  0  0  0
    4.6357   56.6492   75.9487 H   0  0  0  0  0  0  0  0  0  0  0  0
    3.1306   57.6296   75.9487 H   0  0  0  0  0  0  0  0  0  0  0  0
   -0.4650   62.4156   72.4002 H   0  0  0  0  0  0  0  0  0  0  0  0
    1.2269   63.2306   70.7695 H   0  0  0  0  0  0  0  0  0  0  0  0
    3.5182   59.6137   71.3582 H   0  0  0  0  0  0  0  0  0  0  0  0
    1.8211   58.8052   72.9903 H   0  0  0  0  0  0  0  0  0  0  0  0
    4.7215   60.1075   70.2400 H   0  0  0  0  0  0  0  0  0  0  0  0
    3.8094   60.0242   68.8293 H   0  0  0  0  0  0  0  0  0  0  0  0
  2  1  1  0
  3  2  1  0
  4  3  2  0
  5  4  1  0
  5  1  1  0
  6  3  1  0
  7  6  2  0
  8  7  1  0
  9  8  2  0
 10  9  1  0
 11 10  2  0
 11  6  1  0
 12  9  1  0
 14 13  2  0
 15 14  1  0
 16 15  2  0
 16  1  1  0
 17 16  1  0
 18 17  2  0
 18 13  1  0
 20 19  1  0
 20 13  1  0
 21 18  1  0
 22 21  1  0
 23  5  1  0
 24 23  2  0
 25 24  1  0
 26 25  2  0
 27 26  1  0
 28 27  2  0
 28 23  1  0
 29 26  1  0
 30 29  2  0
 31 29  2  0
 32 29  1  0
  1 33  1  1
  2 34  1  0
  2 35  1  0
  7 36  1  0
  8 37  1  0
 10 38  1  0
 11 39  1  0
 14 40  1  0
 15 41  1  0
 17 42  1  0
 19 43  1  0
 19 44  1  0
 19 45  1  0
 22 46  1  0
 22 47  1  0
 22 48  1  0
 24 49  1  0
 25 50  1  0
 27 51  1  0
 28 52  1  0
 32 53  1  0
 32 54  1  0
M  END
>  <score>  (6) 
-7.853

$$$$
=
     RDKit          3D

 54 57  0  0  0  0  0  0  0  0999 V2000
    0.7370   60.0070   74.6750 C   0  0  2  0  0  0  0  0  0  0  0  0
    1.4840   61.0940   73.8980 C   0  0  0  0  0  0  0  0  0  0  0  0
    1.7630   60.3650   72.6130 C   0  0  0  0  0  0  0  0  0  0  0  0
    1.4960   59.0940   72.6320 N   0  0  0  0  0  0  0  0  0  0  0  0
    0.9650   58.8120   73.8580 N   0  0  0  0  0  0  0  0  0  0  0  0
    2.3340   61.0540   71.4310 C   0  0  0  0  0  0  0  0  0  0  0  0
    3.2130   60.3470   70.5960 C   0  0  0  0  0  0  0  0  0  0  0  0
    3.7670   60.9670   69.4740 C   0  0  0  0  0  0  0  0  0  0  0  0
    3.4430   62.2880   69.1930 C   0  0  0  0  0  0  0  0  0  0  0  0
    2.5750   63.0020   70.0120 C   0  0  0  0  0  0  0  0  0  0  0  0
    2.0180   62.3860   71.1350 C   0  0  0  0  0  0  0  0  0  0  0  0
    3.9740   62.8840   68.1170 F   0  0  0  0  0  0  0  0  0  0  0  0
   -3.4550   61.1300   75.0700 C   0  0  0  0  0  0  0  0  0  0  0  0
   -3.1040   59.8450   74.6360 C   0  0  0  0  0  0  0  0  0  0  0  0
   -1.7630   59.4680   74.5160 C   0  0  0  0  0  0  0  0  0  0  0  0
   -0.7330   60.3640   74.8280 C   0  0  0  0  0  0  0  0  0  0  0  0
   -1.0870   61.6500   75.2600 C   0  0  0  0  0  0  0  0  0  0  0  0
   -2.4290   62.0270   75.4070 C   0  0  0  0  0  0  0  0  0  0  0  0
   -5.7460   60.8780   74.4290 C   0  0  0  0  0  0  0  0  0  0  0  0
   -4.7460   61.5770   75.1610 O   0  0  0  0  0  0  0  0  0  0  0  0
   -2.5880   63.3230   75.8340 O   0  0  0  0  0  0  0  0  0  0  0  0
   -1.4860   63.8710   76.5510 C   0  0  0  0  0  0  0  0  0  0  0  0
    0.7280   57.4950   74.2490 C   0  0  0  0  0  0  0  0  0  0  0  0
    0.0850   56.5930   73.3800 C   0  0  0  0  0  0  0  0  0  0  0  0
   -0.1700   55.2650   73.7420 C   0  0  0  0  0  0  0  0  0  0  0  0
    0.2280   54.8110   74.9960 C   0  0  0  0  0  0  0  0  0  0  0  0
    0.8570   55.6770   75.8890 C   0  0  0  0  0  0  0  0  0  0  0  0
    1.1050   57.0030   75.5110 C   0  0  0  0  0  0  0  0  0  0  0  0
   -0.1170   53.1470   75.4780 S   0  0  0  0  0  6  0  0  0  0  0  0
   -1.0110   53.1550   76.6140 O   0  0  0  0  0  0  0  0  0  0  0  0
    1.1060   52.3800   75.4610 O   0  0  0  0  0  0  0  0  0  0  0  0
   -1.0250   52.5900   74.1810 N   0  0  0  0  0  0  0  0  0  0  0  0
    1.0838   59.8681   75.7096 H   0  0  0  0  0  0  0  0  0  0  0  0
    0.8551   61.9814   73.7338 H   0  0  0  0  0  0  0  0  0  0  0  0
    2.3763   61.4903   74.4047 H   0  0  0  0  0  0  0  0  0  0  0  0
    3.4663   59.3016   70.8260 H   0  0  0  0  0  0  0  0  0  0  0  0
    4.4547   60.4134   68.8178 H   0  0  0  0  0  0  0  0  0  0  0  0
    2.3281   64.0477   69.7763 H   0  0  0  0  0  0  0  0  0  0  0  0
    1.3316   62.9466   71.7866 H   0  0  0  0  0  0  0  0  0  0  0  0
   -3.8948   59.1223   74.3861 H   0  0  0  0  0  0  0  0  0  0  0  0
   -1.5136   58.4535   74.1717 H   0  0  0  0  0  0  0  0  0  0  0  0
   -0.2950   62.3784   75.4884 H   0  0  0  0  0  0  0  0  0  0  0  0
   -6.4410   60.3922   75.1297 H   0  0  0  0  0  0  0  0  0  0  0  0
   -6.2996   61.5868   73.7957 H   0  0  0  0  0  0  0  0  0  0  0  0
   -5.2705   60.1146   73.7957 H   0  0  0  0  0  0  0  0  0  0  0  0
   -1.6698   63.7796   77.6317 H   0  0  0  0  0  0  0  0  0  0  0  0
   -0.5687   63.3241   76.2875 H   0  0  0  0  0  0  0  0  0  0  0  0
   -1.3685   64.9325   76.2875 H   0  0  0  0  0  0  0  0  0  0  0  0
   -0.2269   56.9429   72.3849 H   0  0  0  0  0  0  0  0  0  0  0  0
   -0.6800   54.5868   73.0421 H   0  0  0  0  0  0  0  0  0  0  0  0
    1.1572   55.3210   76.8856 H   0  0  0  0  0  0  0  0  0  0  0  0
    1.6079   57.6769   76.2202 H   0  0  0  0  0  0  0  0  0  0  0  0
   -1.8504   52.0837   74.5320 H   0  0  0  0  0  0  0  0  0  0  0  0
   -1.3307   53.3891   73.6075 H   0  0  0  0  0  0  0  0  0  0  0  0
  2  1  1  0
  3  2  1  0
  4  3  2  0
  5  4  1  0
  5  1  1  0
  6  3  1  0
  7  6  2  0
  8  7  1  0
  9  8  2  0
 10  9  1  0
 11 10  2  0
 11  6  1  0
 12  9  1  0
 14 13  2  0
 15 14  1  0
 16 15  2  0
 16  1  1  0
 17 16  1  0
 18 17  2  0
 18 13  1  0
 20 19  1  0
 20 13  1  0
 21 18  1  0
 22 21  1  0
 23  5  1  0
 24 23  2  0
 25 24  1  0
 26 25  2  0
 27 26  1  0
 28 27  2  0
 28 23  1  0
 29 26  1  0
 30 29  2  0
 31 29  2  0
 32 29  1  0
  1 33  1  1
  2 34  1  0
  2 35  1  0
  7 36  1  0
  8 37  1  0
 10 38  1  0
 11 39  1  0
 14 40  1  0
 15 41  1  0
 17 42  1  0
 19 43  1  0
 19 44  1  0
 19 45  1  0
 22 46  1  0
 22 47  1  0
 22 48  1  0
 24 49  1  0
 25 50  1  0
 27 51  1  0
 28 52  1  0
 32 53  1  0
 32 54  1  0
M  END
>  <score>  (7) 
-7.825

$$$$
=
     RDKit          3D

 54 57  0  0  0  0  0  0  0  0999 V2000
   -0.0680   62.7640   71.7950 C   0  0  2  0  0  0  0  0  0  0  0  0
   -0.3040   63.5340   70.4940 C   0  0  0  0  0  0  0  0  0  0  0  0
    0.1790   64.9000   70.8970 C   0  0  0  0  0  0  0  0  0  0  0  0
    0.4260   65.0440   72.1640 N   0  0  0  0  0  0  0  0  0  0  0  0
    0.2150   63.8320   72.7560 N   0  0  0  0  0  0  0  0  0  0  0  0
    0.3210   66.0010   69.9150 C   0  0  0  0  0  0  0  0  0  0  0  0
   -0.7140   66.2240   68.9940 C   0  0  0  0  0  0  0  0  0  0  0  0
   -0.6120   67.2530   68.0570 C   0  0  0  0  0  0  0  0  0  0  0  0
    0.5230   68.0540   68.0430 C   0  0  0  0  0  0  0  0  0  0  0  0
    1.5580   67.8450   68.9470 C   0  0  0  0  0  0  0  0  0  0  0  0
    1.4600   66.8160   69.8870 C   0  0  0  0  0  0  0  0  0  0  0  0
    0.6230   69.0420   67.1440 F   0  0  0  0  0  0  0  0  0  0  0  0
    3.1340   59.8380   71.3670 C   0  0  0  0  0  0  0  0  0  0  0  0
    3.0220   60.9030   70.4640 C   0  0  0  0  0  0  0  0  0  0  0  0
    2.0070   61.8560   70.5980 C   0  0  0  0  0  0  0  0  0  0  0  0
    1.0730   61.7720   71.6380 C   0  0  0  0  0  0  0  0  0  0  0  0
    1.1860   60.7030   72.5390 C   0  0  0  0  0  0  0  0  0  0  0  0
    2.2160   59.7590   72.4270 C   0  0  0  0  0  0  0  0  0  0  0  0
    3.6600   57.5930   70.7320 C   0  0  0  0  0  0  0  0  0  0  0  0
    4.0720   58.8470   71.2630 O   0  0  0  0  0  0  0  0  0  0  0  0
    2.1670   58.7820   73.3910 O   0  0  0  0  0  0  0  0  0  0  0  0
    0.9920   57.9790   73.3890 C   0  0  0  0  0  0  0  0  0  0  0  0
    0.2370   63.7010   74.1440 C   0  0  0  0  0  0  0  0  0  0  0  0
    1.1850   64.4000   74.9160 C   0  0  0  0  0  0  0  0  0  0  0  0
    1.2360   64.2890   76.3100 C   0  0  0  0  0  0  0  0  0  0  0  0
    0.3200   63.4700   76.9640 C   0  0  0  0  0  0  0  0  0  0  0  0
   -0.6260   62.7530   76.2340 C   0  0  0  0  0  0  0  0  0  0  0  0
   -0.6640   62.8760   74.8390 C   0  0  0  0  0  0  0  0  0  0  0  0
    0.3940   63.2950   78.7200 S   0  0  0  0  0  6  0  0  0  0  0  0
   -0.8370   63.7760   79.3020 O   0  0  0  0  0  0  0  0  0  0  0  0
    1.6910   63.7250   79.1890 O   0  0  0  0  0  0  0  0  0  0  0  0
    0.3710   61.6270   78.9040 N   0  0  0  0  0  0  0  0  0  0  0  0
   -0.9164   62.1409   72.1144 H   0  0  0  0  0  0  0  0  0  0  0  0
    0.2885   63.1216   69.6641 H   0  0  0  0  0  0  0  0  0  0  0  0
   -1.3390   63.5032   70.1227 H   0  0  0  0  0  0  0  0  0  0  0  0
   -1.6093   65.5851   69.0107 H   0  0  0  0  0  0  0  0  0  0  0  0
   -1.4235   67.4285   67.3355 H   0  0  0  0  0  0  0  0  0  0  0  0
    2.4507   68.4872   68.9224 H   0  0  0  0  0  0  0  0  0  0  0  0
    2.2764   66.6460   70.6044 H   0  0  0  0  0  0  0  0  0  0  0  0
    3.7427   60.9911   69.6376 H   0  0  0  0  0  0  0  0  0  0  0  0
    1.9415   62.6834   69.8761 H   0  0  0  0  0  0  0  0  0  0  0  0
    0.4505   60.6034   73.3509 H   0  0  0  0  0  0  0  0  0  0  0  0
    3.4330   56.9021   71.5573 H   0  0  0  0  0  0  0  0  0  0  0  0
    2.7610   57.7340   70.1141 H   0  0  0  0  0  0  0  0  0  0  0  0
    4.4675   57.1733   70.1141 H   0  0  0  0  0  0  0  0  0  0  0  0
    0.6881   57.7713   74.4256 H   0  0  0  0  0  0  0  0  0  0  0  0
    0.1831   58.5140   72.8699 H   0  0  0  0  0  0  0  0  0  0  0  0
    1.1966   57.0310   72.8699 H   0  0  0  0  0  0  0  0  0  0  0  0
    1.9084   65.0540   74.4070 H   0  0  0  0  0  0  0  0  0  0  0  0
    1.9930   64.8438   76.8837 H   0  0  0  0  0  0  0  0  0  0  0  0
   -1.3393   62.0938   76.7505 H   0  0  0  0  0  0  0  0  0  0  0  0
   -1.4193   62.3117   74.2723 H   0  0  0  0  0  0  0  0  0  0  0  0
    0.3678   61.3922   79.9069 H   0  0  0  0  0  0  0  0  0  0  0  0
   -0.4753   61.2441   78.4590 H   0  0  0  0  0  0  0  0  0  0  0  0
  2  1  1  0
  3  2  1  0
  4  3  2  0
  5  4  1  0
  5  1  1  0
  6  3  1  0
  7  6  2  0
  8  7  1  0
  9  8  2  0
 10  9  1  0
 11 10  2  0
 11  6  1  0
 12  9  1  0
 14 13  2  0
 15 14  1  0
 16 15  2  0
 16  1  1  0
 17 16  1  0
 18 17  2  0
 18 13  1  0
 20 19  1  0
 20 13  1  0
 21 18  1  0
 22 21  1  0
 23  5  1  0
 24 23  2  0
 25 24  1  0
 26 25  2  0
 27 26  1  0
 28 27  2  0
 28 23  1  0
 29 26  1  0
 30 29  2  0
 31 29  2  0
 32 29  1  0
  1 33  1  1
  2 34  1  0
  2 35  1  0
  7 36  1  0
  8 37  1  0
 10 38  1  0
 11 39  1  0
 14 40  1  0
 15 41  1  0
 17 42  1  0
 19 43  1  0
 19 44  1  0
 19 45  1  0
 22 46  1  0
 22 47  1  0
 22 48  1  0
 24 49  1  0
 25 50  1  0
 27 51  1  0
 28 52  1  0
 32 53  1  0
 32 54  1  0
M  END
>  <score>  (8) 
-7.82

$$$$
=
     RDKit          3D

 54 57  0  0  0  0  0  0  0  0999 V2000
    1.1650   58.5230   73.4050 C   0  0  2  0  0  0  0  0  0  0  0  0
    2.3150   58.9810   72.5040 C   0  0  0  0  0  0  0  0  0  0  0  0
    2.0220   60.4530   72.4180 C   0  0  0  0  0  0  0  0  0  0  0  0
    0.8780   60.8160   72.9130 N   0  0  0  0  0  0  0  0  0  0  0  0
    0.2910   59.6990   73.4350 N   0  0  0  0  0  0  0  0  0  0  0  0
    2.9640   61.4030   71.7800 C   0  0  0  0  0  0  0  0  0  0  0  0
    4.3380   61.1170   71.8110 C   0  0  0  0  0  0  0  0  0  0  0  0
    5.2510   61.9900   71.2190 C   0  0  0  0  0  0  0  0  0  0  0  0
    4.7900   63.1440   70.5970 C   0  0  0  0  0  0  0  0  0  0  0  0
    3.4320   63.4420   70.5590 C   0  0  0  0  0  0  0  0  0  0  0  0
    2.5140   62.5710   71.1510 C   0  0  0  0  0  0  0  0  0  0  0  0
    5.6650   63.9830   70.0280 F   0  0  0  0  0  0  0  0  0  0  0  0
    2.6080   57.4520   77.3750 C   0  0  0  0  0  0  0  0  0  0  0  0
    1.9560   56.5020   76.5790 C   0  0  0  0  0  0  0  0  0  0  0  0
    1.5000   56.8290   75.2980 C   0  0  0  0  0  0  0  0  0  0  0  0
    1.6810   58.1160   74.7760 C   0  0  0  0  0  0  0  0  0  0  0  0
    2.3310   59.0660   75.5760 C   0  0  0  0  0  0  0  0  0  0  0  0
    2.8140   58.7380   76.8510 C   0  0  0  0  0  0  0  0  0  0  0  0
    4.3430   56.6840   78.8310 C   0  0  0  0  0  0  0  0  0  0  0  0
    3.0330   57.2100   78.6530 O   0  0  0  0  0  0  0  0  0  0  0  0
    3.4180   59.7920   77.4930 O   0  0  0  0  0  0  0  0  0  0  0  0
    2.5370   60.6800   78.1720 C   0  0  0  0  0  0  0  0  0  0  0  0
   -1.0250   59.7290   73.8940 C   0  0  0  0  0  0  0  0  0  0  0  0
   -1.8420   60.8510   73.6560 C   0  0  0  0  0  0  0  0  0  0  0  0
   -3.1660   60.9150   74.1040 C   0  0  0  0  0  0  0  0  0  0  0  0
   -3.7040   59.8370   74.8010 C   0  0  0  0  0  0  0  0  0  0  0  0
   -2.9230   58.7130   75.0680 C   0  0  0  0  0  0  0  0  0  0  0  0
   -1.5990   58.6650   74.6110 C   0  0  0  0  0  0  0  0  0  0  0  0
   -5.3630   59.9180   75.4020 S   0  0  0  0  0  6  0  0  0  0  0  0
   -6.1800   58.9700   74.6800 O   0  0  0  0  0  0  0  0  0  0  0  0
   -5.7450   61.3010   75.5660 O   0  0  0  0  0  0  0  0  0  0  0  0
   -5.2020   59.3010   76.9540 N   0  0  0  0  0  0  0  0  0  0  0  0
    0.6348   57.6282   73.0469 H   0  0  0  0  0  0  0  0  0  0  0  0
    3.2947   58.7877   72.9653 H   0  0  0  0  0  0  0  0  0  0  0  0
    2.3715   58.4662   71.5335 H   0  0  0  0  0  0  0  0  0  0  0  0
    4.6961   60.2011   72.3039 H   0  0  0  0  0  0  0  0  0  0  0  0
    6.3278   61.7666   71.2444 H   0  0  0  0  0  0  0  0  0  0  0  0
    3.0820   64.3602   70.0646 H   0  0  0  0  0  0  0  0  0  0  0  0
    1.4389   62.8021   71.1232 H   0  0  0  0  0  0  0  0  0  0  0  0
    1.8004   55.4844   76.9667 H   0  0  0  0  0  0  0  0  0  0  0  0
    0.9920   56.0645   74.6918 H   0  0  0  0  0  0  0  0  0  0  0  0
    2.4649   60.0895   75.1959 H   0  0  0  0  0  0  0  0  0  0  0  0
    4.5602   56.5968   79.9058 H   0  0  0  0  0  0  0  0  0  0  0  0
    4.4061   55.6908   78.3624 H   0  0  0  0  0  0  0  0  0  0  0  0
    5.0754   57.3577   78.3624 H   0  0  0  0  0  0  0  0  0  0  0  0
    2.6585   60.5575   79.2584 H   0  0  0  0  0  0  0  0  0  0  0  0
    2.7734   61.7169   77.8912 H   0  0  0  0  0  0  0  0  0  0  0  0
    1.4982   60.4518   77.8912 H   0  0  0  0  0  0  0  0  0  0  0  0
   -1.4261   61.7043   73.1002 H   0  0  0  0  0  0  0  0  0  0  0  0
   -3.7760   61.8089   73.9072 H   0  0  0  0  0  0  0  0  0  0  0  0
   -3.3437   57.8689   75.6341 H   0  0  0  0  0  0  0  0  0  0  0  0
   -0.9929   57.7709   74.8189 H   0  0  0  0  0  0  0  0  0  0  0  0
   -5.3958   60.0439   77.6406 H   0  0  0  0  0  0  0  0  0  0  0  0
   -5.8694   58.5278   77.0870 H   0  0  0  0  0  0  0  0  0  0  0  0
  2  1  1  0
  3  2  1  0
  4  3  2  0
  5  4  1  0
  5  1  1  0
  6  3  1  0
  7  6  2  0
  8  7  1  0
  9  8  2  0
 10  9  1  0
 11 10  2  0
 11  6  1  0
 12  9  1  0
 14 13  2  0
 15 14  1  0
 16 15  2  0
 16  1  1  0
 17 16  1  0
 18 17  2  0
 18 13  1  0
 20 19  1  0
 20 13  1  0
 21 18  1  0
 22 21  1  0
 23  5  1  0
 24 23  2  0
 25 24  1  0
 26 25  2  0
 27 26  1  0
 28 27  2  0
 28 23  1  0
 29 26  1  0
 30 29  2  0
 31 29  2  0
 32 29  1  0
  1 33  1  6
  2 34  1  0
  2 35  1  0
  7 36  1  0
  8 37  1  0
 10 38  1  0
 11 39  1  0
 14 40  1  0
 15 41  1  0
 17 42  1  0
 19 43  1  0
 19 44  1  0
 19 45  1  0
 22 46  1  0
 22 47  1  0
 22 48  1  0
 24 49  1  0
 25 50  1  0
 27 51  1  0
 28 52  1  0
 32 53  1  0
 32 54  1  0
M  END
>  <score>  (9) 
-7.73

$$$$
