=
     RDKit          3D

 29 30  0  0  0  0  0  0  0  0999 V2000
    3.0590   67.0690   63.5030 C   0  0  1  0  0  0  0  0  0  0  0  0
    2.8420   68.3850   64.0490 O   0  0  0  0  0  0  0  0  0  0  0  0
    4.1240   69.0520   64.1330 C   0  0  2  0  0  0  0  0  0  0  0  0
    5.2040   68.0920   63.6290 C   0  0  1  0  0  0  0  0  0  0  0  0
    4.3970   67.1320   62.7700 C   0  0  2  0  0  0  0  0  0  0  0  0
    4.3490   69.4690   65.5080 N   0  0  0  0  0  0  0  0  0  0  0  0
    5.5140   69.9110   66.0520 C   0  0  0  0  0  0  0  0  0  0  0  0
    5.3310   70.1900   67.3210 N   0  0  0  0  0  0  0  0  0  0  0  0
    3.9900   69.8910   67.5290 C   0  0  0  0  0  0  0  0  0  0  0  0
    3.3630   69.4340   66.4290 N   0  0  0  0  0  0  0  0  0  0  0  0
    3.3380   70.0600   68.8420 C   0  0  0  0  0  0  0  0  0  0  0  0
    3.6900   70.8510   69.7140 O   0  0  0  0  0  0  0  0  0  0  0  0
    2.2570   69.2380   69.0370 N   0  0  0  0  0  0  0  0  0  0  0  0
    4.2450   67.7450   61.4740 O   0  0  0  0  0  0  0  0  0  0  0  0
    6.2100   68.7570   62.8570 O   0  0  0  0  0  0  0  0  0  0  0  0
    3.0390   66.0260   64.6250 C   0  0  0  0  0  0  0  0  0  0  0  0
    2.2590   66.5040   65.7150 O   0  0  0  0  0  0  0  0  0  0  0  0
    2.2676   66.7652   62.8021 H   0  0  0  0  0  0  0  0  0  0  0  0
    4.1524   69.9544   63.5046 H   0  0  0  0  0  0  0  0  0  0  0  0
    5.7647   67.6088   64.4427 H   0  0  0  0  0  0  0  0  0  0  0  0
    4.8395   66.1352   62.6265 H   0  0  0  0  0  0  0  0  0  0  0  0
    6.4655   70.0184   65.5105 H   0  0  0  0  0  0  0  0  0  0  0  0
    1.7322   69.2786   69.9223 H   0  0  0  0  0  0  0  0  0  0  0  0
    1.9703   68.5802   68.2981 H   0  0  0  0  0  0  0  0  0  0  0  0
    4.0083   68.6997   61.5862 H   0  0  0  0  0  0  0  0  0  0  0  0
    6.8617   69.1878   63.4652 H   0  0  0  0  0  0  0  0  0  0  0  0
    2.6018   65.0905   64.2459 H   0  0  0  0  0  0  0  0  0  0  0  0
    4.0679   65.8426   64.9681 H   0  0  0  0  0  0  0  0  0  0  0  0
    2.6877   66.2413   66.5678 H   0  0  0  0  0  0  0  0  0  0  0  0
  2  1  1  0
  3  2  1  0
  4  3  1  0
  5  4  1  0
  5  1  1  0
  6  3  1  0
  7  6  1  0
  8  7  2  0
  9  8  1  0
 10  9  2  0
 10  6  1  0
 11  9  1  0
 12 11  2  0
 13 11  1  0
 14  5  1  0
 15  4  1  0
 16  1  1  0
 17 16  1  0
  1 18  1  6
  3 19  1  6
  4 20  1  1
  5 21  1  6
  7 22  1  0
 13 23  1  0
 13 24  1  0
 14 25  1  0
 15 26  1  0
 16 27  1  0
 16 28  1  0
 17 29  1  0
M  END
>  <score>  (1) 
-7.239

$$$$
=
     RDKit          3D

 29 30  0  0  0  0  0  0  0  0999 V2000
    4.8580   68.2650   64.1780 C   0  0  1  0  0  0  0  0  0  0  0  0
    3.6780   67.4400   64.2270 O   0  0  0  0  0  0  0  0  0  0  0  0
    2.9100   67.6860   63.0250 C   0  0  2  0  0  0  0  0  0  0  0  0
    3.6400   68.7380   62.1890 C   0  0  1  0  0  0  0  0  0  0  0  0
    5.0640   68.6200   62.7070 C   0  0  2  0  0  0  0  0  0  0  0  0
    1.5690   68.1080   63.4030 N   0  0  0  0  0  0  0  0  0  0  0  0
    0.5570   68.4700   62.5700 C   0  0  0  0  0  0  0  0  0  0  0  0
   -0.5010   68.7930   63.2750 N   0  0  0  0  0  0  0  0  0  0  0  0
   -0.0830   68.6130   64.5880 C   0  0  0  0  0  0  0  0  0  0  0  0
    1.1940   68.2010   64.6960 N   0  0  0  0  0  0  0  0  0  0  0  0
   -0.9710   68.8640   65.7400 C   0  0  0  0  0  0  0  0  0  0  0  0
   -0.6090   68.9490   66.9110 O   0  0  0  0  0  0  0  0  0  0  0  0
   -2.2940   69.0070   65.4020 N   0  0  0  0  0  0  0  0  0  0  0  0
    5.6860   67.5290   61.9970 O   0  0  0  0  0  0  0  0  0  0  0  0
    3.5750   68.4630   60.7850 O   0  0  0  0  0  0  0  0  0  0  0  0
    4.6740   69.4970   65.0700 C   0  0  0  0  0  0  0  0  0  0  0  0
    3.6640   69.2440   66.0400 O   0  0  0  0  0  0  0  0  0  0  0  0
    5.7506   67.7502   64.5631 H   0  0  0  0  0  0  0  0  0  0  0  0
    2.8123   66.7769   62.4135 H   0  0  0  0  0  0  0  0  0  0  0  0
    3.2051   69.7436   62.2865 H   0  0  0  0  0  0  0  0  0  0  0  0
    5.6925   69.5137   62.5792 H   0  0  0  0  0  0  0  0  0  0  0  0
    0.6165   68.4891   61.4718 H   0  0  0  0  0  0  0  0  0  0  0  0
   -2.9962   69.1854   66.1341 H   0  0  0  0  0  0  0  0  0  0  0  0
   -2.5843   68.9359   64.4163 H   0  0  0  0  0  0  0  0  0  0  0  0
    6.0558   66.8804   62.6471 H   0  0  0  0  0  0  0  0  0  0  0  0
    3.3495   67.5091   60.6457 H   0  0  0  0  0  0  0  0  0  0  0  0
    5.6219   69.7231   65.5803 H   0  0  0  0  0  0  0  0  0  0  0  0
    4.3739   70.3535   64.4485 H   0  0  0  0  0  0  0  0  0  0  0  0
    4.0470   69.3399   66.9479 H   0  0  0  0  0  0  0  0  0  0  0  0
  2  1  1  0
  3  2  1  0
  4  3  1  0
  5  4  1  0
  5  1  1  0
  6  3  1  0
  7  6  1  0
  8  7  2  0
  9  8  1  0
 10  9  2  0
 10  6  1  0
 11  9  1  0
 12 11  2  0
 13 11  1  0
 14  5  1  0
 15  4  1  0
 16  1  1  0
 17 16  1  0
  1 18  1  1
  3 19  1  6
  4 20  1  6
  5 21  1  1
  7 22  1  0
 13 23  1  0
 13 24  1  0
 14 25  1  0
 15 26  1  0
 16 27  1  0
 16 28  1  0
 17 29  1  0
M  END
>  <score>  (2) 
-7.116

$$$$
=
     RDKit          3D

 29 30  0  0  0  0  0  0  0  0999 V2000
   -0.6670   67.4570   67.1680 C   0  0  1  0  0  0  0  0  0  0  0  0
    0.1560   66.8610   66.1470 O   0  0  0  0  0  0  0  0  0  0  0  0
    1.3350   67.6840   65.9850 C   0  0  2  0  0  0  0  0  0  0  0  0
    1.2330   68.8720   66.9450 C   0  0  1  0  0  0  0  0  0  0  0  0
    0.2600   68.3510   67.9890 C   0  0  2  0  0  0  0  0  0  0  0  0
    1.4310   68.1010   64.5940 N   0  0  0  0  0  0  0  0  0  0  0  0
    0.4640   68.6970   63.8470 C   0  0  0  0  0  0  0  0  0  0  0  0
    0.9160   68.9200   62.6360 N   0  0  0  0  0  0  0  0  0  0  0  0
    2.2140   68.4260   62.6780 C   0  0  0  0  0  0  0  0  0  0  0  0
    2.5540   67.9050   63.8720 N   0  0  0  0  0  0  0  0  0  0  0  0
    3.1140   68.4710   61.5090 C   0  0  0  0  0  0  0  0  0  0  0  0
    2.9380   69.1550   60.5030 O   0  0  0  0  0  0  0  0  0  0  0  0
    4.2180   67.6630   61.6250 N   0  0  0  0  0  0  0  0  0  0  0  0
    1.0240   67.5710   68.9320 O   0  0  0  0  0  0  0  0  0  0  0  0
    2.4930   69.2100   67.5340 O   0  0  0  0  0  0  0  0  0  0  0  0
   -1.8260   68.2250   66.5250 C   0  0  0  0  0  0  0  0  0  0  0  0
   -3.0090   68.0490   67.2950 O   0  0  0  0  0  0  0  0  0  0  0  0
   -1.1356   66.7092   67.8247 H   0  0  0  0  0  0  0  0  0  0  0  0
    2.2525   67.1284   66.2288 H   0  0  0  0  0  0  0  0  0  0  0  0
    0.9109   69.7998   66.4495 H   0  0  0  0  0  0  0  0  0  0  0  0
   -0.2926   69.1195   68.5495 H   0  0  0  0  0  0  0  0  0  0  0  0
   -0.5444   68.9533   64.2040 H   0  0  0  0  0  0  0  0  0  0  0  0
    4.9090   67.6225   60.8622 H   0  0  0  0  0  0  0  0  0  0  0  0
    4.3552   67.0974   62.4748 H   0  0  0  0  0  0  0  0  0  0  0  0
    0.7718   67.8284   69.8541 H   0  0  0  0  0  0  0  0  0  0  0  0
    2.4125   69.1884   68.5205 H   0  0  0  0  0  0  0  0  0  0  0  0
   -1.5749   69.2951   66.4814 H   0  0  0  0  0  0  0  0  0  0  0  0
   -1.9951   67.8412   65.5081 H   0  0  0  0  0  0  0  0  0  0  0  0
   -2.7837   68.0825   68.2584 H   0  0  0  0  0  0  0  0  0  0  0  0
  2  1  1  0
  3  2  1  0
  4  3  1  0
  5  4  1  0
  5  1  1  0
  6  3  1  0
  7  6  1  0
  8  7  2  0
  9  8  1  0
 10  9  2  0
 10  6  1  0
 11  9  1  0
 12 11  2  0
 13 11  1  0
 14  5  1  0
 15  4  1  0
 16  1  1  0
 17 16  1  0
  1 18  1  1
  3 19  1  1
  4 20  1  6
  5 21  1  1
  7 22  1  0
 13 23  1  0
 13 24  1  0
 14 25  1  0
 15 26  1  0
 16 27  1  0
 16 28  1  0
 17 29  1  0
M  END
>  <score>  (3) 
-7.09

$$$$
=
     RDKit          3D

 29 30  0  0  0  0  0  0  0  0999 V2000
    3.7280   66.3780   63.0610 C   0  0  1  0  0  0  0  0  0  0  0  0
    2.9700   67.3960   63.7420 O   0  0  0  0  0  0  0  0  0  0  0  0
    3.7380   68.6220   63.7130 C   0  0  2  0  0  0  0  0  0  0  0  0
    5.0600   68.3490   62.9910 C   0  0  1  0  0  0  0  0  0  0  0  0
    4.7210   67.1190   62.1670 C   0  0  2  0  0  0  0  0  0  0  0  0
    3.9370   69.0850   65.0790 N   0  0  0  0  0  0  0  0  0  0  0  0
    3.0080   69.1390   66.0700 C   0  0  0  0  0  0  0  0  0  0  0  0
    3.5560   69.6160   67.1630 N   0  0  0  0  0  0  0  0  0  0  0  0
    4.8730   69.8560   66.7880 C   0  0  0  0  0  0  0  0  0  0  0  0
    5.1320   69.5470   65.5040 N   0  0  0  0  0  0  0  0  0  0  0  0
    5.8730   70.4050   67.7240 C   0  0  0  0  0  0  0  0  0  0  0  0
    7.0850   70.4400   67.5280 O   0  0  0  0  0  0  0  0  0  0  0  0
    5.3340   70.9020   68.8850 N   0  0  0  0  0  0  0  0  0  0  0  0
    4.0800   67.5790   60.9590 O   0  0  0  0  0  0  0  0  0  0  0  0
    5.4610   69.4400   62.1550 O   0  0  0  0  0  0  0  0  0  0  0  0
    4.4100   65.4620   64.0810 C   0  0  0  0  0  0  0  0  0  0  0  0
    5.1660   64.4630   63.4050 O   0  0  0  0  0  0  0  0  0  0  0  0
    3.0966   65.7194   62.4465 H   0  0  0  0  0  0  0  0  0  0  0  0
    3.2103   69.4173   63.1661 H   0  0  0  0  0  0  0  0  0  0  0  0
    5.9074   68.2119   63.6788 H   0  0  0  0  0  0  0  0  0  0  0  0
    5.5755   66.4875   61.8821 H   0  0  0  0  0  0  0  0  0  0  0  0
    1.9570   68.8299   65.9709 H   0  0  0  0  0  0  0  0  0  0  0  0
    5.9481   71.3084   69.6052 H   0  0  0  0  0  0  0  0  0  0  0  0
    4.3156   70.8684   69.0357 H   0  0  0  0  0  0  0  0  0  0  0  0
    3.2985   68.1398   61.1931 H   0  0  0  0  0  0  0  0  0  0  0  0
    5.7414   70.2030   62.7201 H   0  0  0  0  0  0  0  0  0  0  0  0
    5.0804   66.0591   64.7166 H   0  0  0  0  0  0  0  0  0  0  0  0
    3.6428   64.9772   64.7026 H   0  0  0  0  0  0  0  0  0  0  0  0
    5.6087   63.8780   64.0697 H   0  0  0  0  0  0  0  0  0  0  0  0
  2  1  1  0
  3  2  1  0
  4  3  1  0
  5  4  1  0
  5  1  1  0
  6  3  1  0
  7  6  1  0
  8  7  2  0
  9  8  1  0
 10  9  2  0
 10  6  1  0
 11  9  1  0
 12 11  2  0
 13 11  1  0
 14  5  1  0
 15  4  1  0
 16  1  1  0
 17 16  1  0
  1 18  1  6
  3 19  1  6
  4 20  1  1
  5 21  1  6
  7 22  1  0
 13 23  1  0
 13 24  1  0
 14 25  1  0
 15 26  1  0
 16 27  1  0
 16 28  1  0
 17 29  1  0
M  END
>  <score>  (4) 
-7.048

$$$$
=
     RDKit          3D

 29 30  0  0  0  0  0  0  0  0999 V2000
    3.0280   68.3780   63.2070 C   0  0  1  0  0  0  0  0  0  0  0  0
    2.9650   68.9620   64.5230 O   0  0  0  0  0  0  0  0  0  0  0  0
    2.6080   67.9180   65.4590 C   0  0  2  0  0  0  0  0  0  0  0  0
    2.4170   66.6140   64.6820 C   0  0  1  0  0  0  0  0  0  0  0  0
    3.2210   66.8780   63.4200 C   0  0  2  0  0  0  0  0  0  0  0  0
    1.4060   68.3190   66.1740 N   0  0  0  0  0  0  0  0  0  0  0  0
    1.3320   69.1050   67.2810 C   0  0  0  0  0  0  0  0  0  0  0  0
    0.0780   69.2430   67.6430 N   0  0  0  0  0  0  0  0  0  0  0  0
   -0.6150   68.4950   66.6990 C   0  0  0  0  0  0  0  0  0  0  0  0
    0.1800   67.9050   65.7880 N   0  0  0  0  0  0  0  0  0  0  0  0
   -2.0860   68.3680   66.7190 C   0  0  0  0  0  0  0  0  0  0  0  0
   -2.7280   67.6670   67.4980 O   0  0  0  0  0  0  0  0  0  0  0  0
   -2.7220   69.1230   65.7660 N   0  0  0  0  0  0  0  0  0  0  0  0
    4.5980   66.5740   63.7200 O   0  0  0  0  0  0  0  0  0  0  0  0
    2.9230   65.4760   65.3900 O   0  0  0  0  0  0  0  0  0  0  0  0
    1.7550   68.7130   62.4230 C   0  0  0  0  0  0  0  0  0  0  0  0
    2.0890   69.0640   61.0860 O   0  0  0  0  0  0  0  0  0  0  0  0
    3.8591   68.7759   62.6062 H   0  0  0  0  0  0  0  0  0  0  0  0
    3.3999   67.7552   66.2049 H   0  0  0  0  0  0  0  0  0  0  0  0
    1.3595   66.3707   64.5019 H   0  0  0  0  0  0  0  0  0  0  0  0
    2.9269   66.2914   62.5372 H   0  0  0  0  0  0  0  0  0  0  0  0
    2.1929   69.5569   67.7954 H   0  0  0  0  0  0  0  0  0  0  0  0
   -3.7495   69.1050   65.6960 H   0  0  0  0  0  0  0  0  0  0  0  0
   -2.1720   69.7077   65.1207 H   0  0  0  0  0  0  0  0  0  0  0  0
    4.7235   66.5463   64.7016 H   0  0  0  0  0  0  0  0  0  0  0  0
    2.8521   65.6354   66.3645 H   0  0  0  0  0  0  0  0  0  0  0  0
    1.0902   67.8366   62.4149 H   0  0  0  0  0  0  0  0  0  0  0  0
    1.2458   69.5612   62.9040 H   0  0  0  0  0  0  0  0  0  0  0  0
    2.7714   69.7812   61.0938 H   0  0  0  0  0  0  0  0  0  0  0  0
  2  1  1  0
  3  2  1  0
  4  3  1  0
  5  4  1  0
  5  1  1  0
  6  3  1  0
  7  6  1  0
  8  7  2  0
  9  8  1  0
 10  9  2  0
 10  6  1  0
 11  9  1  0
 12 11  2  0
 13 11  1  0
 14  5  1  0
 15  4  1  0
 16  1  1  0
 17 16  1  0
  1 18  1  6
  3 19  1  1
  4 20  1  6
  5 21  1  6
  7 22  1  0
 13 23  1  0
 13 24  1  0
 14 25  1  0
 15 26  1  0
 16 27  1  0
 16 28  1  0
 17 29  1  0
M  END
>  <score>  (5) 
-6.821

$$$$
=
     RDKit          3D

 29 30  0  0  0  0  0  0  0  0999 V2000
    4.4380   66.9840   62.7320 C   0  0  1  0  0  0  0  0  0  0  0  0
    3.2440   67.7640   62.9370 O   0  0  0  0  0  0  0  0  0  0  0  0
    3.5620   68.8370   63.8550 C   0  0  2  0  0  0  0  0  0  0  0  0
    5.0310   68.7080   64.2610 C   0  0  1  0  0  0  0  0  0  0  0  0
    5.6050   67.8910   63.1150 C   0  0  2  0  0  0  0  0  0  0  0  0
    2.6620   68.7630   64.9960 N   0  0  0  0  0  0  0  0  0  0  0  0
    2.9440   69.0820   66.2870 C   0  0  0  0  0  0  0  0  0  0  0  0
    1.8840   68.8830   67.0330 N   0  0  0  0  0  0  0  0  0  0  0  0
    0.9340   68.4210   66.1300 C   0  0  0  0  0  0  0  0  0  0  0  0
    1.3900   68.3270   64.8680 N   0  0  0  0  0  0  0  0  0  0  0  0
   -0.4380   68.0650   66.5420 C   0  0  0  0  0  0  0  0  0  0  0  0
   -0.8630   66.9210   66.6850 O   0  0  0  0  0  0  0  0  0  0  0  0
   -1.2500   69.1490   66.7680 N   0  0  0  0  0  0  0  0  0  0  0  0
    5.9130   68.8110   62.0480 O   0  0  0  0  0  0  0  0  0  0  0  0
    5.6830   69.9790   64.3680 O   0  0  0  0  0  0  0  0  0  0  0  0
    4.3760   65.7020   63.5680 C   0  0  0  0  0  0  0  0  0  0  0  0
    4.1030   64.5880   62.7250 O   0  0  0  0  0  0  0  0  0  0  0  0
    4.5544   66.6527   61.6896 H   0  0  0  0  0  0  0  0  0  0  0  0
    3.4245   69.8232   63.3876 H   0  0  0  0  0  0  0  0  0  0  0  0
    5.1650   68.2521   65.2531 H   0  0  0  0  0  0  0  0  0  0  0  0
    6.5162   67.3203   63.3474 H   0  0  0  0  0  0  0  0  0  0  0  0
    3.9143   69.4511   66.6508 H   0  0  0  0  0  0  0  0  0  0  0  0
   -2.2276   69.0081   67.0600 H   0  0  0  0  0  0  0  0  0  0  0  0
   -0.8815   70.1030   66.6455 H   0  0  0  0  0  0  0  0  0  0  0  0
    6.2027   69.6764   62.4318 H   0  0  0  0  0  0  0  0  0  0  0  0
    5.8014   70.2098   65.3234 H   0  0  0  0  0  0  0  0  0  0  0  0
    5.3408   65.5491   64.0738 H   0  0  0  0  0  0  0  0  0  0  0  0
    3.5752   65.7954   64.3163 H   0  0  0  0  0  0  0  0  0  0  0  0
    3.9081   63.7929   63.2817 H   0  0  0  0  0  0  0  0  0  0  0  0
  2  1  1  0
  3  2  1  0
  4  3  1  0
  5  4  1  0
  5  1  1  0
  6  3  1  0
  7  6  1  0
  8  7  2  0
  9  8  1  0
 10  9  2  0
 10  6  1  0
 11  9  1  0
 12 11  2  0
 13 11  1  0
 14  5  1  0
 15  4  1  0
 16  1  1  0
 17 16  1  0
  1 18  1  6
  3 19  1  6
  4 20  1  1
  5 21  1  1
  7 22  1  0
 13 23  1  0
 13 24  1  0
 14 25  1  0
 15 26  1  0
 16 27  1  0
 16 28  1  0
 17 29  1  0
M  END
>  <score>  (6) 
-6.79

$$$$
=
     RDKit          3D

 29 30  0  0  0  0  0  0  0  0999 V2000
    5.0110   68.2450   62.9070 C   0  0  1  0  0  0  0  0  0  0  0  0
    4.3490   67.3490   63.8200 O   0  0  0  0  0  0  0  0  0  0  0  0
    2.9240   67.5920   63.7320 C   0  0  2  0  0  0  0  0  0  0  0  0
    2.6860   68.7160   62.7220 C   0  0  1  0  0  0  0  0  0  0  0  0
    3.9550   68.6650   61.8870 C   0  0  2  0  0  0  0  0  0  0  0  0
    2.4200   67.9190   65.0570 N   0  0  0  0  0  0  0  0  0  0  0  0
    1.4360   67.2790   65.7420 C   0  0  0  0  0  0  0  0  0  0  0  0
    1.2540   67.8640   66.9030 N   0  0  0  0  0  0  0  0  0  0  0  0
    2.1780   68.9010   66.8920 C   0  0  0  0  0  0  0  0  0  0  0  0
    2.9040   68.9650   65.7610 N   0  0  0  0  0  0  0  0  0  0  0  0
    2.3270   69.8370   68.0240 C   0  0  0  0  0  0  0  0  0  0  0  0
    3.3760   70.0700   68.6200 O   0  0  0  0  0  0  0  0  0  0  0  0
    1.1610   70.4640   68.3840 N   0  0  0  0  0  0  0  0  0  0  0  0
    3.7670   67.6400   60.8900 O   0  0  0  0  0  0  0  0  0  0  0  0
    1.5250   68.4890   61.9150 O   0  0  0  0  0  0  0  0  0  0  0  0
    5.6070   69.4300   63.6740 C   0  0  0  0  0  0  0  0  0  0  0  0
    5.8810   69.0470   65.0170 O   0  0  0  0  0  0  0  0  0  0  0  0
    5.8578   67.7713   62.3887 H   0  0  0  0  0  0  0  0  0  0  0  0
    2.3818   66.7013   63.3818 H   0  0  0  0  0  0  0  0  0  0  0  0
    2.4972   69.6897   63.1976 H   0  0  0  0  0  0  0  0  0  0  0  0
    4.2234   69.5987   61.3712 H   0  0  0  0  0  0  0  0  0  0  0  0
    0.8771   66.4039   65.3788 H   0  0  0  0  0  0  0  0  0  0  0  0
    1.1577   71.1373   69.1635 H   0  0  0  0  0  0  0  0  0  0  0  0
    0.2889   70.2615   67.8748 H   0  0  0  0  0  0  0  0  0  0  0  0
    3.6076   66.7708   61.3363 H   0  0  0  0  0  0  0  0  0  0  0  0
    0.7412   68.3358   62.5001 H   0  0  0  0  0  0  0  0  0  0  0  0
    6.5409   69.7475   63.1871 H   0  0  0  0  0  0  0  0  0  0  0  0
    4.8871   70.2617   63.6735 H   0  0  0  0  0  0  0  0  0  0  0  0
    5.4320   69.6746   65.6373 H   0  0  0  0  0  0  0  0  0  0  0  0
  2  1  1  0
  3  2  1  0
  4  3  1  0
  5  4  1  0
  5  1  1  0
  6  3  1  0
  7  6  1  0
  8  7  2  0
  9  8  1  0
 10  9  2  0
 10  6  1  0
 11  9  1  0
 12 11  2  0
 13 11  1  0
 14  5  1  0
 15  4  1  0
 16  1  1  0
 17 16  1  0
  1 18  1  6
  3 19  1  6
  4 20  1  1
  5 21  1  6
  7 22  1  0
 13 23  1  0
 13 24  1  0
 14 25  1  0
 15 26  1  0
 16 27  1  0
 16 28  1  0
 17 29  1  0
M  END
>  <score>  (7) 
-6.729

$$$$
=
     RDKit          3D

 29 30  0  0  0  0  0  0  0  0999 V2000
    4.8710   68.2470   63.4270 C   0  0  1  0  0  0  0  0  0  0  0  0
    4.0060   67.4070   64.2170 O   0  0  0  0  0  0  0  0  0  0  0  0
    2.6470   67.6160   63.7670 C   0  0  2  0  0  0  0  0  0  0  0  0
    2.6610   68.6590   62.6470 C   0  0  1  0  0  0  0  0  0  0  0  0
    4.0950   68.5720   62.1530 C   0  0  2  0  0  0  0  0  0  0  0  0
    1.8340   68.0300   64.9010 N   0  0  0  0  0  0  0  0  0  0  0  0
    2.2600   68.6500   66.0330 C   0  0  0  0  0  0  0  0  0  0  0  0
    1.2400   68.8610   66.8310 N   0  0  0  0  0  0  0  0  0  0  0  0
    0.1630   68.3330   66.1290 C   0  0  0  0  0  0  0  0  0  0  0  0
    0.5040   67.8040   64.9390 N   0  0  0  0  0  0  0  0  0  0  0  0
   -1.2130   68.3550   66.6610 C   0  0  0  0  0  0  0  0  0  0  0  0
   -1.7420   67.4500   67.3020 O   0  0  0  0  0  0  0  0  0  0  0  0
   -1.8990   69.5110   66.3810 N   0  0  0  0  0  0  0  0  0  0  0  0
    4.1570   67.4740   61.2190 O   0  0  0  0  0  0  0  0  0  0  0  0
    1.7330   68.3530   61.6020 O   0  0  0  0  0  0  0  0  0  0  0  0
    5.2610   69.4950   64.2250 C   0  0  0  0  0  0  0  0  0  0  0  0
    5.9770   69.1160   65.3950 O   0  0  0  0  0  0  0  0  0  0  0  0
    5.8188   67.7531   63.1666 H   0  0  0  0  0  0  0  0  0  0  0  0
    2.2082   66.6915   63.3636 H   0  0  0  0  0  0  0  0  0  0  0  0
    2.3601   69.6608   62.9875 H   0  0  0  0  0  0  0  0  0  0  0  0
    4.4803   69.4714   61.6503 H   0  0  0  0  0  0  0  0  0  0  0  0
    3.3014   68.9320   66.2475 H   0  0  0  0  0  0  0  0  0  0  0  0
   -2.8688   69.6265   66.7083 H   0  0  0  0  0  0  0  0  0  0  0  0
   -1.4438   70.2627   65.8436 H   0  0  0  0  0  0  0  0  0  0  0  0
    4.2052   66.6196   61.7168 H   0  0  0  0  0  0  0  0  0  0  0  0
    0.8715   68.0689   61.9985 H   0  0  0  0  0  0  0  0  0  0  0  0
    5.8957   70.1427   63.6024 H   0  0  0  0  0  0  0  0  0  0  0  0
    4.3501   70.0381   64.5171 H   0  0  0  0  0  0  0  0  0  0  0  0
    5.4648   69.3871   66.1977 H   0  0  0  0  0  0  0  0  0  0  0  0
  2  1  1  0
  3  2  1  0
  4  3  1  0
  5  4  1  0
  5  1  1  0
  6  3  1  0
  7  6  1  0
  8  7  2  0
  9  8  1  0
 10  9  2  0
 10  6  1  0
 11  9  1  0
 12 11  2  0
 13 11  1  0
 14  5  1  0
 15  4  1  0
 16  1  1  0
 17 16  1  0
  1 18  1  6
  3 19  1  6
  4 20  1  1
  5 21  1  6
  7 22  1  0
 13 23  1  0
 13 24  1  0
 14 25  1  0
 15 26  1  0
 16 27  1  0
 16 28  1  0
 17 29  1  0
M  END
>  <score>  (8) 
-6.689

$$$$
=
     RDKit          3D

 29 30  0  0  0  0  0  0  0  0999 V2000
    0.7030   68.5390   68.0470 C   0  0  1  0  0  0  0  0  0  0  0  0
    1.7460   68.9550   67.1440 O   0  0  0  0  0  0  0  0  0  0  0  0
    1.3090   68.6720   65.7940 C   0  0  2  0  0  0  0  0  0  0  0  0
   -0.0760   68.0240   65.8580 C   0  0  1  0  0  0  0  0  0  0  0  0
   -0.5770   68.4850   67.2150 C   0  0  2  0  0  0  0  0  0  0  0  0
    2.2940   67.8150   65.1510 N   0  0  0  0  0  0  0  0  0  0  0  0
    3.3500   68.2060   64.3890 C   0  0  0  0  0  0  0  0  0  0  0  0
    4.0130   67.1500   63.9780 N   0  0  0  0  0  0  0  0  0  0  0  0
    3.3040   66.0880   64.5270 C   0  0  0  0  0  0  0  0  0  0  0  0
    2.2330   66.4700   65.2460 N   0  0  0  0  0  0  0  0  0  0  0  0
    3.7030   64.6830   64.3200 C   0  0  0  0  0  0  0  0  0  0  0  0
    4.1570   64.2190   63.2760 O   0  0  0  0  0  0  0  0  0  0  0  0
    3.5300   63.8870   65.4240 N   0  0  0  0  0  0  0  0  0  0  0  0
   -1.1310   69.8050   67.0390 O   0  0  0  0  0  0  0  0  0  0  0  0
   -0.9380   68.4720   64.8060 O   0  0  0  0  0  0  0  0  0  0  0  0
    1.0630   67.1910   68.6780 C   0  0  0  0  0  0  0  0  0  0  0  0
   -0.1130   66.4100   68.8550 O   0  0  0  0  0  0  0  0  0  0  0  0
    0.5688   69.2342   68.8889 H   0  0  0  0  0  0  0  0  0  0  0  0
    1.2259   69.5905   65.1945 H   0  0  0  0  0  0  0  0  0  0  0  0
   -0.0476   66.9313   65.7347 H   0  0  0  0  0  0  0  0  0  0  0  0
   -1.3467   67.8498   67.6777 H   0  0  0  0  0  0  0  0  0  0  0  0
    3.6094   69.2486   64.1528 H   0  0  0  0  0  0  0  0  0  0  0  0
    3.7789   62.8884   65.3830 H   0  0  0  0  0  0  0  0  0  0  0  0
    3.1512   64.2880   66.2938 H   0  0  0  0  0  0  0  0  0  0  0  0
   -1.3018   70.2120   67.9251 H   0  0  0  0  0  0  0  0  0  0  0  0
   -1.7451   68.8915   65.1968 H   0  0  0  0  0  0  0  0  0  0  0  0
    1.7614   66.6546   68.0188 H   0  0  0  0  0  0  0  0  0  0  0  0
    1.5341   67.3635   69.6570 H   0  0  0  0  0  0  0  0  0  0  0  0
   -0.2890   66.2931   69.8222 H   0  0  0  0  0  0  0  0  0  0  0  0
  2  1  1  0
  3  2  1  0
  4  3  1  0
  5  4  1  0
  5  1  1  0
  6  3  1  0
  7  6  1  0
  8  7  2  0
  9  8  1  0
 10  9  2  0
 10  6  1  0
 11  9  1  0
 12 11  2  0
 13 11  1  0
 14  5  1  0
 15  4  1  0
 16  1  1  0
 17 16  1  0
  1 18  1  1
  3 19  1  6
  4 20  1  1
  5 21  1  1
  7 22  1  0
 13 23  1  0
 13 24  1  0
 14 25  1  0
 15 26  1  0
 16 27  1  0
 16 28  1  0
 17 29  1  0
M  END
>  <score>  (9) 
-6.621

$$$$
