=
     RDKit          3D

 58 61  0  0  0  0  0  0  0  0999 V2000
    0.3750   65.8870   69.5770 N   0  0  0  0  0  4  0  0  0  0  0  0
    0.0520   66.0170   71.0560 C   0  0  0  0  0  0  0  0  0  0  0  0
    0.1570   64.6500   71.7850 C   0  0  0  0  0  0  0  0  0  0  0  0
    1.1890   63.7040   71.1510 N   0  0  0  0  0  4  0  0  0  0  0  0
    2.3200   64.4690   70.4660 C   0  0  0  0  0  0  0  0  0  0  0  0
    1.7910   65.3700   69.3190 C   0  0  0  0  0  0  0  0  0  0  0  0
    0.0580   67.1490   68.7800 C   0  0  0  0  0  0  0  0  0  0  0  0
    1.8440   68.7240   68.0080 C   0  0  0  0  0  0  0  0  0  0  0  0
    1.1500   67.5830   67.8610 C   0  0  0  0  0  0  0  0  0  0  0  0
    5.0670   69.8180   65.4120 C   0  0  0  0  0  0  0  0  0  0  0  0
    3.9650   69.1190   64.9250 C   0  0  0  0  0  0  0  0  0  0  0  0
    2.9190   68.7770   65.7840 C   0  0  0  0  0  0  0  0  0  0  0  0
    2.9560   69.1380   67.1390 C   0  0  0  0  0  0  0  0  0  0  0  0
    4.0790   69.8280   67.6180 C   0  0  0  0  0  0  0  0  0  0  0  0
    5.1260   70.1710   66.7570 C   0  0  0  0  0  0  0  0  0  0  0  0
    1.7250   62.6710   72.1860 C   0  0  0  0  0  0  0  0  0  0  0  0
    2.9780   61.9520   71.7060 C   0  0  0  0  0  0  0  0  0  0  0  0
    2.9640   61.3120   70.4530 C   0  0  0  0  0  0  0  0  0  0  0  0
    4.0830   60.6180   69.9910 C   0  0  0  0  0  0  0  0  0  0  0  0
    5.2350   60.5580   70.7680 C   0  0  0  0  0  0  0  0  0  0  0  0
    5.2740   61.1960   72.0030 C   0  0  0  0  0  0  0  0  0  0  0  0
    4.1570   61.8910   72.4720 C   0  0  0  0  0  0  0  0  0  0  0  0
    0.6430   61.7180   72.6780 C   0  0  0  0  0  0  0  0  0  0  0  0
    1.0040   60.4140   73.0660 C   0  0  0  0  0  0  0  0  0  0  0  0
    0.0460   59.5200   73.5470 C   0  0  0  0  0  0  0  0  0  0  0  0
   -1.2860   59.9100   73.6410 C   0  0  0  0  0  0  0  0  0  0  0  0
   -1.6650   61.1890   73.2470 C   0  0  0  0  0  0  0  0  0  0  0  0
   -0.7110   62.0890   72.7670 C   0  0  0  0  0  0  0  0  0  0  0  0
   -0.2633   65.1615   69.2205 H   0  0  0  0  0  0  0  0  0  0  0  0
    0.7601   66.7223   71.5156 H   0  0  0  0  0  0  0  0  0  0  0  0
   -0.9818   66.3804   71.1523 H   0  0  0  0  0  0  0  0  0  0  0  0
    0.4459   64.8326   72.8306 H   0  0  0  0  0  0  0  0  0  0  0  0
   -0.8255   64.1616   71.7073 H   0  0  0  0  0  0  0  0  0  0  0  0
    0.7045   63.1726   70.4136 H   0  0  0  0  0  0  0  0  0  0  0  0
    2.8256   65.1007   71.2112 H   0  0  0  0  0  0  0  0  0  0  0  0
    3.0165   63.7361   70.0328 H   0  0  0  0  0  0  0  0  0  0  0  0
    2.4655   66.2320   69.2096 H   0  0  0  0  0  0  0  0  0  0  0  0
    1.7591   64.7585   68.4052 H   0  0  0  0  0  0  0  0  0  0  0  0
   -0.8437   66.9599   68.1790 H   0  0  0  0  0  0  0  0  0  0  0  0
   -0.0792   67.9586   69.5119 H   0  0  0  0  0  0  0  0  0  0  0  0
    1.5615   69.3935   68.8338 H   0  0  0  0  0  0  0  0  0  0  0  0
    1.4020   66.9300   67.0125 H   0  0  0  0  0  0  0  0  0  0  0  0
    5.8896   70.0907   64.7345 H   0  0  0  0  0  0  0  0  0  0  0  0
    3.9189   68.8363   63.8629 H   0  0  0  0  0  0  0  0  0  0  0  0
    2.0558   68.2179   65.3937 H   0  0  0  0  0  0  0  0  0  0  0  0
    4.1368   70.1021   68.6817 H   0  0  0  0  0  0  0  0  0  0  0  0
    5.9972   70.7204   67.1431 H   0  0  0  0  0  0  0  0  0  0  0  0
    2.0349   63.2533   73.0663 H   0  0  0  0  0  0  0  0  0  0  0  0
    2.0591   61.3594   69.8294 H   0  0  0  0  0  0  0  0  0  0  0  0
    4.0540   60.1180   69.0116 H   0  0  0  0  0  0  0  0  0  0  0  0
    6.1149   60.0061   70.4058 H   0  0  0  0  0  0  0  0  0  0  0  0
    6.1883   61.1531   72.6130 H   0  0  0  0  0  0  0  0  0  0  0  0
    4.1992   62.3952   73.4488 H   0  0  0  0  0  0  0  0  0  0  0  0
    2.0541   60.0955   72.9892 H   0  0  0  0  0  0  0  0  0  0  0  0
    0.3446   58.5062   73.8520 H   0  0  0  0  0  0  0  0  0  0  0  0
   -2.0392   59.2072   74.0267 H   0  0  0  0  0  0  0  0  0  0  0  0
   -2.7201   61.4928   73.3137 H   0  0  0  0  0  0  0  0  0  0  0  0
   -1.0213   63.0974   72.4556 H   0  0  0  0  0  0  0  0  0  0  0  0
  2  1  1  0
  3  2  1  0
  4  3  1  0
  5  4  1  0
  6  5  1  0
  6  1  1  0
  7  1  1  0
  9  8  2  0
  9  7  1  0
 11 10  2  0
 12 11  1  0
 13 12  2  0
 13  8  1  0
 14 13  1  0
 15 14  2  0
 15 10  1  0
 16  4  1  0
 17 16  1  0
 18 17  2  0
 19 18  1  0
 20 19  2  0
 21 20  1  0
 22 21  2  0
 22 17  1  0
 23 16  1  0
 24 23  2  0
 25 24  1  0
 26 25  2  0
 27 26  1  0
 28 27  2  0
 28 23  1  0
  1 29  1  0
  2 30  1  0
  2 31  1  0
  3 32  1  0
  3 33  1  0
  4 34  1  0
  5 35  1  0
  5 36  1  0
  6 37  1  0
  6 38  1  0
  7 39  1  0
  7 40  1  0
  8 41  1  0
  9 42  1  0
 10 43  1  0
 11 44  1  0
 12 45  1  0
 14 46  1  0
 15 47  1  0
 16 48  1  0
 18 49  1  0
 19 50  1  0
 20 51  1  0
 21 52  1  0
 22 53  1  0
 24 54  1  0
 25 55  1  0
 26 56  1  0
 27 57  1  0
 28 58  1  0
M  CHG  2   1   1   4   1
M  END
>  <score>  (1) 
-10.405

$$$$
=
     RDKit          3D

 58 61  0  0  0  0  0  0  0  0999 V2000
    0.4420   67.0360   68.0280 N   0  0  0  0  0  4  0  0  0  0  0  0
    1.1510   68.1640   68.7580 C   0  0  0  0  0  0  0  0  0  0  0  0
    2.4720   68.5640   68.0450 C   0  0  0  0  0  0  0  0  0  0  0  0
    2.4310   68.3400   66.5260 N   0  0  0  0  0  4  0  0  0  0  0  0
    1.0140   68.4580   65.9680 C   0  0  0  0  0  0  0  0  0  0  0  0
    0.0620   67.4020   66.5920 C   0  0  0  0  0  0  0  0  0  0  0  0
   -0.7290   66.4550   68.8130 C   0  0  0  0  0  0  0  0  0  0  0  0
    0.5570   64.7470   70.1160 C   0  0  0  0  0  0  0  0  0  0  0  0
   -0.3340   65.7520   70.0680 C   0  0  0  0  0  0  0  0  0  0  0  0
    1.8670   62.7070   73.6440 C   0  0  0  0  0  0  0  0  0  0  0  0
    2.5770   62.5980   72.4520 C   0  0  0  0  0  0  0  0  0  0  0  0
    2.1410   63.2760   71.3120 C   0  0  0  0  0  0  0  0  0  0  0  0
    0.9930   64.0810   71.3530 C   0  0  0  0  0  0  0  0  0  0  0  0
    0.2780   64.1690   72.5560 C   0  0  0  0  0  0  0  0  0  0  0  0
    0.7160   63.4900   73.6970 C   0  0  0  0  0  0  0  0  0  0  0  0
    3.4320   69.2750   65.7850 C   0  0  0  0  0  0  0  0  0  0  0  0
    4.0000   68.6470   64.5200 C   0  0  0  0  0  0  0  0  0  0  0  0
    3.8550   67.2610   64.3190 C   0  0  0  0  0  0  0  0  0  0  0  0
    4.3880   66.6440   63.1860 C   0  0  0  0  0  0  0  0  0  0  0  0
    5.0650   67.3990   62.2340 C   0  0  0  0  0  0  0  0  0  0  0  0
    5.2050   68.7720   62.4070 C   0  0  0  0  0  0  0  0  0  0  0  0
    4.6770   69.3960   63.5400 C   0  0  0  0  0  0  0  0  0  0  0  0
    4.5080   69.8330   66.7070 C   0  0  0  0  0  0  0  0  0  0  0  0
    4.1230   70.4780   67.8970 C   0  0  0  0  0  0  0  0  0  0  0  0
    5.0790   70.9790   68.7810 C   0  0  0  0  0  0  0  0  0  0  0  0
    6.4340   70.8510   68.4890 C   0  0  0  0  0  0  0  0  0  0  0  0
    6.8340   70.2300   67.3090 C   0  0  0  0  0  0  0  0  0  0  0  0
    5.8810   69.7250   66.4220 C   0  0  0  0  0  0  0  0  0  0  0  0
    1.1356   66.2779   67.9565 H   0  0  0  0  0  0  0  0  0  0  0  0
    0.4858   69.0393   68.7948 H   0  0  0  0  0  0  0  0  0  0  0  0
    1.3984   67.8163   69.7719 H   0  0  0  0  0  0  0  0  0  0  0  0
    2.6636   69.6302   68.2362 H   0  0  0  0  0  0  0  0  0  0  0  0
    3.2689   67.9223   68.4489 H   0  0  0  0  0  0  0  0  0  0  0  0
    2.7348   67.3713   66.3521 H   0  0  0  0  0  0  0  0  0  0  0  0
    0.6260   69.4631   66.1897 H   0  0  0  0  0  0  0  0  0  0  0  0
    1.0568   68.2828   64.8829 H   0  0  0  0  0  0  0  0  0  0  0  0
   -0.9607   67.8070   66.5915 H   0  0  0  0  0  0  0  0  0  0  0  0
    0.1391   66.4874   65.9857 H   0  0  0  0  0  0  0  0  0  0  0  0
   -1.4092   67.2779   69.0778 H   0  0  0  0  0  0  0  0  0  0  0  0
   -1.2026   65.7031   68.1647 H   0  0  0  0  0  0  0  0  0  0  0  0
    0.9894   64.3990   69.1663 H   0  0  0  0  0  0  0  0  0  0  0  0
   -0.7998   66.0755   71.0105 H   0  0  0  0  0  0  0  0  0  0  0  0
    2.2140   62.1759   74.5426 H   0  0  0  0  0  0  0  0  0  0  0  0
    3.4835   61.9764   72.4079 H   0  0  0  0  0  0  0  0  0  0  0  0
    2.7036   63.1779   70.3719 H   0  0  0  0  0  0  0  0  0  0  0  0
   -0.6366   64.7783   72.6025 H   0  0  0  0  0  0  0  0  0  0  0  0
    0.1513   63.5741   74.6373 H   0  0  0  0  0  0  0  0  0  0  0  0
    2.8455   70.1429   65.4491 H   0  0  0  0  0  0  0  0  0  0  0  0
    3.3154   66.6573   65.0635 H   0  0  0  0  0  0  0  0  0  0  0  0
    4.2725   65.5591   63.0458 H   0  0  0  0  0  0  0  0  0  0  0  0
    5.4895   66.9104   61.3446 H   0  0  0  0  0  0  0  0  0  0  0  0
    5.7334   69.3687   61.6489 H   0  0  0  0  0  0  0  0  0  0  0  0
    4.7916   70.4826   63.6671 H   0  0  0  0  0  0  0  0  0  0  0  0
    3.0544   70.5886   68.1333 H   0  0  0  0  0  0  0  0  0  0  0  0
    4.7617   71.4757   69.7098 H   0  0  0  0  0  0  0  0  0  0  0  0
    7.1876   71.2400   69.1896 H   0  0  0  0  0  0  0  0  0  0  0  0
    7.9047   70.1368   67.0745 H   0  0  0  0  0  0  0  0  0  0  0  0
    6.2074   69.2380   65.4913 H   0  0  0  0  0  0  0  0  0  0  0  0
  2  1  1  0
  3  2  1  0
  4  3  1  0
  5  4  1  0
  6  5  1  0
  6  1  1  0
  7  1  1  0
  9  8  2  0
  9  7  1  0
 11 10  2  0
 12 11  1  0
 13 12  2  0
 13  8  1  0
 14 13  1  0
 15 14  2  0
 15 10  1  0
 16  4  1  0
 17 16  1  0
 18 17  2  0
 19 18  1  0
 20 19  2  0
 21 20  1  0
 22 21  2  0
 22 17  1  0
 23 16  1  0
 24 23  2  0
 25 24  1  0
 26 25  2  0
 27 26  1  0
 28 27  2  0
 28 23  1  0
  1 29  1  0
  2 30  1  0
  2 31  1  0
  3 32  1  0
  3 33  1  0
  4 34  1  0
  5 35  1  0
  5 36  1  0
  6 37  1  0
  6 38  1  0
  7 39  1  0
  7 40  1  0
  8 41  1  0
  9 42  1  0
 10 43  1  0
 11 44  1  0
 12 45  1  0
 14 46  1  0
 15 47  1  0
 16 48  1  0
 18 49  1  0
 19 50  1  0
 20 51  1  0
 21 52  1  0
 22 53  1  0
 24 54  1  0
 25 55  1  0
 26 56  1  0
 27 57  1  0
 28 58  1  0
M  CHG  2   1   1   4   1
M  END
>  <score>  (2) 
-10.394

$$$$
=
     RDKit          3D

 58 61  0  0  0  0  0  0  0  0999 V2000
    0.3660   65.5690   69.4870 N   0  0  0  0  0  4  0  0  0  0  0  0
    1.2440   66.6420   70.1080 C   0  0  0  0  0  0  0  0  0  0  0  0
    1.9040   67.5380   69.0250 C   0  0  0  0  0  0  0  0  0  0  0  0
    1.0530   67.6740   67.7530 N   0  0  0  0  0  4  0  0  0  0  0  0
   -0.4400   67.5330   68.0450 C   0  0  0  0  0  0  0  0  0  0  0  0
   -0.7780   66.1450   68.6520 C   0  0  0  0  0  0  0  0  0  0  0  0
   -0.1110   64.5260   70.4930 C   0  0  0  0  0  0  0  0  0  0  0  0
    1.8230   62.9700   70.1710 C   0  0  0  0  0  0  0  0  0  0  0  0
    0.9610   63.6100   70.9790 C   0  0  0  0  0  0  0  0  0  0  0  0
    5.0880   60.5250   71.4680 C   0  0  0  0  0  0  0  0  0  0  0  0
    5.2510   61.8960   71.2910 C   0  0  0  0  0  0  0  0  0  0  0  0
    4.1730   62.6800   70.8750 C   0  0  0  0  0  0  0  0  0  0  0  0
    2.9160   62.1040   70.6400 C   0  0  0  0  0  0  0  0  0  0  0  0
    2.7710   60.7200   70.8080 C   0  0  0  0  0  0  0  0  0  0  0  0
    3.8500   59.9350   71.2250 C   0  0  0  0  0  0  0  0  0  0  0  0
    1.3790   68.9900   66.9870 C   0  0  0  0  0  0  0  0  0  0  0  0
    1.2710   68.8360   65.4770 C   0  0  0  0  0  0  0  0  0  0  0  0
    2.4050   68.4330   64.7470 C   0  0  0  0  0  0  0  0  0  0  0  0
    2.3540   68.3080   63.3580 C   0  0  0  0  0  0  0  0  0  0  0  0
    1.1710   68.5770   62.6760 C   0  0  0  0  0  0  0  0  0  0  0  0
    0.0350   68.9620   63.3820 C   0  0  0  0  0  0  0  0  0  0  0  0
    0.0800   69.0910   64.7720 C   0  0  0  0  0  0  0  0  0  0  0  0
    2.6940   69.6170   67.4300 C   0  0  0  0  0  0  0  0  0  0  0  0
    2.7190   70.4100   68.5920 C   0  0  0  0  0  0  0  0  0  0  0  0
    3.9100   70.9790   69.0440 C   0  0  0  0  0  0  0  0  0  0  0  0
    5.0930   70.7720   68.3410 C   0  0  0  0  0  0  0  0  0  0  0  0
    5.0860   70.0040   67.1800 C   0  0  0  0  0  0  0  0  0  0  0  0
    3.8970   69.4300   66.7240 C   0  0  0  0  0  0  0  0  0  0  0  0
    0.9759   65.0647   68.8277 H   0  0  0  0  0  0  0  0  0  0  0  0
    0.6267   67.2722   70.7651 H   0  0  0  0  0  0  0  0  0  0  0  0
    2.0433   66.1454   70.6776 H   0  0  0  0  0  0  0  0  0  0  0  0
    2.0620   68.5406   69.4491 H   0  0  0  0  0  0  0  0  0  0  0  0
    2.8508   67.0586   68.7358 H   0  0  0  0  0  0  0  0  0  0  0  0
    1.3050   66.8917   67.1322 H   0  0  0  0  0  0  0  0  0  0  0  0
   -0.7394   68.3160   68.7573 H   0  0  0  0  0  0  0  0  0  0  0  0
   -0.9860   67.6340   67.0954 H   0  0  0  0  0  0  0  0  0  0  0  0
   -1.6646   66.2490   69.2948 H   0  0  0  0  0  0  0  0  0  0  0  0
   -0.9589   65.4532   67.8162 H   0  0  0  0  0  0  0  0  0  0  0  0
   -0.5346   65.0524   71.3610 H   0  0  0  0  0  0  0  0  0  0  0  0
   -0.8500   63.8994   69.9722 H   0  0  0  0  0  0  0  0  0  0  0  0
    1.7034   63.1025   69.0856 H   0  0  0  0  0  0  0  0  0  0  0  0
    1.0513   63.4488   72.0634 H   0  0  0  0  0  0  0  0  0  0  0  0
    5.9362   59.9081   71.7995 H   0  0  0  0  0  0  0  0  0  0  0  0
    6.2295   62.3621   71.4789 H   0  0  0  0  0  0  0  0  0  0  0  0
    4.3112   63.7616   70.7300 H   0  0  0  0  0  0  0  0  0  0  0  0
    1.7981   60.2466   70.6097 H   0  0  0  0  0  0  0  0  0  0  0  0
    3.7212   58.8511   71.3612 H   0  0  0  0  0  0  0  0  0  0  0  0
    0.5951   69.7084   67.2686 H   0  0  0  0  0  0  0  0  0  0  0  0
    3.3431   68.2139   65.2780 H   0  0  0  0  0  0  0  0  0  0  0  0
    3.2501   67.9964   62.8014 H   0  0  0  0  0  0  0  0  0  0  0  0
    1.1339   68.4855   61.5804 H   0  0  0  0  0  0  0  0  0  0  0  0
   -0.9021   69.1655   62.8431 H   0  0  0  0  0  0  0  0  0  0  0  0
   -0.8237   69.3947   65.3207 H   0  0  0  0  0  0  0  0  0  0  0  0
    1.7877   70.5835   69.1511 H   0  0  0  0  0  0  0  0  0  0  0  0
    3.9139   71.5921   69.9573 H   0  0  0  0  0  0  0  0  0  0  0  0
    6.0328   71.2149   68.7024 H   0  0  0  0  0  0  0  0  0  0  0  0
    6.0199   69.8486   66.6198 H   0  0  0  0  0  0  0  0  0  0  0  0
    3.9010   68.8262   65.8045 H   0  0  0  0  0  0  0  0  0  0  0  0
  2  1  1  0
  3  2  1  0
  4  3  1  0
  5  4  1  0
  6  5  1  0
  6  1  1  0
  7  1  1  0
  9  8  2  0
  9  7  1  0
 11 10  2  0
 12 11  1  0
 13 12  2  0
 13  8  1  0
 14 13  1  0
 15 14  2  0
 15 10  1  0
 16  4  1  0
 17 16  1  0
 18 17  2  0
 19 18  1  0
 20 19  2  0
 21 20  1  0
 22 21  2  0
 22 17  1  0
 23 16  1  0
 24 23  2  0
 25 24  1  0
 26 25  2  0
 27 26  1  0
 28 27  2  0
 28 23  1  0
  1 29  1  0
  2 30  1  0
  2 31  1  0
  3 32  1  0
  3 33  1  0
  4 34  1  0
  5 35  1  0
  5 36  1  0
  6 37  1  0
  6 38  1  0
  7 39  1  0
  7 40  1  0
  8 41  1  0
  9 42  1  0
 10 43  1  0
 11 44  1  0
 12 45  1  0
 14 46  1  0
 15 47  1  0
 16 48  1  0
 18 49  1  0
 19 50  1  0
 20 51  1  0
 21 52  1  0
 22 53  1  0
 24 54  1  0
 25 55  1  0
 26 56  1  0
 27 57  1  0
 28 58  1  0
M  CHG  2   1   1   4   1
M  END
>  <score>  (3) 
-10.3

$$$$
=
     RDKit          3D

 58 61  0  0  0  0  0  0  0  0999 V2000
    0.7940   66.1280   69.0920 N   0  0  0  0  0  4  0  0  0  0  0  0
   -0.3400   65.7020   70.0090 C   0  0  0  0  0  0  0  0  0  0  0  0
   -0.3100   64.1740   70.2830 C   0  0  0  0  0  0  0  0  0  0  0  0
    1.1070   63.5800   70.2410 N   0  0  0  0  0  4  0  0  0  0  0  0
    2.1680   64.6060   70.6350 C   0  0  0  0  0  0  0  0  0  0  0  0
    2.1760   65.8230   69.6720 C   0  0  0  0  0  0  0  0  0  0  0  0
    0.6670   67.5690   68.6080 C   0  0  0  0  0  0  0  0  0  0  0  0
    2.4590   69.3020   68.3840 C   0  0  0  0  0  0  0  0  0  0  0  0
    1.9170   68.1280   68.0170 C   0  0  0  0  0  0  0  0  0  0  0  0
    6.1380   70.7570   66.7490 C   0  0  0  0  0  0  0  0  0  0  0  0
    5.2780   69.9740   65.9840 C   0  0  0  0  0  0  0  0  0  0  0  0
    4.0790   69.5130   66.5300 C   0  0  0  0  0  0  0  0  0  0  0  0
    3.7180   69.8400   67.8460 C   0  0  0  0  0  0  0  0  0  0  0  0
    4.6010   70.6170   68.6100 C   0  0  0  0  0  0  0  0  0  0  0  0
    5.8020   71.0780   68.0620 C   0  0  0  0  0  0  0  0  0  0  0  0
    1.2040   62.2800   71.0930 C   0  0  0  0  0  0  0  0  0  0  0  0
    0.4860   62.3960   72.4300 C   0  0  0  0  0  0  0  0  0  0  0  0
    0.8590   63.4190   73.3230 C   0  0  0  0  0  0  0  0  0  0  0  0
    0.2440   63.5390   74.5690 C   0  0  0  0  0  0  0  0  0  0  0  0
   -0.7570   62.6490   74.9420 C   0  0  0  0  0  0  0  0  0  0  0  0
   -1.1510   61.6410   74.0680 C   0  0  0  0  0  0  0  0  0  0  0  0
   -0.5380   61.5120   72.8190 C   0  0  0  0  0  0  0  0  0  0  0  0
    2.6340   61.7720   71.2280 C   0  0  0  0  0  0  0  0  0  0  0  0
    3.2900   61.2640   70.0920 C   0  0  0  0  0  0  0  0  0  0  0  0
    4.6090   60.8140   70.1690 C   0  0  0  0  0  0  0  0  0  0  0  0
    5.2900   60.8570   71.3810 C   0  0  0  0  0  0  0  0  0  0  0  0
    4.6530   61.3410   72.5190 C   0  0  0  0  0  0  0  0  0  0  0  0
    3.3340   61.7950   72.4480 C   0  0  0  0  0  0  0  0  0  0  0  0
    0.7006   65.5406   68.2511 H   0  0  0  0  0  0  0  0  0  0  0  0
   -0.2466   66.2380   70.9650 H   0  0  0  0  0  0  0  0  0  0  0  0
   -1.2921   65.9443   69.5142 H   0  0  0  0  0  0  0  0  0  0  0  0
   -0.7375   63.9889   71.2795 H   0  0  0  0  0  0  0  0  0  0  0  0
   -0.8927   63.6872   69.4870 H   0  0  0  0  0  0  0  0  0  0  0  0
    1.3008   63.3178   69.2640 H   0  0  0  0  0  0  0  0  0  0  0  0
    1.9596   64.9603   71.6553 H   0  0  0  0  0  0  0  0  0  0  0  0
    3.1528   64.1190   70.5799 H   0  0  0  0  0  0  0  0  0  0  0  0
    2.5281   66.7064   70.2248 H   0  0  0  0  0  0  0  0  0  0  0  0
    2.8412   65.5762   68.8314 H   0  0  0  0  0  0  0  0  0  0  0  0
   -0.1232   67.6078   67.8438 H   0  0  0  0  0  0  0  0  0  0  0  0
    0.4349   68.1802   69.4926 H   0  0  0  0  0  0  0  0  0  0  0  0
    1.9254   69.9005   69.1370 H   0  0  0  0  0  0  0  0  0  0  0  0
    2.4253   67.5452   67.2347 H   0  0  0  0  0  0  0  0  0  0  0  0
    7.0816   71.1217   66.3171 H   0  0  0  0  0  0  0  0  0  0  0  0
    5.5438   69.7182   64.9477 H   0  0  0  0  0  0  0  0  0  0  0  0
    3.4098   68.8865   65.9220 H   0  0  0  0  0  0  0  0  0  0  0  0
    4.3462   70.8662   69.6507 H   0  0  0  0  0  0  0  0  0  0  0  0
    6.4819   71.6946   68.6683 H   0  0  0  0  0  0  0  0  0  0  0  0
    0.6618   61.5059   70.5301 H   0  0  0  0  0  0  0  0  0  0  0  0
    1.6451   64.1322   73.0343 H   0  0  0  0  0  0  0  0  0  0  0  0
    0.5515   64.3394   75.2581 H   0  0  0  0  0  0  0  0  0  0  0  0
   -1.2370   62.7419   75.9274 H   0  0  0  0  0  0  0  0  0  0  0  0
   -1.9485   60.9425   74.3614 H   0  0  0  0  0  0  0  0  0  0  0  0
   -0.8583   60.7131   72.1341 H   0  0  0  0  0  0  0  0  0  0  0  0
    2.7567   61.2209   69.1309 H   0  0  0  0  0  0  0  0  0  0  0  0
    5.1103   60.4250   69.2704 H   0  0  0  0  0  0  0  0  0  0  0  0
    6.3317   60.5085   71.4396 H   0  0  0  0  0  0  0  0  0  0  0  0
    5.1902   61.3663   73.4786 H   0  0  0  0  0  0  0  0  0  0  0  0
    2.8383   62.1738   73.3540 H   0  0  0  0  0  0  0  0  0  0  0  0
  2  1  1  0
  3  2  1  0
  4  3  1  0
  5  4  1  0
  6  5  1  0
  6  1  1  0
  7  1  1  0
  9  8  2  0
  9  7  1  0
 11 10  2  0
 12 11  1  0
 13 12  2  0
 13  8  1  0
 14 13  1  0
 15 14  2  0
 15 10  1  0
 16  4  1  0
 17 16  1  0
 18 17  2  0
 19 18  1  0
 20 19  2  0
 21 20  1  0
 22 21  2  0
 22 17  1  0
 23 16  1  0
 24 23  2  0
 25 24  1  0
 26 25  2  0
 27 26  1  0
 28 27  2  0
 28 23  1  0
  1 29  1  0
  2 30  1  0
  2 31  1  0
  3 32  1  0
  3 33  1  0
  4 34  1  0
  5 35  1  0
  5 36  1  0
  6 37  1  0
  6 38  1  0
  7 39  1  0
  7 40  1  0
  8 41  1  0
  9 42  1  0
 10 43  1  0
 11 44  1  0
 12 45  1  0
 14 46  1  0
 15 47  1  0
 16 48  1  0
 18 49  1  0
 19 50  1  0
 20 51  1  0
 21 52  1  0
 22 53  1  0
 24 54  1  0
 25 55  1  0
 26 56  1  0
 27 57  1  0
 28 58  1  0
M  CHG  2   1   1   4   1
M  END
>  <score>  (4) 
-9.782

$$$$
=
     RDKit          3D

 58 61  0  0  0  0  0  0  0  0999 V2000
   -0.3900   59.3160   75.2210 N   0  0  0  0  0  4  0  0  0  0  0  0
   -1.3750   59.6910   74.1270 C   0  0  0  0  0  0  0  0  0  0  0  0
   -0.8240   60.8340   73.2310 C   0  0  0  0  0  0  0  0  0  0  0  0
    0.7090   60.8330   73.1240 N   0  0  0  0  0  4  0  0  0  0  0  0
    1.2920   59.4300   73.2860 C   0  0  0  0  0  0  0  0  0  0  0  0
    0.9500   58.8240   74.6740 C   0  0  0  0  0  0  0  0  0  0  0  0
   -0.9810   58.3690   76.2620 C   0  0  0  0  0  0  0  0  0  0  0  0
   -1.6010   56.1080   75.3830 C   0  0  0  0  0  0  0  0  0  0  0  0
   -0.7230   56.9250   75.9900 C   0  0  0  0  0  0  0  0  0  0  0  0
   -0.7870   52.0370   74.3400 C   0  0  0  0  0  0  0  0  0  0  0  0
    0.0790   53.0580   73.9580 C   0  0  0  0  0  0  0  0  0  0  0  0
   -0.1970   54.3800   74.3130 C   0  0  0  0  0  0  0  0  0  0  0  0
   -1.3390   54.6960   75.0640 C   0  0  0  0  0  0  0  0  0  0  0  0
   -2.2100   53.6600   75.4290 C   0  0  0  0  0  0  0  0  0  0  0  0
   -1.9320   52.3370   75.0730 C   0  0  0  0  0  0  0  0  0  0  0  0
    1.1880   61.5180   71.8090 C   0  0  0  0  0  0  0  0  0  0  0  0
    2.6650   61.2810   71.5260 C   0  0  0  0  0  0  0  0  0  0  0  0
    3.6210   61.7320   72.4560 C   0  0  0  0  0  0  0  0  0  0  0  0
    4.9850   61.5600   72.2180 C   0  0  0  0  0  0  0  0  0  0  0  0
    5.4170   60.9290   71.0550 C   0  0  0  0  0  0  0  0  0  0  0  0
    4.4860   60.4630   70.1320 C   0  0  0  0  0  0  0  0  0  0  0  0
    3.1190   60.6340   70.3620 C   0  0  0  0  0  0  0  0  0  0  0  0
    0.7960   62.9870   71.7360 C   0  0  0  0  0  0  0  0  0  0  0  0
    0.8160   63.6400   70.4900 C   0  0  0  0  0  0  0  0  0  0  0  0
    0.4380   64.9790   70.3770 C   0  0  0  0  0  0  0  0  0  0  0  0
    0.0410   65.6890   71.5060 C   0  0  0  0  0  0  0  0  0  0  0  0
    0.0300   65.0650   72.7500 C   0  0  0  0  0  0  0  0  0  0  0  0
    0.4050   63.7250   72.8680 C   0  0  0  0  0  0  0  0  0  0  0  0
   -0.1892   60.1939   75.7209 H   0  0  0  0  0  0  0  0  0  0  0  0
   -1.5671   58.8072   73.5009 H   0  0  0  0  0  0  0  0  0  0  0  0
   -2.3019   60.0428   74.6035 H   0  0  0  0  0  0  0  0  0  0  0  0
   -1.2451   60.7207   72.2211 H   0  0  0  0  0  0  0  0  0  0  0  0
   -1.1188   61.7859   73.6968 H   0  0  0  0  0  0  0  0  0  0  0  0
    1.0712   61.3939   73.9083 H   0  0  0  0  0  0  0  0  0  0  0  0
    0.8790   58.7793   72.5011 H   0  0  0  0  0  0  0  0  0  0  0  0
    2.3865   59.5012   73.2027 H   0  0  0  0  0  0  0  0  0  0  0  0
    0.9102   57.7288   74.5792 H   0  0  0  0  0  0  0  0  0  0  0  0
    1.7327   59.1444   75.3774 H   0  0  0  0  0  0  0  0  0  0  0  0
   -0.5471   58.6186   77.2415 H   0  0  0  0  0  0  0  0  0  0  0  0
   -2.0719   58.5068   76.2321 H   0  0  0  0  0  0  0  0  0  0  0  0
   -2.5813   56.5231   75.1062 H   0  0  0  0  0  0  0  0  0  0  0  0
    0.2432   56.5039   76.3049 H   0  0  0  0  0  0  0  0  0  0  0  0
   -0.5670   50.9954   74.0632 H   0  0  0  0  0  0  0  0  0  0  0  0
    0.9821   52.8229   73.3756 H   0  0  0  0  0  0  0  0  0  0  0  0
    0.4881   55.1819   74.0006 H   0  0  0  0  0  0  0  0  0  0  0  0
   -3.1209   53.8903   76.0010 H   0  0  0  0  0  0  0  0  0  0  0  0
   -2.6190   51.5318   75.3725 H   0  0  0  0  0  0  0  0  0  0  0  0
    0.6447   61.0222   70.9910 H   0  0  0  0  0  0  0  0  0  0  0  0
    3.2887   62.2257   73.3811 H   0  0  0  0  0  0  0  0  0  0  0  0
    5.7203   61.9237   72.9508 H   0  0  0  0  0  0  0  0  0  0  0  0
    6.4928   60.7989   70.8659 H   0  0  0  0  0  0  0  0  0  0  0  0
    4.8281   59.9576   69.2169 H   0  0  0  0  0  0  0  0  0  0  0  0
    2.3913   60.2597   69.6270 H   0  0  0  0  0  0  0  0  0  0  0  0
    1.1337   63.0882   69.5930 H   0  0  0  0  0  0  0  0  0  0  0  0
    0.4540   65.4734   69.3945 H   0  0  0  0  0  0  0  0  0  0  0  0
   -0.2637   66.7421   71.4154 H   0  0  0  0  0  0  0  0  0  0  0  0
   -0.2752   65.6294   73.6435 H   0  0  0  0  0  0  0  0  0  0  0  0
    0.3945   63.2417   73.8561 H   0  0  0  0  0  0  0  0  0  0  0  0
  2  1  1  0
  3  2  1  0
  4  3  1  0
  5  4  1  0
  6  5  1  0
  6  1  1  0
  7  1  1  0
  9  8  2  0
  9  7  1  0
 11 10  2  0
 12 11  1  0
 13 12  2  0
 13  8  1  0
 14 13  1  0
 15 14  2  0
 15 10  1  0
 16  4  1  0
 17 16  1  0
 18 17  2  0
 19 18  1  0
 20 19  2  0
 21 20  1  0
 22 21  2  0
 22 17  1  0
 23 16  1  0
 24 23  2  0
 25 24  1  0
 26 25  2  0
 27 26  1  0
 28 27  2  0
 28 23  1  0
  1 29  1  0
  2 30  1  0
  2 31  1  0
  3 32  1  0
  3 33  1  0
  4 34  1  0
  5 35  1  0
  5 36  1  0
  6 37  1  0
  6 38  1  0
  7 39  1  0
  7 40  1  0
  8 41  1  0
  9 42  1  0
 10 43  1  0
 11 44  1  0
 12 45  1  0
 14 46  1  0
 15 47  1  0
 16 48  1  0
 18 49  1  0
 19 50  1  0
 20 51  1  0
 21 52  1  0
 22 53  1  0
 24 54  1  0
 25 55  1  0
 26 56  1  0
 27 57  1  0
 28 58  1  0
M  CHG  2   1   1   4   1
M  END
>  <score>  (5) 
-8.495

$$$$
=
     RDKit          3D

 58 61  0  0  0  0  0  0  0  0999 V2000
   -0.7590   59.9140   74.2710 N   0  0  0  0  0  4  0  0  0  0  0  0
    0.4150   59.3380   73.4980 C   0  0  0  0  0  0  0  0  0  0  0  0
    1.0430   60.3910   72.5460 C   0  0  0  0  0  0  0  0  0  0  0  0
    0.9050   61.8320   73.0630 N   0  0  0  0  0  4  0  0  0  0  0  0
    0.8490   61.8890   74.5890 C   0  0  0  0  0  0  0  0  0  0  0  0
   -0.3690   61.1050   75.1470 C   0  0  0  0  0  0  0  0  0  0  0  0
   -1.5500   58.8580   75.0370 C   0  0  0  0  0  0  0  0  0  0  0  0
   -1.7830   56.3690   75.1630 C   0  0  0  0  0  0  0  0  0  0  0  0
   -1.0820   57.4600   74.8120 C   0  0  0  0  0  0  0  0  0  0  0  0
   -0.5810   52.3110   74.5180 C   0  0  0  0  0  0  0  0  0  0  0  0
   -1.7190   52.6080   75.2620 C   0  0  0  0  0  0  0  0  0  0  0  0
   -2.1020   53.9370   75.4570 C   0  0  0  0  0  0  0  0  0  0  0  0
   -1.3560   54.9860   74.9000 C   0  0  0  0  0  0  0  0  0  0  0  0
   -0.2030   54.6730   74.1660 C   0  0  0  0  0  0  0  0  0  0  0  0
    0.1790   53.3420   73.9710 C   0  0  0  0  0  0  0  0  0  0  0  0
    2.0180   62.7540   72.4830 C   0  0  0  0  0  0  0  0  0  0  0  0
    1.4570   63.9610   71.7420 C   0  0  0  0  0  0  0  0  0  0  0  0
    2.1810   64.4980   70.6610 C   0  0  0  0  0  0  0  0  0  0  0  0
    1.7150   65.6200   69.9760 C   0  0  0  0  0  0  0  0  0  0  0  0
    0.5170   66.2190   70.3530 C   0  0  0  0  0  0  0  0  0  0  0  0
   -0.2200   65.6940   71.4090 C   0  0  0  0  0  0  0  0  0  0  0  0
    0.2420   64.5720   72.1010 C   0  0  0  0  0  0  0  0  0  0  0  0
    3.0540   61.9870   71.6730 C   0  0  0  0  0  0  0  0  0  0  0  0
    2.7180   61.5370   70.3820 C   0  0  0  0  0  0  0  0  0  0  0  0
    3.6480   60.8530   69.5980 C   0  0  0  0  0  0  0  0  0  0  0  0
    4.9250   60.6020   70.0910 C   0  0  0  0  0  0  0  0  0  0  0  0
    5.2710   61.0240   71.3710 C   0  0  0  0  0  0  0  0  0  0  0  0
    4.3450   61.7100   72.1600 C   0  0  0  0  0  0  0  0  0  0  0  0
   -1.4022   60.2832   73.5562 H   0  0  0  0  0  0  0  0  0  0  0  0
    1.1809   58.9998   74.2114 H   0  0  0  0  0  0  0  0  0  0  0  0
    0.0479   58.4987   72.8891 H   0  0  0  0  0  0  0  0  0  0  0  0
    2.1126   60.1625   72.4285 H   0  0  0  0  0  0  0  0  0  0  0  0
    0.5011   60.3328   71.5905 H   0  0  0  0  0  0  0  0  0  0  0  0
    0.0029   62.1940   72.7224 H   0  0  0  0  0  0  0  0  0  0  0  0
    1.7722   61.4511   74.9965 H   0  0  0  0  0  0  0  0  0  0  0  0
    0.7468   62.9421   74.8899 H   0  0  0  0  0  0  0  0  0  0  0  0
   -0.1182   60.7348   76.1520 H   0  0  0  0  0  0  0  0  0  0  0  0
   -1.2254   61.7950   75.1682 H   0  0  0  0  0  0  0  0  0  0  0  0
   -1.4703   59.0796   76.1115 H   0  0  0  0  0  0  0  0  0  0  0  0
   -2.5846   58.9081   74.6666 H   0  0  0  0  0  0  0  0  0  0  0  0
   -2.7410   56.5200   75.6821 H   0  0  0  0  0  0  0  0  0  0  0  0
   -0.1043   57.3133   74.3298 H   0  0  0  0  0  0  0  0  0  0  0  0
   -0.2823   51.2639   74.3622 H   0  0  0  0  0  0  0  0  0  0  0  0
   -2.3180   51.7946   75.6973 H   0  0  0  0  0  0  0  0  0  0  0  0
   -2.9980   54.1633   76.0536 H   0  0  0  0  0  0  0  0  0  0  0  0
    0.4072   55.4826   73.7393 H   0  0  0  0  0  0  0  0  0  0  0  0
    1.0804   53.1091   73.3851 H   0  0  0  0  0  0  0  0  0  0  0  0
    2.5582   63.1615   73.3502 H   0  0  0  0  0  0  0  0  0  0  0  0
    3.1260   64.0270   70.3526 H   0  0  0  0  0  0  0  0  0  0  0  0
    2.2951   66.0317   69.1370 H   0  0  0  0  0  0  0  0  0  0  0  0
    0.1531   67.1074   69.8160 H   0  0  0  0  0  0  0  0  0  0  0  0
   -1.1707   66.1642   71.7006 H   0  0  0  0  0  0  0  0  0  0  0  0
   -0.3492   64.1629   72.9335 H   0  0  0  0  0  0  0  0  0  0  0  0
    1.7094   61.7270   69.9862 H   0  0  0  0  0  0  0  0  0  0  0  0
    3.3715   60.5119   68.5894 H   0  0  0  0  0  0  0  0  0  0  0  0
    5.6603   60.0704   69.4692 H   0  0  0  0  0  0  0  0  0  0  0  0
    6.2776   60.8165   71.7629 H   0  0  0  0  0  0  0  0  0  0  0  0
    4.6274   62.0369   73.1716 H   0  0  0  0  0  0  0  0  0  0  0  0
  2  1  1  0
  3  2  1  0
  4  3  1  0
  5  4  1  0
  6  5  1  0
  6  1  1  0
  7  1  1  0
  9  8  2  0
  9  7  1  0
 11 10  2  0
 12 11  1  0
 13 12  2  0
 13  8  1  0
 14 13  1  0
 15 14  2  0
 15 10  1  0
 16  4  1  0
 17 16  1  0
 18 17  2  0
 19 18  1  0
 20 19  2  0
 21 20  1  0
 22 21  2  0
 22 17  1  0
 23 16  1  0
 24 23  2  0
 25 24  1  0
 26 25  2  0
 27 26  1  0
 28 27  2  0
 28 23  1  0
  1 29  1  0
  2 30  1  0
  2 31  1  0
  3 32  1  0
  3 33  1  0
  4 34  1  0
  5 35  1  0
  5 36  1  0
  6 37  1  0
  6 38  1  0
  7 39  1  0
  7 40  1  0
  8 41  1  0
  9 42  1  0
 10 43  1  0
 11 44  1  0
 12 45  1  0
 14 46  1  0
 15 47  1  0
 16 48  1  0
 18 49  1  0
 19 50  1  0
 20 51  1  0
 21 52  1  0
 22 53  1  0
 24 54  1  0
 25 55  1  0
 26 56  1  0
 27 57  1  0
 28 58  1  0
M  CHG  2   1   1   4   1
M  END
>  <score>  (6) 
-8.303

$$$$
=
     RDKit          3D

 58 61  0  0  0  0  0  0  0  0999 V2000
   -1.1100   60.4440   74.7420 N   0  0  0  0  0  4  0  0  0  0  0  0
   -0.4460   61.5620   75.5280 C   0  0  0  0  0  0  0  0  0  0  0  0
    0.9330   61.9430   74.9260 C   0  0  0  0  0  0  0  0  0  0  0  0
    1.0130   61.7190   73.4070 N   0  0  0  0  0  4  0  0  0  0  0  0
   -0.3530   61.8570   72.7370 C   0  0  0  0  0  0  0  0  0  0  0  0
   -1.3670   60.8150   73.2810 C   0  0  0  0  0  0  0  0  0  0  0  0
   -2.3480   59.8790   75.4300 C   0  0  0  0  0  0  0  0  0  0  0  0
   -4.6720   60.8090   75.4030 C   0  0  0  0  0  0  0  0  0  0  0  0
   -3.6350   60.2400   74.7670 C   0  0  0  0  0  0  0  0  0  0  0  0
   -8.2720   61.9520   73.3890 C   0  0  0  0  0  0  0  0  0  0  0  0
   -7.5670   60.8160   73.0000 C   0  0  0  0  0  0  0  0  0  0  0  0
   -6.3990   60.4530   73.6720 C   0  0  0  0  0  0  0  0  0  0  0  0
   -5.9260   61.2160   74.7500 C   0  0  0  0  0  0  0  0  0  0  0  0
   -6.6380   62.3660   75.1220 C   0  0  0  0  0  0  0  0  0  0  0  0
   -7.8080   62.7280   74.4480 C   0  0  0  0  0  0  0  0  0  0  0  0
    2.0830   62.6400   72.7510 C   0  0  0  0  0  0  0  0  0  0  0  0
    1.4690   63.8090   71.9930 C   0  0  0  0  0  0  0  0  0  0  0  0
    2.0260   64.1940   70.7590 C   0  0  0  0  0  0  0  0  0  0  0  0
    1.5100   65.2790   70.0490 C   0  0  0  0  0  0  0  0  0  0  0  0
    0.4260   65.9910   70.5530 C   0  0  0  0  0  0  0  0  0  0  0  0
   -0.1480   65.6160   71.7630 C   0  0  0  0  0  0  0  0  0  0  0  0
    0.3650   64.5330   72.4810 C   0  0  0  0  0  0  0  0  0  0  0  0
    3.0990   61.8640   71.9250 C   0  0  0  0  0  0  0  0  0  0  0  0
    2.6450   61.0320   70.8840 C   0  0  0  0  0  0  0  0  0  0  0  0
    3.5470   60.3250   70.0880 C   0  0  0  0  0  0  0  0  0  0  0  0
    4.9150   60.4300   70.3220 C   0  0  0  0  0  0  0  0  0  0  0  0
    5.3830   61.2350   71.3570 C   0  0  0  0  0  0  0  0  0  0  0  0
    4.4850   61.9460   72.1550 C   0  0  0  0  0  0  0  0  0  0  0  0
   -0.4240   59.6759   74.7255 H   0  0  0  0  0  0  0  0  0  0  0  0
   -1.0994   62.4468   75.5115 H   0  0  0  0  0  0  0  0  0  0  0  0
   -0.2864   61.2105   76.5580 H   0  0  0  0  0  0  0  0  0  0  0  0
    1.1232   63.0064   75.1331 H   0  0  0  0  0  0  0  0  0  0  0  0
    1.6853   61.2903   75.3929 H   0  0  0  0  0  0  0  0  0  0  0  0
    1.3172   60.7465   73.2566 H   0  0  0  0  0  0  0  0  0  0  0  0
   -0.7433   62.8676   72.9279 H   0  0  0  0  0  0  0  0  0  0  0  0
   -0.2255   61.6810   71.6587 H   0  0  0  0  0  0  0  0  0  0  0  0
   -2.3805   61.2345   73.1981 H   0  0  0  0  0  0  0  0  0  0  0  0
   -1.2538   59.8992   72.6822 H   0  0  0  0  0  0  0  0  0  0  0  0
   -2.2637   58.7823   75.4455 H   0  0  0  0  0  0  0  0  0  0  0  0
   -2.3776   60.3186   76.4379 H   0  0  0  0  0  0  0  0  0  0  0  0
   -4.5774   60.9824   76.4851 H   0  0  0  0  0  0  0  0  0  0  0  0
   -3.7408   60.0274   73.6929 H   0  0  0  0  0  0  0  0  0  0  0  0
   -9.1940   62.2360   72.8606 H   0  0  0  0  0  0  0  0  0  0  0  0
   -7.9312   60.2038   72.1618 H   0  0  0  0  0  0  0  0  0  0  0  0
   -5.8432   59.5589   73.3530 H   0  0  0  0  0  0  0  0  0  0  0  0
   -6.2723   62.9887   75.9518 H   0  0  0  0  0  0  0  0  0  0  0  0
   -8.3628   63.6270   74.7546 H   0  0  0  0  0  0  0  0  0  0  0  0
    2.6500   63.0872   73.5808 H   0  0  0  0  0  0  0  0  0  0  0  0
    2.8786   63.6327   70.3492 H   0  0  0  0  0  0  0  0  0  0  0  0
    1.9610   65.5718   69.0894 H   0  0  0  0  0  0  0  0  0  0  0  0
    0.0235   66.8494   69.9951 H   0  0  0  0  0  0  0  0  0  0  0  0
   -1.0099   66.1748   72.1565 H   0  0  0  0  0  0  0  0  0  0  0  0
   -0.0978   64.2436   73.4360 H   0  0  0  0  0  0  0  0  0  0  0  0
    1.5653   60.9381   70.6957 H   0  0  0  0  0  0  0  0  0  0  0  0
    3.1764   59.6839   69.2746 H   0  0  0  0  0  0  0  0  0  0  0  0
    5.6257   59.8775   69.6898 H   0  0  0  0  0  0  0  0  0  0  0  0
    6.4639   61.3110   71.5466 H   0  0  0  0  0  0  0  0  0  0  0  0
    4.8647   62.5770   72.9721 H   0  0  0  0  0  0  0  0  0  0  0  0
  2  1  1  0
  3  2  1  0
  4  3  1  0
  5  4  1  0
  6  5  1  0
  6  1  1  0
  7  1  1  0
  9  8  2  0
  9  7  1  0
 11 10  2  0
 12 11  1  0
 13 12  2  0
 13  8  1  0
 14 13  1  0
 15 14  2  0
 15 10  1  0
 16  4  1  0
 17 16  1  0
 18 17  2  0
 19 18  1  0
 20 19  2  0
 21 20  1  0
 22 21  2  0
 22 17  1  0
 23 16  1  0
 24 23  2  0
 25 24  1  0
 26 25  2  0
 27 26  1  0
 28 27  2  0
 28 23  1  0
  1 29  1  0
  2 30  1  0
  2 31  1  0
  3 32  1  0
  3 33  1  0
  4 34  1  0
  5 35  1  0
  5 36  1  0
  6 37  1  0
  6 38  1  0
  7 39  1  0
  7 40  1  0
  8 41  1  0
  9 42  1  0
 10 43  1  0
 11 44  1  0
 12 45  1  0
 14 46  1  0
 15 47  1  0
 16 48  1  0
 18 49  1  0
 19 50  1  0
 20 51  1  0
 21 52  1  0
 22 53  1  0
 24 54  1  0
 25 55  1  0
 26 56  1  0
 27 57  1  0
 28 58  1  0
M  CHG  2   1   1   4   1
M  END
>  <score>  (7) 
-8.28

$$$$
=
     RDKit          3D

 58 61  0  0  0  0  0  0  0  0999 V2000
    3.3140   62.3730   68.7860 N   0  0  0  0  0  4  0  0  0  0  0  0
    4.1350   63.1370   69.8100 C   0  0  0  0  0  0  0  0  0  0  0  0
    3.3660   63.3070   71.1480 C   0  0  0  0  0  0  0  0  0  0  0  0
    2.3870   62.1570   71.4330 N   0  0  0  0  0  4  0  0  0  0  0  0
    2.8450   60.8460   70.7950 C   0  0  0  0  0  0  0  0  0  0  0  0
    2.9450   60.9630   69.2510 C   0  0  0  0  0  0  0  0  0  0  0  0
    3.9290   62.3870   67.3900 C   0  0  0  0  0  0  0  0  0  0  0  0
    3.8160   63.7990   65.3260 C   0  0  0  0  0  0  0  0  0  0  0  0
    3.7700   63.6800   66.6640 C   0  0  0  0  0  0  0  0  0  0  0  0
    3.3440   67.4750   63.1850 C   0  0  0  0  0  0  0  0  0  0  0  0
    4.3260   66.5590   62.8200 C   0  0  0  0  0  0  0  0  0  0  0  0
    4.4620   65.3610   63.5250 C   0  0  0  0  0  0  0  0  0  0  0  0
    3.6090   65.0600   64.5970 C   0  0  0  0  0  0  0  0  0  0  0  0
    2.6340   65.9980   64.9620 C   0  0  0  0  0  0  0  0  0  0  0  0
    2.4990   67.1970   64.2560 C   0  0  0  0  0  0  0  0  0  0  0  0
    2.1180   62.0030   72.9590 C   0  0  0  0  0  0  0  0  0  0  0  0
    1.5410   60.6410   73.3210 C   0  0  0  0  0  0  0  0  0  0  0  0
    0.1510   60.4390   73.2290 C   0  0  0  0  0  0  0  0  0  0  0  0
   -0.4170   59.2140   73.5800 C   0  0  0  0  0  0  0  0  0  0  0  0
    0.3900   58.1710   74.0210 C   0  0  0  0  0  0  0  0  0  0  0  0
    1.7680   58.3460   74.1040 C   0  0  0  0  0  0  0  0  0  0  0  0
    2.3440   59.5710   73.7560 C   0  0  0  0  0  0  0  0  0  0  0  0
    1.3130   63.1620   73.5330 C   0  0  0  0  0  0  0  0  0  0  0  0
    1.4140   63.4520   74.9060 C   0  0  0  0  0  0  0  0  0  0  0  0
    0.7140   64.5220   75.4650 C   0  0  0  0  0  0  0  0  0  0  0  0
   -0.1040   65.3140   74.6640 C   0  0  0  0  0  0  0  0  0  0  0  0
   -0.2300   65.0330   73.3070 C   0  0  0  0  0  0  0  0  0  0  0  0
    0.4710   63.9650   72.7420 C   0  0  0  0  0  0  0  0  0  0  0  0
    2.4267   62.8900   68.7063 H   0  0  0  0  0  0  0  0  0  0  0  0
    5.0679   62.5867   70.0020 H   0  0  0  0  0  0  0  0  0  0  0  0
    4.3453   64.1378   69.4047 H   0  0  0  0  0  0  0  0  0  0  0  0
    4.0975   63.3550   71.9682 H   0  0  0  0  0  0  0  0  0  0  0  0
    2.7727   64.2300   71.0695 H   0  0  0  0  0  0  0  0  0  0  0  0
    1.4899   62.4019   70.9902 H   0  0  0  0  0  0  0  0  0  0  0  0
    3.8338   60.5803   71.1971 H   0  0  0  0  0  0  0  0  0  0  0  0
    2.1014   60.0710   71.0326 H   0  0  0  0  0  0  0  0  0  0  0  0
    3.7148   60.2627   68.8946 H   0  0  0  0  0  0  0  0  0  0  0  0
    1.9542   60.7261   68.8360 H   0  0  0  0  0  0  0  0  0  0  0  0
    5.0042   62.1747   67.4847 H   0  0  0  0  0  0  0  0  0  0  0  0
    3.3942   61.6268   66.8017 H   0  0  0  0  0  0  0  0  0  0  0  0
    4.0221   62.8933   64.7368 H   0  0  0  0  0  0  0  0  0  0  0  0
    3.6053   64.5904   67.2589 H   0  0  0  0  0  0  0  0  0  0  0  0
    3.2356   68.4174   62.6281 H   0  0  0  0  0  0  0  0  0  0  0  0
    4.9957   66.7787   61.9755 H   0  0  0  0  0  0  0  0  0  0  0  0
    5.2464   64.6459   63.2365 H   0  0  0  0  0  0  0  0  0  0  0  0
    1.9684   65.7888   65.8124 H   0  0  0  0  0  0  0  0  0  0  0  0
    1.7243   67.9216   64.5470 H   0  0  0  0  0  0  0  0  0  0  0  0
    3.1020   62.0495   73.4486 H   0  0  0  0  0  0  0  0  0  0  0  0
   -0.4949   61.2565   72.8762 H   0  0  0  0  0  0  0  0  0  0  0  0
   -1.5055   59.0729   73.5077 H   0  0  0  0  0  0  0  0  0  0  0  0
   -0.0606   57.2083   74.3040 H   0  0  0  0  0  0  0  0  0  0  0  0
    2.4062   57.5174   74.4447 H   0  0  0  0  0  0  0  0  0  0  0  0
    3.4344   59.6995   73.8228 H   0  0  0  0  0  0  0  0  0  0  0  0
    2.0531   62.8272   75.5472 H   0  0  0  0  0  0  0  0  0  0  0  0
    0.8086   64.7397   76.5391 H   0  0  0  0  0  0  0  0  0  0  0  0
   -0.6504   66.1615   75.1036 H   0  0  0  0  0  0  0  0  0  0  0  0
   -0.8839   65.6540   72.6771 H   0  0  0  0  0  0  0  0  0  0  0  0
    0.3637   63.7498   71.6686 H   0  0  0  0  0  0  0  0  0  0  0  0
  2  1  1  0
  3  2  1  0
  4  3  1  0
  5  4  1  0
  6  5  1  0
  6  1  1  0
  7  1  1  0
  9  8  2  0
  9  7  1  0
 11 10  2  0
 12 11  1  0
 13 12  2  0
 13  8  1  0
 14 13  1  0
 15 14  2  0
 15 10  1  0
 16  4  1  0
 17 16  1  0
 18 17  2  0
 19 18  1  0
 20 19  2  0
 21 20  1  0
 22 21  2  0
 22 17  1  0
 23 16  1  0
 24 23  2  0
 25 24  1  0
 26 25  2  0
 27 26  1  0
 28 27  2  0
 28 23  1  0
  1 29  1  0
  2 30  1  0
  2 31  1  0
  3 32  1  0
  3 33  1  0
  4 34  1  0
  5 35  1  0
  5 36  1  0
  6 37  1  0
  6 38  1  0
  7 39  1  0
  7 40  1  0
  8 41  1  0
  9 42  1  0
 10 43  1  0
 11 44  1  0
 12 45  1  0
 14 46  1  0
 15 47  1  0
 16 48  1  0
 18 49  1  0
 19 50  1  0
 20 51  1  0
 21 52  1  0
 22 53  1  0
 24 54  1  0
 25 55  1  0
 26 56  1  0
 27 57  1  0
 28 58  1  0
M  CHG  2   1   1   4   1
M  END
>  <score>  (8) 
-8.107

$$$$
=
     RDKit          3D

 58 61  0  0  0  0  0  0  0  0999 V2000
    2.4090   58.1750   74.6160 N   0  0  0  0  0  4  0  0  0  0  0  0
    0.9760   58.6720   74.6960 C   0  0  0  0  0  0  0  0  0  0  0  0
    0.8620   60.1580   74.2600 C   0  0  0  0  0  0  0  0  0  0  0  0
    1.9160   60.5660   73.2190 N   0  0  0  0  0  4  0  0  0  0  0  0
    2.3500   59.3850   72.3530 C   0  0  0  0  0  0  0  0  0  0  0  0
    2.9890   58.2540   73.2030 C   0  0  0  0  0  0  0  0  0  0  0  0
    2.6060   56.8030   75.2540 C   0  0  0  0  0  0  0  0  0  0  0  0
    1.0640   54.8670   75.6290 C   0  0  0  0  0  0  0  0  0  0  0  0
    1.6200   55.7750   74.8100 C   0  0  0  0  0  0  0  0  0  0  0  0
   -1.9240   52.0000   74.5450 C   0  0  0  0  0  0  0  0  0  0  0  0
   -2.1960   52.9940   75.4810 C   0  0  0  0  0  0  0  0  0  0  0  0
   -1.2120   53.9260   75.8180 C   0  0  0  0  0  0  0  0  0  0  0  0
    0.0530   53.8820   75.2150 C   0  0  0  0  0  0  0  0  0  0  0  0
    0.3180   52.8660   74.2850 C   0  0  0  0  0  0  0  0  0  0  0  0
   -0.6670   51.9330   73.9480 C   0  0  0  0  0  0  0  0  0  0  0  0
    1.4330   61.7740   72.3630 C   0  0  0  0  0  0  0  0  0  0  0  0
    2.4150   62.1430   71.2590 C   0  0  0  0  0  0  0  0  0  0  0  0
    3.6710   62.6750   71.6080 C   0  0  0  0  0  0  0  0  0  0  0  0
    4.5850   63.0520   70.6250 C   0  0  0  0  0  0  0  0  0  0  0  0
    4.2660   62.8990   69.2790 C   0  0  0  0  0  0  0  0  0  0  0  0
    3.0360   62.3610   68.9140 C   0  0  0  0  0  0  0  0  0  0  0  0
    2.1150   61.9830   69.8940 C   0  0  0  0  0  0  0  0  0  0  0  0
    1.0170   62.9670   73.2130 C   0  0  0  0  0  0  0  0  0  0  0  0
    0.2280   63.9790   72.6330 C   0  0  0  0  0  0  0  0  0  0  0  0
   -0.1960   65.0740   73.3860 C   0  0  0  0  0  0  0  0  0  0  0  0
    0.1660   65.1820   74.7250 C   0  0  0  0  0  0  0  0  0  0  0  0
    0.9590   64.2000   75.3120 C   0  0  0  0  0  0  0  0  0  0  0  0
    1.3840   63.1000   74.5640 C   0  0  0  0  0  0  0  0  0  0  0  0
    2.9585   58.8320   75.1881 H   0  0  0  0  0  0  0  0  0  0  0  0
    0.3473   58.0568   74.0355 H   0  0  0  0  0  0  0  0  0  0  0  0
    0.6420   58.5931   75.7411 H   0  0  0  0  0  0  0  0  0  0  0  0
   -0.1367   60.3201   73.8284 H   0  0  0  0  0  0  0  0  0  0  0  0
    1.0305   60.7751   75.1549 H   0  0  0  0  0  0  0  0  0  0  0  0
    2.7523   60.8750   73.7348 H   0  0  0  0  0  0  0  0  0  0  0  0
    1.4693   58.9838   71.8301 H   0  0  0  0  0  0  0  0  0  0  0  0
    3.1041   59.7436   71.6370 H   0  0  0  0  0  0  0  0  0  0  0  0
    2.8146   57.2929   72.6972 H   0  0  0  0  0  0  0  0  0  0  0  0
    4.0621   58.4765   73.2974 H   0  0  0  0  0  0  0  0  0  0  0  0
    3.6149   56.4459   74.9997 H   0  0  0  0  0  0  0  0  0  0  0  0
    2.4606   56.9338   76.3365 H   0  0  0  0  0  0  0  0  0  0  0  0
    1.3866   54.8595   76.6806 H   0  0  0  0  0  0  0  0  0  0  0  0
    1.3312   55.7598   73.7487 H   0  0  0  0  0  0  0  0  0  0  0  0
   -2.7006   51.2684   74.2771 H   0  0  0  0  0  0  0  0  0  0  0  0
   -3.1870   53.0454   75.9556 H   0  0  0  0  0  0  0  0  0  0  0  0
   -1.4319   54.7032   76.5648 H   0  0  0  0  0  0  0  0  0  0  0  0
    1.3110   52.8027   73.8160 H   0  0  0  0  0  0  0  0  0  0  0  0
   -0.4495   51.1457   73.2112 H   0  0  0  0  0  0  0  0  0  0  0  0
    0.5195   61.4390   71.8499 H   0  0  0  0  0  0  0  0  0  0  0  0
    3.9344   62.7947   72.6693 H   0  0  0  0  0  0  0  0  0  0  0  0
    5.5601   63.4712   70.9138 H   0  0  0  0  0  0  0  0  0  0  0  0
    4.9856   63.2031   68.5046 H   0  0  0  0  0  0  0  0  0  0  0  0
    2.7878   62.2328   67.8500 H   0  0  0  0  0  0  0  0  0  0  0  0
    1.1461   61.5562   69.5955 H   0  0  0  0  0  0  0  0  0  0  0  0
   -0.0574   63.9051   71.5732 H   0  0  0  0  0  0  0  0  0  0  0  0
   -0.8174   65.8532   72.9205 H   0  0  0  0  0  0  0  0  0  0  0  0
   -0.1742   66.0428   75.3194 H   0  0  0  0  0  0  0  0  0  0  0  0
    1.2518   64.2908   76.3684 H   0  0  0  0  0  0  0  0  0  0  0  0
    2.0119   62.3301   75.0362 H   0  0  0  0  0  0  0  0  0  0  0  0
  2  1  1  0
  3  2  1  0
  4  3  1  0
  5  4  1  0
  6  5  1  0
  6  1  1  0
  7  1  1  0
  9  8  2  0
  9  7  1  0
 11 10  2  0
 12 11  1  0
 13 12  2  0
 13  8  1  0
 14 13  1  0
 15 14  2  0
 15 10  1  0
 16  4  1  0
 17 16  1  0
 18 17  2  0
 19 18  1  0
 20 19  2  0
 21 20  1  0
 22 21  2  0
 22 17  1  0
 23 16  1  0
 24 23  2  0
 25 24  1  0
 26 25  2  0
 27 26  1  0
 28 27  2  0
 28 23  1  0
  1 29  1  0
  2 30  1  0
  2 31  1  0
  3 32  1  0
  3 33  1  0
  4 34  1  0
  5 35  1  0
  5 36  1  0
  6 37  1  0
  6 38  1  0
  7 39  1  0
  7 40  1  0
  8 41  1  0
  9 42  1  0
 10 43  1  0
 11 44  1  0
 12 45  1  0
 14 46  1  0
 15 47  1  0
 16 48  1  0
 18 49  1  0
 19 50  1  0
 20 51  1  0
 21 52  1  0
 22 53  1  0
 24 54  1  0
 25 55  1  0
 26 56  1  0
 27 57  1  0
 28 58  1  0
M  CHG  2   1   1   4   1
M  END
>  <score>  (9) 
-7.9

$$$$
