=
     RDKit          3D

 12 12  0  0  0  0  0  0  0  0999 V2000
    4.1340   70.3300   69.2830 Cl  0  0  0  0  0  0  0  0  0  0  0  0
    3.9200   69.8710   67.6250 C   0  0  0  0  0  0  0  0  0  0  0  0
    4.9020   69.9470   66.7200 C   0  0  0  0  0  0  0  0  0  0  0  0
    6.4930   70.5130   67.1070 Cl  0  0  0  0  0  0  0  0  0  0  0  0
    4.6830   69.5450   65.3060 C   0  0  0  0  0  0  0  0  0  0  0  0
    5.5830   69.6150   64.4750 O   0  0  0  0  0  0  0  0  0  0  0  0
    3.3270   69.0550   64.9380 C   0  0  0  0  0  0  0  0  0  0  0  0
    2.3460   68.9790   65.8420 C   0  0  0  0  0  0  0  0  0  0  0  0
    2.5650   69.3810   67.2560 C   0  0  0  0  0  0  0  0  0  0  0  0
    1.6650   69.3110   68.0870 O   0  0  0  0  0  0  0  0  0  0  0  0
    0.7540   68.4140   65.4550 Cl  0  0  0  0  0  0  0  0  0  0  0  0
    3.1140   68.5960   63.2790 Cl  0  0  0  0  0  0  0  0  0  0  0  0
  2  1  1  0
  3  2  2  0
  4  3  1  0
  5  3  1  0
  6  5  2  0
  7  5  1  0
  8  7  2  0
  9  8  1  0
  9  2  1  0
 10  9  2  0
 11  8  1  0
 12  7  1  0
M  END
>  <score>  (1) 
-6.517

$$$$
=
     RDKit          3D

 12 12  0  0  0  0  0  0  0  0999 V2000
    3.0000   68.4330   63.2460 Cl  0  0  0  0  0  0  0  0  0  0  0  0
    3.2210   68.9440   64.8880 C   0  0  0  0  0  0  0  0  0  0  0  0
    2.2300   68.9440   65.7860 C   0  0  0  0  0  0  0  0  0  0  0  0
    0.6190   68.4340   65.4060 Cl  0  0  0  0  0  0  0  0  0  0  0  0
    2.4560   69.3890   67.1860 C   0  0  0  0  0  0  0  0  0  0  0  0
    1.5480   69.3900   68.0110 O   0  0  0  0  0  0  0  0  0  0  0  0
    3.8290   69.8340   67.5480 C   0  0  0  0  0  0  0  0  0  0  0  0
    4.8190   69.8340   66.6500 C   0  0  0  0  0  0  0  0  0  0  0  0
    4.5930   69.3890   65.2500 C   0  0  0  0  0  0  0  0  0  0  0  0
    5.5020   69.3880   64.4250 O   0  0  0  0  0  0  0  0  0  0  0  0
    6.4310   70.3440   67.0300 Cl  0  0  0  0  0  0  0  0  0  0  0  0
    4.0500   70.3450   69.1900 Cl  0  0  0  0  0  0  0  0  0  0  0  0
  2  1  1  0
  3  2  2  0
  4  3  1  0
  5  3  1  0
  6  5  2  0
  7  5  1  0
  8  7  2  0
  9  8  1  0
  9  2  1  0
 10  9  2  0
 11  8  1  0
 12  7  1  0
M  END
>  <score>  (2) 
-6.493

$$$$
=
     RDKit          3D

 12 12  0  0  0  0  0  0  0  0999 V2000
    6.6420   70.4070   67.0540 Cl  0  0  0  0  0  0  0  0  0  0  0  0
    5.0120   69.9280   66.7090 C   0  0  0  0  0  0  0  0  0  0  0  0
    4.0400   69.9530   67.6270 C   0  0  0  0  0  0  0  0  0  0  0  0
    4.3050   70.4670   69.2600 Cl  0  0  0  0  0  0  0  0  0  0  0  0
    2.6530   69.5350   67.2950 C   0  0  0  0  0  0  0  0  0  0  0  0
    1.7610   69.5570   68.1370 O   0  0  0  0  0  0  0  0  0  0  0  0
    2.3900   69.0870   65.9010 C   0  0  0  0  0  0  0  0  0  0  0  0
    3.3620   69.0620   64.9830 C   0  0  0  0  0  0  0  0  0  0  0  0
    4.7490   69.4800   65.3150 C   0  0  0  0  0  0  0  0  0  0  0  0
    5.6410   69.4580   64.4730 O   0  0  0  0  0  0  0  0  0  0  0  0
    3.0970   68.5480   63.3500 Cl  0  0  0  0  0  0  0  0  0  0  0  0
    0.7590   68.6070   65.5560 Cl  0  0  0  0  0  0  0  0  0  0  0  0
  2  1  1  0
  3  2  2  0
  4  3  1  0
  5  3  1  0
  6  5  2  0
  7  5  1  0
  8  7  2  0
  9  8  1  0
  9  2  1  0
 10  9  2  0
 11  8  1  0
 12  7  1  0
M  END
>  <score>  (3) 
-6.455

$$$$
=
     RDKit          3D

 12 12  0  0  0  0  0  0  0  0999 V2000
    2.6560   69.5250   68.6170 Cl  0  0  0  0  0  0  0  0  0  0  0  0
    2.5710   69.1990   66.9150 C   0  0  0  0  0  0  0  0  0  0  0  0
    1.4680   68.7350   66.3210 C   0  0  0  0  0  0  0  0  0  0  0  0
    0.0030   68.4080   67.1860 Cl  0  0  0  0  0  0  0  0  0  0  0  0
    1.4310   68.4670   64.8590 C   0  0  0  0  0  0  0  0  0  0  0  0
    0.4190   68.0400   64.3130 O   0  0  0  0  0  0  0  0  0  0  0  0
    2.6730   68.7360   64.0850 C   0  0  0  0  0  0  0  0  0  0  0  0
    3.7770   69.2000   64.6800 C   0  0  0  0  0  0  0  0  0  0  0  0
    3.8130   69.4680   66.1410 C   0  0  0  0  0  0  0  0  0  0  0  0
    4.8250   69.8950   66.6870 O   0  0  0  0  0  0  0  0  0  0  0  0
    5.2420   69.5270   63.8140 Cl  0  0  0  0  0  0  0  0  0  0  0  0
    2.5880   68.4100   62.3840 Cl  0  0  0  0  0  0  0  0  0  0  0  0
  2  1  1  0
  3  2  2  0
  4  3  1  0
  5  3  1  0
  6  5  2  0
  7  5  1  0
  8  7  2  0
  9  8  1  0
  9  2  1  0
 10  9  2  0
 11  8  1  0
 12  7  1  0
M  END
>  <score>  (4) 
-6.448

$$$$
=
     RDKit          3D

 12 12  0  0  0  0  0  0  0  0999 V2000
   -0.0010   68.3340   66.9020 Cl  0  0  0  0  0  0  0  0  0  0  0  0
    1.4900   68.6810   66.0860 C   0  0  0  0  0  0  0  0  0  0  0  0
    2.5750   69.1340   66.7210 C   0  0  0  0  0  0  0  0  0  0  0  0
    2.6100   69.4240   68.4290 Cl  0  0  0  0  0  0  0  0  0  0  0  0
    3.8360   69.4220   65.9890 C   0  0  0  0  0  0  0  0  0  0  0  0
    4.8320   69.8380   66.5720 O   0  0  0  0  0  0  0  0  0  0  0  0
    3.8420   69.1850   64.5200 C   0  0  0  0  0  0  0  0  0  0  0  0
    2.7560   68.7320   63.8840 C   0  0  0  0  0  0  0  0  0  0  0  0
    1.4950   68.4450   64.6170 C   0  0  0  0  0  0  0  0  0  0  0  0
    0.4990   68.0290   64.0340 O   0  0  0  0  0  0  0  0  0  0  0  0
    2.7220   68.4430   62.1760 Cl  0  0  0  0  0  0  0  0  0  0  0  0
    5.3320   69.5320   63.7040 Cl  0  0  0  0  0  0  0  0  0  0  0  0
  2  1  1  0
  3  2  2  0
  4  3  1  0
  5  3  1  0
  6  5  2  0
  7  5  1  0
  8  7  2  0
  9  8  1  0
  9  2  1  0
 10  9  2  0
 11  8  1  0
 12  7  1  0
M  END
>  <score>  (5) 
-6.427

$$$$
=
     RDKit          3D

 12 12  0  0  0  0  0  0  0  0999 V2000
    0.8300   68.5810   65.1410 Cl  0  0  0  0  0  0  0  0  0  0  0  0
    2.4020   69.0610   65.6960 C   0  0  0  0  0  0  0  0  0  0  0  0
    3.4750   69.0840   64.8990 C   0  0  0  0  0  0  0  0  0  0  0  0
    3.4110   68.6380   63.2260 Cl  0  0  0  0  0  0  0  0  0  0  0  0
    4.8070   69.5000   65.4090 C   0  0  0  0  0  0  0  0  0  0  0  0
    5.7930   69.5220   64.6790 O   0  0  0  0  0  0  0  0  0  0  0  0
    4.8990   69.8890   66.8430 C   0  0  0  0  0  0  0  0  0  0  0  0
    3.8250   69.8660   67.6390 C   0  0  0  0  0  0  0  0  0  0  0  0
    2.4930   69.4490   67.1290 C   0  0  0  0  0  0  0  0  0  0  0  0
    1.5080   69.4280   67.8600 O   0  0  0  0  0  0  0  0  0  0  0  0
    3.8890   70.3120   69.3120 Cl  0  0  0  0  0  0  0  0  0  0  0  0
    6.4700   70.3680   67.3970 Cl  0  0  0  0  0  0  0  0  0  0  0  0
  2  1  1  0
  3  2  2  0
  4  3  1  0
  5  3  1  0
  6  5  2  0
  7  5  1  0
  8  7  2  0
  9  8  1  0
  9  2  1  0
 10  9  2  0
 11  8  1  0
 12  7  1  0
M  END
>  <score>  (6) 
-6.409

$$$$
=
     RDKit          3D

 12 12  0  0  0  0  0  0  0  0999 V2000
    2.6720   68.3480   62.1550 Cl  0  0  0  0  0  0  0  0  0  0  0  0
    2.7220   68.6800   63.8560 C   0  0  0  0  0  0  0  0  0  0  0  0
    3.8120   69.1480   64.4710 C   0  0  0  0  0  0  0  0  0  0  0  0
    5.2940   69.4730   63.6350 Cl  0  0  0  0  0  0  0  0  0  0  0  0
    3.8190   69.4220   65.9320 C   0  0  0  0  0  0  0  0  0  0  0  0
    4.8200   69.8510   66.4980 O   0  0  0  0  0  0  0  0  0  0  0  0
    2.5630   69.1530   66.6830 C   0  0  0  0  0  0  0  0  0  0  0  0
    1.4720   68.6850   66.0680 C   0  0  0  0  0  0  0  0  0  0  0  0
    1.4650   68.4110   64.6070 C   0  0  0  0  0  0  0  0  0  0  0  0
    0.4650   67.9820   64.0420 O   0  0  0  0  0  0  0  0  0  0  0  0
   -0.0100   68.3590   66.9040 Cl  0  0  0  0  0  0  0  0  0  0  0  0
    2.6120   69.4850   68.3840 Cl  0  0  0  0  0  0  0  0  0  0  0  0
  2  1  1  0
  3  2  2  0
  4  3  1  0
  5  3  1  0
  6  5  2  0
  7  5  1  0
  8  7  2  0
  9  8  1  0
  9  2  1  0
 10  9  2  0
 11  8  1  0
 12  7  1  0
M  END
>  <score>  (7) 
-6.408

$$$$
=
     RDKit          3D

 12 12  0  0  0  0  0  0  0  0999 V2000
    5.5550   69.4470   63.2450 Cl  0  0  0  0  0  0  0  0  0  0  0  0
    4.0500   69.1150   64.0410 C   0  0  0  0  0  0  0  0  0  0  0  0
    2.9770   68.6490   63.3950 C   0  0  0  0  0  0  0  0  0  0  0  0
    2.9730   68.3260   61.6930 Cl  0  0  0  0  0  0  0  0  0  0  0  0
    1.7030   68.3760   64.1100 C   0  0  0  0  0  0  0  0  0  0  0  0
    0.7170   67.9480   63.5180 O   0  0  0  0  0  0  0  0  0  0  0  0
    1.6700   68.6430   65.5730 C   0  0  0  0  0  0  0  0  0  0  0  0
    2.7440   69.1090   66.2190 C   0  0  0  0  0  0  0  0  0  0  0  0
    4.0180   69.3820   65.5040 C   0  0  0  0  0  0  0  0  0  0  0  0
    5.0030   69.8100   66.0960 O   0  0  0  0  0  0  0  0  0  0  0  0
    2.7470   69.4320   67.9210 Cl  0  0  0  0  0  0  0  0  0  0  0  0
    0.1660   68.3110   66.3690 Cl  0  0  0  0  0  0  0  0  0  0  0  0
  2  1  1  0
  3  2  2  0
  4  3  1  0
  5  3  1  0
  6  5  2  0
  7  5  1  0
  8  7  2  0
  9  8  1  0
  9  2  1  0
 10  9  2  0
 11  8  1  0
 12  7  1  0
M  END
>  <score>  (8) 
-6.391

$$$$
=
     RDKit          3D

 12 12  0  0  0  0  0  0  0  0999 V2000
    3.3980   68.6960   61.1850 Cl  0  0  0  0  0  0  0  0  0  0  0  0
    3.1280   68.8120   62.8940 C   0  0  0  0  0  0  0  0  0  0  0  0
    1.9200   68.6670   63.4480 C   0  0  0  0  0  0  0  0  0  0  0  0
    0.4940   68.3470   62.5180 Cl  0  0  0  0  0  0  0  0  0  0  0  0
    1.7260   68.7740   64.9180 C   0  0  0  0  0  0  0  0  0  0  0  0
    0.6180   68.6420   65.4270 O   0  0  0  0  0  0  0  0  0  0  0  0
    2.9310   69.0490   65.7470 C   0  0  0  0  0  0  0  0  0  0  0  0
    4.1390   69.1940   65.1930 C   0  0  0  0  0  0  0  0  0  0  0  0
    4.3320   69.0870   63.7230 C   0  0  0  0  0  0  0  0  0  0  0  0
    5.4410   69.2200   63.2130 O   0  0  0  0  0  0  0  0  0  0  0  0
    5.5650   69.5140   66.1220 Cl  0  0  0  0  0  0  0  0  0  0  0  0
    2.6610   69.1660   67.4560 Cl  0  0  0  0  0  0  0  0  0  0  0  0
  2  1  1  0
  3  2  2  0
  4  3  1  0
  5  3  1  0
  6  5  2  0
  7  5  1  0
  8  7  2  0
  9  8  1  0
  9  2  1  0
 10  9  2  0
 11  8  1  0
 12  7  1  0
M  END
>  <score>  (9) 
-6.317

$$$$
