=
     RDKit          3D

 34 34  0  0  0  0  0  0  0  0999 V2000
    4.3380   67.6560   62.1190 C   0  0  0  0  0  0  0  0  0  0  0  0
    4.2640   66.4350   62.0610 O   0  0  0  0  0  0  0  0  0  0  0  0
    3.1620   68.5080   61.6840 C   0  0  0  0  0  0  0  0  0  0  0  0
    3.2220   69.0330   60.5780 O   0  0  0  0  0  0  0  0  0  0  0  0
    1.9590   68.6440   62.5480 C   0  0  0  0  0  0  0  0  0  0  0  0
    1.9530   68.2790   63.9000 C   0  0  0  0  0  0  0  0  0  0  0  0
    0.7850   68.4080   64.6560 C   0  0  0  0  0  0  0  0  0  0  0  0
   -0.3800   68.8990   64.0700 C   0  0  0  0  0  0  0  0  0  0  0  0
   -0.3820   69.2660   62.7250 C   0  0  0  0  0  0  0  0  0  0  0  0
    0.7820   69.1380   61.9670 C   0  0  0  0  0  0  0  0  0  0  0  0
    5.5470   68.3960   62.6450 C   0  0  0  0  0  0  0  0  0  0  0  0
    5.1940   69.4790   63.6610 C   0  0  0  0  0  0  0  0  0  0  0  0
    5.5170   69.0590   65.0980 C   0  0  0  0  0  0  0  0  0  0  0  0
    4.4570   69.5710   66.0760 C   0  0  0  0  0  0  0  0  0  0  0  0
    6.5620   70.3360   67.2980 C   0  0  0  0  0  0  0  0  0  0  0  0
    5.0500   70.1770   67.3500 C   0  0  0  0  0  0  0  0  0  0  0  0
    2.8695   67.8900   64.3677 H   0  0  0  0  0  0  0  0  0  0  0  0
    0.7852   68.1208   65.7179 H   0  0  0  0  0  0  0  0  0  0  0  0
   -1.2978   68.9970   64.6684 H   0  0  0  0  0  0  0  0  0  0  0  0
   -1.3004   69.6561   62.2621 H   0  0  0  0  0  0  0  0  0  0  0  0
    0.7767   69.4267   60.9056 H   0  0  0  0  0  0  0  0  0  0  0  0
    6.2188   67.6703   63.1267 H   0  0  0  0  0  0  0  0  0  0  0  0
    6.0235   68.8945   61.7880 H   0  0  0  0  0  0  0  0  0  0  0  0
    5.7657   70.3878   63.4216 H   0  0  0  0  0  0  0  0  0  0  0  0
    4.1102   69.6566   63.5990 H   0  0  0  0  0  0  0  0  0  0  0  0
    5.5537   67.9609   65.1512 H   0  0  0  0  0  0  0  0  0  0  0  0
    6.4880   69.4936   65.3779 H   0  0  0  0  0  0  0  0  0  0  0  0
    3.8577   70.3417   65.5691 H   0  0  0  0  0  0  0  0  0  0  0  0
    3.8493   68.7058   66.3795 H   0  0  0  0  0  0  0  0  0  0  0  0
    6.9617   70.3780   68.3220 H   0  0  0  0  0  0  0  0  0  0  0  0
    7.0027   69.4793   66.7672 H   0  0  0  0  0  0  0  0  0  0  0  0
    6.8149   71.2657   66.7672 H   0  0  0  0  0  0  0  0  0  0  0  0
    4.6005   71.1688   67.5060 H   0  0  0  0  0  0  0  0  0  0  0  0
    4.8252   69.4836   68.1738 H   0  0  0  0  0  0  0  0  0  0  0  0
  2  1  2  0
  3  1  1  0
  4  3  2  0
  5  3  1  0
  6  5  2  0
  7  6  1  0
  8  7  2  0
  9  8  1  0
 10  9  2  0
 10  5  1  0
 11  1  1  0
 12 11  1  0
 13 12  1  0
 14 13  1  0
 16 14  1  0
 16 15  1  0
  6 17  1  0
  7 18  1  0
  8 19  1  0
  9 20  1  0
 10 21  1  0
 11 22  1  0
 11 23  1  0
 12 24  1  0
 12 25  1  0
 13 26  1  0
 13 27  1  0
 14 28  1  0
 14 29  1  0
 15 30  1  0
 15 31  1  0
 15 32  1  0
 16 33  1  0
 16 34  1  0
M  END
>  <score>  (1) 
-7.862

$$$$
=
     RDKit          3D

 34 34  0  0  0  0  0  0  0  0999 V2000
    4.8360   68.9580   63.7320 C   0  0  0  0  0  0  0  0  0  0  0  0
    5.3630   69.4740   62.7550 O   0  0  0  0  0  0  0  0  0  0  0  0
    3.6800   67.9950   63.5490 C   0  0  0  0  0  0  0  0  0  0  0  0
    3.8800   66.8150   63.8170 O   0  0  0  0  0  0  0  0  0  0  0  0
    2.3440   68.4820   63.1180 C   0  0  0  0  0  0  0  0  0  0  0  0
    2.0810   68.9170   61.8130 C   0  0  0  0  0  0  0  0  0  0  0  0
    0.8090   69.3870   61.4730 C   0  0  0  0  0  0  0  0  0  0  0  0
   -0.2040   69.4260   62.4280 C   0  0  0  0  0  0  0  0  0  0  0  0
    0.0490   68.9940   63.7290 C   0  0  0  0  0  0  0  0  0  0  0  0
    1.3170   68.5240   64.0730 C   0  0  0  0  0  0  0  0  0  0  0  0
    5.2970   69.1940   65.1530 C   0  0  0  0  0  0  0  0  0  0  0  0
    4.1460   69.4290   66.1280 C   0  0  0  0  0  0  0  0  0  0  0  0
    4.6120   70.0710   67.4380 C   0  0  0  0  0  0  0  0  0  0  0  0
    6.1270   70.2810   67.4430 C   0  0  0  0  0  0  0  0  0  0  0  0
    7.5370   70.8920   69.4810 C   0  0  0  0  0  0  0  0  0  0  0  0
    6.5820   71.3820   68.4030 C   0  0  0  0  0  0  0  0  0  0  0  0
    2.8768   68.8888   61.0541 H   0  0  0  0  0  0  0  0  0  0  0  0
    0.6073   69.7275   60.4467 H   0  0  0  0  0  0  0  0  0  0  0  0
   -1.2030   69.7974   62.1559 H   0  0  0  0  0  0  0  0  0  0  0  0
   -0.7505   69.0236   64.4840 H   0  0  0  0  0  0  0  0  0  0  0  0
    1.5129   68.1839   65.1006 H   0  0  0  0  0  0  0  0  0  0  0  0
    5.8639   68.3127   65.4874 H   0  0  0  0  0  0  0  0  0  0  0  0
    5.9133   70.1051   65.1494 H   0  0  0  0  0  0  0  0  0  0  0  0
    3.4096   70.0929   65.6517 H   0  0  0  0  0  0  0  0  0  0  0  0
    3.7079   68.4499   66.3717 H   0  0  0  0  0  0  0  0  0  0  0  0
    4.1144   71.0448   67.5572 H   0  0  0  0  0  0  0  0  0  0  0  0
    4.3510   69.3978   68.2679 H   0  0  0  0  0  0  0  0  0  0  0  0
    6.6093   69.3379   67.7396 H   0  0  0  0  0  0  0  0  0  0  0  0
    6.4161   70.5932   66.4286 H   0  0  0  0  0  0  0  0  0  0  0  0
    7.1133   71.1094   70.4726 H   0  0  0  0  0  0  0  0  0  0  0  0
    7.6841   69.8071   69.3750 H   0  0  0  0  0  0  0  0  0  0  0  0
    8.5041   71.4052   69.3750 H   0  0  0  0  0  0  0  0  0  0  0  0
    7.0882   72.1652   67.8195 H   0  0  0  0  0  0  0  0  0  0  0  0
    5.6830   71.7570   68.9140 H   0  0  0  0  0  0  0  0  0  0  0  0
  2  1  2  0
  3  1  1  0
  4  3  2  0
  5  3  1  0
  6  5  2  0
  7  6  1  0
  8  7  2  0
  9  8  1  0
 10  9  2  0
 10  5  1  0
 11  1  1  0
 12 11  1  0
 13 12  1  0
 14 13  1  0
 16 14  1  0
 16 15  1  0
  6 17  1  0
  7 18  1  0
  8 19  1  0
  9 20  1  0
 10 21  1  0
 11 22  1  0
 11 23  1  0
 12 24  1  0
 12 25  1  0
 13 26  1  0
 13 27  1  0
 14 28  1  0
 14 29  1  0
 15 30  1  0
 15 31  1  0
 15 32  1  0
 16 33  1  0
 16 34  1  0
M  END
>  <score>  (2) 
-7.625

$$$$
=
     RDKit          3D

 34 34  0  0  0  0  0  0  0  0999 V2000
    0.8450   67.8360   65.5360 C   0  0  0  0  0  0  0  0  0  0  0  0
    1.0300   66.6270   65.5890 O   0  0  0  0  0  0  0  0  0  0  0  0
    0.9750   68.5630   64.2130 C   0  0  0  0  0  0  0  0  0  0  0  0
   -0.0410   69.0600   63.7380 O   0  0  0  0  0  0  0  0  0  0  0  0
    2.2990   68.7160   63.5540 C   0  0  0  0  0  0  0  0  0  0  0  0
    2.4740   68.5960   62.1700 C   0  0  0  0  0  0  0  0  0  0  0  0
    3.7480   68.7270   61.6100 C   0  0  0  0  0  0  0  0  0  0  0  0
    4.8510   68.9770   62.4250 C   0  0  0  0  0  0  0  0  0  0  0  0
    4.6840   69.0990   63.8030 C   0  0  0  0  0  0  0  0  0  0  0  0
    3.4140   68.9690   64.3660 C   0  0  0  0  0  0  0  0  0  0  0  0
    0.4470   68.6740   66.7290 C   0  0  0  0  0  0  0  0  0  0  0  0
    1.4620   68.6200   67.8690 C   0  0  0  0  0  0  0  0  0  0  0  0
    2.7090   69.4600   67.5800 C   0  0  0  0  0  0  0  0  0  0  0  0
    3.1820   70.1980   68.8350 C   0  0  0  0  0  0  0  0  0  0  0  0
    5.3310   70.2550   67.4600 C   0  0  0  0  0  0  0  0  0  0  0  0
    4.6470   70.6350   68.7640 C   0  0  0  0  0  0  0  0  0  0  0  0
    1.6073   68.3983   61.5222 H   0  0  0  0  0  0  0  0  0  0  0  0
    3.8807   68.6325   60.5221 H   0  0  0  0  0  0  0  0  0  0  0  0
    5.8522   69.0779   61.9807 H   0  0  0  0  0  0  0  0  0  0  0  0
    5.5534   69.2978   64.4469 H   0  0  0  0  0  0  0  0  0  0  0  0
    3.2865   69.0656   65.4543 H   0  0  0  0  0  0  0  0  0  0  0  0
    0.3433   69.7194   66.4027 H   0  0  0  0  0  0  0  0  0  0  0  0
   -0.4987   68.2651   67.1143 H   0  0  0  0  0  0  0  0  0  0  0  0
    0.9851   68.9991   68.7849 H   0  0  0  0  0  0  0  0  0  0  0  0
    1.7815   67.5738   67.9845 H   0  0  0  0  0  0  0  0  0  0  0  0
    3.5140   68.7980   67.2281 H   0  0  0  0  0  0  0  0  0  0  0  0
    2.4565   70.2056   66.8117 H   0  0  0  0  0  0  0  0  0  0  0  0
    2.5568   71.0929   68.9703 H   0  0  0  0  0  0  0  0  0  0  0  0
    3.0913   69.4978   69.6785 H   0  0  0  0  0  0  0  0  0  0  0  0
    6.2733   69.7315   67.6792 H   0  0  0  0  0  0  0  0  0  0  0  0
    4.6711   69.5942   66.8788 H   0  0  0  0  0  0  0  0  0  0  0  0
    5.5434   71.1644   66.8788 H   0  0  0  0  0  0  0  0  0  0  0  0
    4.6898   71.7287   68.8737 H   0  0  0  0  0  0  0  0  0  0  0  0
    5.1797   70.1133   69.5727 H   0  0  0  0  0  0  0  0  0  0  0  0
  2  1  2  0
  3  1  1  0
  4  3  2  0
  5  3  1  0
  6  5  2  0
  7  6  1  0
  8  7  2  0
  9  8  1  0
 10  9  2  0
 10  5  1  0
 11  1  1  0
 12 11  1  0
 13 12  1  0
 14 13  1  0
 16 14  1  0
 16 15  1  0
  6 17  1  0
  7 18  1  0
  8 19  1  0
  9 20  1  0
 10 21  1  0
 11 22  1  0
 11 23  1  0
 12 24  1  0
 12 25  1  0
 13 26  1  0
 13 27  1  0
 14 28  1  0
 14 29  1  0
 15 30  1  0
 15 31  1  0
 15 32  1  0
 16 33  1  0
 16 34  1  0
M  END
>  <score>  (3) 
-7.438

$$$$
=
     RDKit          3D

 34 34  0  0  0  0  0  0  0  0999 V2000
    0.8680   68.6420   67.4230 C   0  0  0  0  0  0  0  0  0  0  0  0
   -0.1570   69.2930   67.5810 O   0  0  0  0  0  0  0  0  0  0  0  0
    0.9650   67.6480   66.2840 C   0  0  0  0  0  0  0  0  0  0  0  0
    0.0410   66.8530   66.1470 O   0  0  0  0  0  0  0  0  0  0  0  0
    2.1110   67.6830   65.3380 C   0  0  0  0  0  0  0  0  0  0  0  0
    2.5560   68.8640   64.7310 C   0  0  0  0  0  0  0  0  0  0  0  0
    3.6250   68.8310   63.8310 C   0  0  0  0  0  0  0  0  0  0  0  0
    4.2530   67.6240   63.5310 C   0  0  0  0  0  0  0  0  0  0  0  0
    3.8170   66.4440   64.1310 C   0  0  0  0  0  0  0  0  0  0  0  0
    2.7510   66.4720   65.0300 C   0  0  0  0  0  0  0  0  0  0  0  0
    2.0950   68.7930   68.2920 C   0  0  0  0  0  0  0  0  0  0  0  0
    2.5860   70.2350   68.3970 C   0  0  0  0  0  0  0  0  0  0  0  0
    4.1040   70.3230   68.5850 C   0  0  0  0  0  0  0  0  0  0  0  0
    4.8420   70.0310   67.2770 C   0  0  0  0  0  0  0  0  0  0  0  0
    6.7870   70.9750   68.6320 C   0  0  0  0  0  0  0  0  0  0  0  0
    6.3560   70.2280   67.3790 C   0  0  0  0  0  0  0  0  0  0  0  0
    2.0632   69.8197   64.9630 H   0  0  0  0  0  0  0  0  0  0  0  0
    3.9718   69.7615   63.3578 H   0  0  0  0  0  0  0  0  0  0  0  0
    5.0927   67.6024   62.8208 H   0  0  0  0  0  0  0  0  0  0  0  0
    4.3134   65.4910   63.8956 H   0  0  0  0  0  0  0  0  0  0  0  0
    2.4093   65.5385   65.5011 H   0  0  0  0  0  0  0  0  0  0  0  0
    1.8539   68.4316   69.3026 H   0  0  0  0  0  0  0  0  0  0  0  0
    2.9002   68.2076   67.8240 H   0  0  0  0  0  0  0  0  0  0  0  0
    2.3127   70.7692   67.4751 H   0  0  0  0  0  0  0  0  0  0  0  0
    2.1119   70.6872   69.2806 H   0  0  0  0  0  0  0  0  0  0  0  0
    4.3651   71.3358   68.9258 H   0  0  0  0  0  0  0  0  0  0  0  0
    4.4065   69.5726   69.3303 H   0  0  0  0  0  0  0  0  0  0  0  0
    4.6443   68.9877   66.9900 H   0  0  0  0  0  0  0  0  0  0  0  0
    4.4705   70.7448   66.5271 H   0  0  0  0  0  0  0  0  0  0  0  0
    6.4640   70.4151   69.5220 H   0  0  0  0  0  0  0  0  0  0  0  0
    7.8823   71.0762   68.6400 H   0  0  0  0  0  0  0  0  0  0  0  0
    6.3264   71.9739   68.6400 H   0  0  0  0  0  0  0  0  0  0  0  0
    6.8366   69.2386   67.3807 H   0  0  0  0  0  0  0  0  0  0  0  0
    6.6619   70.8386   66.5167 H   0  0  0  0  0  0  0  0  0  0  0  0
  2  1  2  0
  3  1  1  0
  4  3  2  0
  5  3  1  0
  6  5  2  0
  7  6  1  0
  8  7  2  0
  9  8  1  0
 10  9  2  0
 10  5  1  0
 11  1  1  0
 12 11  1  0
 13 12  1  0
 14 13  1  0
 16 14  1  0
 16 15  1  0
  6 17  1  0
  7 18  1  0
  8 19  1  0
  9 20  1  0
 10 21  1  0
 11 22  1  0
 11 23  1  0
 12 24  1  0
 12 25  1  0
 13 26  1  0
 13 27  1  0
 14 28  1  0
 14 29  1  0
 15 30  1  0
 15 31  1  0
 15 32  1  0
 16 33  1  0
 16 34  1  0
M  END
>  <score>  (4) 
-7.42

$$$$
=
     RDKit          3D

 34 34  0  0  0  0  0  0  0  0999 V2000
    0.6970   67.5370   67.9060 C   0  0  0  0  0  0  0  0  0  0  0  0
    0.0850   66.9440   67.0260 O   0  0  0  0  0  0  0  0  0  0  0  0
    1.0440   69.0020   67.7310 C   0  0  0  0  0  0  0  0  0  0  0  0
    0.1170   69.8050   67.7140 O   0  0  0  0  0  0  0  0  0  0  0  0
    2.4610   69.4440   67.6470 C   0  0  0  0  0  0  0  0  0  0  0  0
    3.1080   70.1160   68.6910 C   0  0  0  0  0  0  0  0  0  0  0  0
    4.4350   70.5280   68.5450 C   0  0  0  0  0  0  0  0  0  0  0  0
    5.1220   70.2750   67.3590 C   0  0  0  0  0  0  0  0  0  0  0  0
    4.4860   69.6070   66.3150 C   0  0  0  0  0  0  0  0  0  0  0  0
    3.1610   69.1930   66.4570 C   0  0  0  0  0  0  0  0  0  0  0  0
    1.1110   66.8980   69.2110 C   0  0  0  0  0  0  0  0  0  0  0  0
    0.0050   66.0610   69.8500 C   0  0  0  0  0  0  0  0  0  0  0  0
    0.5090   65.2350   71.0380 C   0  0  0  0  0  0  0  0  0  0  0  0
    1.2600   63.9880   70.5670 C   0  0  0  0  0  0  0  0  0  0  0  0
    3.5020   62.7690   70.5660 C   0  0  0  0  0  0  0  0  0  0  0  0
    2.7770   64.0960   70.7360 C   0  0  0  0  0  0  0  0  0  0  0  0
    2.5702   70.3201   69.6286 H   0  0  0  0  0  0  0  0  0  0  0  0
    4.9394   71.0539   69.3690 H   0  0  0  0  0  0  0  0  0  0  0  0
    6.1661   70.6027   67.2474 H   0  0  0  0  0  0  0  0  0  0  0  0
    5.0280   69.4060   65.3792 H   0  0  0  0  0  0  0  0  0  0  0  0
    2.6618   68.6662   65.6304 H   0  0  0  0  0  0  0  0  0  0  0  0
    1.9770   66.2467   69.0218 H   0  0  0  0  0  0  0  0  0  0  0  0
    1.3504   67.7118   69.9113 H   0  0  0  0  0  0  0  0  0  0  0  0
   -0.7902   66.7353   70.2007 H   0  0  0  0  0  0  0  0  0  0  0  0
   -0.3672   65.3600   69.0884 H   0  0  0  0  0  0  0  0  0  0  0  0
    1.1868   65.8545   71.6437 H   0  0  0  0  0  0  0  0  0  0  0  0
   -0.3594   64.9145   71.6323 H   0  0  0  0  0  0  0  0  0  0  0  0
    0.9042   63.1253   71.1493 H   0  0  0  0  0  0  0  0  0  0  0  0
    1.0590   63.8730   69.4916 H   0  0  0  0  0  0  0  0  0  0  0  0
    3.7322   62.3476   71.5556 H   0  0  0  0  0  0  0  0  0  0  0  0
    2.8607   62.0695   70.0097 H   0  0  0  0  0  0  0  0  0  0  0  0
    4.4371   62.9307   70.0097 H   0  0  0  0  0  0  0  0  0  0  0  0
    3.1617   64.8018   69.9851 H   0  0  0  0  0  0  0  0  0  0  0  0
    2.9647   64.4382   71.7644 H   0  0  0  0  0  0  0  0  0  0  0  0
  2  1  2  0
  3  1  1  0
  4  3  2  0
  5  3  1  0
  6  5  2  0
  7  6  1  0
  8  7  2  0
  9  8  1  0
 10  9  2  0
 10  5  1  0
 11  1  1  0
 12 11  1  0
 13 12  1  0
 14 13  1  0
 16 14  1  0
 16 15  1  0
  6 17  1  0
  7 18  1  0
  8 19  1  0
  9 20  1  0
 10 21  1  0
 11 22  1  0
 11 23  1  0
 12 24  1  0
 12 25  1  0
 13 26  1  0
 13 27  1  0
 14 28  1  0
 14 29  1  0
 15 30  1  0
 15 31  1  0
 15 32  1  0
 16 33  1  0
 16 34  1  0
M  END
>  <score>  (5) 
-7.335

$$$$
=
     RDKit          3D

 34 34  0  0  0  0  0  0  0  0999 V2000
    5.0150   68.9010   63.3820 C   0  0  0  0  0  0  0  0  0  0  0  0
    5.5520   69.4500   62.4290 O   0  0  0  0  0  0  0  0  0  0  0  0
    3.7950   68.0290   63.1630 C   0  0  0  0  0  0  0  0  0  0  0  0
    2.8850   68.4890   62.4820 O   0  0  0  0  0  0  0  0  0  0  0  0
    3.7390   66.6460   63.7070 C   0  0  0  0  0  0  0  0  0  0  0  0
    2.9070   66.2850   64.7730 C   0  0  0  0  0  0  0  0  0  0  0  0
    2.9150   64.9730   65.2570 C   0  0  0  0  0  0  0  0  0  0  0  0
    3.7510   64.0180   64.6820 C   0  0  0  0  0  0  0  0  0  0  0  0
    4.5820   64.3700   63.6190 C   0  0  0  0  0  0  0  0  0  0  0  0
    4.5770   65.6780   63.1340 C   0  0  0  0  0  0  0  0  0  0  0  0
    5.5210   69.0060   64.8020 C   0  0  0  0  0  0  0  0  0  0  0  0
    4.5700   69.7620   65.7260 C   0  0  0  0  0  0  0  0  0  0  0  0
    5.0770   69.8130   67.1710 C   0  0  0  0  0  0  0  0  0  0  0  0
    6.4900   70.3950   67.2420 C   0  0  0  0  0  0  0  0  0  0  0  0
    7.4560   70.8020   69.5680 C   0  0  0  0  0  0  0  0  0  0  0  0
    6.6800   71.3820   68.3960 C   0  0  0  0  0  0  0  0  0  0  0  0
    2.2454   67.0349   65.2311 H   0  0  0  0  0  0  0  0  0  0  0  0
    2.2589   64.6939   66.0947 H   0  0  0  0  0  0  0  0  0  0  0  0
    3.7554   62.9873   65.0663 H   0  0  0  0  0  0  0  0  0  0  0  0
    5.2412   63.6166   63.1631 H   0  0  0  0  0  0  0  0  0  0  0  0
    5.2349   65.9522   62.2962 H   0  0  0  0  0  0  0  0  0  0  0  0
    5.6601   67.9898   65.1994 H   0  0  0  0  0  0  0  0  0  0  0  0
    6.4643   69.5710   64.7714 H   0  0  0  0  0  0  0  0  0  0  0  0
    4.4596   70.7912   65.3538 H   0  0  0  0  0  0  0  0  0  0  0  0
    3.6081   69.2283   65.7267 H   0  0  0  0  0  0  0  0  0  0  0  0
    4.3995   70.4423   67.7668 H   0  0  0  0  0  0  0  0  0  0  0  0
    5.1028   68.7871   67.5672 H   0  0  0  0  0  0  0  0  0  0  0  0
    7.2028   69.5670   67.3696 H   0  0  0  0  0  0  0  0  0  0  0  0
    6.6619   70.9490   66.3074 H   0  0  0  0  0  0  0  0  0  0  0  0
    7.0029   71.1407   70.5114 H   0  0  0  0  0  0  0  0  0  0  0  0
    7.4256   69.7035   69.5202 H   0  0  0  0  0  0  0  0  0  0  0  0
    8.5010   71.1423   69.5202 H   0  0  0  0  0  0  0  0  0  0  0  0
    7.2249   72.2595   68.0176 H   0  0  0  0  0  0  0  0  0  0  0  0
    5.6780   71.6419   68.7680 H   0  0  0  0  0  0  0  0  0  0  0  0
  2  1  2  0
  3  1  1  0
  4  3  2  0
  5  3  1  0
  6  5  2  0
  7  6  1  0
  8  7  2  0
  9  8  1  0
 10  9  2  0
 10  5  1  0
 11  1  1  0
 12 11  1  0
 13 12  1  0
 14 13  1  0
 16 14  1  0
 16 15  1  0
  6 17  1  0
  7 18  1  0
  8 19  1  0
  9 20  1  0
 10 21  1  0
 11 22  1  0
 11 23  1  0
 12 24  1  0
 12 25  1  0
 13 26  1  0
 13 27  1  0
 14 28  1  0
 14 29  1  0
 15 30  1  0
 15 31  1  0
 15 32  1  0
 16 33  1  0
 16 34  1  0
M  END
>  <score>  (6) 
-7.323

$$$$
=
     RDKit          3D

 34 34  0  0  0  0  0  0  0  0999 V2000
    3.4640   68.5200   64.1980 C   0  0  0  0  0  0  0  0  0  0  0  0
    2.5850   69.0680   63.5450 O   0  0  0  0  0  0  0  0  0  0  0  0
    4.6750   69.3110   64.6500 C   0  0  0  0  0  0  0  0  0  0  0  0
    5.4970   69.6260   63.7960 O   0  0  0  0  0  0  0  0  0  0  0  0
    4.8210   69.7370   66.0670 C   0  0  0  0  0  0  0  0  0  0  0  0
    3.7470   69.7620   66.9650 C   0  0  0  0  0  0  0  0  0  0  0  0
    3.9410   70.1960   68.2800 C   0  0  0  0  0  0  0  0  0  0  0  0
    5.2030   70.6050   68.7050 C   0  0  0  0  0  0  0  0  0  0  0  0
    6.2780   70.5820   67.8180 C   0  0  0  0  0  0  0  0  0  0  0  0
    6.0890   70.1510   66.5040 C   0  0  0  0  0  0  0  0  0  0  0  0
    3.4060   67.0730   64.6300 C   0  0  0  0  0  0  0  0  0  0  0  0
    2.0010   66.6140   65.0130 C   0  0  0  0  0  0  0  0  0  0  0  0
    1.5120   67.2570   66.3150 C   0  0  0  0  0  0  0  0  0  0  0  0
    0.2490   68.0880   66.0810 C   0  0  0  0  0  0  0  0  0  0  0  0
   -1.7860   67.0830   67.2480 C   0  0  0  0  0  0  0  0  0  0  0  0
   -0.6820   68.1280   67.2950 C   0  0  0  0  0  0  0  0  0  0  0  0
    2.7484   69.4395   66.6353 H   0  0  0  0  0  0  0  0  0  0  0  0
    3.0939   70.2145   68.9815 H   0  0  0  0  0  0  0  0  0  0  0  0
    5.3511   70.9460   69.7403 H   0  0  0  0  0  0  0  0  0  0  0  0
    7.2750   70.9034   68.1535 H   0  0  0  0  0  0  0  0  0  0  0  0
    6.9393   70.1357   65.8063 H   0  0  0  0  0  0  0  0  0  0  0  0
    3.7643   66.4461   63.8002 H   0  0  0  0  0  0  0  0  0  0  0  0
    4.0369   66.9744   65.5256 H   0  0  0  0  0  0  0  0  0  0  0  0
    1.3077   66.8847   64.2030 H   0  0  0  0  0  0  0  0  0  0  0  0
    2.0339   65.5254   65.1678 H   0  0  0  0  0  0  0  0  0  0  0  0
    1.2902   66.4648   67.0452 H   0  0  0  0  0  0  0  0  0  0  0  0
    2.3020   67.9226   66.6930 H   0  0  0  0  0  0  0  0  0  0  0  0
    0.5487   69.1178   65.8366 H   0  0  0  0  0  0  0  0  0  0  0  0
   -0.3067   67.6124   65.2594 H   0  0  0  0  0  0  0  0  0  0  0  0
   -2.0754   66.8090   68.2733 H   0  0  0  0  0  0  0  0  0  0  0  0
   -2.6579   67.4944   66.7184 H   0  0  0  0  0  0  0  0  0  0  0  0
   -1.4231   66.1898   66.7184 H   0  0  0  0  0  0  0  0  0  0  0  0
   -0.0808   67.9587   68.2005 H   0  0  0  0  0  0  0  0  0  0  0  0
   -1.1698   69.1139   67.2961 H   0  0  0  0  0  0  0  0  0  0  0  0
  2  1  2  0
  3  1  1  0
  4  3  2  0
  5  3  1  0
  6  5  2  0
  7  6  1  0
  8  7  2  0
  9  8  1  0
 10  9  2  0
 10  5  1  0
 11  1  1  0
 12 11  1  0
 13 12  1  0
 14 13  1  0
 16 14  1  0
 16 15  1  0
  6 17  1  0
  7 18  1  0
  8 19  1  0
  9 20  1  0
 10 21  1  0
 11 22  1  0
 11 23  1  0
 12 24  1  0
 12 25  1  0
 13 26  1  0
 13 27  1  0
 14 28  1  0
 14 29  1  0
 15 30  1  0
 15 31  1  0
 15 32  1  0
 16 33  1  0
 16 34  1  0
M  END
>  <score>  (7) 
-7.211

$$$$
=
     RDKit          3D

 34 34  0  0  0  0  0  0  0  0999 V2000
    4.9370   68.6820   63.1570 C   0  0  0  0  0  0  0  0  0  0  0  0
    5.6410   69.3810   62.4410 O   0  0  0  0  0  0  0  0  0  0  0  0
    3.7700   67.9200   62.5600 C   0  0  0  0  0  0  0  0  0  0  0  0
    4.0150   66.8510   62.0110 O   0  0  0  0  0  0  0  0  0  0  0  0
    2.3800   68.4280   62.6930 C   0  0  0  0  0  0  0  0  0  0  0  0
    1.6130   68.2410   63.8500 C   0  0  0  0  0  0  0  0  0  0  0  0
    0.3020   68.7220   63.9080 C   0  0  0  0  0  0  0  0  0  0  0  0
   -0.2500   69.3890   62.8170 C   0  0  0  0  0  0  0  0  0  0  0  0
    0.5060   69.5800   61.6620 C   0  0  0  0  0  0  0  0  0  0  0  0
    1.8160   69.1020   61.5990 C   0  0  0  0  0  0  0  0  0  0  0  0
    5.1780   68.4910   64.6370 C   0  0  0  0  0  0  0  0  0  0  0  0
    5.3490   69.8060   65.3940 C   0  0  0  0  0  0  0  0  0  0  0  0
    4.6000   69.8120   66.7300 C   0  0  0  0  0  0  0  0  0  0  0  0
    3.2480   69.1060   66.6100 C   0  0  0  0  0  0  0  0  0  0  0  0
    1.0060   68.6620   67.7460 C   0  0  0  0  0  0  0  0  0  0  0  0
    2.2350   69.5550   67.6670 C   0  0  0  0  0  0  0  0  0  0  0  0
    2.0433   67.7145   64.7147 H   0  0  0  0  0  0  0  0  0  0  0  0
   -0.2963   68.5732   64.8190 H   0  0  0  0  0  0  0  0  0  0  0  0
   -1.2825   69.7650   62.8670 H   0  0  0  0  0  0  0  0  0  0  0  0
    0.0706   70.1072   60.8003 H   0  0  0  0  0  0  0  0  0  0  0  0
    2.4101   69.2546   60.6859 H   0  0  0  0  0  0  0  0  0  0  0  0
    4.3200   67.9510   65.0639 H   0  0  0  0  0  0  0  0  0  0  0  0
    6.1166   67.9276   64.7450 H   0  0  0  0  0  0  0  0  0  0  0  0
    6.4199   69.9649   65.5886 H   0  0  0  0  0  0  0  0  0  0  0  0
    4.9292   70.6091   64.7704 H   0  0  0  0  0  0  0  0  0  0  0  0
    5.2094   69.2940   67.4852 H   0  0  0  0  0  0  0  0  0  0  0  0
    4.4222   70.8568   67.0247 H   0  0  0  0  0  0  0  0  0  0  0  0
    2.8308   69.3173   65.6144 H   0  0  0  0  0  0  0  0  0  0  0  0
    3.4263   68.0316   66.7648 H   0  0  0  0  0  0  0  0  0  0  0  0
    0.7533   68.4784   68.8007 H   0  0  0  0  0  0  0  0  0  0  0  0
    0.1600   69.1575   67.2472 H   0  0  0  0  0  0  0  0  0  0  0  0
    1.2159   67.7043   67.2472 H   0  0  0  0  0  0  0  0  0  0  0  0
    2.7314   69.5522   68.6486 H   0  0  0  0  0  0  0  0  0  0  0  0
    1.8885   70.5583   67.3782 H   0  0  0  0  0  0  0  0  0  0  0  0
  2  1  2  0
  3  1  1  0
  4  3  2  0
  5  3  1  0
  6  5  2  0
  7  6  1  0
  8  7  2  0
  9  8  1  0
 10  9  2  0
 10  5  1  0
 11  1  1  0
 12 11  1  0
 13 12  1  0
 14 13  1  0
 16 14  1  0
 16 15  1  0
  6 17  1  0
  7 18  1  0
  8 19  1  0
  9 20  1  0
 10 21  1  0
 11 22  1  0
 11 23  1  0
 12 24  1  0
 12 25  1  0
 13 26  1  0
 13 27  1  0
 14 28  1  0
 14 29  1  0
 15 30  1  0
 15 31  1  0
 15 32  1  0
 16 33  1  0
 16 34  1  0
M  END
>  <score>  (8) 
-7.126

$$$$
=
     RDKit          3D

 34 34  0  0  0  0  0  0  0  0999 V2000
    3.2850   59.1900   72.5120 C   0  0  0  0  0  0  0  0  0  0  0  0
    4.1090   58.9930   73.3960 O   0  0  0  0  0  0  0  0  0  0  0  0
    3.7440   59.4100   71.0850 C   0  0  0  0  0  0  0  0  0  0  0  0
    3.8650   58.4200   70.3710 O   0  0  0  0  0  0  0  0  0  0  0  0
    3.9770   60.7820   70.5620 C   0  0  0  0  0  0  0  0  0  0  0  0
    4.8070   61.7070   71.2080 C   0  0  0  0  0  0  0  0  0  0  0  0
    4.9690   62.9920   70.6800 C   0  0  0  0  0  0  0  0  0  0  0  0
    4.3060   63.3600   69.5120 C   0  0  0  0  0  0  0  0  0  0  0  0
    3.4780   62.4450   68.8630 C   0  0  0  0  0  0  0  0  0  0  0  0
    3.3140   61.1620   69.3860 C   0  0  0  0  0  0  0  0  0  0  0  0
    1.7920   59.1940   72.7480 C   0  0  0  0  0  0  0  0  0  0  0  0
    1.1390   60.5420   72.4530 C   0  0  0  0  0  0  0  0  0  0  0  0
    1.6160   61.6430   73.4050 C   0  0  0  0  0  0  0  0  0  0  0  0
    1.7590   62.9810   72.6770 C   0  0  0  0  0  0  0  0  0  0  0  0
    0.8530   64.4870   70.8270 C   0  0  0  0  0  0  0  0  0  0  0  0
    0.8650   63.0960   71.4400 C   0  0  0  0  0  0  0  0  0  0  0  0
    5.3321   61.4225   72.1318 H   0  0  0  0  0  0  0  0  0  0  0  0
    5.6229   63.7150   71.1895 H   0  0  0  0  0  0  0  0  0  0  0  0
    4.4355   64.3723   69.1015 H   0  0  0  0  0  0  0  0  0  0  0  0
    2.9547   62.7343   67.9397 H   0  0  0  0  0  0  0  0  0  0  0  0
    2.6595   60.4428   68.8719 H   0  0  0  0  0  0  0  0  0  0  0  0
    1.3335   58.4340   72.0982 H   0  0  0  0  0  0  0  0  0  0  0  0
    1.6296   58.9791   73.8145 H   0  0  0  0  0  0  0  0  0  0  0  0
    1.3851   60.8356   71.4219 H   0  0  0  0  0  0  0  0  0  0  0  0
    0.0539   60.4263   72.5912 H   0  0  0  0  0  0  0  0  0  0  0  0
    0.8853   61.7542   74.2196 H   0  0  0  0  0  0  0  0  0  0  0  0
    2.6005   61.3564   73.8032 H   0  0  0  0  0  0  0  0  0  0  0  0
    1.4941   63.7885   73.3754 H   0  0  0  0  0  0  0  0  0  0  0  0
    2.8014   63.0552   72.3336 H   0  0  0  0  0  0  0  0  0  0  0  0
    0.8465   65.2407   71.6282 H   0  0  0  0  0  0  0  0  0  0  0  0
    1.7500   64.6212   70.2046 H   0  0  0  0  0  0  0  0  0  0  0  0
   -0.0462   64.6057   70.2046 H   0  0  0  0  0  0  0  0  0  0  0  0
    1.2259   62.3849   70.6824 H   0  0  0  0  0  0  0  0  0  0  0  0
   -0.1633   62.8760   71.7627 H   0  0  0  0  0  0  0  0  0  0  0  0
  2  1  2  0
  3  1  1  0
  4  3  2  0
  5  3  1  0
  6  5  2  0
  7  6  1  0
  8  7  2  0
  9  8  1  0
 10  9  2  0
 10  5  1  0
 11  1  1  0
 12 11  1  0
 13 12  1  0
 14 13  1  0
 16 14  1  0
 16 15  1  0
  6 17  1  0
  7 18  1  0
  8 19  1  0
  9 20  1  0
 10 21  1  0
 11 22  1  0
 11 23  1  0
 12 24  1  0
 12 25  1  0
 13 26  1  0
 13 27  1  0
 14 28  1  0
 14 29  1  0
 15 30  1  0
 15 31  1  0
 15 32  1  0
 16 33  1  0
 16 34  1  0
M  END
>  <score>  (9) 
-7.037

$$$$
