=
     RDKit          3D

 33 34  0  0  0  0  0  0  0  0999 V2000
    1.1630   68.1570   68.0100 S   0  0  0  0  0  0  0  0  0  0  0  0
   -0.2100   67.9990   66.4520 S   0  0  0  0  0  6  0  0  0  0  0  0
   -1.1080   69.1350   66.5410 O   0  0  0  0  0  0  0  0  0  0  0  0
   -0.7200   66.6430   66.4360 O   0  0  0  0  0  0  0  0  0  0  0  0
    0.7990   68.2140   65.0060 C   0  0  0  0  0  0  0  0  0  0  0  0
    0.2700   68.8470   63.8800 C   0  0  0  0  0  0  0  0  0  0  0  0
    1.0640   68.9980   62.7410 C   0  0  0  0  0  0  0  0  0  0  0  0
    2.3740   68.5010   62.7170 C   0  0  0  0  0  0  0  0  0  0  0  0
    2.8910   67.8690   63.8560 C   0  0  0  0  0  0  0  0  0  0  0  0
    2.1040   67.7150   64.9980 C   0  0  0  0  0  0  0  0  0  0  0  0
    3.2340   68.6930   61.5020 C   0  0  0  0  0  0  0  0  0  0  0  0
    1.6210   69.9010   67.9020 C   0  0  0  0  0  0  0  0  0  0  0  0
    5.7830   70.6610   68.7680 C   0  0  0  0  0  0  0  0  0  0  0  0
    4.8090   70.9100   69.7380 C   0  0  0  0  0  0  0  0  0  0  0  0
    3.4610   70.6590   69.4600 C   0  0  0  0  0  0  0  0  0  0  0  0
    3.0740   70.1550   68.2100 C   0  0  0  0  0  0  0  0  0  0  0  0
    4.0600   69.9060   67.2420 C   0  0  0  0  0  0  0  0  0  0  0  0
    5.4060   70.1590   67.5200 C   0  0  0  0  0  0  0  0  0  0  0  0
    8.2810   71.1380   69.2860 N   0  0  0  0  0  0  0  0  0  0  0  0
    7.1650   70.9210   69.0520 C   0  0  0  0  0  0  0  0  0  0  0  0
   -0.7634   69.2237   63.8897 H   0  0  0  0  0  0  0  0  0  0  0  0
    0.6582   69.5107   61.8565 H   0  0  0  0  0  0  0  0  0  0  0  0
    3.9243   67.4917   63.8497 H   0  0  0  0  0  0  0  0  0  0  0  0
    2.5079   67.2048   65.8849 H   0  0  0  0  0  0  0  0  0  0  0  0
    4.2635   68.9228   61.8141 H   0  0  0  0  0  0  0  0  0  0  0  0
    3.2301   67.7719   60.9007 H   0  0  0  0  0  0  0  0  0  0  0  0
    2.8387   69.5250   60.9007 H   0  0  0  0  0  0  0  0  0  0  0  0
    1.4134   70.2541   66.8811 H   0  0  0  0  0  0  0  0  0  0  0  0
    1.0287   70.4410   68.6553 H   0  0  0  0  0  0  0  0  0  0  0  0
    5.1024   71.3041   70.7222 H   0  0  0  0  0  0  0  0  0  0  0  0
    2.6990   70.8585   70.2278 H   0  0  0  0  0  0  0  0  0  0  0  0
    3.7710   69.5089   66.2577 H   0  0  0  0  0  0  0  0  0  0  0  0
    6.1707   69.9623   66.7541 H   0  0  0  0  0  0  0  0  0  0  0  0
  2  1  1  0
  3  2  2  0
  4  2  2  0
  5  2  1  0
  6  5  2  0
  7  6  1  0
  8  7  2  0
  9  8  1  0
 10  9  2  0
 10  5  1  0
 11  8  1  0
 12  1  1  0
 14 13  2  0
 15 14  1  0
 16 15  2  0
 16 12  1  0
 17 16  1  0
 18 17  2  0
 18 13  1  0
 20 13  1  0
 20 19  3  0
  6 21  1  0
  7 22  1  0
  9 23  1  0
 10 24  1  0
 11 25  1  0
 11 26  1  0
 11 27  1  0
 12 28  1  0
 12 29  1  0
 14 30  1  0
 15 31  1  0
 17 32  1  0
 18 33  1  0
M  END
>  <score>  (1) 
-8.919

$$$$
=
     RDKit          3D

 33 34  0  0  0  0  0  0  0  0999 V2000
    1.5270   67.7410   66.8090 S   0  0  0  0  0  0  0  0  0  0  0  0
    1.7830   67.8740   64.7470 S   0  0  0  0  0  6  0  0  0  0  0  0
    2.5420   69.0800   64.4760 O   0  0  0  0  0  0  0  0  0  0  0  0
    0.4990   67.6420   64.1160 O   0  0  0  0  0  0  0  0  0  0  0  0
    2.8240   66.4810   64.3830 C   0  0  0  0  0  0  0  0  0  0  0  0
    2.6880   65.3030   65.1200 C   0  0  0  0  0  0  0  0  0  0  0  0
    3.5210   64.2190   64.8400 C   0  0  0  0  0  0  0  0  0  0  0  0
    4.5010   64.3140   63.8430 C   0  0  0  0  0  0  0  0  0  0  0  0
    4.6250   65.5030   63.1110 C   0  0  0  0  0  0  0  0  0  0  0  0
    3.7960   66.5920   63.3850 C   0  0  0  0  0  0  0  0  0  0  0  0
    5.3740   63.1360   63.5240 C   0  0  0  0  0  0  0  0  0  0  0  0
    1.6410   69.4770   67.2930 C   0  0  0  0  0  0  0  0  0  0  0  0
    5.5660   70.6380   68.6710 C   0  0  0  0  0  0  0  0  0  0  0  0
    4.4750   70.6810   69.5440 C   0  0  0  0  0  0  0  0  0  0  0  0
    3.2050   70.3010   69.1000 C   0  0  0  0  0  0  0  0  0  0  0  0
    3.0120   69.8700   67.7780 C   0  0  0  0  0  0  0  0  0  0  0  0
    4.1140   69.8270   66.9100 C   0  0  0  0  0  0  0  0  0  0  0  0
    5.3820   70.2110   67.3540 C   0  0  0  0  0  0  0  0  0  0  0  0
    7.9180   71.3550   69.4990 N   0  0  0  0  0  0  0  0  0  0  0  0
    6.8680   71.0310   69.1270 C   0  0  0  0  0  0  0  0  0  0  0  0
    1.9308   65.2300   65.9145 H   0  0  0  0  0  0  0  0  0  0  0  0
    3.4074   63.2828   65.4063 H   0  0  0  0  0  0  0  0  0  0  0  0
    5.3807   65.5783   62.3153 H   0  0  0  0  0  0  0  0  0  0  0  0
    3.9068   67.5295   62.8203 H   0  0  0  0  0  0  0  0  0  0  0  0
    5.7186   62.6710   64.4594 H   0  0  0  0  0  0  0  0  0  0  0  0
    4.8001   62.4020   62.9394 H   0  0  0  0  0  0  0  0  0  0  0  0
    6.2433   63.4715   62.9394 H   0  0  0  0  0  0  0  0  0  0  0  0
    1.3864   70.0998   66.4228 H   0  0  0  0  0  0  0  0  0  0  0  0
    0.9428   69.6293   68.1292 H   0  0  0  0  0  0  0  0  0  0  0  0
    4.6161   71.0146   70.5827 H   0  0  0  0  0  0  0  0  0  0  0  0
    2.3506   70.3400   69.7917 H   0  0  0  0  0  0  0  0  0  0  0  0
    3.9785   69.4884   65.8722 H   0  0  0  0  0  0  0  0  0  0  0  0
    6.2381   70.1769   66.6641 H   0  0  0  0  0  0  0  0  0  0  0  0
  2  1  1  0
  3  2  2  0
  4  2  2  0
  5  2  1  0
  6  5  2  0
  7  6  1  0
  8  7  2  0
  9  8  1  0
 10  9  2  0
 10  5  1  0
 11  8  1  0
 12  1  1  0
 14 13  2  0
 15 14  1  0
 16 15  2  0
 16 12  1  0
 17 16  1  0
 18 17  2  0
 18 13  1  0
 20 13  1  0
 20 19  3  0
  6 21  1  0
  7 22  1  0
  9 23  1  0
 10 24  1  0
 11 25  1  0
 11 26  1  0
 11 27  1  0
 12 28  1  0
 12 29  1  0
 14 30  1  0
 15 31  1  0
 17 32  1  0
 18 33  1  0
M  END
>  <score>  (2) 
-8.618

$$$$
=
     RDKit          3D

 33 34  0  0  0  0  0  0  0  0999 V2000
    1.5770   67.5470   67.1150 S   0  0  0  0  0  0  0  0  0  0  0  0
    1.1500   67.1100   65.1250 S   0  0  0  0  0  6  0  0  0  0  0  0
    0.0020   67.9080   64.7370 O   0  0  0  0  0  0  0  0  0  0  0  0
    1.1460   65.6700   64.9700 O   0  0  0  0  0  0  0  0  0  0  0  0
    2.5690   67.7430   64.2640 C   0  0  0  0  0  0  0  0  0  0  0  0
    3.8470   67.3010   64.6160 C   0  0  0  0  0  0  0  0  0  0  0  0
    4.9590   67.8160   63.9470 C   0  0  0  0  0  0  0  0  0  0  0  0
    4.8010   68.7830   62.9440 C   0  0  0  0  0  0  0  0  0  0  0  0
    3.5120   69.2150   62.6020 C   0  0  0  0  0  0  0  0  0  0  0  0
    2.3950   68.7050   63.2660 C   0  0  0  0  0  0  0  0  0  0  0  0
    5.9960   69.3100   62.2060 C   0  0  0  0  0  0  0  0  0  0  0  0
    1.8080   69.3370   67.0430 C   0  0  0  0  0  0  0  0  0  0  0  0
    5.6380   70.5910   68.5970 C   0  0  0  0  0  0  0  0  0  0  0  0
    5.5140   70.2150   67.2570 C   0  0  0  0  0  0  0  0  0  0  0  0
    4.2730   69.8140   66.7520 C   0  0  0  0  0  0  0  0  0  0  0  0
    3.1420   69.7870   67.5810 C   0  0  0  0  0  0  0  0  0  0  0  0
    3.2760   70.1680   68.9250 C   0  0  0  0  0  0  0  0  0  0  0  0
    4.5160   70.5660   69.4290 C   0  0  0  0  0  0  0  0  0  0  0  0
    7.9450   71.3290   69.5270 N   0  0  0  0  0  0  0  0  0  0  0  0
    6.9110   71.0000   69.1150 C   0  0  0  0  0  0  0  0  0  0  0  0
    3.9758   66.5540   65.4131 H   0  0  0  0  0  0  0  0  0  0  0  0
    5.9665   67.4605   64.2087 H   0  0  0  0  0  0  0  0  0  0  0  0
    3.3798   69.9612   61.8047 H   0  0  0  0  0  0  0  0  0  0  0  0
    1.3861   69.0577   63.0056 H   0  0  0  0  0  0  0  0  0  0  0  0
    6.7549   69.6447   62.9285 H   0  0  0  0  0  0  0  0  0  0  0  0
    6.4171   68.5141   61.5742 H   0  0  0  0  0  0  0  0  0  0  0  0
    5.6923   70.1577   61.5742 H   0  0  0  0  0  0  0  0  0  0  0  0
    1.7283   69.6576   65.9938 H   0  0  0  0  0  0  0  0  0  0  0  0
    1.0310   69.7919   67.6750 H   0  0  0  0  0  0  0  0  0  0  0  0
    6.3944   70.2344   66.5978 H   0  0  0  0  0  0  0  0  0  0  0  0
    4.1833   69.5175   65.6965 H   0  0  0  0  0  0  0  0  0  0  0  0
    2.3974   70.1530   69.5866 H   0  0  0  0  0  0  0  0  0  0  0  0
    4.6096   70.8608   70.4846 H   0  0  0  0  0  0  0  0  0  0  0  0
  2  1  1  0
  3  2  2  0
  4  2  2  0
  5  2  1  0
  6  5  2  0
  7  6  1  0
  8  7  2  0
  9  8  1  0
 10  9  2  0
 10  5  1  0
 11  8  1  0
 12  1  1  0
 14 13  2  0
 15 14  1  0
 16 15  2  0
 16 12  1  0
 17 16  1  0
 18 17  2  0
 18 13  1  0
 20 13  1  0
 20 19  3  0
  6 21  1  0
  7 22  1  0
  9 23  1  0
 10 24  1  0
 11 25  1  0
 11 26  1  0
 11 27  1  0
 12 28  1  0
 12 29  1  0
 14 30  1  0
 15 31  1  0
 17 32  1  0
 18 33  1  0
M  END
>  <score>  (3) 
-8.445

$$$$
=
     RDKit          3D

 33 34  0  0  0  0  0  0  0  0999 V2000
    1.4080   67.5300   68.9070 S   0  0  0  0  0  0  0  0  0  0  0  0
    0.5160   68.0210   67.0910 S   0  0  0  0  0  6  0  0  0  0  0  0
   -0.2720   69.2210   67.2990 O   0  0  0  0  0  0  0  0  0  0  0  0
   -0.0820   66.8210   66.5430 O   0  0  0  0  0  0  0  0  0  0  0  0
    1.9030   68.4500   66.0680 C   0  0  0  0  0  0  0  0  0  0  0  0
    2.9950   69.1200   66.6260 C   0  0  0  0  0  0  0  0  0  0  0  0
    4.0740   69.4700   65.8120 C   0  0  0  0  0  0  0  0  0  0  0  0
    4.0570   69.1720   64.4430 C   0  0  0  0  0  0  0  0  0  0  0  0
    2.9550   68.4990   63.8980 C   0  0  0  0  0  0  0  0  0  0  0  0
    1.8730   68.1460   64.7050 C   0  0  0  0  0  0  0  0  0  0  0  0
    5.2330   69.5210   63.5780 C   0  0  0  0  0  0  0  0  0  0  0  0
    0.1830   66.4050   69.6110 C   0  0  0  0  0  0  0  0  0  0  0  0
    1.9500   63.2810   72.0150 C   0  0  0  0  0  0  0  0  0  0  0  0
    0.6650   63.7490   72.3070 C   0  0  0  0  0  0  0  0  0  0  0  0
    0.0910   64.7570   71.5260 C   0  0  0  0  0  0  0  0  0  0  0  0
    0.7930   65.3060   70.4430 C   0  0  0  0  0  0  0  0  0  0  0  0
    2.0810   64.8280   70.1560 C   0  0  0  0  0  0  0  0  0  0  0  0
    2.6560   63.8230   70.9380 C   0  0  0  0  0  0  0  0  0  0  0  0
    3.0220   61.4140   73.4630 N   0  0  0  0  0  0  0  0  0  0  0  0
    2.5390   62.2500   72.8180 C   0  0  0  0  0  0  0  0  0  0  0  0
    3.0044   69.3695   67.6973 H   0  0  0  0  0  0  0  0  0  0  0  0
    4.9435   69.9833   66.2485 H   0  0  0  0  0  0  0  0  0  0  0  0
    2.9431   68.2475   62.8272 H   0  0  0  0  0  0  0  0  0  0  0  0
    1.0026   67.6320   64.2710 H   0  0  0  0  0  0  0  0  0  0  0  0
    6.0932   69.7763   64.2143 H   0  0  0  0  0  0  0  0  0  0  0  0
    5.4893   68.6602   62.9429 H   0  0  0  0  0  0  0  0  0  0  0  0
    4.9783   70.3823   62.9429 H   0  0  0  0  0  0  0  0  0  0  0  0
   -0.5004   66.9865   70.2472 H   0  0  0  0  0  0  0  0  0  0  0  0
   -0.3408   65.9257   68.7708 H   0  0  0  0  0  0  0  0  0  0  0  0
    0.1047   63.3235   73.1526 H   0  0  0  0  0  0  0  0  0  0  0  0
   -0.9192   65.1223   71.7629 H   0  0  0  0  0  0  0  0  0  0  0  0
    2.6424   65.2480   69.3084 H   0  0  0  0  0  0  0  0  0  0  0  0
    3.6671   63.4576   70.7052 H   0  0  0  0  0  0  0  0  0  0  0  0
  2  1  1  0
  3  2  2  0
  4  2  2  0
  5  2  1  0
  6  5  2  0
  7  6  1  0
  8  7  2  0
  9  8  1  0
 10  9  2  0
 10  5  1  0
 11  8  1  0
 12  1  1  0
 14 13  2  0
 15 14  1  0
 16 15  2  0
 16 12  1  0
 17 16  1  0
 18 17  2  0
 18 13  1  0
 20 13  1  0
 20 19  3  0
  6 21  1  0
  7 22  1  0
  9 23  1  0
 10 24  1  0
 11 25  1  0
 11 26  1  0
 11 27  1  0
 12 28  1  0
 12 29  1  0
 14 30  1  0
 15 31  1  0
 17 32  1  0
 18 33  1  0
M  END
>  <score>  (4) 
-8.364

$$$$
=
     RDKit          3D

 33 34  0  0  0  0  0  0  0  0999 V2000
    2.1760   69.0730   65.2690 S   0  0  0  0  0  0  0  0  0  0  0  0
    2.0160   69.1820   67.3430 S   0  0  0  0  0  6  0  0  0  0  0  0
    1.8960   67.8270   67.8460 O   0  0  0  0  0  0  0  0  0  0  0  0
    1.0270   70.1890   67.6670 O   0  0  0  0  0  0  0  0  0  0  0  0
    3.6050   69.8070   67.8330 C   0  0  0  0  0  0  0  0  0  0  0  0
    4.6610   69.8090   66.9190 C   0  0  0  0  0  0  0  0  0  0  0  0
    5.9120   70.2850   67.3170 C   0  0  0  0  0  0  0  0  0  0  0  0
    6.1150   70.7390   68.6270 C   0  0  0  0  0  0  0  0  0  0  0  0
    5.0450   70.7320   69.5330 C   0  0  0  0  0  0  0  0  0  0  0  0
    3.7920   70.2570   69.1420 C   0  0  0  0  0  0  0  0  0  0  0  0
    7.4530   71.2800   69.0420 C   0  0  0  0  0  0  0  0  0  0  0  0
    1.4710   67.4410   64.9460 C   0  0  0  0  0  0  0  0  0  0  0  0
    4.4040   64.4890   63.7890 C   0  0  0  0  0  0  0  0  0  0  0  0
    4.4580   65.7780   63.2510 C   0  0  0  0  0  0  0  0  0  0  0  0
    3.5110   66.7360   63.6300 C   0  0  0  0  0  0  0  0  0  0  0  0
    2.5030   66.4160   64.5510 C   0  0  0  0  0  0  0  0  0  0  0  0
    2.4590   65.1200   65.0870 C   0  0  0  0  0  0  0  0  0  0  0  0
    3.4030   64.1620   64.7060 C   0  0  0  0  0  0  0  0  0  0  0  0
    6.1530   62.7060   63.0850 N   0  0  0  0  0  0  0  0  0  0  0  0
    5.3730   63.5070   63.3990 C   0  0  0  0  0  0  0  0  0  0  0  0
    4.5086   69.4388   65.8944 H   0  0  0  0  0  0  0  0  0  0  0  0
    6.7437   70.3037   66.5973 H   0  0  0  0  0  0  0  0  0  0  0  0
    5.1938   71.1030   70.5578 H   0  0  0  0  0  0  0  0  0  0  0  0
    2.9583   70.2372   69.8593 H   0  0  0  0  0  0  0  0  0  0  0  0
    7.5140   71.3047   70.1400 H   0  0  0  0  0  0  0  0  0  0  0  0
    8.2492   70.6332   68.6450 H   0  0  0  0  0  0  0  0  0  0  0  0
    7.5759   72.2985   68.6450 H   0  0  0  0  0  0  0  0  0  0  0  0
    0.9635   67.0927   65.8577 H   0  0  0  0  0  0  0  0  0  0  0  0
    0.7753   67.5470   64.1006 H   0  0  0  0  0  0  0  0  0  0  0  0
    5.2456   66.0396   62.5290 H   0  0  0  0  0  0  0  0  0  0  0  0
    3.5576   67.7483   63.2020 H   0  0  0  0  0  0  0  0  0  0  0  0
    1.6756   64.8558   65.8126 H   0  0  0  0  0  0  0  0  0  0  0  0
    3.3572   63.1479   65.1297 H   0  0  0  0  0  0  0  0  0  0  0  0
  2  1  1  0
  3  2  2  0
  4  2  2  0
  5  2  1  0
  6  5  2  0
  7  6  1  0
  8  7  2  0
  9  8  1  0
 10  9  2  0
 10  5  1  0
 11  8  1  0
 12  1  1  0
 14 13  2  0
 15 14  1  0
 16 15  2  0
 16 12  1  0
 17 16  1  0
 18 17  2  0
 18 13  1  0
 20 13  1  0
 20 19  3  0
  6 21  1  0
  7 22  1  0
  9 23  1  0
 10 24  1  0
 11 25  1  0
 11 26  1  0
 11 27  1  0
 12 28  1  0
 12 29  1  0
 14 30  1  0
 15 31  1  0
 17 32  1  0
 18 33  1  0
M  END
>  <score>  (5) 
-8.254

$$$$
=
     RDKit          3D

 33 34  0  0  0  0  0  0  0  0999 V2000
    1.2890   66.8960   67.6810 S   0  0  0  0  0  0  0  0  0  0  0  0
    1.1960   68.8550   66.9810 S   0  0  0  0  0  6  0  0  0  0  0  0
    0.2100   69.5600   67.7780 O   0  0  0  0  0  0  0  0  0  0  0  0
    1.0970   68.8140   65.5360 O   0  0  0  0  0  0  0  0  0  0  0  0
    2.7960   69.5040   67.3950 C   0  0  0  0  0  0  0  0  0  0  0  0
    2.9990   70.1070   68.6390 C   0  0  0  0  0  0  0  0  0  0  0  0
    4.2550   70.6300   68.9510 C   0  0  0  0  0  0  0  0  0  0  0  0
    5.3000   70.5720   68.0200 C   0  0  0  0  0  0  0  0  0  0  0  0
    5.0820   69.9640   66.7760 C   0  0  0  0  0  0  0  0  0  0  0  0
    3.8290   69.4390   66.4560 C   0  0  0  0  0  0  0  0  0  0  0  0
    6.6580   71.1080   68.3710 C   0  0  0  0  0  0  0  0  0  0  0  0
    1.0910   67.1460   69.4590 C   0  0  0  0  0  0  0  0  0  0  0  0
    1.3520   63.4990   71.7570 C   0  0  0  0  0  0  0  0  0  0  0  0
    0.2640   64.3600   71.9300 C   0  0  0  0  0  0  0  0  0  0  0  0
    0.1770   65.5380   71.1820 C   0  0  0  0  0  0  0  0  0  0  0  0
    1.1740   65.8670   70.2520 C   0  0  0  0  0  0  0  0  0  0  0  0
    2.2600   64.9950   70.0840 C   0  0  0  0  0  0  0  0  0  0  0  0
    2.3490   63.8190   70.8330 C   0  0  0  0  0  0  0  0  0  0  0  0
    1.5090   61.3160   73.1520 N   0  0  0  0  0  0  0  0  0  0  0  0
    1.4420   62.2920   72.5260 C   0  0  0  0  0  0  0  0  0  0  0  0
    2.1761   70.1690   69.3663 H   0  0  0  0  0  0  0  0  0  0  0  0
    4.4254   71.0910   69.9351 H   0  0  0  0  0  0  0  0  0  0  0  0
    5.9036   69.9002   66.0474 H   0  0  0  0  0  0  0  0  0  0  0  0
    3.6559   68.9777   65.4725 H   0  0  0  0  0  0  0  0  0  0  0  0
    6.7641   71.1499   69.4651 H   0  0  0  0  0  0  0  0  0  0  0  0
    7.4321   70.4480   67.9525 H   0  0  0  0  0  0  0  0  0  0  0  0
    6.7726   72.1188   67.9525 H   0  0  0  0  0  0  0  0  0  0  0  0
    1.8835   67.8249   69.8068 H   0  0  0  0  0  0  0  0  0  0  0  0
    0.0870   67.5655   69.6200 H   0  0  0  0  0  0  0  0  0  0  0  0
   -0.5243   64.1103   72.6554 H   0  0  0  0  0  0  0  0  0  0  0  0
   -0.6804   66.2123   71.3240 H   0  0  0  0  0  0  0  0  0  0  0  0
    3.0481   65.2392   69.3565 H   0  0  0  0  0  0  0  0  0  0  0  0
    3.2062   63.1437   70.6946 H   0  0  0  0  0  0  0  0  0  0  0  0
  2  1  1  0
  3  2  2  0
  4  2  2  0
  5  2  1  0
  6  5  2  0
  7  6  1  0
  8  7  2  0
  9  8  1  0
 10  9  2  0
 10  5  1  0
 11  8  1  0
 12  1  1  0
 14 13  2  0
 15 14  1  0
 16 15  2  0
 16 12  1  0
 17 16  1  0
 18 17  2  0
 18 13  1  0
 20 13  1  0
 20 19  3  0
  6 21  1  0
  7 22  1  0
  9 23  1  0
 10 24  1  0
 11 25  1  0
 11 26  1  0
 11 27  1  0
 12 28  1  0
 12 29  1  0
 14 30  1  0
 15 31  1  0
 17 32  1  0
 18 33  1  0
M  END
>  <score>  (6) 
-8.128

$$$$
=
     RDKit          3D

 33 34  0  0  0  0  0  0  0  0999 V2000
    4.5250   69.0340   63.8750 S   0  0  0  0  0  0  0  0  0  0  0  0
    3.2020   67.6100   63.1290 S   0  0  0  0  0  6  0  0  0  0  0  0
    3.7270   66.3010   63.4720 O   0  0  0  0  0  0  0  0  0  0  0  0
    2.8940   67.9550   61.7570 O   0  0  0  0  0  0  0  0  0  0  0  0
    1.7370   67.8800   64.0970 C   0  0  0  0  0  0  0  0  0  0  0  0
    0.7550   68.7590   63.6360 C   0  0  0  0  0  0  0  0  0  0  0  0
   -0.3860   68.9800   64.4100 C   0  0  0  0  0  0  0  0  0  0  0  0
   -0.5390   68.3420   65.6490 C   0  0  0  0  0  0  0  0  0  0  0  0
    0.4560   67.4610   66.0970 C   0  0  0  0  0  0  0  0  0  0  0  0
    1.5990   67.2360   65.3290 C   0  0  0  0  0  0  0  0  0  0  0  0
   -1.7810   68.5570   66.4630 C   0  0  0  0  0  0  0  0  0  0  0  0
    3.7380   69.4600   65.4440 C   0  0  0  0  0  0  0  0  0  0  0  0
    6.5610   70.5980   68.5090 C   0  0  0  0  0  0  0  0  0  0  0  0
    5.1910   70.5890   68.7860 C   0  0  0  0  0  0  0  0  0  0  0  0
    4.2770   70.2160   67.7950 C   0  0  0  0  0  0  0  0  0  0  0  0
    4.7230   69.8450   66.5180 C   0  0  0  0  0  0  0  0  0  0  0  0
    6.1000   69.8540   66.2500 C   0  0  0  0  0  0  0  0  0  0  0  0
    7.0130   70.2300   67.2400 C   0  0  0  0  0  0  0  0  0  0  0  0
    8.2580   71.2870   70.3470 N   0  0  0  0  0  0  0  0  0  0  0  0
    7.4980   70.9830   69.5240 C   0  0  0  0  0  0  0  0  0  0  0  0
    0.8791   69.2730   62.6714 H   0  0  0  0  0  0  0  0  0  0  0  0
   -1.1703   69.6595   64.0450 H   0  0  0  0  0  0  0  0  0  0  0  0
    0.3345   66.9439   67.0603 H   0  0  0  0  0  0  0  0  0  0  0  0
    2.3852   66.5570   65.6907 H   0  0  0  0  0  0  0  0  0  0  0  0
   -1.5301   68.5136   67.5331 H   0  0  0  0  0  0  0  0  0  0  0  0
   -2.2085   69.5425   66.2263 H   0  0  0  0  0  0  0  0  0  0  0  0
   -2.5149   67.7725   66.2263 H   0  0  0  0  0  0  0  0  0  0  0  0
    3.0568   70.3070   65.2747 H   0  0  0  0  0  0  0  0  0  0  0  0
    3.2049   68.5644   65.7957 H   0  0  0  0  0  0  0  0  0  0  0  0
    4.8310   70.8757   69.7851 H   0  0  0  0  0  0  0  0  0  0  0  0
    3.2000   70.2136   68.0189 H   0  0  0  0  0  0  0  0  0  0  0  0
    6.4642   69.5631   65.2536 H   0  0  0  0  0  0  0  0  0  0  0  0
    8.0905   70.2359   67.0186 H   0  0  0  0  0  0  0  0  0  0  0  0
  2  1  1  0
  3  2  2  0
  4  2  2  0
  5  2  1  0
  6  5  2  0
  7  6  1  0
  8  7  2  0
  9  8  1  0
 10  9  2  0
 10  5  1  0
 11  8  1  0
 12  1  1  0
 14 13  2  0
 15 14  1  0
 16 15  2  0
 16 12  1  0
 17 16  1  0
 18 17  2  0
 18 13  1  0
 20 13  1  0
 20 19  3  0
  6 21  1  0
  7 22  1  0
  9 23  1  0
 10 24  1  0
 11 25  1  0
 11 26  1  0
 11 27  1  0
 12 28  1  0
 12 29  1  0
 14 30  1  0
 15 31  1  0
 17 32  1  0
 18 33  1  0
M  END
>  <score>  (7) 
-8.075

$$$$
=
     RDKit          3D

 33 34  0  0  0  0  0  0  0  0999 V2000
    2.0520   66.8440   65.0850 S   0  0  0  0  0  0  0  0  0  0  0  0
    2.9600   68.4430   64.1080 S   0  0  0  0  0  6  0  0  0  0  0  0
    1.9180   69.3860   63.7480 O   0  0  0  0  0  0  0  0  0  0  0  0
    3.8620   67.9090   63.1080 O   0  0  0  0  0  0  0  0  0  0  0  0
    3.9460   69.1840   65.3860 C   0  0  0  0  0  0  0  0  0  0  0  0
    5.2940   69.4630   65.1470 C   0  0  0  0  0  0  0  0  0  0  0  0
    6.0670   70.0300   66.1620 C   0  0  0  0  0  0  0  0  0  0  0  0
    5.5060   70.2980   67.4180 C   0  0  0  0  0  0  0  0  0  0  0  0
    4.1520   70.0130   67.6420 C   0  0  0  0  0  0  0  0  0  0  0  0
    3.3720   69.4470   66.6320 C   0  0  0  0  0  0  0  0  0  0  0  0
    6.3320   70.9360   68.4960 C   0  0  0  0  0  0  0  0  0  0  0  0
    0.6470   67.6610   65.8710 C   0  0  0  0  0  0  0  0  0  0  0  0
    0.0380   66.3970   69.9570 C   0  0  0  0  0  0  0  0  0  0  0  0
    1.3070   66.7990   69.5280 C   0  0  0  0  0  0  0  0  0  0  0  0
    1.5030   67.2130   68.2070 C   0  0  0  0  0  0  0  0  0  0  0  0
    0.4330   67.2330   67.3010 C   0  0  0  0  0  0  0  0  0  0  0  0
   -0.8370   66.8300   67.7400 C   0  0  0  0  0  0  0  0  0  0  0  0
   -1.0320   66.4140   69.0590 C   0  0  0  0  0  0  0  0  0  0  0  0
   -0.3310   65.6240   72.4060 N   0  0  0  0  0  0  0  0  0  0  0  0
   -0.1620   65.9700   71.3110 C   0  0  0  0  0  0  0  0  0  0  0  0
    5.7422   69.2380   64.1680 H   0  0  0  0  0  0  0  0  0  0  0  0
    7.1244   70.2682   65.9744 H   0  0  0  0  0  0  0  0  0  0  0  0
    3.7011   70.2368   68.6200 H   0  0  0  0  0  0  0  0  0  0  0  0
    2.3137   69.2100   66.8159 H   0  0  0  0  0  0  0  0  0  0  0  0
    5.9442   70.6364   69.4808 H   0  0  0  0  0  0  0  0  0  0  0  0
    7.3777   70.6088   68.3987 H   0  0  0  0  0  0  0  0  0  0  0  0
    6.2797   72.0304   68.3987 H   0  0  0  0  0  0  0  0  0  0  0  0
    0.8200   68.7472   65.8536 H   0  0  0  0  0  0  0  0  0  0  0  0
   -0.2534   67.3762   65.3070 H   0  0  0  0  0  0  0  0  0  0  0  0
    2.1527   66.7894   70.2314 H   0  0  0  0  0  0  0  0  0  0  0  0
    2.5044   67.5254   67.8759 H   0  0  0  0  0  0  0  0  0  0  0  0
   -1.6856   66.8417   67.0402 H   0  0  0  0  0  0  0  0  0  0  0  0
   -2.0318   66.0986   69.3919 H   0  0  0  0  0  0  0  0  0  0  0  0
  2  1  1  0
  3  2  2  0
  4  2  2  0
  5  2  1  0
  6  5  2  0
  7  6  1  0
  8  7  2  0
  9  8  1  0
 10  9  2  0
 10  5  1  0
 11  8  1  0
 12  1  1  0
 14 13  2  0
 15 14  1  0
 16 15  2  0
 16 12  1  0
 17 16  1  0
 18 17  2  0
 18 13  1  0
 20 13  1  0
 20 19  3  0
  6 21  1  0
  7 22  1  0
  9 23  1  0
 10 24  1  0
 11 25  1  0
 11 26  1  0
 11 27  1  0
 12 28  1  0
 12 29  1  0
 14 30  1  0
 15 31  1  0
 17 32  1  0
 18 33  1  0
M  END
>  <score>  (8) 
-8.068

$$$$
=
     RDKit          3D

 33 34  0  0  0  0  0  0  0  0999 V2000
    2.6340   58.4120   73.9980 S   0  0  0  0  0  0  0  0  0  0  0  0
    1.5800   59.7600   75.1850 S   0  0  0  0  0  6  0  0  0  0  0  0
    2.4930   60.2670   76.1910 O   0  0  0  0  0  0  0  0  0  0  0  0
    0.3230   59.1450   75.5580 O   0  0  0  0  0  0  0  0  0  0  0  0
    1.2200   61.0860   74.0590 C   0  0  0  0  0  0  0  0  0  0  0  0
    1.7860   62.3450   74.2680 C   0  0  0  0  0  0  0  0  0  0  0  0
    1.4850   63.3870   73.3890 C   0  0  0  0  0  0  0  0  0  0  0  0
    0.6070   63.1810   72.3160 C   0  0  0  0  0  0  0  0  0  0  0  0
    0.0460   61.9110   72.1200 C   0  0  0  0  0  0  0  0  0  0  0  0
    0.3420   60.8650   72.9940 C   0  0  0  0  0  0  0  0  0  0  0  0
    0.3100   64.2950   71.3550 C   0  0  0  0  0  0  0  0  0  0  0  0
    4.1310   59.3550   73.6370 C   0  0  0  0  0  0  0  0  0  0  0  0
    3.8050   61.7170   70.0350 C   0  0  0  0  0  0  0  0  0  0  0  0
    4.5860   62.1700   71.1020 C   0  0  0  0  0  0  0  0  0  0  0  0
    4.6960   61.4030   72.2660 C   0  0  0  0  0  0  0  0  0  0  0  0
    4.0290   60.1740   72.3750 C   0  0  0  0  0  0  0  0  0  0  0  0
    3.2490   59.7260   71.2980 C   0  0  0  0  0  0  0  0  0  0  0  0
    3.1370   60.4940   70.1370 C   0  0  0  0  0  0  0  0  0  0  0  0
    3.5930   63.1370   67.8740 N   0  0  0  0  0  0  0  0  0  0  0  0
    3.6910   62.5050   68.8430 C   0  0  0  0  0  0  0  0  0  0  0  0
    2.4633   62.5145   75.1180 H   0  0  0  0  0  0  0  0  0  0  0  0
    1.9402   64.3770   73.5396 H   0  0  0  0  0  0  0  0  0  0  0  0
   -0.6321   61.7384   71.2713 H   0  0  0  0  0  0  0  0  0  0  0  0
   -0.1119   59.8740   72.8463 H   0  0  0  0  0  0  0  0  0  0  0  0
    0.0664   65.2088   71.9169 H   0  0  0  0  0  0  0  0  0  0  0  0
    1.1908   64.4777   70.7219 H   0  0  0  0  0  0  0  0  0  0  0  0
   -0.5449   64.0150   70.7219 H   0  0  0  0  0  0  0  0  0  0  0  0
    4.3275   60.0344   74.4795 H   0  0  0  0  0  0  0  0  0  0  0  0
    4.9457   58.6305   73.4908 H   0  0  0  0  0  0  0  0  0  0  0  0
    5.1150   63.1315   71.0259 H   0  0  0  0  0  0  0  0  0  0  0  0
    5.3105   61.7664   73.1028 H   0  0  0  0  0  0  0  0  0  0  0  0
    2.7220   58.7630   71.3687 H   0  0  0  0  0  0  0  0  0  0  0  0
    2.5206   60.1348   69.2997 H   0  0  0  0  0  0  0  0  0  0  0  0
  2  1  1  0
  3  2  2  0
  4  2  2  0
  5  2  1  0
  6  5  2  0
  7  6  1  0
  8  7  2  0
  9  8  1  0
 10  9  2  0
 10  5  1  0
 11  8  1  0
 12  1  1  0
 14 13  2  0
 15 14  1  0
 16 15  2  0
 16 12  1  0
 17 16  1  0
 18 17  2  0
 18 13  1  0
 20 13  1  0
 20 19  3  0
  6 21  1  0
  7 22  1  0
  9 23  1  0
 10 24  1  0
 11 25  1  0
 11 26  1  0
 11 27  1  0
 12 28  1  0
 12 29  1  0
 14 30  1  0
 15 31  1  0
 17 32  1  0
 18 33  1  0
M  END
>  <score>  (9) 
-7.605

$$$$
