=
     RDKit          3D

 43 44  0  0  0  0  0  0  0  0999 V2000
    3.0840   69.2390   66.1180 C   0  0  0  0  0  0  0  0  0  0  0  0
    2.2630   69.2620   67.1900 C   0  0  0  0  0  0  0  0  0  0  0  0
    2.7040   69.5530   68.6000 C   0  0  0  0  0  0  0  0  0  0  0  0
    0.9070   69.0310   67.0100 N   0  0  0  0  0  0  0  0  0  0  0  0
    0.2940   68.8900   65.7720 C   0  0  0  0  0  0  0  0  0  0  0  0
    1.0550   68.8290   64.6530 C   0  0  0  0  0  0  0  0  0  0  0  0
    2.5830   68.9360   64.7140 C   0  0  0  0  0  0  0  0  0  0  0  0
   -1.2120   68.8730   65.7860 C   0  0  0  0  0  0  0  0  0  0  0  0
    3.2340   67.6620   64.1530 C   0  0  0  0  0  0  0  0  0  0  0  0
    3.0600   66.4460   64.8500 C   0  0  0  0  0  0  0  0  0  0  0  0
    3.5860   65.2450   64.3650 C   0  0  0  0  0  0  0  0  0  0  0  0
    4.3030   65.2210   63.1720 C   0  0  0  0  0  0  0  0  0  0  0  0
    4.5010   66.4020   62.4630 C   0  0  0  0  0  0  0  0  0  0  0  0
    3.9760   67.6100   62.9550 C   0  0  0  0  0  0  0  0  0  0  0  0
    4.2650   68.8040   62.1690 N   0  0  0  0  0  4  0  0  0  0  0  0
    3.4910   69.0740   61.2410 O   0  0  0  0  0  0  0  0  0  0  0  0
    5.2960   69.4320   62.4500 O   0  0  0  0  0  1  0  0  0  0  0  0
    4.5180   69.5370   66.2570 C   0  0  0  0  0  0  0  0  0  0  0  0
    5.4080   68.8860   65.7340 O   0  0  0  0  0  0  0  0  0  0  0  0
    5.9780   70.7890   67.5730 C   0  0  0  0  0  0  0  0  0  0  0  0
    4.6560   70.6140   67.0640 O   0  0  0  0  0  0  0  0  0  0  0  0
    0.5130   68.6880   63.2840 C   0  0  0  0  0  0  0  0  0  0  0  0
    0.1780   67.6120   62.8130 O   0  0  0  0  0  0  0  0  0  0  0  0
    0.3510   69.9000   62.7010 O   0  0  0  0  0  0  0  0  0  0  0  0
    0.0210   69.8340   61.3130 C   0  0  0  0  0  0  0  0  0  0  0  0
    2.0008   69.0890   69.3073 H   0  0  0  0  0  0  0  0  0  0  0  0
    3.7113   69.1417   68.7614 H   0  0  0  0  0  0  0  0  0  0  0  0
    2.7220   70.6409   68.7614 H   0  0  0  0  0  0  0  0  0  0  0  0
    0.3157   68.9593   67.8503 H   0  0  0  0  0  0  0  0  0  0  0  0
    2.8796   69.7872   64.0836 H   0  0  0  0  0  0  0  0  0  0  0  0
   -1.5690   68.8690   66.8265 H   0  0  0  0  0  0  0  0  0  0  0  0
   -1.5936   69.7669   65.2709 H   0  0  0  0  0  0  0  0  0  0  0  0
   -1.5733   67.9707   65.2709 H   0  0  0  0  0  0  0  0  0  0  0  0
    2.4980   66.4439   65.7956 H   0  0  0  0  0  0  0  0  0  0  0  0
    3.4324   64.3134   64.9294 H   0  0  0  0  0  0  0  0  0  0  0  0
    4.7111   64.2730   62.7915 H   0  0  0  0  0  0  0  0  0  0  0  0
    5.0669   66.3905   61.5198 H   0  0  0  0  0  0  0  0  0  0  0  0
    5.9510   70.7854   68.6727 H   0  0  0  0  0  0  0  0  0  0  0  0
    6.6188   69.9678   67.2193 H   0  0  0  0  0  0  0  0  0  0  0  0
    6.3831   71.7486   67.2193 H   0  0  0  0  0  0  0  0  0  0  0  0
   -1.0520   69.6194   61.2010 H   0  0  0  0  0  0  0  0  0  0  0  0
    0.2543   70.7966   60.8345 H   0  0  0  0  0  0  0  0  0  0  0  0
    0.6066   69.0352   60.8345 H   0  0  0  0  0  0  0  0  0  0  0  0
  2  1  2  0
  3  2  1  0
  4  2  1  0
  5  4  1  0
  6  5  2  0
  7  6  1  0
  7  1  1  0
  8  5  1  0
  9  7  1  0
 10  9  2  0
 11 10  1  0
 12 11  2  0
 13 12  1  0
 14 13  2  0
 14  9  1  0
 15 14  1  0
 16 15  2  0
 17 15  1  0
 18  1  1  0
 19 18  2  0
 21 18  1  0
 21 20  1  0
 22  6  1  0
 23 22  2  0
 24 22  1  0
 25 24  1  0
  3 26  1  0
  3 27  1  0
  3 28  1  0
  4 29  1  0
  7 30  1  0
  8 31  1  0
  8 32  1  0
  8 33  1  0
 10 34  1  0
 11 35  1  0
 12 36  1  0
 13 37  1  0
 20 38  1  0
 20 39  1  0
 20 40  1  0
 25 41  1  0
 25 42  1  0
 25 43  1  0
M  CHG  2  15   1  17  -1
M  END
>  <score>  (1) 
-9.14

$$$$
=
     RDKit          3D

 43 44  0  0  0  0  0  0  0  0999 V2000
    2.7960   69.2340   66.0840 C   0  0  0  0  0  0  0  0  0  0  0  0
    1.9730   69.0410   67.1370 C   0  0  0  0  0  0  0  0  0  0  0  0
    2.3840   69.1760   68.5800 C   0  0  0  0  0  0  0  0  0  0  0  0
    0.6440   68.7190   66.9090 N   0  0  0  0  0  0  0  0  0  0  0  0
    0.0480   68.6930   65.6560 C   0  0  0  0  0  0  0  0  0  0  0  0
    0.8130   68.8490   64.5490 C   0  0  0  0  0  0  0  0  0  0  0  0
    2.3260   69.0800   64.6440 C   0  0  0  0  0  0  0  0  0  0  0  0
   -1.4510   68.5440   65.6470 C   0  0  0  0  0  0  0  0  0  0  0  0
    3.0880   67.9540   63.9270 C   0  0  0  0  0  0  0  0  0  0  0  0
    3.9740   68.2920   62.8810 C   0  0  0  0  0  0  0  0  0  0  0  0
    4.7320   67.3190   62.2230 C   0  0  0  0  0  0  0  0  0  0  0  0
    4.6270   65.9800   62.5880 C   0  0  0  0  0  0  0  0  0  0  0  0
    3.7570   65.6090   63.6090 C   0  0  0  0  0  0  0  0  0  0  0  0
    2.9920   66.5890   64.2660 C   0  0  0  0  0  0  0  0  0  0  0  0
    2.0770   66.1070   65.2950 N   0  0  0  0  0  4  0  0  0  0  0  0
    2.5080   66.0500   66.4550 O   0  0  0  0  0  0  0  0  0  0  0  0
    0.9540   65.7360   64.9270 O   0  0  0  0  0  1  0  0  0  0  0  0
    4.1980   69.6330   66.2810 C   0  0  0  0  0  0  0  0  0  0  0  0
    5.1450   69.1190   65.7080 O   0  0  0  0  0  0  0  0  0  0  0  0
    5.5180   70.8070   67.8000 C   0  0  0  0  0  0  0  0  0  0  0  0
    4.2350   70.6250   67.2010 O   0  0  0  0  0  0  0  0  0  0  0  0
    0.2890   68.8470   63.1660 C   0  0  0  0  0  0  0  0  0  0  0  0
   -0.2440   67.8690   62.6620 O   0  0  0  0  0  0  0  0  0  0  0  0
    0.3860   70.0790   62.6100 O   0  0  0  0  0  0  0  0  0  0  0  0
    0.1030   70.1040   61.2110 C   0  0  0  0  0  0  0  0  0  0  0  0
    1.5402   68.8989   69.2290 H   0  0  0  0  0  0  0  0  0  0  0  0
    3.2362   68.5106   68.7823 H   0  0  0  0  0  0  0  0  0  0  0  0
    2.6757   70.2172   68.7823 H   0  0  0  0  0  0  0  0  0  0  0  0
    0.0599   68.4833   67.7240 H   0  0  0  0  0  0  0  0  0  0  0  0
    2.5475   70.0306   64.1367 H   0  0  0  0  0  0  0  0  0  0  0  0
   -1.8220   68.5071   66.6819 H   0  0  0  0  0  0  0  0  0  0  0  0
   -1.9016   69.4018   65.1263 H   0  0  0  0  0  0  0  0  0  0  0  0
   -1.7239   67.6143   65.1263 H   0  0  0  0  0  0  0  0  0  0  0  0
    4.0700   69.3448   62.5769 H   0  0  0  0  0  0  0  0  0  0  0  0
    5.4150   67.6132   61.4125 H   0  0  0  0  0  0  0  0  0  0  0  0
    5.2292   65.2180   62.0716 H   0  0  0  0  0  0  0  0  0  0  0  0
    3.6681   64.5522   63.9012 H   0  0  0  0  0  0  0  0  0  0  0  0
    5.4167   70.7926   68.8952 H   0  0  0  0  0  0  0  0  0  0  0  0
    6.1891   69.9951   67.4832 H   0  0  0  0  0  0  0  0  0  0  0  0
    5.9368   71.7735   67.4832 H   0  0  0  0  0  0  0  0  0  0  0  0
   -0.9821   70.1999   61.0581 H   0  0  0  0  0  0  0  0  0  0  0  0
    0.6155   70.9604   60.7485 H   0  0  0  0  0  0  0  0  0  0  0  0
    0.4575   69.1710   60.7485 H   0  0  0  0  0  0  0  0  0  0  0  0
  2  1  2  0
  3  2  1  0
  4  2  1  0
  5  4  1  0
  6  5  2  0
  7  6  1  0
  7  1  1  0
  8  5  1  0
  9  7  1  0
 10  9  2  0
 11 10  1  0
 12 11  2  0
 13 12  1  0
 14 13  2  0
 14  9  1  0
 15 14  1  0
 16 15  2  0
 17 15  1  0
 18  1  1  0
 19 18  2  0
 21 18  1  0
 21 20  1  0
 22  6  1  0
 23 22  2  0
 24 22  1  0
 25 24  1  0
  3 26  1  0
  3 27  1  0
  3 28  1  0
  4 29  1  0
  7 30  1  0
  8 31  1  0
  8 32  1  0
  8 33  1  0
 10 34  1  0
 11 35  1  0
 12 36  1  0
 13 37  1  0
 20 38  1  0
 20 39  1  0
 20 40  1  0
 25 41  1  0
 25 42  1  0
 25 43  1  0
M  CHG  2  15   1  17  -1
M  END
>  <score>  (2) 
-7.239

$$$$
=
     RDKit          3D

 43 44  0  0  0  0  0  0  0  0999 V2000
    2.6930   67.3220   64.1770 C   0  0  0  0  0  0  0  0  0  0  0  0
    2.7760   67.7920   62.9140 C   0  0  0  0  0  0  0  0  0  0  0  0
    3.8290   67.3840   61.9160 C   0  0  0  0  0  0  0  0  0  0  0  0
    1.8260   68.6960   62.4630 N   0  0  0  0  0  0  0  0  0  0  0  0
    0.7020   69.0760   63.1840 C   0  0  0  0  0  0  0  0  0  0  0  0
    0.5640   68.6690   64.4680 C   0  0  0  0  0  0  0  0  0  0  0  0
    1.6080   67.7730   65.1440 C   0  0  0  0  0  0  0  0  0  0  0  0
   -0.3170   69.8890   62.4280 C   0  0  0  0  0  0  0  0  0  0  0  0
    2.2110   68.4790   66.3690 C   0  0  0  0  0  0  0  0  0  0  0  0
    3.2310   69.4340   66.1680 C   0  0  0  0  0  0  0  0  0  0  0  0
    3.7860   70.1450   67.2370 C   0  0  0  0  0  0  0  0  0  0  0  0
    3.3400   69.9240   68.5370 C   0  0  0  0  0  0  0  0  0  0  0  0
    2.3410   68.9830   68.7730 C   0  0  0  0  0  0  0  0  0  0  0  0
    1.7890   68.2650   67.6970 C   0  0  0  0  0  0  0  0  0  0  0  0
    0.7770   67.2720   68.0390 N   0  0  0  0  0  4  0  0  0  0  0  0
   -0.4090   67.6260   67.9780 O   0  0  0  0  0  0  0  0  0  0  0  0
    1.1760   66.1640   68.4210 O   0  0  0  0  0  1  0  0  0  0  0  0
    3.6460   66.3180   64.6760 C   0  0  0  0  0  0  0  0  0  0  0  0
    4.8570   66.4630   64.6770 O   0  0  0  0  0  0  0  0  0  0  0  0
    3.5960   63.9940   64.8250 C   0  0  0  0  0  0  0  0  0  0  0  0
    2.9480   65.2370   65.0940 O   0  0  0  0  0  0  0  0  0  0  0  0
   -0.5910   69.0050   65.3290 C   0  0  0  0  0  0  0  0  0  0  0  0
   -0.5410   69.8620   66.1990 O   0  0  0  0  0  0  0  0  0  0  0  0
   -1.6970   68.3220   64.9440 O   0  0  0  0  0  0  0  0  0  0  0  0
   -2.8850   68.7120   65.6330 C   0  0  0  0  0  0  0  0  0  0  0  0
    4.7256   67.0366   62.4503 H   0  0  0  0  0  0  0  0  0  0  0  0
    3.4405   66.5713   61.2846 H   0  0  0  0  0  0  0  0  0  0  0  0
    4.0895   68.2463   61.2846 H   0  0  0  0  0  0  0  0  0  0  0  0
    1.9634   69.1132   61.5313 H   0  0  0  0  0  0  0  0  0  0  0  0
    1.0917   66.8632   65.4842 H   0  0  0  0  0  0  0  0  0  0  0  0
   -0.9716   70.4113   63.1412 H   0  0  0  0  0  0  0  0  0  0  0  0
    0.1986   70.6266   61.7955 H   0  0  0  0  0  0  0  0  0  0  0  0
   -0.9217   69.2225   61.7955 H   0  0  0  0  0  0  0  0  0  0  0  0
    3.5974   69.6231   65.1482 H   0  0  0  0  0  0  0  0  0  0  0  0
    4.5796   70.8832   67.0493 H   0  0  0  0  0  0  0  0  0  0  0  0
    3.7747   70.4901   69.3740 H   0  0  0  0  0  0  0  0  0  0  0  0
    1.9847   68.8018   69.7978 H   0  0  0  0  0  0  0  0  0  0  0  0
    3.8528   63.5014   65.7744 H   0  0  0  0  0  0  0  0  0  0  0  0
    2.9209   63.3462   64.2466 H   0  0  0  0  0  0  0  0  0  0  0  0
    4.5137   64.1765   64.2466 H   0  0  0  0  0  0  0  0  0  0  0  0
   -2.7146   68.6561   66.7183 H   0  0  0  0  0  0  0  0  0  0  0  0
   -3.1478   69.7436   65.3558 H   0  0  0  0  0  0  0  0  0  0  0  0
   -3.7080   68.0369   65.3558 H   0  0  0  0  0  0  0  0  0  0  0  0
  2  1  2  0
  3  2  1  0
  4  2  1  0
  5  4  1  0
  6  5  2  0
  7  6  1  0
  7  1  1  0
  8  5  1  0
  9  7  1  0
 10  9  2  0
 11 10  1  0
 12 11  2  0
 13 12  1  0
 14 13  2  0
 14  9  1  0
 15 14  1  0
 16 15  2  0
 17 15  1  0
 18  1  1  0
 19 18  2  0
 21 18  1  0
 21 20  1  0
 22  6  1  0
 23 22  2  0
 24 22  1  0
 25 24  1  0
  3 26  1  0
  3 27  1  0
  3 28  1  0
  4 29  1  0
  7 30  1  0
  8 31  1  0
  8 32  1  0
  8 33  1  0
 10 34  1  0
 11 35  1  0
 12 36  1  0
 13 37  1  0
 20 38  1  0
 20 39  1  0
 20 40  1  0
 25 41  1  0
 25 42  1  0
 25 43  1  0
M  CHG  2  15   1  17  -1
M  END
>  <score>  (3) 
-7.199

$$$$
=
     RDKit          3D

 43 44  0  0  0  0  0  0  0  0999 V2000
    3.9440   68.9910   66.0940 C   0  0  0  0  0  0  0  0  0  0  0  0
    4.7600   69.2740   65.0560 C   0  0  0  0  0  0  0  0  0  0  0  0
    5.6790   70.4660   64.9890 C   0  0  0  0  0  0  0  0  0  0  0  0
    4.7980   68.4140   63.9690 N   0  0  0  0  0  0  0  0  0  0  0  0
    4.1360   67.1950   63.9120 C   0  0  0  0  0  0  0  0  0  0  0  0
    3.2770   66.8540   64.9020 C   0  0  0  0  0  0  0  0  0  0  0  0
    3.0330   67.7720   66.1050 C   0  0  0  0  0  0  0  0  0  0  0  0
    4.4890   66.3130   62.7420 C   0  0  0  0  0  0  0  0  0  0  0  0
    1.5540   68.1830   66.1770 C   0  0  0  0  0  0  0  0  0  0  0  0
    0.9530   68.7600   65.0370 C   0  0  0  0  0  0  0  0  0  0  0  0
   -0.4010   69.1100   65.0230 C   0  0  0  0  0  0  0  0  0  0  0  0
   -1.1940   68.8960   66.1460 C   0  0  0  0  0  0  0  0  0  0  0  0
   -0.6330   68.3370   67.2910 C   0  0  0  0  0  0  0  0  0  0  0  0
    0.7300   67.9900   67.3040 C   0  0  0  0  0  0  0  0  0  0  0  0
    1.2430   67.4480   68.5570 N   0  0  0  0  0  4  0  0  0  0  0  0
    1.0250   66.2510   68.7880 O   0  0  0  0  0  0  0  0  0  0  0  0
    1.8110   68.2360   69.3260 O   0  0  0  0  0  1  0  0  0  0  0  0
    3.9170   69.8460   67.2910 C   0  0  0  0  0  0  0  0  0  0  0  0
    2.9320   70.4530   67.6780 O   0  0  0  0  0  0  0  0  0  0  0  0
    5.3900   70.9520   68.7180 C   0  0  0  0  0  0  0  0  0  0  0  0
    5.1530   69.8500   67.8420 O   0  0  0  0  0  0  0  0  0  0  0  0
    2.5240   65.5820   64.9510 C   0  0  0  0  0  0  0  0  0  0  0  0
    1.4430   65.4310   64.4030 O   0  0  0  0  0  0  0  0  0  0  0  0
    3.2430   64.6180   65.5770 O   0  0  0  0  0  0  0  0  0  0  0  0
    3.7270   63.5990   64.7020 C   0  0  0  0  0  0  0  0  0  0  0  0
    5.9308   70.7926   66.0088 H   0  0  0  0  0  0  0  0  0  0  0  0
    6.5999   70.1894   64.4547 H   0  0  0  0  0  0  0  0  0  0  0  0
    5.1773   71.2862   64.4547 H   0  0  0  0  0  0  0  0  0  0  0  0
    5.3540   68.6983   63.1499 H   0  0  0  0  0  0  0  0  0  0  0  0
    3.2819   67.2008   67.0115 H   0  0  0  0  0  0  0  0  0  0  0  0
    4.8740   65.3510   63.1111 H   0  0  0  0  0  0  0  0  0  0  0  0
    3.5915   66.1384   62.1305 H   0  0  0  0  0  0  0  0  0  0  0  0
    5.2591   66.8059   62.1305 H   0  0  0  0  0  0  0  0  0  0  0  0
    1.5636   68.9383   64.1396 H   0  0  0  0  0  0  0  0  0  0  0  0
   -0.8413   69.5568   64.1194 H   0  0  0  0  0  0  0  0  0  0  0  0
   -2.2599   69.1674   66.1292 H   0  0  0  0  0  0  0  0  0  0  0  0
   -1.2539   68.1672   68.1830 H   0  0  0  0  0  0  0  0  0  0  0  0
    5.3171   70.6129   69.7619 H   0  0  0  0  0  0  0  0  0  0  0  0
    6.3958   71.3573   68.5336 H   0  0  0  0  0  0  0  0  0  0  0  0
    4.6397   71.7350   68.5336 H   0  0  0  0  0  0  0  0  0  0  0  0
    4.1240   62.7631   65.2968 H   0  0  0  0  0  0  0  0  0  0  0  0
    2.9037   63.2390   64.0675 H   0  0  0  0  0  0  0  0  0  0  0  0
    4.5262   64.0097   64.0675 H   0  0  0  0  0  0  0  0  0  0  0  0
  2  1  2  0
  3  2  1  0
  4  2  1  0
  5  4  1  0
  6  5  2  0
  7  6  1  0
  7  1  1  0
  8  5  1  0
  9  7  1  0
 10  9  2  0
 11 10  1  0
 12 11  2  0
 13 12  1  0
 14 13  2  0
 14  9  1  0
 15 14  1  0
 16 15  2  0
 17 15  1  0
 18  1  1  0
 19 18  2  0
 21 18  1  0
 21 20  1  0
 22  6  1  0
 23 22  2  0
 24 22  1  0
 25 24  1  0
  3 26  1  0
  3 27  1  0
  3 28  1  0
  4 29  1  0
  7 30  1  0
  8 31  1  0
  8 32  1  0
  8 33  1  0
 10 34  1  0
 11 35  1  0
 12 36  1  0
 13 37  1  0
 20 38  1  0
 20 39  1  0
 20 40  1  0
 25 41  1  0
 25 42  1  0
 25 43  1  0
M  CHG  2  15   1  17  -1
M  END
>  <score>  (4) 
-7.167

$$$$
=
     RDKit          3D

 43 44  0  0  0  0  0  0  0  0999 V2000
    2.1450   67.9430   65.4290 C   0  0  0  0  0  0  0  0  0  0  0  0
    3.4230   67.8760   64.9980 C   0  0  0  0  0  0  0  0  0  0  0  0
    3.8730   67.1390   63.7640 C   0  0  0  0  0  0  0  0  0  0  0  0
    4.4130   68.5430   65.7050 N   0  0  0  0  0  0  0  0  0  0  0  0
    4.1730   69.3900   66.7780 C   0  0  0  0  0  0  0  0  0  0  0  0
    2.9210   69.4870   67.2860 C   0  0  0  0  0  0  0  0  0  0  0  0
    1.7480   68.7020   66.6880 C   0  0  0  0  0  0  0  0  0  0  0  0
    5.3570   70.1890   67.2590 C   0  0  0  0  0  0  0  0  0  0  0  0
    1.1420   67.7580   67.7380 C   0  0  0  0  0  0  0  0  0  0  0  0
    2.0090   67.0630   68.6100 C   0  0  0  0  0  0  0  0  0  0  0  0
    1.5170   66.2280   69.6180 C   0  0  0  0  0  0  0  0  0  0  0  0
    0.1450   66.0620   69.7860 C   0  0  0  0  0  0  0  0  0  0  0  0
   -0.7400   66.7250   68.9400 C   0  0  0  0  0  0  0  0  0  0  0  0
   -0.2420   67.5600   67.9230 C   0  0  0  0  0  0  0  0  0  0  0  0
   -1.2380   68.1830   67.0590 N   0  0  0  0  0  4  0  0  0  0  0  0
   -2.0160   67.4320   66.4560 O   0  0  0  0  0  0  0  0  0  0  0  0
   -1.1970   69.4160   66.9450 O   0  0  0  0  0  1  0  0  0  0  0  0
    1.0570   67.2990   64.6770 C   0  0  0  0  0  0  0  0  0  0  0  0
    0.8980   66.0920   64.5990 O   0  0  0  0  0  0  0  0  0  0  0  0
    0.5890   68.4440   62.7020 C   0  0  0  0  0  0  0  0  0  0  0  0
    0.3120   68.2650   64.0910 O   0  0  0  0  0  0  0  0  0  0  0  0
    2.5470   70.3610   68.4200 C   0  0  0  0  0  0  0  0  0  0  0  0
    1.5640   71.0860   68.4000 O   0  0  0  0  0  0  0  0  0  0  0  0
    3.3660   70.1560   69.4790 O   0  0  0  0  0  0  0  0  0  0  0  0
    4.1470   71.2970   69.8340 C   0  0  0  0  0  0  0  0  0  0  0  0
    4.4254   66.2344   64.0582 H   0  0  0  0  0  0  0  0  0  0  0  0
    2.9946   66.8541   63.1663 H   0  0  0  0  0  0  0  0  0  0  0  0
    4.5277   67.7902   63.1663 H   0  0  0  0  0  0  0  0  0  0  0  0
    5.3908   68.4002   65.4144 H   0  0  0  0  0  0  0  0  0  0  0  0
    0.9811   69.4315   66.3884 H   0  0  0  0  0  0  0  0  0  0  0  0
    5.3707   70.1982   68.3589 H   0  0  0  0  0  0  0  0  0  0  0  0
    6.2846   69.7315   66.8846 H   0  0  0  0  0  0  0  0  0  0  0  0
    5.2798   71.2204   66.8846 H   0  0  0  0  0  0  0  0  0  0  0  0
    3.0964   67.1813   68.4935 H   0  0  0  0  0  0  0  0  0  0  0  0
    2.2175   65.6997   70.2815 H   0  0  0  0  0  0  0  0  0  0  0  0
   -0.2384   65.4094   70.5842 H   0  0  0  0  0  0  0  0  0  0  0  0
   -1.8251   66.5964   69.0663 H   0  0  0  0  0  0  0  0  0  0  0  0
    1.5076   69.0376   62.5848 H   0  0  0  0  0  0  0  0  0  0  0  0
    0.7239   67.4618   62.2255 H   0  0  0  0  0  0  0  0  0  0  0  0
   -0.2511   68.9705   62.2255 H   0  0  0  0  0  0  0  0  0  0  0  0
    4.2019   71.3772   70.9297 H   0  0  0  0  0  0  0  0  0  0  0  0
    5.1616   71.1892   69.4229 H   0  0  0  0  0  0  0  0  0  0  0  0
    3.6793   72.2038   69.4229 H   0  0  0  0  0  0  0  0  0  0  0  0
  2  1  2  0
  3  2  1  0
  4  2  1  0
  5  4  1  0
  6  5  2  0
  7  6  1  0
  7  1  1  0
  8  5  1  0
  9  7  1  0
 10  9  2  0
 11 10  1  0
 12 11  2  0
 13 12  1  0
 14 13  2  0
 14  9  1  0
 15 14  1  0
 16 15  2  0
 17 15  1  0
 18  1  1  0
 19 18  2  0
 21 18  1  0
 21 20  1  0
 22  6  1  0
 23 22  2  0
 24 22  1  0
 25 24  1  0
  3 26  1  0
  3 27  1  0
  3 28  1  0
  4 29  1  0
  7 30  1  0
  8 31  1  0
  8 32  1  0
  8 33  1  0
 10 34  1  0
 11 35  1  0
 12 36  1  0
 13 37  1  0
 20 38  1  0
 20 39  1  0
 20 40  1  0
 25 41  1  0
 25 42  1  0
 25 43  1  0
M  CHG  2  15   1  17  -1
M  END
>  <score>  (5) 
-7.118

$$$$
=
     RDKit          3D

 43 44  0  0  0  0  0  0  0  0999 V2000
    1.0760   63.1720   73.1960 C   0  0  0  0  0  0  0  0  0  0  0  0
    0.8010   63.8410   72.0550 C   0  0  0  0  0  0  0  0  0  0  0  0
    0.0430   65.1400   71.9860 C   0  0  0  0  0  0  0  0  0  0  0  0
    1.2570   63.3350   70.8470 N   0  0  0  0  0  0  0  0  0  0  0  0
    2.0930   62.2340   70.7240 C   0  0  0  0  0  0  0  0  0  0  0  0
    2.3900   61.4950   71.8190 C   0  0  0  0  0  0  0  0  0  0  0  0
    1.8450   61.8580   73.2060 C   0  0  0  0  0  0  0  0  0  0  0  0
    2.6530   61.9880   69.3470 C   0  0  0  0  0  0  0  0  0  0  0  0
    0.9850   60.7130   73.7630 C   0  0  0  0  0  0  0  0  0  0  0  0
   -0.2810   60.4700   73.1850 C   0  0  0  0  0  0  0  0  0  0  0  0
   -1.0890   59.4140   73.6140 C   0  0  0  0  0  0  0  0  0  0  0  0
   -0.6600   58.5690   74.6340 C   0  0  0  0  0  0  0  0  0  0  0  0
    0.5780   58.7830   75.2320 C   0  0  0  0  0  0  0  0  0  0  0  0
    1.3880   59.8500   74.8020 C   0  0  0  0  0  0  0  0  0  0  0  0
    2.6500   60.0250   75.5110 N   0  0  0  0  0  4  0  0  0  0  0  0
    3.6020   59.3170   75.1570 O   0  0  0  0  0  0  0  0  0  0  0  0
    2.6650   60.8290   76.4530 O   0  0  0  0  0  1  0  0  0  0  0  0
    0.6610   63.7030   74.5040 C   0  0  0  0  0  0  0  0  0  0  0  0
    1.4270   64.1800   75.3250 O   0  0  0  0  0  0  0  0  0  0  0  0
   -1.0810   62.9960   75.8810 C   0  0  0  0  0  0  0  0  0  0  0  0
   -0.6770   63.5430   74.6260 O   0  0  0  0  0  0  0  0  0  0  0  0
    3.2730   60.3080   71.8100 C   0  0  0  0  0  0  0  0  0  0  0  0
    2.9520   59.2490   71.2930 O   0  0  0  0  0  0  0  0  0  0  0  0
    4.4830   60.6010   72.3440 O   0  0  0  0  0  0  0  0  0  0  0  0
    5.4930   60.8680   71.3700 C   0  0  0  0  0  0  0  0  0  0  0  0
   -0.1656   65.4974   73.0052 H   0  0  0  0  0  0  0  0  0  0  0  0
    0.6461   65.8885   71.4512 H   0  0  0  0  0  0  0  0  0  0  0  0
   -0.9054   64.9832   71.4512 H   0  0  0  0  0  0  0  0  0  0  0  0
    0.9550   63.8079   69.9833 H   0  0  0  0  0  0  0  0  0  0  0  0
    2.7078   62.0025   73.8729 H   0  0  0  0  0  0  0  0  0  0  0  0
    3.6570   61.5469   69.4329 H   0  0  0  0  0  0  0  0  0  0  0  0
    1.9942   61.2964   68.8014 H   0  0  0  0  0  0  0  0  0  0  0  0
    2.7166   62.9410   68.8014 H   0  0  0  0  0  0  0  0  0  0  0  0
   -0.6388   61.1272   72.3788 H   0  0  0  0  0  0  0  0  0  0  0  0
   -2.0695   59.2493   73.1433 H   0  0  0  0  0  0  0  0  0  0  0  0
   -1.2970   57.7358   74.9657 H   0  0  0  0  0  0  0  0  0  0  0  0
    0.9226   58.1196   76.0390 H   0  0  0  0  0  0  0  0  0  0  0  0
   -0.6431   63.5890   76.6975 H   0  0  0  0  0  0  0  0  0  0  0  0
   -2.1781   63.0223   75.9563 H   0  0  0  0  0  0  0  0  0  0  0  0
   -0.7332   61.9552   75.9563 H   0  0  0  0  0  0  0  0  0  0  0  0
    6.4360   61.1173   71.8785 H   0  0  0  0  0  0  0  0  0  0  0  0
    5.6400   59.9779   70.7407 H   0  0  0  0  0  0  0  0  0  0  0  0
    5.1809   61.7145   70.7407 H   0  0  0  0  0  0  0  0  0  0  0  0
  2  1  2  0
  3  2  1  0
  4  2  1  0
  5  4  1  0
  6  5  2  0
  7  6  1  0
  7  1  1  0
  8  5  1  0
  9  7  1  0
 10  9  2  0
 11 10  1  0
 12 11  2  0
 13 12  1  0
 14 13  2  0
 14  9  1  0
 15 14  1  0
 16 15  2  0
 17 15  1  0
 18  1  1  0
 19 18  2  0
 21 18  1  0
 21 20  1  0
 22  6  1  0
 23 22  2  0
 24 22  1  0
 25 24  1  0
  3 26  1  0
  3 27  1  0
  3 28  1  0
  4 29  1  0
  7 30  1  0
  8 31  1  0
  8 32  1  0
  8 33  1  0
 10 34  1  0
 11 35  1  0
 12 36  1  0
 13 37  1  0
 20 38  1  0
 20 39  1  0
 20 40  1  0
 25 41  1  0
 25 42  1  0
 25 43  1  0
M  CHG  2  15   1  17  -1
M  END
>  <score>  (6) 
-7.054

$$$$
=
     RDKit          3D

 43 44  0  0  0  0  0  0  0  0999 V2000
    2.3040   67.1270   65.9420 C   0  0  0  0  0  0  0  0  0  0  0  0
    1.6760   67.5890   67.0450 C   0  0  0  0  0  0  0  0  0  0  0  0
    0.5360   66.8890   67.7370 C   0  0  0  0  0  0  0  0  0  0  0  0
    2.1020   68.7760   67.6210 N   0  0  0  0  0  0  0  0  0  0  0  0
    3.2250   69.4850   67.2150 C   0  0  0  0  0  0  0  0  0  0  0  0
    3.8900   69.1000   66.1000 C   0  0  0  0  0  0  0  0  0  0  0  0
    3.4500   67.8800   65.2820 C   0  0  0  0  0  0  0  0  0  0  0  0
    3.6420   70.6210   68.1130 C   0  0  0  0  0  0  0  0  0  0  0  0
    3.0900   68.2960   63.8470 C   0  0  0  0  0  0  0  0  0  0  0  0
    1.8770   68.9810   63.6220 C   0  0  0  0  0  0  0  0  0  0  0  0
    1.5160   69.4280   62.3470 C   0  0  0  0  0  0  0  0  0  0  0  0
    2.3540   69.2030   61.2590 C   0  0  0  0  0  0  0  0  0  0  0  0
    3.5550   68.5230   61.4430 C   0  0  0  0  0  0  0  0  0  0  0  0
    3.9130   68.0700   62.7250 C   0  0  0  0  0  0  0  0  0  0  0  0
    5.1680   67.3320   62.8180 N   0  0  0  0  0  4  0  0  0  0  0  0
    6.2110   67.9960   62.8950 O   0  0  0  0  0  0  0  0  0  0  0  0
    5.1060   66.0970   62.7580 O   0  0  0  0  0  1  0  0  0  0  0  0
    1.9210   65.8440   65.3350 C   0  0  0  0  0  0  0  0  0  0  0  0
    0.9170   65.6750   64.6620 O   0  0  0  0  0  0  0  0  0  0  0  0
    3.3680   64.1890   64.5600 C   0  0  0  0  0  0  0  0  0  0  0  0
    2.8480   64.9170   65.6730 O   0  0  0  0  0  0  0  0  0  0  0  0
    5.0990   69.7730   65.5770 C   0  0  0  0  0  0  0  0  0  0  0  0
    5.0700   70.5430   64.6290 O   0  0  0  0  0  0  0  0  0  0  0  0
    6.1780   69.4990   66.3500 O   0  0  0  0  0  0  0  0  0  0  0  0
    6.7470   70.6500   66.9750 C   0  0  0  0  0  0  0  0  0  0  0  0
    0.6645   66.9679   68.8266 H   0  0  0  0  0  0  0  0  0  0  0  0
   -0.4145   67.3593   67.4449 H   0  0  0  0  0  0  0  0  0  0  0  0
    0.5254   65.8285   67.4449 H   0  0  0  0  0  0  0  0  0  0  0  0
    1.5489   69.1573   68.4018 H   0  0  0  0  0  0  0  0  0  0  0  0
    4.3016   67.1850   65.2413 H   0  0  0  0  0  0  0  0  0  0  0  0
    3.5305   70.3172   69.1643 H   0  0  0  0  0  0  0  0  0  0  0  0
    4.6931   70.8780   67.9151 H   0  0  0  0  0  0  0  0  0  0  0  0
    3.0068   71.4970   67.9151 H   0  0  0  0  0  0  0  0  0  0  0  0
    1.2000   69.1676   64.4687 H   0  0  0  0  0  0  0  0  0  0  0  0
    0.5642   69.9605   62.2033 H   0  0  0  0  0  0  0  0  0  0  0  0
    2.0690   69.5606   60.2586 H   0  0  0  0  0  0  0  0  0  0  0  0
    4.2221   68.3406   60.5876 H   0  0  0  0  0  0  0  0  0  0  0  0
    3.9714   63.3443   64.9240 H   0  0  0  0  0  0  0  0  0  0  0  0
    2.5358   63.8089   63.9493 H   0  0  0  0  0  0  0  0  0  0  0  0
    3.9975   64.8530   63.9493 H   0  0  0  0  0  0  0  0  0  0  0  0
    6.6919   70.5386   68.0680 H   0  0  0  0  0  0  0  0  0  0  0  0
    7.7988   70.7510   66.6692 H   0  0  0  0  0  0  0  0  0  0  0  0
    6.1885   71.5470   66.6692 H   0  0  0  0  0  0  0  0  0  0  0  0
  2  1  2  0
  3  2  1  0
  4  2  1  0
  5  4  1  0
  6  5  2  0
  7  6  1  0
  7  1  1  0
  8  5  1  0
  9  7  1  0
 10  9  2  0
 11 10  1  0
 12 11  2  0
 13 12  1  0
 14 13  2  0
 14  9  1  0
 15 14  1  0
 16 15  2  0
 17 15  1  0
 18  1  1  0
 19 18  2  0
 21 18  1  0
 21 20  1  0
 22  6  1  0
 23 22  2  0
 24 22  1  0
 25 24  1  0
  3 26  1  0
  3 27  1  0
  3 28  1  0
  4 29  1  0
  7 30  1  0
  8 31  1  0
  8 32  1  0
  8 33  1  0
 10 34  1  0
 11 35  1  0
 12 36  1  0
 13 37  1  0
 20 38  1  0
 20 39  1  0
 20 40  1  0
 25 41  1  0
 25 42  1  0
 25 43  1  0
M  CHG  2  15   1  17  -1
M  END
>  <score>  (7) 
-6.729

$$$$
=
     RDKit          3D

 43 44  0  0  0  0  0  0  0  0999 V2000
    3.0480   68.9570   66.3480 C   0  0  0  0  0  0  0  0  0  0  0  0
    4.2390   69.5850   66.4530 C   0  0  0  0  0  0  0  0  0  0  0  0
    4.6360   70.4850   67.5930 C   0  0  0  0  0  0  0  0  0  0  0  0
    5.1970   69.3890   65.4690 N   0  0  0  0  0  0  0  0  0  0  0  0
    5.0710   68.4860   64.4220 C   0  0  0  0  0  0  0  0  0  0  0  0
    3.8960   67.8400   64.2350 C   0  0  0  0  0  0  0  0  0  0  0  0
    2.7010   68.0600   65.1690 C   0  0  0  0  0  0  0  0  0  0  0  0
    6.3130   68.2630   63.5980 C   0  0  0  0  0  0  0  0  0  0  0  0
    1.5000   68.6120   64.3850 C   0  0  0  0  0  0  0  0  0  0  0  0
    1.7410   69.4130   63.2470 C   0  0  0  0  0  0  0  0  0  0  0  0
    0.6920   69.9040   62.4640 C   0  0  0  0  0  0  0  0  0  0  0  0
   -0.6280   69.6120   62.7930 C   0  0  0  0  0  0  0  0  0  0  0  0
   -0.9040   68.8320   63.9120 C   0  0  0  0  0  0  0  0  0  0  0  0
    0.1520   68.3430   64.7020 C   0  0  0  0  0  0  0  0  0  0  0  0
   -0.2290   67.5690   65.8770 N   0  0  0  0  0  4  0  0  0  0  0  0
   -0.9960   68.1080   66.6870 O   0  0  0  0  0  0  0  0  0  0  0  0
    0.2860   66.4500   66.0110 O   0  0  0  0  0  1  0  0  0  0  0  0
    2.0270   69.0920   67.3980 C   0  0  0  0  0  0  0  0  0  0  0  0
    1.4100   70.1190   67.6280 O   0  0  0  0  0  0  0  0  0  0  0  0
    1.6250   68.0430   69.4400 C   0  0  0  0  0  0  0  0  0  0  0  0
    1.9250   67.9100   68.0510 O   0  0  0  0  0  0  0  0  0  0  0  0
    3.6490   66.8530   63.1610 C   0  0  0  0  0  0  0  0  0  0  0  0
    3.7840   67.1170   61.9760 O   0  0  0  0  0  0  0  0  0  0  0  0
    3.3710   65.6320   63.6800 O   0  0  0  0  0  0  0  0  0  0  0  0
    4.4990   64.7590   63.7380 C   0  0  0  0  0  0  0  0  0  0  0  0
    4.4158   69.9858   68.5481 H   0  0  0  0  0  0  0  0  0  0  0  0
    5.7129   70.7009   67.5318 H   0  0  0  0  0  0  0  0  0  0  0  0
    4.0694   71.4258   67.5318 H   0  0  0  0  0  0  0  0  0  0  0  0
    6.0590   69.9507   65.5184 H   0  0  0  0  0  0  0  0  0  0  0  0
    2.4258   67.0809   65.5882 H   0  0  0  0  0  0  0  0  0  0  0  0
    7.1733   68.1085   64.2659 H   0  0  0  0  0  0  0  0  0  0  0  0
    6.1774   67.3748   62.9633 H   0  0  0  0  0  0  0  0  0  0  0  0
    6.4948   69.1429   62.9633 H   0  0  0  0  0  0  0  0  0  0  0  0
    2.7776   69.6560   62.9705 H   0  0  0  0  0  0  0  0  0  0  0  0
    0.9115   70.5247   61.5828 H   0  0  0  0  0  0  0  0  0  0  0  0
   -1.4501   69.9961   62.1712 H   0  0  0  0  0  0  0  0  0  0  0  0
   -1.9455   68.5985   64.1780 H   0  0  0  0  0  0  0  0  0  0  0  0
    2.4706   67.6681   70.0353 H   0  0  0  0  0  0  0  0  0  0  0  0
    1.4506   69.1028   69.6776 H   0  0  0  0  0  0  0  0  0  0  0  0
    0.7226   67.4606   69.6776 H   0  0  0  0  0  0  0  0  0  0  0  0
    4.7554   64.5606   64.7891 H   0  0  0  0  0  0  0  0  0  0  0  0
    4.2557   63.8116   63.2348 H   0  0  0  0  0  0  0  0  0  0  0  0
    5.3551   65.2321   63.2348 H   0  0  0  0  0  0  0  0  0  0  0  0
  2  1  2  0
  3  2  1  0
  4  2  1  0
  5  4  1  0
  6  5  2  0
  7  6  1  0
  7  1  1  0
  8  5  1  0
  9  7  1  0
 10  9  2  0
 11 10  1  0
 12 11  2  0
 13 12  1  0
 14 13  2  0
 14  9  1  0
 15 14  1  0
 16 15  2  0
 17 15  1  0
 18  1  1  0
 19 18  2  0
 21 18  1  0
 21 20  1  0
 22  6  1  0
 23 22  2  0
 24 22  1  0
 25 24  1  0
  3 26  1  0
  3 27  1  0
  3 28  1  0
  4 29  1  0
  7 30  1  0
  8 31  1  0
  8 32  1  0
  8 33  1  0
 10 34  1  0
 11 35  1  0
 12 36  1  0
 13 37  1  0
 20 38  1  0
 20 39  1  0
 20 40  1  0
 25 41  1  0
 25 42  1  0
 25 43  1  0
M  CHG  2  15   1  17  -1
M  END
>  <score>  (8) 
-6.35

$$$$
=
     RDKit          3D

 43 44  0  0  0  0  0  0  0  0999 V2000
    2.1290   60.7010   72.9590 C   0  0  0  0  0  0  0  0  0  0  0  0
    3.3910   60.8880   72.5160 C   0  0  0  0  0  0  0  0  0  0  0  0
    4.5100   59.8920   72.6730 C   0  0  0  0  0  0  0  0  0  0  0  0
    3.7080   62.0590   71.8440 N   0  0  0  0  0  0  0  0  0  0  0  0
    2.7810   63.0260   71.4780 C   0  0  0  0  0  0  0  0  0  0  0  0
    1.5020   62.9230   71.9090 C   0  0  0  0  0  0  0  0  0  0  0  0
    1.0380   61.7460   72.7750 C   0  0  0  0  0  0  0  0  0  0  0  0
    3.2920   64.1060   70.5590 C   0  0  0  0  0  0  0  0  0  0  0  0
    0.5160   62.2490   74.1300 C   0  0  0  0  0  0  0  0  0  0  0  0
    1.3320   63.1090   74.8970 C   0  0  0  0  0  0  0  0  0  0  0  0
    0.8940   63.6390   76.1150 C   0  0  0  0  0  0  0  0  0  0  0  0
   -0.3710   63.3260   76.6030 C   0  0  0  0  0  0  0  0  0  0  0  0
   -1.2000   62.4750   75.8780 C   0  0  0  0  0  0  0  0  0  0  0  0
   -0.7550   61.9390   74.6560 C   0  0  0  0  0  0  0  0  0  0  0  0
   -1.6720   61.0260   73.9830 N   0  0  0  0  0  4  0  0  0  0  0  0
   -1.7050   59.8560   74.3860 O   0  0  0  0  0  0  0  0  0  0  0  0
   -2.3110   61.4720   73.0200 O   0  0  0  0  0  1  0  0  0  0  0  0
    1.7380   59.4490   73.6250 C   0  0  0  0  0  0  0  0  0  0  0  0
    1.8130   59.2590   74.8280 O   0  0  0  0  0  0  0  0  0  0  0  0
    1.6770   57.2200   72.9500 C   0  0  0  0  0  0  0  0  0  0  0  0
    1.3190   58.5750   72.6810 O   0  0  0  0  0  0  0  0  0  0  0  0
    0.4300   63.8860   71.5760 C   0  0  0  0  0  0  0  0  0  0  0  0
   -0.0710   64.6320   72.4050 O   0  0  0  0  0  0  0  0  0  0  0  0
    0.1790   63.8910   70.2440 O   0  0  0  0  0  0  0  0  0  0  0  0
   -0.0800   65.1890   69.7100 C   0  0  0  0  0  0  0  0  0  0  0  0
    4.7016   59.7214   73.7427 H   0  0  0  0  0  0  0  0  0  0  0  0
    4.2256   58.9427   72.1955 H   0  0  0  0  0  0  0  0  0  0  0  0
    5.4199   60.2845   72.1955 H   0  0  0  0  0  0  0  0  0  0  0  0
    4.6954   62.2221   71.6005 H   0  0  0  0  0  0  0  0  0  0  0  0
    0.2125   61.2501   72.2434 H   0  0  0  0  0  0  0  0  0  0  0  0
    3.6867   64.9403   71.1575 H   0  0  0  0  0  0  0  0  0  0  0  0
    4.0929   63.6988   69.9244 H   0  0  0  0  0  0  0  0  0  0  0  0
    2.4692   64.4671   69.9244 H   0  0  0  0  0  0  0  0  0  0  0  0
    2.3354   63.3681   74.5281 H   0  0  0  0  0  0  0  0  0  0  0  0
    1.5527   64.3065   76.6899 H   0  0  0  0  0  0  0  0  0  0  0  0
   -0.7145   63.7496   77.5583 H   0  0  0  0  0  0  0  0  0  0  0  0
   -2.2003   62.2223   76.2595 H   0  0  0  0  0  0  0  0  0  0  0  0
    1.7190   57.0609   74.0376 H   0  0  0  0  0  0  0  0  0  0  0  0
    0.9256   56.5479   72.5099 H   0  0  0  0  0  0  0  0  0  0  0  0
    2.6623   57.0068   72.5099 H   0  0  0  0  0  0  0  0  0  0  0  0
   -0.2225   65.9030   70.5346 H   0  0  0  0  0  0  0  0  0  0  0  0
    0.7722   65.5080   69.0919 H   0  0  0  0  0  0  0  0  0  0  0  0
   -0.9894   65.1565   69.0919 H   0  0  0  0  0  0  0  0  0  0  0  0
  2  1  2  0
  3  2  1  0
  4  2  1  0
  5  4  1  0
  6  5  2  0
  7  6  1  0
  7  1  1  0
  8  5  1  0
  9  7  1  0
 10  9  2  0
 11 10  1  0
 12 11  2  0
 13 12  1  0
 14 13  2  0
 14  9  1  0
 15 14  1  0
 16 15  2  0
 17 15  1  0
 18  1  1  0
 19 18  2  0
 21 18  1  0
 21 20  1  0
 22  6  1  0
 23 22  2  0
 24 22  1  0
 25 24  1  0
  3 26  1  0
  3 27  1  0
  3 28  1  0
  4 29  1  0
  7 30  1  0
  8 31  1  0
  8 32  1  0
  8 33  1  0
 10 34  1  0
 11 35  1  0
 12 36  1  0
 13 37  1  0
 20 38  1  0
 20 39  1  0
 20 40  1  0
 25 41  1  0
 25 42  1  0
 25 43  1  0
M  CHG  2  15   1  17  -1
M  END
>  <score>  (9) 
-6.253

$$$$
