=
     RDKit          3D

126129  0  0  0  0  0  0  0  0999 V2000
    1.9100   59.6810   72.5640 C   0  0  2  0  0  0  0  0  0  0  0  0
    1.8920   61.2000   72.4810 C   0  0  0  0  0  0  0  0  0  0  0  0
    0.8160   62.0150   72.4170 C   0  0  0  0  0  0  0  0  0  0  0  0
    0.9880   63.4970   72.1930 C   0  0  0  0  0  0  0  0  0  0  0  0
   -0.6150   61.5360   72.5250 C   0  0  0  0  0  0  0  0  0  0  0  0
   -1.4220   61.9570   73.7900 C   0  0  2  0  0  0  0  0  0  0  0  0
   -0.5460   62.1570   75.0370 C   0  0  0  0  0  0  0  0  0  0  0  0
   -2.4930   60.8740   74.0610 C   0  0  0  0  0  0  0  0  0  0  0  0
   -3.8020   61.3150   74.7540 C   0  0  1  0  0  0  0  0  0  0  0  0
   -4.5490   60.0470   75.2590 C   0  0  1  0  0  0  0  0  0  0  0  0
   -3.7600   59.4120   76.2710 O   0  0  0  0  0  0  0  0  0  0  0  0
   -4.2150   58.1310   76.7250 C   0  0  2  0  0  0  0  0  0  0  0  0
   -5.6990   58.2090   77.1860 C   0  0  1  0  0  0  0  0  0  0  0  0
   -6.5810   59.0420   76.2320 C   0  0  0  0  0  0  0  0  0  0  0  0
   -5.9360   60.3670   75.8270 C   0  0  2  0  0  0  0  0  0  0  0  0
   -6.3880   56.8420   77.3450 C   0  0  0  0  0  0  0  0  0  0  0  0
   -3.1600   57.7710   77.8250 C   0  0  0  0  0  0  0  0  0  0  0  0
   -1.9770   58.1150   77.8190 O   0  0  0  0  0  0  0  0  0  0  0  0
   -3.6190   56.8990   78.9730 C   0  0  0  0  0  0  0  0  0  0  0  0
   -4.5010   57.3540   79.6980 O   0  0  0  0  0  0  0  0  0  0  0  0
   -3.0530   55.6310   79.1500 N   0  0  0  0  0  0  0  0  0  0  0  0
   -1.8630   55.1130   78.4010 C   0  0  2  0  0  0  0  0  0  0  0  0
   -2.2270   54.4720   77.0510 C   0  0  0  0  0  0  0  0  0  0  0  0
   -3.3930   54.2230   76.7430 O   0  0  0  0  0  0  0  0  0  0  0  0
   -1.2100   54.0590   76.2520 O   0  0  0  0  0  0  0  0  0  0  0  0
   -0.0570   54.8460   75.8100 C   0  0  1  0  0  0  0  0  0  0  0  0
   -0.4310   56.2360   75.2200 C   0  0  1  0  0  0  0  0  0  0  0  0
    0.8040   56.9920   74.6420 C   0  0  2  0  0  0  0  0  0  0  0  0
    0.4870   58.4610   74.3710 C   0  0  0  0  0  0  0  0  0  0  0  0
    1.7490   59.2290   74.0180 C   0  0  0  0  0  0  0  0  0  0  0  0
    2.6110   59.4500   74.8730 O   0  0  0  0  0  0  0  0  0  0  0  0
   -1.5150   56.0660   74.1360 C   0  0  0  0  0  0  0  0  0  0  0  0
   -1.0830   54.1190   79.2830 C   0  0  0  0  0  0  0  0  0  0  0  0
   -1.9610   53.0650   79.9490 C   0  0  0  0  0  0  0  0  0  0  0  0
   -3.0480   53.7390   80.7640 C   0  0  0  0  0  0  0  0  0  0  0  0
   -3.8700   54.6620   79.8830 C   0  0  0  0  0  0  0  0  0  0  0  0
    1.0910   54.7300   76.8170 C   0  0  0  0  0  0  0  0  0  0  0  0
    1.6460   55.7950   77.4390 C   0  0  0  0  0  0  0  0  0  0  0  0
    1.5680   53.3080   76.9970 C   0  0  0  0  0  0  0  0  0  0  0  0
    2.8480   55.8730   78.3630 C   0  0  2  0  0  0  0  0  0  0  0  0
    2.4650   56.0560   79.8360 C   0  0  0  0  0  0  0  0  0  0  0  0
    3.6730   55.9190   80.7700 C   0  0  0  0  0  0  0  0  0  0  0  0
    5.0010   56.3620   80.1430 C   0  0  2  0  0  0  0  0  0  0  0  0
    4.8160   57.4050   79.0280 C   0  0  1  0  0  0  0  0  0  0  0  0
    3.9320   56.8640   77.8900 C   0  0  0  0  0  0  0  0  0  0  0  0
    4.2410   58.5860   79.6070 O   0  0  0  0  0  0  0  0  0  0  0  0
    3.7370   59.4990   78.6400 C   0  0  0  0  0  0  0  0  0  0  0  0
    5.6700   55.2080   79.6240 O   0  0  0  0  0  0  0  0  0  0  0  0
   -3.5450   62.1890   75.8570 O   0  0  0  0  0  0  0  0  0  0  0  0
   -4.3840   63.3340   75.8720 C   0  0  0  0  0  0  0  0  0  0  0  0
   -4.0340   57.2020   75.6650 O   0  0  0  0  0  0  0  0  0  0  0  0
   -6.7250   61.0020   74.8140 O   0  0  0  0  0  0  0  0  0  0  0  0
   -7.0170   60.1500   73.7130 C   0  0  0  0  0  0  0  0  0  0  0  0
    1.2250   56.3900   73.4140 O   0  0  0  0  0  0  0  0  0  0  0  0
    3.2120   59.0660   72.0090 C   0  0  0  0  0  0  0  0  0  0  0  0
    3.4590   59.7100   69.5910 C   0  0  0  0  0  0  0  0  0  0  0  0
    3.8030   59.8650   70.8750 C   0  0  0  0  0  0  0  0  0  0  0  0
    1.0709   59.3292   71.9458 H   0  0  0  0  0  0  0  0  0  0  0  0
    2.8743   61.6950   72.4720 H   0  0  0  0  0  0  0  0  0  0  0  0
    1.0476   64.0101   73.1642 H   0  0  0  0  0  0  0  0  0  0  0  0
    1.9131   63.6772   71.6258 H   0  0  0  0  0  0  0  0  0  0  0  0
    0.1288   63.8843   71.6258 H   0  0  0  0  0  0  0  0  0  0  0  0
   -1.1569   61.9169   71.6468 H   0  0  0  0  0  0  0  0  0  0  0  0
   -0.5391   60.4407   72.5931 H   0  0  0  0  0  0  0  0  0  0  0  0
   -1.8824   62.9351   73.5865 H   0  0  0  0  0  0  0  0  0  0  0  0
   -1.1573   62.0174   75.9408 H   0  0  0  0  0  0  0  0  0  0  0  0
    0.2730   61.4227   75.0313 H   0  0  0  0  0  0  0  0  0  0  0  0
   -0.1268   63.1740   75.0313 H   0  0  0  0  0  0  0  0  0  0  0  0
   -2.7672   60.4333   73.0911 H   0  0  0  0  0  0  0  0  0  0  0  0
   -2.0180   60.1865   74.7763 H   0  0  0  0  0  0  0  0  0  0  0  0
   -4.4166   61.8653   74.0263 H   0  0  0  0  0  0  0  0  0  0  0  0
   -4.6937   59.3814   74.3953 H   0  0  0  0  0  0  0  0  0  0  0  0
   -5.6196   58.6929   78.1707 H   0  0  0  0  0  0  0  0  0  0  0  0
   -6.7692   58.4515   75.3232 H   0  0  0  0  0  0  0  0  0  0  0  0
   -7.5121   59.2793   76.7675 H   0  0  0  0  0  0  0  0  0  0  0  0
   -5.8637   61.0411   76.6933 H   0  0  0  0  0  0  0  0  0  0  0  0
   -6.5039   56.6120   78.4144 H   0  0  0  0  0  0  0  0  0  0  0  0
   -7.3783   56.8727   76.8671 H   0  0  0  0  0  0  0  0  0  0  0  0
   -5.7742   56.0642   76.8671 H   0  0  0  0  0  0  0  0  0  0  0  0
   -1.2280   55.9798   78.1655 H   0  0  0  0  0  0  0  0  0  0  0  0
    0.3791   54.4067   74.9007 H   0  0  0  0  0  0  0  0  0  0  0  0
   -0.8221   56.8515   76.0435 H   0  0  0  0  0  0  0  0  0  0  0  0
    1.6031   56.9281   75.3952 H   0  0  0  0  0  0  0  0  0  0  0  0
   -0.2223   58.5282   73.5329 H   0  0  0  0  0  0  0  0  0  0  0  0
    0.0493   58.9006   75.2794 H   0  0  0  0  0  0  0  0  0  0  0  0
   -2.4928   55.9127   74.6161 H   0  0  0  0  0  0  0  0  0  0  0  0
   -1.5518   56.9693   73.5094 H   0  0  0  0  0  0  0  0  0  0  0  0
   -1.2735   55.1947   73.5094 H   0  0  0  0  0  0  0  0  0  0  0  0
   -0.3416   53.6051   78.6536 H   0  0  0  0  0  0  0  0  0  0  0  0
   -0.6179   54.7042   80.0900 H   0  0  0  0  0  0  0  0  0  0  0  0
   -2.4232   52.4337   79.1758 H   0  0  0  0  0  0  0  0  0  0  0  0
   -1.3416   52.4450   80.6138 H   0  0  0  0  0  0  0  0  0  0  0  0
   -3.7052   52.9711   81.1981 H   0  0  0  0  0  0  0  0  0  0  0  0
   -2.5804   54.3307   81.5648 H   0  0  0  0  0  0  0  0  0  0  0  0
   -4.4249   54.0505   79.1562 H   0  0  0  0  0  0  0  0  0  0  0  0
   -4.5438   55.2306   80.5407 H   0  0  0  0  0  0  0  0  0  0  0  0
    1.1479   56.7563   77.2447 H   0  0  0  0  0  0  0  0  0  0  0  0
    1.6445   53.0800   78.0704 H   0  0  0  0  0  0  0  0  0  0  0  0
    0.8519   52.6186   76.5258 H   0  0  0  0  0  0  0  0  0  0  0  0
    2.5549   53.1899   76.5258 H   0  0  0  0  0  0  0  0  0  0  0  0
    3.3211   54.8820   78.2992 H   0  0  0  0  0  0  0  0  0  0  0  0
    2.0280   57.0570   79.9666 H   0  0  0  0  0  0  0  0  0  0  0  0
    1.7445   55.2672   80.0980 H   0  0  0  0  0  0  0  0  0  0  0  0
    3.4905   56.5338   81.6637 H   0  0  0  0  0  0  0  0  0  0  0  0
    3.7736   54.8490   81.0047 H   0  0  0  0  0  0  0  0  0  0  0  0
    5.6012   56.8444   80.9286 H   0  0  0  0  0  0  0  0  0  0  0  0
    5.7937   57.6417   78.5830 H   0  0  0  0  0  0  0  0  0  0  0  0
    3.4349   57.7153   77.4020 H   0  0  0  0  0  0  0  0  0  0  0  0
    4.5928   56.3137   77.2040 H   0  0  0  0  0  0  0  0  0  0  0  0
    3.2663   60.3517   79.1512 H   0  0  0  0  0  0  0  0  0  0  0  0
    4.5637   59.8598   78.0105 H   0  0  0  0  0  0  0  0  0  0  0  0
    2.9912   58.9917   78.0105 H   0  0  0  0  0  0  0  0  0  0  0  0
    5.9940   54.6491   80.3742 H   0  0  0  0  0  0  0  0  0  0  0  0
   -4.5942   63.6209   76.9129 H   0  0  0  0  0  0  0  0  0  0  0  0
   -3.8795   64.1650   75.3574 H   0  0  0  0  0  0  0  0  0  0  0  0
   -5.3284   63.1033   75.3574 H   0  0  0  0  0  0  0  0  0  0  0  0
   -3.8588   56.3029   76.0405 H   0  0  0  0  0  0  0  0  0  0  0  0
   -7.3525   59.1710   74.0858 H   0  0  0  0  0  0  0  0  0  0  0  0
   -7.8118   60.6012   73.1009 H   0  0  0  0  0  0  0  0  0  0  0  0
   -6.1125   60.0189   73.1009 H   0  0  0  0  0  0  0  0  0  0  0  0
    1.7811   55.5948   73.6100 H   0  0  0  0  0  0  0  0  0  0  0  0
    3.9500   59.0136   72.8230 H   0  0  0  0  0  0  0  0  0  0  0  0
    2.9640   58.0692   71.6156 H   0  0  0  0  0  0  0  0  0  0  0  0
    3.9334   60.3298   68.8158 H   0  0  0  0  0  0  0  0  0  0  0  0
    2.7019   58.9628   69.3108 H   0  0  0  0  0  0  0  0  0  0  0  0
    4.5635   60.6217   71.1180 H   0  0  0  0  0  0  0  0  0  0  0  0
  2  1  1  0
  3  2  2  0
  4  3  1  0
  5  3  1  0
  6  5  1  0
  7  6  1  0
  8  6  1  0
  9  8  1  0
 10  9  1  0
 11 10  1  0
 12 11  1  0
 13 12  1  0
 14 13  1  0
 15 14  1  0
 15 10  1  0
 16 13  1  0
 17 12  1  0
 18 17  2  0
 19 17  1  0
 20 19  2  0
 21 19  1  0
 22 21  1  0
 23 22  1  0
 24 23  2  0
 25 23  1  0
 26 25  1  0
 27 26  1  0
 28 27  1  0
 29 28  1  0
 30 29  1  0
 30  1  1  0
 31 30  2  0
 32 27  1  0
 33 22  1  0
 34 33  1  0
 35 34  1  0
 36 35  1  0
 36 21  1  0
 37 26  1  0
 38 37  2  0
 39 37  1  0
 40 38  1  0
 41 40  1  0
 42 41  1  0
 43 42  1  0
 44 43  1  0
 45 44  1  0
 45 40  1  0
 46 44  1  0
 47 46  1  0
 48 43  1  0
 49  9  1  0
 50 49  1  0
 12 51  1  6
 52 15  1  0
 53 52  1  0
 54 28  1  0
 55  1  1  0
 57 56  2  3
 57 55  1  0
  1 58  1  6
  2 59  1  0
  4 60  1  0
  4 61  1  0
  4 62  1  0
  5 63  1  0
  5 64  1  0
  6 65  1  6
  7 66  1  0
  7 67  1  0
  7 68  1  0
  8 69  1  0
  8 70  1  0
  9 71  1  6
 10 72  1  6
 13 73  1  1
 14 74  1  0
 14 75  1  0
 15 76  1  1
 16 77  1  0
 16 78  1  0
 16 79  1  0
 22 80  1  6
 26 81  1  6
 27 82  1  1
 28 83  1  1
 29 84  1  0
 29 85  1  0
 32 86  1  0
 32 87  1  0
 32 88  1  0
 33 89  1  0
 33 90  1  0
 34 91  1  0
 34 92  1  0
 35 93  1  0
 35 94  1  0
 36 95  1  0
 36 96  1  0
 38 97  1  0
 39 98  1  0
 39 99  1  0
 39100  1  0
 40101  1  1
 41102  1  0
 41103  1  0
 42104  1  0
 42105  1  0
 43106  1  1
 44107  1  6
 45108  1  0
 45109  1  0
 47110  1  0
 47111  1  0
 47112  1  0
 48113  1  0
 50114  1  0
 50115  1  0
 50116  1  0
 51117  1  0
 53118  1  0
 53119  1  0
 53120  1  0
 54121  1  0
 55122  1  0
 55123  1  0
 56124  1  0
 56125  1  0
 57126  1  0
M  END
>  <score>  (1) 
-7.802

$$$$
=
     RDKit          3D

126129  0  0  0  0  0  0  0  0999 V2000
    1.1520   62.4330   73.2190 C   0  0  2  0  0  0  0  0  0  0  0  0
    2.1440   61.6660   72.3590 C   0  0  0  0  0  0  0  0  0  0  0  0
    2.9010   60.6040   72.7110 C   0  0  0  0  0  0  0  0  0  0  0  0
    3.9420   60.0560   71.7660 C   0  0  0  0  0  0  0  0  0  0  0  0
    2.8090   59.9070   74.0510 C   0  0  0  0  0  0  0  0  0  0  0  0
    2.2510   58.4520   74.0670 C   0  0  2  0  0  0  0  0  0  0  0  0
    1.2430   58.1680   72.9430 C   0  0  0  0  0  0  0  0  0  0  0  0
    1.5950   58.2030   75.4460 C   0  0  0  0  0  0  0  0  0  0  0  0
    1.5890   56.7560   75.9890 C   0  0  1  0  0  0  0  0  0  0  0  0
    0.5760   56.6720   77.1670 C   0  0  1  0  0  0  0  0  0  0  0  0
   -0.7440   56.9120   76.6670 O   0  0  0  0  0  0  0  0  0  0  0  0
   -1.7830   57.0450   77.6440 C   0  0  2  0  0  0  0  0  0  0  0  0
   -1.7970   55.8160   78.5990 C   0  0  1  0  0  0  0  0  0  0  0  0
   -0.3840   55.3790   79.0360 C   0  0  0  0  0  0  0  0  0  0  0  0
    0.6080   55.3130   77.8750 C   0  0  2  0  0  0  0  0  0  0  0  0
   -2.6160   56.0190   79.8860 C   0  0  0  0  0  0  0  0  0  0  0  0
   -3.0550   57.2530   76.7550 C   0  0  0  0  0  0  0  0  0  0  0  0
   -3.0750   57.8090   75.6560 O   0  0  0  0  0  0  0  0  0  0  0  0
   -4.3780   56.7660   77.3050 C   0  0  0  0  0  0  0  0  0  0  0  0
   -4.4840   55.5580   77.5070 O   0  0  0  0  0  0  0  0  0  0  0  0
   -5.3980   57.6860   77.5760 N   0  0  0  0  0  0  0  0  0  0  0  0
   -5.3720   59.1320   77.1850 C   0  0  2  0  0  0  0  0  0  0  0  0
   -4.6530   60.0260   78.2090 C   0  0  0  0  0  0  0  0  0  0  0  0
   -4.3380   59.6120   79.3250 O   0  0  0  0  0  0  0  0  0  0  0  0
   -4.4910   61.3390   77.9000 O   0  0  0  0  0  0  0  0  0  0  0  0
   -3.8990   61.8940   76.6810 C   0  0  1  0  0  0  0  0  0  0  0  0
   -2.5250   61.2670   76.3050 C   0  0  1  0  0  0  0  0  0  0  0  0
   -1.8640   61.9680   75.0780 C   0  0  2  0  0  0  0  0  0  0  0  0
   -0.6990   61.1510   74.5260 C   0  0  0  0  0  0  0  0  0  0  0  0
   -0.2100   61.7310   73.2110 C   0  0  0  0  0  0  0  0  0  0  0  0
   -0.9020   61.6550   72.1920 O   0  0  0  0  0  0  0  0  0  0  0  0
   -1.5830   61.3120   77.5240 C   0  0  0  0  0  0  0  0  0  0  0  0
   -6.8080   59.6320   76.9390 C   0  0  0  0  0  0  0  0  0  0  0  0
   -7.7890   59.2600   78.0450 C   0  0  0  0  0  0  0  0  0  0  0  0
   -7.7910   57.7570   78.2490 C   0  0  0  0  0  0  0  0  0  0  0  0
   -6.3900   57.2670   78.5680 C   0  0  0  0  0  0  0  0  0  0  0  0
   -4.9690   62.0850   75.6020 C   0  0  0  0  0  0  0  0  0  0  0  0
   -5.9530   63.0100   75.6840 C   0  0  0  0  0  0  0  0  0  0  0  0
   -4.8360   61.0950   74.4670 C   0  0  0  0  0  0  0  0  0  0  0  0
   -7.1460   63.2540   74.7770 C   0  0  2  0  0  0  0  0  0  0  0  0
   -7.1450   64.6510   74.1440 C   0  0  0  0  0  0  0  0  0  0  0  0
   -8.2310   64.8020   73.0740 C   0  0  0  0  0  0  0  0  0  0  0  0
   -9.4820   63.9500   73.3280 C   0  0  2  0  0  0  0  0  0  0  0  0
   -9.6980   63.6360   74.8180 C   0  0  1  0  0  0  0  0  0  0  0  0
   -8.4990   62.8760   75.4140 C   0  0  0  0  0  0  0  0  0  0  0  0
   -9.9180   64.8730   75.5110 O   0  0  0  0  0  0  0  0  0  0  0  0
   -9.8300   64.7490   76.9250 C   0  0  0  0  0  0  0  0  0  0  0  0
   -9.3640   62.7320   72.5850 O   0  0  0  0  0  0  0  0  0  0  0  0
    1.2230   55.8160   74.9760 O   0  0  0  0  0  0  0  0  0  0  0  0
    2.2230   54.8370   74.7320 C   0  0  0  0  0  0  0  0  0  0  0  0
   -1.5700   58.2620   78.3470 O   0  0  0  0  0  0  0  0  0  0  0  0
    1.9280   55.0730   78.3760 O   0  0  0  0  0  0  0  0  0  0  0  0
    2.2110   55.7810   79.5770 C   0  0  0  0  0  0  0  0  0  0  0  0
   -1.3700   63.2570   75.4510 O   0  0  0  0  0  0  0  0  0  0  0  0
    0.9470   63.8880   72.7470 C   0  0  0  0  0  0  0  0  0  0  0  0
    0.7810   65.0450   70.5210 C   0  0  0  0  0  0  0  0  0  0  0  0
    1.3100   64.0920   71.2970 C   0  0  0  0  0  0  0  0  0  0  0  0
    1.5789   62.4559   74.2325 H   0  0  0  0  0  0  0  0  0  0  0  0
    2.2593   62.0191   71.3236 H   0  0  0  0  0  0  0  0  0  0  0  0
    4.7697   59.6203   72.3449 H   0  0  0  0  0  0  0  0  0  0  0  0
    3.4892   59.2794   71.1321 H   0  0  0  0  0  0  0  0  0  0  0  0
    4.3260   60.8689   71.1321 H   0  0  0  0  0  0  0  0  0  0  0  0
    3.8227   59.8761   74.4769 H   0  0  0  0  0  0  0  0  0  0  0  0
    2.0766   60.4949   74.6236 H   0  0  0  0  0  0  0  0  0  0  0  0
    3.0933   57.7663   73.8928 H   0  0  0  0  0  0  0  0  0  0  0  0
    0.2721   57.8944   73.3817 H   0  0  0  0  0  0  0  0  0  0  0  0
    1.1240   59.0676   72.3212 H   0  0  0  0  0  0  0  0  0  0  0  0
    1.6112   57.3386   72.3212 H   0  0  0  0  0  0  0  0  0  0  0  0
    2.1263   58.8269   76.1798 H   0  0  0  0  0  0  0  0  0  0  0  0
    0.5331   58.4478   75.2965 H   0  0  0  0  0  0  0  0  0  0  0  0
    2.6041   56.5034   76.3293 H   0  0  0  0  0  0  0  0  0  0  0  0
    0.8627   57.4347   77.9060 H   0  0  0  0  0  0  0  0  0  0  0  0
   -2.2750   55.0398   77.9834 H   0  0  0  0  0  0  0  0  0  0  0  0
   -0.0081   56.0995   79.7773 H   0  0  0  0  0  0  0  0  0  0  0  0
   -0.4684   54.3650   79.4539 H   0  0  0  0  0  0  0  0  0  0  0  0
    0.3394   54.5000   77.1844 H   0  0  0  0  0  0  0  0  0  0  0  0
   -1.9693   55.8587   80.7613 H   0  0  0  0  0  0  0  0  0  0  0  0
   -3.0160   57.0435   79.9083 H   0  0  0  0  0  0  0  0  0  0  0  0
   -3.4481   55.2999   79.9083 H   0  0  0  0  0  0  0  0  0  0  0  0
   -4.7880   59.2037   76.2556 H   0  0  0  0  0  0  0  0  0  0  0  0
   -3.5543   62.9233   76.8591 H   0  0  0  0  0  0  0  0  0  0  0  0
   -2.7054   60.2218   76.0133 H   0  0  0  0  0  0  0  0  0  0  0  0
   -2.6386   62.0621   74.3027 H   0  0  0  0  0  0  0  0  0  0  0  0
    0.1258   61.1614   75.2538 H   0  0  0  0  0  0  0  0  0  0  0  0
   -1.0421   60.1206   74.3513 H   0  0  0  0  0  0  0  0  0  0  0  0
   -2.1782   61.2836   78.4486 H   0  0  0  0  0  0  0  0  0  0  0  0
   -0.9064   60.4452   77.4967 H   0  0  0  0  0  0  0  0  0  0  0  0
   -0.9921   62.2394   77.4967 H   0  0  0  0  0  0  0  0  0  0  0  0
   -6.7831   60.7283   76.8523 H   0  0  0  0  0  0  0  0  0  0  0  0
   -7.1631   59.1439   76.0194 H   0  0  0  0  0  0  0  0  0  0  0  0
   -7.4887   59.7547   78.9805 H   0  0  0  0  0  0  0  0  0  0  0  0
   -8.7991   59.5880   77.7586 H   0  0  0  0  0  0  0  0  0  0  0  0
   -8.4624   57.5049   79.0831 H   0  0  0  0  0  0  0  0  0  0  0  0
   -8.1386   57.2709   77.3255 H   0  0  0  0  0  0  0  0  0  0  0  0
   -6.0942   57.6656   79.5496 H   0  0  0  0  0  0  0  0  0  0  0  0
   -6.4167   56.1673   78.5627 H   0  0  0  0  0  0  0  0  0  0  0  0
   -5.8767   63.6928   76.5430 H   0  0  0  0  0  0  0  0  0  0  0  0
   -4.7001   60.0833   74.8769 H   0  0  0  0  0  0  0  0  0  0  0  0
   -5.7457   61.1211   73.8492 H   0  0  0  0  0  0  0  0  0  0  0  0
   -3.9654   61.3603   73.8492 H   0  0  0  0  0  0  0  0  0  0  0  0
   -7.0192   62.5487   73.9425 H   0  0  0  0  0  0  0  0  0  0  0  0
   -7.3187   65.3976   74.9330 H   0  0  0  0  0  0  0  0  0  0  0  0
   -6.1694   64.8012   73.6587 H   0  0  0  0  0  0  0  0  0  0  0  0
   -8.5343   65.8587   73.0360 H   0  0  0  0  0  0  0  0  0  0  0  0
   -7.7948   64.4515   72.1269 H   0  0  0  0  0  0  0  0  0  0  0  0
  -10.3580   64.5283   72.9990 H   0  0  0  0  0  0  0  0  0  0  0  0
  -10.5743   62.9808   74.9310 H   0  0  0  0  0  0  0  0  0  0  0  0
   -8.4492   63.0955   76.4907 H   0  0  0  0  0  0  0  0  0  0  0  0
   -8.6626   61.8075   75.2104 H   0  0  0  0  0  0  0  0  0  0  0  0
  -10.4041   65.5579   77.4004 H   0  0  0  0  0  0  0  0  0  0  0  0
  -10.2414   63.7768   77.2341 H   0  0  0  0  0  0  0  0  0  0  0  0
   -8.7765   64.8164   77.2341 H   0  0  0  0  0  0  0  0  0  0  0  0
   -9.2901   61.9691   73.2116 H   0  0  0  0  0  0  0  0  0  0  0  0
    2.6084   54.4597   75.6907 H   0  0  0  0  0  0  0  0  0  0  0  0
    1.7892   54.0048   74.1582 H   0  0  0  0  0  0  0  0  0  0  0  0
    3.0458   55.2884   74.1582 H   0  0  0  0  0  0  0  0  0  0  0  0
   -1.6001   58.0898   79.3214 H   0  0  0  0  0  0  0  0  0  0  0  0
    1.9590   55.1505   80.4424 H   0  0  0  0  0  0  0  0  0  0  0  0
    3.2804   56.0366   79.6086 H   0  0  0  0  0  0  0  0  0  0  0  0
    1.6124   56.7033   79.6086 H   0  0  0  0  0  0  0  0  0  0  0  0
   -1.3431   63.3271   76.4381 H   0  0  0  0  0  0  0  0  0  0  0  0
   -0.1109   64.1559   72.8849 H   0  0  0  0  0  0  0  0  0  0  0  0
    1.6127   64.5262   73.3466 H   0  0  0  0  0  0  0  0  0  0  0  0
    1.0936   65.1351   69.4702 H   0  0  0  0  0  0  0  0  0  0  0  0
    0.0335   65.7384   70.9338 H   0  0  0  0  0  0  0  0  0  0  0  0
    2.0546   63.4164   70.8507 H   0  0  0  0  0  0  0  0  0  0  0  0
  2  1  1  0
  3  2  2  0
  4  3  1  0
  5  3  1  0
  6  5  1  0
  7  6  1  0
  8  6  1  0
  9  8  1  0
 10  9  1  0
 11 10  1  0
 12 11  1  0
 13 12  1  0
 14 13  1  0
 15 14  1  0
 15 10  1  0
 16 13  1  0
 17 12  1  0
 18 17  2  0
 19 17  1  0
 20 19  2  0
 21 19  1  0
 22 21  1  0
 23 22  1  0
 24 23  2  0
 25 23  1  0
 26 25  1  0
 27 26  1  0
 28 27  1  0
 29 28  1  0
 30 29  1  0
 30  1  1  0
 31 30  2  0
 32 27  1  0
 33 22  1  0
 34 33  1  0
 35 34  1  0
 36 35  1  0
 36 21  1  0
 37 26  1  0
 38 37  2  0
 39 37  1  0
 40 38  1  0
 41 40  1  0
 42 41  1  0
 43 42  1  0
 44 43  1  0
 45 44  1  0
 45 40  1  0
 46 44  1  0
 47 46  1  0
 48 43  1  0
 49  9  1  0
 50 49  1  0
 12 51  1  1
 52 15  1  0
 53 52  1  0
 54 28  1  0
 55  1  1  0
 57 56  2  3
 57 55  1  0
  1 58  1  1
  2 59  1  0
  4 60  1  0
  4 61  1  0
  4 62  1  0
  5 63  1  0
  5 64  1  0
  6 65  1  6
  7 66  1  0
  7 67  1  0
  7 68  1  0
  8 69  1  0
  8 70  1  0
  9 71  1  1
 10 72  1  1
 13 73  1  6
 14 74  1  0
 14 75  1  0
 15 76  1  6
 16 77  1  0
 16 78  1  0
 16 79  1  0
 22 80  1  6
 26 81  1  1
 27 82  1  6
 28 83  1  6
 29 84  1  0
 29 85  1  0
 32 86  1  0
 32 87  1  0
 32 88  1  0
 33 89  1  0
 33 90  1  0
 34 91  1  0
 34 92  1  0
 35 93  1  0
 35 94  1  0
 36 95  1  0
 36 96  1  0
 38 97  1  0
 39 98  1  0
 39 99  1  0
 39100  1  0
 40101  1  6
 41102  1  0
 41103  1  0
 42104  1  0
 42105  1  0
 43106  1  6
 44107  1  6
 45108  1  0
 45109  1  0
 47110  1  0
 47111  1  0
 47112  1  0
 48113  1  0
 50114  1  0
 50115  1  0
 50116  1  0
 51117  1  0
 53118  1  0
 53119  1  0
 53120  1  0
 54121  1  0
 55122  1  0
 55123  1  0
 56124  1  0
 56125  1  0
 57126  1  0
M  END
>  <score>  (2) 
-7.506

$$$$
=
     RDKit          3D

126129  0  0  0  0  0  0  0  0999 V2000
    1.4220   63.5450   72.2940 C   0  0  2  0  0  0  0  0  0  0  0  0
    2.4610   62.9810   71.3370 C   0  0  0  0  0  0  0  0  0  0  0  0
    3.4990   62.1660   71.6250 C   0  0  0  0  0  0  0  0  0  0  0  0
    4.5190   61.8210   70.5690 C   0  0  0  0  0  0  0  0  0  0  0  0
    3.7520   61.5710   72.9920 C   0  0  0  0  0  0  0  0  0  0  0  0
    3.5870   60.0280   73.1460 C   0  0  2  0  0  0  0  0  0  0  0  0
    2.5510   59.4230   72.1860 C   0  0  0  0  0  0  0  0  0  0  0  0
    3.1900   59.7300   74.6120 C   0  0  0  0  0  0  0  0  0  0  0  0
    3.6170   58.3710   75.2100 C   0  0  1  0  0  0  0  0  0  0  0  0
    2.8110   58.1300   76.5200 C   0  0  1  0  0  0  0  0  0  0  0  0
    1.4220   58.0010   76.1980 O   0  0  0  0  0  0  0  0  0  0  0  0
    0.5130   57.9490   77.3030 C   0  0  2  0  0  0  0  0  0  0  0  0
    0.9270   56.8290   78.3010 C   0  0  1  0  0  0  0  0  0  0  0  0
    2.4480   56.7860   78.5560 C   0  0  0  0  0  0  0  0  0  0  0  0
    3.2730   56.8770   77.2720 C   0  0  2  0  0  0  0  0  0  0  0  0
    0.2490   56.9220   79.6790 C   0  0  0  0  0  0  0  0  0  0  0  0
   -0.8710   57.7730   76.5910 C   0  0  0  0  0  0  0  0  0  0  0  0
   -1.1660   58.2240   75.4830 O   0  0  0  0  0  0  0  0  0  0  0  0
   -1.9490   57.0200   77.3390 C   0  0  0  0  0  0  0  0  0  0  0  0
   -1.7220   55.8410   77.6030 O   0  0  0  0  0  0  0  0  0  0  0  0
   -3.1270   57.6800   77.7090 N   0  0  0  0  0  0  0  0  0  0  0  0
   -3.5160   59.0550   77.2590 C   0  0  2  0  0  0  0  0  0  0  0  0
   -2.9240   60.1720   78.1350 C   0  0  0  0  0  0  0  0  0  0  0  0
   -2.3800   59.9320   79.2130 O   0  0  0  0  0  0  0  0  0  0  0  0
   -3.1380   61.4570   77.7530 O   0  0  0  0  0  0  0  0  0  0  0  0
   -2.8620   62.0470   76.4410 C   0  0  1  0  0  0  0  0  0  0  0  0
   -1.4310   61.7490   75.9050 C   0  0  1  0  0  0  0  0  0  0  0  0
   -1.1260   62.4960   74.5710 C   0  0  2  0  0  0  0  0  0  0  0  0
    0.1310   61.9500   73.8970 C   0  0  0  0  0  0  0  0  0  0  0  0
    0.2910   62.5330   72.5030 C   0  0  0  0  0  0  0  0  0  0  0  0
   -0.4800   62.2130   71.5940 O   0  0  0  0  0  0  0  0  0  0  0  0
   -0.3870   62.1140   76.9790 C   0  0  0  0  0  0  0  0  0  0  0  0
   -5.0510   59.1690   77.1930 C   0  0  0  0  0  0  0  0  0  0  0  0
   -5.7610   58.6520   78.4390 C   0  0  0  0  0  0  0  0  0  0  0  0
   -5.3580   57.2130   78.7040 C   0  0  0  0  0  0  0  0  0  0  0  0
   -3.8510   57.1070   78.8460 C   0  0  0  0  0  0  0  0  0  0  0  0
   -4.0700   61.8900   75.5140 C   0  0  0  0  0  0  0  0  0  0  0  0
   -5.2310   62.5620   75.6830 C   0  0  0  0  0  0  0  0  0  0  0  0
   -3.8410   60.8650   74.4270 C   0  0  0  0  0  0  0  0  0  0  0  0
   -6.5500   62.4420   74.9390 C   0  0  2  0  0  0  0  0  0  0  0  0
   -7.3730   63.7350   74.9610 C   0  0  0  0  0  0  0  0  0  0  0  0
   -8.5910   63.6620   74.0330 C   0  0  0  0  0  0  0  0  0  0  0  0
   -9.1700   62.2500   73.8730 C   0  0  2  0  0  0  0  0  0  0  0  0
   -8.8820   61.3450   75.0830 C   0  0  1  0  0  0  0  0  0  0  0  0
   -7.3690   61.1930   75.3250 C   0  0  0  0  0  0  0  0  0  0  0  0
   -9.5320   61.9090   76.2310 O   0  0  0  0  0  0  0  0  0  0  0  0
   -9.0380   61.4000   77.4640 C   0  0  0  0  0  0  0  0  0  0  0  0
   -8.6260   61.6640   72.6860 O   0  0  0  0  0  0  0  0  0  0  0  0
    3.3770   57.2960   74.2970 O   0  0  0  0  0  0  0  0  0  0  0  0
    1.9990   56.9870   74.1460 C   0  0  0  0  0  0  0  0  0  0  0  0
    0.4970   59.2310   77.9180 O   0  0  0  0  0  0  0  0  0  0  0  0
    4.6620   57.0060   77.5950 O   0  0  0  0  0  0  0  0  0  0  0  0
    4.9430   56.7750   78.9700 C   0  0  0  0  0  0  0  0  0  0  0  0
   -0.9310   63.8920   74.8180 O   0  0  0  0  0  0  0  0  0  0  0  0
    0.8000   64.8660   71.7940 C   0  0  0  0  0  0  0  0  0  0  0  0
    1.1520   66.4670   69.8880 C   0  0  0  0  0  0  0  0  0  0  0  0
    1.2420   65.2340   70.4000 C   0  0  0  0  0  0  0  0  0  0  0  0
    1.9510   63.7476   73.2369 H   0  0  0  0  0  0  0  0  0  0  0  0
    2.3541   63.2723   70.2817 H   0  0  0  0  0  0  0  0  0  0  0  0
    5.4549   61.5045   71.0527 H   0  0  0  0  0  0  0  0  0  0  0  0
    4.1353   61.0027   69.9420 H   0  0  0  0  0  0  0  0  0  0  0  0
    4.7108   62.7043   69.9420 H   0  0  0  0  0  0  0  0  0  0  0  0
    4.7850   61.8220   73.2748 H   0  0  0  0  0  0  0  0  0  0  0  0
    2.9708   62.0025   73.6350 H   0  0  0  0  0  0  0  0  0  0  0  0
    4.5472   59.5587   72.8857 H   0  0  0  0  0  0  0  0  0  0  0  0
    1.7442   58.9519   72.7667 H   0  0  0  0  0  0  0  0  0  0  0  0
    2.1306   60.2176   71.5520 H   0  0  0  0  0  0  0  0  0  0  0  0
    3.0365   58.6664   71.5520 H   0  0  0  0  0  0  0  0  0  0  0  0
    3.6325   60.5182   75.2388 H   0  0  0  0  0  0  0  0  0  0  0  0
    2.0906   59.6954   74.6006 H   0  0  0  0  0  0  0  0  0  0  0  0
    4.6971   58.4008   75.4164 H   0  0  0  0  0  0  0  0  0  0  0  0
    2.9841   58.9929   77.1799 H   0  0  0  0  0  0  0  0  0  0  0  0
    0.5879   55.9151   77.7912 H   0  0  0  0  0  0  0  0  0  0  0  0
    2.7181   57.6309   79.2066 H   0  0  0  0  0  0  0  0  0  0  0  0
    2.6753   55.8171   79.0245 H   0  0  0  0  0  0  0  0  0  0  0  0
    3.1356   55.9735   76.6598 H   0  0  0  0  0  0  0  0  0  0  0  0
    1.0077   56.8179   80.4687 H   0  0  0  0  0  0  0  0  0  0  0  0
   -0.2506   57.8971   79.7768 H   0  0  0  0  0  0  0  0  0  0  0  0
   -0.4948   56.1175   79.7768 H   0  0  0  0  0  0  0  0  0  0  0  0
   -3.0891   59.1977   76.2553 H   0  0  0  0  0  0  0  0  0  0  0  0
   -2.7704   63.1399   76.5260 H   0  0  0  0  0  0  0  0  0  0  0  0
   -1.3761   60.6726   75.6852 H   0  0  0  0  0  0  0  0  0  0  0  0
   -1.9892   62.3390   73.9075 H   0  0  0  0  0  0  0  0  0  0  0  0
    1.0098   62.2164   74.5026 H   0  0  0  0  0  0  0  0  0  0  0  0
    0.0408   60.8568   73.8143 H   0  0  0  0  0  0  0  0  0  0  0  0
   -0.8207   61.9624   77.9784 H   0  0  0  0  0  0  0  0  0  0  0  0
    0.4987   61.4722   76.8624 H   0  0  0  0  0  0  0  0  0  0  0  0
   -0.0941   63.1679   76.8624 H   0  0  0  0  0  0  0  0  0  0  0  0
   -5.3145   60.2284   77.0582 H   0  0  0  0  0  0  0  0  0  0  0  0
   -5.3827   58.5421   76.3522 H   0  0  0  0  0  0  0  0  0  0  0  0
   -5.4817   59.2738   79.3023 H   0  0  0  0  0  0  0  0  0  0  0  0
   -6.8487   58.7003   78.2821 H   0  0  0  0  0  0  0  0  0  0  0  0
   -5.8354   56.8674   79.6328 H   0  0  0  0  0  0  0  0  0  0  0  0
   -5.6831   56.5884   77.8589 H   0  0  0  0  0  0  0  0  0  0  0  0
   -3.5468   57.6391   79.7594 H   0  0  0  0  0  0  0  0  0  0  0  0
   -3.5993   56.0371   78.8908 H   0  0  0  0  0  0  0  0  0  0  0  0
   -5.2185   63.3141   76.4856 H   0  0  0  0  0  0  0  0  0  0  0  0
   -3.6228   59.8885   74.8839 H   0  0  0  0  0  0  0  0  0  0  0  0
   -4.7433   60.7845   73.8030 H   0  0  0  0  0  0  0  0  0  0  0  0
   -2.9902   61.1761   73.8030 H   0  0  0  0  0  0  0  0  0  0  0  0
   -6.2716   62.2845   73.8865 H   0  0  0  0  0  0  0  0  0  0  0  0
   -7.7210   63.9160   75.9887 H   0  0  0  0  0  0  0  0  0  0  0  0
   -6.7274   64.5523   74.6072 H   0  0  0  0  0  0  0  0  0  0  0  0
   -9.3770   64.3139   74.4420 H   0  0  0  0  0  0  0  0  0  0  0  0
   -8.2516   63.9816   73.0367 H   0  0  0  0  0  0  0  0  0  0  0  0
  -10.2640   62.3399   73.8018 H   0  0  0  0  0  0  0  0  0  0  0  0
   -9.2734   60.3357   74.8879 H   0  0  0  0  0  0  0  0  0  0  0  0
   -7.2072   60.9884   76.3936 H   0  0  0  0  0  0  0  0  0  0  0  0
   -7.0221   60.3703   74.6825 H   0  0  0  0  0  0  0  0  0  0  0  0
   -9.5367   61.9139   78.2990 H   0  0  0  0  0  0  0  0  0  0  0  0
   -9.2421   60.3207   77.5233 H   0  0  0  0  0  0  0  0  0  0  0  0
   -7.9531   61.5718   77.5233 H   0  0  0  0  0  0  0  0  0  0  0  0
   -7.9739   60.9615   72.9338 H   0  0  0  0  0  0  0  0  0  0  0  0
    1.5357   56.8831   75.1382 H   0  0  0  0  0  0  0  0  0  0  0  0
    1.5005   57.7957   73.5914 H   0  0  0  0  0  0  0  0  0  0  0  0
    1.8936   56.0429   73.5914 H   0  0  0  0  0  0  0  0  0  0  0  0
    0.4983   59.1249   78.9023 H   0  0  0  0  0  0  0  0  0  0  0  0
    4.2409   57.3521   79.5897 H   0  0  0  0  0  0  0  0  0  0  0  0
    4.8323   55.7033   79.1919 H   0  0  0  0  0  0  0  0  0  0  0  0
    5.9730   57.0909   79.1919 H   0  0  0  0  0  0  0  0  0  0  0  0
   -0.9083   64.0544   75.7943 H   0  0  0  0  0  0  0  0  0  0  0  0
   -0.2950   64.7618   71.7986 H   0  0  0  0  0  0  0  0  0  0  0  0
    1.1389   65.6658   72.4689 H   0  0  0  0  0  0  0  0  0  0  0  0
    1.4949   66.6626   68.8613 H   0  0  0  0  0  0  0  0  0  0  0  0
    0.7351   67.2850   70.4938 H   0  0  0  0  0  0  0  0  0  0  0  0
    1.6640   64.4407   69.7655 H   0  0  0  0  0  0  0  0  0  0  0  0
  2  1  1  0
  3  2  2  0
  4  3  1  0
  5  3  1  0
  6  5  1  0
  7  6  1  0
  8  6  1  0
  9  8  1  0
 10  9  1  0
 11 10  1  0
 12 11  1  0
 13 12  1  0
 14 13  1  0
 15 14  1  0
 15 10  1  0
 16 13  1  0
 17 12  1  0
 18 17  2  0
 19 17  1  0
 20 19  2  0
 21 19  1  0
 22 21  1  0
 23 22  1  0
 24 23  2  0
 25 23  1  0
 26 25  1  0
 27 26  1  0
 28 27  1  0
 29 28  1  0
 30 29  1  0
 30  1  1  0
 31 30  2  0
 32 27  1  0
 33 22  1  0
 34 33  1  0
 35 34  1  0
 36 35  1  0
 36 21  1  0
 37 26  1  0
 38 37  2  0
 39 37  1  0
 40 38  1  0
 41 40  1  0
 42 41  1  0
 43 42  1  0
 44 43  1  0
 45 44  1  0
 45 40  1  0
 46 44  1  0
 47 46  1  0
 48 43  1  0
 49  9  1  0
 50 49  1  0
 12 51  1  1
 52 15  1  0
 53 52  1  0
 54 28  1  0
 55  1  1  0
 57 56  2  3
 57 55  1  0
  1 58  1  1
  2 59  1  0
  4 60  1  0
  4 61  1  0
  4 62  1  0
  5 63  1  0
  5 64  1  0
  6 65  1  6
  7 66  1  0
  7 67  1  0
  7 68  1  0
  8 69  1  0
  8 70  1  0
  9 71  1  1
 10 72  1  1
 13 73  1  6
 14 74  1  0
 14 75  1  0
 15 76  1  6
 16 77  1  0
 16 78  1  0
 16 79  1  0
 22 80  1  6
 26 81  1  1
 27 82  1  6
 28 83  1  6
 29 84  1  0
 29 85  1  0
 32 86  1  0
 32 87  1  0
 32 88  1  0
 33 89  1  0
 33 90  1  0
 34 91  1  0
 34 92  1  0
 35 93  1  0
 35 94  1  0
 36 95  1  0
 36 96  1  0
 38 97  1  0
 39 98  1  0
 39 99  1  0
 39100  1  0
 40101  1  6
 41102  1  0
 41103  1  0
 42104  1  0
 42105  1  0
 43106  1  6
 44107  1  6
 45108  1  0
 45109  1  0
 47110  1  0
 47111  1  0
 47112  1  0
 48113  1  0
 50114  1  0
 50115  1  0
 50116  1  0
 51117  1  0
 53118  1  0
 53119  1  0
 53120  1  0
 54121  1  0
 55122  1  0
 55123  1  0
 56124  1  0
 56125  1  0
 57126  1  0
M  END
>  <score>  (3) 
-6.946

$$$$
=
     RDKit          3D

126129  0  0  0  0  0  0  0  0999 V2000
   -0.3360   53.7420   76.6220 C   0  0  2  0  0  0  0  0  0  0  0  0
   -1.6020   52.9030   76.5330 C   0  0  0  0  0  0  0  0  0  0  0  0
   -2.7510   53.0580   77.2260 C   0  0  0  0  0  0  0  0  0  0  0  0
   -3.8590   52.0400   77.1130 C   0  0  0  0  0  0  0  0  0  0  0  0
   -3.0180   54.2060   78.1750 C   0  0  0  0  0  0  0  0  0  0  0  0
   -4.1090   55.2400   77.7640 C   0  0  2  0  0  0  0  0  0  0  0  0
   -4.2570   55.4040   76.2430 C   0  0  0  0  0  0  0  0  0  0  0  0
   -3.7550   56.5990   78.4140 C   0  0  0  0  0  0  0  0  0  0  0  0
   -4.9170   57.5560   78.7580 C   0  0  1  0  0  0  0  0  0  0  0  0
   -4.3300   58.9710   79.0360 C   0  0  1  0  0  0  0  0  0  0  0  0
   -3.7420   59.4780   77.8340 O   0  0  0  0  0  0  0  0  0  0  0  0
   -2.9990   60.6970   77.9520 C   0  0  2  0  0  0  0  0  0  0  0  0
   -3.8650   61.8030   78.6220 C   0  0  1  0  0  0  0  0  0  0  0  0
   -4.6790   61.2820   79.8250 C   0  0  0  0  0  0  0  0  0  0  0  0
   -5.3880   59.9590   79.5370 C   0  0  2  0  0  0  0  0  0  0  0  0
   -3.0660   63.0200   79.1220 C   0  0  0  0  0  0  0  0  0  0  0  0
   -2.5510   60.9610   76.4740 C   0  0  0  0  0  0  0  0  0  0  0  0
   -2.3100   60.0920   75.6350 O   0  0  0  0  0  0  0  0  0  0  0  0
   -2.3600   62.4010   76.0500 C   0  0  0  0  0  0  0  0  0  0  0  0
   -3.3530   63.1240   76.0780 O   0  0  0  0  0  0  0  0  0  0  0  0
   -1.0890   62.8500   75.6700 N   0  0  0  0  0  0  0  0  0  0  0  0
    0.1010   61.9670   75.4560 C   0  0  2  0  0  0  0  0  0  0  0  0
    0.8800   61.6730   76.7500 C   0  0  0  0  0  0  0  0  0  0  0  0
    0.6610   62.2870   77.7940 O   0  0  0  0  0  0  0  0  0  0  0  0
    1.9210   60.8030   76.6790 O   0  0  0  0  0  0  0  0  0  0  0  0
    1.9030   59.4460   76.1280 C   0  0  1  0  0  0  0  0  0  0  0  0
    0.7370   58.5640   76.6630 C   0  0  1  0  0  0  0  0  0  0  0  0
    0.8220   57.0910   76.1580 C   0  0  2  0  0  0  0  0  0  0  0  0
   -0.4780   56.3340   76.4150 C   0  0  0  0  0  0  0  0  0  0  0  0
   -0.4580   54.9800   75.7270 C   0  0  0  0  0  0  0  0  0  0  0  0
   -0.5140   54.8970   74.4970 O   0  0  0  0  0  0  0  0  0  0  0  0
    0.7190   58.6060   78.2040 C   0  0  0  0  0  0  0  0  0  0  0  0
    1.0270   62.5860   74.3920 C   0  0  0  0  0  0  0  0  0  0  0  0
    1.3270   64.0640   74.6210 C   0  0  0  0  0  0  0  0  0  0  0  0
    0.0300   64.8470   74.7000 C   0  0  0  0  0  0  0  0  0  0  0  0
   -0.8550   64.2890   75.8000 C   0  0  0  0  0  0  0  0  0  0  0  0
    2.2140   59.4690   74.6300 C   0  0  0  0  0  0  0  0  0  0  0  0
    3.3410   60.0080   74.1100 C   0  0  0  0  0  0  0  0  0  0  0  0
    1.1040   58.8730   73.7940 C   0  0  0  0  0  0  0  0  0  0  0  0
    3.7500   60.2180   72.6630 C   0  0  2  0  0  0  0  0  0  0  0  0
    5.1490   60.8280   72.5160 C   0  0  0  0  0  0  0  0  0  0  0  0
    5.6270   60.8340   71.0590 C   0  0  0  0  0  0  0  0  0  0  0  0
    4.4960   60.9620   70.0310 C   0  0  2  0  0  0  0  0  0  0  0  0
    3.2560   61.6780   70.5930 C   0  0  1  0  0  0  0  0  0  0  0  0
    2.6810   60.9350   71.8130 C   0  0  0  0  0  0  0  0  0  0  0  0
    3.6280   63.0200   70.9380 O   0  0  0  0  0  0  0  0  0  0  0  0
    2.5240   63.9140   70.9950 C   0  0  0  0  0  0  0  0  0  0  0  0
    4.1390   59.6530   69.5770 O   0  0  0  0  0  0  0  0  0  0  0  0
   -5.8670   57.6360   77.6910 O   0  0  0  0  0  0  0  0  0  0  0  0
   -7.1380   57.1010   78.0320 C   0  0  0  0  0  0  0  0  0  0  0  0
   -1.8190   60.4210   78.6950 O   0  0  0  0  0  0  0  0  0  0  0  0
   -5.9760   59.4520   80.7410 O   0  0  0  0  0  0  0  0  0  0  0  0
   -7.3950   59.5420   80.7550 C   0  0  0  0  0  0  0  0  0  0  0  0
    1.8830   56.3990   76.8240 O   0  0  0  0  0  0  0  0  0  0  0  0
    0.9290   52.9660   76.2020 C   0  0  0  0  0  0  0  0  0  0  0  0
    1.5410   51.9960   78.4390 C   0  0  0  0  0  0  0  0  0  0  0  0
    1.2630   51.8340   77.1400 C   0  0  0  0  0  0  0  0  0  0  0  0
   -0.2302   54.0272   77.6791 H   0  0  0  0  0  0  0  0  0  0  0  0
   -1.5788   52.0683   75.8169 H   0  0  0  0  0  0  0  0  0  0  0  0
   -4.1854   51.7401   78.1197 H   0  0  0  0  0  0  0  0  0  0  0  0
   -4.7073   52.4803   76.5685 H   0  0  0  0  0  0  0  0  0  0  0  0
   -3.4920   51.1575   76.5685 H   0  0  0  0  0  0  0  0  0  0  0  0
   -3.3214   53.7726   79.1394 H   0  0  0  0  0  0  0  0  0  0  0  0
   -2.0798   54.7800   78.1916 H   0  0  0  0  0  0  0  0  0  0  0  0
   -5.0798   54.8653   78.1206 H   0  0  0  0  0  0  0  0  0  0  0  0
   -4.9799   56.2051   76.0292 H   0  0  0  0  0  0  0  0  0  0  0  0
   -3.2817   55.6639   75.8056 H   0  0  0  0  0  0  0  0  0  0  0  0
   -4.6153   54.4604   75.8056 H   0  0  0  0  0  0  0  0  0  0  0  0
   -3.2178   56.3853   79.3498 H   0  0  0  0  0  0  0  0  0  0  0  0
   -3.1754   57.1314   77.6455 H   0  0  0  0  0  0  0  0  0  0  0  0
   -5.4398   57.1686   79.6449 H   0  0  0  0  0  0  0  0  0  0  0  0
   -3.5758   58.8671   79.8300 H   0  0  0  0  0  0  0  0  0  0  0  0
   -4.5303   62.1158   77.8038 H   0  0  0  0  0  0  0  0  0  0  0  0
   -3.9953   61.1359   80.6742 H   0  0  0  0  0  0  0  0  0  0  0  0
   -5.4545   62.0299   80.0468 H   0  0  0  0  0  0  0  0  0  0  0  0
   -6.1815   60.1011   78.7886 H   0  0  0  0  0  0  0  0  0  0  0  0
   -3.0606   63.0283   80.2220 H   0  0  0  0  0  0  0  0  0  0  0  0
   -2.0324   62.9578   78.7507 H   0  0  0  0  0  0  0  0  0  0  0  0
   -3.5340   63.9436   78.7507 H   0  0  0  0  0  0  0  0  0  0  0  0
   -0.2777   60.9972   75.1009 H   0  0  0  0  0  0  0  0  0  0  0  0
    2.7393   58.8582   76.5343 H   0  0  0  0  0  0  0  0  0  0  0  0
   -0.2021   58.9800   76.2691 H   0  0  0  0  0  0  0  0  0  0  0  0
    1.0086   57.1306   75.0747 H   0  0  0  0  0  0  0  0  0  0  0  0
   -0.6015   56.1865   77.4980 H   0  0  0  0  0  0  0  0  0  0  0  0
   -1.3149   56.9227   76.0111 H   0  0  0  0  0  0  0  0  0  0  0  0
    1.1231   57.6632   78.6012 H   0  0  0  0  0  0  0  0  0  0  0  0
    1.3361   59.4462   78.5551 H   0  0  0  0  0  0  0  0  0  0  0  0
   -0.3150   58.7386   78.5551 H   0  0  0  0  0  0  0  0  0  0  0  0
    1.9786   62.0342   74.3972 H   0  0  0  0  0  0  0  0  0  0  0  0
    0.5020   62.5114   73.4282 H   0  0  0  0  0  0  0  0  0  0  0  0
    1.8824   64.1819   75.5632 H   0  0  0  0  0  0  0  0  0  0  0  0
    1.9303   64.4454   73.7840 H   0  0  0  0  0  0  0  0  0  0  0  0
    0.2553   65.9019   74.9154 H   0  0  0  0  0  0  0  0  0  0  0  0
   -0.4979   64.7636   73.7386 H   0  0  0  0  0  0  0  0  0  0  0  0
   -0.3716   64.4795   76.7695 H   0  0  0  0  0  0  0  0  0  0  0  0
   -1.8314   64.7898   75.7230 H   0  0  0  0  0  0  0  0  0  0  0  0
    4.0773   60.3478   74.8532 H   0  0  0  0  0  0  0  0  0  0  0  0
    0.3296   58.4572   74.4554 H   0  0  0  0  0  0  0  0  0  0  0  0
    0.6625   59.6554   73.1592 H   0  0  0  0  0  0  0  0  0  0  0  0
    1.5123   58.0728   73.1592 H   0  0  0  0  0  0  0  0  0  0  0  0
    3.8198   59.2068   72.2357 H   0  0  0  0  0  0  0  0  0  0  0  0
    5.1246   61.8639   72.8853 H   0  0  0  0  0  0  0  0  0  0  0  0
    5.8494   60.2121   73.0991 H   0  0  0  0  0  0  0  0  0  0  0  0
    6.3144   61.6821   70.9241 H   0  0  0  0  0  0  0  0  0  0  0  0
    6.1114   59.8629   70.8794 H   0  0  0  0  0  0  0  0  0  0  0  0
    4.8647   61.5795   69.1987 H   0  0  0  0  0  0  0  0  0  0  0  0
    2.4643   61.6924   69.8294 H   0  0  0  0  0  0  0  0  0  0  0  0
    2.1621   61.6652   72.4514 H   0  0  0  0  0  0  0  0  0  0  0  0
    2.0038   60.1589   71.4268 H   0  0  0  0  0  0  0  0  0  0  0  0
    2.2716   64.1184   72.0460 H   0  0  0  0  0  0  0  0  0  0  0  0
    2.7883   64.8556   70.4916 H   0  0  0  0  0  0  0  0  0  0  0  0
    1.6579   63.4597   70.4916 H   0  0  0  0  0  0  0  0  0  0  0  0
    3.9787   59.0653   70.3574 H   0  0  0  0  0  0  0  0  0  0  0  0
   -7.2366   57.0595   79.1268 H   0  0  0  0  0  0  0  0  0  0  0  0
   -7.9292   57.7424   77.6166 H   0  0  0  0  0  0  0  0  0  0  0  0
   -7.2324   56.0868   77.6166 H   0  0  0  0  0  0  0  0  0  0  0  0
   -2.0201   60.4680   79.6632 H   0  0  0  0  0  0  0  0  0  0  0  0
   -7.7507   59.5646   81.7957 H   0  0  0  0  0  0  0  0  0  0  0  0
   -7.7092   60.4619   80.2401 H   0  0  0  0  0  0  0  0  0  0  0  0
   -7.8229   58.6692   80.2401 H   0  0  0  0  0  0  0  0  0  0  0  0
    1.7638   56.4767   77.8037 H   0  0  0  0  0  0  0  0  0  0  0  0
    0.7684   52.5518   75.1957 H   0  0  0  0  0  0  0  0  0  0  0  0
    1.7718   53.6725   76.2250 H   0  0  0  0  0  0  0  0  0  0  0  0
    1.7764   51.1221   79.0642 H   0  0  0  0  0  0  0  0  0  0  0  0
    1.5341   53.0030   78.8815 H   0  0  0  0  0  0  0  0  0  0  0  0
    1.2792   50.8127   76.7318 H   0  0  0  0  0  0  0  0  0  0  0  0
  2  1  1  0
  3  2  2  0
  4  3  1  0
  5  3  1  0
  6  5  1  0
  7  6  1  0
  8  6  1  0
  9  8  1  0
 10  9  1  0
 11 10  1  0
 12 11  1  0
 13 12  1  0
 14 13  1  0
 15 14  1  0
 15 10  1  0
 16 13  1  0
 17 12  1  0
 18 17  2  0
 19 17  1  0
 20 19  2  0
 21 19  1  0
 22 21  1  0
 23 22  1  0
 24 23  2  0
 25 23  1  0
 26 25  1  0
 27 26  1  0
 28 27  1  0
 29 28  1  0
 30 29  1  0
 30  1  1  0
 31 30  2  0
 32 27  1  0
 33 22  1  0
 34 33  1  0
 35 34  1  0
 36 35  1  0
 36 21  1  0
 37 26  1  0
 38 37  2  0
 39 37  1  0
 40 38  1  0
 41 40  1  0
 42 41  1  0
 43 42  1  0
 44 43  1  0
 45 44  1  0
 45 40  1  0
 46 44  1  0
 47 46  1  0
 48 43  1  0
 49  9  1  0
 50 49  1  0
 12 51  1  1
 52 15  1  0
 53 52  1  0
 54 28  1  0
 55  1  1  0
 57 56  2  3
 57 55  1  0
  1 58  1  1
  2 59  1  0
  4 60  1  0
  4 61  1  0
  4 62  1  0
  5 63  1  0
  5 64  1  0
  6 65  1  1
  7 66  1  0
  7 67  1  0
  7 68  1  0
  8 69  1  0
  8 70  1  0
  9 71  1  1
 10 72  1  1
 13 73  1  6
 14 74  1  0
 14 75  1  0
 15 76  1  6
 16 77  1  0
 16 78  1  0
 16 79  1  0
 22 80  1  6
 26 81  1  1
 27 82  1  6
 28 83  1  6
 29 84  1  0
 29 85  1  0
 32 86  1  0
 32 87  1  0
 32 88  1  0
 33 89  1  0
 33 90  1  0
 34 91  1  0
 34 92  1  0
 35 93  1  0
 35 94  1  0
 36 95  1  0
 36 96  1  0
 38 97  1  0
 39 98  1  0
 39 99  1  0
 39100  1  0
 40101  1  6
 41102  1  0
 41103  1  0
 42104  1  0
 42105  1  0
 43106  1  6
 44107  1  6
 45108  1  0
 45109  1  0
 47110  1  0
 47111  1  0
 47112  1  0
 48113  1  0
 50114  1  0
 50115  1  0
 50116  1  0
 51117  1  0
 53118  1  0
 53119  1  0
 53120  1  0
 54121  1  0
 55122  1  0
 55123  1  0
 56124  1  0
 56125  1  0
 57126  1  0
M  END
>  <score>  (4) 
-6.782

$$$$
=
     RDKit          3D

126129  0  0  0  0  0  0  0  0999 V2000
    0.4860   61.2260   73.9590 C   0  0  2  0  0  0  0  0  0  0  0  0
    1.2000   60.5260   72.8140 C   0  0  0  0  0  0  0  0  0  0  0  0
    1.8620   59.3480   72.8440 C   0  0  0  0  0  0  0  0  0  0  0  0
    2.6390   58.8720   71.6420 C   0  0  0  0  0  0  0  0  0  0  0  0
    1.9160   58.4400   74.0540 C   0  0  0  0  0  0  0  0  0  0  0  0
    1.1850   57.0680   73.9560 C   0  0  2  0  0  0  0  0  0  0  0  0
   -0.0350   57.0880   73.0210 C   0  0  0  0  0  0  0  0  0  0  0  0
    0.7540   56.6490   75.3820 C   0  0  0  0  0  0  0  0  0  0  0  0
    0.6550   55.1380   75.6880 C   0  0  1  0  0  0  0  0  0  0  0  0
   -0.1380   54.9500   77.0150 C   0  0  1  0  0  0  0  0  0  0  0  0
   -1.4820   55.4050   76.8250 O   0  0  0  0  0  0  0  0  0  0  0  0
   -2.3050   55.4690   77.9950 C   0  0  2  0  0  0  0  0  0  0  0  0
   -2.3120   54.0990   78.7350 C   0  0  1  0  0  0  0  0  0  0  0  0
   -0.9140   53.4540   78.8160 C   0  0  0  0  0  0  0  0  0  0  0  0
   -0.1600   53.4920   77.4860 C   0  0  2  0  0  0  0  0  0  0  0  0
   -2.8580   54.1560   80.1730 C   0  0  0  0  0  0  0  0  0  0  0  0
   -3.6760   55.9560   77.4150 C   0  0  0  0  0  0  0  0  0  0  0  0
   -3.8160   56.6950   76.4390 O   0  0  0  0  0  0  0  0  0  0  0  0
   -4.9330   55.5150   78.1320 C   0  0  0  0  0  0  0  0  0  0  0  0
   -5.1600   54.3080   78.1630 O   0  0  0  0  0  0  0  0  0  0  0  0
   -5.7600   56.4720   78.7340 N   0  0  0  0  0  0  0  0  0  0  0  0
   -5.6140   57.9530   78.5710 C   0  0  2  0  0  0  0  0  0  0  0  0
   -4.6140   58.5780   79.5600 C   0  0  0  0  0  0  0  0  0  0  0  0
   -4.1650   57.9460   80.5160 O   0  0  0  0  0  0  0  0  0  0  0  0
   -4.3380   59.9010   79.4300 O   0  0  0  0  0  0  0  0  0  0  0  0
   -3.9030   60.5990   78.2170 C   0  0  1  0  0  0  0  0  0  0  0  0
   -2.7110   59.9130   77.4890 C   0  0  1  0  0  0  0  0  0  0  0  0
   -2.1910   60.7480   76.2780 C   0  0  2  0  0  0  0  0  0  0  0  0
   -1.2590   59.9270   75.3910 C   0  0  0  0  0  0  0  0  0  0  0  0
   -0.9370   60.6770   74.1100 C   0  0  0  0  0  0  0  0  0  0  0  0
   -1.8010   60.8490   73.2460 O   0  0  0  0  0  0  0  0  0  0  0  0
   -1.5710   59.6490   78.4930 C   0  0  0  0  0  0  0  0  0  0  0  0
   -6.9920   58.6300   78.6900 C   0  0  0  0  0  0  0  0  0  0  0  0
   -7.8030   58.1710   79.8970 C   0  0  0  0  0  0  0  0  0  0  0  0
   -7.9660   56.6630   79.8650 C   0  0  0  0  0  0  0  0  0  0  0  0
   -6.6080   55.9870   79.8250 C   0  0  0  0  0  0  0  0  0  0  0  0
   -5.1120   61.0820   77.4110 C   0  0  0  0  0  0  0  0  0  0  0  0
   -5.3450   60.7200   76.1290 C   0  0  0  0  0  0  0  0  0  0  0  0
   -5.9830   62.0440   78.1860 C   0  0  0  0  0  0  0  0  0  0  0  0
   -6.4130   61.1890   75.1570 C   0  0  2  0  0  0  0  0  0  0  0  0
   -6.5750   62.7140   75.1300 C   0  0  0  0  0  0  0  0  0  0  0  0
   -7.4980   63.1780   73.9990 C   0  0  0  0  0  0  0  0  0  0  0  0
   -8.5940   62.1690   73.6330 C   0  0  2  0  0  0  0  0  0  0  0  0
   -8.9690   61.2440   74.8030 C   0  0  1  0  0  0  0  0  0  0  0  0
   -7.7530   60.4390   75.2970 C   0  0  0  0  0  0  0  0  0  0  0  0
   -9.5130   62.0500   75.8580 O   0  0  0  0  0  0  0  0  0  0  0  0
   -9.5380   61.3890   77.1160 C   0  0  0  0  0  0  0  0  0  0  0  0
   -8.1450   61.3890   72.5200 O   0  0  0  0  0  0  0  0  0  0  0  0
   -0.0050   54.4300   74.6340 O   0  0  0  0  0  0  0  0  0  0  0  0
    0.8020   53.4190   74.0480 C   0  0  0  0  0  0  0  0  0  0  0  0
   -1.8140   56.5170   78.8200 O   0  0  0  0  0  0  0  0  0  0  0  0
    1.1850   53.0370   77.6770 O   0  0  0  0  0  0  0  0  0  0  0  0
    1.5410   52.8960   79.0460 C   0  0  0  0  0  0  0  0  0  0  0  0
   -1.4730   61.8960   76.7400 O   0  0  0  0  0  0  0  0  0  0  0  0
    0.3940   62.7540   73.7630 C   0  0  0  0  0  0  0  0  0  0  0  0
    0.3460   64.4020   71.8650 C   0  0  0  0  0  0  0  0  0  0  0  0
    0.6190   63.1790   72.3340 C   0  0  0  0  0  0  0  0  0  0  0  0
    1.0840   61.0282   74.8608 H   0  0  0  0  0  0  0  0  0  0  0  0
    1.1748   61.0411   71.8424 H   0  0  0  0  0  0  0  0  0  0  0  0
    3.5326   58.3246   71.9763 H   0  0  0  0  0  0  0  0  0  0  0  0
    2.0063   58.2063   71.0365 H   0  0  0  0  0  0  0  0  0  0  0  0
    2.9447   59.7380   71.0365 H   0  0  0  0  0  0  0  0  0  0  0  0
    2.9759   58.2345   74.2648 H   0  0  0  0  0  0  0  0  0  0  0  0
    1.3779   58.9889   74.8409 H   0  0  0  0  0  0  0  0  0  0  0  0
    1.8867   56.3428   73.5182 H   0  0  0  0  0  0  0  0  0  0  0  0
   -0.9567   57.1031   73.6212 H   0  0  0  0  0  0  0  0  0  0  0  0
    0.0041   57.9856   72.3864 H   0  0  0  0  0  0  0  0  0  0  0  0
   -0.0254   56.1896   72.3864 H   0  0  0  0  0  0  0  0  0  0  0  0
    1.4824   57.0794   76.0850 H   0  0  0  0  0  0  0  0  0  0  0  0
   -0.2766   57.0206   75.4811 H   0  0  0  0  0  0  0  0  0  0  0  0
    1.6727   54.7309   75.7806 H   0  0  0  0  0  0  0  0  0  0  0  0
    0.3714   55.5385   77.7923 H   0  0  0  0  0  0  0  0  0  0  0  0
   -2.9881   53.4934   78.1136 H   0  0  0  0  0  0  0  0  0  0  0  0
   -0.3222   53.9937   79.5699 H   0  0  0  0  0  0  0  0  0  0  0  0
   -1.0547   52.3965   79.0842 H   0  0  0  0  0  0  0  0  0  0  0  0
   -0.6501   52.8433   76.7451 H   0  0  0  0  0  0  0  0  0  0  0  0
   -2.0244   54.0690   80.8854 H   0  0  0  0  0  0  0  0  0  0  0  0
   -3.3766   55.1132   80.3306 H   0  0  0  0  0  0  0  0  0  0  0  0
   -3.5631   53.3266   80.3306 H   0  0  0  0  0  0  0  0  0  0  0  0
   -5.1990   58.1269   77.5672 H   0  0  0  0  0  0  0  0  0  0  0  0
   -3.4008   61.5422   78.4781 H   0  0  0  0  0  0  0  0  0  0  0  0
   -3.0749   58.9580   77.0822 H   0  0  0  0  0  0  0  0  0  0  0  0
   -3.0710   61.0537   75.6931 H   0  0  0  0  0  0  0  0  0  0  0  0
   -0.3250   59.7268   75.9366 H   0  0  0  0  0  0  0  0  0  0  0  0
   -1.7596   58.9826   75.1312 H   0  0  0  0  0  0  0  0  0  0  0  0
   -1.9578   59.7386   79.5188 H   0  0  0  0  0  0  0  0  0  0  0  0
   -1.1736   58.6351   78.3382 H   0  0  0  0  0  0  0  0  0  0  0  0
   -0.7683   60.3850   78.3382 H   0  0  0  0  0  0  0  0  0  0  0  0
   -6.8387   59.7164   78.7685 H   0  0  0  0  0  0  0  0  0  0  0  0
   -7.5649   58.3483   77.7942 H   0  0  0  0  0  0  0  0  0  0  0  0
   -7.2802   58.4620   80.8200 H   0  0  0  0  0  0  0  0  0  0  0  0
   -8.7958   58.6437   79.8678 H   0  0  0  0  0  0  0  0  0  0  0  0
   -8.5070   56.3373   80.7657 H   0  0  0  0  0  0  0  0  0  0  0  0
   -8.5315   56.3834   78.9639 H   0  0  0  0  0  0  0  0  0  0  0  0
   -6.0941   56.1758   80.7791 H   0  0  0  0  0  0  0  0  0  0  0  0
   -6.7793   54.9135   79.6567 H   0  0  0  0  0  0  0  0  0  0  0  0
   -4.6513   59.9669   75.7270 H   0  0  0  0  0  0  0  0  0  0  0  0
   -5.8374   61.8832   79.2644 H   0  0  0  0  0  0  0  0  0  0  0  0
   -5.7069   63.0773   77.9288 H   0  0  0  0  0  0  0  0  0  0  0  0
   -7.0385   61.8716   77.9288 H   0  0  0  0  0  0  0  0  0  0  0  0
   -6.0347   60.9115   74.1621 H   0  0  0  0  0  0  0  0  0  0  0  0
   -6.9990   63.0422   76.0905 H   0  0  0  0  0  0  0  0  0  0  0  0
   -5.5824   63.1560   74.9586 H   0  0  0  0  0  0  0  0  0  0  0  0
   -7.9814   64.1158   74.3101 H   0  0  0  0  0  0  0  0  0  0  0  0
   -6.8684   63.3014   73.1055 H   0  0  0  0  0  0  0  0  0  0  0  0
   -9.5018   62.7346   73.3763 H   0  0  0  0  0  0  0  0  0  0  0  0
   -9.7172   60.5118   74.4653 H   0  0  0  0  0  0  0  0  0  0  0  0
   -7.9056   60.1965   76.3590 H   0  0  0  0  0  0  0  0  0  0  0  0
   -7.6852   59.5405   74.6661 H   0  0  0  0  0  0  0  0  0  0  0  0
   -9.5098   62.1358   77.9232 H   0  0  0  0  0  0  0  0  0  0  0  0
  -10.4593   60.7938   77.1992 H   0  0  0  0  0  0  0  0  0  0  0  0
   -8.6643   60.7259   77.1992 H   0  0  0  0  0  0  0  0  0  0  0  0
   -7.6794   60.5802   72.8503 H   0  0  0  0  0  0  0  0  0  0  0  0
    1.2773   52.8235   74.8414 H   0  0  0  0  0  0  0  0  0  0  0  0
    0.1749   52.7649   73.4244 H   0  0  0  0  0  0  0  0  0  0  0  0
    1.5788   53.8855   73.4244 H   0  0  0  0  0  0  0  0  0  0  0  0
   -1.9299   56.2697   79.7716 H   0  0  0  0  0  0  0  0  0  0  0  0
    0.7042   53.2274   79.6785 H   0  0  0  0  0  0  0  0  0  0  0  0
    1.7664   51.8407   79.2594 H   0  0  0  0  0  0  0  0  0  0  0  0
    2.4278   53.5108   79.2594 H   0  0  0  0  0  0  0  0  0  0  0  0
   -1.4672   61.9052   77.7299 H   0  0  0  0  0  0  0  0  0  0  0  0
   -0.6067   63.0878   74.0746 H   0  0  0  0  0  0  0  0  0  0  0  0
    1.1875   63.2123   74.3715 H   0  0  0  0  0  0  0  0  0  0  0  0
    0.5365   64.6410   70.8083 H   0  0  0  0  0  0  0  0  0  0  0  0
   -0.0689   65.1685   72.5361 H   0  0  0  0  0  0  0  0  0  0  0  0
    1.0330   62.4382   71.6341 H   0  0  0  0  0  0  0  0  0  0  0  0
  2  1  1  0
  3  2  2  0
  4  3  1  0
  5  3  1  0
  6  5  1  0
  7  6  1  0
  8  6  1  0
  9  8  1  0
 10  9  1  0
 11 10  1  0
 12 11  1  0
 13 12  1  0
 14 13  1  0
 15 14  1  0
 15 10  1  0
 16 13  1  0
 17 12  1  0
 18 17  2  0
 19 17  1  0
 20 19  2  0
 21 19  1  0
 22 21  1  0
 23 22  1  0
 24 23  2  0
 25 23  1  0
 26 25  1  0
 27 26  1  0
 28 27  1  0
 29 28  1  0
 30 29  1  0
 30  1  1  0
 31 30  2  0
 32 27  1  0
 33 22  1  0
 34 33  1  0
 35 34  1  0
 36 35  1  0
 36 21  1  0
 37 26  1  0
 38 37  2  0
 39 37  1  0
 40 38  1  0
 41 40  1  0
 42 41  1  0
 43 42  1  0
 44 43  1  0
 45 44  1  0
 45 40  1  0
 46 44  1  0
 47 46  1  0
 48 43  1  0
 49  9  1  0
 50 49  1  0
 12 51  1  1
 52 15  1  0
 53 52  1  0
 54 28  1  0
 55  1  1  0
 57 56  2  3
 57 55  1  0
  1 58  1  1
  2 59  1  0
  4 60  1  0
  4 61  1  0
  4 62  1  0
  5 63  1  0
  5 64  1  0
  6 65  1  6
  7 66  1  0
  7 67  1  0
  7 68  1  0
  8 69  1  0
  8 70  1  0
  9 71  1  1
 10 72  1  1
 13 73  1  6
 14 74  1  0
 14 75  1  0
 15 76  1  6
 16 77  1  0
 16 78  1  0
 16 79  1  0
 22 80  1  6
 26 81  1  1
 27 82  1  6
 28 83  1  6
 29 84  1  0
 29 85  1  0
 32 86  1  0
 32 87  1  0
 32 88  1  0
 33 89  1  0
 33 90  1  0
 34 91  1  0
 34 92  1  0
 35 93  1  0
 35 94  1  0
 36 95  1  0
 36 96  1  0
 38 97  1  0
 39 98  1  0
 39 99  1  0
 39100  1  0
 40101  1  6
 41102  1  0
 41103  1  0
 42104  1  0
 42105  1  0
 43106  1  6
 44107  1  6
 45108  1  0
 45109  1  0
 47110  1  0
 47111  1  0
 47112  1  0
 48113  1  0
 50114  1  0
 50115  1  0
 50116  1  0
 51117  1  0
 53118  1  0
 53119  1  0
 53120  1  0
 54121  1  0
 55122  1  0
 55123  1  0
 56124  1  0
 56125  1  0
 57126  1  0
M  END
>  <score>  (5) 
-6.594

$$$$
=
     RDKit          3D

126129  0  0  0  0  0  0  0  0999 V2000
    2.8520   57.2760   76.2560 C   0  0  2  0  0  0  0  0  0  0  0  0
    2.4660   55.8700   75.8220 C   0  0  0  0  0  0  0  0  0  0  0  0
    1.5020   55.0760   76.3390 C   0  0  0  0  0  0  0  0  0  0  0  0
    1.3540   53.6480   75.8760 C   0  0  0  0  0  0  0  0  0  0  0  0
    0.5370   55.5130   77.4190 C   0  0  0  0  0  0  0  0  0  0  0  0
   -0.9650   55.6560   77.0260 C   0  0  2  0  0  0  0  0  0  0  0  0
   -1.1790   56.0390   75.5530 C   0  0  0  0  0  0  0  0  0  0  0  0
   -1.6060   56.7180   77.9500 C   0  0  0  0  0  0  0  0  0  0  0  0
   -3.1120   56.5810   78.2670 C   0  0  1  0  0  0  0  0  0  0  0  0
   -3.6150   57.9210   78.8780 C   0  0  1  0  0  0  0  0  0  0  0  0
   -3.5100   58.9530   77.8910 O   0  0  0  0  0  0  0  0  0  0  0  0
   -3.7670   60.2900   78.3370 C   0  0  2  0  0  0  0  0  0  0  0  0
   -5.1510   60.3760   79.0430 C   0  0  1  0  0  0  0  0  0  0  0  0
   -5.4160   59.1880   79.9910 C   0  0  0  0  0  0  0  0  0  0  0  0
   -5.0650   57.8370   79.3680 C   0  0  2  0  0  0  0  0  0  0  0  0
   -5.3660   61.6570   79.8680 C   0  0  0  0  0  0  0  0  0  0  0  0
   -3.6030   61.1210   77.0190 C   0  0  0  0  0  0  0  0  0  0  0  0
   -2.8430   60.8430   76.0900 O   0  0  0  0  0  0  0  0  0  0  0  0
   -4.4180   62.3890   76.8880 C   0  0  0  0  0  0  0  0  0  0  0  0
   -5.6400   62.2660   76.8820 O   0  0  0  0  0  0  0  0  0  0  0  0
   -3.7660   63.6250   76.7990 N   0  0  0  0  0  0  0  0  0  0  0  0
   -2.2890   63.8040   76.6280 C   0  0  2  0  0  0  0  0  0  0  0  0
   -1.5160   63.7880   77.9570 C   0  0  0  0  0  0  0  0  0  0  0  0
   -2.0920   63.8460   79.0440 O   0  0  0  0  0  0  0  0  0  0  0  0
   -0.1600   63.8460   77.9030 O   0  0  0  0  0  0  0  0  0  0  0  0
    0.7310   62.9790   77.1280 C   0  0  1  0  0  0  0  0  0  0  0  0
    0.4460   61.4600   77.3080 C   0  0  1  0  0  0  0  0  0  0  0  0
    1.4910   60.5650   76.5740 C   0  0  2  0  0  0  0  0  0  0  0  0
    1.0230   59.1150   76.4840 C   0  0  0  0  0  0  0  0  0  0  0  0
    1.9410   58.3070   75.5830 C   0  0  0  0  0  0  0  0  0  0  0  0
    1.9580   58.5010   74.3650 O   0  0  0  0  0  0  0  0  0  0  0  0
    0.3990   61.1140   78.8100 C   0  0  0  0  0  0  0  0  0  0  0  0
   -2.0070   65.1030   75.8490 C   0  0  0  0  0  0  0  0  0  0  0  0
   -2.7660   66.3150   76.3760 C   0  0  0  0  0  0  0  0  0  0  0  0
   -4.2560   66.0280   76.3840 C   0  0  0  0  0  0  0  0  0  0  0  0
   -4.5490   64.7910   77.2140 C   0  0  0  0  0  0  0  0  0  0  0  0
    0.9530   63.5510   75.7250 C   0  0  0  0  0  0  0  0  0  0  0  0
    0.6980   62.8600   74.5900 C   0  0  0  0  0  0  0  0  0  0  0  0
    1.5340   64.9460   75.7490 C   0  0  0  0  0  0  0  0  0  0  0  0
    0.9650   63.2250   73.1410 C   0  0  2  0  0  0  0  0  0  0  0  0
   -0.1270   62.7320   72.1850 C   0  0  0  0  0  0  0  0  0  0  0  0
    0.0490   63.2890   70.7680 C   0  0  0  0  0  0  0  0  0  0  0  0
    1.5090   63.5530   70.3770 C   0  0  2  0  0  0  0  0  0  0  0  0
    2.5030   62.6640   71.1450 C   0  0  1  0  0  0  0  0  0  0  0  0
    2.3910   62.8770   72.6650 C   0  0  0  0  0  0  0  0  0  0  0  0
    2.2440   61.2960   70.7980 O   0  0  0  0  0  0  0  0  0  0  0  0
    3.0080   60.3680   71.5580 C   0  0  0  0  0  0  0  0  0  0  0  0
    1.8050   64.9330   70.6160 O   0  0  0  0  0  0  0  0  0  0  0  0
   -3.8700   56.2770   77.0930 O   0  0  0  0  0  0  0  0  0  0  0  0
   -4.4670   54.9890   77.1300 C   0  0  0  0  0  0  0  0  0  0  0  0
   -2.7040   60.6770   79.1990 O   0  0  0  0  0  0  0  0  0  0  0  0
   -5.1690   56.8040   80.3560 O   0  0  0  0  0  0  0  0  0  0  0  0
   -6.3390   56.0080   80.2130 C   0  0  0  0  0  0  0  0  0  0  0  0
    2.7410   60.5900   77.2700 O   0  0  0  0  0  0  0  0  0  0  0  0
    4.3140   57.6290   75.9140 C   0  0  0  0  0  0  0  0  0  0  0  0
    5.2470   56.8040   78.1000 C   0  0  0  0  0  0  0  0  0  0  0  0
    5.3140   56.8860   76.7650 C   0  0  0  0  0  0  0  0  0  0  0  0
    2.7372   57.3017   77.3497 H   0  0  0  0  0  0  0  0  0  0  0  0
    3.0418   55.4479   74.9852 H   0  0  0  0  0  0  0  0  0  0  0  0
    1.2852   52.9843   76.7505 H   0  0  0  0  0  0  0  0  0  0  0  0
    0.4411   53.5518   75.2699 H   0  0  0  0  0  0  0  0  0  0  0  0
    2.2278   53.3666   75.2699 H   0  0  0  0  0  0  0  0  0  0  0  0
    0.5961   54.7748   78.2323 H   0  0  0  0  0  0  0  0  0  0  0  0
    0.8558   56.5317   77.6848 H   0  0  0  0  0  0  0  0  0  0  0  0
   -1.4421   54.6730   77.1529 H   0  0  0  0  0  0  0  0  0  0  0  0
   -1.7149   56.9981   75.4976 H   0  0  0  0  0  0  0  0  0  0  0  0
   -0.2036   56.1346   75.0536 H   0  0  0  0  0  0  0  0  0  0  0  0
   -1.7717   55.2584   75.0536 H   0  0  0  0  0  0  0  0  0  0  0  0
   -1.0651   56.6896   78.9074 H   0  0  0  0  0  0  0  0  0  0  0  0
   -1.5254   57.6600   77.3877 H   0  0  0  0  0  0  0  0  0  0  0  0
   -3.2484   55.7532   78.9784 H   0  0  0  0  0  0  0  0  0  0  0  0
   -2.9853   58.1446   79.7517 H   0  0  0  0  0  0  0  0  0  0  0  0
   -5.8532   60.3673   78.1963 H   0  0  0  0  0  0  0  0  0  0  0  0
   -4.8108   59.3228   80.8996 H   0  0  0  0  0  0  0  0  0  0  0  0
   -6.4933   59.1781   80.2129 H   0  0  0  0  0  0  0  0  0  0  0  0
   -5.7508   57.6049   78.5399 H   0  0  0  0  0  0  0  0  0  0  0  0
   -5.3252   61.4139   80.9400 H   0  0  0  0  0  0  0  0  0  0  0  0
   -4.5775   62.3851   79.6269 H   0  0  0  0  0  0  0  0  0  0  0  0
   -6.3490   62.0878   79.6269 H   0  0  0  0  0  0  0  0  0  0  0  0
   -1.9246   62.9390   76.0544 H   0  0  0  0  0  0  0  0  0  0  0  0
    1.7450   62.9961   77.5539 H   0  0  0  0  0  0  0  0  0  0  0  0
   -0.5306   61.2488   76.8479 H   0  0  0  0  0  0  0  0  0  0  0  0
    1.6077   60.9706   75.5582 H   0  0  0  0  0  0  0  0  0  0  0  0
    1.0248   58.6723   77.4910 H   0  0  0  0  0  0  0  0  0  0  0  0
    0.0081   59.0977   76.0601 H   0  0  0  0  0  0  0  0  0  0  0  0
    0.5238   62.0327   79.4020 H   0  0  0  0  0  0  0  0  0  0  0  0
   -0.5701   60.6521   79.0497 H   0  0  0  0  0  0  0  0  0  0  0  0
    1.2098   60.4104   79.0497 H   0  0  0  0  0  0  0  0  0  0  0  0
   -0.9295   65.3160   75.9088 H   0  0  0  0  0  0  0  0  0  0  0  0
   -2.3474   64.9368   74.8163 H   0  0  0  0  0  0  0  0  0  0  0  0
   -2.4319   66.5375   77.4002 H   0  0  0  0  0  0  0  0  0  0  0  0
   -2.5670   67.1784   75.7241 H   0  0  0  0  0  0  0  0  0  0  0  0
   -4.7892   66.8886   76.8143 H   0  0  0  0  0  0  0  0  0  0  0  0
   -4.5929   65.8545   75.3513 H   0  0  0  0  0  0  0  0  0  0  0  0
   -4.3177   65.0121   78.2664 H   0  0  0  0  0  0  0  0  0  0  0  0
   -5.6109   64.5424   77.0706 H   0  0  0  0  0  0  0  0  0  0  0  0
    0.2225   61.8797   74.7411 H   0  0  0  0  0  0  0  0  0  0  0  0
    1.6686   65.2692   76.7918 H   0  0  0  0  0  0  0  0  0  0  0  0
    2.5072   64.9467   75.2363 H   0  0  0  0  0  0  0  0  0  0  0  0
    0.8490   65.6374   75.2363 H   0  0  0  0  0  0  0  0  0  0  0  0
    0.9151   64.3234   73.1097 H   0  0  0  0  0  0  0  0  0  0  0  0
   -0.0897   61.6335   72.1409 H   0  0  0  0  0  0  0  0  0  0  0  0
   -1.0958   63.0847   72.5685 H   0  0  0  0  0  0  0  0  0  0  0  0
   -0.3737   62.5642   70.0567 H   0  0  0  0  0  0  0  0  0  0  0  0
   -0.4676   64.2598   70.7417 H   0  0  0  0  0  0  0  0  0  0  0  0
    1.6234   63.3050   69.3114 H   0  0  0  0  0  0  0  0  0  0  0  0
    3.5310   62.9353   70.8628 H   0  0  0  0  0  0  0  0  0  0  0  0
    2.7092   61.9526   73.1692 H   0  0  0  0  0  0  0  0  0  0  0  0
    3.0314   63.7352   72.9166 H   0  0  0  0  0  0  0  0  0  0  0  0
    2.8527   60.5566   72.6305 H   0  0  0  0  0  0  0  0  0  0  0  0
    2.6877   59.3439   71.3157 H   0  0  0  0  0  0  0  0  0  0  0  0
    4.0745   60.4856   71.3157 H   0  0  0  0  0  0  0  0  0  0  0  0
    1.8406   65.0988   71.5914 H   0  0  0  0  0  0  0  0  0  0  0  0
   -4.6098   54.6810   78.1763 H   0  0  0  0  0  0  0  0  0  0  0  0
   -5.4417   55.0219   76.6212 H   0  0  0  0  0  0  0  0  0  0  0  0
   -3.8120   54.2665   76.6212 H   0  0  0  0  0  0  0  0  0  0  0  0
   -2.9889   60.5733   80.1414 H   0  0  0  0  0  0  0  0  0  0  0  0
   -6.7268   55.7441   81.2080 H   0  0  0  0  0  0  0  0  0  0  0  0
   -7.1027   56.5747   79.6602 H   0  0  0  0  0  0  0  0  0  0  0  0
   -6.0923   55.0895   79.6602 H   0  0  0  0  0  0  0  0  0  0  0  0
    2.5754   60.5867   78.2460 H   0  0  0  0  0  0  0  0  0  0  0  0
    4.4974   57.3789   74.8586 H   0  0  0  0  0  0  0  0  0  0  0  0
    4.4480   58.7030   76.1106 H   0  0  0  0  0  0  0  0  0  0  0  0
    6.0133   56.2438   78.6558 H   0  0  0  0  0  0  0  0  0  0  0  0
    4.4257   57.2969   78.6408 H   0  0  0  0  0  0  0  0  0  0  0  0
    6.1492   56.3807   76.2579 H   0  0  0  0  0  0  0  0  0  0  0  0
  2  1  1  0
  3  2  2  0
  4  3  1  0
  5  3  1  0
  6  5  1  0
  7  6  1  0
  8  6  1  0
  9  8  1  0
 10  9  1  0
 11 10  1  0
 12 11  1  0
 13 12  1  0
 14 13  1  0
 15 14  1  0
 15 10  1  0
 16 13  1  0
 17 12  1  0
 18 17  2  0
 19 17  1  0
 20 19  2  0
 21 19  1  0
 22 21  1  0
 23 22  1  0
 24 23  2  0
 25 23  1  0
 26 25  1  0
 27 26  1  0
 28 27  1  0
 29 28  1  0
 30 29  1  0
 30  1  1  0
 31 30  2  0
 32 27  1  0
 33 22  1  0
 34 33  1  0
 35 34  1  0
 36 35  1  0
 36 21  1  0
 37 26  1  0
 38 37  2  0
 39 37  1  0
 40 38  1  0
 41 40  1  0
 42 41  1  0
 43 42  1  0
 44 43  1  0
 45 44  1  0
 45 40  1  0
 46 44  1  0
 47 46  1  0
 48 43  1  0
 49  9  1  0
 50 49  1  0
 12 51  1  1
 52 15  1  0
 53 52  1  0
 54 28  1  0
 55  1  1  0
 57 56  2  3
 57 55  1  0
  1 58  1  1
  2 59  1  0
  4 60  1  0
  4 61  1  0
  4 62  1  0
  5 63  1  0
  5 64  1  0
  6 65  1  6
  7 66  1  0
  7 67  1  0
  7 68  1  0
  8 69  1  0
  8 70  1  0
  9 71  1  1
 10 72  1  1
 13 73  1  6
 14 74  1  0
 14 75  1  0
 15 76  1  6
 16 77  1  0
 16 78  1  0
 16 79  1  0
 22 80  1  6
 26 81  1  1
 27 82  1  6
 28 83  1  6
 29 84  1  0
 29 85  1  0
 32 86  1  0
 32 87  1  0
 32 88  1  0
 33 89  1  0
 33 90  1  0
 34 91  1  0
 34 92  1  0
 35 93  1  0
 35 94  1  0
 36 95  1  0
 36 96  1  0
 38 97  1  0
 39 98  1  0
 39 99  1  0
 39100  1  0
 40101  1  1
 41102  1  0
 41103  1  0
 42104  1  0
 42105  1  0
 43106  1  6
 44107  1  6
 45108  1  0
 45109  1  0
 47110  1  0
 47111  1  0
 47112  1  0
 48113  1  0
 50114  1  0
 50115  1  0
 50116  1  0
 51117  1  0
 53118  1  0
 53119  1  0
 53120  1  0
 54121  1  0
 55122  1  0
 55123  1  0
 56124  1  0
 56125  1  0
 57126  1  0
M  END
>  <score>  (6) 
-6.479

$$$$
=
     RDKit          3D

126129  0  0  0  0  0  0  0  0999 V2000
    0.8810   62.8260   75.8280 C   0  0  2  0  0  0  0  0  0  0  0  0
    1.6990   62.2280   74.6940 C   0  0  0  0  0  0  0  0  0  0  0  0
    2.0570   60.9370   74.5190 C   0  0  0  0  0  0  0  0  0  0  0  0
    2.9970   60.5450   73.4060 C   0  0  0  0  0  0  0  0  0  0  0  0
    1.5980   59.8040   75.4110 C   0  0  0  0  0  0  0  0  0  0  0  0
    0.6360   58.7460   74.7910 C   0  0  2  0  0  0  0  0  0  0  0  0
   -0.2640   59.3110   73.6810 C   0  0  0  0  0  0  0  0  0  0  0  0
   -0.2300   58.1560   75.9290 C   0  0  0  0  0  0  0  0  0  0  0  0
   -0.7310   56.7030   75.7720 C   0  0  1  0  0  0  0  0  0  0  0  0
   -1.8620   56.4520   76.8120 C   0  0  1  0  0  0  0  0  0  0  0  0
   -2.9780   57.2920   76.5010 O   0  0  0  0  0  0  0  0  0  0  0  0
   -4.0430   57.3190   77.4580 C   0  0  2  0  0  0  0  0  0  0  0  0
   -4.5390   55.8770   77.7660 C   0  0  1  0  0  0  0  0  0  0  0  0
   -3.3850   54.8670   77.9320 C   0  0  0  0  0  0  0  0  0  0  0  0
   -2.3220   54.9910   76.8400 C   0  0  2  0  0  0  0  0  0  0  0  0
   -5.4130   55.7610   79.0280 C   0  0  0  0  0  0  0  0  0  0  0  0
   -5.0760   58.2840   76.7840 C   0  0  0  0  0  0  0  0  0  0  0  0
   -4.7940   59.2310   76.0480 O   0  0  0  0  0  0  0  0  0  0  0  0
   -6.5420   58.0610   77.0900 C   0  0  0  0  0  0  0  0  0  0  0  0
   -7.0260   56.9880   76.7360 O   0  0  0  0  0  0  0  0  0  0  0  0
   -7.2680   59.0500   77.7650 N   0  0  0  0  0  0  0  0  0  0  0  0
   -6.7660   60.4300   78.0570 C   0  0  2  0  0  0  0  0  0  0  0  0
   -5.9460   60.5170   79.3560 C   0  0  0  0  0  0  0  0  0  0  0  0
   -5.9090   59.5880   80.1640 O   0  0  0  0  0  0  0  0  0  0  0  0
   -5.3650   61.7060   79.6600 O   0  0  0  0  0  0  0  0  0  0  0  0
   -4.4900   62.5080   78.8020 C   0  0  1  0  0  0  0  0  0  0  0  0
   -3.3280   61.6980   78.1550 C   0  0  1  0  0  0  0  0  0  0  0  0
   -2.3430   62.6040   77.3540 C   0  0  2  0  0  0  0  0  0  0  0  0
   -1.4140   61.7760   76.4700 C   0  0  0  0  0  0  0  0  0  0  0  0
   -0.6160   62.6730   75.5390 C   0  0  0  0  0  0  0  0  0  0  0  0
   -1.1680   63.2660   74.6090 O   0  0  0  0  0  0  0  0  0  0  0  0
   -2.5730   60.9120   79.2450 C   0  0  0  0  0  0  0  0  0  0  0  0
   -7.9470   61.4190   78.0920 C   0  0  0  0  0  0  0  0  0  0  0  0
   -9.1230   60.9450   78.9390 C   0  0  0  0  0  0  0  0  0  0  0  0
   -9.5960   59.5880   78.4530 C   0  0  0  0  0  0  0  0  0  0  0  0
   -8.4540   58.5890   78.4890 C   0  0  0  0  0  0  0  0  0  0  0  0
   -5.3130   63.4740   77.9460 C   0  0  0  0  0  0  0  0  0  0  0  0
   -5.4210   63.3710   76.6010 C   0  0  0  0  0  0  0  0  0  0  0  0
   -5.9450   64.5800   78.7590 C   0  0  0  0  0  0  0  0  0  0  0  0
   -6.0890   64.2950   75.5980 C   0  0  2  0  0  0  0  0  0  0  0  0
   -5.5100   65.7150   75.6090 C   0  0  0  0  0  0  0  0  0  0  0  0
   -6.0450   66.5670   74.4520 C   0  0  0  0  0  0  0  0  0  0  0  0
   -7.4670   66.1980   74.0110 C   0  0  2  0  0  0  0  0  0  0  0  0
   -8.2940   65.5540   75.1360 C   0  0  1  0  0  0  0  0  0  0  0  0
   -7.6300   64.2670   75.6590 C   0  0  0  0  0  0  0  0  0  0  0  0
   -8.4460   66.5170   76.1900 O   0  0  0  0  0  0  0  0  0  0  0  0
   -9.1270   66.0030   77.3280 C   0  0  0  0  0  0  0  0  0  0  0  0
   -7.3820   65.3040   72.8960 O   0  0  0  0  0  0  0  0  0  0  0  0
   -1.2320   56.4590   74.4540 O   0  0  0  0  0  0  0  0  0  0  0  0
   -0.4400   55.5420   73.7150 C   0  0  0  0  0  0  0  0  0  0  0  0
   -3.5670   57.9790   78.6240 O   0  0  0  0  0  0  0  0  0  0  0  0
   -1.2050   54.1500   77.1520 O   0  0  0  0  0  0  0  0  0  0  0  0
   -0.8450   54.1820   78.5280 C   0  0  0  0  0  0  0  0  0  0  0  0
   -1.5380   63.3750   78.2500 O   0  0  0  0  0  0  0  0  0  0  0  0
    1.1770   64.3220   76.0570 C   0  0  0  0  0  0  0  0  0  0  0  0
    1.8250   63.8150   78.4330 C   0  0  0  0  0  0  0  0  0  0  0  0
    1.9210   64.5850   77.3420 C   0  0  0  0  0  0  0  0  0  0  0  0
    1.1666   62.2747   76.7361 H   0  0  0  0  0  0  0  0  0  0  0  0
    2.0411   62.9327   73.9218 H   0  0  0  0  0  0  0  0  0  0  0  0
    3.9316   60.1552   73.8356 H   0  0  0  0  0  0  0  0  0  0  0  0
    2.5267   59.7680   72.7854 H   0  0  0  0  0  0  0  0  0  0  0  0
    3.2181   61.4259   72.7854 H   0  0  0  0  0  0  0  0  0  0  0  0
    2.4964   59.2709   75.7555 H   0  0  0  0  0  0  0  0  0  0  0  0
    1.0081   60.2906   76.2018 H   0  0  0  0  0  0  0  0  0  0  0  0
    1.2518   57.9707   74.3118 H   0  0  0  0  0  0  0  0  0  0  0  0
   -1.1132   59.8441   74.1333 H   0  0  0  0  0  0  0  0  0  0  0  0
    0.3160   60.0073   73.0575 H   0  0  0  0  0  0  0  0  0  0  0  0
   -0.6390   58.4860   73.0575 H   0  0  0  0  0  0  0  0  0  0  0  0
    0.3667   58.1996   76.8520 H   0  0  0  0  0  0  0  0  0  0  0  0
   -1.1448   58.7668   75.9268 H   0  0  0  0  0  0  0  0  0  0  0  0
    0.1138   56.0194   75.9420 H   0  0  0  0  0  0  0  0  0  0  0  0
   -1.4562   56.6877   77.8069 H   0  0  0  0  0  0  0  0  0  0  0  0
   -5.1454   55.6380   76.8799 H   0  0  0  0  0  0  0  0  0  0  0  0
   -2.9069   55.0380   78.9078 H   0  0  0  0  0  0  0  0  0  0  0  0
   -3.8171   53.8581   77.8581 H   0  0  0  0  0  0  0  0  0  0  0  0
   -2.7322   54.6866   75.8658 H   0  0  0  0  0  0  0  0  0  0  0  0
   -4.7784   55.8452   79.9225 H   0  0  0  0  0  0  0  0  0  0  0  0
   -6.1607   56.5678   79.0316 H   0  0  0  0  0  0  0  0  0  0  0  0
   -5.9244   54.7871   79.0316 H   0  0  0  0  0  0  0  0  0  0  0  0
   -6.0771   60.7004   77.2432 H   0  0  0  0  0  0  0  0  0  0  0  0
   -3.8808   63.1920   79.4111 H   0  0  0  0  0  0  0  0  0  0  0  0
   -3.7727   60.9973   77.4330 H   0  0  0  0  0  0  0  0  0  0  0  0
   -2.9532   63.2642   76.7201 H   0  0  0  0  0  0  0  0  0  0  0  0
   -0.7198   61.2089   77.1076 H   0  0  0  0  0  0  0  0  0  0  0  0
   -2.0229   61.0898   75.8631 H   0  0  0  0  0  0  0  0  0  0  0  0
   -2.9014   61.2539   80.2376 H   0  0  0  0  0  0  0  0  0  0  0  0
   -2.7871   59.8384   79.1376 H   0  0  0  0  0  0  0  0  0  0  0  0
   -1.4917   61.0828   79.1376 H   0  0  0  0  0  0  0  0  0  0  0  0
   -7.5872   62.3742   78.5021 H   0  0  0  0  0  0  0  0  0  0  0  0
   -8.3145   61.5152   77.0597 H   0  0  0  0  0  0  0  0  0  0  0  0
   -8.8073   60.8663   79.9898 H   0  0  0  0  0  0  0  0  0  0  0  0
   -9.9471   61.6683   78.8513 H   0  0  0  0  0  0  0  0  0  0  0  0
  -10.4095   59.2330   79.1028 H   0  0  0  0  0  0  0  0  0  0  0  0
   -9.9556   59.6837   77.4178 H   0  0  0  0  0  0  0  0  0  0  0  0
   -8.1769   58.4110   79.5385 H   0  0  0  0  0  0  0  0  0  0  0  0
   -8.8045   57.6705   77.9955 H   0  0  0  0  0  0  0  0  0  0  0  0
   -4.9508   62.4770   76.1656 H   0  0  0  0  0  0  0  0  0  0  0  0
   -5.8215   64.3639   79.8305 H   0  0  0  0  0  0  0  0  0  0  0  0
   -5.4569   65.5362   78.5192 H   0  0  0  0  0  0  0  0  0  0  0  0
   -7.0166   64.6450   78.5192 H   0  0  0  0  0  0  0  0  0  0  0  0
   -5.8359   63.8778   74.6122 H   0  0  0  0  0  0  0  0  0  0  0  0
   -5.7781   66.1996   76.5594 H   0  0  0  0  0  0  0  0  0  0  0  0
   -4.4189   65.6359   75.4941 H   0  0  0  0  0  0  0  0  0  0  0  0
   -6.0435   67.6204   74.7687 H   0  0  0  0  0  0  0  0  0  0  0  0
   -5.3867   66.3828   73.5902 H   0  0  0  0  0  0  0  0  0  0  0  0
   -7.9862   67.1270   73.7328 H   0  0  0  0  0  0  0  0  0  0  0  0
   -9.2805   65.2641   74.7450 H   0  0  0  0  0  0  0  0  0  0  0  0
   -7.9334   64.1206   76.7061 H   0  0  0  0  0  0  0  0  0  0  0  0
   -7.9625   63.4460   75.0068 H   0  0  0  0  0  0  0  0  0  0  0  0
   -8.6403   66.3704   78.2435 H   0  0  0  0  0  0  0  0  0  0  0  0
  -10.1748   66.3374   77.3103 H   0  0  0  0  0  0  0  0  0  0  0  0
   -9.0926   64.9037   77.3103 H   0  0  0  0  0  0  0  0  0  0  0  0
   -7.2936   64.3743   73.2245 H   0  0  0  0  0  0  0  0  0  0  0  0
    0.1176   54.8964   74.4095 H   0  0  0  0  0  0  0  0  0  0  0  0
   -1.0916   54.9224   73.0814 H   0  0  0  0  0  0  0  0  0  0  0  0
    0.2678   56.0965   73.0814 H   0  0  0  0  0  0  0  0  0  0  0  0
   -3.9043   57.5114   79.4288 H   0  0  0  0  0  0  0  0  0  0  0  0
   -1.7513   54.1014   79.1461 H   0  0  0  0  0  0  0  0  0  0  0  0
   -0.1731   53.3400   78.7509 H   0  0  0  0  0  0  0  0  0  0  0  0
   -0.3322   55.1293   78.7509 H   0  0  0  0  0  0  0  0  0  0  0  0
   -1.7746   63.1484   79.1842 H   0  0  0  0  0  0  0  0  0  0  0  0
    1.7848   64.6916   75.2180 H   0  0  0  0  0  0  0  0  0  0  0  0
    0.2102   64.8424   76.1239 H   0  0  0  0  0  0  0  0  0  0  0  0
    2.3983   64.0681   79.3370 H   0  0  0  0  0  0  0  0  0  0  0  0
    1.1728   62.9292   78.4254 H   0  0  0  0  0  0  0  0  0  0  0  0
    2.5827   65.4627   77.3856 H   0  0  0  0  0  0  0  0  0  0  0  0
  2  1  1  0
  3  2  2  0
  4  3  1  0
  5  3  1  0
  6  5  1  0
  7  6  1  0
  8  6  1  0
  9  8  1  0
 10  9  1  0
 11 10  1  0
 12 11  1  0
 13 12  1  0
 14 13  1  0
 15 14  1  0
 15 10  1  0
 16 13  1  0
 17 12  1  0
 18 17  2  0
 19 17  1  0
 20 19  2  0
 21 19  1  0
 22 21  1  0
 23 22  1  0
 24 23  2  0
 25 23  1  0
 26 25  1  0
 27 26  1  0
 28 27  1  0
 29 28  1  0
 30 29  1  0
 30  1  1  0
 31 30  2  0
 32 27  1  0
 33 22  1  0
 34 33  1  0
 35 34  1  0
 36 35  1  0
 36 21  1  0
 37 26  1  0
 38 37  2  0
 39 37  1  0
 40 38  1  0
 41 40  1  0
 42 41  1  0
 43 42  1  0
 44 43  1  0
 45 44  1  0
 45 40  1  0
 46 44  1  0
 47 46  1  0
 48 43  1  0
 49  9  1  0
 50 49  1  0
 12 51  1  1
 52 15  1  0
 53 52  1  0
 54 28  1  0
 55  1  1  0
 57 56  2  3
 57 55  1  0
  1 58  1  1
  2 59  1  0
  4 60  1  0
  4 61  1  0
  4 62  1  0
  5 63  1  0
  5 64  1  0
  6 65  1  6
  7 66  1  0
  7 67  1  0
  7 68  1  0
  8 69  1  0
  8 70  1  0
  9 71  1  1
 10 72  1  1
 13 73  1  6
 14 74  1  0
 14 75  1  0
 15 76  1  6
 16 77  1  0
 16 78  1  0
 16 79  1  0
 22 80  1  6
 26 81  1  1
 27 82  1  6
 28 83  1  6
 29 84  1  0
 29 85  1  0
 32 86  1  0
 32 87  1  0
 32 88  1  0
 33 89  1  0
 33 90  1  0
 34 91  1  0
 34 92  1  0
 35 93  1  0
 35 94  1  0
 36 95  1  0
 36 96  1  0
 38 97  1  0
 39 98  1  0
 39 99  1  0
 39100  1  0
 40101  1  6
 41102  1  0
 41103  1  0
 42104  1  0
 42105  1  0
 43106  1  6
 44107  1  6
 45108  1  0
 45109  1  0
 47110  1  0
 47111  1  0
 47112  1  0
 48113  1  0
 50114  1  0
 50115  1  0
 50116  1  0
 51117  1  0
 53118  1  0
 53119  1  0
 53120  1  0
 54121  1  0
 55122  1  0
 55123  1  0
 56124  1  0
 56125  1  0
 57126  1  0
M  END
>  <score>  (7) 
-5.914

$$$$
=
     RDKit          3D

126129  0  0  0  0  0  0  0  0999 V2000
   -0.0740   63.2320   75.2790 C   0  0  2  0  0  0  0  0  0  0  0  0
    0.7050   63.3370   73.9780 C   0  0  0  0  0  0  0  0  0  0  0  0
    1.7000   62.5340   73.5390 C   0  0  0  0  0  0  0  0  0  0  0  0
    2.4620   62.8740   72.2820 C   0  0  0  0  0  0  0  0  0  0  0  0
    2.1530   61.2810   74.2560 C   0  0  0  0  0  0  0  0  0  0  0  0
    1.8780   59.9140   73.5590 C   0  0  2  0  0  0  0  0  0  0  0  0
    0.6260   59.9210   72.6680 C   0  0  0  0  0  0  0  0  0  0  0  0
    1.7440   58.8320   74.6560 C   0  0  0  0  0  0  0  0  0  0  0  0
    2.1490   57.3860   74.2940 C   0  0  1  0  0  0  0  0  0  0  0  0
    1.5900   56.4260   75.3840 C   0  0  1  0  0  0  0  0  0  0  0  0
    0.1600   56.4570   75.3460 O   0  0  0  0  0  0  0  0  0  0  0  0
   -0.5220   55.7640   76.3980 C   0  0  2  0  0  0  0  0  0  0  0  0
   -0.0300   54.2910   76.4920 C   0  0  1  0  0  0  0  0  0  0  0  0
    1.5010   54.1590   76.3540 C   0  0  0  0  0  0  0  0  0  0  0  0
    2.0690   54.9820   75.1980 C   0  0  2  0  0  0  0  0  0  0  0  0
   -0.4200   53.5720   77.7960 C   0  0  0  0  0  0  0  0  0  0  0  0
   -2.0270   55.9750   76.0180 C   0  0  0  0  0  0  0  0  0  0  0  0
   -2.4860   56.9600   75.4390 O   0  0  0  0  0  0  0  0  0  0  0  0
   -3.0070   54.8980   76.4290 C   0  0  0  0  0  0  0  0  0  0  0  0
   -2.8440   53.7820   75.9400 O   0  0  0  0  0  0  0  0  0  0  0  0
   -4.0260   55.1990   77.3420 N   0  0  0  0  0  0  0  0  0  0  0  0
   -4.3640   56.5760   77.8230 C   0  0  2  0  0  0  0  0  0  0  0  0
   -3.5150   57.0260   79.0240 C   0  0  0  0  0  0  0  0  0  0  0  0
   -2.7990   56.2390   79.6440 O   0  0  0  0  0  0  0  0  0  0  0  0
   -3.6780   58.2970   79.4740 O   0  0  0  0  0  0  0  0  0  0  0  0
   -3.6040   59.5300   78.6880 C   0  0  1  0  0  0  0  0  0  0  0  0
   -2.3370   59.6300   77.7900 C   0  0  1  0  0  0  0  0  0  0  0  0
   -2.2240   61.0070   77.0660 C   0  0  2  0  0  0  0  0  0  0  0  0
   -1.1770   60.9730   75.9570 C   0  0  0  0  0  0  0  0  0  0  0  0
   -1.2330   62.2420   75.1240 C   0  0  0  0  0  0  0  0  0  0  0  0
   -2.1900   62.4640   74.3770 O   0  0  0  0  0  0  0  0  0  0  0  0
   -1.0770   59.3610   78.6370 C   0  0  0  0  0  0  0  0  0  0  0  0
   -5.8660   56.6580   78.1570 C   0  0  0  0  0  0  0  0  0  0  0  0
   -6.3690   55.5090   79.0230 C   0  0  0  0  0  0  0  0  0  0  0  0
   -6.0590   54.1840   78.3530 C   0  0  0  0  0  0  0  0  0  0  0  0
   -4.5680   54.0630   78.0910 C   0  0  0  0  0  0  0  0  0  0  0  0
   -4.9770   59.8820   78.1090 C   0  0  0  0  0  0  0  0  0  0  0  0
   -5.2140   60.0190   76.7840 C   0  0  0  0  0  0  0  0  0  0  0  0
   -6.0200   60.1100   79.1780 C   0  0  0  0  0  0  0  0  0  0  0  0
   -6.4660   60.4710   76.0540 C   0  0  2  0  0  0  0  0  0  0  0  0
   -6.3040   60.4820   74.5290 C   0  0  0  0  0  0  0  0  0  0  0  0
   -7.6320   60.7330   73.8080 C   0  0  0  0  0  0  0  0  0  0  0  0
   -8.6160   61.6070   74.5960 C   0  0  2  0  0  0  0  0  0  0  0  0
   -7.9150   62.5550   75.5830 C   0  0  1  0  0  0  0  0  0  0  0  0
   -7.0720   61.7760   76.6100 C   0  0  0  0  0  0  0  0  0  0  0  0
   -7.0960   63.4630   74.8310 O   0  0  0  0  0  0  0  0  0  0  0  0
   -6.1150   64.1230   75.6220 C   0  0  0  0  0  0  0  0  0  0  0  0
   -9.5240   60.7540   75.3010 O   0  0  0  0  0  0  0  0  0  0  0  0
    1.6400   57.0030   73.0130 O   0  0  0  0  0  0  0  0  0  0  0  0
    2.6400   56.9560   72.0050 C   0  0  0  0  0  0  0  0  0  0  0  0
   -0.3010   56.4780   77.6070 O   0  0  0  0  0  0  0  0  0  0  0  0
    3.5010   54.9510   75.2360 O   0  0  0  0  0  0  0  0  0  0  0  0
    4.0590   55.9070   76.1280 C   0  0  0  0  0  0  0  0  0  0  0  0
   -1.8570   62.0280   77.9980 O   0  0  0  0  0  0  0  0  0  0  0  0
   -0.6550   64.5850   75.7410 C   0  0  0  0  0  0  0  0  0  0  0  0
   -1.3260   66.4450   74.1870 C   0  0  0  0  0  0  0  0  0  0  0  0
   -0.3750   65.7070   74.7720 C   0  0  0  0  0  0  0  0  0  0  0  0
    0.6425   62.8860   76.0385 H   0  0  0  0  0  0  0  0  0  0  0  0
    0.4251   64.1672   73.3129 H   0  0  0  0  0  0  0  0  0  0  0  0
    3.4363   63.3087   72.5501 H   0  0  0  0  0  0  0  0  0  0  0  0
    2.6186   61.9604   71.6897 H   0  0  0  0  0  0  0  0  0  0  0  0
    1.8867   63.6008   71.6897 H   0  0  0  0  0  0  0  0  0  0  0  0
    3.2397   61.3617   74.4059 H   0  0  0  0  0  0  0  0  0  0  0  0
    1.5520   61.2521   75.1769 H   0  0  0  0  0  0  0  0  0  0  0  0
    2.7228   59.7021   72.8871 H   0  0  0  0  0  0  0  0  0  0  0  0
   -0.2740   59.9260   73.3004 H   0  0  0  0  0  0  0  0  0  0  0  0
    0.6329   60.8191   72.0329 H   0  0  0  0  0  0  0  0  0  0  0  0
    0.6229   59.0229   72.0329 H   0  0  0  0  0  0  0  0  0  0  0  0
    2.3700   59.1455   75.5044 H   0  0  0  0  0  0  0  0  0  0  0  0
    0.6643   58.7750   74.8587 H   0  0  0  0  0  0  0  0  0  0  0  0
    3.2466   57.3281   74.2498 H   0  0  0  0  0  0  0  0  0  0  0  0
    1.9660   56.7744   76.3573 H   0  0  0  0  0  0  0  0  0  0  0  0
   -0.5434   53.8123   75.6451 H   0  0  0  0  0  0  0  0  0  0  0  0
    1.9681   54.4998   77.2898 H   0  0  0  0  0  0  0  0  0  0  0  0
    1.7230   53.1019   76.1459 H   0  0  0  0  0  0  0  0  0  0  0  0
    1.7326   54.5744   74.2333 H   0  0  0  0  0  0  0  0  0  0  0  0
   -0.0940   54.1730   78.6577 H   0  0  0  0  0  0  0  0  0  0  0  0
   -1.5118   53.4428   77.8311 H   0  0  0  0  0  0  0  0  0  0  0  0
    0.0671   52.5864   77.8311 H   0  0  0  0  0  0  0  0  0  0  0  0
   -4.1255   57.2708   77.0042 H   0  0  0  0  0  0  0  0  0  0  0  0
   -3.3955   60.3885   79.3434 H   0  0  0  0  0  0  0  0  0  0  0  0
   -2.4266   58.8656   77.0041 H   0  0  0  0  0  0  0  0  0  0  0  0
   -3.2087   61.2233   76.6261 H   0  0  0  0  0  0  0  0  0  0  0  0
   -0.1776   60.8808   76.4072 H   0  0  0  0  0  0  0  0  0  0  0  0
   -1.3831   60.1126   75.3034 H   0  0  0  0  0  0  0  0  0  0  0  0
   -1.3345   59.4160   79.7050 H   0  0  0  0  0  0  0  0  0  0  0  0
   -0.6863   58.3592   78.4051 H   0  0  0  0  0  0  0  0  0  0  0  0
   -0.3113   60.1159   78.4051 H   0  0  0  0  0  0  0  0  0  0  0  0
   -6.0511   57.6015   78.6914 H   0  0  0  0  0  0  0  0  0  0  0  0
   -6.4093   56.6003   77.2023 H   0  0  0  0  0  0  0  0  0  0  0  0
   -5.8724   55.5469   80.0038 H   0  0  0  0  0  0  0  0  0  0  0  0
   -7.4572   55.6031   79.1536 H   0  0  0  0  0  0  0  0  0  0  0  0
   -6.3802   53.3615   79.0090 H   0  0  0  0  0  0  0  0  0  0  0  0
   -6.5964   54.1329   77.3946 H   0  0  0  0  0  0  0  0  0  0  0  0
   -4.0461   53.9987   79.0572 H   0  0  0  0  0  0  0  0  0  0  0  0
   -4.4126   53.1613   77.4805 H   0  0  0  0  0  0  0  0  0  0  0  0
   -4.3654   59.7623   76.1328 H   0  0  0  0  0  0  0  0  0  0  0  0
   -5.5562   60.0086   80.1703 H   0  0  0  0  0  0  0  0  0  0  0  0
   -6.4398   61.1211   79.0710 H   0  0  0  0  0  0  0  0  0  0  0  0
   -6.8234   59.3663   79.0710 H   0  0  0  0  0  0  0  0  0  0  0  0
   -7.2163   59.6956   76.2677 H   0  0  0  0  0  0  0  0  0  0  0  0
   -5.5956   61.2772   74.2537 H   0  0  0  0  0  0  0  0  0  0  0  0
   -5.9344   59.4926   74.2215 H   0  0  0  0  0  0  0  0  0  0  0  0
   -7.4170   61.2312   72.8511 H   0  0  0  0  0  0  0  0  0  0  0  0
   -8.1127   59.7523   73.6772 H   0  0  0  0  0  0  0  0  0  0  0  0
   -9.1525   62.2433   73.8768 H   0  0  0  0  0  0  0  0  0  0  0  0
   -8.6713   63.1146   76.1530 H   0  0  0  0  0  0  0  0  0  0  0  0
   -6.2499   62.4243   76.9475 H   0  0  0  0  0  0  0  0  0  0  0  0
   -7.7473   61.4923   77.4306 H   0  0  0  0  0  0  0  0  0  0  0  0
   -6.3406   63.9712   76.6879 H   0  0  0  0  0  0  0  0  0  0  0  0
   -5.1216   63.7089   75.3949 H   0  0  0  0  0  0  0  0  0  0  0  0
   -6.1243   65.1993   75.3949 H   0  0  0  0  0  0  0  0  0  0  0  0
   -9.3983   60.8721   76.2759 H   0  0  0  0  0  0  0  0  0  0  0  0
    3.6331   56.9093   72.4757 H   0  0  0  0  0  0  0  0  0  0  0  0
    2.4884   56.0640   71.3794 H   0  0  0  0  0  0  0  0  0  0  0  0
    2.5727   57.8583   71.3794 H   0  0  0  0  0  0  0  0  0  0  0  0
   -0.4844   55.8853   78.3785 H   0  0  0  0  0  0  0  0  0  0  0  0
    3.8749   55.5916   77.1656 H   0  0  0  0  0  0  0  0  0  0  0  0
    5.1426   55.9818   75.9543 H   0  0  0  0  0  0  0  0  0  0  0  0
    3.5913   56.8873   75.9543 H   0  0  0  0  0  0  0  0  0  0  0  0
   -1.9781   61.6912   78.9210 H   0  0  0  0  0  0  0  0  0  0  0  0
   -1.7445   64.4798   75.8506 H   0  0  0  0  0  0  0  0  0  0  0  0
   -0.1702   64.8438   76.6939 H   0  0  0  0  0  0  0  0  0  0  0  0
   -1.0473   67.2486   73.4894 H   0  0  0  0  0  0  0  0  0  0  0  0
   -2.3863   66.2480   74.4038 H   0  0  0  0  0  0  0  0  0  0  0  0
    0.6746   65.9322   74.5317 H   0  0  0  0  0  0  0  0  0  0  0  0
  2  1  1  0
  3  2  2  0
  4  3  1  0
  5  3  1  0
  6  5  1  0
  7  6  1  0
  8  6  1  0
  9  8  1  0
 10  9  1  0
 11 10  1  0
 12 11  1  0
 13 12  1  0
 14 13  1  0
 15 14  1  0
 15 10  1  0
 16 13  1  0
 17 12  1  0
 18 17  2  0
 19 17  1  0
 20 19  2  0
 21 19  1  0
 22 21  1  0
 23 22  1  0
 24 23  2  0
 25 23  1  0
 26 25  1  0
 27 26  1  0
 28 27  1  0
 29 28  1  0
 30 29  1  0
 30  1  1  0
 31 30  2  0
 32 27  1  0
 33 22  1  0
 34 33  1  0
 35 34  1  0
 36 35  1  0
 36 21  1  0
 37 26  1  0
 38 37  2  0
 39 37  1  0
 40 38  1  0
 41 40  1  0
 42 41  1  0
 43 42  1  0
 44 43  1  0
 45 44  1  0
 45 40  1  0
 46 44  1  0
 47 46  1  0
 48 43  1  0
 49  9  1  0
 50 49  1  0
 12 51  1  1
 52 15  1  0
 53 52  1  0
 54 28  1  0
 55  1  1  0
 57 56  2  3
 57 55  1  0
  1 58  1  1
  2 59  1  0
  4 60  1  0
  4 61  1  0
  4 62  1  0
  5 63  1  0
  5 64  1  0
  6 65  1  6
  7 66  1  0
  7 67  1  0
  7 68  1  0
  8 69  1  0
  8 70  1  0
  9 71  1  6
 10 72  1  1
 13 73  1  6
 14 74  1  0
 14 75  1  0
 15 76  1  6
 16 77  1  0
 16 78  1  0
 16 79  1  0
 22 80  1  6
 26 81  1  1
 27 82  1  6
 28 83  1  6
 29 84  1  0
 29 85  1  0
 32 86  1  0
 32 87  1  0
 32 88  1  0
 33 89  1  0
 33 90  1  0
 34 91  1  0
 34 92  1  0
 35 93  1  0
 35 94  1  0
 36 95  1  0
 36 96  1  0
 38 97  1  0
 39 98  1  0
 39 99  1  0
 39100  1  0
 40101  1  6
 41102  1  0
 41103  1  0
 42104  1  0
 42105  1  0
 43106  1  6
 44107  1  1
 45108  1  0
 45109  1  0
 47110  1  0
 47111  1  0
 47112  1  0
 48113  1  0
 50114  1  0
 50115  1  0
 50116  1  0
 51117  1  0
 53118  1  0
 53119  1  0
 53120  1  0
 54121  1  0
 55122  1  0
 55123  1  0
 56124  1  0
 56125  1  0
 57126  1  0
M  END
>  <score>  (8) 
-5.647

$$$$
=
     RDKit          3D

126129  0  0  0  0  0  0  0  0999 V2000
   -0.8140   62.4660   75.5070 C   0  0  2  0  0  0  0  0  0  0  0  0
   -1.5640   63.5550   76.2600 C   0  0  0  0  0  0  0  0  0  0  0  0
   -2.8620   63.5620   76.6340 C   0  0  0  0  0  0  0  0  0  0  0  0
   -3.4770   64.7940   77.2500 C   0  0  0  0  0  0  0  0  0  0  0  0
   -3.8020   62.3910   76.4480 C   0  0  0  0  0  0  0  0  0  0  0  0
   -4.3060   61.6620   77.7300 C   0  0  2  0  0  0  0  0  0  0  0  0
   -3.3070   61.7120   78.8970 C   0  0  0  0  0  0  0  0  0  0  0  0
   -4.6150   60.1920   77.3590 C   0  0  0  0  0  0  0  0  0  0  0  0
   -5.7140   59.4630   78.1640 C   0  0  1  0  0  0  0  0  0  0  0  0
   -5.5980   57.9350   77.8930 C   0  0  1  0  0  0  0  0  0  0  0  0
   -4.3500   57.4620   78.4090 O   0  0  0  0  0  0  0  0  0  0  0  0
   -3.9990   56.1100   78.0910 C   0  0  2  0  0  0  0  0  0  0  0  0
   -5.1420   55.1370   78.5030 C   0  0  1  0  0  0  0  0  0  0  0  0
   -6.5430   55.6700   78.1420 C   0  0  0  0  0  0  0  0  0  0  0  0
   -6.7420   57.1360   78.5260 C   0  0  2  0  0  0  0  0  0  0  0  0
   -5.0310   53.7300   77.8880 C   0  0  0  0  0  0  0  0  0  0  0  0
   -2.6310   55.9350   78.8340 C   0  0  0  0  0  0  0  0  0  0  0  0
   -1.8050   56.8280   79.0290 O   0  0  0  0  0  0  0  0  0  0  0  0
   -2.2750   54.5470   79.3210 C   0  0  0  0  0  0  0  0  0  0  0  0
   -3.0140   54.0480   80.1660 O   0  0  0  0  0  0  0  0  0  0  0  0
   -1.1570   53.8920   78.7890 N   0  0  0  0  0  0  0  0  0  0  0  0
   -0.1380   54.5270   77.8940 C   0  0  2  0  0  0  0  0  0  0  0  0
   -0.5330   54.4980   76.4080 C   0  0  0  0  0  0  0  0  0  0  0  0
   -1.4790   53.8240   76.0000 O   0  0  0  0  0  0  0  0  0  0  0  0
    0.2780   55.1350   75.5240 O   0  0  0  0  0  0  0  0  0  0  0  0
    0.7460   56.5210   75.5920 C   0  0  1  0  0  0  0  0  0  0  0  0
   -0.3890   57.5560   75.8450 C   0  0  1  0  0  0  0  0  0  0  0  0
    0.1220   59.0290   75.7840 C   0  0  2  0  0  0  0  0  0  0  0  0
   -0.9090   60.0040   76.3470 C   0  0  0  0  0  0  0  0  0  0  0  0
   -0.3160   61.3960   76.4820 C   0  0  0  0  0  0  0  0  0  0  0  0
    0.5480   61.6330   77.3310 O   0  0  0  0  0  0  0  0  0  0  0  0
   -1.5270   57.3380   74.8290 C   0  0  0  0  0  0  0  0  0  0  0  0
    1.2340   53.8580   78.1060 C   0  0  0  0  0  0  0  0  0  0  0  0
    1.1870   52.3350   78.0840 C   0  0  0  0  0  0  0  0  0  0  0  0
    0.1990   51.8340   79.1210 C   0  0  0  0  0  0  0  0  0  0  0  0
   -1.1740   52.4300   78.8710 C   0  0  0  0  0  0  0  0  0  0  0  0
    2.0490   56.6110   76.3900 C   0  0  0  0  0  0  0  0  0  0  0  0
    2.1450   57.2190   77.5940 C   0  0  0  0  0  0  0  0  0  0  0  0
    3.2220   55.9940   75.6620 C   0  0  0  0  0  0  0  0  0  0  0  0
    3.3640   57.4980   78.4560 C   0  0  2  0  0  0  0  0  0  0  0  0
    3.2620   56.8870   79.8590 C   0  0  0  0  0  0  0  0  0  0  0  0
    4.5790   56.9950   80.6350 C   0  0  0  0  0  0  0  0  0  0  0  0
    5.4220   58.2240   80.2670 C   0  0  2  0  0  0  0  0  0  0  0  0
    4.5760   59.3890   79.7280 C   0  0  1  0  0  0  0  0  0  0  0  0
    3.7900   58.9810   78.4690 C   0  0  0  0  0  0  0  0  0  0  0  0
    3.6870   59.8190   80.7700 O   0  0  0  0  0  0  0  0  0  0  0  0
    2.6530   60.6790   80.3080 C   0  0  0  0  0  0  0  0  0  0  0  0
    6.3950   57.8360   79.2910 O   0  0  0  0  0  0  0  0  0  0  0  0
   -5.5890   59.7100   79.5670 O   0  0  0  0  0  0  0  0  0  0  0  0
   -6.7150   60.3740   80.1220 C   0  0  0  0  0  0  0  0  0  0  0  0
   -3.7200   56.0450   76.6990 O   0  0  0  0  0  0  0  0  0  0  0  0
   -7.9920   57.6090   78.0090 O   0  0  0  0  0  0  0  0  0  0  0  0
   -8.3190   57.0580   76.7400 C   0  0  0  0  0  0  0  0  0  0  0  0
    0.3990   59.4010   74.4310 O   0  0  0  0  0  0  0  0  0  0  0  0
    0.4000   63.0070   74.7230 C   0  0  0  0  0  0  0  0  0  0  0  0
   -0.5840   61.9830   72.6470 C   0  0  0  0  0  0  0  0  0  0  0  0
    0.2540   62.8490   73.2300 C   0  0  0  0  0  0  0  0  0  0  0  0
   -1.5290   62.0418   74.7867 H   0  0  0  0  0  0  0  0  0  0  0  0
   -0.9778   64.4449   76.5330 H   0  0  0  0  0  0  0  0  0  0  0  0
   -3.4373   64.7145   78.3464 H   0  0  0  0  0  0  0  0  0  0  0  0
   -2.9175   65.6841   76.9264 H   0  0  0  0  0  0  0  0  0  0  0  0
   -4.5247   64.8818   76.9264 H   0  0  0  0  0  0  0  0  0  0  0  0
   -4.6872   62.7613   75.9101 H   0  0  0  0  0  0  0  0  0  0  0  0
   -3.2072   61.6366   75.9123 H   0  0  0  0  0  0  0  0  0  0  0  0
   -5.2067   62.1857   78.0829 H   0  0  0  0  0  0  0  0  0  0  0  0
   -3.8551   61.6846   79.8503 H   0  0  0  0  0  0  0  0  0  0  0  0
   -2.6306   60.8466   78.8379 H   0  0  0  0  0  0  0  0  0  0  0  0
   -2.7204   62.6406   78.8379 H   0  0  0  0  0  0  0  0  0  0  0  0
   -4.9179   60.1769   76.3016 H   0  0  0  0  0  0  0  0  0  0  0  0
   -3.6897   59.6458   77.5947 H   0  0  0  0  0  0  0  0  0  0  0  0
   -6.6953   59.8421   77.8427 H   0  0  0  0  0  0  0  0  0  0  0  0
   -5.6566   57.7859   76.8047 H   0  0  0  0  0  0  0  0  0  0  0  0
   -5.0178   55.0679   79.5938 H   0  0  0  0  0  0  0  0  0  0  0  0
   -6.6871   55.5695   77.0561 H   0  0  0  0  0  0  0  0  0  0  0  0
   -7.2762   55.0788   78.7102 H   0  0  0  0  0  0  0  0  0  0  0  0
   -6.7468   57.2508   79.6200 H   0  0  0  0  0  0  0  0  0  0  0  0
   -4.9720   52.9819   78.6923 H   0  0  0  0  0  0  0  0  0  0  0  0
   -5.9162   53.5308   77.2662 H   0  0  0  0  0  0  0  0  0  0  0  0
   -4.1255   53.6720   77.2662 H   0  0  0  0  0  0  0  0  0  0  0  0
   -0.0811   55.5893   78.1739 H   0  0  0  0  0  0  0  0  0  0  0  0
    1.0546   56.8693   74.5953 H   0  0  0  0  0  0  0  0  0  0  0  0
   -0.7661   57.3928   76.8654 H   0  0  0  0  0  0  0  0  0  0  0  0
    1.0370   59.0802   76.3924 H   0  0  0  0  0  0  0  0  0  0  0  0
   -1.7747   60.0447   75.6696 H   0  0  0  0  0  0  0  0  0  0  0  0
   -1.2188   59.6541   77.3428 H   0  0  0  0  0  0  0  0  0  0  0  0
   -2.4693   57.1575   75.3670 H   0  0  0  0  0  0  0  0  0  0  0  0
   -1.6310   58.2326   74.1974 H   0  0  0  0  0  0  0  0  0  0  0  0
   -1.2930   56.4683   74.1974 H   0  0  0  0  0  0  0  0  0  0  0  0
    1.9112   54.1954   77.3075 H   0  0  0  0  0  0  0  0  0  0  0  0
    1.5823   54.1528   79.1069 H   0  0  0  0  0  0  0  0  0  0  0  0
    0.8730   51.9941   77.0864 H   0  0  0  0  0  0  0  0  0  0  0  0
    2.1867   51.9384   78.3148 H   0  0  0  0  0  0  0  0  0  0  0  0
    0.1350   50.7375   79.0613 H   0  0  0  0  0  0  0  0  0  0  0  0
    0.5443   52.1374   80.1204 H   0  0  0  0  0  0  0  0  0  0  0  0
   -1.5622   52.0302   77.9226 H   0  0  0  0  0  0  0  0  0  0  0  0
   -1.8120   52.1558   79.7241 H   0  0  0  0  0  0  0  0  0  0  0  0
    1.1901   57.5661   78.0154 H   0  0  0  0  0  0  0  0  0  0  0  0
    3.9483   55.6120   76.3945 H   0  0  0  0  0  0  0  0  0  0  0  0
    2.8674   55.1657   75.0310 H   0  0  0  0  0  0  0  0  0  0  0  0
    3.7036   56.7555   75.0310 H   0  0  0  0  0  0  0  0  0  0  0  0
    4.1912   56.9693   77.9598 H   0  0  0  0  0  0  0  0  0  0  0  0
    2.4765   57.4154   80.4192 H   0  0  0  0  0  0  0  0  0  0  0  0
    3.0237   55.8191   79.7456 H   0  0  0  0  0  0  0  0  0  0  0  0
    4.3447   57.0452   81.7086 H   0  0  0  0  0  0  0  0  0  0  0  0
    5.1764   56.1094   80.3726 H   0  0  0  0  0  0  0  0  0  0  0  0
    5.9080   58.5873   81.1845 H   0  0  0  0  0  0  0  0  0  0  0  0
    5.2385   60.2159   79.4325 H   0  0  0  0  0  0  0  0  0  0  0  0
    2.8846   59.6028   78.4084 H   0  0  0  0  0  0  0  0  0  0  0  0
    4.4604   59.1300   77.6097 H   0  0  0  0  0  0  0  0  0  0  0  0
    2.1273   61.1162   81.1697 H   0  0  0  0  0  0  0  0  0  0  0  0
    3.0902   61.4835   79.6985 H   0  0  0  0  0  0  0  0  0  0  0  0
    1.9416   60.1025   79.6985 H   0  0  0  0  0  0  0  0  0  0  0  0
    7.2103   57.5109   79.7489 H   0  0  0  0  0  0  0  0  0  0  0  0
   -6.6566   60.3396   81.2199 H   0  0  0  0  0  0  0  0  0  0  0  0
   -6.7241   61.4220   79.7880 H   0  0  0  0  0  0  0  0  0  0  0  0
   -7.6365   59.8747   79.7880 H   0  0  0  0  0  0  0  0  0  0  0  0
   -2.7648   55.8225   76.5639 H   0  0  0  0  0  0  0  0  0  0  0  0
   -8.8758   56.1197   76.8801 H   0  0  0  0  0  0  0  0  0  0  0  0
   -8.9395   57.7723   76.1790 H   0  0  0  0  0  0  0  0  0  0  0  0
   -7.3947   56.8556   76.1790 H   0  0  0  0  0  0  0  0  0  0  0  0
    0.9902   60.1950   74.4215 H   0  0  0  0  0  0  0  0  0  0  0  0
    0.5176   64.0763   74.9527 H   0  0  0  0  0  0  0  0  0  0  0  0
    1.2789   62.4221   75.0319 H   0  0  0  0  0  0  0  0  0  0  0  0
   -0.6371   61.9227   71.5499 H   0  0  0  0  0  0  0  0  0  0  0  0
   -1.2195   61.3317   73.2650 H   0  0  0  0  0  0  0  0  0  0  0  0
    0.8741   63.4843   72.5805 H   0  0  0  0  0  0  0  0  0  0  0  0
  2  1  1  0
  3  2  2  0
  4  3  1  0
  5  3  1  0
  6  5  1  0
  7  6  1  0
  8  6  1  0
  9  8  1  0
 10  9  1  0
 11 10  1  0
 12 11  1  0
 13 12  1  0
 14 13  1  0
 15 14  1  0
 15 10  1  0
 16 13  1  0
 17 12  1  0
 18 17  2  0
 19 17  1  0
 20 19  2  0
 21 19  1  0
 22 21  1  0
 23 22  1  0
 24 23  2  0
 25 23  1  0
 26 25  1  0
 27 26  1  0
 28 27  1  0
 29 28  1  0
 30 29  1  0
 30  1  1  0
 31 30  2  0
 32 27  1  0
 33 22  1  0
 34 33  1  0
 35 34  1  0
 36 35  1  0
 36 21  1  0
 37 26  1  0
 38 37  2  0
 39 37  1  0
 40 38  1  0
 41 40  1  0
 42 41  1  0
 43 42  1  0
 44 43  1  0
 45 44  1  0
 45 40  1  0
 46 44  1  0
 47 46  1  0
 48 43  1  0
 49  9  1  0
 50 49  1  0
 12 51  1  6
 52 15  1  0
 53 52  1  0
 54 28  1  0
 55  1  1  0
 57 56  2  3
 57 55  1  0
  1 58  1  6
  2 59  1  0
  4 60  1  0
  4 61  1  0
  4 62  1  0
  5 63  1  0
  5 64  1  0
  6 65  1  1
  7 66  1  0
  7 67  1  0
  7 68  1  0
  8 69  1  0
  8 70  1  0
  9 71  1  6
 10 72  1  6
 13 73  1  1
 14 74  1  0
 14 75  1  0
 15 76  1  1
 16 77  1  0
 16 78  1  0
 16 79  1  0
 22 80  1  1
 26 81  1  6
 27 82  1  1
 28 83  1  1
 29 84  1  0
 29 85  1  0
 32 86  1  0
 32 87  1  0
 32 88  1  0
 33 89  1  0
 33 90  1  0
 34 91  1  0
 34 92  1  0
 35 93  1  0
 35 94  1  0
 36 95  1  0
 36 96  1  0
 38 97  1  0
 39 98  1  0
 39 99  1  0
 39100  1  0
 40101  1  6
 41102  1  0
 41103  1  0
 42104  1  0
 42105  1  0
 43106  1  1
 44107  1  6
 45108  1  0
 45109  1  0
 47110  1  0
 47111  1  0
 47112  1  0
 48113  1  0
 50114  1  0
 50115  1  0
 50116  1  0
 51117  1  0
 53118  1  0
 53119  1  0
 53120  1  0
 54121  1  0
 55122  1  0
 55123  1  0
 56124  1  0
 56125  1  0
 57126  1  0
M  END
>  <score>  (9) 
-5.609

$$$$
