=
     RDKit          3D

 45 47  0  0  0  0  0  0  0  0999 V2000
    5.5640   69.9510   67.1080 C   0  0  0  0  0  0  0  0  0  0  0  0
    4.5210   70.1960   68.0070 C   0  0  0  0  0  0  0  0  0  0  0  0
    3.2330   69.8500   67.6440 C   0  0  0  0  0  0  0  0  0  0  0  0
    1.9690   70.0500   68.4240 C   0  0  0  0  0  0  0  0  0  0  0  0
    1.0000   69.0960   67.6870 C   0  0  1  0  0  0  0  0  0  0  0  0
    1.4950   69.0400   66.2250 C   0  0  0  0  0  0  0  0  0  0  0  0
    2.9690   69.2770   66.3950 C   0  0  0  0  0  0  0  0  0  0  0  0
    3.9850   69.0380   65.4820 C   0  0  0  0  0  0  0  0  0  0  0  0
    5.2940   69.3740   65.8520 C   0  0  0  0  0  0  0  0  0  0  0  0
    1.0070   67.7650   68.2890 N   0  0  0  0  0  0  0  0  0  0  0  0
   -0.1090   66.9910   68.3520 C   0  0  0  0  0  0  0  0  0  0  0  0
   -1.1700   67.2330   67.7970 O   0  0  0  0  0  0  0  0  0  0  0  0
    0.1370   65.9230   69.1440 O   0  0  0  0  0  0  0  0  0  0  0  0
    1.2960   66.0770   69.9650 C   0  0  0  0  0  0  0  0  0  0  0  0
    1.5700   64.7550   70.6350 C   0  0  0  0  0  0  0  0  0  0  0  0
    2.8380   64.1640   70.5510 C   0  0  0  0  0  0  0  0  0  0  0  0
    3.0860   62.9310   71.1560 C   0  0  0  0  0  0  0  0  0  0  0  0
    2.0680   62.2740   71.8440 C   0  0  0  0  0  0  0  0  0  0  0  0
    0.7990   62.8440   71.9210 C   0  0  0  0  0  0  0  0  0  0  0  0
    0.5490   64.0780   71.3170 C   0  0  0  0  0  0  0  0  0  0  0  0
    6.8560   70.9470   68.8450 C   0  0  0  0  0  0  0  0  0  0  0  0
    6.8000   70.3240   67.5690 O   0  0  0  0  0  0  0  0  0  0  0  0
    3.5980   68.4880   64.2930 O   0  0  0  0  0  0  0  0  0  0  0  0
    4.2870   68.9170   63.1260 C   0  0  0  0  0  0  0  0  0  0  0  0
    4.7222   70.6560   68.9858 H   0  0  0  0  0  0  0  0  0  0  0  0
    2.0961   69.7592   69.4772 H   0  0  0  0  0  0  0  0  0  0  0  0
    1.6267   71.0946   68.4646 H   0  0  0  0  0  0  0  0  0  0  0  0
   -0.0374   69.4563   67.7502 H   0  0  0  0  0  0  0  0  0  0  0  0
    1.2962   68.0578   65.7714 H   0  0  0  0  0  0  0  0  0  0  0  0
    1.0002   69.7608   65.5574 H   0  0  0  0  0  0  0  0  0  0  0  0
    6.1215   69.1847   65.1524 H   0  0  0  0  0  0  0  0  0  0  0  0
    1.8877   67.4003   68.6792 H   0  0  0  0  0  0  0  0  0  0  0  0
    2.1571   66.3670   69.3449 H   0  0  0  0  0  0  0  0  0  0  0  0
    1.1294   66.8606   70.7188 H   0  0  0  0  0  0  0  0  0  0  0  0
    3.6437   64.6757   70.0042 H   0  0  0  0  0  0  0  0  0  0  0  0
    4.0860   62.4775   71.0896 H   0  0  0  0  0  0  0  0  0  0  0  0
    2.2662   61.3054   72.3263 H   0  0  0  0  0  0  0  0  0  0  0  0
   -0.0065   62.3216   72.4579 H   0  0  0  0  0  0  0  0  0  0  0  0
   -0.4557   64.5219   71.3767 H   0  0  0  0  0  0  0  0  0  0  0  0
    6.7871   70.1803   69.6307 H   0  0  0  0  0  0  0  0  0  0  0  0
    7.8067   71.4911   68.9460 H   0  0  0  0  0  0  0  0  0  0  0  0
    6.0176   71.6519   68.9460 H   0  0  0  0  0  0  0  0  0  0  0  0
    5.1875   69.4777   63.4171 H   0  0  0  0  0  0  0  0  0  0  0  0
    4.5781   68.0402   62.5289 H   0  0  0  0  0  0  0  0  0  0  0  0
    3.6286   69.5651   62.5289 H   0  0  0  0  0  0  0  0  0  0  0  0
  2  1  2  0
  3  2  1  0
  4  3  1  0
  5  4  1  0
  6  5  1  0
  7  6  1  0
  7  3  2  0
  8  7  1  0
  9  8  2  0
  9  1  1  0
 10  5  1  0
 11 10  1  0
 12 11  2  0
 13 11  1  0
 14 13  1  0
 15 14  1  0
 16 15  2  0
 17 16  1  0
 18 17  2  0
 19 18  1  0
 20 15  1  0
 20 19  2  0
 22  1  1  0
 22 21  1  0
 23  8  1  0
 24 23  1  0
  2 25  1  0
  4 26  1  0
  4 27  1  0
  5 28  1  6
  6 29  1  0
  6 30  1  0
  9 31  1  0
 10 32  1  0
 14 33  1  0
 14 34  1  0
 16 35  1  0
 17 36  1  0
 18 37  1  0
 19 38  1  0
 20 39  1  0
 21 40  1  0
 21 41  1  0
 21 42  1  0
 24 43  1  0
 24 44  1  0
 24 45  1  0
M  END
>  <score>  (1) 
-9.797

$$$$
=
     RDKit          3D

 45 47  0  0  0  0  0  0  0  0999 V2000
    4.5160   67.4500   63.0380 C   0  0  0  0  0  0  0  0  0  0  0  0
    3.6360   68.4260   63.5180 C   0  0  0  0  0  0  0  0  0  0  0  0
    2.6060   68.0390   64.3540 C   0  0  0  0  0  0  0  0  0  0  0  0
    1.5320   68.8960   64.9540 C   0  0  0  0  0  0  0  0  0  0  0  0
    0.9980   67.9770   66.0760 C   0  0  1  0  0  0  0  0  0  0  0  0
    1.2210   66.5330   65.5800 C   0  0  0  0  0  0  0  0  0  0  0  0
    2.4340   66.6960   64.7080 C   0  0  0  0  0  0  0  0  0  0  0  0
    3.2860   65.7100   64.2320 C   0  0  0  0  0  0  0  0  0  0  0  0
    4.3400   66.1000   63.3960 C   0  0  0  0  0  0  0  0  0  0  0  0
    1.7040   68.2110   67.3330 N   0  0  0  0  0  0  0  0  0  0  0  0
    1.5060   69.3310   68.0810 C   0  0  0  0  0  0  0  0  0  0  0  0
    0.6360   70.1660   67.8860 O   0  0  0  0  0  0  0  0  0  0  0  0
    2.4370   69.3790   69.0590 O   0  0  0  0  0  0  0  0  0  0  0  0
    3.1210   70.6310   69.1350 C   0  0  0  0  0  0  0  0  0  0  0  0
    4.4520   70.4770   68.4460 C   0  0  0  0  0  0  0  0  0  0  0  0
    5.6340   70.8800   69.0830 C   0  0  0  0  0  0  0  0  0  0  0  0
    6.8650   70.7540   68.4360 C   0  0  0  0  0  0  0  0  0  0  0  0
    6.9250   70.2340   67.1440 C   0  0  0  0  0  0  0  0  0  0  0  0
    5.7550   69.8450   66.4960 C   0  0  0  0  0  0  0  0  0  0  0  0
    4.5230   69.9690   67.1410 C   0  0  0  0  0  0  0  0  0  0  0  0
    5.7250   69.3440   62.2440 C   0  0  0  0  0  0  0  0  0  0  0  0
    5.5050   67.9400   62.2240 O   0  0  0  0  0  0  0  0  0  0  0  0
    3.0040   64.4370   64.6370 O   0  0  0  0  0  0  0  0  0  0  0  0
    4.0710   63.4970   64.6120 C   0  0  0  0  0  0  0  0  0  0  0  0
    3.7616   69.4816   63.2352 H   0  0  0  0  0  0  0  0  0  0  0  0
    1.9443   69.8307   65.3619 H   0  0  0  0  0  0  0  0  0  0  0  0
    0.7643   69.2219   64.2368 H   0  0  0  0  0  0  0  0  0  0  0  0
   -0.0647   68.1746   66.2799 H   0  0  0  0  0  0  0  0  0  0  0  0
    1.4179   65.8471   66.4171 H   0  0  0  0  0  0  0  0  0  0  0  0
    0.3530   66.0991   65.0620 H   0  0  0  0  0  0  0  0  0  0  0  0
    5.0393   65.3415   63.0143 H   0  0  0  0  0  0  0  0  0  0  0  0
    2.3752   67.5038   67.6651 H   0  0  0  0  0  0  0  0  0  0  0  0
    2.5291   71.4108   68.6335 H   0  0  0  0  0  0  0  0  0  0  0  0
    3.2661   70.9240   70.1853 H   0  0  0  0  0  0  0  0  0  0  0  0
    5.5914   71.2983   70.0995 H   0  0  0  0  0  0  0  0  0  0  0  0
    7.7883   71.0654   68.9464 H   0  0  0  0  0  0  0  0  0  0  0  0
    7.8956   70.1310   66.6366 H   0  0  0  0  0  0  0  0  0  0  0  0
    5.8018   69.4395   65.4745 H   0  0  0  0  0  0  0  0  0  0  0  0
    3.6017   69.6661   66.6219 H   0  0  0  0  0  0  0  0  0  0  0  0
    5.7795   69.6918   63.2861 H   0  0  0  0  0  0  0  0  0  0  0  0
    6.6702   69.5744   61.7307 H   0  0  0  0  0  0  0  0  0  0  0  0
    4.8956   69.8525   61.7307 H   0  0  0  0  0  0  0  0  0  0  0  0
    4.3598   63.2426   65.6425 H   0  0  0  0  0  0  0  0  0  0  0  0
    3.7455   62.5868   64.0871 H   0  0  0  0  0  0  0  0  0  0  0  0
    4.9330   63.9346   64.0871 H   0  0  0  0  0  0  0  0  0  0  0  0
  2  1  2  0
  3  2  1  0
  4  3  1  0
  5  4  1  0
  6  5  1  0
  7  6  1  0
  7  3  2  0
  8  7  1  0
  9  8  2  0
  9  1  1  0
 10  5  1  0
 11 10  1  0
 12 11  2  0
 13 11  1  0
 14 13  1  0
 15 14  1  0
 16 15  2  0
 17 16  1  0
 18 17  2  0
 19 18  1  0
 20 15  1  0
 20 19  2  0
 22  1  1  0
 22 21  1  0
 23  8  1  0
 24 23  1  0
  2 25  1  0
  4 26  1  0
  4 27  1  0
  5 28  1  1
  6 29  1  0
  6 30  1  0
  9 31  1  0
 10 32  1  0
 14 33  1  0
 14 34  1  0
 16 35  1  0
 17 36  1  0
 18 37  1  0
 19 38  1  0
 20 39  1  0
 21 40  1  0
 21 41  1  0
 21 42  1  0
 24 43  1  0
 24 44  1  0
 24 45  1  0
M  END
>  <score>  (2) 
-9.457

$$$$
=
     RDKit          3D

 45 47  0  0  0  0  0  0  0  0999 V2000
    4.7870   69.8830   66.0540 C   0  0  0  0  0  0  0  0  0  0  0  0
    4.0790   69.8510   67.2590 C   0  0  0  0  0  0  0  0  0  0  0  0
    2.8530   69.2120   67.2940 C   0  0  0  0  0  0  0  0  0  0  0  0
    1.9110   69.0860   68.4530 C   0  0  0  0  0  0  0  0  0  0  0  0
    0.9870   67.9430   67.9740 C   0  0  1  0  0  0  0  0  0  0  0  0
    0.9650   68.0370   66.4330 C   0  0  0  0  0  0  0  0  0  0  0  0
    2.3200   68.6180   66.1450 C   0  0  0  0  0  0  0  0  0  0  0  0
    2.9990   68.6490   64.9360 C   0  0  0  0  0  0  0  0  0  0  0  0
    4.2480   69.2830   64.9000 C   0  0  0  0  0  0  0  0  0  0  0  0
    1.4880   66.6400   68.4080 N   0  0  0  0  0  0  0  0  0  0  0  0
    1.1020   66.0680   69.5800 C   0  0  0  0  0  0  0  0  0  0  0  0
    0.2090   66.4760   70.3060 O   0  0  0  0  0  0  0  0  0  0  0  0
    1.8780   64.9880   69.8200 O   0  0  0  0  0  0  0  0  0  0  0  0
    1.2740   64.0320   70.6930 C   0  0  0  0  0  0  0  0  0  0  0  0
    2.0080   62.7270   70.5350 C   0  0  0  0  0  0  0  0  0  0  0  0
    1.8500   61.7020   71.4790 C   0  0  0  0  0  0  0  0  0  0  0  0
    2.5440   60.4990   71.3420 C   0  0  0  0  0  0  0  0  0  0  0  0
    3.4100   60.3120   70.2660 C   0  0  0  0  0  0  0  0  0  0  0  0
    3.5870   61.3290   69.3300 C   0  0  0  0  0  0  0  0  0  0  0  0
    2.8930   62.5320   69.4640 C   0  0  0  0  0  0  0  0  0  0  0  0
    6.6280   70.5730   67.4010 C   0  0  0  0  0  0  0  0  0  0  0  0
    5.9920   70.5320   66.1300 O   0  0  0  0  0  0  0  0  0  0  0  0
    2.3680   68.0470   63.8850 O   0  0  0  0  0  0  0  0  0  0  0  0
    2.9830   68.1600   62.6080 C   0  0  0  0  0  0  0  0  0  0  0  0
    4.4895   70.3253   68.1626 H   0  0  0  0  0  0  0  0  0  0  0  0
    2.4434   68.8127   69.3760 H   0  0  0  0  0  0  0  0  0  0  0  0
    1.3810   70.0166   68.7043 H   0  0  0  0  0  0  0  0  0  0  0  0
   -0.0221   68.0422   68.4004 H   0  0  0  0  0  0  0  0  0  0  0  0
    0.8477   67.0451   65.9722 H   0  0  0  0  0  0  0  0  0  0  0  0
    0.1299   68.6310   66.0333 H   0  0  0  0  0  0  0  0  0  0  0  0
    4.8149   69.3123   63.9578 H   0  0  0  0  0  0  0  0  0  0  0  0
    2.1560   66.1381   67.8057 H   0  0  0  0  0  0  0  0  0  0  0  0
    1.3486   64.3783   71.7344 H   0  0  0  0  0  0  0  0  0  0  0  0
    0.2106   63.9045   70.4422 H   0  0  0  0  0  0  0  0  0  0  0  0
    1.1737   61.8474   72.3342 H   0  0  0  0  0  0  0  0  0  0  0  0
    2.4075   59.6980   72.0835 H   0  0  0  0  0  0  0  0  0  0  0  0
    3.9535   59.3620   70.1557 H   0  0  0  0  0  0  0  0  0  0  0  0
    4.2749   61.1832   68.4841 H   0  0  0  0  0  0  0  0  0  0  0  0
    3.0408   63.3331   68.7248 H   0  0  0  0  0  0  0  0  0  0  0  0
    5.8669   70.5239   68.1936 H   0  0  0  0  0  0  0  0  0  0  0  0
    7.3124   69.7171   67.4963 H   0  0  0  0  0  0  0  0  0  0  0  0
    7.1968   71.5097   67.4963 H   0  0  0  0  0  0  0  0  0  0  0  0
    4.0577   68.3575   62.7348 H   0  0  0  0  0  0  0  0  0  0  0  0
    2.8459   67.2216   62.0507 H   0  0  0  0  0  0  0  0  0  0  0  0
    2.5212   68.9883   62.0507 H   0  0  0  0  0  0  0  0  0  0  0  0
  2  1  2  0
  3  2  1  0
  4  3  1  0
  5  4  1  0
  6  5  1  0
  7  6  1  0
  7  3  2  0
  8  7  1  0
  9  8  2  0
  9  1  1  0
 10  5  1  0
 11 10  1  0
 12 11  2  0
 13 11  1  0
 14 13  1  0
 15 14  1  0
 16 15  2  0
 17 16  1  0
 18 17  2  0
 19 18  1  0
 20 15  1  0
 20 19  2  0
 22  1  1  0
 22 21  1  0
 23  8  1  0
 24 23  1  0
  2 25  1  0
  4 26  1  0
  4 27  1  0
  5 28  1  1
  6 29  1  0
  6 30  1  0
  9 31  1  0
 10 32  1  0
 14 33  1  0
 14 34  1  0
 16 35  1  0
 17 36  1  0
 18 37  1  0
 19 38  1  0
 20 39  1  0
 21 40  1  0
 21 41  1  0
 21 42  1  0
 24 43  1  0
 24 44  1  0
 24 45  1  0
M  END
>  <score>  (3) 
-9.324

$$$$
=
     RDKit          3D

 45 47  0  0  0  0  0  0  0  0999 V2000
    0.1150   67.2060   68.2120 C   0  0  0  0  0  0  0  0  0  0  0  0
    1.1000   66.6920   67.3620 C   0  0  0  0  0  0  0  0  0  0  0  0
    1.1470   67.1340   66.0530 C   0  0  0  0  0  0  0  0  0  0  0  0
    2.0820   66.7000   64.9650 C   0  0  0  0  0  0  0  0  0  0  0  0
    1.8980   67.8360   63.9330 C   0  0  1  0  0  0  0  0  0  0  0  0
    0.4540   68.3460   64.1190 C   0  0  0  0  0  0  0  0  0  0  0  0
    0.2210   68.0690   65.5780 C   0  0  0  0  0  0  0  0  0  0  0  0
   -0.7730   68.5810   66.3990 C   0  0  0  0  0  0  0  0  0  0  0  0
   -0.8150   68.1460   67.7300 C   0  0  0  0  0  0  0  0  0  0  0  0
    2.8620   68.9120   64.1530 N   0  0  0  0  0  0  0  0  0  0  0  0
    4.1120   68.8890   63.6150 C   0  0  0  0  0  0  0  0  0  0  0  0
    4.5120   68.0830   62.7890 O   0  0  0  0  0  0  0  0  0  0  0  0
    4.8440   69.8880   64.1550 O   0  0  0  0  0  0  0  0  0  0  0  0
    5.8410   69.4350   65.0720 C   0  0  0  0  0  0  0  0  0  0  0  0
    5.4770   69.9420   66.4430 C   0  0  0  0  0  0  0  0  0  0  0  0
    6.4280   70.6050   67.2320 C   0  0  0  0  0  0  0  0  0  0  0  0
    6.0970   71.0580   68.5100 C   0  0  0  0  0  0  0  0  0  0  0  0
    4.8150   70.8460   69.0150 C   0  0  0  0  0  0  0  0  0  0  0  0
    3.8660   70.1750   68.2460 C   0  0  0  0  0  0  0  0  0  0  0  0
    4.1960   69.7210   66.9680 C   0  0  0  0  0  0  0  0  0  0  0  0
    1.4230   66.2510   69.9610 C   0  0  0  0  0  0  0  0  0  0  0  0
    0.1620   66.7080   69.4890 O   0  0  0  0  0  0  0  0  0  0  0  0
   -1.6240   69.4750   65.8130 O   0  0  0  0  0  0  0  0  0  0  0  0
   -2.9460   69.0280   65.5400 C   0  0  0  0  0  0  0  0  0  0  0  0
    1.8241   65.9495   67.7286 H   0  0  0  0  0  0  0  0  0  0  0  0
    3.1203   66.6472   65.3242 H   0  0  0  0  0  0  0  0  0  0  0  0
    1.8750   65.6949   64.5688 H   0  0  0  0  0  0  0  0  0  0  0  0
    2.0697   67.4737   62.9087 H   0  0  0  0  0  0  0  0  0  0  0  0
    0.3761   69.4206   63.8970 H   0  0  0  0  0  0  0  0  0  0  0  0
   -0.2783   67.8696   63.4506 H   0  0  0  0  0  0  0  0  0  0  0  0
   -1.5849   68.5443   68.4072 H   0  0  0  0  0  0  0  0  0  0  0  0
    2.5860   69.7155   64.7353 H   0  0  0  0  0  0  0  0  0  0  0  0
    5.8720   68.3354   65.0766 H   0  0  0  0  0  0  0  0  0  0  0  0
    6.8315   69.8109   64.7760 H   0  0  0  0  0  0  0  0  0  0  0  0
    7.4428   70.7693   66.8406 H   0  0  0  0  0  0  0  0  0  0  0  0
    6.8480   71.5825   69.1190 H   0  0  0  0  0  0  0  0  0  0  0  0
    4.5526   71.2082   70.0200 H   0  0  0  0  0  0  0  0  0  0  0  0
    2.8560   70.0030   68.6465 H   0  0  0  0  0  0  0  0  0  0  0  0
    3.4452   69.1857   66.3682 H   0  0  0  0  0  0  0  0  0  0  0  0
    1.4245   66.2505   71.0610 H   0  0  0  0  0  0  0  0  0  0  0  0
    1.6040   65.2301   69.5936 H   0  0  0  0  0  0  0  0  0  0  0  0
    2.2160   66.9189   69.5936 H   0  0  0  0  0  0  0  0  0  0  0  0
   -3.4755   68.8490   66.4874 H   0  0  0  0  0  0  0  0  0  0  0  0
   -3.4803   69.7954   64.9607 H   0  0  0  0  0  0  0  0  0  0  0  0
   -2.9049   68.0938   64.9607 H   0  0  0  0  0  0  0  0  0  0  0  0
  2  1  2  0
  3  2  1  0
  4  3  1  0
  5  4  1  0
  6  5  1  0
  7  6  1  0
  7  3  2  0
  8  7  1  0
  9  8  2  0
  9  1  1  0
 10  5  1  0
 11 10  1  0
 12 11  2  0
 13 11  1  0
 14 13  1  0
 15 14  1  0
 16 15  2  0
 17 16  1  0
 18 17  2  0
 19 18  1  0
 20 15  1  0
 20 19  2  0
 22  1  1  0
 22 21  1  0
 23  8  1  0
 24 23  1  0
  2 25  1  0
  4 26  1  0
  4 27  1  0
  5 28  1  6
  6 29  1  0
  6 30  1  0
  9 31  1  0
 10 32  1  0
 14 33  1  0
 14 34  1  0
 16 35  1  0
 17 36  1  0
 18 37  1  0
 19 38  1  0
 20 39  1  0
 21 40  1  0
 21 41  1  0
 21 42  1  0
 24 43  1  0
 24 44  1  0
 24 45  1  0
M  END
>  <score>  (4) 
-8.808

$$$$
=
     RDKit          3D

 45 47  0  0  0  0  0  0  0  0999 V2000
   -0.4930   68.6900   64.2070 C   0  0  0  0  0  0  0  0  0  0  0  0
    0.6480   68.0230   64.6650 C   0  0  0  0  0  0  0  0  0  0  0  0
    1.7790   68.0160   63.8710 C   0  0  0  0  0  0  0  0  0  0  0  0
    3.0910   67.3420   64.1390 C   0  0  0  0  0  0  0  0  0  0  0  0
    4.0140   68.0560   63.1250 C   0  0  1  0  0  0  0  0  0  0  0  0
    3.1090   68.4590   61.9410 C   0  0  0  0  0  0  0  0  0  0  0  0
    1.7850   68.6520   62.6250 C   0  0  0  0  0  0  0  0  0  0  0  0
    0.6610   69.3070   62.1440 C   0  0  0  0  0  0  0  0  0  0  0  0
   -0.4830   69.3280   62.9520 C   0  0  0  0  0  0  0  0  0  0  0  0
    4.6460   69.2310   63.7210 N   0  0  0  0  0  0  0  0  0  0  0  0
    5.6940   69.1350   64.5830 C   0  0  0  0  0  0  0  0  0  0  0  0
    6.3120   68.1110   64.8330 O   0  0  0  0  0  0  0  0  0  0  0  0
    5.9260   70.3470   65.1340 O   0  0  0  0  0  0  0  0  0  0  0  0
    6.3720   70.2830   66.4890 C   0  0  0  0  0  0  0  0  0  0  0  0
    5.1570   70.2480   67.3780 C   0  0  0  0  0  0  0  0  0  0  0  0
    3.9550   69.6920   66.9190 C   0  0  0  0  0  0  0  0  0  0  0  0
    2.8230   69.6760   67.7360 C   0  0  0  0  0  0  0  0  0  0  0  0
    2.8800   70.2230   69.0170 C   0  0  0  0  0  0  0  0  0  0  0  0
    4.0650   70.7920   69.4790 C   0  0  0  0  0  0  0  0  0  0  0  0
    5.1980   70.8090   68.6630 C   0  0  0  0  0  0  0  0  0  0  0  0
   -1.2810   68.8750   66.4480 C   0  0  0  0  0  0  0  0  0  0  0  0
   -1.5550   68.6430   65.0730 O   0  0  0  0  0  0  0  0  0  0  0  0
    0.7880   69.8750   60.9080 O   0  0  0  0  0  0  0  0  0  0  0  0
   -0.4080   70.1140   60.1780 C   0  0  0  0  0  0  0  0  0  0  0  0
    0.6451   67.5132   65.6397 H   0  0  0  0  0  0  0  0  0  0  0  0
    3.4250   67.5088   65.1737 H   0  0  0  0  0  0  0  0  0  0  0  0
    3.0648   66.2477   64.0299 H   0  0  0  0  0  0  0  0  0  0  0  0
    4.8334   67.3975   62.8010 H   0  0  0  0  0  0  0  0  0  0  0  0
    3.4564   69.3898   61.4689 H   0  0  0  0  0  0  0  0  0  0  0  0
    3.0874   67.7233   61.1235 H   0  0  0  0  0  0  0  0  0  0  0  0
   -1.3856   69.8499   62.6013 H   0  0  0  0  0  0  0  0  0  0  0  0
    4.2852   70.1651   63.4799 H   0  0  0  0  0  0  0  0  0  0  0  0
    6.9725   69.3741   66.6417 H   0  0  0  0  0  0  0  0  0  0  0  0
    6.9950   71.1576   66.7278 H   0  0  0  0  0  0  0  0  0  0  0  0
    3.9032   69.2647   65.9067 H   0  0  0  0  0  0  0  0  0  0  0  0
    1.8861   69.2317   67.3689 H   0  0  0  0  0  0  0  0  0  0  0  0
    1.9897   70.2054   69.6629 H   0  0  0  0  0  0  0  0  0  0  0  0
    4.1080   71.2284   70.4878 H   0  0  0  0  0  0  0  0  0  0  0  0
    6.1290   71.2654   69.0304 H   0  0  0  0  0  0  0  0  0  0  0  0
   -1.9761   68.2864   67.0648 H   0  0  0  0  0  0  0  0  0  0  0  0
   -0.2470   68.5736   66.6718 H   0  0  0  0  0  0  0  0  0  0  0  0
   -1.4078   69.9445   66.6718 H   0  0  0  0  0  0  0  0  0  0  0  0
   -1.2388   70.2800   60.8796 H   0  0  0  0  0  0  0  0  0  0  0  0
   -0.2794   71.0042   59.5448 H   0  0  0  0  0  0  0  0  0  0  0  0
   -0.6314   69.2427   59.5448 H   0  0  0  0  0  0  0  0  0  0  0  0
  2  1  2  0
  3  2  1  0
  4  3  1  0
  5  4  1  0
  6  5  1  0
  7  6  1  0
  7  3  2  0
  8  7  1  0
  9  8  2  0
  9  1  1  0
 10  5  1  0
 11 10  1  0
 12 11  2  0
 13 11  1  0
 14 13  1  0
 15 14  1  0
 16 15  2  0
 17 16  1  0
 18 17  2  0
 19 18  1  0
 20 15  1  0
 20 19  2  0
 22  1  1  0
 22 21  1  0
 23  8  1  0
 24 23  1  0
  2 25  1  0
  4 26  1  0
  4 27  1  0
  5 28  1  6
  6 29  1  0
  6 30  1  0
  9 31  1  0
 10 32  1  0
 14 33  1  0
 14 34  1  0
 16 35  1  0
 17 36  1  0
 18 37  1  0
 19 38  1  0
 20 39  1  0
 21 40  1  0
 21 41  1  0
 21 42  1  0
 24 43  1  0
 24 44  1  0
 24 45  1  0
M  END
>  <score>  (5) 
-8.7

$$$$
=
     RDKit          3D

 45 47  0  0  0  0  0  0  0  0999 V2000
   -0.6610   68.0840   66.1150 C   0  0  0  0  0  0  0  0  0  0  0  0
    0.3960   67.1750   66.2280 C   0  0  0  0  0  0  0  0  0  0  0  0
    1.3960   67.1950   65.2730 C   0  0  0  0  0  0  0  0  0  0  0  0
    2.5940   66.3010   65.1720 C   0  0  0  0  0  0  0  0  0  0  0  0
    3.4870   67.0940   64.1910 C   0  0  1  0  0  0  0  0  0  0  0  0
    2.5180   67.8840   63.2850 C   0  0  0  0  0  0  0  0  0  0  0  0
    1.3490   68.0970   64.2040 C   0  0  0  0  0  0  0  0  0  0  0  0
    0.3020   68.9970   64.0640 C   0  0  0  0  0  0  0  0  0  0  0  0
   -0.7050   68.9890   65.0380 C   0  0  0  0  0  0  0  0  0  0  0  0
    4.3850   67.9980   64.9060 N   0  0  0  0  0  0  0  0  0  0  0  0
    5.5380   68.4630   64.3530 C   0  0  0  0  0  0  0  0  0  0  0  0
    5.8730   68.3180   63.1880 O   0  0  0  0  0  0  0  0  0  0  0  0
    6.2620   69.0920   65.3060 O   0  0  0  0  0  0  0  0  0  0  0  0
    5.7230   70.3570   65.6910 C   0  0  0  0  0  0  0  0  0  0  0  0
    5.8310   70.4730   67.1890 C   0  0  0  0  0  0  0  0  0  0  0  0
    7.0800   70.6500   67.8000 C   0  0  0  0  0  0  0  0  0  0  0  0
    7.1820   70.7390   69.1900 C   0  0  0  0  0  0  0  0  0  0  0  0
    6.0390   70.6440   69.9810 C   0  0  0  0  0  0  0  0  0  0  0  0
    4.7940   70.4530   69.3850 C   0  0  0  0  0  0  0  0  0  0  0  0
    4.6890   70.3640   67.9960 C   0  0  0  0  0  0  0  0  0  0  0  0
   -2.9610   68.0470   66.7390 C   0  0  0  0  0  0  0  0  0  0  0  0
   -1.5920   67.9860   67.1170 O   0  0  0  0  0  0  0  0  0  0  0  0
    0.3640   69.8130   62.9720 O   0  0  0  0  0  0  0  0  0  0  0  0
   -0.3910   69.4270   61.8300 C   0  0  0  0  0  0  0  0  0  0  0  0
    0.4312   66.4575   67.0610 H   0  0  0  0  0  0  0  0  0  0  0  0
    3.0841   66.1737   66.1485 H   0  0  0  0  0  0  0  0  0  0  0  0
    2.3636   65.2773   64.8420 H   0  0  0  0  0  0  0  0  0  0  0  0
    4.1309   66.4213   63.6054 H   0  0  0  0  0  0  0  0  0  0  0  0
    2.9571   68.8408   62.9660 H   0  0  0  0  0  0  0  0  0  0  0  0
    2.2616   67.3683   62.3478 H   0  0  0  0  0  0  0  0  0  0  0  0
   -1.5411   69.6995   64.9600 H   0  0  0  0  0  0  0  0  0  0  0  0
    4.1368   68.2933   65.8610 H   0  0  0  0  0  0  0  0  0  0  0  0
    6.2927   71.1669   65.2119 H   0  0  0  0  0  0  0  0  0  0  0  0
    4.6719   70.4360   65.3766 H   0  0  0  0  0  0  0  0  0  0  0  0
    7.9862   70.7193   67.1803 H   0  0  0  0  0  0  0  0  0  0  0  0
    8.1655   70.8842   69.6607 H   0  0  0  0  0  0  0  0  0  0  0  0
    6.1193   70.7197   71.0754 H   0  0  0  0  0  0  0  0  0  0  0  0
    3.8925   70.3722   70.0101 H   0  0  0  0  0  0  0  0  0  0  0  0
    3.7044   70.2074   67.5313 H   0  0  0  0  0  0  0  0  0  0  0  0
   -3.5896   68.0750   67.6413 H   0  0  0  0  0  0  0  0  0  0  0  0
   -3.1364   68.9539   66.1416 H   0  0  0  0  0  0  0  0  0  0  0  0
   -3.2163   67.1593   66.1416 H   0  0  0  0  0  0  0  0  0  0  0  0
   -1.3270   68.9485   62.1539 H   0  0  0  0  0  0  0  0  0  0  0  0
   -0.6238   70.3167   61.2265 H   0  0  0  0  0  0  0  0  0  0  0  0
    0.1939   68.7173   61.2265 H   0  0  0  0  0  0  0  0  0  0  0  0
  2  1  2  0
  3  2  1  0
  4  3  1  0
  5  4  1  0
  6  5  1  0
  7  6  1  0
  7  3  2  0
  8  7  1  0
  9  8  2  0
  9  1  1  0
 10  5  1  0
 11 10  1  0
 12 11  2  0
 13 11  1  0
 14 13  1  0
 15 14  1  0
 16 15  2  0
 17 16  1  0
 18 17  2  0
 19 18  1  0
 20 15  1  0
 20 19  2  0
 22  1  1  0
 22 21  1  0
 23  8  1  0
 24 23  1  0
  2 25  1  0
  4 26  1  0
  4 27  1  0
  5 28  1  6
  6 29  1  0
  6 30  1  0
  9 31  1  0
 10 32  1  0
 14 33  1  0
 14 34  1  0
 16 35  1  0
 17 36  1  0
 18 37  1  0
 19 38  1  0
 20 39  1  0
 21 40  1  0
 21 41  1  0
 21 42  1  0
 24 43  1  0
 24 44  1  0
 24 45  1  0
M  END
>  <score>  (6) 
-8.388

$$$$
=
     RDKit          3D

 45 47  0  0  0  0  0  0  0  0999 V2000
    3.5320   61.7020   72.6010 C   0  0  0  0  0  0  0  0  0  0  0  0
    3.0630   61.9540   71.3080 C   0  0  0  0  0  0  0  0  0  0  0  0
    1.9280   62.7280   71.1500 C   0  0  0  0  0  0  0  0  0  0  0  0
    1.2320   63.0940   69.8750 C   0  0  0  0  0  0  0  0  0  0  0  0
    0.3440   64.2710   70.3390 C   0  0  1  0  0  0  0  0  0  0  0  0
    0.0290   64.0010   71.8260 C   0  0  0  0  0  0  0  0  0  0  0  0
    1.2490   63.2410   72.2600 C   0  0  0  0  0  0  0  0  0  0  0  0
    1.6880   62.9920   73.5530 C   0  0  0  0  0  0  0  0  0  0  0  0
    2.8460   62.2200   73.7160 C   0  0  0  0  0  0  0  0  0  0  0  0
    1.0320   65.5500   70.1770 N   0  0  0  0  0  0  0  0  0  0  0  0
    0.5840   66.5140   69.3280 C   0  0  0  0  0  0  0  0  0  0  0  0
   -0.4880   66.4970   68.7410 O   0  0  0  0  0  0  0  0  0  0  0  0
    1.5220   67.4810   69.2220 O   0  0  0  0  0  0  0  0  0  0  0  0
    1.2350   68.4490   68.2120 C   0  0  0  0  0  0  0  0  0  0  0  0
    2.5330   69.0940   67.8020 C   0  0  0  0  0  0  0  0  0  0  0  0
    3.0380   68.9160   66.5070 C   0  0  0  0  0  0  0  0  0  0  0  0
    4.2500   69.4990   66.1330 C   0  0  0  0  0  0  0  0  0  0  0  0
    4.9730   70.2570   67.0530 C   0  0  0  0  0  0  0  0  0  0  0  0
    4.4880   70.4280   68.3480 C   0  0  0  0  0  0  0  0  0  0  0  0
    3.2760   69.8470   68.7230 C   0  0  0  0  0  0  0  0  0  0  0  0
    5.4490   60.8630   71.4620 C   0  0  0  0  0  0  0  0  0  0  0  0
    4.6660   60.9330   72.6460 O   0  0  0  0  0  0  0  0  0  0  0  0
    0.9320   63.5350   74.5510 O   0  0  0  0  0  0  0  0  0  0  0  0
    0.5350   62.6710   75.6080 C   0  0  0  0  0  0  0  0  0  0  0  0
    3.5875   61.5439   70.4323 H   0  0  0  0  0  0  0  0  0  0  0  0
    1.9481   63.4105   69.1023 H   0  0  0  0  0  0  0  0  0  0  0  0
    0.6751   62.2655   69.4130 H   0  0  0  0  0  0  0  0  0  0  0  0
   -0.5739   64.3377   69.7365 H   0  0  0  0  0  0  0  0  0  0  0  0
   -0.0811   64.9391   72.3897 H   0  0  0  0  0  0  0  0  0  0  0  0
   -0.9160   63.4632   71.9927 H   0  0  0  0  0  0  0  0  0  0  0  0
    3.2241   62.0160   74.7286 H   0  0  0  0  0  0  0  0  0  0  0  0
    1.8860   65.7279   70.7247 H   0  0  0  0  0  0  0  0  0  0  0  0
    0.7724   67.9566   67.3439 H   0  0  0  0  0  0  0  0  0  0  0  0
    0.5369   69.2069   68.5970 H   0  0  0  0  0  0  0  0  0  0  0  0
    2.4752   68.3124   65.7798 H   0  0  0  0  0  0  0  0  0  0  0  0
    4.6348   69.3603   65.1119 H   0  0  0  0  0  0  0  0  0  0  0  0
    5.9259   70.7198   66.7567 H   0  0  0  0  0  0  0  0  0  0  0  0
    5.0611   71.0216   69.0754 H   0  0  0  0  0  0  0  0  0  0  0  0
    2.9006   69.9805   69.7483 H   0  0  0  0  0  0  0  0  0  0  0  0
    6.5116   60.7680   71.7302 H   0  0  0  0  0  0  0  0  0  0  0  0
    5.1408   59.9888   70.8697 H   0  0  0  0  0  0  0  0  0  0  0  0
    5.3007   61.7780   70.8697 H   0  0  0  0  0  0  0  0  0  0  0  0
    0.7545   63.1488   76.5742 H   0  0  0  0  0  0  0  0  0  0  0  0
   -0.5445   62.4729   75.5338 H   0  0  0  0  0  0  0  0  0  0  0  0
    1.0878   61.7229   75.5338 H   0  0  0  0  0  0  0  0  0  0  0  0
  2  1  2  0
  3  2  1  0
  4  3  1  0
  5  4  1  0
  6  5  1  0
  7  6  1  0
  7  3  2  0
  8  7  1  0
  9  8  2  0
  9  1  1  0
 10  5  1  0
 11 10  1  0
 12 11  2  0
 13 11  1  0
 14 13  1  0
 15 14  1  0
 16 15  2  0
 17 16  1  0
 18 17  2  0
 19 18  1  0
 20 15  1  0
 20 19  2  0
 22  1  1  0
 22 21  1  0
 23  8  1  0
 24 23  1  0
  2 25  1  0
  4 26  1  0
  4 27  1  0
  5 28  1  6
  6 29  1  0
  6 30  1  0
  9 31  1  0
 10 32  1  0
 14 33  1  0
 14 34  1  0
 16 35  1  0
 17 36  1  0
 18 37  1  0
 19 38  1  0
 20 39  1  0
 21 40  1  0
 21 41  1  0
 21 42  1  0
 24 43  1  0
 24 44  1  0
 24 45  1  0
M  END
>  <score>  (7) 
-8.367

$$$$
=
     RDKit          3D

 45 47  0  0  0  0  0  0  0  0999 V2000
    4.7860   68.0960   64.0790 C   0  0  0  0  0  0  0  0  0  0  0  0
    3.7750   68.8490   64.6870 C   0  0  0  0  0  0  0  0  0  0  0  0
    2.6150   68.2100   65.0820 C   0  0  0  0  0  0  0  0  0  0  0  0
    1.3980   68.8150   65.7140 C   0  0  0  0  0  0  0  0  0  0  0  0
    0.6900   67.5610   66.2760 C   0  0  1  0  0  0  0  0  0  0  0  0
    1.0860   66.3980   65.3410 C   0  0  0  0  0  0  0  0  0  0  0  0
    2.4430   66.8380   64.8690 C   0  0  0  0  0  0  0  0  0  0  0  0
    3.4250   66.0750   64.2560 C   0  0  0  0  0  0  0  0  0  0  0  0
    4.6080   66.7160   63.8670 C   0  0  0  0  0  0  0  0  0  0  0  0
    1.1070   67.2890   67.6500 N   0  0  0  0  0  0  0  0  0  0  0  0
    0.2450   66.8150   68.5900 C   0  0  0  0  0  0  0  0  0  0  0  0
   -0.8920   66.4230   68.3740 O   0  0  0  0  0  0  0  0  0  0  0  0
    0.8420   66.8650   69.8010 O   0  0  0  0  0  0  0  0  0  0  0  0
    0.1990   66.0590   70.7890 C   0  0  0  0  0  0  0  0  0  0  0  0
    0.9660   64.7680   70.9080 C   0  0  0  0  0  0  0  0  0  0  0  0
    2.3320   64.7200   70.5930 C   0  0  0  0  0  0  0  0  0  0  0  0
    3.0380   63.5190   70.6850 C   0  0  0  0  0  0  0  0  0  0  0  0
    2.3850   62.3540   71.0850 C   0  0  0  0  0  0  0  0  0  0  0  0
    1.0250   62.3870   71.3860 C   0  0  0  0  0  0  0  0  0  0  0  0
    0.3170   63.5860   71.2950 C   0  0  0  0  0  0  0  0  0  0  0  0
    5.8950   69.4400   62.4530 C   0  0  0  0  0  0  0  0  0  0  0  0
    5.8950   68.8240   63.7340 O   0  0  0  0  0  0  0  0  0  0  0  0
    3.1320   64.7510   64.0920 O   0  0  0  0  0  0  0  0  0  0  0  0
    4.1760   63.8190   64.3430 C   0  0  0  0  0  0  0  0  0  0  0  0
    3.9014   69.9299   64.8476 H   0  0  0  0  0  0  0  0  0  0  0  0
    1.6684   69.5176   66.5160 H   0  0  0  0  0  0  0  0  0  0  0  0
    0.7806   69.4081   65.0233 H   0  0  0  0  0  0  0  0  0  0  0  0
   -0.4006   67.7008   66.3076 H   0  0  0  0  0  0  0  0  0  0  0  0
    1.1407   65.4447   65.8872 H   0  0  0  0  0  0  0  0  0  0  0  0
    0.3680   66.2129   64.5284 H   0  0  0  0  0  0  0  0  0  0  0  0
    5.4090   66.1329   63.3892 H   0  0  0  0  0  0  0  0  0  0  0  0
    2.0869   67.4620   67.9159 H   0  0  0  0  0  0  0  0  0  0  0  0
    0.1985   66.5834   71.7560 H   0  0  0  0  0  0  0  0  0  0  0  0
   -0.8432   65.8589   70.4997 H   0  0  0  0  0  0  0  0  0  0  0  0
    2.8507   65.6351   70.2712 H   0  0  0  0  0  0  0  0  0  0  0  0
    4.1104   63.4920   70.4417 H   0  0  0  0  0  0  0  0  0  0  0  0
    2.9431   61.4093   71.1629 H   0  0  0  0  0  0  0  0  0  0  0  0
    0.5086   61.4665   71.6958 H   0  0  0  0  0  0  0  0  0  0  0  0
   -0.7578   63.6045   71.5284 H   0  0  0  0  0  0  0  0  0  0  0  0
    6.9321   69.5989   62.1226 H   0  0  0  0  0  0  0  0  0  0  0  0
    5.3765   68.7895   61.7333 H   0  0  0  0  0  0  0  0  0  0  0  0
    5.3765   70.4083   62.5118 H   0  0  0  0  0  0  0  0  0  0  0  0
    4.3087   63.7006   65.4285 H   0  0  0  0  0  0  0  0  0  0  0  0
    3.9154   62.8477   63.8973 H   0  0  0  0  0  0  0  0  0  0  0  0
    5.1117   64.1877   63.8973 H   0  0  0  0  0  0  0  0  0  0  0  0
  2  1  2  0
  3  2  1  0
  4  3  1  0
  5  4  1  0
  6  5  1  0
  7  6  1  0
  7  3  2  0
  8  7  1  0
  9  8  2  0
  9  1  1  0
 10  5  1  0
 11 10  1  0
 12 11  2  0
 13 11  1  0
 14 13  1  0
 15 14  1  0
 16 15  2  0
 17 16  1  0
 18 17  2  0
 19 18  1  0
 20 15  1  0
 20 19  2  0
 22  1  1  0
 22 21  1  0
 23  8  1  0
 24 23  1  0
  2 25  1  0
  4 26  1  0
  4 27  1  0
  5 28  1  1
  6 29  1  0
  6 30  1  0
  9 31  1  0
 10 32  1  0
 14 33  1  0
 14 34  1  0
 16 35  1  0
 17 36  1  0
 18 37  1  0
 19 38  1  0
 20 39  1  0
 21 40  1  0
 21 41  1  0
 21 42  1  0
 24 43  1  0
 24 44  1  0
 24 45  1  0
M  END
>  <score>  (8) 
-8.275

$$$$
=
     RDKit          3D

 45 47  0  0  0  0  0  0  0  0999 V2000
    2.1130   68.8610   65.7570 C   0  0  0  0  0  0  0  0  0  0  0  0
    2.4850   68.6430   67.0880 C   0  0  0  0  0  0  0  0  0  0  0  0
    1.5600   68.0920   67.9550 C   0  0  0  0  0  0  0  0  0  0  0  0
    1.7230   67.8060   69.4180 C   0  0  0  0  0  0  0  0  0  0  0  0
    0.5430   66.8410   69.6740 C   0  0  1  0  0  0  0  0  0  0  0  0
   -0.5510   67.2330   68.6580 C   0  0  0  0  0  0  0  0  0  0  0  0
    0.2710   67.7680   67.5200 C   0  0  0  0  0  0  0  0  0  0  0  0
   -0.1240   67.9880   66.2080 C   0  0  0  0  0  0  0  0  0  0  0  0
    0.8150   68.5330   65.3220 C   0  0  0  0  0  0  0  0  0  0  0  0
    0.9480   65.4490   69.4910 N   0  0  0  0  0  0  0  0  0  0  0  0
    0.9280   64.5460   70.5080 C   0  0  0  0  0  0  0  0  0  0  0  0
    0.4400   64.7360   71.6120 O   0  0  0  0  0  0  0  0  0  0  0  0
    1.5510   63.4160   70.1080 O   0  0  0  0  0  0  0  0  0  0  0  0
    1.4840   62.3570   71.0650 C   0  0  0  0  0  0  0  0  0  0  0  0
    2.8820   61.8440   71.2910 C   0  0  0  0  0  0  0  0  0  0  0  0
    3.0940   60.6100   71.9220 C   0  0  0  0  0  0  0  0  0  0  0  0
    4.3900   60.1440   72.1480 C   0  0  0  0  0  0  0  0  0  0  0  0
    5.4860   60.9090   71.7530 C   0  0  0  0  0  0  0  0  0  0  0  0
    5.2880   62.1440   71.1380 C   0  0  0  0  0  0  0  0  0  0  0  0
    3.9920   62.6120   70.9110 C   0  0  0  0  0  0  0  0  0  0  0  0
    4.4220   69.4020   65.5170 C   0  0  0  0  0  0  0  0  0  0  0  0
    3.1050   69.4020   64.9800 O   0  0  0  0  0  0  0  0  0  0  0  0
   -1.4110   67.6440   65.9100 O   0  0  0  0  0  0  0  0  0  0  0  0
   -2.3620   68.6980   65.8320 C   0  0  0  0  0  0  0  0  0  0  0  0
    3.4944   68.9051   67.4379 H   0  0  0  0  0  0  0  0  0  0  0  0
    2.6894   67.3245   69.6285 H   0  0  0  0  0  0  0  0  0  0  0  0
    1.7164   68.7029   70.0548 H   0  0  0  0  0  0  0  0  0  0  0  0
    0.1809   66.9221   70.7095 H   0  0  0  0  0  0  0  0  0  0  0  0
   -1.1435   66.3592   68.3491 H   0  0  0  0  0  0  0  0  0  0  0  0
   -1.2906   67.9467   69.0500 H   0  0  0  0  0  0  0  0  0  0  0  0
    0.5341   68.7068   64.2728 H   0  0  0  0  0  0  0  0  0  0  0  0
    1.2596   65.1407   68.5589 H   0  0  0  0  0  0  0  0  0  0  0  0
    1.0675   62.7343   72.0106 H   0  0  0  0  0  0  0  0  0  0  0  0
    0.8357   61.5488   70.6955 H   0  0  0  0  0  0  0  0  0  0  0  0
    2.2327   60.0048   72.2412 H   0  0  0  0  0  0  0  0  0  0  0  0
    4.5466   59.1719   72.6384 H   0  0  0  0  0  0  0  0  0  0  0  0
    6.5070   60.5382   71.9266 H   0  0  0  0  0  0  0  0  0  0  0  0
    6.1530   62.7503   70.8313 H   0  0  0  0  0  0  0  0  0  0  0  0
    3.8408   63.5900   70.4307 H   0  0  0  0  0  0  0  0  0  0  0  0
    4.7615   68.3649   65.6554 H   0  0  0  0  0  0  0  0  0  0  0  0
    5.1006   69.9205   64.8238 H   0  0  0  0  0  0  0  0  0  0  0  0
    4.4224   69.9205   66.4871 H   0  0  0  0  0  0  0  0  0  0  0  0
   -2.6454   69.0121   66.8474 H   0  0  0  0  0  0  0  0  0  0  0  0
   -1.9214   69.5504   65.2941 H   0  0  0  0  0  0  0  0  0  0  0  0
   -3.2550   68.3470   65.2941 H   0  0  0  0  0  0  0  0  0  0  0  0
  2  1  2  0
  3  2  1  0
  4  3  1  0
  5  4  1  0
  6  5  1  0
  7  6  1  0
  7  3  2  0
  8  7  1  0
  9  8  2  0
  9  1  1  0
 10  5  1  0
 11 10  1  0
 12 11  2  0
 13 11  1  0
 14 13  1  0
 15 14  1  0
 16 15  2  0
 17 16  1  0
 18 17  2  0
 19 18  1  0
 20 15  1  0
 20 19  2  0
 22  1  1  0
 22 21  1  0
 23  8  1  0
 24 23  1  0
  2 25  1  0
  4 26  1  0
  4 27  1  0
  5 28  1  1
  6 29  1  0
  6 30  1  0
  9 31  1  0
 10 32  1  0
 14 33  1  0
 14 34  1  0
 16 35  1  0
 17 36  1  0
 18 37  1  0
 19 38  1  0
 20 39  1  0
 21 40  1  0
 21 41  1  0
 21 42  1  0
 24 43  1  0
 24 44  1  0
 24 45  1  0
M  END
>  <score>  (9) 
-8.085

$$$$
