=
     RDKit          3D

 28 30  0  0  0  0  0  0  0  0999 V2000
    3.3790   68.7070   64.6060 Br  0  0  0  0  0  0  0  0  0  0  0  0
    3.3760   69.3560   66.4070 C   0  0  0  0  0  0  0  0  0  0  0  0
    2.1710   69.3040   67.1360 C   0  0  0  0  0  0  0  0  0  0  0  0
    2.1500   69.8100   68.4290 C   0  0  0  0  0  0  0  0  0  0  0  0
    3.3250   70.3060   68.9960 C   0  0  0  0  0  0  0  0  0  0  0  0
    4.5230   70.3270   68.2960 C   0  0  0  0  0  0  0  0  0  0  0  0
    4.5650   69.8510   66.9640 C   0  0  0  0  0  0  0  0  0  0  0  0
    5.7290   69.8810   66.2720 N   0  0  0  0  0  0  0  0  0  0  0  0
    6.8170   70.3770   66.9030 C   0  0  0  0  0  0  0  0  0  0  0  0
    6.7580   70.8360   68.2000 C   0  0  0  0  0  0  0  0  0  0  0  0
    5.6120   70.8160   68.9120 N   0  0  0  0  0  0  0  0  0  0  0  0
    0.9970   68.8040   66.4920 N   0  0  0  0  0  0  0  0  0  0  0  0
    0.0520   68.0210   67.0300 C   0  0  0  0  0  0  0  0  0  0  0  0
    0.1600   67.3060   68.1870 N   0  0  0  0  0  4  0  0  0  0  0  0
   -1.0800   66.5590   68.4100 C   0  0  0  0  0  0  0  0  0  0  0  0
   -1.9650   66.9090   67.2050 C   0  0  0  0  0  0  0  0  0  0  0  0
   -1.1490   67.8280   66.4070 N   0  0  0  0  0  0  0  0  0  0  0  0
    1.2120   69.8199   69.0035 H   0  0  0  0  0  0  0  0  0  0  0  0
    3.3007   70.6909   70.0262 H   0  0  0  0  0  0  0  0  0  0  0  0
    7.7759   70.4150   66.3654 H   0  0  0  0  0  0  0  0  0  0  0  0
    7.6715   71.2303   68.6691 H   0  0  0  0  0  0  0  0  0  0  0  0
    0.8628   69.0750   65.5074 H   0  0  0  0  0  0  0  0  0  0  0  0
    0.9833   67.2935   68.8058 H   0  0  0  0  0  0  0  0  0  0  0  0
   -0.8811   65.4777   68.4447 H   0  0  0  0  0  0  0  0  0  0  0  0
   -1.5567   66.8180   69.3669 H   0  0  0  0  0  0  0  0  0  0  0  0
   -2.2110   66.0057   66.6275 H   0  0  0  0  0  0  0  0  0  0  0  0
   -2.9249   67.3543   67.5055 H   0  0  0  0  0  0  0  0  0  0  0  0
   -1.4354   68.2603   65.5170 H   0  0  0  0  0  0  0  0  0  0  0  0
  2  1  1  0
  3  2  2  0
  4  3  1  0
  5  4  2  0
  6  5  1  0
  7  6  2  0
  7  2  1  0
  8  7  1  0
  9  8  2  0
 10  9  1  0
 11  6  1  0
 11 10  2  0
 12  3  1  0
 13 12  1  0
 14 13  2  0
 15 14  1  0
 16 15  1  0
 17 16  1  0
 17 13  1  0
  4 18  1  0
  5 19  1  0
  9 20  1  0
 10 21  1  0
 12 22  1  0
 14 23  1  0
 15 24  1  0
 15 25  1  0
 16 26  1  0
 16 27  1  0
 17 28  1  0
M  CHG  1  14   1
M  END
>  <score>  (1) 
-8.571

$$$$
=
     RDKit          3D

 28 30  0  0  0  0  0  0  0  0999 V2000
    5.1270   69.4720   64.3600 Br  0  0  0  0  0  0  0  0  0  0  0  0
    3.8040   69.3490   65.7390 C   0  0  0  0  0  0  0  0  0  0  0  0
    2.5620   68.7640   65.4240 C   0  0  0  0  0  0  0  0  0  0  0  0
    1.5820   68.7080   66.4080 C   0  0  0  0  0  0  0  0  0  0  0  0
    1.8640   69.1790   67.6910 C   0  0  0  0  0  0  0  0  0  0  0  0
    3.0980   69.7240   68.0160 C   0  0  0  0  0  0  0  0  0  0  0  0
    4.1020   69.8260   67.0250 C   0  0  0  0  0  0  0  0  0  0  0  0
    5.3040   70.3680   67.3340 N   0  0  0  0  0  0  0  0  0  0  0  0
    5.4870   70.7950   68.6030 C   0  0  0  0  0  0  0  0  0  0  0  0
    4.5000   70.6880   69.5560 C   0  0  0  0  0  0  0  0  0  0  0  0
    3.2930   70.1500   69.2750 N   0  0  0  0  0  0  0  0  0  0  0  0
    2.3270   68.3200   64.0860 N   0  0  0  0  0  0  0  0  0  0  0  0
    1.4450   68.8200   63.2120 C   0  0  0  0  0  0  0  0  0  0  0  0
    0.3980   69.6440   63.5060 N   0  0  0  0  0  4  0  0  0  0  0  0
   -0.3420   69.9410   62.2770 C   0  0  0  0  0  0  0  0  0  0  0  0
    0.3980   69.1590   61.1820 C   0  0  0  0  0  0  0  0  0  0  0  0
    1.4960   68.4930   61.8860 N   0  0  0  0  0  0  0  0  0  0  0  0
    0.5893   68.2946   66.1767 H   0  0  0  0  0  0  0  0  0  0  0  0
    1.0863   69.1165   68.4664 H   0  0  0  0  0  0  0  0  0  0  0  0
    6.4529   71.2411   68.8823 H   0  0  0  0  0  0  0  0  0  0  0  0
    4.6994   71.0507   70.5752 H   0  0  0  0  0  0  0  0  0  0  0  0
    2.8990   67.5286   63.7583 H   0  0  0  0  0  0  0  0  0  0  0  0
    0.1648   70.0008   64.4437 H   0  0  0  0  0  0  0  0  0  0  0  0
   -1.3849   69.6012   62.3597 H   0  0  0  0  0  0  0  0  0  0  0  0
   -0.3831   71.0195   62.0646 H   0  0  0  0  0  0  0  0  0  0  0  0
   -0.2688   68.4199   60.7138 H   0  0  0  0  0  0  0  0  0  0  0  0
    0.7552   69.8108   60.3711 H   0  0  0  0  0  0  0  0  0  0  0  0
    2.1961   67.8756   61.4506 H   0  0  0  0  0  0  0  0  0  0  0  0
  2  1  1  0
  3  2  2  0
  4  3  1  0
  5  4  2  0
  6  5  1  0
  7  6  2  0
  7  2  1  0
  8  7  1  0
  9  8  2  0
 10  9  1  0
 11  6  1  0
 11 10  2  0
 12  3  1  0
 13 12  1  0
 14 13  2  0
 15 14  1  0
 16 15  1  0
 17 16  1  0
 17 13  1  0
  4 18  1  0
  5 19  1  0
  9 20  1  0
 10 21  1  0
 12 22  1  0
 14 23  1  0
 15 24  1  0
 15 25  1  0
 16 26  1  0
 16 27  1  0
 17 28  1  0
M  CHG  1  14   1
M  END
>  <score>  (2) 
-8.105

$$$$
=
     RDKit          3D

 28 30  0  0  0  0  0  0  0  0999 V2000
    0.4070   68.7170   62.3970 Br  0  0  0  0  0  0  0  0  0  0  0  0
    1.6890   68.7940   63.8170 C   0  0  0  0  0  0  0  0  0  0  0  0
    1.2160   68.8190   65.1440 C   0  0  0  0  0  0  0  0  0  0  0  0
    2.1380   68.9160   66.1800 C   0  0  0  0  0  0  0  0  0  0  0  0
    3.5030   68.9330   65.8890 C   0  0  0  0  0  0  0  0  0  0  0  0
    3.9750   68.8720   64.5860 C   0  0  0  0  0  0  0  0  0  0  0  0
    3.0580   68.8090   63.5100 C   0  0  0  0  0  0  0  0  0  0  0  0
    3.5130   68.7620   62.2360 N   0  0  0  0  0  0  0  0  0  0  0  0
    4.8520   68.7800   62.0510 C   0  0  0  0  0  0  0  0  0  0  0  0
    5.7310   68.8420   63.1090 C   0  0  0  0  0  0  0  0  0  0  0  0
    5.3040   68.8880   64.3890 N   0  0  0  0  0  0  0  0  0  0  0  0
   -0.1940   68.8210   65.3750 N   0  0  0  0  0  0  0  0  0  0  0  0
   -0.8610   68.1350   66.3130 C   0  0  0  0  0  0  0  0  0  0  0  0
   -0.3800   67.0820   67.0360 N   0  0  0  0  0  4  0  0  0  0  0  0
   -1.4290   66.5950   67.9340 C   0  0  0  0  0  0  0  0  0  0  0  0
   -2.6370   67.4970   67.6430 C   0  0  0  0  0  0  0  0  0  0  0  0
   -2.1640   68.4200   66.6090 N   0  0  0  0  0  0  0  0  0  0  0  0
    1.7938   68.9790   67.2229 H   0  0  0  0  0  0  0  0  0  0  0  0
    4.2250   68.9966   66.7164 H   0  0  0  0  0  0  0  0  0  0  0  0
    5.2505   68.7441   61.0264 H   0  0  0  0  0  0  0  0  0  0  0  0
    6.8120   68.8544   62.9056 H   0  0  0  0  0  0  0  0  0  0  0  0
   -0.7598   69.4150   64.7521 H   0  0  0  0  0  0  0  0  0  0  0  0
    0.5703   66.6918   66.9617 H   0  0  0  0  0  0  0  0  0  0  0  0
   -1.6684   65.5434   67.7174 H   0  0  0  0  0  0  0  0  0  0  0  0
   -1.1247   66.6330   68.9904 H   0  0  0  0  0  0  0  0  0  0  0  0
   -3.4864   66.9028   67.2749 H   0  0  0  0  0  0  0  0  0  0  0  0
   -2.9934   68.0221   68.5415 H   0  0  0  0  0  0  0  0  0  0  0  0
   -2.7250   69.1661   66.1737 H   0  0  0  0  0  0  0  0  0  0  0  0
  2  1  1  0
  3  2  2  0
  4  3  1  0
  5  4  2  0
  6  5  1  0
  7  6  2  0
  7  2  1  0
  8  7  1  0
  9  8  2  0
 10  9  1  0
 11  6  1  0
 11 10  2  0
 12  3  1  0
 13 12  1  0
 14 13  2  0
 15 14  1  0
 16 15  1  0
 17 16  1  0
 17 13  1  0
  4 18  1  0
  5 19  1  0
  9 20  1  0
 10 21  1  0
 12 22  1  0
 14 23  1  0
 15 24  1  0
 15 25  1  0
 16 26  1  0
 16 27  1  0
 17 28  1  0
M  CHG  1  14   1
M  END
>  <score>  (3) 
-7.875

$$$$
=
     RDKit          3D

 28 30  0  0  0  0  0  0  0  0999 V2000
    4.9590   69.1780   62.8090 Br  0  0  0  0  0  0  0  0  0  0  0  0
    3.5680   69.0450   64.1190 C   0  0  0  0  0  0  0  0  0  0  0  0
    3.9140   69.1750   65.4780 C   0  0  0  0  0  0  0  0  0  0  0  0
    2.9180   69.0390   66.4370 C   0  0  0  0  0  0  0  0  0  0  0  0
    1.5970   68.8320   66.0350 C   0  0  0  0  0  0  0  0  0  0  0  0
    1.2450   68.7390   64.6960 C   0  0  0  0  0  0  0  0  0  0  0  0
    2.2450   68.8390   63.7000 C   0  0  0  0  0  0  0  0  0  0  0  0
    1.9080   68.7360   62.3930 N   0  0  0  0  0  0  0  0  0  0  0  0
    0.6040   68.5390   62.0980 C   0  0  0  0  0  0  0  0  0  0  0  0
   -0.3570   68.4450   63.0800 C   0  0  0  0  0  0  0  0  0  0  0  0
   -0.0490   68.5440   64.3910 N   0  0  0  0  0  0  0  0  0  0  0  0
    5.2870   69.3650   65.8260 N   0  0  0  0  0  0  0  0  0  0  0  0
    5.7690   70.0170   66.8920 C   0  0  0  0  0  0  0  0  0  0  0  0
    5.0730   70.8770   67.6920 N   0  0  0  0  0  4  0  0  0  0  0  0
    5.9660   71.4010   68.7280 C   0  0  0  0  0  0  0  0  0  0  0  0
    7.3240   70.7470   68.4350 C   0  0  0  0  0  0  0  0  0  0  0  0
    7.0800   69.9050   67.2610 N   0  0  0  0  0  0  0  0  0  0  0  0
    3.1686   69.0941   67.5066 H   0  0  0  0  0  0  0  0  0  0  0  0
    0.8132   68.7401   66.8013 H   0  0  0  0  0  0  0  0  0  0  0  0
    0.3017   68.4513   61.0440 H   0  0  0  0  0  0  0  0  0  0  0  0
   -1.4054   68.2847   62.7881 H   0  0  0  0  0  0  0  0  0  0  0  0
    5.9827   68.9553   65.1864 H   0  0  0  0  0  0  0  0  0  0  0  0
    4.0777   71.1190   67.5841 H   0  0  0  0  0  0  0  0  0  0  0  0
    6.0396   72.4964   68.6597 H   0  0  0  0  0  0  0  0  0  0  0  0
    5.6050   71.1768   69.7426 H   0  0  0  0  0  0  0  0  0  0  0  0
    8.0840   71.5110   68.2143 H   0  0  0  0  0  0  0  0  0  0  0  0
    7.7042   70.1707   69.2914 H   0  0  0  0  0  0  0  0  0  0  0  0
    7.7849   69.3212   66.7887 H   0  0  0  0  0  0  0  0  0  0  0  0
  2  1  1  0
  3  2  2  0
  4  3  1  0
  5  4  2  0
  6  5  1  0
  7  6  2  0
  7  2  1  0
  8  7  1  0
  9  8  2  0
 10  9  1  0
 11  6  1  0
 11 10  2  0
 12  3  1  0
 13 12  1  0
 14 13  2  0
 15 14  1  0
 16 15  1  0
 17 16  1  0
 17 13  1  0
  4 18  1  0
  5 19  1  0
  9 20  1  0
 10 21  1  0
 12 22  1  0
 14 23  1  0
 15 24  1  0
 15 25  1  0
 16 26  1  0
 16 27  1  0
 17 28  1  0
M  CHG  1  14   1
M  END
>  <score>  (4) 
-7.591

$$$$
=
     RDKit          3D

 28 30  0  0  0  0  0  0  0  0999 V2000
    0.3960   69.4020   63.0650 Br  0  0  0  0  0  0  0  0  0  0  0  0
    0.5320   68.7920   64.8750 C   0  0  0  0  0  0  0  0  0  0  0  0
    1.8150   68.6590   65.4420 C   0  0  0  0  0  0  0  0  0  0  0  0
    1.9260   68.1790   66.7410 C   0  0  0  0  0  0  0  0  0  0  0  0
    0.7710   67.8910   67.4710 C   0  0  0  0  0  0  0  0  0  0  0  0
   -0.4970   68.0550   66.9300 C   0  0  0  0  0  0  0  0  0  0  0  0
   -0.6370   68.5090   65.5970 C   0  0  0  0  0  0  0  0  0  0  0  0
   -1.8720   68.6580   65.0610 N   0  0  0  0  0  0  0  0  0  0  0  0
   -2.9320   68.3580   65.8440 C   0  0  0  0  0  0  0  0  0  0  0  0
   -2.7770   67.9180   67.1390 C   0  0  0  0  0  0  0  0  0  0  0  0
   -1.5580   67.7610   67.6990 N   0  0  0  0  0  0  0  0  0  0  0  0
    2.9590   68.9490   64.6350 N   0  0  0  0  0  0  0  0  0  0  0  0
    3.6300   68.0980   63.8480 C   0  0  0  0  0  0  0  0  0  0  0  0
    3.5480   66.7360   63.8800 N   0  0  0  0  0  4  0  0  0  0  0  0
    4.4600   66.1750   62.8800 C   0  0  0  0  0  0  0  0  0  0  0  0
    5.1300   67.3980   62.2370 C   0  0  0  0  0  0  0  0  0  0  0  0
    4.5340   68.5460   62.9260 N   0  0  0  0  0  0  0  0  0  0  0  0
    2.9178   68.0267   67.1917 H   0  0  0  0  0  0  0  0  0  0  0  0
    0.8685   67.5240   68.5034 H   0  0  0  0  0  0  0  0  0  0  0  0
   -3.9471   68.4686   65.4349 H   0  0  0  0  0  0  0  0  0  0  0  0
   -3.6722   67.6875   67.7353 H   0  0  0  0  0  0  0  0  0  0  0  0
    3.3051   69.9187   64.6618 H   0  0  0  0  0  0  0  0  0  0  0  0
    2.9412   66.1893   64.5076 H   0  0  0  0  0  0  0  0  0  0  0  0
    5.2101   65.5280   63.3582 H   0  0  0  0  0  0  0  0  0  0  0  0
    3.9361   65.5502   62.1417 H   0  0  0  0  0  0  0  0  0  0  0  0
    6.2185   67.3725   62.3936 H   0  0  0  0  0  0  0  0  0  0  0  0
    4.9753   67.4363   61.1486 H   0  0  0  0  0  0  0  0  0  0  0  0
    4.7606   69.5342   62.7442 H   0  0  0  0  0  0  0  0  0  0  0  0
  2  1  1  0
  3  2  2  0
  4  3  1  0
  5  4  2  0
  6  5  1  0
  7  6  2  0
  7  2  1  0
  8  7  1  0
  9  8  2  0
 10  9  1  0
 11  6  1  0
 11 10  2  0
 12  3  1  0
 13 12  1  0
 14 13  2  0
 15 14  1  0
 16 15  1  0
 17 16  1  0
 17 13  1  0
  4 18  1  0
  5 19  1  0
  9 20  1  0
 10 21  1  0
 12 22  1  0
 14 23  1  0
 15 24  1  0
 15 25  1  0
 16 26  1  0
 16 27  1  0
 17 28  1  0
M  CHG  1  14   1
M  END
>  <score>  (5) 
-7.286

$$$$
=
     RDKit          3D

 28 30  0  0  0  0  0  0  0  0999 V2000
    0.9160   69.3000   63.6620 Br  0  0  0  0  0  0  0  0  0  0  0  0
    0.5780   68.7330   65.4600 C   0  0  0  0  0  0  0  0  0  0  0  0
    1.6760   68.5620   66.3250 C   0  0  0  0  0  0  0  0  0  0  0  0
    1.4430   68.1110   67.6190 C   0  0  0  0  0  0  0  0  0  0  0  0
    0.1330   67.8920   68.0480 C   0  0  0  0  0  0  0  0  0  0  0  0
   -0.9550   68.0950   67.2110 C   0  0  0  0  0  0  0  0  0  0  0  0
   -0.7440   68.5180   65.8770 C   0  0  0  0  0  0  0  0  0  0  0  0
   -1.8020   68.7050   65.0530 N   0  0  0  0  0  0  0  0  0  0  0  0
   -3.0340   68.4710   65.5570 C   0  0  0  0  0  0  0  0  0  0  0  0
   -3.2220   68.0590   66.8570 C   0  0  0  0  0  0  0  0  0  0  0  0
   -2.1850   67.8670   67.7000 N   0  0  0  0  0  0  0  0  0  0  0  0
    2.9950   68.7820   65.8200 N   0  0  0  0  0  0  0  0  0  0  0  0
    4.0120   69.3840   66.4490 C   0  0  0  0  0  0  0  0  0  0  0  0
    3.9200   70.1640   67.5660 N   0  0  0  0  0  4  0  0  0  0  0  0
    5.2530   70.6550   67.9210 C   0  0  0  0  0  0  0  0  0  0  0  0
    6.1800   70.0740   66.8440 C   0  0  0  0  0  0  0  0  0  0  0  0
    5.2910   69.2980   65.9750 N   0  0  0  0  0  0  0  0  0  0  0  0
    2.2863   67.9277   68.3011 H   0  0  0  0  0  0  0  0  0  0  0  0
   -0.0418   67.5489   69.0784 H   0  0  0  0  0  0  0  0  0  0  0  0
   -3.9119   68.6139   64.9097 H   0  0  0  0  0  0  0  0  0  0  0  0
   -4.2454   67.8813   67.2190 H   0  0  0  0  0  0  0  0  0  0  0  0
    3.1838   68.4396   64.8671 H   0  0  0  0  0  0  0  0  0  0  0  0
    3.0510   70.3737   68.0776 H   0  0  0  0  0  0  0  0  0  0  0  0
    5.2790   71.7546   67.9036 H   0  0  0  0  0  0  0  0  0  0  0  0
    5.5520   70.3529   68.9356 H   0  0  0  0  0  0  0  0  0  0  0  0
    6.6713   70.8793   66.2781 H   0  0  0  0  0  0  0  0  0  0  0  0
    6.9864   69.4607   67.2725 H   0  0  0  0  0  0  0  0  0  0  0  0
    5.5836   68.7714   65.1396 H   0  0  0  0  0  0  0  0  0  0  0  0
  2  1  1  0
  3  2  2  0
  4  3  1  0
  5  4  2  0
  6  5  1  0
  7  6  2  0
  7  2  1  0
  8  7  1  0
  9  8  2  0
 10  9  1  0
 11  6  1  0
 11 10  2  0
 12  3  1  0
 13 12  1  0
 14 13  2  0
 15 14  1  0
 16 15  1  0
 17 16  1  0
 17 13  1  0
  4 18  1  0
  5 19  1  0
  9 20  1  0
 10 21  1  0
 12 22  1  0
 14 23  1  0
 15 24  1  0
 15 25  1  0
 16 26  1  0
 16 27  1  0
 17 28  1  0
M  CHG  1  14   1
M  END
>  <score>  (6) 
-7.169

$$$$
=
     RDKit          3D

 28 30  0  0  0  0  0  0  0  0999 V2000
    0.7560   69.1680   67.4140 Br  0  0  0  0  0  0  0  0  0  0  0  0
    1.8870   69.0850   65.8710 C   0  0  0  0  0  0  0  0  0  0  0  0
    3.2750   69.2530   66.0480 C   0  0  0  0  0  0  0  0  0  0  0  0
    4.0980   69.2350   64.9290 C   0  0  0  0  0  0  0  0  0  0  0  0
    3.5450   69.0000   63.6690 C   0  0  0  0  0  0  0  0  0  0  0  0
    2.1840   68.7990   63.4930 C   0  0  0  0  0  0  0  0  0  0  0  0
    1.3180   68.8470   64.6110 C   0  0  0  0  0  0  0  0  0  0  0  0
   -0.0130   68.6640   64.4430 N   0  0  0  0  0  0  0  0  0  0  0  0
   -0.4580   68.4400   63.1860 C   0  0  0  0  0  0  0  0  0  0  0  0
    0.3990   68.3960   62.1090 C   0  0  0  0  0  0  0  0  0  0  0  0
    1.7300   68.5740   62.2490 N   0  0  0  0  0  0  0  0  0  0  0  0
    3.7770   69.5110   67.3620 N   0  0  0  0  0  0  0  0  0  0  0  0
    4.9660   70.0370   67.6830 C   0  0  0  0  0  0  0  0  0  0  0  0
    6.0450   70.1560   66.8560 N   0  0  0  0  0  4  0  0  0  0  0  0
    7.1560   70.7570   67.5970 C   0  0  0  0  0  0  0  0  0  0  0  0
    6.6050   70.9740   69.0130 C   0  0  0  0  0  0  0  0  0  0  0  0
    5.2260   70.4830   68.9490 N   0  0  0  0  0  0  0  0  0  0  0  0
    5.1796   69.4050   65.0352 H   0  0  0  0  0  0  0  0  0  0  0  0
    4.2072   68.9735   62.7911 H   0  0  0  0  0  0  0  0  0  0  0  0
   -1.5347   68.2887   63.0190 H   0  0  0  0  0  0  0  0  0  0  0  0
   -0.0126   68.2105   61.1059 H   0  0  0  0  0  0  0  0  0  0  0  0
    3.1567   69.2656   68.1468 H   0  0  0  0  0  0  0  0  0  0  0  0
    6.0735   69.8686   65.8673 H   0  0  0  0  0  0  0  0  0  0  0  0
    8.0215   70.0785   67.6169 H   0  0  0  0  0  0  0  0  0  0  0  0
    7.5056   71.6933   67.1375 H   0  0  0  0  0  0  0  0  0  0  0  0
    7.1880   70.4011   69.7491 H   0  0  0  0  0  0  0  0  0  0  0  0
    6.6601   72.0269   69.3266 H   0  0  0  0  0  0  0  0  0  0  0  0
    4.5584   70.4751   69.7333 H   0  0  0  0  0  0  0  0  0  0  0  0
  2  1  1  0
  3  2  2  0
  4  3  1  0
  5  4  2  0
  6  5  1  0
  7  6  2  0
  7  2  1  0
  8  7  1  0
  9  8  2  0
 10  9  1  0
 11  6  1  0
 11 10  2  0
 12  3  1  0
 13 12  1  0
 14 13  2  0
 15 14  1  0
 16 15  1  0
 17 16  1  0
 17 13  1  0
  4 18  1  0
  5 19  1  0
  9 20  1  0
 10 21  1  0
 12 22  1  0
 14 23  1  0
 15 24  1  0
 15 25  1  0
 16 26  1  0
 16 27  1  0
 17 28  1  0
M  CHG  1  14   1
M  END
>  <score>  (7) 
-7.058

$$$$
=
     RDKit          3D

 28 30  0  0  0  0  0  0  0  0999 V2000
   -2.1650   67.2990   67.2630 Br  0  0  0  0  0  0  0  0  0  0  0  0
   -0.3210   67.7730   67.0680 C   0  0  0  0  0  0  0  0  0  0  0  0
    0.5260   67.6420   68.1860 C   0  0  0  0  0  0  0  0  0  0  0  0
    1.8570   68.0220   68.0650 C   0  0  0  0  0  0  0  0  0  0  0  0
    2.3370   68.4720   66.8330 C   0  0  0  0  0  0  0  0  0  0  0  0
    1.5160   68.5690   65.7180 C   0  0  0  0  0  0  0  0  0  0  0  0
    0.1480   68.2220   65.8230 C   0  0  0  0  0  0  0  0  0  0  0  0
   -0.6600   68.3270   64.7420 N   0  0  0  0  0  0  0  0  0  0  0  0
   -0.1070   68.7690   63.5910 C   0  0  0  0  0  0  0  0  0  0  0  0
    1.2260   69.1020   63.5060 C   0  0  0  0  0  0  0  0  0  0  0  0
    2.0540   69.0060   64.5680 N   0  0  0  0  0  0  0  0  0  0  0  0
   -0.0300   67.1950   69.4250 N   0  0  0  0  0  0  0  0  0  0  0  0
    0.3480   66.1320   70.1440 C   0  0  0  0  0  0  0  0  0  0  0  0
    1.1270   65.0990   69.7070 N   0  0  0  0  0  4  0  0  0  0  0  0
    1.2850   64.1240   70.7890 C   0  0  0  0  0  0  0  0  0  0  0  0
    0.4710   64.7030   71.9550 C   0  0  0  0  0  0  0  0  0  0  0  0
   -0.0730   65.9590   71.4330 N   0  0  0  0  0  0  0  0  0  0  0  0
    2.5288   67.9687   68.9344 H   0  0  0  0  0  0  0  0  0  0  0  0
    3.3955   68.7576   66.7438 H   0  0  0  0  0  0  0  0  0  0  0  0
   -0.7400   68.8655   62.6966 H   0  0  0  0  0  0  0  0  0  0  0  0
    1.6280   69.4564   62.5454 H   0  0  0  0  0  0  0  0  0  0  0  0
   -0.8074   67.7530   69.8061 H   0  0  0  0  0  0  0  0  0  0  0  0
    1.5382   65.0182   68.7661 H   0  0  0  0  0  0  0  0  0  0  0  0
    0.8887   63.1429   70.4884 H   0  0  0  0  0  0  0  0  0  0  0  0
    2.3402   63.9647   71.0558 H   0  0  0  0  0  0  0  0  0  0  0  0
   -0.3399   64.0172   72.2417 H   0  0  0  0  0  0  0  0  0  0  0  0
    1.0814   64.8541   72.8575 H   0  0  0  0  0  0  0  0  0  0  0  0
   -0.6775   66.6094   71.9550 H   0  0  0  0  0  0  0  0  0  0  0  0
  2  1  1  0
  3  2  2  0
  4  3  1  0
  5  4  2  0
  6  5  1  0
  7  6  2  0
  7  2  1  0
  8  7  1  0
  9  8  2  0
 10  9  1  0
 11  6  1  0
 11 10  2  0
 12  3  1  0
 13 12  1  0
 14 13  2  0
 15 14  1  0
 16 15  1  0
 17 16  1  0
 17 13  1  0
  4 18  1  0
  5 19  1  0
  9 20  1  0
 10 21  1  0
 12 22  1  0
 14 23  1  0
 15 24  1  0
 15 25  1  0
 16 26  1  0
 16 27  1  0
 17 28  1  0
M  CHG  1  14   1
M  END
>  <score>  (8) 
-6.993

$$$$
=
     RDKit          3D

 28 30  0  0  0  0  0  0  0  0999 V2000
    2.6630   60.6810   74.2330 Br  0  0  0  0  0  0  0  0  0  0  0  0
    2.9890   60.2800   72.3890 C   0  0  0  0  0  0  0  0  0  0  0  0
    3.1630   58.9330   72.0180 C   0  0  0  0  0  0  0  0  0  0  0  0
    3.4410   58.6360   70.6890 C   0  0  0  0  0  0  0  0  0  0  0  0
    3.4870   59.6660   69.7470 C   0  0  0  0  0  0  0  0  0  0  0  0
    3.2790   60.9920   70.1010 C   0  0  0  0  0  0  0  0  0  0  0  0
    3.0310   61.3250   71.4540 C   0  0  0  0  0  0  0  0  0  0  0  0
    2.8400   62.6190   71.8060 N   0  0  0  0  0  0  0  0  0  0  0  0
    2.9000   63.5480   70.8260 C   0  0  0  0  0  0  0  0  0  0  0  0
    3.1430   63.2060   69.5150 C   0  0  0  0  0  0  0  0  0  0  0  0
    3.3350   61.9240   69.1360 N   0  0  0  0  0  0  0  0  0  0  0  0
    3.1260   57.9270   73.0320 N   0  0  0  0  0  0  0  0  0  0  0  0
    2.0850   57.1530   73.3660 C   0  0  0  0  0  0  0  0  0  0  0  0
    0.7810   57.3630   73.0190 N   0  0  0  0  0  4  0  0  0  0  0  0
   -0.0490   56.3080   73.6040 C   0  0  0  0  0  0  0  0  0  0  0  0
    0.9380   55.4230   74.3790 C   0  0  0  0  0  0  0  0  0  0  0  0
    2.2430   56.0520   74.1600 N   0  0  0  0  0  0  0  0  0  0  0  0
    3.6237   57.5959   70.3810 H   0  0  0  0  0  0  0  0  0  0  0  0
    3.6938   59.4196   68.6951 H   0  0  0  0  0  0  0  0  0  0  0  0
    2.7505   64.6070   71.0833 H   0  0  0  0  0  0  0  0  0  0  0  0
    3.1819   63.9996   68.7542 H   0  0  0  0  0  0  0  0  0  0  0  0
    3.9954   57.7809   73.5647 H   0  0  0  0  0  0  0  0  0  0  0  0
    0.4360   58.1403   72.4379 H   0  0  0  0  0  0  0  0  0  0  0  0
   -0.8011   56.7370   74.2825 H   0  0  0  0  0  0  0  0  0  0  0  0
   -0.6048   55.7434   72.8409 H   0  0  0  0  0  0  0  0  0  0  0  0
    0.6884   55.4077   75.4502 H   0  0  0  0  0  0  0  0  0  0  0  0
    0.9158   54.3763   74.0416 H   0  0  0  0  0  0  0  0  0  0  0  0
    3.1382   55.7172   74.5439 H   0  0  0  0  0  0  0  0  0  0  0  0
  2  1  1  0
  3  2  2  0
  4  3  1  0
  5  4  2  0
  6  5  1  0
  7  6  2  0
  7  2  1  0
  8  7  1  0
  9  8  2  0
 10  9  1  0
 11  6  1  0
 11 10  2  0
 12  3  1  0
 13 12  1  0
 14 13  2  0
 15 14  1  0
 16 15  1  0
 17 16  1  0
 17 13  1  0
  4 18  1  0
  5 19  1  0
  9 20  1  0
 10 21  1  0
 12 22  1  0
 14 23  1  0
 15 24  1  0
 15 25  1  0
 16 26  1  0
 16 27  1  0
 17 28  1  0
M  CHG  1  14   1
M  END
>  <score>  (9) 
-6.835

$$$$
