=
     RDKit          3D

 64 68  0  0  0  0  0  0  0  0999 V2000
    0.5030   66.4020   69.5370 C   0  0  0  0  0  0  0  0  0  0  0  0
    1.5390   66.9450   68.7680 C   0  0  0  0  0  0  0  0  0  0  0  0
    1.2790   67.5680   67.5390 C   0  0  0  0  0  0  0  0  0  0  0  0
   -0.0540   67.6410   67.1000 C   0  0  0  0  0  0  0  0  0  0  0  0
   -1.0470   67.0890   67.8910 C   0  0  0  0  0  0  0  0  0  0  0  0
   -0.8270   66.4640   69.1150 C   0  0  0  0  0  0  0  0  0  0  0  0
   -2.2520   67.2660   67.2880 O   0  0  0  0  0  0  0  0  0  0  0  0
   -2.0780   67.9470   66.0930 N   0  0  0  0  0  0  0  0  0  0  0  0
   -0.7610   68.1730   65.9920 C   0  0  0  0  0  0  0  0  0  0  0  0
    0.8060   65.8540   70.8130 N   0  0  0  0  0  0  0  0  0  0  0  0
   -0.1770   63.6780   69.8790 O   0  0  0  0  0  0  0  0  0  0  0  0
    0.4890   64.2060   71.0510 S   0  0  0  0  0  6  0  0  0  0  0  0
   -0.1140   64.1040   72.3640 O   0  0  0  0  0  0  0  0  0  0  0  0
    2.1170   63.5130   71.1550 C   0  0  0  0  0  0  0  0  0  0  0  0
    2.4000   62.5330   72.1110 C   0  0  0  0  0  0  0  0  0  0  0  0
    3.6870   61.9990   72.1840 C   0  0  0  0  0  0  0  0  0  0  0  0
    4.6800   62.4490   71.3120 C   0  0  0  0  0  0  0  0  0  0  0  0
    4.3950   63.4370   70.3680 C   0  0  0  0  0  0  0  0  0  0  0  0
    3.1120   63.9760   70.2880 C   0  0  0  0  0  0  0  0  0  0  0  0
   -0.2290   68.9260   64.8210 C   0  0  0  0  0  0  0  0  0  0  0  0
    0.1390   67.9870   63.6610 C   0  0  0  0  0  0  0  0  0  0  0  0
    1.6530   67.9330   63.3690 C   0  0  0  0  0  0  0  0  0  0  0  0
    2.3080   69.3120   63.5960 C   0  0  0  0  0  0  0  0  0  0  0  0
    2.8300   69.4760   65.0140 C   0  0  0  0  0  0  0  0  0  0  0  0
    3.8670   68.4220   65.3380 N   0  0  0  0  0  4  0  0  0  0  0  0
    3.8080   67.1860   64.4670 C   0  0  0  0  0  0  0  0  0  0  0  0
    2.3510   66.8360   64.1950 C   0  0  0  0  0  0  0  0  0  0  0  0
    5.2770   68.9630   65.5210 C   0  0  0  0  0  0  0  0  0  0  0  0
    5.5450   69.7100   66.8000 C   0  0  0  0  0  0  0  0  0  0  0  0
    4.5060   69.9470   67.7160 C   0  0  0  0  0  0  0  0  0  0  0  0
    4.7520   70.6260   68.9110 C   0  0  0  0  0  0  0  0  0  0  0  0
    6.0350   71.0810   69.2030 C   0  0  0  0  0  0  0  0  0  0  0  0
    7.0720   70.8690   68.2970 C   0  0  0  0  0  0  0  0  0  0  0  0
    6.8280   70.1910   67.1010 C   0  0  0  0  0  0  0  0  0  0  0  0
    2.5744   66.8819   69.1340 H   0  0  0  0  0  0  0  0  0  0  0  0
    2.0964   67.9883   66.9347 H   0  0  0  0  0  0  0  0  0  0  0  0
   -1.6496   66.0448   69.7130 H   0  0  0  0  0  0  0  0  0  0  0  0
    1.2030   66.4361   71.5643 H   0  0  0  0  0  0  0  0  0  0  0  0
    1.6153   62.1861   72.7993 H   0  0  0  0  0  0  0  0  0  0  0  0
    3.9192   61.2234   72.9287 H   0  0  0  0  0  0  0  0  0  0  0  0
    5.6924   62.0227   71.3691 H   0  0  0  0  0  0  0  0  0  0  0  0
    5.1832   63.7904   69.6869 H   0  0  0  0  0  0  0  0  0  0  0  0
    2.8841   64.7587   69.5494 H   0  0  0  0  0  0  0  0  0  0  0  0
   -0.9950   69.6359   64.4757 H   0  0  0  0  0  0  0  0  0  0  0  0
    0.6829   69.4534   65.1379 H   0  0  0  0  0  0  0  0  0  0  0  0
   -0.2034   66.9723   63.9124 H   0  0  0  0  0  0  0  0  0  0  0  0
   -0.3506   68.3810   62.7582 H   0  0  0  0  0  0  0  0  0  0  0  0
    1.7792   67.6701   62.3084 H   0  0  0  0  0  0  0  0  0  0  0  0
    3.1479   69.4245   62.8946 H   0  0  0  0  0  0  0  0  0  0  0  0
    1.5396   70.0812   63.4291 H   0  0  0  0  0  0  0  0  0  0  0  0
    3.2858   70.4719   65.1161 H   0  0  0  0  0  0  0  0  0  0  0  0
    1.9872   69.3633   65.7119 H   0  0  0  0  0  0  0  0  0  0  0  0
    3.5839   68.0938   66.2724 H   0  0  0  0  0  0  0  0  0  0  0  0
    4.3236   67.3814   63.5152 H   0  0  0  0  0  0  0  0  0  0  0  0
    4.3005   66.3472   64.9807 H   0  0  0  0  0  0  0  0  0  0  0  0
    2.3087   65.8880   63.6387 H   0  0  0  0  0  0  0  0  0  0  0  0
    1.8310   66.7464   65.1602 H   0  0  0  0  0  0  0  0  0  0  0  0
    5.9709   68.1105   65.4793 H   0  0  0  0  0  0  0  0  0  0  0  0
    5.4142   69.7008   64.7167 H   0  0  0  0  0  0  0  0  0  0  0  0
    3.4891   69.5942   67.4894 H   0  0  0  0  0  0  0  0  0  0  0  0
    3.9315   70.8016   69.6223 H   0  0  0  0  0  0  0  0  0  0  0  0
    6.2299   71.6078   70.1488 H   0  0  0  0  0  0  0  0  0  0  0  0
    8.0838   71.2361   68.5241 H   0  0  0  0  0  0  0  0  0  0  0  0
    7.6501   70.0324   66.3876 H   0  0  0  0  0  0  0  0  0  0  0  0
  2  1  2  0
  3  2  1  0
  4  3  2  0
  5  4  1  0
  6  5  2  0
  6  1  1  0
  7  5  1  0
  8  7  1  0
  9  8  2  0
  9  4  1  0
 10  1  1  0
 12 11  2  0
 12 10  1  0
 13 12  2  0
 14 12  1  0
 15 14  2  0
 16 15  1  0
 17 16  2  0
 18 17  1  0
 19 18  2  0
 19 14  1  0
 20  9  1  0
 21 20  1  0
 22 21  1  0
 23 22  1  0
 24 23  1  0
 25 24  1  0
 26 25  1  0
 27 26  1  0
 27 22  1  0
 28 25  1  0
 29 28  1  0
 30 29  2  0
 31 30  1  0
 32 31  2  0
 33 32  1  0
 34 29  1  0
 34 33  2  0
  2 35  1  0
  3 36  1  0
  6 37  1  0
 10 38  1  0
 15 39  1  0
 16 40  1  0
 17 41  1  0
 18 42  1  0
 19 43  1  0
 20 44  1  0
 20 45  1  0
 21 46  1  0
 21 47  1  0
 22 48  1  0
 23 49  1  0
 23 50  1  0
 24 51  1  0
 24 52  1  0
 25 53  1  0
 26 54  1  0
 26 55  1  0
 27 56  1  0
 27 57  1  0
 28 58  1  0
 28 59  1  0
 30 60  1  0
 31 61  1  0
 32 62  1  0
 33 63  1  0
 34 64  1  0
M  CHG  1  25   1
M  END
>  <score>  (1) 
-10.805

$$$$
=
     RDKit          3D

 64 68  0  0  0  0  0  0  0  0999 V2000
    2.6300   62.2710   72.1900 C   0  0  0  0  0  0  0  0  0  0  0  0
    3.3240   62.7710   71.0820 C   0  0  0  0  0  0  0  0  0  0  0  0
    2.8760   63.9120   70.4020 C   0  0  0  0  0  0  0  0  0  0  0  0
    1.7120   64.5480   70.8670 C   0  0  0  0  0  0  0  0  0  0  0  0
    1.0550   64.0180   71.9640 C   0  0  0  0  0  0  0  0  0  0  0  0
    1.4710   62.8890   72.6630 C   0  0  0  0  0  0  0  0  0  0  0  0
   -0.0360   64.7770   72.2450 O   0  0  0  0  0  0  0  0  0  0  0  0
   -0.1150   65.8280   71.3450 N   0  0  0  0  0  0  0  0  0  0  0  0
    0.9390   65.6880   70.5280 C   0  0  0  0  0  0  0  0  0  0  0  0
    3.1680   61.1610   72.8960 N   0  0  0  0  0  0  0  0  0  0  0  0
    4.4220   58.9670   72.4560 O   0  0  0  0  0  0  0  0  0  0  0  0
    3.2070   59.6680   72.0930 S   0  0  0  0  0  6  0  0  0  0  0  0
    2.8930   59.9530   70.7090 O   0  0  0  0  0  0  0  0  0  0  0  0
    1.8170   58.8200   72.7930 C   0  0  0  0  0  0  0  0  0  0  0  0
    1.7400   57.4250   72.7210 C   0  0  0  0  0  0  0  0  0  0  0  0
    0.6390   56.7710   73.2730 C   0  0  0  0  0  0  0  0  0  0  0  0
   -0.3770   57.5080   73.8840 C   0  0  0  0  0  0  0  0  0  0  0  0
   -0.3010   58.9010   73.9420 C   0  0  0  0  0  0  0  0  0  0  0  0
    0.7960   59.5630   73.3940 C   0  0  0  0  0  0  0  0  0  0  0  0
    1.1740   66.6870   69.4470 C   0  0  0  0  0  0  0  0  0  0  0  0
   -0.0990   66.9490   68.6280 C   0  0  0  0  0  0  0  0  0  0  0  0
    0.0130   68.1680   67.6890 C   0  0  0  0  0  0  0  0  0  0  0  0
    1.4470   68.3110   67.1400 C   0  0  0  0  0  0  0  0  0  0  0  0
    1.6360   67.5790   65.8210 C   0  0  0  0  0  0  0  0  0  0  0  0
    0.6900   68.1090   64.7640 N   0  0  0  0  0  4  0  0  0  0  0  0
   -0.5270   68.8280   65.3060 C   0  0  0  0  0  0  0  0  0  0  0  0
   -1.0220   68.1030   66.5500 C   0  0  0  0  0  0  0  0  0  0  0  0
    1.3730   68.8530   63.6270 C   0  0  0  0  0  0  0  0  0  0  0  0
    2.8640   68.6820   63.5160 C   0  0  0  0  0  0  0  0  0  0  0  0
    3.4120   67.8340   62.5390 C   0  0  0  0  0  0  0  0  0  0  0  0
    4.7950   67.6830   62.4220 C   0  0  0  0  0  0  0  0  0  0  0  0
    5.6460   68.3720   63.2810 C   0  0  0  0  0  0  0  0  0  0  0  0
    5.1180   69.2030   64.2660 C   0  0  0  0  0  0  0  0  0  0  0  0
    3.7350   69.3550   64.3860 C   0  0  0  0  0  0  0  0  0  0  0  0
    4.2359   62.2602   70.7393 H   0  0  0  0  0  0  0  0  0  0  0  0
    3.4206   64.2991   69.5282 H   0  0  0  0  0  0  0  0  0  0  0  0
    0.9202   62.5068   73.5351 H   0  0  0  0  0  0  0  0  0  0  0  0
    3.5207   61.2597   73.8587 H   0  0  0  0  0  0  0  0  0  0  0  0
    2.5406   56.8493   72.2335 H   0  0  0  0  0  0  0  0  0  0  0  0
    0.5711   55.6741   73.2270 H   0  0  0  0  0  0  0  0  0  0  0  0
   -1.2420   56.9886   74.3221 H   0  0  0  0  0  0  0  0  0  0  0  0
   -1.1074   59.4761   74.4205 H   0  0  0  0  0  0  0  0  0  0  0  0
    0.8583   60.6605   73.4338 H   0  0  0  0  0  0  0  0  0  0  0  0
    1.5063   67.6321   69.9013 H   0  0  0  0  0  0  0  0  0  0  0  0
    1.9408   66.2841   68.7689 H   0  0  0  0  0  0  0  0  0  0  0  0
   -0.3102   66.0581   68.0183 H   0  0  0  0  0  0  0  0  0  0  0  0
   -0.9055   67.1654   69.3441 H   0  0  0  0  0  0  0  0  0  0  0  0
   -0.2124   69.0673   68.2809 H   0  0  0  0  0  0  0  0  0  0  0  0
    1.6618   69.3787   66.9858 H   0  0  0  0  0  0  0  0  0  0  0  0
    2.1341   67.8646   67.8739 H   0  0  0  0  0  0  0  0  0  0  0  0
    2.6720   67.7176   65.4782 H   0  0  0  0  0  0  0  0  0  0  0  0
    1.4211   66.5119   65.9793 H   0  0  0  0  0  0  0  0  0  0  0  0
    0.3135   67.2522   64.3338 H   0  0  0  0  0  0  0  0  0  0  0  0
   -0.2583   69.8627   65.5653 H   0  0  0  0  0  0  0  0  0  0  0  0
   -1.3202   68.8395   64.5439 H   0  0  0  0  0  0  0  0  0  0  0  0
   -1.9572   68.5724   66.8893 H   0  0  0  0  0  0  0  0  0  0  0  0
   -1.1862   67.0464   66.2920 H   0  0  0  0  0  0  0  0  0  0  0  0
    0.9253   68.5067   62.6838 H   0  0  0  0  0  0  0  0  0  0  0  0
    1.2164   69.9206   63.8406 H   0  0  0  0  0  0  0  0  0  0  0  0
    2.7447   67.2835   61.8595 H   0  0  0  0  0  0  0  0  0  0  0  0
    5.2122   67.0191   61.6505 H   0  0  0  0  0  0  0  0  0  0  0  0
    6.7358   68.2602   63.1820 H   0  0  0  0  0  0  0  0  0  0  0  0
    5.7911   69.7403   64.9503 H   0  0  0  0  0  0  0  0  0  0  0  0
    3.3247   70.0085   65.1700 H   0  0  0  0  0  0  0  0  0  0  0  0
  2  1  2  0
  3  2  1  0
  4  3  2  0
  5  4  1  0
  6  5  2  0
  6  1  1  0
  7  5  1  0
  8  7  1  0
  9  8  2  0
  9  4  1  0
 10  1  1  0
 12 11  2  0
 12 10  1  0
 13 12  2  0
 14 12  1  0
 15 14  2  0
 16 15  1  0
 17 16  2  0
 18 17  1  0
 19 18  2  0
 19 14  1  0
 20  9  1  0
 21 20  1  0
 22 21  1  0
 23 22  1  0
 24 23  1  0
 25 24  1  0
 26 25  1  0
 27 26  1  0
 27 22  1  0
 28 25  1  0
 29 28  1  0
 30 29  2  0
 31 30  1  0
 32 31  2  0
 33 32  1  0
 34 29  1  0
 34 33  2  0
  2 35  1  0
  3 36  1  0
  6 37  1  0
 10 38  1  0
 15 39  1  0
 16 40  1  0
 17 41  1  0
 18 42  1  0
 19 43  1  0
 20 44  1  0
 20 45  1  0
 21 46  1  0
 21 47  1  0
 22 48  1  0
 23 49  1  0
 23 50  1  0
 24 51  1  0
 24 52  1  0
 25 53  1  0
 26 54  1  0
 26 55  1  0
 27 56  1  0
 27 57  1  0
 28 58  1  0
 28 59  1  0
 30 60  1  0
 31 61  1  0
 32 62  1  0
 33 63  1  0
 34 64  1  0
M  CHG  1  25   1
M  END
>  <score>  (2) 
-10.586

$$$$
=
     RDKit          3D

 64 68  0  0  0  0  0  0  0  0999 V2000
    0.6520   61.5810   72.3440 C   0  0  0  0  0  0  0  0  0  0  0  0
    1.2270   61.7890   71.0850 C   0  0  0  0  0  0  0  0  0  0  0  0
    1.2260   63.0590   70.4900 C   0  0  0  0  0  0  0  0  0  0  0  0
    0.6380   64.1220   71.1960 C   0  0  0  0  0  0  0  0  0  0  0  0
    0.0790   63.8710   72.4370 C   0  0  0  0  0  0  0  0  0  0  0  0
    0.0620   62.6250   73.0580 C   0  0  0  0  0  0  0  0  0  0  0  0
   -0.4300   65.0250   72.9430 O   0  0  0  0  0  0  0  0  0  0  0  0
   -0.2080   66.0610   72.0500 N   0  0  0  0  0  0  0  0  0  0  0  0
    0.4370   65.5140   71.0110 C   0  0  0  0  0  0  0  0  0  0  0  0
    0.7510   60.2940   72.9410 N   0  0  0  0  0  0  0  0  0  0  0  0
    2.2040   58.5260   74.0970 O   0  0  0  0  0  0  0  0  0  0  0  0
    2.1580   59.9460   73.8210 S   0  0  0  0  0  6  0  0  0  0  0  0
    2.2070   60.9190   74.8920 O   0  0  0  0  0  0  0  0  0  0  0  0
    3.4410   60.3550   72.6680 C   0  0  0  0  0  0  0  0  0  0  0  0
    4.2720   61.4530   72.9080 C   0  0  0  0  0  0  0  0  0  0  0  0
    5.2760   61.7660   71.9910 C   0  0  0  0  0  0  0  0  0  0  0  0
    5.4380   60.9890   70.8420 C   0  0  0  0  0  0  0  0  0  0  0  0
    4.5970   59.9020   70.6010 C   0  0  0  0  0  0  0  0  0  0  0  0
    3.5920   59.5820   71.5130 C   0  0  0  0  0  0  0  0  0  0  0  0
    0.8620   66.3740   69.8690 C   0  0  0  0  0  0  0  0  0  0  0  0
   -0.2810   66.5890   68.8640 C   0  0  0  0  0  0  0  0  0  0  0  0
   -0.1040   67.8480   67.9920 C   0  0  0  0  0  0  0  0  0  0  0  0
    1.3440   67.9620   67.4740 C   0  0  0  0  0  0  0  0  0  0  0  0
    1.5280   67.2920   66.1220 C   0  0  0  0  0  0  0  0  0  0  0  0
    0.6240   67.9130   65.0780 N   0  0  0  0  0  4  0  0  0  0  0  0
   -0.5740   68.6500   65.6370 C   0  0  0  0  0  0  0  0  0  0  0  0
   -1.1200   67.8830   66.8340 C   0  0  0  0  0  0  0  0  0  0  0  0
    1.3550   68.6860   63.9930 C   0  0  0  0  0  0  0  0  0  0  0  0
    2.8580   68.6610   64.0520 C   0  0  0  0  0  0  0  0  0  0  0  0
    3.5430   69.3830   65.0440 C   0  0  0  0  0  0  0  0  0  0  0  0
    4.9370   69.3510   65.1140 C   0  0  0  0  0  0  0  0  0  0  0  0
    5.6640   68.6050   64.1920 C   0  0  0  0  0  0  0  0  0  0  0  0
    5.0010   67.8980   63.1910 C   0  0  0  0  0  0  0  0  0  0  0  0
    3.6070   67.9280   63.1190 C   0  0  0  0  0  0  0  0  0  0  0  0
    1.6871   60.9428   70.5537 H   0  0  0  0  0  0  0  0  0  0  0  0
    1.6733   63.2185   69.4978 H   0  0  0  0  0  0  0  0  0  0  0  0
   -0.3885   62.4728   74.0499 H   0  0  0  0  0  0  0  0  0  0  0  0
   -0.0034   59.5996   72.8426 H   0  0  0  0  0  0  0  0  0  0  0  0
    4.1357   62.0649   73.8118 H   0  0  0  0  0  0  0  0  0  0  0  0
    5.9395   62.6243   72.1730 H   0  0  0  0  0  0  0  0  0  0  0  0
    6.2331   61.2353   70.1229 H   0  0  0  0  0  0  0  0  0  0  0  0
    4.7269   59.2974   69.6913 H   0  0  0  0  0  0  0  0  0  0  0  0
    2.9237   58.7287   71.3253 H   0  0  0  0  0  0  0  0  0  0  0  0
    1.1828   67.3514   70.2587 H   0  0  0  0  0  0  0  0  0  0  0  0
    1.6874   65.8680   69.3469 H   0  0  0  0  0  0  0  0  0  0  0  0
   -0.3327   65.7117   68.2025 H   0  0  0  0  0  0  0  0  0  0  0  0
   -1.2034   66.7263   69.4474 H   0  0  0  0  0  0  0  0  0  0  0  0
   -0.3045   68.7238   68.6267 H   0  0  0  0  0  0  0  0  0  0  0  0
    1.6028   69.0269   67.3791 H   0  0  0  0  0  0  0  0  0  0  0  0
    2.0000   67.4515   68.1944 H   0  0  0  0  0  0  0  0  0  0  0  0
    2.5749   67.4059   65.8042 H   0  0  0  0  0  0  0  0  0  0  0  0
    1.2675   66.2279   66.2212 H   0  0  0  0  0  0  0  0  0  0  0  0
    0.2238   67.0952   64.5964 H   0  0  0  0  0  0  0  0  0  0  0  0
   -0.2705   69.6587   65.9538 H   0  0  0  0  0  0  0  0  0  0  0  0
   -1.3521   68.7307   64.8636 H   0  0  0  0  0  0  0  0  0  0  0  0
   -2.0420   68.3719   67.1818 H   0  0  0  0  0  0  0  0  0  0  0  0
   -1.3209   66.8484   66.5191 H   0  0  0  0  0  0  0  0  0  0  0  0
    1.0511   68.2684   63.0218 H   0  0  0  0  0  0  0  0  0  0  0  0
    1.0738   69.7387   64.1438 H   0  0  0  0  0  0  0  0  0  0  0  0
    2.9750   69.9796   65.7730 H   0  0  0  0  0  0  0  0  0  0  0  0
    5.4609   69.9162   65.8989 H   0  0  0  0  0  0  0  0  0  0  0  0
    6.7618   68.5733   64.2532 H   0  0  0  0  0  0  0  0  0  0  0  0
    5.5766   67.3155   62.4566 H   0  0  0  0  0  0  0  0  0  0  0  0
    3.0908   67.3715   62.3229 H   0  0  0  0  0  0  0  0  0  0  0  0
  2  1  2  0
  3  2  1  0
  4  3  2  0
  5  4  1  0
  6  5  2  0
  6  1  1  0
  7  5  1  0
  8  7  1  0
  9  8  2  0
  9  4  1  0
 10  1  1  0
 12 11  2  0
 12 10  1  0
 13 12  2  0
 14 12  1  0
 15 14  2  0
 16 15  1  0
 17 16  2  0
 18 17  1  0
 19 18  2  0
 19 14  1  0
 20  9  1  0
 21 20  1  0
 22 21  1  0
 23 22  1  0
 24 23  1  0
 25 24  1  0
 26 25  1  0
 27 26  1  0
 27 22  1  0
 28 25  1  0
 29 28  1  0
 30 29  2  0
 31 30  1  0
 32 31  2  0
 33 32  1  0
 34 29  1  0
 34 33  2  0
  2 35  1  0
  3 36  1  0
  6 37  1  0
 10 38  1  0
 15 39  1  0
 16 40  1  0
 17 41  1  0
 18 42  1  0
 19 43  1  0
 20 44  1  0
 20 45  1  0
 21 46  1  0
 21 47  1  0
 22 48  1  0
 23 49  1  0
 23 50  1  0
 24 51  1  0
 24 52  1  0
 25 53  1  0
 26 54  1  0
 26 55  1  0
 27 56  1  0
 27 57  1  0
 28 58  1  0
 28 59  1  0
 30 60  1  0
 31 61  1  0
 32 62  1  0
 33 63  1  0
 34 64  1  0
M  CHG  1  25   1
M  END
>  <score>  (3) 
-10.38

$$$$
=
     RDKit          3D

 64 68  0  0  0  0  0  0  0  0999 V2000
    3.3660   59.9850   72.7670 C   0  0  0  0  0  0  0  0  0  0  0  0
    3.1410   61.1400   73.5240 C   0  0  0  0  0  0  0  0  0  0  0  0
    2.7830   62.3500   72.9100 C   0  0  0  0  0  0  0  0  0  0  0  0
    2.6480   62.3690   71.5110 C   0  0  0  0  0  0  0  0  0  0  0  0
    2.8820   61.2030   70.8020 C   0  0  0  0  0  0  0  0  0  0  0  0
    3.2380   59.9870   71.3770 C   0  0  0  0  0  0  0  0  0  0  0  0
    2.6980   61.4390   69.4760 O   0  0  0  0  0  0  0  0  0  0  0  0
    2.3300   62.7620   69.2860 N   0  0  0  0  0  0  0  0  0  0  0  0
    2.2950   63.3090   70.5090 C   0  0  0  0  0  0  0  0  0  0  0  0
    3.6460   58.7650   73.4410 N   0  0  0  0  0  0  0  0  0  0  0  0
    2.6560   56.9170   74.9190 O   0  0  0  0  0  0  0  0  0  0  0  0
    2.3390   57.7330   73.7650 S   0  0  0  0  0  6  0  0  0  0  0  0
    1.9860   57.1300   72.4970 O   0  0  0  0  0  0  0  0  0  0  0  0
    1.0500   58.8710   74.1950 C   0  0  0  0  0  0  0  0  0  0  0  0
    0.1320   59.2850   73.2250 C   0  0  0  0  0  0  0  0  0  0  0  0
   -0.8760   60.1830   73.5760 C   0  0  0  0  0  0  0  0  0  0  0  0
   -0.9560   60.6670   74.8830 C   0  0  0  0  0  0  0  0  0  0  0  0
   -0.0290   60.2600   75.8440 C   0  0  0  0  0  0  0  0  0  0  0  0
    0.9810   59.3620   75.5020 C   0  0  0  0  0  0  0  0  0  0  0  0
    1.8960   64.7370   70.6690 C   0  0  0  0  0  0  0  0  0  0  0  0
    0.4200   64.9580   70.3020 C   0  0  0  0  0  0  0  0  0  0  0  0
    0.1140   66.3910   69.8190 C   0  0  0  0  0  0  0  0  0  0  0  0
    1.4130   67.1410   69.4590 C   0  0  0  0  0  0  0  0  0  0  0  0
    1.7830   66.9820   67.9930 C   0  0  0  0  0  0  0  0  0  0  0  0
    0.6880   67.5150   67.0940 N   0  0  0  0  0  4  0  0  0  0  0  0
   -0.6770   67.6030   67.7430 C   0  0  0  0  0  0  0  0  0  0  0  0
   -0.8810   66.3930   68.6430 C   0  0  0  0  0  0  0  0  0  0  0  0
    1.0660   68.7650   66.3150 C   0  0  0  0  0  0  0  0  0  0  0  0
    2.5220   69.1450   66.3290 C   0  0  0  0  0  0  0  0  0  0  0  0
    3.1000   69.7070   67.4800 C   0  0  0  0  0  0  0  0  0  0  0  0
    4.4550   70.0470   67.5030 C   0  0  0  0  0  0  0  0  0  0  0  0
    5.2460   69.8360   66.3770 C   0  0  0  0  0  0  0  0  0  0  0  0
    4.6840   69.2960   65.2230 C   0  0  0  0  0  0  0  0  0  0  0  0
    3.3290   68.9560   65.1960 C   0  0  0  0  0  0  0  0  0  0  0  0
    3.2464   61.0989   74.6182 H   0  0  0  0  0  0  0  0  0  0  0  0
    2.6128   63.2582   73.5068 H   0  0  0  0  0  0  0  0  0  0  0  0
    3.4081   59.0832   70.7735 H   0  0  0  0  0  0  0  0  0  0  0  0
    4.6055   58.5172   73.7218 H   0  0  0  0  0  0  0  0  0  0  0  0
    0.2040   58.9061   72.1948 H   0  0  0  0  0  0  0  0  0  0  0  0
   -1.6080   60.5099   72.8228 H   0  0  0  0  0  0  0  0  0  0  0  0
   -1.7539   61.3729   75.1570 H   0  0  0  0  0  0  0  0  0  0  0  0
   -0.0954   60.6479   76.8712 H   0  0  0  0  0  0  0  0  0  0  0  0
    1.7173   59.0425   76.2542 H   0  0  0  0  0  0  0  0  0  0  0  0
    2.0518   65.0357   71.7161 H   0  0  0  0  0  0  0  0  0  0  0  0
    2.5132   65.3442   69.9905 H   0  0  0  0  0  0  0  0  0  0  0  0
    0.1518   64.2553   69.4993 H   0  0  0  0  0  0  0  0  0  0  0  0
   -0.1691   64.7918   71.2160 H   0  0  0  0  0  0  0  0  0  0  0  0
   -0.3659   66.9278   70.6506 H   0  0  0  0  0  0  0  0  0  0  0  0
    1.2755   68.2107   69.6752 H   0  0  0  0  0  0  0  0  0  0  0  0
    2.2277   66.7114   70.0604 H   0  0  0  0  0  0  0  0  0  0  0  0
    2.7122   67.5363   67.7948 H   0  0  0  0  0  0  0  0  0  0  0  0
    1.9190   65.9112   67.7810 H   0  0  0  0  0  0  0  0  0  0  0  0
    0.5897   66.7777   66.3815 H   0  0  0  0  0  0  0  0  0  0  0  0
   -0.7408   68.5228   68.3429 H   0  0  0  0  0  0  0  0  0  0  0  0
   -1.4555   67.6217   66.9661 H   0  0  0  0  0  0  0  0  0  0  0  0
   -1.9060   66.4127   69.0418 H   0  0  0  0  0  0  0  0  0  0  0  0
   -0.7113   65.4853   68.0453 H   0  0  0  0  0  0  0  0  0  0  0  0
    0.7705   68.6088   65.2670 H   0  0  0  0  0  0  0  0  0  0  0  0
    0.5423   69.5923   66.8163 H   0  0  0  0  0  0  0  0  0  0  0  0
    2.4796   69.8809   68.3716 H   0  0  0  0  0  0  0  0  0  0  0  0
    4.8971   70.4818   68.4116 H   0  0  0  0  0  0  0  0  0  0  0  0
    6.3147   70.0958   66.3989 H   0  0  0  0  0  0  0  0  0  0  0  0
    5.3079   69.1368   64.3311 H   0  0  0  0  0  0  0  0  0  0  0  0
    2.8906   68.5364   64.2785 H   0  0  0  0  0  0  0  0  0  0  0  0
  2  1  2  0
  3  2  1  0
  4  3  2  0
  5  4  1  0
  6  5  2  0
  6  1  1  0
  7  5  1  0
  8  7  1  0
  9  8  2  0
  9  4  1  0
 10  1  1  0
 12 11  2  0
 12 10  1  0
 13 12  2  0
 14 12  1  0
 15 14  2  0
 16 15  1  0
 17 16  2  0
 18 17  1  0
 19 18  2  0
 19 14  1  0
 20  9  1  0
 21 20  1  0
 22 21  1  0
 23 22  1  0
 24 23  1  0
 25 24  1  0
 26 25  1  0
 27 26  1  0
 27 22  1  0
 28 25  1  0
 29 28  1  0
 30 29  2  0
 31 30  1  0
 32 31  2  0
 33 32  1  0
 34 29  1  0
 34 33  2  0
  2 35  1  0
  3 36  1  0
  6 37  1  0
 10 38  1  0
 15 39  1  0
 16 40  1  0
 17 41  1  0
 18 42  1  0
 19 43  1  0
 20 44  1  0
 20 45  1  0
 21 46  1  0
 21 47  1  0
 22 48  1  0
 23 49  1  0
 23 50  1  0
 24 51  1  0
 24 52  1  0
 25 53  1  0
 26 54  1  0
 26 55  1  0
 27 56  1  0
 27 57  1  0
 28 58  1  0
 28 59  1  0
 30 60  1  0
 31 61  1  0
 32 62  1  0
 33 63  1  0
 34 64  1  0
M  CHG  1  25   1
M  END
>  <score>  (4) 
-10.282

$$$$
=
     RDKit          3D

 64 68  0  0  0  0  0  0  0  0999 V2000
    0.8120   60.8200   72.4960 C   0  0  0  0  0  0  0  0  0  0  0  0
   -0.1500   61.7820   72.8270 C   0  0  0  0  0  0  0  0  0  0  0  0
   -0.1000   63.0730   72.2800 C   0  0  0  0  0  0  0  0  0  0  0  0
    0.9380   63.3740   71.3820 C   0  0  0  0  0  0  0  0  0  0  0  0
    1.8690   62.3930   71.0850 C   0  0  0  0  0  0  0  0  0  0  0  0
    1.8510   61.1030   71.6080 C   0  0  0  0  0  0  0  0  0  0  0  0
    2.7790   62.8880   70.2050 O   0  0  0  0  0  0  0  0  0  0  0  0
    2.4600   64.2010   69.8980 N   0  0  0  0  0  0  0  0  0  0  0  0
    1.3540   64.4820   70.6010 C   0  0  0  0  0  0  0  0  0  0  0  0
    0.6730   59.5030   73.0120 N   0  0  0  0  0  0  0  0  0  0  0  0
    2.9260   59.1490   74.1830 O   0  0  0  0  0  0  0  0  0  0  0  0
    2.0810   58.5690   73.1610 S   0  0  0  0  0  6  0  0  0  0  0  0
    2.5680   58.3670   71.8120 O   0  0  0  0  0  0  0  0  0  0  0  0
    1.4510   57.0170   73.7410 C   0  0  0  0  0  0  0  0  0  0  0  0
    0.1300   56.6510   73.4630 C   0  0  0  0  0  0  0  0  0  0  0  0
   -0.3540   55.4290   73.9280 C   0  0  0  0  0  0  0  0  0  0  0  0
    0.4760   54.5850   74.6690 C   0  0  0  0  0  0  0  0  0  0  0  0
    1.7900   54.9610   74.9540 C   0  0  0  0  0  0  0  0  0  0  0  0
    2.2820   56.1810   74.4930 C   0  0  0  0  0  0  0  0  0  0  0  0
    0.7180   65.8240   70.4730 C   0  0  0  0  0  0  0  0  0  0  0  0
   -0.3040   65.8620   69.3260 C   0  0  0  0  0  0  0  0  0  0  0  0
   -0.3320   67.2060   68.5700 C   0  0  0  0  0  0  0  0  0  0  0  0
    1.0940   67.6520   68.1860 C   0  0  0  0  0  0  0  0  0  0  0  0
    1.5010   67.1590   66.8070 C   0  0  0  0  0  0  0  0  0  0  0  0
    0.5610   67.6810   65.7420 N   0  0  0  0  0  4  0  0  0  0  0  0
   -0.7980   68.1110   66.2520 C   0  0  0  0  0  0  0  0  0  0  0  0
   -1.2530   67.1450   67.3370 C   0  0  0  0  0  0  0  0  0  0  0  0
    1.1890   68.6810   64.7830 C   0  0  0  0  0  0  0  0  0  0  0  0
    2.6820   68.8420   64.8710 C   0  0  0  0  0  0  0  0  0  0  0  0
    3.2670   69.4520   65.9930 C   0  0  0  0  0  0  0  0  0  0  0  0
    4.6530   69.5910   66.0880 C   0  0  0  0  0  0  0  0  0  0  0  0
    5.4710   69.1290   65.0600 C   0  0  0  0  0  0  0  0  0  0  0  0
    4.9060   68.5380   63.9330 C   0  0  0  0  0  0  0  0  0  0  0  0
    3.5190   68.3980   63.8360 C   0  0  0  0  0  0  0  0  0  0  0  0
   -0.9576   61.5215   73.5269 H   0  0  0  0  0  0  0  0  0  0  0  0
   -0.8530   63.8291   72.5469 H   0  0  0  0  0  0  0  0  0  0  0  0
    2.6089   60.3529   71.3380 H   0  0  0  0  0  0  0  0  0  0  0  0
   -0.2475   59.1300   73.2850 H   0  0  0  0  0  0  0  0  0  0  0  0
   -0.5212   57.3213   72.8827 H   0  0  0  0  0  0  0  0  0  0  0  0
   -1.3900   55.1295   73.7111 H   0  0  0  0  0  0  0  0  0  0  0  0
    0.0926   53.6192   75.0299 H   0  0  0  0  0  0  0  0  0  0  0  0
    2.4373   54.2942   75.5426 H   0  0  0  0  0  0  0  0  0  0  0  0
    3.3152   56.4835   74.7189 H   0  0  0  0  0  0  0  0  0  0  0  0
    0.2053   66.0668   71.4154 H   0  0  0  0  0  0  0  0  0  0  0  0
    1.5074   66.5578   70.2531 H   0  0  0  0  0  0  0  0  0  0  0  0
   -0.0535   65.0652   68.6102 H   0  0  0  0  0  0  0  0  0  0  0  0
   -1.2986   65.7228   69.7747 H   0  0  0  0  0  0  0  0  0  0  0  0
   -0.7510   67.9623   69.2501 H   0  0  0  0  0  0  0  0  0  0  0  0
    1.1353   68.7512   68.1951 H   0  0  0  0  0  0  0  0  0  0  0  0
    1.7909   67.2176   68.9179 H   0  0  0  0  0  0  0  0  0  0  0  0
    2.5211   67.5072   66.5877 H   0  0  0  0  0  0  0  0  0  0  0  0
    1.4581   66.0598   66.8024 H   0  0  0  0  0  0  0  0  0  0  0  0
    0.3705   66.8470   65.1685 H   0  0  0  0  0  0  0  0  0  0  0  0
   -0.7303   69.1269   66.6684 H   0  0  0  0  0  0  0  0  0  0  0  0
   -1.5225   68.1056   65.4243 H   0  0  0  0  0  0  0  0  0  0  0  0
   -2.2768   67.4070   67.6423 H   0  0  0  0  0  0  0  0  0  0  0  0
   -1.2151   66.1245   66.9283 H   0  0  0  0  0  0  0  0  0  0  0  0
    0.9463   68.3611   63.7589 H   0  0  0  0  0  0  0  0  0  0  0  0
    0.7716   69.6590   65.0644 H   0  0  0  0  0  0  0  0  0  0  0  0
    2.6260   69.8243   66.8058 H   0  0  0  0  0  0  0  0  0  0  0  0
    5.0988   70.0654   66.9747 H   0  0  0  0  0  0  0  0  0  0  0  0
    6.5635   69.2310   65.1384 H   0  0  0  0  0  0  0  0  0  0  0  0
    5.5524   68.1808   63.1178 H   0  0  0  0  0  0  0  0  0  0  0  0
    3.0793   67.9355   62.9400 H   0  0  0  0  0  0  0  0  0  0  0  0
  2  1  2  0
  3  2  1  0
  4  3  2  0
  5  4  1  0
  6  5  2  0
  6  1  1  0
  7  5  1  0
  8  7  1  0
  9  8  2  0
  9  4  1  0
 10  1  1  0
 12 11  2  0
 12 10  1  0
 13 12  2  0
 14 12  1  0
 15 14  2  0
 16 15  1  0
 17 16  2  0
 18 17  1  0
 19 18  2  0
 19 14  1  0
 20  9  1  0
 21 20  1  0
 22 21  1  0
 23 22  1  0
 24 23  1  0
 25 24  1  0
 26 25  1  0
 27 26  1  0
 27 22  1  0
 28 25  1  0
 29 28  1  0
 30 29  2  0
 31 30  1  0
 32 31  2  0
 33 32  1  0
 34 29  1  0
 34 33  2  0
  2 35  1  0
  3 36  1  0
  6 37  1  0
 10 38  1  0
 15 39  1  0
 16 40  1  0
 17 41  1  0
 18 42  1  0
 19 43  1  0
 20 44  1  0
 20 45  1  0
 21 46  1  0
 21 47  1  0
 22 48  1  0
 23 49  1  0
 23 50  1  0
 24 51  1  0
 24 52  1  0
 25 53  1  0
 26 54  1  0
 26 55  1  0
 27 56  1  0
 27 57  1  0
 28 58  1  0
 28 59  1  0
 30 60  1  0
 31 61  1  0
 32 62  1  0
 33 63  1  0
 34 64  1  0
M  CHG  1  25   1
M  END
>  <score>  (5) 
-10.087

$$$$
=
     RDKit          3D

 64 68  0  0  0  0  0  0  0  0999 V2000
    0.5010   68.9890   65.2900 C   0  0  0  0  0  0  0  0  0  0  0  0
    1.6970   69.0730   66.0130 C   0  0  0  0  0  0  0  0  0  0  0  0
    1.8550   68.3960   67.2320 C   0  0  0  0  0  0  0  0  0  0  0  0
    0.7810   67.6230   67.7060 C   0  0  0  0  0  0  0  0  0  0  0  0
   -0.3830   67.5700   66.9590 C   0  0  0  0  0  0  0  0  0  0  0  0
   -0.5760   68.2270   65.7480 C   0  0  0  0  0  0  0  0  0  0  0  0
   -1.2870   66.7750   67.5910 O   0  0  0  0  0  0  0  0  0  0  0  0
   -0.7320   66.2800   68.7610 N   0  0  0  0  0  0  0  0  0  0  0  0
    0.5080   66.7870   68.8180 C   0  0  0  0  0  0  0  0  0  0  0  0
    0.4180   69.6260   64.0220 N   0  0  0  0  0  0  0  0  0  0  0  0
    1.0620   69.6070   61.5400 O   0  0  0  0  0  0  0  0  0  0  0  0
    0.8510   68.7130   62.6590 S   0  0  0  0  0  6  0  0  0  0  0  0
   -0.1100   67.6330   62.5840 O   0  0  0  0  0  0  0  0  0  0  0  0
    2.4060   68.0140   63.1450 C   0  0  0  0  0  0  0  0  0  0  0  0
    2.4510   66.7340   63.7080 C   0  0  0  0  0  0  0  0  0  0  0  0
    3.6800   66.1970   64.0890 C   0  0  0  0  0  0  0  0  0  0  0  0
    4.8510   66.9380   63.9140 C   0  0  0  0  0  0  0  0  0  0  0  0
    4.7980   68.2200   63.3640 C   0  0  0  0  0  0  0  0  0  0  0  0
    3.5730   68.7640   62.9800 C   0  0  0  0  0  0  0  0  0  0  0  0
    1.4040   66.4210   69.9530 C   0  0  0  0  0  0  0  0  0  0  0  0
    1.2240   64.9530   70.3680 C   0  0  0  0  0  0  0  0  0  0  0  0
    2.5560   64.2020   70.5670 C   0  0  0  0  0  0  0  0  0  0  0  0
    2.4010   63.0660   71.5990 C   0  0  0  0  0  0  0  0  0  0  0  0
    2.0280   61.7430   70.9480 C   0  0  0  0  0  0  0  0  0  0  0  0
    3.0820   61.3100   69.9520 N   0  0  0  0  0  4  0  0  0  0  0  0
    3.9620   62.4270   69.4350 C   0  0  0  0  0  0  0  0  0  0  0  0
    3.1150   63.6760   69.2310 C   0  0  0  0  0  0  0  0  0  0  0  0
    3.8620   60.0700   70.3610 C   0  0  0  0  0  0  0  0  0  0  0  0
    3.5310   59.4870   71.7090 C   0  0  0  0  0  0  0  0  0  0  0  0
    2.5070   58.5340   71.8400 C   0  0  0  0  0  0  0  0  0  0  0  0
    2.2070   57.9790   73.0850 C   0  0  0  0  0  0  0  0  0  0  0  0
    2.9190   58.3720   74.2140 C   0  0  0  0  0  0  0  0  0  0  0  0
    3.9250   59.3290   74.1040 C   0  0  0  0  0  0  0  0  0  0  0  0
    4.2280   59.8870   72.8590 C   0  0  0  0  0  0  0  0  0  0  0  0
    2.5260   69.6793   65.6192 H   0  0  0  0  0  0  0  0  0  0  0  0
    2.7936   68.4683   67.8010 H   0  0  0  0  0  0  0  0  0  0  0  0
   -1.5186   68.1510   65.1860 H   0  0  0  0  0  0  0  0  0  0  0  0
    0.1070   70.6040   63.9340 H   0  0  0  0  0  0  0  0  0  0  0  0
    1.5253   66.1566   63.8488 H   0  0  0  0  0  0  0  0  0  0  0  0
    3.7274   65.1893   64.5276 H   0  0  0  0  0  0  0  0  0  0  0  0
    5.8195   66.5094   64.2110 H   0  0  0  0  0  0  0  0  0  0  0  0
    5.7228   68.8011   63.2336 H   0  0  0  0  0  0  0  0  0  0  0  0
    3.5258   69.7756   62.5506 H   0  0  0  0  0  0  0  0  0  0  0  0
    2.4489   66.5797   69.6479 H   0  0  0  0  0  0  0  0  0  0  0  0
    1.1441   67.0551   70.8135 H   0  0  0  0  0  0  0  0  0  0  0  0
    0.6638   64.9249   71.3142 H   0  0  0  0  0  0  0  0  0  0  0  0
    0.6877   64.4492   69.5504 H   0  0  0  0  0  0  0  0  0  0  0  0
    3.2876   64.9206   70.9649 H   0  0  0  0  0  0  0  0  0  0  0  0
    3.3542   62.9411   72.1337 H   0  0  0  0  0  0  0  0  0  0  0  0
    1.5887   63.3440   72.2866 H   0  0  0  0  0  0  0  0  0  0  0  0
    1.9327   60.9731   71.7278 H   0  0  0  0  0  0  0  0  0  0  0  0
    1.0749   61.8725   70.4142 H   0  0  0  0  0  0  0  0  0  0  0  0
    2.5266   61.0182   69.1351 H   0  0  0  0  0  0  0  0  0  0  0  0
    4.7576   62.6369   70.1651 H   0  0  0  0  0  0  0  0  0  0  0  0
    4.4167   62.1278   68.4791 H   0  0  0  0  0  0  0  0  0  0  0  0
    3.7363   64.4582   68.7705 H   0  0  0  0  0  0  0  0  0  0  0  0
    2.2673   63.4163   68.5799 H   0  0  0  0  0  0  0  0  0  0  0  0
    3.6759   59.2928   69.6051 H   0  0  0  0  0  0  0  0  0  0  0  0
    4.9109   60.3939   70.4316 H   0  0  0  0  0  0  0  0  0  0  0  0
    1.9362   58.2223   70.9528 H   0  0  0  0  0  0  0  0  0  0  0  0
    1.4065   57.2298   73.1738 H   0  0  0  0  0  0  0  0  0  0  0  0
    2.6875   57.9271   75.1930 H   0  0  0  0  0  0  0  0  0  0  0  0
    4.4817   59.6460   74.9982 H   0  0  0  0  0  0  0  0  0  0  0  0
    5.0199   60.6464   72.7801 H   0  0  0  0  0  0  0  0  0  0  0  0
  2  1  2  0
  3  2  1  0
  4  3  2  0
  5  4  1  0
  6  5  2  0
  6  1  1  0
  7  5  1  0
  8  7  1  0
  9  8  2  0
  9  4  1  0
 10  1  1  0
 12 11  2  0
 12 10  1  0
 13 12  2  0
 14 12  1  0
 15 14  2  0
 16 15  1  0
 17 16  2  0
 18 17  1  0
 19 18  2  0
 19 14  1  0
 20  9  1  0
 21 20  1  0
 22 21  1  0
 23 22  1  0
 24 23  1  0
 25 24  1  0
 26 25  1  0
 27 26  1  0
 27 22  1  0
 28 25  1  0
 29 28  1  0
 30 29  2  0
 31 30  1  0
 32 31  2  0
 33 32  1  0
 34 29  1  0
 34 33  2  0
  2 35  1  0
  3 36  1  0
  6 37  1  0
 10 38  1  0
 15 39  1  0
 16 40  1  0
 17 41  1  0
 18 42  1  0
 19 43  1  0
 20 44  1  0
 20 45  1  0
 21 46  1  0
 21 47  1  0
 22 48  1  0
 23 49  1  0
 23 50  1  0
 24 51  1  0
 24 52  1  0
 25 53  1  0
 26 54  1  0
 26 55  1  0
 27 56  1  0
 27 57  1  0
 28 58  1  0
 28 59  1  0
 30 60  1  0
 31 61  1  0
 32 62  1  0
 33 63  1  0
 34 64  1  0
M  CHG  1  25   1
M  END
>  <score>  (6) 
-10.068

$$$$
=
     RDKit          3D

 64 68  0  0  0  0  0  0  0  0999 V2000
    2.2780   63.7140   70.6100 C   0  0  0  0  0  0  0  0  0  0  0  0
    1.9850   63.1480   71.8560 C   0  0  0  0  0  0  0  0  0  0  0  0
    2.3590   61.8310   72.1590 C   0  0  0  0  0  0  0  0  0  0  0  0
    3.0460   61.0940   71.1780 C   0  0  0  0  0  0  0  0  0  0  0  0
    3.3130   61.6930   69.9590 C   0  0  0  0  0  0  0  0  0  0  0  0
    2.9570   62.9960   69.6240 C   0  0  0  0  0  0  0  0  0  0  0  0
    3.9770   60.8140   69.1630 O   0  0  0  0  0  0  0  0  0  0  0  0
    4.1710   59.6230   69.8450 N   0  0  0  0  0  0  0  0  0  0  0  0
    3.6160   59.8010   71.0520 C   0  0  0  0  0  0  0  0  0  0  0  0
    1.9510   65.0780   70.3800 N   0  0  0  0  0  0  0  0  0  0  0  0
   -0.0780   66.0810   71.5860 O   0  0  0  0  0  0  0  0  0  0  0  0
    0.3070   65.4890   70.3210 S   0  0  0  0  0  6  0  0  0  0  0  0
   -0.3750   64.3220   69.8030 O   0  0  0  0  0  0  0  0  0  0  0  0
    0.2690   66.7360   69.0620 C   0  0  0  0  0  0  0  0  0  0  0  0
   -0.8470   66.8520   68.2270 C   0  0  0  0  0  0  0  0  0  0  0  0
   -0.8630   67.8350   67.2370 C   0  0  0  0  0  0  0  0  0  0  0  0
    0.2320   68.6880   67.0830 C   0  0  0  0  0  0  0  0  0  0  0  0
    1.3480   68.5600   67.9120 C   0  0  0  0  0  0  0  0  0  0  0  0
    1.3720   67.5800   68.9030 C   0  0  0  0  0  0  0  0  0  0  0  0
    3.6780   58.7070   72.0630 C   0  0  0  0  0  0  0  0  0  0  0  0
    2.4520   57.7850   71.9770 C   0  0  0  0  0  0  0  0  0  0  0  0
    1.8210   57.4720   73.3490 C   0  0  0  0  0  0  0  0  0  0  0  0
    1.4980   58.7700   74.1170 C   0  0  0  0  0  0  0  0  0  0  0  0
    0.0840   59.2620   73.8480 C   0  0  0  0  0  0  0  0  0  0  0  0
   -0.9410   58.2260   74.2570 N   0  0  0  0  0  4  0  0  0  0  0  0
   -0.4100   56.8110   74.3460 C   0  0  0  0  0  0  0  0  0  0  0  0
    0.5760   56.5750   73.2100 C   0  0  0  0  0  0  0  0  0  0  0  0
   -1.7960   58.6250   75.4490 C   0  0  0  0  0  0  0  0  0  0  0  0
   -3.2080   59.0480   75.1460 C   0  0  0  0  0  0  0  0  0  0  0  0
   -3.4810   60.3590   74.7180 C   0  0  0  0  0  0  0  0  0  0  0  0
   -4.7870   60.7530   74.4200 C   0  0  0  0  0  0  0  0  0  0  0  0
   -5.8360   59.8480   74.5520 C   0  0  0  0  0  0  0  0  0  0  0  0
   -5.5840   58.5500   74.9920 C   0  0  0  0  0  0  0  0  0  0  0  0
   -4.2790   58.1530   75.2910 C   0  0  0  0  0  0  0  0  0  0  0  0
    1.4525   63.7462   72.6101 H   0  0  0  0  0  0  0  0  0  0  0  0
    2.1216   61.3867   73.1369 H   0  0  0  0  0  0  0  0  0  0  0  0
    3.1958   63.4330   68.6432 H   0  0  0  0  0  0  0  0  0  0  0  0
    2.6848   65.7897   70.2540 H   0  0  0  0  0  0  0  0  0  0  0  0
   -1.7046   66.1742   68.3497 H   0  0  0  0  0  0  0  0  0  0  0  0
   -1.7377   67.9381   66.5781 H   0  0  0  0  0  0  0  0  0  0  0  0
    0.2151   69.4648   66.3044 H   0  0  0  0  0  0  0  0  0  0  0  0
    2.2087   69.2327   67.7831 H   0  0  0  0  0  0  0  0  0  0  0  0
    2.2516   67.4717   69.5546 H   0  0  0  0  0  0  0  0  0  0  0  0
    4.5857   58.1107   71.8881 H   0  0  0  0  0  0  0  0  0  0  0  0
    3.6941   59.1644   73.0633 H   0  0  0  0  0  0  0  0  0  0  0  0
    1.6930   58.2726   71.3476 H   0  0  0  0  0  0  0  0  0  0  0  0
    2.7944   56.8297   71.5525 H   0  0  0  0  0  0  0  0  0  0  0  0
    2.5617   56.9090   73.9358 H   0  0  0  0  0  0  0  0  0  0  0  0
    1.6076   58.5801   75.1949 H   0  0  0  0  0  0  0  0  0  0  0  0
    2.1963   59.5474   73.7736 H   0  0  0  0  0  0  0  0  0  0  0  0
   -0.0901   60.1850   74.4204 H   0  0  0  0  0  0  0  0  0  0  0  0
   -0.0210   59.4502   72.7693 H   0  0  0  0  0  0  0  0  0  0  0  0
   -1.5906   58.2089   73.4578 H   0  0  0  0  0  0  0  0  0  0  0  0
    0.0990   56.6689   75.3107 H   0  0  0  0  0  0  0  0  0  0  0  0
   -1.2434   56.0974   74.2668 H   0  0  0  0  0  0  0  0  0  0  0  0
    0.8912   55.5212   73.2231 H   0  0  0  0  0  0  0  0  0  0  0  0
    0.0763   56.8219   72.2617 H   0  0  0  0  0  0  0  0  0  0  0  0
   -1.8435   57.7630   76.1307 H   0  0  0  0  0  0  0  0  0  0  0  0
   -1.3086   59.5147   75.8744 H   0  0  0  0  0  0  0  0  0  0  0  0
   -2.6577   61.0815   74.6169 H   0  0  0  0  0  0  0  0  0  0  0  0
   -4.9870   61.7800   74.0805 H   0  0  0  0  0  0  0  0  0  0  0  0
   -6.8634   60.1571   74.3092 H   0  0  0  0  0  0  0  0  0  0  0  0
   -6.4142   57.8371   75.1040 H   0  0  0  0  0  0  0  0  0  0  0  0
   -4.0887   57.1286   75.6437 H   0  0  0  0  0  0  0  0  0  0  0  0
  2  1  2  0
  3  2  1  0
  4  3  2  0
  5  4  1  0
  6  5  2  0
  6  1  1  0
  7  5  1  0
  8  7  1  0
  9  8  2  0
  9  4  1  0
 10  1  1  0
 12 11  2  0
 12 10  1  0
 13 12  2  0
 14 12  1  0
 15 14  2  0
 16 15  1  0
 17 16  2  0
 18 17  1  0
 19 18  2  0
 19 14  1  0
 20  9  1  0
 21 20  1  0
 22 21  1  0
 23 22  1  0
 24 23  1  0
 25 24  1  0
 26 25  1  0
 27 26  1  0
 27 22  1  0
 28 25  1  0
 29 28  1  0
 30 29  2  0
 31 30  1  0
 32 31  2  0
 33 32  1  0
 34 29  1  0
 34 33  2  0
  2 35  1  0
  3 36  1  0
  6 37  1  0
 10 38  1  0
 15 39  1  0
 16 40  1  0
 17 41  1  0
 18 42  1  0
 19 43  1  0
 20 44  1  0
 20 45  1  0
 21 46  1  0
 21 47  1  0
 22 48  1  0
 23 49  1  0
 23 50  1  0
 24 51  1  0
 24 52  1  0
 25 53  1  0
 26 54  1  0
 26 55  1  0
 27 56  1  0
 27 57  1  0
 28 58  1  0
 28 59  1  0
 30 60  1  0
 31 61  1  0
 32 62  1  0
 33 63  1  0
 34 64  1  0
M  CHG  1  25   1
M  END
>  <score>  (7) 
-9.917

$$$$
=
     RDKit          3D

 64 68  0  0  0  0  0  0  0  0999 V2000
    0.9040   59.7600   72.9470 C   0  0  0  0  0  0  0  0  0  0  0  0
    0.0580   60.8110   73.3200 C   0  0  0  0  0  0  0  0  0  0  0  0
    0.2450   62.1050   72.8110 C   0  0  0  0  0  0  0  0  0  0  0  0
    1.3020   62.3180   71.9100 C   0  0  0  0  0  0  0  0  0  0  0  0
    2.1150   61.2500   71.5710 C   0  0  0  0  0  0  0  0  0  0  0  0
    1.9590   59.9540   72.0540 C   0  0  0  0  0  0  0  0  0  0  0  0
    3.0650   61.6690   70.6940 O   0  0  0  0  0  0  0  0  0  0  0  0
    2.8920   63.0190   70.4310 N   0  0  0  0  0  0  0  0  0  0  0  0
    1.8300   63.3980   71.1570 C   0  0  0  0  0  0  0  0  0  0  0  0
    0.6250   58.4500   73.4240 N   0  0  0  0  0  0  0  0  0  0  0  0
    2.8350   57.7160   74.4980 O   0  0  0  0  0  0  0  0  0  0  0  0
    1.9060   57.3390   73.4530 S   0  0  0  0  0  6  0  0  0  0  0  0
    2.3420   57.1990   72.0790 O   0  0  0  0  0  0  0  0  0  0  0  0
    1.0950   55.8310   73.9140 C   0  0  0  0  0  0  0  0  0  0  0  0
    1.8270   54.6430   74.0010 C   0  0  0  0  0  0  0  0  0  0  0  0
    1.1760   53.4630   74.3620 C   0  0  0  0  0  0  0  0  0  0  0  0
   -0.1950   53.4740   74.6240 C   0  0  0  0  0  0  0  0  0  0  0  0
   -0.9230   54.6610   74.5230 C   0  0  0  0  0  0  0  0  0  0  0  0
   -0.2800   55.8450   74.1640 C   0  0  0  0  0  0  0  0  0  0  0  0
    1.3450   64.8050   71.0780 C   0  0  0  0  0  0  0  0  0  0  0  0
    0.1740   64.9480   70.0940 C   0  0  0  0  0  0  0  0  0  0  0  0
   -0.0940   66.4050   69.6650 C   0  0  0  0  0  0  0  0  0  0  0  0
    1.2270   67.1810   69.4890 C   0  0  0  0  0  0  0  0  0  0  0  0
    1.7530   67.1100   68.0640 C   0  0  0  0  0  0  0  0  0  0  0  0
    0.7540   67.6900   67.0860 N   0  0  0  0  0  4  0  0  0  0  0  0
   -0.6730   67.7330   67.5880 C   0  0  0  0  0  0  0  0  0  0  0  0
   -0.9590   66.4710   68.3910 C   0  0  0  0  0  0  0  0  0  0  0  0
    1.2000   68.9850   66.4250 C   0  0  0  0  0  0  0  0  0  0  0  0
    2.6800   69.2580   66.4220 C   0  0  0  0  0  0  0  0  0  0  0  0
    3.4560   68.9580   65.2890 C   0  0  0  0  0  0  0  0  0  0  0  0
    4.8270   69.2240   65.2750 C   0  0  0  0  0  0  0  0  0  0  0  0
    5.4400   69.7850   66.3910 C   0  0  0  0  0  0  0  0  0  0  0  0
    4.6880   70.0720   67.5280 C   0  0  0  0  0  0  0  0  0  0  0  0
    3.3160   69.8060   67.5450 C   0  0  0  0  0  0  0  0  0  0  0  0
   -0.7661   60.6194   74.0230 H   0  0  0  0  0  0  0  0  0  0  0  0
   -0.4180   62.9305   73.1092 H   0  0  0  0  0  0  0  0  0  0  0  0
    2.6259   59.1335   71.7507 H   0  0  0  0  0  0  0  0  0  0  0  0
   -0.3191   58.1858   73.7399 H   0  0  0  0  0  0  0  0  0  0  0  0
    2.9059   54.6387   73.7869 H   0  0  0  0  0  0  0  0  0  0  0  0
    1.7433   52.5238   74.4402 H   0  0  0  0  0  0  0  0  0  0  0  0
   -0.7045   52.5425   74.9116 H   0  0  0  0  0  0  0  0  0  0  0  0
   -2.0040   54.6622   74.7267 H   0  0  0  0  0  0  0  0  0  0  0  0
   -0.8500   56.7819   74.0783 H   0  0  0  0  0  0  0  0  0  0  0  0
    1.0123   65.1240   72.0768 H   0  0  0  0  0  0  0  0  0  0  0  0
    2.1733   65.4335   70.7190 H   0  0  0  0  0  0  0  0  0  0  0  0
    0.4004   64.3562   69.1948 H   0  0  0  0  0  0  0  0  0  0  0  0
   -0.7290   64.5915   70.6113 H   0  0  0  0  0  0  0  0  0  0  0  0
   -0.6646   66.8899   70.4708 H   0  0  0  0  0  0  0  0  0  0  0  0
    1.0552   68.2356   69.7505 H   0  0  0  0  0  0  0  0  0  0  0  0
    1.9779   66.7207   70.1480 H   0  0  0  0  0  0  0  0  0  0  0  0
    2.6920   67.6792   67.9987 H   0  0  0  0  0  0  0  0  0  0  0  0
    1.9227   66.0543   67.8059 H   0  0  0  0  0  0  0  0  0  0  0  0
    0.7395   66.9950   66.3259 H   0  0  0  0  0  0  0  0  0  0  0  0
   -0.8112   68.6162   68.2289 H   0  0  0  0  0  0  0  0  0  0  0  0
   -1.3638   67.7924   66.7340 H   0  0  0  0  0  0  0  0  0  0  0  0
   -2.0207   66.4632   68.6788 H   0  0  0  0  0  0  0  0  0  0  0  0
   -0.7173   65.6002   67.7638 H   0  0  0  0  0  0  0  0  0  0  0  0
    0.8618   68.9607   65.3786 H   0  0  0  0  0  0  0  0  0  0  0  0
    0.7550   69.7900   67.0282 H   0  0  0  0  0  0  0  0  0  0  0  0
    2.9790   68.5095   64.4051 H   0  0  0  0  0  0  0  0  0  0  0  0
    5.4229   68.9897   64.3806 H   0  0  0  0  0  0  0  0  0  0  0  0
    6.5183   70.0019   66.3755 H   0  0  0  0  0  0  0  0  0  0  0  0
    5.1743   70.5082   68.4130 H   0  0  0  0  0  0  0  0  0  0  0  0
    2.7293   70.0288   68.4484 H   0  0  0  0  0  0  0  0  0  0  0  0
  2  1  2  0
  3  2  1  0
  4  3  2  0
  5  4  1  0
  6  5  2  0
  6  1  1  0
  7  5  1  0
  8  7  1  0
  9  8  2  0
  9  4  1  0
 10  1  1  0
 12 11  2  0
 12 10  1  0
 13 12  2  0
 14 12  1  0
 15 14  2  0
 16 15  1  0
 17 16  2  0
 18 17  1  0
 19 18  2  0
 19 14  1  0
 20  9  1  0
 21 20  1  0
 22 21  1  0
 23 22  1  0
 24 23  1  0
 25 24  1  0
 26 25  1  0
 27 26  1  0
 27 22  1  0
 28 25  1  0
 29 28  1  0
 30 29  2  0
 31 30  1  0
 32 31  2  0
 33 32  1  0
 34 29  1  0
 34 33  2  0
  2 35  1  0
  3 36  1  0
  6 37  1  0
 10 38  1  0
 15 39  1  0
 16 40  1  0
 17 41  1  0
 18 42  1  0
 19 43  1  0
 20 44  1  0
 20 45  1  0
 21 46  1  0
 21 47  1  0
 22 48  1  0
 23 49  1  0
 23 50  1  0
 24 51  1  0
 24 52  1  0
 25 53  1  0
 26 54  1  0
 26 55  1  0
 27 56  1  0
 27 57  1  0
 28 58  1  0
 28 59  1  0
 30 60  1  0
 31 61  1  0
 32 62  1  0
 33 63  1  0
 34 64  1  0
M  CHG  1  25   1
M  END
>  <score>  (8) 
-9.706

$$$$
=
     RDKit          3D

 64 68  0  0  0  0  0  0  0  0999 V2000
    1.1570   66.5580   69.7720 C   0  0  0  0  0  0  0  0  0  0  0  0
    0.0040   66.0690   70.3970 C   0  0  0  0  0  0  0  0  0  0  0  0
   -0.0180   64.7920   70.9770 C   0  0  0  0  0  0  0  0  0  0  0  0
    1.1530   64.0170   70.9210 C   0  0  0  0  0  0  0  0  0  0  0  0
    2.2690   64.5400   70.2910 C   0  0  0  0  0  0  0  0  0  0  0  0
    2.3280   65.8010   69.7060 C   0  0  0  0  0  0  0  0  0  0  0  0
    3.2830   63.6360   70.3490 O   0  0  0  0  0  0  0  0  0  0  0  0
    2.8580   62.5040   71.0270 N   0  0  0  0  0  0  0  0  0  0  0  0
    1.5840   62.7430   71.3720 C   0  0  0  0  0  0  0  0  0  0  0  0
    1.1560   67.8890   69.2710 N   0  0  0  0  0  0  0  0  0  0  0  0
   -0.2980   69.1860   67.6040 O   0  0  0  0  0  0  0  0  0  0  0  0
    0.6780   68.1180   67.6600 S   0  0  0  0  0  6  0  0  0  0  0  0
    0.3750   66.7990   67.1450 O   0  0  0  0  0  0  0  0  0  0  0  0
    2.1790   68.6620   66.8900 C   0  0  0  0  0  0  0  0  0  0  0  0
    3.0820   69.4560   67.6030 C   0  0  0  0  0  0  0  0  0  0  0  0
    4.2580   69.8800   66.9830 C   0  0  0  0  0  0  0  0  0  0  0  0
    4.5210   69.5170   65.6610 C   0  0  0  0  0  0  0  0  0  0  0  0
    3.6090   68.7350   64.9500 C   0  0  0  0  0  0  0  0  0  0  0  0
    2.4320   68.3070   65.5610 C   0  0  0  0  0  0  0  0  0  0  0  0
    0.8280   61.7250   72.1540 C   0  0  0  0  0  0  0  0  0  0  0  0
    1.6290   60.4240   72.3190 C   0  0  0  0  0  0  0  0  0  0  0  0
    1.2840   59.6480   73.6070 C   0  0  0  0  0  0  0  0  0  0  0  0
    0.9460   58.1770   73.2900 C   0  0  0  0  0  0  0  0  0  0  0  0
    2.1680   57.2760   73.3600 C   0  0  0  0  0  0  0  0  0  0  0  0
    2.7920   57.3110   74.7390 N   0  0  0  0  0  4  0  0  0  0  0  0
    2.4430   58.5340   75.5620 C   0  0  0  0  0  0  0  0  0  0  0  0
    2.4100   59.7540   74.6520 C   0  0  0  0  0  0  0  0  0  0  0  0
    2.6750   56.0090   75.5160 C   0  0  0  0  0  0  0  0  0  0  0  0
    1.4870   55.1440   75.1930 C   0  0  0  0  0  0  0  0  0  0  0  0
    0.2250   55.4350   75.7390 C   0  0  0  0  0  0  0  0  0  0  0  0
   -0.8840   54.6450   75.4300 C   0  0  0  0  0  0  0  0  0  0  0  0
   -0.7460   53.5520   74.5800 C   0  0  0  0  0  0  0  0  0  0  0  0
    0.5020   53.2390   74.0450 C   0  0  0  0  0  0  0  0  0  0  0  0
    1.6130   54.0280   74.3520 C   0  0  0  0  0  0  0  0  0  0  0  0
   -0.8991   66.6960   70.4339 H   0  0  0  0  0  0  0  0  0  0  0  0
   -0.9272   64.4076   71.4625 H   0  0  0  0  0  0  0  0  0  0  0  0
    3.2408   66.1780   69.2215 H   0  0  0  0  0  0  0  0  0  0  0  0
    1.4350   68.6836   69.8640 H   0  0  0  0  0  0  0  0  0  0  0  0
    2.8676   69.7438   68.6428 H   0  0  0  0  0  0  0  0  0  0  0  0
    4.9782   70.5006   67.5363 H   0  0  0  0  0  0  0  0  0  0  0  0
    5.4515   69.8488   65.1771 H   0  0  0  0  0  0  0  0  0  0  0  0
    3.8196   68.4565   63.9069 H   0  0  0  0  0  0  0  0  0  0  0  0
    1.7080   67.6952   65.0029 H   0  0  0  0  0  0  0  0  0  0  0  0
    0.6046   62.1347   73.1501 H   0  0  0  0  0  0  0  0  0  0  0  0
   -0.0972   61.4906   71.6071 H   0  0  0  0  0  0  0  0  0  0  0  0
    1.4211   59.7752   71.4554 H   0  0  0  0  0  0  0  0  0  0  0  0
    2.6908   60.7039   72.3845 H   0  0  0  0  0  0  0  0  0  0  0  0
    0.3892   60.1125   74.0470 H   0  0  0  0  0  0  0  0  0  0  0  0
    0.2016   57.8205   74.0172 H   0  0  0  0  0  0  0  0  0  0  0  0
    0.5559   58.1354   72.2623 H   0  0  0  0  0  0  0  0  0  0  0  0
    1.8672   56.2437   73.1278 H   0  0  0  0  0  0  0  0  0  0  0  0
    2.9096   57.6354   72.6314 H   0  0  0  0  0  0  0  0  0  0  0  0
    3.7973   57.4115   74.5386 H   0  0  0  0  0  0  0  0  0  0  0  0
    1.4562   58.3952   76.0279 H   0  0  0  0  0  0  0  0  0  0  0  0
    3.1979   58.6789   76.3489 H   0  0  0  0  0  0  0  0  0  0  0  0
    2.2456   60.6526   75.2647 H   0  0  0  0  0  0  0  0  0  0  0  0
    3.3707   59.8136   74.1195 H   0  0  0  0  0  0  0  0  0  0  0  0
    3.5824   55.4190   75.3197 H   0  0  0  0  0  0  0  0  0  0  0  0
    2.5445   56.3056   76.5672 H   0  0  0  0  0  0  0  0  0  0  0  0
    0.1099   56.2938   76.4166 H   0  0  0  0  0  0  0  0  0  0  0  0
   -1.8676   54.8869   75.8589 H   0  0  0  0  0  0  0  0  0  0  0  0
   -1.6219   52.9352   74.3304 H   0  0  0  0  0  0  0  0  0  0  0  0
    0.6124   52.3696   73.3802 H   0  0  0  0  0  0  0  0  0  0  0  0
    2.5962   53.7719   73.9304 H   0  0  0  0  0  0  0  0  0  0  0  0
  2  1  2  0
  3  2  1  0
  4  3  2  0
  5  4  1  0
  6  5  2  0
  6  1  1  0
  7  5  1  0
  8  7  1  0
  9  8  2  0
  9  4  1  0
 10  1  1  0
 12 11  2  0
 12 10  1  0
 13 12  2  0
 14 12  1  0
 15 14  2  0
 16 15  1  0
 17 16  2  0
 18 17  1  0
 19 18  2  0
 19 14  1  0
 20  9  1  0
 21 20  1  0
 22 21  1  0
 23 22  1  0
 24 23  1  0
 25 24  1  0
 26 25  1  0
 27 26  1  0
 27 22  1  0
 28 25  1  0
 29 28  1  0
 30 29  2  0
 31 30  1  0
 32 31  2  0
 33 32  1  0
 34 29  1  0
 34 33  2  0
  2 35  1  0
  3 36  1  0
  6 37  1  0
 10 38  1  0
 15 39  1  0
 16 40  1  0
 17 41  1  0
 18 42  1  0
 19 43  1  0
 20 44  1  0
 20 45  1  0
 21 46  1  0
 21 47  1  0
 22 48  1  0
 23 49  1  0
 23 50  1  0
 24 51  1  0
 24 52  1  0
 25 53  1  0
 26 54  1  0
 26 55  1  0
 27 56  1  0
 27 57  1  0
 28 58  1  0
 28 59  1  0
 30 60  1  0
 31 61  1  0
 32 62  1  0
 33 63  1  0
 34 64  1  0
M  CHG  1  25   1
M  END
>  <score>  (9) 
-9.543

$$$$
