=
     RDKit          3D

 53 53  0  0  0  0  0  0  0  0999 V2000
    1.4010   68.8510   64.8800 C   0  0  0  0  0  0  0  0  0  0  0  0
    1.8710   68.6710   63.5750 C   0  0  0  0  0  0  0  0  0  0  0  0
    3.2500   68.6740   63.3270 C   0  0  0  0  0  0  0  0  0  0  0  0
    4.1230   68.9870   64.3750 C   0  0  0  0  0  0  0  0  0  0  0  0
    3.6340   69.0740   65.6770 C   0  0  0  0  0  0  0  0  0  0  0  0
    2.2710   69.0580   65.9440 C   0  0  0  0  0  0  0  0  0  0  0  0
    0.0300   68.7840   65.1550 O   0  0  0  0  0  0  0  0  0  0  0  0
    0.3940   66.8140   66.3180 O   0  0  0  0  0  0  0  0  0  0  0  0
   -0.3460   67.7470   66.0130 C   0  0  0  0  0  0  0  0  0  0  0  0
   -1.6450   67.8840   66.4790 N   0  0  0  0  0  0  0  0  0  0  0  0
   -2.4580   69.0630   66.2230 C   0  0  0  0  0  0  0  0  0  0  0  0
   -2.1330   66.9680   67.4930 C   0  0  0  0  0  0  0  0  0  0  0  0
    4.5240   69.0730   66.7560 O   0  0  0  0  0  0  0  0  0  0  0  0
    5.2930   70.2400   66.8560 C   0  0  0  0  0  0  0  0  0  0  0  0
    6.0530   70.6400   65.9670 O   0  0  0  0  0  0  0  0  0  0  0  0
    5.0980   70.9100   68.0550 N   0  0  0  0  0  0  0  0  0  0  0  0
    4.3030   70.3560   69.1410 C   0  0  0  0  0  0  0  0  0  0  0  0
    5.9390   72.0450   68.3830 C   0  0  0  0  0  0  0  0  0  0  0  0
    3.7830   68.1020   62.0340 C   0  0  1  0  0  0  0  0  0  0  0  0
    4.3670   69.1300   61.2240 O   0  0  0  0  0  0  0  0  0  0  0  0
    4.8990   67.0640   62.3420 C   0  0  0  0  0  0  0  0  0  0  0  0
    4.2750   65.7100   62.6150 N   0  0  0  0  0  4  0  0  0  0  0  0
    4.4210   65.1750   64.0010 C   0  0  0  0  0  0  0  0  0  0  0  0
    3.0670   65.2710   64.6940 C   0  0  0  0  0  0  0  0  0  0  0  0
    4.9150   63.7360   63.9450 C   0  0  0  0  0  0  0  0  0  0  0  0
    1.1611   68.5277   62.7470 H   0  0  0  0  0  0  0  0  0  0  0  0
    5.1896   69.1634   64.1721 H   0  0  0  0  0  0  0  0  0  0  0  0
    1.8918   69.2046   66.9661 H   0  0  0  0  0  0  0  0  0  0  0  0
   -2.7665   69.5104   67.1794 H   0  0  0  0  0  0  0  0  0  0  0  0
   -1.8717   69.7949   65.6480 H   0  0  0  0  0  0  0  0  0  0  0  0
   -3.3505   68.7752   65.6480 H   0  0  0  0  0  0  0  0  0  0  0  0
   -1.9155   67.3762   68.4911 H   0  0  0  0  0  0  0  0  0  0  0  0
   -3.2194   66.8390   67.3783 H   0  0  0  0  0  0  0  0  0  0  0  0
   -1.6340   65.9944   67.3783 H   0  0  0  0  0  0  0  0  0  0  0  0
    4.7376   70.6589   70.1050 H   0  0  0  0  0  0  0  0  0  0  0  0
    3.2718   70.7321   69.0694 H   0  0  0  0  0  0  0  0  0  0  0  0
    4.2988   69.2583   69.0694 H   0  0  0  0  0  0  0  0  0  0  0  0
    6.0120   72.1435   69.4761 H   0  0  0  0  0  0  0  0  0  0  0  0
    6.9431   71.8915   67.9608 H   0  0  0  0  0  0  0  0  0  0  0  0
    5.4998   72.9609   67.9608 H   0  0  0  0  0  0  0  0  0  0  0  0
    2.9412   67.6353   61.5015 H   0  0  0  0  0  0  0  0  0  0  0  0
    4.7620   69.8254   61.8075 H   0  0  0  0  0  0  0  0  0  0  0  0
    5.5758   66.9874   61.4782 H   0  0  0  0  0  0  0  0  0  0  0  0
    5.4655   67.3895   63.2270 H   0  0  0  0  0  0  0  0  0  0  0  0
    3.2677   65.7834   62.4127 H   0  0  0  0  0  0  0  0  0  0  0  0
    4.7860   65.0487   62.0130 H   0  0  0  0  0  0  0  0  0  0  0  0
    5.1590   65.7592   64.5703 H   0  0  0  0  0  0  0  0  0  0  0  0
    3.2116   65.2607   65.7844 H   0  0  0  0  0  0  0  0  0  0  0  0
    2.5696   66.2067   64.3989 H   0  0  0  0  0  0  0  0  0  0  0  0
    2.4425   64.4149   64.3989 H   0  0  0  0  0  0  0  0  0  0  0  0
    5.0464   63.3534   64.9679 H   0  0  0  0  0  0  0  0  0  0  0  0
    4.1783   63.1159   63.4133 H   0  0  0  0  0  0  0  0  0  0  0  0
    5.8773   63.6991   63.4133 H   0  0  0  0  0  0  0  0  0  0  0  0
  2  1  2  0
  3  2  1  0
  4  3  2  0
  5  4  1  0
  6  1  1  0
  6  5  2  0
  7  1  1  0
  9  7  1  0
  9  8  2  0
 10  9  1  0
 11 10  1  0
 12 10  1  0
 13  5  1  0
 14 13  1  0
 15 14  2  0
 16 14  1  0
 17 16  1  0
 18 16  1  0
 19  3  1  0
 20 19  1  0
 21 19  1  0
 22 21  1  0
 23 22  1  0
 24 23  1  0
 25 23  1  0
  2 26  1  0
  4 27  1  0
  6 28  1  0
 11 29  1  0
 11 30  1  0
 11 31  1  0
 12 32  1  0
 12 33  1  0
 12 34  1  0
 17 35  1  0
 17 36  1  0
 17 37  1  0
 18 38  1  0
 18 39  1  0
 18 40  1  0
 19 41  1  6
 20 42  1  0
 21 43  1  0
 21 44  1  0
 22 45  1  0
 22 46  1  0
 23 47  1  0
 24 48  1  0
 24 49  1  0
 24 50  1  0
 25 51  1  0
 25 52  1  0
 25 53  1  0
M  CHG  1  22   1
M  END
>  <score>  (1) 
-8.671

$$$$
=
     RDKit          3D

 53 53  0  0  0  0  0  0  0  0999 V2000
    3.8290   69.4520   66.1210 C   0  0  0  0  0  0  0  0  0  0  0  0
    4.1960   68.8960   64.8920 C   0  0  0  0  0  0  0  0  0  0  0  0
    3.4790   67.8050   64.3820 C   0  0  0  0  0  0  0  0  0  0  0  0
    2.4920   67.2150   65.1780 C   0  0  0  0  0  0  0  0  0  0  0  0
    2.0900   67.8420   66.3560 C   0  0  0  0  0  0  0  0  0  0  0  0
    2.7780   68.9340   66.8690 C   0  0  0  0  0  0  0  0  0  0  0  0
    4.4900   70.5840   66.6130 O   0  0  0  0  0  0  0  0  0  0  0  0
    6.6640   69.8450   66.9200 O   0  0  0  0  0  0  0  0  0  0  0  0
    5.6250   70.3120   67.3810 C   0  0  0  0  0  0  0  0  0  0  0  0
    5.4480   70.6240   68.7220 N   0  0  0  0  0  0  0  0  0  0  0  0
    4.2670   71.3060   69.2270 C   0  0  0  0  0  0  0  0  0  0  0  0
    6.5820   70.5370   69.6230 C   0  0  0  0  0  0  0  0  0  0  0  0
    0.9090   67.4410   66.9900 O   0  0  0  0  0  0  0  0  0  0  0  0
   -0.2540   67.9360   66.3850 C   0  0  0  0  0  0  0  0  0  0  0  0
   -0.2520   68.6810   65.3990 O   0  0  0  0  0  0  0  0  0  0  0  0
   -1.4120   67.4880   67.0030 N   0  0  0  0  0  0  0  0  0  0  0  0
   -1.3940   66.7220   68.2400 C   0  0  0  0  0  0  0  0  0  0  0  0
   -2.6930   68.0370   66.6020 C   0  0  0  0  0  0  0  0  0  0  0  0
    3.5940   67.4470   62.9180 C   0  0  1  0  0  0  0  0  0  0  0  0
    3.9160   68.6030   62.1350 O   0  0  0  0  0  0  0  0  0  0  0  0
    4.7410   66.4170   62.7190 C   0  0  0  0  0  0  0  0  0  0  0  0
    4.2120   65.0150   62.9420 N   0  0  0  0  0  4  0  0  0  0  0  0
    4.8740   64.2130   64.0120 C   0  0  0  0  0  0  0  0  0  0  0  0
    3.8260   63.8640   65.0630 C   0  0  0  0  0  0  0  0  0  0  0  0
    5.4910   62.9600   63.4070 C   0  0  0  0  0  0  0  0  0  0  0  0
    5.0434   69.3127   64.3279 H   0  0  0  0  0  0  0  0  0  0  0  0
    2.0353   66.2610   64.8759 H   0  0  0  0  0  0  0  0  0  0  0  0
    2.4998   69.3754   67.8374 H   0  0  0  0  0  0  0  0  0  0  0  0
    4.2811   71.2979   70.3269 H   0  0  0  0  0  0  0  0  0  0  0  0
    4.2624   72.3458   68.8680 H   0  0  0  0  0  0  0  0  0  0  0  0
    3.3642   70.7902   68.8680 H   0  0  0  0  0  0  0  0  0  0  0  0
    6.2265   70.5643   70.6636 H   0  0  0  0  0  0  0  0  0  0  0  0
    7.1209   69.5949   69.4442 H   0  0  0  0  0  0  0  0  0  0  0  0
    7.2583   71.3859   69.4442 H   0  0  0  0  0  0  0  0  0  0  0  0
   -1.4102   67.4104   69.0978 H   0  0  0  0  0  0  0  0  0  0  0  0
   -2.2770   66.0672   68.2787 H   0  0  0  0  0  0  0  0  0  0  0  0
   -0.4812   66.1094   68.2787 H   0  0  0  0  0  0  0  0  0  0  0  0
   -3.2805   68.2888   67.4973 H   0  0  0  0  0  0  0  0  0  0  0  0
   -2.5313   68.9449   66.0023 H   0  0  0  0  0  0  0  0  0  0  0  0
   -3.2389   67.2938   66.0023 H   0  0  0  0  0  0  0  0  0  0  0  0
    2.6273   67.0316   62.5973 H   0  0  0  0  0  0  0  0  0  0  0  0
    4.1270   69.3606   62.7364 H   0  0  0  0  0  0  0  0  0  0  0  0
    5.1344   66.5009   61.6952 H   0  0  0  0  0  0  0  0  0  0  0  0
    5.5448   66.6225   63.4413 H   0  0  0  0  0  0  0  0  0  0  0  0
    3.2134   65.0924   63.1822 H   0  0  0  0  0  0  0  0  0  0  0  0
    4.4048   64.5096   62.0655 H   0  0  0  0  0  0  0  0  0  0  0  0
    5.6835   64.7871   64.4864 H   0  0  0  0  0  0  0  0  0  0  0  0
    4.2522   64.0059   66.0671 H   0  0  0  0  0  0  0  0  0  0  0  0
    2.9511   64.5193   64.9401 H   0  0  0  0  0  0  0  0  0  0  0  0
    3.5186   62.8150   64.9401 H   0  0  0  0  0  0  0  0  0  0  0  0
    5.8217   62.2883   64.2129 H   0  0  0  0  0  0  0  0  0  0  0  0
    4.7428   62.4463   62.7854 H   0  0  0  0  0  0  0  0  0  0  0  0
    6.3543   63.2398   62.7854 H   0  0  0  0  0  0  0  0  0  0  0  0
  2  1  2  0
  3  2  1  0
  4  3  2  0
  5  4  1  0
  6  1  1  0
  6  5  2  0
  7  1  1  0
  9  7  1  0
  9  8  2  0
 10  9  1  0
 11 10  1  0
 12 10  1  0
 13  5  1  0
 14 13  1  0
 15 14  2  0
 16 14  1  0
 17 16  1  0
 18 16  1  0
 19  3  1  0
 20 19  1  0
 21 19  1  0
 22 21  1  0
 23 22  1  0
 24 23  1  0
 25 23  1  0
  2 26  1  0
  4 27  1  0
  6 28  1  0
 11 29  1  0
 11 30  1  0
 11 31  1  0
 12 32  1  0
 12 33  1  0
 12 34  1  0
 17 35  1  0
 17 36  1  0
 17 37  1  0
 18 38  1  0
 18 39  1  0
 18 40  1  0
 19 41  1  6
 20 42  1  0
 21 43  1  0
 21 44  1  0
 22 45  1  0
 22 46  1  0
 23 47  1  0
 24 48  1  0
 24 49  1  0
 24 50  1  0
 25 51  1  0
 25 52  1  0
 25 53  1  0
M  CHG  1  22   1
M  END
>  <score>  (2) 
-8.424

$$$$
=
     RDKit          3D

 53 53  0  0  0  0  0  0  0  0999 V2000
    0.8750   66.8290   68.8410 C   0  0  0  0  0  0  0  0  0  0  0  0
   -0.3800   66.8380   68.2220 C   0  0  0  0  0  0  0  0  0  0  0  0
   -0.8200   67.9920   67.5610 C   0  0  0  0  0  0  0  0  0  0  0  0
   -0.0460   69.1550   67.6470 C   0  0  0  0  0  0  0  0  0  0  0  0
    1.2350   69.0930   68.1930 C   0  0  0  0  0  0  0  0  0  0  0  0
    1.6940   67.9520   68.8390 C   0  0  0  0  0  0  0  0  0  0  0  0
    1.3580   65.6630   69.4470 O   0  0  0  0  0  0  0  0  0  0  0  0
   -0.0060   66.0930   71.2700 O   0  0  0  0  0  0  0  0  0  0  0  0
    0.7450   65.3350   70.6590 C   0  0  0  0  0  0  0  0  0  0  0  0
    1.0780   64.0620   71.0980 N   0  0  0  0  0  0  0  0  0  0  0  0
    1.8520   63.1250   70.2970 C   0  0  0  0  0  0  0  0  0  0  0  0
    0.4080   63.5180   72.2640 C   0  0  0  0  0  0  0  0  0  0  0  0
    2.1260   70.1550   68.0040 O   0  0  0  0  0  0  0  0  0  0  0  0
    3.2570   69.8150   67.2500 C   0  0  0  0  0  0  0  0  0  0  0  0
    3.2110   69.2030   66.1780 O   0  0  0  0  0  0  0  0  0  0  0  0
    4.4380   70.2540   67.8310 N   0  0  0  0  0  0  0  0  0  0  0  0
    4.4850   70.8540   69.1560 C   0  0  0  0  0  0  0  0  0  0  0  0
    5.7080   69.8430   67.2630 C   0  0  0  0  0  0  0  0  0  0  0  0
   -1.9600   67.9060   66.5730 C   0  0  1  0  0  0  0  0  0  0  0  0
   -3.2230   67.9470   67.2490 O   0  0  0  0  0  0  0  0  0  0  0  0
   -1.9090   69.1240   65.6080 C   0  0  0  0  0  0  0  0  0  0  0  0
   -1.4090   68.6770   64.2490 N   0  0  0  0  0  4  0  0  0  0  0  0
   -0.0240   69.0930   63.8780 C   0  0  0  0  0  0  0  0  0  0  0  0
    0.9180   67.9340   64.1820 C   0  0  0  0  0  0  0  0  0  0  0  0
    0.0190   69.4720   62.4040 C   0  0  0  0  0  0  0  0  0  0  0  0
   -1.0183   65.9427   68.2544 H   0  0  0  0  0  0  0  0  0  0  0  0
   -0.4467   70.1135   67.2854 H   0  0  0  0  0  0  0  0  0  0  0  0
    2.6762   67.9377   69.3341 H   0  0  0  0  0  0  0  0  0  0  0  0
    2.4104   62.4490   70.9612 H   0  0  0  0  0  0  0  0  0  0  0  0
    1.1728   62.5370   69.6623 H   0  0  0  0  0  0  0  0  0  0  0  0
    2.5577   63.6810   69.6623 H   0  0  0  0  0  0  0  0  0  0  0  0
    0.8858   63.9059   73.1757 H   0  0  0  0  0  0  0  0  0  0  0  0
   -0.6510   63.8150   72.2502 H   0  0  0  0  0  0  0  0  0  0  0  0
    0.4812   62.4205   72.2502 H   0  0  0  0  0  0  0  0  0  0  0  0
    4.4231   70.0638   69.9187 H   0  0  0  0  0  0  0  0  0  0  0  0
    5.4291   71.4057   69.2754 H   0  0  0  0  0  0  0  0  0  0  0  0
    3.6383   71.5460   69.2754 H   0  0  0  0  0  0  0  0  0  0  0  0
    6.4153   69.6141   68.0737 H   0  0  0  0  0  0  0  0  0  0  0  0
    5.5593   68.9471   66.6423 H   0  0  0  0  0  0  0  0  0  0  0  0
    6.1124   70.6561   66.6423 H   0  0  0  0  0  0  0  0  0  0  0  0
   -1.8575   66.9590   66.0227 H   0  0  0  0  0  0  0  0  0  0  0  0
   -3.0738   67.9422   68.2277 H   0  0  0  0  0  0  0  0  0  0  0  0
   -2.9174   69.5512   65.5045 H   0  0  0  0  0  0  0  0  0  0  0  0
   -1.2265   69.8841   66.0158 H   0  0  0  0  0  0  0  0  0  0  0  0
   -1.4431   67.6478   64.2262 H   0  0  0  0  0  0  0  0  0  0  0  0
   -2.0248   69.1412   63.5662 H   0  0  0  0  0  0  0  0  0  0  0  0
    0.2896   69.9736   64.4577 H   0  0  0  0  0  0  0  0  0  0  0  0
    1.0141   67.8157   65.2714 H   0  0  0  0  0  0  0  0  0  0  0  0
    0.5129   67.0084   63.7470 H   0  0  0  0  0  0  0  0  0  0  0  0
    1.9068   68.1414   63.7470 H   0  0  0  0  0  0  0  0  0  0  0  0
    0.1425   70.5609   62.3088 H   0  0  0  0  0  0  0  0  0  0  0  0
    0.8652   68.9632   61.9191 H   0  0  0  0  0  0  0  0  0  0  0  0
   -0.9197   69.1657   61.9191 H   0  0  0  0  0  0  0  0  0  0  0  0
  2  1  2  0
  3  2  1  0
  4  3  2  0
  5  4  1  0
  6  1  1  0
  6  5  2  0
  7  1  1  0
  9  7  1  0
  9  8  2  0
 10  9  1  0
 11 10  1  0
 12 10  1  0
 13  5  1  0
 14 13  1  0
 15 14  2  0
 16 14  1  0
 17 16  1  0
 18 16  1  0
 19  3  1  0
 20 19  1  0
 21 19  1  0
 22 21  1  0
 23 22  1  0
 24 23  1  0
 25 23  1  0
  2 26  1  0
  4 27  1  0
  6 28  1  0
 11 29  1  0
 11 30  1  0
 11 31  1  0
 12 32  1  0
 12 33  1  0
 12 34  1  0
 17 35  1  0
 17 36  1  0
 17 37  1  0
 18 38  1  0
 18 39  1  0
 18 40  1  0
 19 41  1  6
 20 42  1  0
 21 43  1  0
 21 44  1  0
 22 45  1  0
 22 46  1  0
 23 47  1  0
 24 48  1  0
 24 49  1  0
 24 50  1  0
 25 51  1  0
 25 52  1  0
 25 53  1  0
M  CHG  1  22   1
M  END
>  <score>  (3) 
-8.139

$$$$
=
     RDKit          3D

 53 53  0  0  0  0  0  0  0  0999 V2000
    2.2140   68.0040   65.5800 C   0  0  0  0  0  0  0  0  0  0  0  0
    1.4500   67.3090   66.5230 C   0  0  0  0  0  0  0  0  0  0  0  0
    1.4350   67.7380   67.8570 C   0  0  0  0  0  0  0  0  0  0  0  0
    2.2910   68.7770   68.2400 C   0  0  0  0  0  0  0  0  0  0  0  0
    2.9720   69.5050   67.2660 C   0  0  0  0  0  0  0  0  0  0  0  0
    2.9850   69.1040   65.9370 C   0  0  0  0  0  0  0  0  0  0  0  0
    2.1870   67.6300   64.2310 O   0  0  0  0  0  0  0  0  0  0  0  0
    0.0200   68.3630   63.8660 O   0  0  0  0  0  0  0  0  0  0  0  0
    1.1780   68.2330   63.4760 C   0  0  0  0  0  0  0  0  0  0  0  0
    1.6260   68.6670   62.2360 N   0  0  0  0  0  0  0  0  0  0  0  0
    3.0270   68.6350   61.8460 C   0  0  0  0  0  0  0  0  0  0  0  0
    0.7360   69.4450   61.3950 C   0  0  0  0  0  0  0  0  0  0  0  0
    3.5720   70.7240   67.6010 O   0  0  0  0  0  0  0  0  0  0  0  0
    4.4150   70.6510   68.7170 C   0  0  0  0  0  0  0  0  0  0  0  0
    4.0100   70.6180   69.8840 O   0  0  0  0  0  0  0  0  0  0  0  0
    5.7580   70.6040   68.3730 N   0  0  0  0  0  0  0  0  0  0  0  0
    6.2230   70.7780   67.0040 C   0  0  0  0  0  0  0  0  0  0  0  0
    6.7650   70.6910   69.4130 C   0  0  0  0  0  0  0  0  0  0  0  0
    0.3420   67.2660   68.7870 C   0  0  1  0  0  0  0  0  0  0  0  0
   -0.6140   66.4630   68.0840 O   0  0  0  0  0  0  0  0  0  0  0  0
    0.9560   66.3820   69.9090 C   0  0  0  0  0  0  0  0  0  0  0  0
    0.2090   65.0650   69.9860 N   0  0  0  0  0  4  0  0  0  0  0  0
    0.9560   63.9060   70.5580 C   0  0  0  0  0  0  0  0  0  0  0  0
    2.4350   64.2720   70.6090 C   0  0  0  0  0  0  0  0  0  0  0  0
    0.4170   63.5820   71.9440 C   0  0  0  0  0  0  0  0  0  0  0  0
    0.8635   66.4295   66.2189 H   0  0  0  0  0  0  0  0  0  0  0  0
    2.4256   69.0179   69.3048 H   0  0  0  0  0  0  0  0  0  0  0  0
    3.5873   69.6406   65.1891 H   0  0  0  0  0  0  0  0  0  0  0  0
    3.6581   68.6206   62.7468 H   0  0  0  0  0  0  0  0  0  0  0  0
    3.2207   67.7322   61.2481 H   0  0  0  0  0  0  0  0  0  0  0  0
    3.2617   69.5280   61.2481 H   0  0  0  0  0  0  0  0  0  0  0  0
    0.0584   70.0373   62.0275 H   0  0  0  0  0  0  0  0  0  0  0  0
    1.3285   70.1200   60.7599 H   0  0  0  0  0  0  0  0  0  0  0  0
    0.1463   68.7676   60.7599 H   0  0  0  0  0  0  0  0  0  0  0  0
    7.2532   71.1635   67.0129 H   0  0  0  0  0  0  0  0  0  0  0  0
    6.1983   69.8098   66.4825 H   0  0  0  0  0  0  0  0  0  0  0  0
    5.5688   71.4922   66.4825 H   0  0  0  0  0  0  0  0  0  0  0  0
    6.2786   70.6490   70.3987 H   0  0  0  0  0  0  0  0  0  0  0  0
    7.4674   69.8502   69.3145 H   0  0  0  0  0  0  0  0  0  0  0  0
    7.3128   71.6398   69.3145 H   0  0  0  0  0  0  0  0  0  0  0  0
   -0.1498   68.1561   69.2062 H   0  0  0  0  0  0  0  0  0  0  0  0
   -1.1848   65.9835   68.7354 H   0  0  0  0  0  0  0  0  0  0  0  0
    2.0154   66.1892   69.6844 H   0  0  0  0  0  0  0  0  0  0  0  0
    0.8729   66.9056   70.8728 H   0  0  0  0  0  0  0  0  0  0  0  0
   -0.6287   65.2142   70.5665 H   0  0  0  0  0  0  0  0  0  0  0  0
    0.0128   64.8062   69.0085 H   0  0  0  0  0  0  0  0  0  0  0  0
    0.8271   63.0102   69.9327 H   0  0  0  0  0  0  0  0  0  0  0  0
    2.7570   64.3517   71.6578 H   0  0  0  0  0  0  0  0  0  0  0  0
    3.0233   63.4924   70.1030 H   0  0  0  0  0  0  0  0  0  0  0  0
    2.5918   65.2360   70.1030 H   0  0  0  0  0  0  0  0  0  0  0  0
    1.0966   63.9905   72.7064 H   0  0  0  0  0  0  0  0  0  0  0  0
   -0.5803   64.0304   72.0636 H   0  0  0  0  0  0  0  0  0  0  0  0
    0.3452   62.4909   72.0636 H   0  0  0  0  0  0  0  0  0  0  0  0
  2  1  2  0
  3  2  1  0
  4  3  2  0
  5  4  1  0
  6  1  1  0
  6  5  2  0
  7  1  1  0
  9  7  1  0
  9  8  2  0
 10  9  1  0
 11 10  1  0
 12 10  1  0
 13  5  1  0
 14 13  1  0
 15 14  2  0
 16 14  1  0
 17 16  1  0
 18 16  1  0
 19  3  1  0
 20 19  1  0
 21 19  1  0
 22 21  1  0
 23 22  1  0
 24 23  1  0
 25 23  1  0
  2 26  1  0
  4 27  1  0
  6 28  1  0
 11 29  1  0
 11 30  1  0
 11 31  1  0
 12 32  1  0
 12 33  1  0
 12 34  1  0
 17 35  1  0
 17 36  1  0
 17 37  1  0
 18 38  1  0
 18 39  1  0
 18 40  1  0
 19 41  1  1
 20 42  1  0
 21 43  1  0
 21 44  1  0
 22 45  1  0
 22 46  1  0
 23 47  1  0
 24 48  1  0
 24 49  1  0
 24 50  1  0
 25 51  1  0
 25 52  1  0
 25 53  1  0
M  CHG  1  22   1
M  END
>  <score>  (4) 
-7.971

$$$$
=
     RDKit          3D

 53 53  0  0  0  0  0  0  0  0999 V2000
    3.4920   69.8510   67.1620 C   0  0  0  0  0  0  0  0  0  0  0  0
    2.3800   69.4790   67.9250 C   0  0  0  0  0  0  0  0  0  0  0  0
    1.5410   68.4520   67.4740 C   0  0  0  0  0  0  0  0  0  0  0  0
    1.7630   67.9080   66.2040 C   0  0  0  0  0  0  0  0  0  0  0  0
    2.9260   68.2340   65.5070 C   0  0  0  0  0  0  0  0  0  0  0  0
    3.7780   69.2390   65.9470 C   0  0  0  0  0  0  0  0  0  0  0  0
    4.3790   70.8280   67.6310 O   0  0  0  0  0  0  0  0  0  0  0  0
    4.0110   70.5310   69.8980 O   0  0  0  0  0  0  0  0  0  0  0  0
    4.7890   70.6610   68.9550 C   0  0  0  0  0  0  0  0  0  0  0  0
    6.1700   70.6610   69.0900 N   0  0  0  0  0  0  0  0  0  0  0  0
    7.0760   70.6730   67.9530 C   0  0  0  0  0  0  0  0  0  0  0  0
    6.7540   70.3510   70.3820 C   0  0  0  0  0  0  0  0  0  0  0  0
    3.3100   67.4730   64.3990 O   0  0  0  0  0  0  0  0  0  0  0  0
    2.8110   67.9550   63.1820 C   0  0  0  0  0  0  0  0  0  0  0  0
    1.6070   68.0480   62.9200 O   0  0  0  0  0  0  0  0  0  0  0  0
    3.8160   68.3340   62.3030 N   0  0  0  0  0  0  0  0  0  0  0  0
    5.2260   68.0940   62.5740 C   0  0  0  0  0  0  0  0  0  0  0  0
    3.4730   68.7000   60.9420 C   0  0  0  0  0  0  0  0  0  0  0  0
    0.5920   67.7780   68.4370 C   0  0  1  0  0  0  0  0  0  0  0  0
   -0.2910   66.8870   67.7440 O   0  0  0  0  0  0  0  0  0  0  0  0
    1.3990   66.9300   69.4600 C   0  0  0  0  0  0  0  0  0  0  0  0
    0.7990   65.5420   69.5570 N   0  0  0  0  0  4  0  0  0  0  0  0
    1.2130   64.7160   70.7290 C   0  0  0  0  0  0  0  0  0  0  0  0
    0.2270   63.5610   70.8700 C   0  0  0  0  0  0  0  0  0  0  0  0
    2.6340   64.2100   70.5240 C   0  0  0  0  0  0  0  0  0  0  0  0
    2.1655   69.9907   68.8748 H   0  0  0  0  0  0  0  0  0  0  0  0
    1.0238   67.2266   65.7577 H   0  0  0  0  0  0  0  0  0  0  0  0
    4.6524   69.5414   65.3521 H   0  0  0  0  0  0  0  0  0  0  0  0
    8.1155   70.6868   68.3126 H   0  0  0  0  0  0  0  0  0  0  0  0
    6.9109   69.7726   67.3431 H   0  0  0  0  0  0  0  0  0  0  0  0
    6.8871   71.5687   67.3431 H   0  0  0  0  0  0  0  0  0  0  0  0
    6.0861   70.7055   71.1809 H   0  0  0  0  0  0  0  0  0  0  0  0
    6.8882   69.2629   70.4722 H   0  0  0  0  0  0  0  0  0  0  0  0
    7.7304   70.8496   70.4722 H   0  0  0  0  0  0  0  0  0  0  0  0
    5.3908   68.0659   63.6612 H   0  0  0  0  0  0  0  0  0  0  0  0
    5.5256   67.1319   62.1328 H   0  0  0  0  0  0  0  0  0  0  0  0
    5.8270   68.9028   62.1328 H   0  0  0  0  0  0  0  0  0  0  0  0
    2.7209   69.5026   60.9566 H   0  0  0  0  0  0  0  0  0  0  0  0
    4.3743   69.0517   60.4186 H   0  0  0  0  0  0  0  0  0  0  0  0
    3.0637   67.8233   60.4186 H   0  0  0  0  0  0  0  0  0  0  0  0
    0.0125   68.5647   68.9422 H   0  0  0  0  0  0  0  0  0  0  0  0
   -0.8120   66.3612   68.4014 H   0  0  0  0  0  0  0  0  0  0  0  0
    2.4449   66.8541   69.1280 H   0  0  0  0  0  0  0  0  0  0  0  0
    1.3596   67.4143   70.4469 H   0  0  0  0  0  0  0  0  0  0  0  0
   -0.2251   65.6460   69.5940 H   0  0  0  0  0  0  0  0  0  0  0  0
    1.1491   65.0362   68.7308 H   0  0  0  0  0  0  0  0  0  0  0  0
    1.2023   65.3142   71.6521 H   0  0  0  0  0  0  0  0  0  0  0  0
    0.0522   63.3562   71.9365 H   0  0  0  0  0  0  0  0  0  0  0  0
   -0.7243   63.8300   70.3876 H   0  0  0  0  0  0  0  0  0  0  0  0
    0.6419   62.6637   70.3876 H   0  0  0  0  0  0  0  0  0  0  0  0
    3.1078   64.0413   71.5023 H   0  0  0  0  0  0  0  0  0  0  0  0
    2.6092   63.2654   69.9608 H   0  0  0  0  0  0  0  0  0  0  0  0
    3.2118   64.9576   69.9608 H   0  0  0  0  0  0  0  0  0  0  0  0
  2  1  2  0
  3  2  1  0
  4  3  2  0
  5  4  1  0
  6  1  1  0
  6  5  2  0
  7  1  1  0
  9  7  1  0
  9  8  2  0
 10  9  1  0
 11 10  1  0
 12 10  1  0
 13  5  1  0
 14 13  1  0
 15 14  2  0
 16 14  1  0
 17 16  1  0
 18 16  1  0
 19  3  1  0
 20 19  1  0
 21 19  1  0
 22 21  1  0
 23 22  1  0
 24 23  1  0
 25 23  1  0
  2 26  1  0
  4 27  1  0
  6 28  1  0
 11 29  1  0
 11 30  1  0
 11 31  1  0
 12 32  1  0
 12 33  1  0
 12 34  1  0
 17 35  1  0
 17 36  1  0
 17 37  1  0
 18 38  1  0
 18 39  1  0
 18 40  1  0
 19 41  1  1
 20 42  1  0
 21 43  1  0
 21 44  1  0
 22 45  1  0
 22 46  1  0
 23 47  1  0
 24 48  1  0
 24 49  1  0
 24 50  1  0
 25 51  1  0
 25 52  1  0
 25 53  1  0
M  CHG  1  22   1
M  END
>  <score>  (5) 
-7.916

$$$$
=
     RDKit          3D

 53 53  0  0  0  0  0  0  0  0999 V2000
    4.0740   69.5750   66.0760 C   0  0  0  0  0  0  0  0  0  0  0  0
    4.5710   69.5100   64.7700 C   0  0  0  0  0  0  0  0  0  0  0  0
    4.1280   68.4990   63.9080 C   0  0  0  0  0  0  0  0  0  0  0  0
    3.2940   67.4970   64.4160 C   0  0  0  0  0  0  0  0  0  0  0  0
    2.7470   67.6350   65.6900 C   0  0  0  0  0  0  0  0  0  0  0  0
    3.1620   68.6410   66.5530 C   0  0  0  0  0  0  0  0  0  0  0  0
    4.4540   70.6180   66.9280 O   0  0  0  0  0  0  0  0  0  0  0  0
    6.7270   70.1740   66.9310 O   0  0  0  0  0  0  0  0  0  0  0  0
    5.6970   70.4500   67.5420 C   0  0  0  0  0  0  0  0  0  0  0  0
    5.6410   70.6260   68.9180 N   0  0  0  0  0  0  0  0  0  0  0  0
    4.4480   71.0900   69.6080 C   0  0  0  0  0  0  0  0  0  0  0  0
    6.8750   70.6290   69.6810 C   0  0  0  0  0  0  0  0  0  0  0  0
    1.6830   66.8170   66.0830 O   0  0  0  0  0  0  0  0  0  0  0  0
    0.4330   67.4480   66.0260 C   0  0  0  0  0  0  0  0  0  0  0  0
   -0.0790   67.8660   64.9820 O   0  0  0  0  0  0  0  0  0  0  0  0
   -0.1780   67.5410   67.2680 N   0  0  0  0  0  0  0  0  0  0  0  0
    0.4950   67.1650   68.5030 C   0  0  0  0  0  0  0  0  0  0  0  0
   -1.3990   68.3120   67.4070 C   0  0  0  0  0  0  0  0  0  0  0  0
    4.3360   68.6360   62.4170 C   0  0  1  0  0  0  0  0  0  0  0  0
    5.5070   67.9240   61.9990 O   0  0  0  0  0  0  0  0  0  0  0  0
    3.1250   68.0200   61.6610 C   0  0  0  0  0  0  0  0  0  0  0  0
    2.2470   69.1290   61.1160 N   0  0  0  0  0  4  0  0  0  0  0  0
    0.8160   69.1190   61.5410 C   0  0  0  0  0  0  0  0  0  0  0  0
    0.7370   69.6730   62.9590 C   0  0  0  0  0  0  0  0  0  0  0  0
   -0.0120   69.9510   60.5730 C   0  0  0  0  0  0  0  0  0  0  0  0
    5.3067   70.2498   64.4215 H   0  0  0  0  0  0  0  0  0  0  0  0
    3.0713   66.6047   63.8126 H   0  0  0  0  0  0  0  0  0  0  0  0
    2.7803   68.6968   67.5831 H   0  0  0  0  0  0  0  0  0  0  0  0
    4.6058   71.0286   70.6949 H   0  0  0  0  0  0  0  0  0  0  0  0
    4.2434   72.1332   69.3255 H   0  0  0  0  0  0  0  0  0  0  0  0
    3.5923   70.4591   69.3255 H   0  0  0  0  0  0  0  0  0  0  0  0
    6.6415   70.6284   70.7559 H   0  0  0  0  0  0  0  0  0  0  0  0
    7.4618   69.7323   69.4328 H   0  0  0  0  0  0  0  0  0  0  0  0
    7.4574   71.5286   69.4328 H   0  0  0  0  0  0  0  0  0  0  0  0
   -0.1035   67.4994   69.3632 H   0  0  0  0  0  0  0  0  0  0  0  0
    0.6105   66.0717   68.5395 H   0  0  0  0  0  0  0  0  0  0  0  0
    1.4866   67.6398   68.5395 H   0  0  0  0  0  0  0  0  0  0  0  0
   -1.6236   68.4538   68.4745 H   0  0  0  0  0  0  0  0  0  0  0  0
   -1.2701   69.2928   66.9260 H   0  0  0  0  0  0  0  0  0  0  0  0
   -2.2291   67.7740   66.9260 H   0  0  0  0  0  0  0  0  0  0  0  0
    4.4440   69.7069   62.1902 H   0  0  0  0  0  0  0  0  0  0  0  0
    6.0094   67.6185   62.7955 H   0  0  0  0  0  0  0  0  0  0  0  0
    3.4900   67.4000   60.8290 H   0  0  0  0  0  0  0  0  0  0  0  0
    2.5396   67.3986   62.3546 H   0  0  0  0  0  0  0  0  0  0  0  0
    2.6554   70.0262   61.4147 H   0  0  0  0  0  0  0  0  0  0  0  0
    2.2283   68.9842   60.0964 H   0  0  0  0  0  0  0  0  0  0  0  0
    0.4116   68.0961   61.5307 H   0  0  0  0  0  0  0  0  0  0  0  0
    0.8542   68.8512   63.6808 H   0  0  0  0  0  0  0  0  0  0  0  0
    1.5391   70.4106   63.1097 H   0  0  0  0  0  0  0  0  0  0  0  0
   -0.2392   70.1570   63.1097 H   0  0  0  0  0  0  0  0  0  0  0  0
   -0.6770   70.6192   61.1398 H   0  0  0  0  0  0  0  0  0  0  0  0
    0.6578   70.5512   59.9397 H   0  0  0  0  0  0  0  0  0  0  0  0
   -0.6154   69.2841   59.9397 H   0  0  0  0  0  0  0  0  0  0  0  0
  2  1  2  0
  3  2  1  0
  4  3  2  0
  5  4  1  0
  6  1  1  0
  6  5  2  0
  7  1  1  0
  9  7  1  0
  9  8  2  0
 10  9  1  0
 11 10  1  0
 12 10  1  0
 13  5  1  0
 14 13  1  0
 15 14  2  0
 16 14  1  0
 17 16  1  0
 18 16  1  0
 19  3  1  0
 20 19  1  0
 21 19  1  0
 22 21  1  0
 23 22  1  0
 24 23  1  0
 25 23  1  0
  2 26  1  0
  4 27  1  0
  6 28  1  0
 11 29  1  0
 11 30  1  0
 11 31  1  0
 12 32  1  0
 12 33  1  0
 12 34  1  0
 17 35  1  0
 17 36  1  0
 17 37  1  0
 18 38  1  0
 18 39  1  0
 18 40  1  0
 19 41  1  1
 20 42  1  0
 21 43  1  0
 21 44  1  0
 22 45  1  0
 22 46  1  0
 23 47  1  0
 24 48  1  0
 24 49  1  0
 24 50  1  0
 25 51  1  0
 25 52  1  0
 25 53  1  0
M  CHG  1  22   1
M  END
>  <score>  (6) 
-7.907

$$$$
=
     RDKit          3D

 53 53  0  0  0  0  0  0  0  0999 V2000
    3.5600   68.5170   65.6510 C   0  0  0  0  0  0  0  0  0  0  0  0
    3.6770   69.4510   66.6850 C   0  0  0  0  0  0  0  0  0  0  0  0
    2.5640   69.7450   67.4850 C   0  0  0  0  0  0  0  0  0  0  0  0
    1.3250   69.1900   67.1460 C   0  0  0  0  0  0  0  0  0  0  0  0
    1.2570   68.1990   66.1690 C   0  0  0  0  0  0  0  0  0  0  0  0
    2.3540   67.8830   65.3770 C   0  0  0  0  0  0  0  0  0  0  0  0
    4.6780   68.1620   64.8860 O   0  0  0  0  0  0  0  0  0  0  0  0
    4.6110   69.4970   62.9950 O   0  0  0  0  0  0  0  0  0  0  0  0
    4.5440   68.3850   63.5140 C   0  0  0  0  0  0  0  0  0  0  0  0
    4.3240   67.2140   62.8020 N   0  0  0  0  0  0  0  0  0  0  0  0
    4.3890   65.8940   63.4100 C   0  0  0  0  0  0  0  0  0  0  0  0
    4.3110   67.2600   61.3520 C   0  0  0  0  0  0  0  0  0  0  0  0
    0.0990   67.4250   66.0410 O   0  0  0  0  0  0  0  0  0  0  0  0
   -1.0150   68.1440   65.5880 C   0  0  0  0  0  0  0  0  0  0  0  0
   -0.9920   68.9050   64.6140 O   0  0  0  0  0  0  0  0  0  0  0  0
   -2.1540   67.9000   66.3410 N   0  0  0  0  0  0  0  0  0  0  0  0
   -2.1310   67.1070   67.5610 C   0  0  0  0  0  0  0  0  0  0  0  0
   -3.3480   68.6880   66.1050 C   0  0  0  0  0  0  0  0  0  0  0  0
    2.7550   70.4280   68.8190 C   0  0  1  0  0  0  0  0  0  0  0  0
    3.0150   69.4680   69.8500 O   0  0  0  0  0  0  0  0  0  0  0  0
    3.9850   71.3780   68.7480 C   0  0  0  0  0  0  0  0  0  0  0  0
    5.2110   70.6660   69.2840 N   0  0  0  0  0  4  0  0  0  0  0  0
    6.5300   71.1150   68.7500 C   0  0  0  0  0  0  0  0  0  0  0  0
    7.6000   70.7820   69.7840 C   0  0  0  0  0  0  0  0  0  0  0  0
    6.8080   70.4240   67.4230 C   0  0  0  0  0  0  0  0  0  0  0  0
    4.6382   69.9529   66.8699 H   0  0  0  0  0  0  0  0  0  0  0  0
    0.4091   69.5345   67.6485 H   0  0  0  0  0  0  0  0  0  0  0  0
    2.2705   67.1533   64.5581 H   0  0  0  0  0  0  0  0  0  0  0  0
    4.3841   65.9942   64.5054 H   0  0  0  0  0  0  0  0  0  0  0  0
    3.5190   65.3007   63.0922 H   0  0  0  0  0  0  0  0  0  0  0  0
    5.3131   65.3890   63.0922 H   0  0  0  0  0  0  0  0  0  0  0  0
    4.0258   68.2691   61.0197 H   0  0  0  0  0  0  0  0  0  0  0  0
    5.3130   67.0172   60.9684 H   0  0  0  0  0  0  0  0  0  0  0  0
    3.5844   66.5286   60.9684 H   0  0  0  0  0  0  0  0  0  0  0  0
   -2.1504   67.7763   68.4338 H   0  0  0  0  0  0  0  0  0  0  0  0
   -3.0104   66.4466   67.5857 H   0  0  0  0  0  0  0  0  0  0  0  0
   -1.2148   66.4987   67.5857 H   0  0  0  0  0  0  0  0  0  0  0  0
   -3.7908   68.9803   67.0686 H   0  0  0  0  0  0  0  0  0  0  0  0
   -3.0848   69.5904   65.5337 H   0  0  0  0  0  0  0  0  0  0  0  0
   -4.0742   68.0912   65.5337 H   0  0  0  0  0  0  0  0  0  0  0  0
    1.8342   70.9851   69.0465 H   0  0  0  0  0  0  0  0  0  0  0  0
    2.8993   69.8953   70.7355 H   0  0  0  0  0  0  0  0  0  0  0  0
    4.1604   71.6718   67.7026 H   0  0  0  0  0  0  0  0  0  0  0  0
    3.7892   72.2741   69.3552 H   0  0  0  0  0  0  0  0  0  0  0  0
    5.2265   70.7962   70.3056 H   0  0  0  0  0  0  0  0  0  0  0  0
    5.1126   69.6874   68.9782 H   0  0  0  0  0  0  0  0  0  0  0  0
    6.5295   72.1997   68.5673 H   0  0  0  0  0  0  0  0  0  0  0  0
    7.1858   70.9109   70.7948 H   0  0  0  0  0  0  0  0  0  0  0  0
    7.9262   69.7399   69.6515 H   0  0  0  0  0  0  0  0  0  0  0  0
    8.4600   71.4550   69.6515 H   0  0  0  0  0  0  0  0  0  0  0  0
    7.2125   69.4185   67.6109 H   0  0  0  0  0  0  0  0  0  0  0  0
    5.8730   70.3418   66.8494 H   0  0  0  0  0  0  0  0  0  0  0  0
    7.5395   71.0122   66.8494 H   0  0  0  0  0  0  0  0  0  0  0  0
  2  1  2  0
  3  2  1  0
  4  3  2  0
  5  4  1  0
  6  1  1  0
  6  5  2  0
  7  1  1  0
  9  7  1  0
  9  8  2  0
 10  9  1  0
 11 10  1  0
 12 10  1  0
 13  5  1  0
 14 13  1  0
 15 14  2  0
 16 14  1  0
 17 16  1  0
 18 16  1  0
 19  3  1  0
 20 19  1  0
 21 19  1  0
 22 21  1  0
 23 22  1  0
 24 23  1  0
 25 23  1  0
  2 26  1  0
  4 27  1  0
  6 28  1  0
 11 29  1  0
 11 30  1  0
 11 31  1  0
 12 32  1  0
 12 33  1  0
 12 34  1  0
 17 35  1  0
 17 36  1  0
 17 37  1  0
 18 38  1  0
 18 39  1  0
 18 40  1  0
 19 41  1  1
 20 42  1  0
 21 43  1  0
 21 44  1  0
 22 45  1  0
 22 46  1  0
 23 47  1  0
 24 48  1  0
 24 49  1  0
 24 50  1  0
 25 51  1  0
 25 52  1  0
 25 53  1  0
M  CHG  1  22   1
M  END
>  <score>  (7) 
-7.807

$$$$
=
     RDKit          3D

 53 53  0  0  0  0  0  0  0  0999 V2000
    3.7710   70.1000   68.1940 C   0  0  0  0  0  0  0  0  0  0  0  0
    4.2250   69.8380   66.8970 C   0  0  0  0  0  0  0  0  0  0  0  0
    3.4500   69.0510   66.0350 C   0  0  0  0  0  0  0  0  0  0  0  0
    2.2970   68.4370   66.5370 C   0  0  0  0  0  0  0  0  0  0  0  0
    1.8240   68.7860   67.8000 C   0  0  0  0  0  0  0  0  0  0  0  0
    2.5710   69.5770   68.6630 C   0  0  0  0  0  0  0  0  0  0  0  0
    4.5000   70.9390   69.0440 O   0  0  0  0  0  0  0  0  0  0  0  0
    5.8870   71.9990   67.5210 O   0  0  0  0  0  0  0  0  0  0  0  0
    5.7430   71.3390   68.5490 C   0  0  0  0  0  0  0  0  0  0  0  0
    6.7980   70.9070   69.3410 N   0  0  0  0  0  0  0  0  0  0  0  0
    6.6060   70.2510   70.6250 C   0  0  0  0  0  0  0  0  0  0  0  0
    8.1410   71.3650   69.0400 C   0  0  0  0  0  0  0  0  0  0  0  0
    0.5270   68.4260   68.1820 O   0  0  0  0  0  0  0  0  0  0  0  0
   -0.4770   69.0620   67.4400 C   0  0  0  0  0  0  0  0  0  0  0  0
   -0.5310   70.2840   67.2610 O   0  0  0  0  0  0  0  0  0  0  0  0
   -1.4000   68.1700   66.9130 N   0  0  0  0  0  0  0  0  0  0  0  0
   -1.3970   66.7530   67.2430 C   0  0  0  0  0  0  0  0  0  0  0  0
   -2.5900   68.6790   66.2580 C   0  0  0  0  0  0  0  0  0  0  0  0
    3.7130   69.0810   64.5470 C   0  0  1  0  0  0  0  0  0  0  0  0
    5.0560   68.6730   64.2590 O   0  0  0  0  0  0  0  0  0  0  0  0
    2.7610   68.0840   63.8280 C   0  0  0  0  0  0  0  0  0  0  0  0
    2.2340   68.7120   62.5530 N   0  0  0  0  0  4  0  0  0  0  0  0
    0.7540   68.6980   62.3640 C   0  0  0  0  0  0  0  0  0  0  0  0
    0.0980   68.9310   63.7200 C   0  0  0  0  0  0  0  0  0  0  0  0
    0.3550   69.7740   61.3630 C   0  0  0  0  0  0  0  0  0  0  0  0
    5.1867   70.2483   66.5552 H   0  0  0  0  0  0  0  0  0  0  0  0
    1.7668   67.6825   65.9373 H   0  0  0  0  0  0  0  0  0  0  0  0
    2.2241   69.7835   69.6862 H   0  0  0  0  0  0  0  0  0  0  0  0
    6.8148   70.9642   71.4360 H   0  0  0  0  0  0  0  0  0  0  0  0
    5.5670   69.8986   70.7050 H   0  0  0  0  0  0  0  0  0  0  0  0
    7.2910   69.3941   70.7050 H   0  0  0  0  0  0  0  0  0  0  0  0
    8.6842   71.5502   69.9784 H   0  0  0  0  0  0  0  0  0  0  0  0
    8.6685   70.5960   68.4567 H   0  0  0  0  0  0  0  0  0  0  0  0
    8.0887   72.2961   68.4567 H   0  0  0  0  0  0  0  0  0  0  0  0
   -1.3967   66.6311   68.3362 H   0  0  0  0  0  0  0  0  0  0  0  0
   -2.2941   66.2764   66.8211 H   0  0  0  0  0  0  0  0  0  0  0  0
   -0.4979   66.2802   66.8211 H   0  0  0  0  0  0  0  0  0  0  0  0
   -3.3214   68.9918   67.0178 H   0  0  0  0  0  0  0  0  0  0  0  0
   -2.3223   69.5414   65.6298 H   0  0  0  0  0  0  0  0  0  0  0  0
   -3.0287   67.8898   65.6298 H   0  0  0  0  0  0  0  0  0  0  0  0
    3.5486   70.1109   64.1974 H   0  0  0  0  0  0  0  0  0  0  0  0
    5.5448   68.5245   65.1070 H   0  0  0  0  0  0  0  0  0  0  0  0
    3.3122   67.1644   63.5822 H   0  0  0  0  0  0  0  0  0  0  0  0
    1.9175   67.8422   64.4913 H   0  0  0  0  0  0  0  0  0  0  0  0
    2.5417   69.6949   62.5383 H   0  0  0  0  0  0  0  0  0  0  0  0
    2.6110   68.1331   61.7890 H   0  0  0  0  0  0  0  0  0  0  0  0
    0.4201   67.7293   61.9638 H   0  0  0  0  0  0  0  0  0  0  0  0
    0.8096   68.6783   64.5198 H   0  0  0  0  0  0  0  0  0  0  0  0
   -0.1939   69.9878   63.8094 H   0  0  0  0  0  0  0  0  0  0  0  0
   -0.7951   68.2951   63.8094 H   0  0  0  0  0  0  0  0  0  0  0  0
    0.0219   70.6723   61.9035 H   0  0  0  0  0  0  0  0  0  0  0  0
    1.2195   70.0258   60.7312 H   0  0  0  0  0  0  0  0  0  0  0  0
   -0.4647   69.4012   60.7312 H   0  0  0  0  0  0  0  0  0  0  0  0
  2  1  2  0
  3  2  1  0
  4  3  2  0
  5  4  1  0
  6  1  1  0
  6  5  2  0
  7  1  1  0
  9  7  1  0
  9  8  2  0
 10  9  1  0
 11 10  1  0
 12 10  1  0
 13  5  1  0
 14 13  1  0
 15 14  2  0
 16 14  1  0
 17 16  1  0
 18 16  1  0
 19  3  1  0
 20 19  1  0
 21 19  1  0
 22 21  1  0
 23 22  1  0
 24 23  1  0
 25 23  1  0
  2 26  1  0
  4 27  1  0
  6 28  1  0
 11 29  1  0
 11 30  1  0
 11 31  1  0
 12 32  1  0
 12 33  1  0
 12 34  1  0
 17 35  1  0
 17 36  1  0
 17 37  1  0
 18 38  1  0
 18 39  1  0
 18 40  1  0
 19 41  1  6
 20 42  1  0
 21 43  1  0
 21 44  1  0
 22 45  1  0
 22 46  1  0
 23 47  1  0
 24 48  1  0
 24 49  1  0
 24 50  1  0
 25 51  1  0
 25 52  1  0
 25 53  1  0
M  CHG  1  22   1
M  END
>  <score>  (8) 
-7.607

$$$$
=
     RDKit          3D

 53 53  0  0  0  0  0  0  0  0999 V2000
    3.2750   68.0210   64.5790 C   0  0  0  0  0  0  0  0  0  0  0  0
    2.2370   67.9080   65.5090 C   0  0  0  0  0  0  0  0  0  0  0  0
    2.2660   68.6780   66.6800 C   0  0  0  0  0  0  0  0  0  0  0  0
    3.4020   69.4480   66.9520 C   0  0  0  0  0  0  0  0  0  0  0  0
    4.3780   69.6090   65.9700 C   0  0  0  0  0  0  0  0  0  0  0  0
    4.3570   68.8670   64.7970 C   0  0  0  0  0  0  0  0  0  0  0  0
    3.2280   67.3110   63.3740 O   0  0  0  0  0  0  0  0  0  0  0  0
    5.2880   66.6290   62.5620 O   0  0  0  0  0  0  0  0  0  0  0  0
    4.2620   66.3890   63.1960 C   0  0  0  0  0  0  0  0  0  0  0  0
    4.0040   65.1710   63.8100 N   0  0  0  0  0  0  0  0  0  0  0  0
    2.8540   64.9490   64.6730 C   0  0  0  0  0  0  0  0  0  0  0  0
    5.0440   64.1600   63.8410 C   0  0  0  0  0  0  0  0  0  0  0  0
    5.3450   70.6100   66.1080 O   0  0  0  0  0  0  0  0  0  0  0  0
    6.3880   70.2720   66.9810 C   0  0  0  0  0  0  0  0  0  0  0  0
    7.2160   69.3840   66.7520 O   0  0  0  0  0  0  0  0  0  0  0  0
    6.4010   71.0530   68.1270 N   0  0  0  0  0  0  0  0  0  0  0  0
    5.3430   72.0020   68.4420 C   0  0  0  0  0  0  0  0  0  0  0  0
    7.3140   70.7230   69.2050 C   0  0  0  0  0  0  0  0  0  0  0  0
    1.0030   68.8680   67.4860 C   0  0  1  0  0  0  0  0  0  0  0  0
    1.1300   69.9840   68.3760 O   0  0  0  0  0  0  0  0  0  0  0  0
   -0.1870   69.1700   66.5320 C   0  0  0  0  0  0  0  0  0  0  0  0
   -1.4630   69.3130   67.3370 N   0  0  0  0  0  4  0  0  0  0  0  0
   -2.5990   68.4250   66.9500 C   0  0  0  0  0  0  0  0  0  0  0  0
   -2.9160   68.6710   65.4800 C   0  0  0  0  0  0  0  0  0  0  0  0
   -2.2220   66.9720   67.2010 C   0  0  0  0  0  0  0  0  0  0  0  0
    1.4011   67.2177   65.3225 H   0  0  0  0  0  0  0  0  0  0  0  0
    3.5243   69.9240   67.9361 H   0  0  0  0  0  0  0  0  0  0  0  0
    5.1717   68.9458   64.0621 H   0  0  0  0  0  0  0  0  0  0  0  0
    3.1682   65.0097   65.7254 H   0  0  0  0  0  0  0  0  0  0  0  0
    2.0919   65.7166   64.4730 H   0  0  0  0  0  0  0  0  0  0  0  0
    2.4324   63.9529   64.4730 H   0  0  0  0  0  0  0  0  0  0  0  0
    5.2910   63.9199   64.8857 H   0  0  0  0  0  0  0  0  0  0  0  0
    4.6888   63.2528   63.3304 H   0  0  0  0  0  0  0  0  0  0  0  0
    5.9408   64.5408   63.3304 H   0  0  0  0  0  0  0  0  0  0  0  0
    5.2436   72.0912   69.5339 H   0  0  0  0  0  0  0  0  0  0  0  0
    5.5927   72.9845   68.0151 H   0  0  0  0  0  0  0  0  0  0  0  0
    4.3933   71.6474   68.0151 H   0  0  0  0  0  0  0  0  0  0  0  0
    6.8200   70.9016   70.1715 H   0  0  0  0  0  0  0  0  0  0  0  0
    7.6018   69.6639   69.1305 H   0  0  0  0  0  0  0  0  0  0  0  0
    8.2124   71.3533   69.1305 H   0  0  0  0  0  0  0  0  0  0  0  0
    0.8293   67.9453   68.0591 H   0  0  0  0  0  0  0  0  0  0  0  0
    1.0937   69.6650   69.3125 H   0  0  0  0  0  0  0  0  0  0  0  0
    0.0089   70.1057   65.9878 H   0  0  0  0  0  0  0  0  0  0  0  0
   -0.2988   68.3427   65.8157 H   0  0  0  0  0  0  0  0  0  0  0  0
   -1.2348   69.1175   68.3222 H   0  0  0  0  0  0  0  0  0  0  0  0
   -1.7931   70.2717   67.1558 H   0  0  0  0  0  0  0  0  0  0  0  0
   -3.4920   68.6464   67.5530 H   0  0  0  0  0  0  0  0  0  0  0  0
   -3.7827   69.3436   65.3994 H   0  0  0  0  0  0  0  0  0  0  0  0
   -2.0464   69.1331   64.9897 H   0  0  0  0  0  0  0  0  0  0  0  0
   -3.1477   67.7140   64.9897 H   0  0  0  0  0  0  0  0  0  0  0  0
   -2.1741   66.7875   68.2844 H   0  0  0  0  0  0  0  0  0  0  0  0
   -2.9791   66.3136   66.7500 H   0  0  0  0  0  0  0  0  0  0  0  0
   -1.2403   66.7647   66.7500 H   0  0  0  0  0  0  0  0  0  0  0  0
  2  1  2  0
  3  2  1  0
  4  3  2  0
  5  4  1  0
  6  1  1  0
  6  5  2  0
  7  1  1  0
  9  7  1  0
  9  8  2  0
 10  9  1  0
 11 10  1  0
 12 10  1  0
 13  5  1  0
 14 13  1  0
 15 14  2  0
 16 14  1  0
 17 16  1  0
 18 16  1  0
 19  3  1  0
 20 19  1  0
 21 19  1  0
 22 21  1  0
 23 22  1  0
 24 23  1  0
 25 23  1  0
  2 26  1  0
  4 27  1  0
  6 28  1  0
 11 29  1  0
 11 30  1  0
 11 31  1  0
 12 32  1  0
 12 33  1  0
 12 34  1  0
 17 35  1  0
 17 36  1  0
 17 37  1  0
 18 38  1  0
 18 39  1  0
 18 40  1  0
 19 41  1  1
 20 42  1  0
 21 43  1  0
 21 44  1  0
 22 45  1  0
 22 46  1  0
 23 47  1  0
 24 48  1  0
 24 49  1  0
 24 50  1  0
 25 51  1  0
 25 52  1  0
 25 53  1  0
M  CHG  1  22   1
M  END
>  <score>  (9) 
-7.46

$$$$
