=
     RDKit          3D

 57 60  0  0  0  0  0  0  0  0999 V2000
    1.5870   56.6100   74.1700 C   0  0  1  0  0  0  0  0  0  0  0  0
    0.0140   56.5030   74.1220 C   0  0  1  0  0  0  0  0  0  0  0  0
   -0.7060   55.7960   75.2640 C   0  0  0  0  0  0  0  0  0  0  0  0
   -0.5100   57.9540   73.9650 C   0  0  0  0  0  0  0  0  0  0  0  0
    0.7040   58.7150   73.4460 C   0  0  2  0  0  0  0  0  0  0  0  0
    1.8600   58.1530   74.3100 C   0  0  1  0  0  0  0  0  0  0  0  0
    1.7620   58.5660   75.8060 C   0  0  0  0  0  0  0  0  0  0  0  0
    3.1870   58.6750   73.7060 C   0  0  0  0  0  0  0  0  0  0  0  0
    3.2410   60.2190   73.5620 C   0  0  1  0  0  0  0  0  0  0  0  0
    1.9990   60.8430   72.8310 C   0  0  1  0  0  0  0  0  0  0  0  0
    0.6540   60.2530   73.4130 C   0  0  1  0  0  0  0  0  0  0  0  0
   -0.5860   60.7690   72.6570 C   0  0  0  0  0  0  0  0  0  0  0  0
   -0.6320   62.2950   72.5970 C   0  0  0  0  0  0  0  0  0  0  0  0
    0.6600   62.8740   72.0780 C   0  0  0  0  0  0  0  0  0  0  0  0
    0.6610   63.6900   71.0080 C   0  0  0  0  0  0  0  0  0  0  0  0
    1.9100   64.2460   70.4490 C   0  0  0  0  0  0  0  0  0  0  0  0
    1.8940   65.0030   69.4850 O   0  0  0  0  0  0  0  0  0  0  0  0
    3.1770   63.8590   71.0990 C   0  0  0  0  0  0  0  0  0  0  0  0
    3.1870   63.0460   72.1620 C   0  0  0  0  0  0  0  0  0  0  0  0
    1.9430   62.4430   72.8190 C   0  0  2  0  0  0  0  0  0  0  0  0
    1.8820   63.0910   74.2260 C   0  0  0  0  0  0  0  0  0  0  0  0
    2.1610   60.2850   71.0600 Cl  0  0  0  0  0  0  0  0  0  0  0  0
    2.3350   55.7700   75.2370 C   0  0  0  0  0  0  0  0  0  0  0  0
    3.1250   56.2480   76.0550 O   0  0  0  0  0  0  0  0  0  0  0  0
    2.0890   54.2610   75.2360 C   0  0  0  0  0  0  0  0  0  0  0  0
    2.2830   53.7060   73.9400 O   0  0  0  0  0  0  0  0  0  0  0  0
    2.0590   56.1800   72.8790 O   0  0  0  0  0  0  0  0  0  0  0  0
    3.4380   60.7830   74.8570 O   0  0  0  0  0  0  0  0  0  0  0  0
   -0.2178   55.8337   73.2804 H   0  0  0  0  0  0  0  0  0  0  0  0
   -0.3247   56.1704   76.2255 H   0  0  0  0  0  0  0  0  0  0  0  0
   -1.7858   55.9945   75.1954 H   0  0  0  0  0  0  0  0  0  0  0  0
   -0.5272   54.7128   75.1954 H   0  0  0  0  0  0  0  0  0  0  0  0
   -1.3392   57.9969   73.2435 H   0  0  0  0  0  0  0  0  0  0  0  0
   -0.9085   58.3699   74.9021 H   0  0  0  0  0  0  0  0  0  0  0  0
    0.8061   58.5460   72.3639 H   0  0  0  0  0  0  0  0  0  0  0  0
    1.9692   57.6926   76.4418 H   0  0  0  0  0  0  0  0  0  0  0  0
    2.4976   59.3561   76.0172 H   0  0  0  0  0  0  0  0  0  0  0  0
    0.7498   58.9414   76.0172 H   0  0  0  0  0  0  0  0  0  0  0  0
    4.0141   58.3577   74.3581 H   0  0  0  0  0  0  0  0  0  0  0  0
    3.2669   58.2543   72.6928 H   0  0  0  0  0  0  0  0  0  0  0  0
    4.0864   60.4677   72.9037 H   0  0  0  0  0  0  0  0  0  0  0  0
    0.5560   60.6126   74.4479 H   0  0  0  0  0  0  0  0  0  0  0  0
   -0.5644   60.3746   71.6303 H   0  0  0  0  0  0  0  0  0  0  0  0
   -1.4792   60.4254   73.1993 H   0  0  0  0  0  0  0  0  0  0  0  0
   -1.4522   62.6006   71.9308 H   0  0  0  0  0  0  0  0  0  0  0  0
   -0.7904   62.6728   73.6179 H   0  0  0  0  0  0  0  0  0  0  0  0
   -0.2974   63.9509   70.5353 H   0  0  0  0  0  0  0  0  0  0  0  0
    4.1282   64.2448   70.7036 H   0  0  0  0  0  0  0  0  0  0  0  0
    4.1647   62.7915   72.5971 H   0  0  0  0  0  0  0  0  0  0  0  0
    1.9558   62.3071   74.9942 H   0  0  0  0  0  0  0  0  0  0  0  0
    2.7177   63.7970   74.3411 H   0  0  0  0  0  0  0  0  0  0  0  0
    0.9293   63.6286   74.3411 H   0  0  0  0  0  0  0  0  0  0  0  0
    2.7880   53.7836   75.9385 H   0  0  0  0  0  0  0  0  0  0  0  0
    1.0474   54.0790   75.5391 H   0  0  0  0  0  0  0  0  0  0  0  0
    2.6085   52.7749   74.0251 H   0  0  0  0  0  0  0  0  0  0  0  0
    2.7856   55.5180   72.9970 H   0  0  0  0  0  0  0  0  0  0  0  0
    3.2041   60.1134   75.5476 H   0  0  0  0  0  0  0  0  0  0  0  0
  2  1  1  0
  3  2  1  0
  4  2  1  0
  5  4  1  0
  6  5  1  0
  6  1  1  0
  6  7  1  1
  8  6  1  0
  9  8  1  0
 10  9  1  0
 11  5  1  0
 11 10  1  0
 12 11  1  0
 13 12  1  0
 14 13  1  0
 15 14  2  0
 16 15  1  0
 17 16  2  0
 18 16  1  0
 19 18  2  0
 20 19  1  0
 20 14  1  0
 20 10  1  0
 20 21  1  1
 10 22  1  6
 23  1  1  0
 24 23  2  0
 25 23  1  0
 26 25  1  0
  1 27  1  6
 28  9  1  0
  2 29  1  6
  3 30  1  0
  3 31  1  0
  3 32  1  0
  4 33  1  0
  4 34  1  0
  5 35  1  6
  7 36  1  0
  7 37  1  0
  7 38  1  0
  8 39  1  0
  8 40  1  0
  9 41  1  6
 11 42  1  1
 12 43  1  0
 12 44  1  0
 13 45  1  0
 13 46  1  0
 15 47  1  0
 18 48  1  0
 19 49  1  0
 21 50  1  0
 21 51  1  0
 21 52  1  0
 25 53  1  0
 25 54  1  0
 26 55  1  0
 27 56  1  0
 28 57  1  0
M  END
>  <score>  (1) 
-8.241

$$$$
=
     RDKit          3D

 57 60  0  0  0  0  0  0  0  0999 V2000
    2.8460   61.5990   70.9670 C   0  0  1  0  0  0  0  0  0  0  0  0
    3.1990   60.4410   69.9550 C   0  0  1  0  0  0  0  0  0  0  0  0
    4.5010   60.5280   69.1700 C   0  0  0  0  0  0  0  0  0  0  0  0
    3.1440   59.1250   70.7730 C   0  0  0  0  0  0  0  0  0  0  0  0
    2.3170   59.5030   71.9960 C   0  0  2  0  0  0  0  0  0  0  0  0
    2.8750   60.8970   72.3740 C   0  0  1  0  0  0  0  0  0  0  0  0
    4.3370   60.8490   72.9020 C   0  0  0  0  0  0  0  0  0  0  0  0
    1.9440   61.4910   73.4590 C   0  0  0  0  0  0  0  0  0  0  0  0
    1.7540   60.5680   74.6910 C   0  0  1  0  0  0  0  0  0  0  0  0
    1.3450   59.0940   74.3350 C   0  0  1  0  0  0  0  0  0  0  0  0
    2.2610   58.5230   73.1820 C   0  0  1  0  0  0  0  0  0  0  0  0
    1.8300   57.1110   72.7380 C   0  0  0  0  0  0  0  0  0  0  0  0
    1.7470   56.1370   73.9110 C   0  0  0  0  0  0  0  0  0  0  0  0
    0.9060   56.6850   75.0360 C   0  0  0  0  0  0  0  0  0  0  0  0
   -0.1500   55.9910   75.5000 C   0  0  0  0  0  0  0  0  0  0  0  0
   -1.0190   56.5120   76.5750 C   0  0  0  0  0  0  0  0  0  0  0  0
   -1.9650   55.8610   77.0010 O   0  0  0  0  0  0  0  0  0  0  0  0
   -0.7000   57.8460   77.1190 C   0  0  0  0  0  0  0  0  0  0  0  0
    0.3460   58.5460   76.6620 C   0  0  0  0  0  0  0  0  0  0  0  0
    1.3100   58.0760   75.5700 C   0  0  2  0  0  0  0  0  0  0  0  0
    2.6710   57.8970   76.2910 C   0  0  0  0  0  0  0  0  0  0  0  0
   -0.3960   59.2280   73.6830 Cl  0  0  0  0  0  0  0  0  0  0  0  0
    3.7090   62.8850   70.9190 C   0  0  0  0  0  0  0  0  0  0  0  0
    4.9390   62.8890   71.0250 O   0  0  0  0  0  0  0  0  0  0  0  0
    2.9730   64.2150   70.7640 C   0  0  0  0  0  0  0  0  0  0  0  0
    2.2950   64.2900   69.5160 O   0  0  0  0  0  0  0  0  0  0  0  0
    1.4880   61.9840   70.6790 O   0  0  0  0  0  0  0  0  0  0  0  0
    2.9440   60.6180   75.4760 O   0  0  0  0  0  0  0  0  0  0  0  0
    2.4594   60.5127   69.1439 H   0  0  0  0  0  0  0  0  0  0  0  0
    5.3479   60.5846   69.8697 H   0  0  0  0  0  0  0  0  0  0  0  0
    4.6077   59.6350   68.5366 H   0  0  0  0  0  0  0  0  0  0  0  0
    4.4879   61.4273   68.5366 H   0  0  0  0  0  0  0  0  0  0  0  0
    2.6542   58.3249   70.1987 H   0  0  0  0  0  0  0  0  0  0  0  0
    4.1408   58.7384   71.0317 H   0  0  0  0  0  0  0  0  0  0  0  0
    1.2487   59.4836   71.7347 H   0  0  0  0  0  0  0  0  0  0  0  0
    4.3298   60.8492   74.0020 H   0  0  0  0  0  0  0  0  0  0  0  0
    4.8282   59.9342   72.5387 H   0  0  0  0  0  0  0  0  0  0  0  0
    4.8871   61.7296   72.5387 H   0  0  0  0  0  0  0  0  0  0  0  0
    2.3739   62.4437   73.8018 H   0  0  0  0  0  0  0  0  0  0  0  0
    0.9537   61.6193   72.9977 H   0  0  0  0  0  0  0  0  0  0  0  0
    0.8984   60.9469   75.2693 H   0  0  0  0  0  0  0  0  0  0  0  0
    3.2784   58.4214   73.5878 H   0  0  0  0  0  0  0  0  0  0  0  0
    0.8409   57.1762   72.2612 H   0  0  0  0  0  0  0  0  0  0  0  0
    2.5883   56.7315   72.0373 H   0  0  0  0  0  0  0  0  0  0  0  0
    1.3016   55.1944   73.5601 H   0  0  0  0  0  0  0  0  0  0  0  0
    2.7656   55.9750   74.2934 H   0  0  0  0  0  0  0  0  0  0  0  0
   -0.3727   55.0054   75.0652 H   0  0  0  0  0  0  0  0  0  0  0  0
   -1.3315   58.2722   77.9125 H   0  0  0  0  0  0  0  0  0  0  0  0
    0.5266   59.5361   77.1060 H   0  0  0  0  0  0  0  0  0  0  0  0
    2.5147   57.9176   77.3796 H   0  0  0  0  0  0  0  0  0  0  0  0
    3.1148   56.9328   76.0024 H   0  0  0  0  0  0  0  0  0  0  0  0
    3.3490   58.7137   76.0024 H   0  0  0  0  0  0  0  0  0  0  0  0
    2.2387   64.3146   71.5769 H   0  0  0  0  0  0  0  0  0  0  0  0
    3.7134   65.0275   70.8054 H   0  0  0  0  0  0  0  0  0  0  0  0
    1.3236   64.3975   69.6741 H   0  0  0  0  0  0  0  0  0  0  0  0
    0.9974   62.1231   71.5276 H   0  0  0  0  0  0  0  0  0  0  0  0
    2.7061   60.6080   76.4369 H   0  0  0  0  0  0  0  0  0  0  0  0
  2  1  1  0
  3  2  1  0
  4  2  1  0
  5  4  1  0
  6  5  1  0
  6  1  1  0
  6  7  1  1
  8  6  1  0
  9  8  1  0
 10  9  1  0
 11  5  1  0
 11 10  1  0
 12 11  1  0
 13 12  1  0
 14 13  1  0
 15 14  2  0
 16 15  1  0
 17 16  2  0
 18 16  1  0
 19 18  2  0
 20 19  1  0
 20 14  1  0
 20 10  1  0
 20 21  1  1
 10 22  1  6
 23  1  1  0
 24 23  2  0
 25 23  1  0
 26 25  1  0
  1 27  1  6
 28  9  1  0
  2 29  1  6
  3 30  1  0
  3 31  1  0
  3 32  1  0
  4 33  1  0
  4 34  1  0
  5 35  1  6
  7 36  1  0
  7 37  1  0
  7 38  1  0
  8 39  1  0
  8 40  1  0
  9 41  1  1
 11 42  1  1
 12 43  1  0
 12 44  1  0
 13 45  1  0
 13 46  1  0
 15 47  1  0
 18 48  1  0
 19 49  1  0
 21 50  1  0
 21 51  1  0
 21 52  1  0
 25 53  1  0
 25 54  1  0
 26 55  1  0
 27 56  1  0
 28 57  1  0
M  END
>  <score>  (2) 
-7.897

$$$$
=
     RDKit          3D

 57 60  0  0  0  0  0  0  0  0999 V2000
    2.6910   62.1820   70.9390 C   0  0  1  0  0  0  0  0  0  0  0  0
    4.2610   62.1640   71.0890 C   0  0  1  0  0  0  0  0  0  0  0  0
    5.0080   63.4920   71.1240 C   0  0  0  0  0  0  0  0  0  0  0  0
    4.5600   61.3390   72.3660 C   0  0  0  0  0  0  0  0  0  0  0  0
    3.2790   60.5440   72.5830 C   0  0  2  0  0  0  0  0  0  0  0  0
    2.1710   61.5890   72.3000 C   0  0  1  0  0  0  0  0  0  0  0  0
    2.1060   62.7160   73.3690 C   0  0  0  0  0  0  0  0  0  0  0  0
    0.8210   60.8330   72.2500 C   0  0  0  0  0  0  0  0  0  0  0  0
    0.5350   59.9850   73.5170 C   0  0  1  0  0  0  0  0  0  0  0  0
    1.7090   59.0270   73.9310 C   0  0  1  0  0  0  0  0  0  0  0  0
    3.0890   59.7950   73.9140 C   0  0  1  0  0  0  0  0  0  0  0  0
    4.2790   58.8660   74.2230 C   0  0  0  0  0  0  0  0  0  0  0  0
    4.0900   58.0980   75.5300 C   0  0  0  0  0  0  0  0  0  0  0  0
    2.7590   57.3900   75.5760 C   0  0  0  0  0  0  0  0  0  0  0  0
    2.6990   56.0630   75.7890 C   0  0  0  0  0  0  0  0  0  0  0  0
    1.4170   55.3290   75.8040 C   0  0  0  0  0  0  0  0  0  0  0  0
    1.3760   54.1240   76.0180 O   0  0  0  0  0  0  0  0  0  0  0  0
    0.1870   56.1050   75.5540 C   0  0  0  0  0  0  0  0  0  0  0  0
    0.2360   57.4250   75.3380 C   0  0  0  0  0  0  0  0  0  0  0  0
    1.5140   58.2680   75.3270 C   0  0  2  0  0  0  0  0  0  0  0  0
    1.3810   59.2080   76.5530 C   0  0  0  0  0  0  0  0  0  0  0  0
    1.7510   57.7250   72.5980 Cl  0  0  0  0  0  0  0  0  0  0  0  0
    2.0170   63.5300   70.5760 C   0  0  0  0  0  0  0  0  0  0  0  0
    2.6160   64.6090   70.5450 O   0  0  0  0  0  0  0  0  0  0  0  0
    0.5190   63.5040   70.2740 C   0  0  0  0  0  0  0  0  0  0  0  0
    0.0580   64.7740   69.8290 O   0  0  0  0  0  0  0  0  0  0  0  0
    2.3770   61.2500   69.8870 O   0  0  0  0  0  0  0  0  0  0  0  0
    0.1690   60.8690   74.5750 O   0  0  0  0  0  0  0  0  0  0  0  0
    4.6485   61.7293   70.1558 H   0  0  0  0  0  0  0  0  0  0  0  0
    5.1760   63.7907   72.1692 H   0  0  0  0  0  0  0  0  0  0  0  0
    5.9764   63.3815   70.6140 H   0  0  0  0  0  0  0  0  0  0  0  0
    4.4108   64.2622   70.6140 H   0  0  0  0  0  0  0  0  0  0  0  0
    5.4174   60.6681   72.2090 H   0  0  0  0  0  0  0  0  0  0  0  0
    4.8265   61.9666   73.2292 H   0  0  0  0  0  0  0  0  0  0  0  0
    3.2762   59.6683   71.9173 H   0  0  0  0  0  0  0  0  0  0  0  0
    2.1317   62.2699   74.3741 H   0  0  0  0  0  0  0  0  0  0  0  0
    2.9668   63.3895   73.2446 H   0  0  0  0  0  0  0  0  0  0  0  0
    1.1735   63.2860   73.2446 H   0  0  0  0  0  0  0  0  0  0  0  0
    0.0134   61.5712   72.1364 H   0  0  0  0  0  0  0  0  0  0  0  0
    0.8739   60.1355   71.4011 H   0  0  0  0  0  0  0  0  0  0  0  0
   -0.2948   59.3010   73.2854 H   0  0  0  0  0  0  0  0  0  0  0  0
    3.0619   60.5403   74.7225 H   0  0  0  0  0  0  0  0  0  0  0  0
    4.3868   58.1436   73.4005 H   0  0  0  0  0  0  0  0  0  0  0  0
    5.1771   59.4925   74.3273 H   0  0  0  0  0  0  0  0  0  0  0  0
    4.8933   57.3525   75.6243 H   0  0  0  0  0  0  0  0  0  0  0  0
    4.1219   58.8205   76.3589 H   0  0  0  0  0  0  0  0  0  0  0  0
    3.6333   55.5074   75.9572 H   0  0  0  0  0  0  0  0  0  0  0  0
   -0.7853   55.5906   75.5450 H   0  0  0  0  0  0  0  0  0  0  0  0
   -0.7160   57.9446   75.1541 H   0  0  0  0  0  0  0  0  0  0  0  0
    1.4644   58.6184   77.4779 H   0  0  0  0  0  0  0  0  0  0  0  0
    2.1814   59.9621   76.5254 H   0  0  0  0  0  0  0  0  0  0  0  0
    0.4028   59.7104   76.5254 H   0  0  0  0  0  0  0  0  0  0  0  0
    0.3248   62.7576   69.4897 H   0  0  0  0  0  0  0  0  0  0  0  0
   -0.0167   63.2456   71.1994 H   0  0  0  0  0  0  0  0  0  0  0  0
   -0.1486   65.3431   70.6123 H   0  0  0  0  0  0  0  0  0  0  0  0
    2.0874   60.3903   70.2834 H   0  0  0  0  0  0  0  0  0  0  0  0
    0.3492   60.4339   75.4458 H   0  0  0  0  0  0  0  0  0  0  0  0
  2  1  1  0
  3  2  1  0
  4  2  1  0
  5  4  1  0
  6  5  1  0
  6  1  1  0
  6  7  1  1
  8  6  1  0
  9  8  1  0
 10  9  1  0
 11  5  1  0
 11 10  1  0
 12 11  1  0
 13 12  1  0
 14 13  1  0
 15 14  2  0
 16 15  1  0
 17 16  2  0
 18 16  1  0
 19 18  2  0
 20 19  1  0
 20 14  1  0
 20 10  1  0
 20 21  1  1
 10 22  1  6
 23  1  1  0
 24 23  2  0
 25 23  1  0
 26 25  1  0
  1 27  1  6
 28  9  1  0
  2 29  1  6
  3 30  1  0
  3 31  1  0
  3 32  1  0
  4 33  1  0
  4 34  1  0
  5 35  1  6
  7 36  1  0
  7 37  1  0
  7 38  1  0
  8 39  1  0
  8 40  1  0
  9 41  1  6
 11 42  1  1
 12 43  1  0
 12 44  1  0
 13 45  1  0
 13 46  1  0
 15 47  1  0
 18 48  1  0
 19 49  1  0
 21 50  1  0
 21 51  1  0
 21 52  1  0
 25 53  1  0
 25 54  1  0
 26 55  1  0
 27 56  1  0
 28 57  1  0
M  END
>  <score>  (3) 
-7.523

$$$$
=
     RDKit          3D

 57 60  0  0  0  0  0  0  0  0999 V2000
    3.3500   60.7500   72.1810 C   0  0  1  0  0  0  0  0  0  0  0  0
    2.2000   61.7260   71.7200 C   0  0  1  0  0  0  0  0  0  0  0  0
    2.1410   62.1450   70.2560 C   0  0  0  0  0  0  0  0  0  0  0  0
    0.8700   61.0550   72.1480 C   0  0  0  0  0  0  0  0  0  0  0  0
    1.3040   60.0570   73.2140 C   0  0  2  0  0  0  0  0  0  0  0  0
    2.5890   59.4410   72.6090 C   0  0  1  0  0  0  0  0  0  0  0  0
    2.3150   58.5640   71.3540 C   0  0  0  0  0  0  0  0  0  0  0  0
    3.2580   58.5850   73.7120 C   0  0  0  0  0  0  0  0  0  0  0  0
    2.3160   57.5190   74.3300 C   0  0  1  0  0  0  0  0  0  0  0  0
    0.9300   58.0820   74.8080 C   0  0  1  0  0  0  0  0  0  0  0  0
    0.2900   59.0060   73.6990 C   0  0  1  0  0  0  0  0  0  0  0  0
   -1.0280   59.6540   74.1670 C   0  0  0  0  0  0  0  0  0  0  0  0
   -2.0330   58.6220   74.6740 C   0  0  0  0  0  0  0  0  0  0  0  0
   -1.4230   57.7080   75.7080 C   0  0  0  0  0  0  0  0  0  0  0  0
   -1.9850   57.5840   76.9250 C   0  0  0  0  0  0  0  0  0  0  0  0
   -1.3960   56.7270   77.9750 C   0  0  0  0  0  0  0  0  0  0  0  0
   -1.9280   56.6090   79.0720 O   0  0  0  0  0  0  0  0  0  0  0  0
   -0.1440   56.0170   77.6490 C   0  0  0  0  0  0  0  0  0  0  0  0
    0.4230   56.1360   76.4430 C   0  0  0  0  0  0  0  0  0  0  0  0
   -0.1270   56.9810   75.2910 C   0  0  2  0  0  0  0  0  0  0  0  0
   -0.5250   55.9540   74.2000 C   0  0  0  0  0  0  0  0  0  0  0  0
    1.3330   59.1430   76.2870 Cl  0  0  0  0  0  0  0  0  0  0  0  0
    4.5050   60.4740   71.1850 C   0  0  0  0  0  0  0  0  0  0  0  0
    4.4220   59.6820   70.2420 O   0  0  0  0  0  0  0  0  0  0  0  0
    5.8220   61.2120   71.4220 C   0  0  0  0  0  0  0  0  0  0  0  0
    5.6390   62.6220   71.3890 O   0  0  0  0  0  0  0  0  0  0  0  0
    3.9330   61.3420   73.3580 O   0  0  0  0  0  0  0  0  0  0  0  0
    2.1650   56.4550   73.3920 O   0  0  0  0  0  0  0  0  0  0  0  0
    2.4081   62.6902   72.2069 H   0  0  0  0  0  0  0  0  0  0  0  0
    1.9879   63.2324   70.1917 H   0  0  0  0  0  0  0  0  0  0  0  0
    3.0856   61.8778   69.7598 H   0  0  0  0  0  0  0  0  0  0  0  0
    1.3069   61.6273   69.7598 H   0  0  0  0  0  0  0  0  0  0  0  0
    0.1715   61.7960   72.5639 H   0  0  0  0  0  0  0  0  0  0  0  0
    0.3383   60.5825   71.3089 H   0  0  0  0  0  0  0  0  0  0  0  0
    1.4444   60.5821   74.1703 H   0  0  0  0  0  0  0  0  0  0  0  0
    2.0009   57.5585   71.6708 H   0  0  0  0  0  0  0  0  0  0  0  0
    1.5179   59.0245   70.7518 H   0  0  0  0  0  0  0  0  0  0  0  0
    3.2325   58.4888   70.7518 H   0  0  0  0  0  0  0  0  0  0  0  0
    4.1255   58.0698   73.2737 H   0  0  0  0  0  0  0  0  0  0  0  0
    3.5435   59.2711   74.5230 H   0  0  0  0  0  0  0  0  0  0  0  0
    2.7846   57.1502   75.2544 H   0  0  0  0  0  0  0  0  0  0  0  0
    0.0310   58.3645   72.8438 H   0  0  0  0  0  0  0  0  0  0  0  0
   -0.8056   60.3605   74.9803 H   0  0  0  0  0  0  0  0  0  0  0  0
   -1.4773   60.1650   73.3027 H   0  0  0  0  0  0  0  0  0  0  0  0
   -2.8878   59.1483   75.1237 H   0  0  0  0  0  0  0  0  0  0  0  0
   -2.3527   58.0072   73.8197 H   0  0  0  0  0  0  0  0  0  0  0  0
   -2.9102   58.1371   77.1444 H   0  0  0  0  0  0  0  0  0  0  0  0
    0.3306   55.3798   78.4097 H   0  0  0  0  0  0  0  0  0  0  0  0
    1.3574   55.5835   76.2653 H   0  0  0  0  0  0  0  0  0  0  0  0
   -0.8829   55.0306   74.6788 H   0  0  0  0  0  0  0  0  0  0  0  0
   -1.3247   56.3759   73.5736 H   0  0  0  0  0  0  0  0  0  0  0  0
    0.3502   55.7268   73.5736 H   0  0  0  0  0  0  0  0  0  0  0  0
    6.2208   60.9256   72.4064 H   0  0  0  0  0  0  0  0  0  0  0  0
    6.5236   60.9347   70.6214 H   0  0  0  0  0  0  0  0  0  0  0  0
    5.5938   62.9706   72.3145 H   0  0  0  0  0  0  0  0  0  0  0  0
    3.5315   60.9343   74.1659 H   0  0  0  0  0  0  0  0  0  0  0  0
    2.0438   55.6012   73.8782 H   0  0  0  0  0  0  0  0  0  0  0  0
  2  1  1  0
  3  2  1  0
  4  2  1  0
  5  4  1  0
  6  5  1  0
  6  1  1  0
  6  7  1  6
  8  6  1  0
  9  8  1  0
 10  9  1  0
 11  5  1  0
 11 10  1  0
 12 11  1  0
 13 12  1  0
 14 13  1  0
 15 14  2  0
 16 15  1  0
 17 16  2  0
 18 16  1  0
 19 18  2  0
 20 19  1  0
 20 14  1  0
 20 10  1  0
 20 21  1  6
 10 22  1  1
 23  1  1  0
 24 23  2  0
 25 23  1  0
 26 25  1  0
  1 27  1  1
 28  9  1  0
  2 29  1  1
  3 30  1  0
  3 31  1  0
  3 32  1  0
  4 33  1  0
  4 34  1  0
  5 35  1  1
  7 36  1  0
  7 37  1  0
  7 38  1  0
  8 39  1  0
  8 40  1  0
  9 41  1  1
 11 42  1  6
 12 43  1  0
 12 44  1  0
 13 45  1  0
 13 46  1  0
 15 47  1  0
 18 48  1  0
 19 49  1  0
 21 50  1  0
 21 51  1  0
 21 52  1  0
 25 53  1  0
 25 54  1  0
 26 55  1  0
 27 56  1  0
 28 57  1  0
M  END
>  <score>  (4) 
-7.513

$$$$
=
     RDKit          3D

 57 60  0  0  0  0  0  0  0  0999 V2000
    0.9210   56.7670   75.7310 C   0  0  1  0  0  0  0  0  0  0  0  0
    0.5740   57.5700   77.0440 C   0  0  1  0  0  0  0  0  0  0  0  0
    1.1030   57.0560   78.3770 C   0  0  0  0  0  0  0  0  0  0  0  0
    1.0490   59.0240   76.7950 C   0  0  0  0  0  0  0  0  0  0  0  0
    1.1610   59.1050   75.2780 C   0  0  2  0  0  0  0  0  0  0  0  0
    1.8240   57.7560   74.9070 C   0  0  1  0  0  0  0  0  0  0  0  0
    3.2970   57.6440   75.3930 C   0  0  0  0  0  0  0  0  0  0  0  0
    1.7680   57.6180   73.3660 C   0  0  0  0  0  0  0  0  0  0  0  0
    2.3920   58.8200   72.6100 C   0  0  1  0  0  0  0  0  0  0  0  0
    1.8600   60.2230   73.0760 C   0  0  1  0  0  0  0  0  0  0  0  0
    1.8620   60.3250   74.6520 C   0  0  1  0  0  0  0  0  0  0  0  0
    1.2570   61.6510   75.1520 C   0  0  0  0  0  0  0  0  0  0  0  0
    1.9280   62.8680   74.5190 C   0  0  0  0  0  0  0  0  0  0  0  0
    1.9670   62.7660   73.0140 C   0  0  0  0  0  0  0  0  0  0  0  0
    1.4350   63.7380   72.2510 C   0  0  0  0  0  0  0  0  0  0  0  0
    1.4210   63.6560   70.7750 C   0  0  0  0  0  0  0  0  0  0  0  0
    0.9500   64.5570   70.0920 O   0  0  0  0  0  0  0  0  0  0  0  0
    2.0010   62.4480   70.1570 C   0  0  0  0  0  0  0  0  0  0  0  0
    2.5310   61.4740   70.9080 C   0  0  0  0  0  0  0  0  0  0  0  0
    2.6070   61.4860   72.4370 C   0  0  2  0  0  0  0  0  0  0  0  0
    4.1220   61.5630   72.7590 C   0  0  0  0  0  0  0  0  0  0  0  0
    0.0910   60.2770   72.4910 Cl  0  0  0  0  0  0  0  0  0  0  0  0
    1.5590   55.3640   75.8920 C   0  0  0  0  0  0  0  0  0  0  0  0
    2.1770   55.0040   76.8970 O   0  0  0  0  0  0  0  0  0  0  0  0
    1.4310   54.3980   74.7140 C   0  0  0  0  0  0  0  0  0  0  0  0
    2.6720   54.2390   74.0380 O   0  0  0  0  0  0  0  0  0  0  0  0
   -0.3230   56.5930   75.0260 O   0  0  0  0  0  0  0  0  0  0  0  0
    3.8120   58.7270   72.7120 O   0  0  0  0  0  0  0  0  0  0  0  0
   -0.5102   57.4560   77.1903 H   0  0  0  0  0  0  0  0  0  0  0  0
    0.5795   57.5647   79.1999 H   0  0  0  0  0  0  0  0  0  0  0  0
    0.9298   55.9720   78.4468 H   0  0  0  0  0  0  0  0  0  0  0  0
    2.1816   57.2603   78.4468 H   0  0  0  0  0  0  0  0  0  0  0  0
    0.3135   59.7486   77.1745 H   0  0  0  0  0  0  0  0  0  0  0  0
    1.9927   59.2609   77.3081 H   0  0  0  0  0  0  0  0  0  0  0  0
    0.1623   59.2681   74.8467 H   0  0  0  0  0  0  0  0  0  0  0  0
    3.3211   57.6422   76.4927 H   0  0  0  0  0  0  0  0  0  0  0  0
    3.7378   56.7097   75.0150 H   0  0  0  0  0  0  0  0  0  0  0  0
    3.8740   58.5009   75.0150 H   0  0  0  0  0  0  0  0  0  0  0  0
    2.3125   56.7064   73.0788 H   0  0  0  0  0  0  0  0  0  0  0  0
    0.7053   57.5777   73.0850 H   0  0  0  0  0  0  0  0  0  0  0  0
    2.0790   58.7550   71.5575 H   0  0  0  0  0  0  0  0  0  0  0  0
    2.9114   60.3203   74.9819 H   0  0  0  0  0  0  0  0  0  0  0  0
    0.1858   61.6677   74.9024 H   0  0  0  0  0  0  0  0  0  0  0  0
    1.4166   61.7055   76.2390 H   0  0  0  0  0  0  0  0  0  0  0  0
    1.3663   63.7710   74.8004 H   0  0  0  0  0  0  0  0  0  0  0  0
    2.9639   62.9169   74.8856 H   0  0  0  0  0  0  0  0  0  0  0  0
    0.9971   64.6206   72.7403 H   0  0  0  0  0  0  0  0  0  0  0  0
    1.9980   62.3459   69.0618 H   0  0  0  0  0  0  0  0  0  0  0  0
    2.9435   60.5980   70.3861 H   0  0  0  0  0  0  0  0  0  0  0  0
    4.2651   61.5703   73.8496 H   0  0  0  0  0  0  0  0  0  0  0  0
    4.6333   60.6897   72.3279 H   0  0  0  0  0  0  0  0  0  0  0  0
    4.5422   62.4837   72.3279 H   0  0  0  0  0  0  0  0  0  0  0  0
    1.0991   53.4184   75.0885 H   0  0  0  0  0  0  0  0  0  0  0  0
    0.6998   54.8118   74.0040 H   0  0  0  0  0  0  0  0  0  0  0  0
    3.4001   54.1457   74.7023 H   0  0  0  0  0  0  0  0  0  0  0  0
   -1.0604   56.4899   75.6784 H   0  0  0  0  0  0  0  0  0  0  0  0
    4.0739   58.7099   73.6666 H   0  0  0  0  0  0  0  0  0  0  0  0
  2  1  1  0
  3  2  1  0
  4  2  1  0
  5  4  1  0
  6  5  1  0
  6  1  1  0
  6  7  1  1
  8  6  1  0
  9  8  1  0
 10  9  1  0
 11  5  1  0
 11 10  1  0
 12 11  1  0
 13 12  1  0
 14 13  1  0
 15 14  2  0
 16 15  1  0
 17 16  2  0
 18 16  1  0
 19 18  2  0
 20 19  1  0
 20 14  1  0
 20 10  1  0
 20 21  1  6
 10 22  1  6
 23  1  1  0
 24 23  2  0
 25 23  1  0
 26 25  1  0
  1 27  1  6
 28  9  1  0
  2 29  1  1
  3 30  1  0
  3 31  1  0
  3 32  1  0
  4 33  1  0
  4 34  1  0
  5 35  1  6
  7 36  1  0
  7 37  1  0
  7 38  1  0
  8 39  1  0
  8 40  1  0
  9 41  1  6
 11 42  1  1
 12 43  1  0
 12 44  1  0
 13 45  1  0
 13 46  1  0
 15 47  1  0
 18 48  1  0
 19 49  1  0
 21 50  1  0
 21 51  1  0
 21 52  1  0
 25 53  1  0
 25 54  1  0
 26 55  1  0
 27 56  1  0
 28 57  1  0
M  END
>  <score>  (5) 
-7.503

$$$$
=
     RDKit          3D

 57 60  0  0  0  0  0  0  0  0999 V2000
   -0.0490   54.5670   75.6280 C   0  0  1  0  0  0  0  0  0  0  0  0
    0.1280   54.9120   77.1570 C   0  0  1  0  0  0  0  0  0  0  0  0
    0.7200   53.8560   78.0820 C   0  0  0  0  0  0  0  0  0  0  0  0
    0.9690   56.2130   77.2080 C   0  0  0  0  0  0  0  0  0  0  0  0
    0.8060   56.7960   75.8100 C   0  0  2  0  0  0  0  0  0  0  0  0
    0.9380   55.5510   74.8990 C   0  0  1  0  0  0  0  0  0  0  0  0
    2.3700   54.9440   74.8950 C   0  0  0  0  0  0  0  0  0  0  0  0
    0.5460   55.9820   73.4640 C   0  0  0  0  0  0  0  0  0  0  0  0
    1.3520   57.1980   72.9370 C   0  0  1  0  0  0  0  0  0  0  0  0
    1.3760   58.4280   73.9140 C   0  0  1  0  0  0  0  0  0  0  0  0
    1.7130   57.9650   75.3860 C   0  0  1  0  0  0  0  0  0  0  0  0
    1.6540   59.1300   76.3930 C   0  0  0  0  0  0  0  0  0  0  0  0
    2.5310   60.3060   75.9690 C   0  0  0  0  0  0  0  0  0  0  0  0
    2.2460   60.7350   74.5510 C   0  0  0  0  0  0  0  0  0  0  0  0
    1.9010   62.0070   74.2790 C   0  0  0  0  0  0  0  0  0  0  0  0
    1.5790   62.4550   72.9090 C   0  0  0  0  0  0  0  0  0  0  0  0
    1.2850   63.6200   72.6730 O   0  0  0  0  0  0  0  0  0  0  0  0
    1.6290   61.4450   71.8350 C   0  0  0  0  0  0  0  0  0  0  0  0
    1.9690   60.1760   72.0950 C   0  0  0  0  0  0  0  0  0  0  0  0
    2.3380   59.6310   73.4770 C   0  0  2  0  0  0  0  0  0  0  0  0
    3.8350   59.2440   73.3640 C   0  0  0  0  0  0  0  0  0  0  0  0
   -0.3680   59.0840   73.8950 Cl  0  0  0  0  0  0  0  0  0  0  0  0
    0.1460   53.0920   75.1950 C   0  0  0  0  0  0  0  0  0  0  0  0
    0.9300   52.3140   75.7460 O   0  0  0  0  0  0  0  0  0  0  0  0
   -0.6660   52.6020   73.9960 C   0  0  0  0  0  0  0  0  0  0  0  0
   -2.0010   52.2840   74.3690 O   0  0  0  0  0  0  0  0  0  0  0  0
   -1.3980   54.9390   75.2850 O   0  0  0  0  0  0  0  0  0  0  0  0
    2.6660   56.7550   72.6030 O   0  0  0  0  0  0  0  0  0  0  0  0
   -0.8892   55.0020   77.5660 H   0  0  0  0  0  0  0  0  0  0  0  0
    0.5546   54.1511   79.1287 H   0  0  0  0  0  0  0  0  0  0  0  0
    0.2330   52.8880   77.8926 H   0  0  0  0  0  0  0  0  0  0  0  0
    1.7999   53.7664   77.8926 H   0  0  0  0  0  0  0  0  0  0  0  0
    0.5791   56.9038   77.9701 H   0  0  0  0  0  0  0  0  0  0  0  0
    2.0202   56.0337   77.4778 H   0  0  0  0  0  0  0  0  0  0  0  0
   -0.1574   57.3227   75.7437 H   0  0  0  0  0  0  0  0  0  0  0  0
    2.7100   54.7999   75.9311 H   0  0  0  0  0  0  0  0  0  0  0  0
    2.3558   53.9745   74.3755 H   0  0  0  0  0  0  0  0  0  0  0  0
    3.0569   55.6283   74.3755 H   0  0  0  0  0  0  0  0  0  0  0  0
    0.7170   55.1320   72.7870 H   0  0  0  0  0  0  0  0  0  0  0  0
   -0.5107   56.2860   73.4966 H   0  0  0  0  0  0  0  0  0  0  0  0
    0.8393   57.5812   72.0424 H   0  0  0  0  0  0  0  0  0  0  0  0
    2.7530   57.6068   75.3897 H   0  0  0  0  0  0  0  0  0  0  0  0
    0.6129   59.4758   76.4736 H   0  0  0  0  0  0  0  0  0  0  0  0
    2.0297   58.7603   77.3585 H   0  0  0  0  0  0  0  0  0  0  0  0
    2.3395   61.1541   76.6429 H   0  0  0  0  0  0  0  0  0  0  0  0
    3.5820   59.9862   76.0247 H   0  0  0  0  0  0  0  0  0  0  0  0
    1.8575   62.7353   75.1022 H   0  0  0  0  0  0  0  0  0  0  0  0
    1.3830   61.7389   70.8039 H   0  0  0  0  0  0  0  0  0  0  0  0
    1.9843   59.4712   71.2506 H   0  0  0  0  0  0  0  0  0  0  0  0
    4.2622   59.1336   74.3716 H   0  0  0  0  0  0  0  0  0  0  0  0
    3.9277   58.2924   72.8201 H   0  0  0  0  0  0  0  0  0  0  0  0
    4.3773   60.0315   72.8201 H   0  0  0  0  0  0  0  0  0  0  0  0
   -0.6866   53.3919   73.2307 H   0  0  0  0  0  0  0  0  0  0  0  0
   -0.1896   51.6913   73.6039 H   0  0  0  0  0  0  0  0  0  0  0  0
   -2.0726   52.2669   75.3563 H   0  0  0  0  0  0  0  0  0  0  0  0
   -1.9212   55.0833   76.1130 H   0  0  0  0  0  0  0  0  0  0  0  0
    3.1771   56.5827   73.4332 H   0  0  0  0  0  0  0  0  0  0  0  0
  2  1  1  0
  3  2  1  0
  4  2  1  0
  5  4  1  0
  6  5  1  0
  6  1  1  0
  6  7  1  6
  8  6  1  0
  9  8  1  0
 10  9  1  0
 11  5  1  0
 11 10  1  0
 12 11  1  0
 13 12  1  0
 14 13  1  0
 15 14  2  0
 16 15  1  0
 17 16  2  0
 18 16  1  0
 19 18  2  0
 20 19  1  0
 20 14  1  0
 20 10  1  0
 20 21  1  6
 10 22  1  1
 23  1  1  0
 24 23  2  0
 25 23  1  0
 26 25  1  0
  1 27  1  6
 28  9  1  0
  2 29  1  1
  3 30  1  0
  3 31  1  0
  3 32  1  0
  4 33  1  0
  4 34  1  0
  5 35  1  1
  7 36  1  0
  7 37  1  0
  7 38  1  0
  8 39  1  0
  8 40  1  0
  9 41  1  6
 11 42  1  6
 12 43  1  0
 12 44  1  0
 13 45  1  0
 13 46  1  0
 15 47  1  0
 18 48  1  0
 19 49  1  0
 21 50  1  0
 21 51  1  0
 21 52  1  0
 25 53  1  0
 25 54  1  0
 26 55  1  0
 27 56  1  0
 28 57  1  0
M  END
>  <score>  (6) 
-7.16

$$$$
=
     RDKit          3D

 57 60  0  0  0  0  0  0  0  0999 V2000
    2.6400   61.2690   71.6730 C   0  0  1  0  0  0  0  0  0  0  0  0
    2.7590   59.7490   71.2670 C   0  0  1  0  0  0  0  0  0  0  0  0
    4.1460   59.1310   71.1460 C   0  0  0  0  0  0  0  0  0  0  0  0
    1.9010   58.9630   72.2910 C   0  0  0  0  0  0  0  0  0  0  0  0
    0.9820   60.0290   72.8760 C   0  0  2  0  0  0  0  0  0  0  0  0
    1.9340   61.2340   73.0780 C   0  0  1  0  0  0  0  0  0  0  0  0
    2.9950   60.9940   74.1890 C   0  0  0  0  0  0  0  0  0  0  0  0
    1.0610   62.4590   73.4410 C   0  0  0  0  0  0  0  0  0  0  0  0
    0.1280   62.2220   74.6570 C   0  0  1  0  0  0  0  0  0  0  0  0
   -0.7390   60.9150   74.5610 C   0  0  1  0  0  0  0  0  0  0  0  0
    0.1530   59.6860   74.1260 C   0  0  1  0  0  0  0  0  0  0  0  0
   -0.6780   58.4030   73.9280 C   0  0  0  0  0  0  0  0  0  0  0  0
   -1.5240   58.0660   75.1540 C   0  0  0  0  0  0  0  0  0  0  0  0
   -2.3530   59.2440   75.6030 C   0  0  0  0  0  0  0  0  0  0  0  0
   -3.6890   59.1340   75.7180 C   0  0  0  0  0  0  0  0  0  0  0  0
   -4.5370   60.2750   76.1190 C   0  0  0  0  0  0  0  0  0  0  0  0
   -5.7500   60.1550   76.2380 O   0  0  0  0  0  0  0  0  0  0  0  0
   -3.8660   61.5640   76.3740 C   0  0  0  0  0  0  0  0  0  0  0  0
   -2.5370   61.6840   76.2600 C   0  0  0  0  0  0  0  0  0  0  0  0
   -1.5810   60.5530   75.8720 C   0  0  2  0  0  0  0  0  0  0  0  0
   -0.7210   60.3090   77.1390 C   0  0  0  0  0  0  0  0  0  0  0  0
   -1.9620   61.2570   73.1970 Cl  0  0  0  0  0  0  0  0  0  0  0  0
    3.9370   62.1180   71.6750 C   0  0  0  0  0  0  0  0  0  0  0  0
    4.8850   61.9190   72.4400 O   0  0  0  0  0  0  0  0  0  0  0  0
    4.0120   63.2810   70.6870 C   0  0  0  0  0  0  0  0  0  0  0  0
    4.0600   62.8170   69.3430 O   0  0  0  0  0  0  0  0  0  0  0  0
    1.7370   61.8690   70.7250 O   0  0  0  0  0  0  0  0  0  0  0  0
    0.9200   62.2510   75.8430 O   0  0  0  0  0  0  0  0  0  0  0  0
    2.4094   59.6862   70.2259 H   0  0  0  0  0  0  0  0  0  0  0  0
    4.5551   58.9487   72.1507 H   0  0  0  0  0  0  0  0  0  0  0  0
    4.0767   58.1786   70.6000 H   0  0  0  0  0  0  0  0  0  0  0  0
    4.8078   59.8194   70.6000 H   0  0  0  0  0  0  0  0  0  0  0  0
    1.3199   58.1728   71.7930 H   0  0  0  0  0  0  0  0  0  0  0  0
    2.5057   58.4520   73.0547 H   0  0  0  0  0  0  0  0  0  0  0  0
    0.1441   60.2072   72.1859 H   0  0  0  0  0  0  0  0  0  0  0  0
    2.5224   61.1009   75.1765 H   0  0  0  0  0  0  0  0  0  0  0  0
    3.4084   59.9796   74.0882 H   0  0  0  0  0  0  0  0  0  0  0  0
    3.8047   61.7317   74.0882 H   0  0  0  0  0  0  0  0  0  0  0  0
    1.7268   63.3031   73.6736 H   0  0  0  0  0  0  0  0  0  0  0  0
    0.4142   62.6607   72.5744 H   0  0  0  0  0  0  0  0  0  0  0  0
   -0.6161   63.0320   74.6739 H   0  0  0  0  0  0  0  0  0  0  0  0
    0.8520   59.4774   74.9493 H   0  0  0  0  0  0  0  0  0  0  0  0
   -1.3456   58.5435   73.0652 H   0  0  0  0  0  0  0  0  0  0  0  0
    0.0219   57.5706   73.7627 H   0  0  0  0  0  0  0  0  0  0  0  0
   -2.1962   57.2318   74.9045 H   0  0  0  0  0  0  0  0  0  0  0  0
   -0.8440   57.7935   75.9746 H   0  0  0  0  0  0  0  0  0  0  0  0
   -4.1643   58.1647   75.5069 H   0  0  0  0  0  0  0  0  0  0  0  0
   -4.4663   62.4396   76.6621 H   0  0  0  0  0  0  0  0  0  0  0  0
   -2.0981   62.6724   76.4608 H   0  0  0  0  0  0  0  0  0  0  0  0
   -1.3329   60.4826   78.0365 H   0  0  0  0  0  0  0  0  0  0  0  0
   -0.3552   59.2716   77.1397 H   0  0  0  0  0  0  0  0  0  0  0  0
    0.1351   60.9997   77.1397 H   0  0  0  0  0  0  0  0  0  0  0  0
    3.1237   63.9171   70.8147 H   0  0  0  0  0  0  0  0  0  0  0  0
    4.9313   63.8497   70.8903 H   0  0  0  0  0  0  0  0  0  0  0  0
    4.1619   61.8323   69.3373 H   0  0  0  0  0  0  0  0  0  0  0  0
    1.0184   62.3465   71.2104 H   0  0  0  0  0  0  0  0  0  0  0  0
    0.3277   62.2293   76.6360 H   0  0  0  0  0  0  0  0  0  0  0  0
  2  1  1  0
  3  2  1  0
  4  2  1  0
  5  4  1  0
  6  5  1  0
  6  1  1  0
  6  7  1  1
  8  6  1  0
  9  8  1  0
 10  9  1  0
 11  5  1  0
 11 10  1  0
 12 11  1  0
 13 12  1  0
 14 13  1  0
 15 14  2  0
 16 15  1  0
 17 16  2  0
 18 16  1  0
 19 18  2  0
 20 19  1  0
 20 14  1  0
 20 10  1  0
 20 21  1  1
 10 22  1  6
 23  1  1  0
 24 23  2  0
 25 23  1  0
 26 25  1  0
  1 27  1  6
 28  9  1  0
  2 29  1  6
  3 30  1  0
  3 31  1  0
  3 32  1  0
  4 33  1  0
  4 34  1  0
  5 35  1  6
  7 36  1  0
  7 37  1  0
  7 38  1  0
  8 39  1  0
  8 40  1  0
  9 41  1  1
 11 42  1  1
 12 43  1  0
 12 44  1  0
 13 45  1  0
 13 46  1  0
 15 47  1  0
 18 48  1  0
 19 49  1  0
 21 50  1  0
 21 51  1  0
 21 52  1  0
 25 53  1  0
 25 54  1  0
 26 55  1  0
 27 56  1  0
 28 57  1  0
M  END
>  <score>  (7) 
-7.068

$$$$
=
     RDKit          3D

 57 60  0  0  0  0  0  0  0  0999 V2000
    2.4280   62.4690   71.9870 C   0  0  1  0  0  0  0  0  0  0  0  0
    0.9020   62.8290   71.8100 C   0  0  1  0  0  0  0  0  0  0  0  0
    0.4260   63.3500   70.4590 C   0  0  0  0  0  0  0  0  0  0  0  0
    0.1120   61.5580   72.2120 C   0  0  0  0  0  0  0  0  0  0  0  0
    1.1170   60.7610   73.0350 C   0  0  2  0  0  0  0  0  0  0  0  0
    2.4270   60.9140   72.2240 C   0  0  1  0  0  0  0  0  0  0  0  0
    2.3880   60.1790   70.8540 C   0  0  0  0  0  0  0  0  0  0  0  0
    3.5780   60.3490   73.0910 C   0  0  0  0  0  0  0  0  0  0  0  0
    3.3390   58.8950   73.5740 C   0  0  1  0  0  0  0  0  0  0  0  0
    1.9440   58.6640   74.2590 C   0  0  1  0  0  0  0  0  0  0  0  0
    0.7860   59.3020   73.3960 C   0  0  1  0  0  0  0  0  0  0  0  0
   -0.5890   59.1800   74.0810 C   0  0  0  0  0  0  0  0  0  0  0  0
   -0.9170   57.7390   74.4670 C   0  0  0  0  0  0  0  0  0  0  0  0
    0.1980   57.1040   75.2600 C   0  0  0  0  0  0  0  0  0  0  0  0
   -0.0440   56.5750   76.4740 C   0  0  0  0  0  0  0  0  0  0  0  0
    1.0300   55.9780   77.2950 C   0  0  0  0  0  0  0  0  0  0  0  0
    0.7920   55.4840   78.3900 O   0  0  0  0  0  0  0  0  0  0  0  0
    2.3980   55.9980   76.7430 C   0  0  0  0  0  0  0  0  0  0  0  0
    2.6490   56.5230   75.5380 C   0  0  0  0  0  0  0  0  0  0  0  0
    1.5980   57.1410   74.6120 C   0  0  2  0  0  0  0  0  0  0  0  0
    1.5450   56.1960   73.3840 C   0  0  0  0  0  0  0  0  0  0  0  0
    2.0480   59.5930   75.8710 Cl  0  0  0  0  0  0  0  0  0  0  0  0
    3.4060   62.9060   70.8670 C   0  0  0  0  0  0  0  0  0  0  0  0
    3.0430   63.3400   69.7710 O   0  0  0  0  0  0  0  0  0  0  0  0
    4.9010   62.7510   71.1460 C   0  0  0  0  0  0  0  0  0  0  0  0
    5.6400   63.8540   70.6340 O   0  0  0  0  0  0  0  0  0  0  0  0
    2.8540   63.1140   73.2030 O   0  0  0  0  0  0  0  0  0  0  0  0
    3.5440   58.0160   72.4690 O   0  0  0  0  0  0  0  0  0  0  0  0
    0.7220   63.7061   72.4490 H   0  0  0  0  0  0  0  0  0  0  0  0
   -0.3085   64.1540   70.6142 H   0  0  0  0  0  0  0  0  0  0  0  0
    1.2846   63.7418   69.8939 H   0  0  0  0  0  0  0  0  0  0  0  0
   -0.0416   62.5302   69.8939 H   0  0  0  0  0  0  0  0  0  0  0  0
   -0.7713   61.8178   72.8139 H   0  0  0  0  0  0  0  0  0  0  0  0
   -0.2715   60.9995   71.3454 H   0  0  0  0  0  0  0  0  0  0  0  0
    1.1521   61.1635   74.0581 H   0  0  0  0  0  0  0  0  0  0  0  0
    2.3304   59.0934   71.0218 H   0  0  0  0  0  0  0  0  0  0  0  0
    1.5061   60.5095   70.2856 H   0  0  0  0  0  0  0  0  0  0  0  0
    3.2999   60.4143   70.2856 H   0  0  0  0  0  0  0  0  0  0  0  0
    4.5031   60.3697   72.4962 H   0  0  0  0  0  0  0  0  0  0  0  0
    3.6426   60.9797   73.9899 H   0  0  0  0  0  0  0  0  0  0  0  0
    4.0642   58.6805   74.3728 H   0  0  0  0  0  0  0  0  0  0  0  0
    0.7165   58.7274   72.4606 H   0  0  0  0  0  0  0  0  0  0  0  0
   -0.5875   59.7985   74.9906 H   0  0  0  0  0  0  0  0  0  0  0  0
   -1.3530   59.5198   73.3663 H   0  0  0  0  0  0  0  0  0  0  0  0
   -1.8341   57.7330   75.0744 H   0  0  0  0  0  0  0  0  0  0  0  0
   -1.0518   57.1594   73.5419 H   0  0  0  0  0  0  0  0  0  0  0  0
   -1.0715   56.5875   76.8665 H   0  0  0  0  0  0  0  0  0  0  0  0
    3.2252   55.5744   77.3316 H   0  0  0  0  0  0  0  0  0  0  0  0
    3.6909   56.5095   75.1855 H   0  0  0  0  0  0  0  0  0  0  0  0
    1.4865   55.1524   73.7267 H   0  0  0  0  0  0  0  0  0  0  0  0
    0.6587   56.4329   72.7770 H   0  0  0  0  0  0  0  0  0  0  0  0
    2.4522   56.3323   72.7770 H   0  0  0  0  0  0  0  0  0  0  0  0
    5.0580   62.6882   72.2329 H   0  0  0  0  0  0  0  0  0  0  0  0
    5.2539   61.8358   70.6481 H   0  0  0  0  0  0  0  0  0  0  0  0
    5.9983   64.3888   71.3861 H   0  0  0  0  0  0  0  0  0  0  0  0
    2.5175   62.6044   73.9822 H   0  0  0  0  0  0  0  0  0  0  0  0
    3.7556   57.1087   72.8039 H   0  0  0  0  0  0  0  0  0  0  0  0
  2  1  1  0
  3  2  1  0
  4  2  1  0
  5  4  1  0
  6  5  1  0
  6  1  1  0
  6  7  1  6
  8  6  1  0
  9  8  1  0
 10  9  1  0
 11  5  1  0
 11 10  1  0
 12 11  1  0
 13 12  1  0
 14 13  1  0
 15 14  2  0
 16 15  1  0
 17 16  2  0
 18 16  1  0
 19 18  2  0
 20 19  1  0
 20 14  1  0
 20 10  1  0
 20 21  1  6
 10 22  1  1
 23  1  1  0
 24 23  2  0
 25 23  1  0
 26 25  1  0
  1 27  1  1
 28  9  1  0
  2 29  1  1
  3 30  1  0
  3 31  1  0
  3 32  1  0
  4 33  1  0
  4 34  1  0
  5 35  1  1
  7 36  1  0
  7 37  1  0
  7 38  1  0
  8 39  1  0
  8 40  1  0
  9 41  1  1
 11 42  1  6
 12 43  1  0
 12 44  1  0
 13 45  1  0
 13 46  1  0
 15 47  1  0
 18 48  1  0
 19 49  1  0
 21 50  1  0
 21 51  1  0
 21 52  1  0
 25 53  1  0
 25 54  1  0
 26 55  1  0
 27 56  1  0
 28 57  1  0
M  END
>  <score>  (8) 
-7.042

$$$$
=
     RDKit          3D

 57 60  0  0  0  0  0  0  0  0999 V2000
    3.0890   60.7870   71.6060 C   0  0  1  0  0  0  0  0  0  0  0  0
    4.4760   60.2080   72.0860 C   0  0  1  0  0  0  0  0  0  0  0  0
    5.6560   61.1600   72.2310 C   0  0  0  0  0  0  0  0  0  0  0  0
    4.1960   59.4810   73.4260 C   0  0  0  0  0  0  0  0  0  0  0  0
    2.6910   59.2460   73.3940 C   0  0  2  0  0  0  0  0  0  0  0  0
    2.1420   60.5860   72.8460 C   0  0  1  0  0  0  0  0  0  0  0  0
    2.3220   61.7710   73.8360 C   0  0  0  0  0  0  0  0  0  0  0  0
    0.6390   60.3820   72.5380 C   0  0  0  0  0  0  0  0  0  0  0  0
   -0.1770   59.8500   73.7440 C   0  0  1  0  0  0  0  0  0  0  0  0
    0.4400   58.5790   74.4320 C   0  0  1  0  0  0  0  0  0  0  0  0
    1.9870   58.7760   74.6800 C   0  0  1  0  0  0  0  0  0  0  0  0
    2.6500   57.5140   75.2660 C   0  0  0  0  0  0  0  0  0  0  0  0
    1.9450   57.0240   76.5300 C   0  0  0  0  0  0  0  0  0  0  0  0
    0.4600   56.8680   76.3180 C   0  0  0  0  0  0  0  0  0  0  0  0
   -0.1430   55.6900   76.5600 C   0  0  0  0  0  0  0  0  0  0  0  0
   -1.5890   55.4890   76.3290 C   0  0  0  0  0  0  0  0  0  0  0  0
   -2.1280   54.4160   76.5720 O   0  0  0  0  0  0  0  0  0  0  0  0
   -2.3570   56.6310   75.7970 C   0  0  0  0  0  0  0  0  0  0  0  0
   -1.7650   57.8060   75.5500 C   0  0  0  0  0  0  0  0  0  0  0  0
   -0.2830   58.1100   75.7800 C   0  0  2  0  0  0  0  0  0  0  0  0
   -0.2650   59.1640   76.9160 C   0  0  0  0  0  0  0  0  0  0  0  0
    0.2210   57.2120   73.1840 Cl  0  0  0  0  0  0  0  0  0  0  0  0
    3.0650   62.2380   71.0610 C   0  0  0  0  0  0  0  0  0  0  0  0
    3.8600   63.1150   71.4100 O   0  0  0  0  0  0  0  0  0  0  0  0
    1.9650   62.5900   70.0600 C   0  0  0  0  0  0  0  0  0  0  0  0
    2.3440   62.2470   68.7320 O   0  0  0  0  0  0  0  0  0  0  0  0
    2.6380   59.9240   70.5440 O   0  0  0  0  0  0  0  0  0  0  0  0
   -0.3620   60.9200   74.6690 O   0  0  0  0  0  0  0  0  0  0  0  0
    4.8299   59.5584   71.2719 H   0  0  0  0  0  0  0  0  0  0  0  0
    5.8632   61.3272   73.2983 H   0  0  0  0  0  0  0  0  0  0  0  0
    6.5425   60.7212   71.7497 H   0  0  0  0  0  0  0  0  0  0  0  0
    5.4145   62.1192   71.7497 H   0  0  0  0  0  0  0  0  0  0  0  0
    4.7420   58.5275   73.4778 H   0  0  0  0  0  0  0  0  0  0  0  0
    4.5213   60.0589   74.3036 H   0  0  0  0  0  0  0  0  0  0  0  0
    2.4737   58.3639   72.7737 H   0  0  0  0  0  0  0  0  0  0  0  0
    2.2653   61.3975   74.8691 H   0  0  0  0  0  0  0  0  0  0  0  0
    3.3020   62.2421   73.6697 H   0  0  0  0  0  0  0  0  0  0  0  0
    1.5261   62.5119   73.6697 H   0  0  0  0  0  0  0  0  0  0  0  0
    0.2133   61.3483   72.2297 H   0  0  0  0  0  0  0  0  0  0  0  0
    0.5733   59.6226   71.7449 H   0  0  0  0  0  0  0  0  0  0  0  0
   -1.1483   59.4999   73.3646 H   0  0  0  0  0  0  0  0  0  0  0  0
    2.1011   59.5656   75.4373 H   0  0  0  0  0  0  0  0  0  0  0  0
    2.6190   56.7147   74.5109 H   0  0  0  0  0  0  0  0  0  0  0  0
    3.6850   57.7711   75.5354 H   0  0  0  0  0  0  0  0  0  0  0  0
    2.3677   56.0504   76.8188 H   0  0  0  0  0  0  0  0  0  0  0  0
    2.1008   57.7727   77.3206 H   0  0  0  0  0  0  0  0  0  0  0  0
    0.4581   54.8513   76.9412 H   0  0  0  0  0  0  0  0  0  0  0  0
   -3.4330   56.5151   75.6002 H   0  0  0  0  0  0  0  0  0  0  0  0
   -2.3928   58.6161   75.1506 H   0  0  0  0  0  0  0  0  0  0  0  0
   -0.2737   58.6533   77.8902 H   0  0  0  0  0  0  0  0  0  0  0  0
    0.6438   59.7781   76.8321 H   0  0  0  0  0  0  0  0  0  0  0  0
   -1.1523   59.8088   76.8321 H   0  0  0  0  0  0  0  0  0  0  0  0
    1.0502   62.0395   70.3249 H   0  0  0  0  0  0  0  0  0  0  0  0
    1.7925   63.6756   70.1019 H   0  0  0  0  0  0  0  0  0  0  0  0
    3.0777   61.5829   68.7593 H   0  0  0  0  0  0  0  0  0  0  0  0
    2.2161   59.1166   70.9316 H   0  0  0  0  0  0  0  0  0  0  0  0
   -0.3017   60.5711   75.5935 H   0  0  0  0  0  0  0  0  0  0  0  0
  2  1  1  0
  3  2  1  0
  4  2  1  0
  5  4  1  0
  6  5  1  0
  6  1  1  0
  6  7  1  1
  8  6  1  0
  9  8  1  0
 10  9  1  0
 11  5  1  0
 11 10  1  0
 12 11  1  0
 13 12  1  0
 14 13  1  0
 15 14  2  0
 16 15  1  0
 17 16  2  0
 18 16  1  0
 19 18  2  0
 20 19  1  0
 20 14  1  0
 20 10  1  0
 20 21  1  1
 10 22  1  6
 23  1  1  0
 24 23  2  0
 25 23  1  0
 26 25  1  0
  1 27  1  6
 28  9  1  0
  2 29  1  6
  3 30  1  0
  3 31  1  0
  3 32  1  0
  4 33  1  0
  4 34  1  0
  5 35  1  6
  7 36  1  0
  7 37  1  0
  7 38  1  0
  8 39  1  0
  8 40  1  0
  9 41  1  6
 11 42  1  1
 12 43  1  0
 12 44  1  0
 13 45  1  0
 13 46  1  0
 15 47  1  0
 18 48  1  0
 19 49  1  0
 21 50  1  0
 21 51  1  0
 21 52  1  0
 25 53  1  0
 25 54  1  0
 26 55  1  0
 27 56  1  0
 28 57  1  0
M  END
>  <score>  (9) 
-6.976

$$$$
