=
     RDKit          3D

 38 39  0  0  0  0  0  0  0  0999 V2000
    1.3660   68.7410   66.6090 N   0  0  0  0  0  0  0  0  0  0  0  0
    2.0430   68.6820   65.3840 C   0  0  0  0  0  0  0  0  0  0  0  0
    3.2640   68.6380   65.2700 O   0  0  0  0  0  0  0  0  0  0  0  0
    1.1660   68.6770   64.2670 C   0  0  0  0  0  0  0  0  0  0  0  0
    1.4050   68.6360   62.9240 N   0  0  0  0  0  0  0  0  0  0  0  0
    2.6920   68.5830   62.2790 C   0  0  0  0  0  0  0  0  0  0  0  0
    0.1850   68.6510   62.2990 C   0  0  0  0  0  0  0  0  0  0  0  0
   -0.8050   68.6970   63.1670 N   0  0  0  0  0  0  0  0  0  0  0  0
   -0.1900   68.7130   64.3830 C   0  0  0  0  0  0  0  0  0  0  0  0
   -0.8110   68.7510   65.6060 N   0  0  0  0  0  0  0  0  0  0  0  0
   -0.0370   68.7430   66.7680 C   0  0  0  0  0  0  0  0  0  0  0  0
   -0.5520   68.7330   67.8900 O   0  0  0  0  0  0  0  0  0  0  0  0
   -2.2610   68.7630   65.6850 C   0  0  0  0  0  0  0  0  0  0  0  0
    2.1760   68.7230   67.8220 C   0  0  0  0  0  0  0  0  0  0  0  0
    2.4170   70.1370   68.3600 C   0  0  0  0  0  0  0  0  0  0  0  0
    3.8060   70.2620   68.9920 C   0  0  0  0  0  0  0  0  0  0  0  0
    4.9120   70.4220   67.9490 C   0  0  0  0  0  0  0  0  0  0  0  0
    7.0840   70.8670   69.2430 C   0  0  0  0  0  0  0  0  0  0  0  0
    5.9970   71.4060   68.3510 C   0  0  0  0  0  0  0  0  0  0  0  0
    5.9910   72.5850   68.0020 O   0  0  0  0  0  0  0  0  0  0  0  0
    3.4835   68.5504   63.0422 H   0  0  0  0  0  0  0  0  0  0  0  0
    2.7506   67.6817   61.6512 H   0  0  0  0  0  0  0  0  0  0  0  0
    2.8246   69.4764   61.6512 H   0  0  0  0  0  0  0  0  0  0  0  0
    0.0494   68.6275   61.2076 H   0  0  0  0  0  0  0  0  0  0  0  0
   -2.5707   68.7656   66.7405 H   0  0  0  0  0  0  0  0  0  0  0  0
   -2.6479   69.6644   65.1872 H   0  0  0  0  0  0  0  0  0  0  0  0
   -2.6628   67.8681   65.1872 H   0  0  0  0  0  0  0  0  0  0  0  0
    1.6552   68.1326   68.5903 H   0  0  0  0  0  0  0  0  0  0  0  0
    3.1514   68.2768   67.5779 H   0  0  0  0  0  0  0  0  0  0  0  0
    2.3347   70.8549   67.5306 H   0  0  0  0  0  0  0  0  0  0  0  0
    1.6633   70.3477   69.1330 H   0  0  0  0  0  0  0  0  0  0  0  0
    3.8148   71.1411   69.6531 H   0  0  0  0  0  0  0  0  0  0  0  0
    4.0041   69.3345   69.5493 H   0  0  0  0  0  0  0  0  0  0  0  0
    5.3786   69.4395   67.7849 H   0  0  0  0  0  0  0  0  0  0  0  0
    4.4390   70.8210   67.0396 H   0  0  0  0  0  0  0  0  0  0  0  0
    6.7983   71.0087   70.2958 H   0  0  0  0  0  0  0  0  0  0  0  0
    7.2249   69.7947   69.0424 H   0  0  0  0  0  0  0  0  0  0  0  0
    8.0228   71.4040   69.0424 H   0  0  0  0  0  0  0  0  0  0  0  0
  2  1  1  0
  3  2  2  0
  4  2  1  0
  5  4  1  0
  6  5  1  0
  7  5  1  0
  8  7  2  0
  9  8  1  0
  9  4  2  0
 10  9  1  0
 11 10  1  0
 11  1  1  0
 12 11  2  0
 13 10  1  0
 14  1  1  0
 15 14  1  0
 16 15  1  0
 17 16  1  0
 19 17  1  0
 19 18  1  0
 20 19  2  0
  6 21  1  0
  6 22  1  0
  6 23  1  0
  7 24  1  0
 13 25  1  0
 13 26  1  0
 13 27  1  0
 14 28  1  0
 14 29  1  0
 15 30  1  0
 15 31  1  0
 16 32  1  0
 16 33  1  0
 17 34  1  0
 17 35  1  0
 18 36  1  0
 18 37  1  0
 18 38  1  0
M  END
>  <score>  (1) 
-8.823

$$$$
=
     RDKit          3D

 38 39  0  0  0  0  0  0  0  0999 V2000
    2.7720   68.5040   64.8430 N   0  0  0  0  0  0  0  0  0  0  0  0
    1.9630   68.4340   65.9840 C   0  0  0  0  0  0  0  0  0  0  0  0
    2.3880   68.2940   67.1270 O   0  0  0  0  0  0  0  0  0  0  0  0
    0.5780   68.5450   65.6880 C   0  0  0  0  0  0  0  0  0  0  0  0
   -0.5280   68.5190   66.4880 N   0  0  0  0  0  0  0  0  0  0  0  0
   -0.5520   68.3660   67.9200 C   0  0  0  0  0  0  0  0  0  0  0  0
   -1.6170   68.6730   65.6710 C   0  0  0  0  0  0  0  0  0  0  0  0
   -1.2640   68.7940   64.4070 N   0  0  0  0  0  0  0  0  0  0  0  0
    0.0960   68.7140   64.4260 C   0  0  0  0  0  0  0  0  0  0  0  0
    0.9290   68.7960   63.3380 N   0  0  0  0  0  0  0  0  0  0  0  0
    2.3100   68.7140   63.5250 C   0  0  0  0  0  0  0  0  0  0  0  0
    3.1000   68.8270   62.5830 O   0  0  0  0  0  0  0  0  0  0  0  0
    0.3740   69.0010   62.0120 C   0  0  0  0  0  0  0  0  0  0  0  0
    4.2150   68.4290   65.0410 C   0  0  0  0  0  0  0  0  0  0  0  0
    4.8350   69.8220   65.2030 C   0  0  0  0  0  0  0  0  0  0  0  0
    5.9490   69.8160   66.2520 C   0  0  0  0  0  0  0  0  0  0  0  0
    5.4410   70.1770   67.6480 C   0  0  0  0  0  0  0  0  0  0  0  0
    7.2600   70.9460   69.2890 C   0  0  0  0  0  0  0  0  0  0  0  0
    6.1930   71.3270   68.2960 C   0  0  0  0  0  0  0  0  0  0  0  0
    5.9410   72.5060   68.0570 O   0  0  0  0  0  0  0  0  0  0  0  0
   -0.3983   69.3457   68.3960 H   0  0  0  0  0  0  0  0  0  0  0  0
   -1.5253   67.9569   68.2288 H   0  0  0  0  0  0  0  0  0  0  0  0
    0.2493   67.6786   68.2288 H   0  0  0  0  0  0  0  0  0  0  0  0
   -2.6578   68.6932   66.0263 H   0  0  0  0  0  0  0  0  0  0  0  0
   -0.6546   69.3809   62.0997 H   0  0  0  0  0  0  0  0  0  0  0  0
    0.9893   69.7312   61.4659 H   0  0  0  0  0  0  0  0  0  0  0  0
    0.3669   68.0462   61.4659 H   0  0  0  0  0  0  0  0  0  0  0  0
    4.4210   67.8390   65.9462 H   0  0  0  0  0  0  0  0  0  0  0  0
    4.6601   67.9550   64.1537 H   0  0  0  0  0  0  0  0  0  0  0  0
    5.2536   70.1424   64.2375 H   0  0  0  0  0  0  0  0  0  0  0  0
    4.0486   70.5156   65.5355 H   0  0  0  0  0  0  0  0  0  0  0  0
    6.3944   68.8108   66.2878 H   0  0  0  0  0  0  0  0  0  0  0  0
    6.6882   70.5759   65.9586 H   0  0  0  0  0  0  0  0  0  0  0  0
    4.3801   70.4570   67.5693 H   0  0  0  0  0  0  0  0  0  0  0  0
    5.5973   69.2933   68.2841 H   0  0  0  0  0  0  0  0  0  0  0  0
    6.8759   71.0831   70.3106 H   0  0  0  0  0  0  0  0  0  0  0  0
    7.5395   69.8925   69.1407 H   0  0  0  0  0  0  0  0  0  0  0  0
    8.1436   71.5842   69.1407 H   0  0  0  0  0  0  0  0  0  0  0  0
  2  1  1  0
  3  2  2  0
  4  2  1  0
  5  4  1  0
  6  5  1  0
  7  5  1  0
  8  7  2  0
  9  8  1  0
  9  4  2  0
 10  9  1  0
 11 10  1  0
 11  1  1  0
 12 11  2  0
 13 10  1  0
 14  1  1  0
 15 14  1  0
 16 15  1  0
 17 16  1  0
 19 17  1  0
 19 18  1  0
 20 19  2  0
  6 21  1  0
  6 22  1  0
  6 23  1  0
  7 24  1  0
 13 25  1  0
 13 26  1  0
 13 27  1  0
 14 28  1  0
 14 29  1  0
 15 30  1  0
 15 31  1  0
 16 32  1  0
 16 33  1  0
 17 34  1  0
 17 35  1  0
 18 36  1  0
 18 37  1  0
 18 38  1  0
M  END
>  <score>  (2) 
-8.44

$$$$
=
     RDKit          3D

 38 39  0  0  0  0  0  0  0  0999 V2000
    1.4350   68.8580   66.7110 N   0  0  0  0  0  0  0  0  0  0  0  0
    2.6920   69.2900   67.1510 C   0  0  0  0  0  0  0  0  0  0  0  0
    2.9630   69.5590   68.3180 O   0  0  0  0  0  0  0  0  0  0  0  0
    3.6420   69.3880   66.1000 C   0  0  0  0  0  0  0  0  0  0  0  0
    4.9530   69.7690   66.0920 N   0  0  0  0  0  0  0  0  0  0  0  0
    5.7350   70.1890   67.2260 C   0  0  0  0  0  0  0  0  0  0  0  0
    5.3900   69.6730   64.7960 C   0  0  0  0  0  0  0  0  0  0  0  0
    4.4340   69.2540   63.9910 N   0  0  0  0  0  0  0  0  0  0  0  0
    3.3560   69.0800   64.8050 C   0  0  0  0  0  0  0  0  0  0  0  0
    2.1130   68.6410   64.4230 N   0  0  0  0  0  0  0  0  0  0  0  0
    1.1120   68.4960   65.3850 C   0  0  0  0  0  0  0  0  0  0  0  0
   -0.0080   68.0630   65.0960 O   0  0  0  0  0  0  0  0  0  0  0  0
    1.8580   68.2990   63.0350 C   0  0  0  0  0  0  0  0  0  0  0  0
    0.3930   68.6960   67.7200 C   0  0  0  0  0  0  0  0  0  0  0  0
    0.2740   67.2390   68.1790 C   0  0  0  0  0  0  0  0  0  0  0  0
    1.1080   66.9830   69.4360 C   0  0  0  0  0  0  0  0  0  0  0  0
    0.3900   66.0830   70.4420 C   0  0  0  0  0  0  0  0  0  0  0  0
    0.3890   63.8000   71.6160 C   0  0  0  0  0  0  0  0  0  0  0  0
    1.0050   64.7010   70.5780 C   0  0  0  0  0  0  0  0  0  0  0  0
    1.9670   64.3300   69.9080 O   0  0  0  0  0  0  0  0  0  0  0  0
    5.2147   69.9095   68.1540 H   0  0  0  0  0  0  0  0  0  0  0  0
    6.7188   69.6979   67.1951 H   0  0  0  0  0  0  0  0  0  0  0  0
    5.8689   71.2804   67.1951 H   0  0  0  0  0  0  0  0  0  0  0  0
    6.4117   69.9156   64.4686 H   0  0  0  0  0  0  0  0  0  0  0  0
    1.2010   67.4179   62.9892 H   0  0  0  0  0  0  0  0  0  0  0  0
    1.3699   69.1469   62.5322 H   0  0  0  0  0  0  0  0  0  0  0  0
    2.8099   68.0731   62.5322 H   0  0  0  0  0  0  0  0  0  0  0  0
    0.6365   69.3252   68.5888 H   0  0  0  0  0  0  0  0  0  0  0  0
   -0.5670   68.9959   67.2744 H   0  0  0  0  0  0  0  0  0  0  0  0
   -0.7810   67.0170   68.3974 H   0  0  0  0  0  0  0  0  0  0  0  0
    0.6495   66.5895   67.3746 H   0  0  0  0  0  0  0  0  0  0  0  0
    2.0513   66.5001   69.1411 H   0  0  0  0  0  0  0  0  0  0  0  0
    1.2852   67.9534   69.9228 H   0  0  0  0  0  0  0  0  0  0  0  0
    0.4173   66.5729   71.4265 H   0  0  0  0  0  0  0  0  0  0  0  0
   -0.6354   65.9415   70.0697 H   0  0  0  0  0  0  0  0  0  0  0  0
    0.6424   64.1707   72.6202 H   0  0  0  0  0  0  0  0  0  0  0  0
   -0.7041   63.7926   71.4929 H   0  0  0  0  0  0  0  0  0  0  0  0
    0.7788   62.7788   71.4929 H   0  0  0  0  0  0  0  0  0  0  0  0
  2  1  1  0
  3  2  2  0
  4  2  1  0
  5  4  1  0
  6  5  1  0
  7  5  1  0
  8  7  2  0
  9  8  1  0
  9  4  2  0
 10  9  1  0
 11 10  1  0
 11  1  1  0
 12 11  2  0
 13 10  1  0
 14  1  1  0
 15 14  1  0
 16 15  1  0
 17 16  1  0
 19 17  1  0
 19 18  1  0
 20 19  2  0
  6 21  1  0
  6 22  1  0
  6 23  1  0
  7 24  1  0
 13 25  1  0
 13 26  1  0
 13 27  1  0
 14 28  1  0
 14 29  1  0
 15 30  1  0
 15 31  1  0
 16 32  1  0
 16 33  1  0
 17 34  1  0
 17 35  1  0
 18 36  1  0
 18 37  1  0
 18 38  1  0
M  END
>  <score>  (3) 
-7.916

$$$$
=
     RDKit          3D

 38 39  0  0  0  0  0  0  0  0999 V2000
    1.8500   69.0300   66.9080 N   0  0  0  0  0  0  0  0  0  0  0  0
    1.8030   68.7380   65.5390 C   0  0  0  0  0  0  0  0  0  0  0  0
    0.8060   68.3270   64.9520 O   0  0  0  0  0  0  0  0  0  0  0  0
    3.0400   68.9690   64.8810 C   0  0  0  0  0  0  0  0  0  0  0  0
    3.4230   68.8100   63.5810 N   0  0  0  0  0  0  0  0  0  0  0  0
    2.6040   68.3400   62.4930 C   0  0  0  0  0  0  0  0  0  0  0  0
    4.7380   69.1880   63.5000 C   0  0  0  0  0  0  0  0  0  0  0  0
    5.2040   69.5750   64.6700 N   0  0  0  0  0  0  0  0  0  0  0  0
    4.1480   69.4370   65.5200 C   0  0  0  0  0  0  0  0  0  0  0  0
    4.1420   69.7270   66.8610 N   0  0  0  0  0  0  0  0  0  0  0  0
    2.9680   69.5490   67.5950 C   0  0  0  0  0  0  0  0  0  0  0  0
    2.9020   69.8380   68.7940 O   0  0  0  0  0  0  0  0  0  0  0  0
    5.3390   70.2480   67.4970 C   0  0  0  0  0  0  0  0  0  0  0  0
    0.6190   68.8530   67.6710 C   0  0  0  0  0  0  0  0  0  0  0  0
    0.3980   67.3850   68.0510 C   0  0  0  0  0  0  0  0  0  0  0  0
    1.1460   67.0250   69.3370 C   0  0  0  0  0  0  0  0  0  0  0  0
    0.3060   66.1660   70.2830 C   0  0  0  0  0  0  0  0  0  0  0  0
    0.2720   64.0210   71.6940 C   0  0  0  0  0  0  0  0  0  0  0  0
    0.9120   64.8050   70.5770 C   0  0  0  0  0  0  0  0  0  0  0  0
    1.8850   64.3620   69.9690 O   0  0  0  0  0  0  0  0  0  0  0  0
    1.7162   67.8305   62.8959 H   0  0  0  0  0  0  0  0  0  0  0  0
    2.2882   69.1943   61.8762 H   0  0  0  0  0  0  0  0  0  0  0  0
    3.1822   67.6363   61.8762 H   0  0  0  0  0  0  0  0  0  0  0  0
    5.3306   69.1704   62.5734 H   0  0  0  0  0  0  0  0  0  0  0  0
    5.2248   70.1983   68.5899 H   0  0  0  0  0  0  0  0  0  0  0  0
    6.2079   69.6467   67.1914 H   0  0  0  0  0  0  0  0  0  0  0  0
    5.4910   71.2937   67.1914 H   0  0  0  0  0  0  0  0  0  0  0  0
    0.6788   69.4547   68.5899 H   0  0  0  0  0  0  0  0  0  0  0  0
   -0.2246   69.1772   67.0439 H   0  0  0  0  0  0  0  0  0  0  0  0
   -0.6778   67.2119   68.2017 H   0  0  0  0  0  0  0  0  0  0  0  0
    0.7833   66.7537   67.2368 H   0  0  0  0  0  0  0  0  0  0  0  0
    2.0571   66.4690   69.0711 H   0  0  0  0  0  0  0  0  0  0  0  0
    1.3826   67.9636   69.8596 H   0  0  0  0  0  0  0  0  0  0  0  0
    0.1919   66.7074   71.2337 H   0  0  0  0  0  0  0  0  0  0  0  0
   -0.6568   65.9863   69.7823 H   0  0  0  0  0  0  0  0  0  0  0  0
    0.6023   64.4257   72.6621 H   0  0  0  0  0  0  0  0  0  0  0  0
   -0.8225   64.1006   71.6176 H   0  0  0  0  0  0  0  0  0  0  0  0
    0.5691   62.9646   71.6176 H   0  0  0  0  0  0  0  0  0  0  0  0
  2  1  1  0
  3  2  2  0
  4  2  1  0
  5  4  1  0
  6  5  1  0
  7  5  1  0
  8  7  2  0
  9  8  1  0
  9  4  2  0
 10  9  1  0
 11 10  1  0
 11  1  1  0
 12 11  2  0
 13 10  1  0
 14  1  1  0
 15 14  1  0
 16 15  1  0
 17 16  1  0
 19 17  1  0
 19 18  1  0
 20 19  2  0
  6 21  1  0
  6 22  1  0
  6 23  1  0
  7 24  1  0
 13 25  1  0
 13 26  1  0
 13 27  1  0
 14 28  1  0
 14 29  1  0
 15 30  1  0
 15 31  1  0
 16 32  1  0
 16 33  1  0
 17 34  1  0
 17 35  1  0
 18 36  1  0
 18 37  1  0
 18 38  1  0
M  END
>  <score>  (4) 
-7.882

$$$$
=
     RDKit          3D

 38 39  0  0  0  0  0  0  0  0999 V2000
    2.4350   68.8130   65.1880 N   0  0  0  0  0  0  0  0  0  0  0  0
    2.6220   69.2010   66.5210 C   0  0  0  0  0  0  0  0  0  0  0  0
    1.7750   69.0830   67.4010 O   0  0  0  0  0  0  0  0  0  0  0  0
    3.9090   69.7510   66.7620 C   0  0  0  0  0  0  0  0  0  0  0  0
    4.4870   70.2490   67.8930 N   0  0  0  0  0  0  0  0  0  0  0  0
    3.8880   70.3380   69.2000 C   0  0  0  0  0  0  0  0  0  0  0  0
    5.7540   70.6470   67.5540 C   0  0  0  0  0  0  0  0  0  0  0  0
    6.0070   70.4290   66.2790 N   0  0  0  0  0  0  0  0  0  0  0  0
    4.8600   69.8740   65.7950 C   0  0  0  0  0  0  0  0  0  0  0  0
    4.6390   69.4630   64.5050 N   0  0  0  0  0  0  0  0  0  0  0  0
    3.4100   68.8930   64.1690 C   0  0  0  0  0  0  0  0  0  0  0  0
    3.1800   68.4680   63.0330 O   0  0  0  0  0  0  0  0  0  0  0  0
    5.6910   69.5890   63.5120 C   0  0  0  0  0  0  0  0  0  0  0  0
    1.1540   68.2080   64.8410 C   0  0  0  0  0  0  0  0  0  0  0  0
    1.1740   66.6900   65.0450 C   0  0  0  0  0  0  0  0  0  0  0  0
    2.5810   66.1930   65.3860 C   0  0  0  0  0  0  0  0  0  0  0  0
    3.1530   65.2700   64.3100 C   0  0  0  0  0  0  0  0  0  0  0  0
    4.9070   63.4300   63.9450 C   0  0  0  0  0  0  0  0  0  0  0  0
    3.9010   64.0700   64.8660 C   0  0  0  0  0  0  0  0  0  0  0  0
    3.6920   63.6160   65.9890 O   0  0  0  0  0  0  0  0  0  0  0  0
    4.6663   70.2224   69.9687 H   0  0  0  0  0  0  0  0  0  0  0  0
    3.4021   71.3182   69.3147 H   0  0  0  0  0  0  0  0  0  0  0  0
    3.1381   69.5414   69.3147 H   0  0  0  0  0  0  0  0  0  0  0  0
    6.4710   71.0932   68.2589 H   0  0  0  0  0  0  0  0  0  0  0  0
    6.6608   69.7052   64.0180 H   0  0  0  0  0  0  0  0  0  0  0  0
    5.7114   68.6869   62.8829 H   0  0  0  0  0  0  0  0  0  0  0  0
    5.4977   70.4704   62.8829 H   0  0  0  0  0  0  0  0  0  0  0  0
    0.3695   68.6434   65.4773 H   0  0  0  0  0  0  0  0  0  0  0  0
    0.9547   68.4099   63.7782 H   0  0  0  0  0  0  0  0  0  0  0  0
    0.4928   66.4302   65.8687 H   0  0  0  0  0  0  0  0  0  0  0  0
    0.8536   66.2097   64.1087 H   0  0  0  0  0  0  0  0  0  0  0  0
    3.2457   67.0628   65.4943 H   0  0  0  0  0  0  0  0  0  0  0  0
    2.5142   65.6160   66.3201 H   0  0  0  0  0  0  0  0  0  0  0  0
    2.3218   64.9036   63.6897 H   0  0  0  0  0  0  0  0  0  0  0  0
    3.8795   65.8615   63.7336 H   0  0  0  0  0  0  0  0  0  0  0  0
    5.6867   62.9339   64.5416 H   0  0  0  0  0  0  0  0  0  0  0  0
    4.4023   62.6866   63.3105 H   0  0  0  0  0  0  0  0  0  0  0  0
    5.3665   64.2022   63.3105 H   0  0  0  0  0  0  0  0  0  0  0  0
  2  1  1  0
  3  2  2  0
  4  2  1  0
  5  4  1  0
  6  5  1  0
  7  5  1  0
  8  7  2  0
  9  8  1  0
  9  4  2  0
 10  9  1  0
 11 10  1  0
 11  1  1  0
 12 11  2  0
 13 10  1  0
 14  1  1  0
 15 14  1  0
 16 15  1  0
 17 16  1  0
 19 17  1  0
 19 18  1  0
 20 19  2  0
  6 21  1  0
  6 22  1  0
  6 23  1  0
  7 24  1  0
 13 25  1  0
 13 26  1  0
 13 27  1  0
 14 28  1  0
 14 29  1  0
 15 30  1  0
 15 31  1  0
 16 32  1  0
 16 33  1  0
 17 34  1  0
 17 35  1  0
 18 36  1  0
 18 37  1  0
 18 38  1  0
M  END
>  <score>  (5) 
-7.111

$$$$
=
     RDKit          3D

 38 39  0  0  0  0  0  0  0  0999 V2000
    1.0740   64.1430   71.2030 N   0  0  0  0  0  0  0  0  0  0  0  0
    2.1320   63.3890   70.6820 C   0  0  0  0  0  0  0  0  0  0  0  0
    2.5250   63.4570   69.5210 O   0  0  0  0  0  0  0  0  0  0  0  0
    2.7210   62.5240   71.6420 C   0  0  0  0  0  0  0  0  0  0  0  0
    3.7500   61.6320   71.5520 N   0  0  0  0  0  0  0  0  0  0  0  0
    4.5380   61.3400   70.3820 C   0  0  0  0  0  0  0  0  0  0  0  0
    3.8990   61.0660   72.7910 C   0  0  0  0  0  0  0  0  0  0  0  0
    3.0280   61.5480   73.6540 N   0  0  0  0  0  0  0  0  0  0  0  0
    2.3020   62.4500   72.9360 C   0  0  0  0  0  0  0  0  0  0  0  0
    1.2710   63.2230   73.4080 N   0  0  0  0  0  0  0  0  0  0  0  0
    0.6360   64.1190   72.5460 C   0  0  0  0  0  0  0  0  0  0  0  0
   -0.2670   64.8650   72.9360 O   0  0  0  0  0  0  0  0  0  0  0  0
    0.8730   63.1310   74.8010 C   0  0  0  0  0  0  0  0  0  0  0  0
    0.4180   65.0860   70.3040 C   0  0  0  0  0  0  0  0  0  0  0  0
    1.2170   66.3870   70.1720 C   0  0  0  0  0  0  0  0  0  0  0  0
    0.8570   67.1310   68.8830 C   0  0  0  0  0  0  0  0  0  0  0  0
   -0.5970   66.9110   68.4660 C   0  0  0  0  0  0  0  0  0  0  0  0
   -2.1330   68.0010   66.7210 C   0  0  0  0  0  0  0  0  0  0  0  0
   -0.8720   67.2280   67.0060 C   0  0  0  0  0  0  0  0  0  0  0  0
   -0.1330   66.8620   66.0940 O   0  0  0  0  0  0  0  0  0  0  0  0
    5.5284   60.9730   70.6892 H   0  0  0  0  0  0  0  0  0  0  0  0
    4.0316   60.5698   69.7817 H   0  0  0  0  0  0  0  0  0  0  0  0
    4.6557   62.2542   69.7817 H   0  0  0  0  0  0  0  0  0  0  0  0
    4.6530   60.3031   73.0350 H   0  0  0  0  0  0  0  0  0  0  0  0
    1.7421   63.3319   75.4447 H   0  0  0  0  0  0  0  0  0  0  0  0
    0.0854   63.8708   75.0069 H   0  0  0  0  0  0  0  0  0  0  0  0
    0.4899   62.1206   75.0069 H   0  0  0  0  0  0  0  0  0  0  0  0
    0.3212   64.6239   69.3105 H   0  0  0  0  0  0  0  0  0  0  0  0
   -0.5702   65.3294   70.7214 H   0  0  0  0  0  0  0  0  0  0  0  0
    0.9941   67.0337   71.0335 H   0  0  0  0  0  0  0  0  0  0  0  0
    2.2876   66.1361   70.1413 H   0  0  0  0  0  0  0  0  0  0  0  0
    1.0198   68.2075   69.0400 H   0  0  0  0  0  0  0  0  0  0  0  0
    1.4978   66.7375   68.0802 H   0  0  0  0  0  0  0  0  0  0  0  0
   -0.8534   65.8566   68.6460 H   0  0  0  0  0  0  0  0  0  0  0  0
   -1.2093   67.6019   69.0641 H   0  0  0  0  0  0  0  0  0  0  0  0
   -2.6073   68.2917   67.6700 H   0  0  0  0  0  0  0  0  0  0  0  0
   -1.8869   68.9036   66.1424 H   0  0  0  0  0  0  0  0  0  0  0  0
   -2.8257   67.3722   66.1424 H   0  0  0  0  0  0  0  0  0  0  0  0
  2  1  1  0
  3  2  2  0
  4  2  1  0
  5  4  1  0
  6  5  1  0
  7  5  1  0
  8  7  2  0
  9  8  1  0
  9  4  2  0
 10  9  1  0
 11 10  1  0
 11  1  1  0
 12 11  2  0
 13 10  1  0
 14  1  1  0
 15 14  1  0
 16 15  1  0
 17 16  1  0
 19 17  1  0
 19 18  1  0
 20 19  2  0
  6 21  1  0
  6 22  1  0
  6 23  1  0
  7 24  1  0
 13 25  1  0
 13 26  1  0
 13 27  1  0
 14 28  1  0
 14 29  1  0
 15 30  1  0
 15 31  1  0
 16 32  1  0
 16 33  1  0
 17 34  1  0
 17 35  1  0
 18 36  1  0
 18 37  1  0
 18 38  1  0
M  END
>  <score>  (6) 
-7.11

$$$$
=
     RDKit          3D

 38 39  0  0  0  0  0  0  0  0999 V2000
    1.1950   63.6850   71.0660 N   0  0  0  0  0  0  0  0  0  0  0  0
    0.7300   63.2230   72.3030 C   0  0  0  0  0  0  0  0  0  0  0  0
   -0.3740   63.4870   72.7700 O   0  0  0  0  0  0  0  0  0  0  0  0
    1.6730   62.4040   72.9790 C   0  0  0  0  0  0  0  0  0  0  0  0
    1.6270   61.7700   74.1860 N   0  0  0  0  0  0  0  0  0  0  0  0
    0.5340   61.7800   75.1240 C   0  0  0  0  0  0  0  0  0  0  0  0
    2.8200   61.1130   74.3400 C   0  0  0  0  0  0  0  0  0  0  0  0
    3.6120   61.2940   73.3020 N   0  0  0  0  0  0  0  0  0  0  0  0
    2.8960   62.0950   72.4640 C   0  0  0  0  0  0  0  0  0  0  0  0
    3.3020   62.5550   71.2370 N   0  0  0  0  0  0  0  0  0  0  0  0
    2.4400   63.3560   70.4860 C   0  0  0  0  0  0  0  0  0  0  0  0
    2.7440   63.7570   69.3590 O   0  0  0  0  0  0  0  0  0  0  0  0
    4.6040   62.1800   70.7150 C   0  0  0  0  0  0  0  0  0  0  0  0
    0.2890   64.5130   70.2770 C   0  0  0  0  0  0  0  0  0  0  0  0
    0.4770   66.0030   70.5830 C   0  0  0  0  0  0  0  0  0  0  0  0
    0.6180   66.8200   69.2970 C   0  0  0  0  0  0  0  0  0  0  0  0
   -0.6580   66.8100   68.4540 C   0  0  0  0  0  0  0  0  0  0  0  0
   -1.0160   68.8110   66.8860 C   0  0  0  0  0  0  0  0  0  0  0  0
   -0.4840   67.4140   67.0710 C   0  0  0  0  0  0  0  0  0  0  0  0
    0.0340   66.8050   66.1380 O   0  0  0  0  0  0  0  0  0  0  0  0
    0.9311   61.7764   76.1498 H   0  0  0  0  0  0  0  0  0  0  0  0
   -0.0737   62.6837   74.9693 H   0  0  0  0  0  0  0  0  0  0  0  0
   -0.0901   60.8875   74.9693 H   0  0  0  0  0  0  0  0  0  0  0  0
    3.0839   60.5093   75.2209 H   0  0  0  0  0  0  0  0  0  0  0  0
    5.2911   61.9821   71.5509 H   0  0  0  0  0  0  0  0  0  0  0  0
    4.5051   61.2738   70.0993 H   0  0  0  0  0  0  0  0  0  0  0  0
    5.0022   63.0000   70.0993 H   0  0  0  0  0  0  0  0  0  0  0  0
    0.4862   64.3401   69.2087 H   0  0  0  0  0  0  0  0  0  0  0  0
   -0.7437   64.2360   70.5352 H   0  0  0  0  0  0  0  0  0  0  0  0
   -0.3960   66.3666   71.1448 H   0  0  0  0  0  0  0  0  0  0  0  0
    1.3970   66.1232   71.1739 H   0  0  0  0  0  0  0  0  0  0  0  0
    0.8561   67.8601   69.5642 H   0  0  0  0  0  0  0  0  0  0  0  0
    1.4187   66.3632   68.6969 H   0  0  0  0  0  0  0  0  0  0  0  0
   -0.9888   65.7674   68.3380 H   0  0  0  0  0  0  0  0  0  0  0  0
   -1.3967   67.4296   68.9836 H   0  0  0  0  0  0  0  0  0  0  0  0
   -1.1908   69.2701   67.8702 H   0  0  0  0  0  0  0  0  0  0  0  0
   -0.2835   69.4112   66.3263 H   0  0  0  0  0  0  0  0  0  0  0  0
   -1.9622   68.7719   66.3263 H   0  0  0  0  0  0  0  0  0  0  0  0
  2  1  1  0
  3  2  2  0
  4  2  1  0
  5  4  1  0
  6  5  1  0
  7  5  1  0
  8  7  2  0
  9  8  1  0
  9  4  2  0
 10  9  1  0
 11 10  1  0
 11  1  1  0
 12 11  2  0
 13 10  1  0
 14  1  1  0
 15 14  1  0
 16 15  1  0
 17 16  1  0
 19 17  1  0
 19 18  1  0
 20 19  2  0
  6 21  1  0
  6 22  1  0
  6 23  1  0
  7 24  1  0
 13 25  1  0
 13 26  1  0
 13 27  1  0
 14 28  1  0
 14 29  1  0
 15 30  1  0
 15 31  1  0
 16 32  1  0
 16 33  1  0
 17 34  1  0
 17 35  1  0
 18 36  1  0
 18 37  1  0
 18 38  1  0
M  END
>  <score>  (7) 
-6.861

$$$$
=
     RDKit          3D

 38 39  0  0  0  0  0  0  0  0999 V2000
    2.4340   62.7950   71.0820 N   0  0  0  0  0  0  0  0  0  0  0  0
    2.2340   62.4450   72.4230 C   0  0  0  0  0  0  0  0  0  0  0  0
    1.8700   63.2270   73.2970 O   0  0  0  0  0  0  0  0  0  0  0  0
    2.4960   61.0730   72.6820 C   0  0  0  0  0  0  0  0  0  0  0  0
    2.4330   60.3360   73.8280 N   0  0  0  0  0  0  0  0  0  0  0  0
    2.0590   60.8080   75.1370 C   0  0  0  0  0  0  0  0  0  0  0  0
    2.7900   59.0540   73.5010 C   0  0  0  0  0  0  0  0  0  0  0  0
    3.0710   58.9410   72.2180 N   0  0  0  0  0  0  0  0  0  0  0  0
    2.8870   60.1940   71.7180 C   0  0  0  0  0  0  0  0  0  0  0  0
    3.0520   60.5790   70.4110 N   0  0  0  0  0  0  0  0  0  0  0  0
    2.8040   61.9050   70.0510 C   0  0  0  0  0  0  0  0  0  0  0  0
    2.8970   62.2870   68.8800 O   0  0  0  0  0  0  0  0  0  0  0  0
    3.4460   59.6030   69.4100 C   0  0  0  0  0  0  0  0  0  0  0  0
    2.1650   64.1790   70.7050 C   0  0  0  0  0  0  0  0  0  0  0  0
    0.6740   64.4080   70.4290 C   0  0  0  0  0  0  0  0  0  0  0  0
    0.2960   65.8800   70.6080 C   0  0  0  0  0  0  0  0  0  0  0  0
    1.1860   66.8170   69.7910 C   0  0  0  0  0  0  0  0  0  0  0  0
    1.3550   68.2470   67.6650 C   0  0  0  0  0  0  0  0  0  0  0  0
    0.5970   67.2050   68.4460 C   0  0  0  0  0  0  0  0  0  0  0  0
   -0.4500   66.7270   68.0140 O   0  0  0  0  0  0  0  0  0  0  0  0
    2.5490   60.1897   75.9036 H   0  0  0  0  0  0  0  0  0  0  0  0
    2.3752   61.8551   75.2534 H   0  0  0  0  0  0  0  0  0  0  0  0
    0.9673   60.7395   75.2534 H   0  0  0  0  0  0  0  0  0  0  0  0
    2.8363   58.2226   74.2197 H   0  0  0  0  0  0  0  0  0  0  0  0
    3.8130   58.6939   69.9088 H   0  0  0  0  0  0  0  0  0  0  0  0
    2.5788   59.3518   68.7816 H   0  0  0  0  0  0  0  0  0  0  0  0
    4.2445   60.0242   68.7816 H   0  0  0  0  0  0  0  0  0  0  0  0
    2.4823   64.8406   71.5245 H   0  0  0  0  0  0  0  0  0  0  0  0
    2.7239   64.4000   69.7837 H   0  0  0  0  0  0  0  0  0  0  0  0
    0.4497   64.1033   69.3961 H   0  0  0  0  0  0  0  0  0  0  0  0
    0.0920   63.8101   71.1457 H   0  0  0  0  0  0  0  0  0  0  0  0
   -0.7476   66.0175   70.2888 H   0  0  0  0  0  0  0  0  0  0  0  0
    0.4309   66.1328   71.6700 H   0  0  0  0  0  0  0  0  0  0  0  0
    1.3514   67.7346   70.3747 H   0  0  0  0  0  0  0  0  0  0  0  0
    2.1203   66.2735   69.5865 H   0  0  0  0  0  0  0  0  0  0  0  0
    1.8557   68.9353   68.3618 H   0  0  0  0  0  0  0  0  0  0  0  0
    2.1076   67.7549   67.0315 H   0  0  0  0  0  0  0  0  0  0  0  0
    0.6550   68.8116   67.0315 H   0  0  0  0  0  0  0  0  0  0  0  0
  2  1  1  0
  3  2  2  0
  4  2  1  0
  5  4  1  0
  6  5  1  0
  7  5  1  0
  8  7  2  0
  9  8  1  0
  9  4  2  0
 10  9  1  0
 11 10  1  0
 11  1  1  0
 12 11  2  0
 13 10  1  0
 14  1  1  0
 15 14  1  0
 16 15  1  0
 17 16  1  0
 19 17  1  0
 19 18  1  0
 20 19  2  0
  6 21  1  0
  6 22  1  0
  6 23  1  0
  7 24  1  0
 13 25  1  0
 13 26  1  0
 13 27  1  0
 14 28  1  0
 14 29  1  0
 15 30  1  0
 15 31  1  0
 16 32  1  0
 16 33  1  0
 17 34  1  0
 17 35  1  0
 18 36  1  0
 18 37  1  0
 18 38  1  0
M  END
>  <score>  (8) 
-6.76

$$$$
=
     RDKit          3D

 38 39  0  0  0  0  0  0  0  0999 V2000
    3.7880   60.9640   71.7800 N   0  0  0  0  0  0  0  0  0  0  0  0
    3.0690   61.0410   72.9800 C   0  0  0  0  0  0  0  0  0  0  0  0
    2.9390   62.0650   73.6440 O   0  0  0  0  0  0  0  0  0  0  0  0
    2.4940   59.8000   73.3610 C   0  0  0  0  0  0  0  0  0  0  0  0
    1.7400   59.4400   74.4400 N   0  0  0  0  0  0  0  0  0  0  0  0
    1.3180   60.2950   75.5200 C   0  0  0  0  0  0  0  0  0  0  0  0
    1.4520   58.1070   74.3020 C   0  0  0  0  0  0  0  0  0  0  0  0
    1.9790   57.6080   73.2020 N   0  0  0  0  0  0  0  0  0  0  0  0
    2.6220   58.6610   72.6250 C   0  0  0  0  0  0  0  0  0  0  0  0
    3.3210   58.6370   71.4440 N   0  0  0  0  0  0  0  0  0  0  0  0
    3.9120   59.8120   70.9740 C   0  0  0  0  0  0  0  0  0  0  0  0
    4.5120   59.8490   69.8960 O   0  0  0  0  0  0  0  0  0  0  0  0
    3.4110   57.4070   70.6780 C   0  0  0  0  0  0  0  0  0  0  0  0
    4.3960   62.1940   71.2850 C   0  0  0  0  0  0  0  0  0  0  0  0
    3.5470   62.8380   70.1830 C   0  0  0  0  0  0  0  0  0  0  0  0
    2.4850   63.7690   70.7720 C   0  0  0  0  0  0  0  0  0  0  0  0
    1.0680   63.2220   70.6020 C   0  0  0  0  0  0  0  0  0  0  0  0
   -0.4520   62.1390   72.3660 C   0  0  0  0  0  0  0  0  0  0  0  0
    0.1930   63.3920   71.8320 C   0  0  0  0  0  0  0  0  0  0  0  0
   -0.0110   64.4830   72.3600 O   0  0  0  0  0  0  0  0  0  0  0  0
    1.5547   59.8154   76.4812 H   0  0  0  0  0  0  0  0  0  0  0  0
    1.8439   61.2587   75.4517 H   0  0  0  0  0  0  0  0  0  0  0  0
    0.2332   60.4637   75.4517 H   0  0  0  0  0  0  0  0  0  0  0  0
    0.8551   57.5259   75.0203 H   0  0  0  0  0  0  0  0  0  0  0  0
    3.4737   56.5506   71.3655 H   0  0  0  0  0  0  0  0  0  0  0  0
    2.5180   57.3037   70.0440 H   0  0  0  0  0  0  0  0  0  0  0  0
    4.3095   57.4348   70.0440 H   0  0  0  0  0  0  0  0  0  0  0  0
    4.4963   62.9038   72.1194 H   0  0  0  0  0  0  0  0  0  0  0  0
    5.3801   61.9455   70.8609 H   0  0  0  0  0  0  0  0  0  0  0  0
    4.2034   63.4185   69.5180 H   0  0  0  0  0  0  0  0  0  0  0  0
    3.0372   62.0385   69.6255 H   0  0  0  0  0  0  0  0  0  0  0  0
    2.6864   63.8994   71.8455 H   0  0  0  0  0  0  0  0  0  0  0  0
    2.5414   64.7251   70.2309 H   0  0  0  0  0  0  0  0  0  0  0  0
    0.5915   63.7487   69.7620 H   0  0  0  0  0  0  0  0  0  0  0  0
    1.1616   62.1408   70.4226 H   0  0  0  0  0  0  0  0  0  0  0  0
   -0.4407   62.1609   73.4657 H   0  0  0  0  0  0  0  0  0  0  0  0
   -1.4916   62.0818   72.0110 H   0  0  0  0  0  0  0  0  0  0  0  0
    0.1055   61.2597   72.0110 H   0  0  0  0  0  0  0  0  0  0  0  0
  2  1  1  0
  3  2  2  0
  4  2  1  0
  5  4  1  0
  6  5  1  0
  7  5  1  0
  8  7  2  0
  9  8  1  0
  9  4  2  0
 10  9  1  0
 11 10  1  0
 11  1  1  0
 12 11  2  0
 13 10  1  0
 14  1  1  0
 15 14  1  0
 16 15  1  0
 17 16  1  0
 19 17  1  0
 19 18  1  0
 20 19  2  0
  6 21  1  0
  6 22  1  0
  6 23  1  0
  7 24  1  0
 13 25  1  0
 13 26  1  0
 13 27  1  0
 14 28  1  0
 14 29  1  0
 15 30  1  0
 15 31  1  0
 16 32  1  0
 16 33  1  0
 17 34  1  0
 17 35  1  0
 18 36  1  0
 18 37  1  0
 18 38  1  0
M  END
>  <score>  (9) 
-6.338

$$$$
