=
     RDKit          3D

 44 45  0  0  0  0  0  0  0  0999 V2000
    1.3710   67.7850   66.3780 C   0  0  0  0  0  0  0  0  0  0  0  0
    1.6490   66.8020   67.0590 O   0  0  0  0  0  0  0  0  0  0  0  0
    0.9260   67.7490   65.0920 O   0  0  0  0  0  0  0  0  0  0  0  0
    4.6880   64.7570   64.0440 C   0  0  0  0  0  0  0  0  0  0  0  0
    4.1620   66.1910   64.0630 C   0  0  2  0  0  0  0  0  0  0  0  0
    2.7290   66.2390   64.6210 C   0  0  0  0  0  0  0  0  0  0  0  0
    1.9020   67.4190   64.0880 C   0  0  2  0  0  0  0  0  0  0  0  0
    2.7990   68.6250   63.8030 C   0  0  0  0  0  0  0  0  0  0  0  0
    3.8340   68.3280   62.6900 C   0  0  0  0  0  0  0  0  0  0  0  0
    4.2330   66.8280   62.6700 C   0  0  0  0  0  0  0  0  0  0  0  0
    5.0800   69.2020   62.9280 C   0  0  0  0  0  0  0  0  0  0  0  0
    3.2450   68.7010   61.3160 C   0  0  0  0  0  0  0  0  0  0  0  0
    1.4190   69.2190   66.9250 C   0  0  2  0  0  0  0  0  0  0  0  0
    2.8040   69.6240   67.3860 C   0  0  0  0  0  0  0  0  0  0  0  0
    3.9140   69.5000   66.5370 C   0  0  0  0  0  0  0  0  0  0  0  0
    5.1820   69.9060   66.9580 C   0  0  0  0  0  0  0  0  0  0  0  0
    5.3540   70.4450   68.2320 C   0  0  0  0  0  0  0  0  0  0  0  0
    4.2610   70.5780   69.0840 C   0  0  0  0  0  0  0  0  0  0  0  0
    2.9920   70.1720   68.6650 C   0  0  0  0  0  0  0  0  0  0  0  0
    0.5020   69.3900   68.0110 O   0  0  0  0  0  0  0  0  0  0  0  0
    4.8187   64.4007   65.0765 H   0  0  0  0  0  0  0  0  0  0  0  0
    3.9688   64.1095   63.5209 H   0  0  0  0  0  0  0  0  0  0  0  0
    5.6552   64.7281   63.5209 H   0  0  0  0  0  0  0  0  0  0  0  0
    4.8086   66.7795   64.7305 H   0  0  0  0  0  0  0  0  0  0  0  0
    2.2177   65.3042   64.3478 H   0  0  0  0  0  0  0  0  0  0  0  0
    2.8106   66.3675   65.7104 H   0  0  0  0  0  0  0  0  0  0  0  0
    1.4108   67.1441   63.1429 H   0  0  0  0  0  0  0  0  0  0  0  0
    2.1690   69.4692   63.4860 H   0  0  0  0  0  0  0  0  0  0  0  0
    3.3501   68.8639   64.7245 H   0  0  0  0  0  0  0  0  0  0  0  0
    3.5490   66.2884   61.9985 H   0  0  0  0  0  0  0  0  0  0  0  0
    5.2737   66.7601   62.3203 H   0  0  0  0  0  0  0  0  0  0  0  0
    5.2454   69.3180   64.0093 H   0  0  0  0  0  0  0  0  0  0  0  0
    5.9579   68.7207   62.4723 H   0  0  0  0  0  0  0  0  0  0  0  0
    4.9264   70.1913   62.4723 H   0  0  0  0  0  0  0  0  0  0  0  0
    2.3235   69.2846   61.4583 H   0  0  0  0  0  0  0  0  0  0  0  0
    3.9760   69.3012   60.7544 H   0  0  0  0  0  0  0  0  0  0  0  0
    3.0150   67.7836   60.7544 H   0  0  0  0  0  0  0  0  0  0  0  0
    1.1309   69.8689   66.0855 H   0  0  0  0  0  0  0  0  0  0  0  0
    3.7841   69.0786   65.5293 H   0  0  0  0  0  0  0  0  0  0  0  0
    6.0451   69.8005   66.2843 H   0  0  0  0  0  0  0  0  0  0  0  0
    6.3527   70.7650   68.5639 H   0  0  0  0  0  0  0  0  0  0  0  0
    4.3971   71.0037   70.0891 H   0  0  0  0  0  0  0  0  0  0  0  0
    2.1326   70.2825   69.3427 H   0  0  0  0  0  0  0  0  0  0  0  0
    0.9867   69.2996   68.8695 H   0  0  0  0  0  0  0  0  0  0  0  0
  2  1  2  0
  3  1  1  0
  5  4  1  0
  6  5  1  0
  7  6  1  0
  7  3  1  0
  8  7  1  0
  9  8  1  0
 10  9  1  0
 10  5  1  0
 11  9  1  0
 12  9  1  0
 13  1  1  0
 14 13  1  0
 15 14  2  0
 16 15  1  0
 17 16  2  0
 18 17  1  0
 19 18  2  0
 19 14  1  0
 20 13  1  0
  4 21  1  0
  4 22  1  0
  4 23  1  0
  5 24  1  1
  6 25  1  0
  6 26  1  0
  7 27  1  6
  8 28  1  0
  8 29  1  0
 10 30  1  0
 10 31  1  0
 11 32  1  0
 11 33  1  0
 11 34  1  0
 12 35  1  0
 12 36  1  0
 12 37  1  0
 13 38  1  6
 15 39  1  0
 16 40  1  0
 17 41  1  0
 18 42  1  0
 19 43  1  0
 20 44  1  0
M  END
>  <score>  (1) 
-9.947

$$$$
=
     RDKit          3D

 44 45  0  0  0  0  0  0  0  0999 V2000
    1.6100   68.1830   67.8230 C   0  0  0  0  0  0  0  0  0  0  0  0
    1.5130   67.6680   68.9340 O   0  0  0  0  0  0  0  0  0  0  0  0
    1.3620   67.5540   66.6420 O   0  0  0  0  0  0  0  0  0  0  0  0
    0.5050   69.2560   62.1060 C   0  0  0  0  0  0  0  0  0  0  0  0
    1.3610   68.3520   62.9920 C   0  0  2  0  0  0  0  0  0  0  0  0
    0.8800   68.4060   64.4520 C   0  0  0  0  0  0  0  0  0  0  0  0
    1.9890   68.1160   65.4750 C   0  0  2  0  0  0  0  0  0  0  0  0
    3.0140   67.1390   64.9000 C   0  0  0  0  0  0  0  0  0  0  0  0
    3.7500   67.7260   63.6700 C   0  0  0  0  0  0  0  0  0  0  0  0
    2.8470   68.7170   62.8870 C   0  0  0  0  0  0  0  0  0  0  0  0
    4.1800   66.5670   62.7520 C   0  0  0  0  0  0  0  0  0  0  0  0
    5.0200   68.4690   64.1270 C   0  0  0  0  0  0  0  0  0  0  0  0
    1.9620   69.6630   67.6180 C   0  0  2  0  0  0  0  0  0  0  0  0
    3.3980   69.9790   67.9800 C   0  0  0  0  0  0  0  0  0  0  0  0
    4.4260   69.8670   67.0300 C   0  0  0  0  0  0  0  0  0  0  0  0
    5.7420   70.1920   67.3630 C   0  0  0  0  0  0  0  0  0  0  0  0
    6.0470   70.6360   68.6480 C   0  0  0  0  0  0  0  0  0  0  0  0
    5.0380   70.7570   69.6000 C   0  0  0  0  0  0  0  0  0  0  0  0
    3.7210   70.4320   69.2700 C   0  0  0  0  0  0  0  0  0  0  0  0
    1.0960   70.5120   68.3800 O   0  0  0  0  0  0  0  0  0  0  0  0
   -0.1139   69.9096   62.7384 H   0  0  0  0  0  0  0  0  0  0  0  0
    1.1585   69.8721   61.4709 H   0  0  0  0  0  0  0  0  0  0  0  0
   -0.1458   68.6371   61.4709 H   0  0  0  0  0  0  0  0  0  0  0  0
    1.2463   67.3188   62.6324 H   0  0  0  0  0  0  0  0  0  0  0  0
    0.4788   69.4111   64.6492 H   0  0  0  0  0  0  0  0  0  0  0  0
    0.1182   67.6214   64.5703 H   0  0  0  0  0  0  0  0  0  0  0  0
    2.5251   69.0422   65.7295 H   0  0  0  0  0  0  0  0  0  0  0  0
    3.7551   66.9033   65.6780 H   0  0  0  0  0  0  0  0  0  0  0  0
    2.4768   66.2358   64.5749 H   0  0  0  0  0  0  0  0  0  0  0  0
    2.9933   69.7280   63.2950 H   0  0  0  0  0  0  0  0  0  0  0  0
    3.1329   68.6688   61.8259 H   0  0  0  0  0  0  0  0  0  0  0  0
    4.4975   65.7113   63.3660 H   0  0  0  0  0  0  0  0  0  0  0  0
    3.3328   66.2684   62.1171 H   0  0  0  0  0  0  0  0  0  0  0  0
    5.0169   66.8933   62.1171 H   0  0  0  0  0  0  0  0  0  0  0  0
    5.0567   68.4905   65.2262 H   0  0  0  0  0  0  0  0  0  0  0  0
    5.9085   67.9483   63.7406 H   0  0  0  0  0  0  0  0  0  0  0  0
    5.0015   69.4987   63.7406 H   0  0  0  0  0  0  0  0  0  0  0  0
    1.8262   69.8562   66.5437 H   0  0  0  0  0  0  0  0  0  0  0  0
    4.1918   69.5196   66.0129 H   0  0  0  0  0  0  0  0  0  0  0  0
    6.5388   70.0975   66.6105 H   0  0  0  0  0  0  0  0  0  0  0  0
    7.0844   70.8908   68.9103 H   0  0  0  0  0  0  0  0  0  0  0  0
    5.2791   71.1093   70.6138 H   0  0  0  0  0  0  0  0  0  0  0  0
    2.9290   70.5315   70.0269 H   0  0  0  0  0  0  0  0  0  0  0  0
    1.2511   70.3600   69.3459 H   0  0  0  0  0  0  0  0  0  0  0  0
  2  1  2  0
  3  1  1  0
  5  4  1  0
  6  5  1  0
  7  6  1  0
  7  3  1  0
  8  7  1  0
  9  8  1  0
 10  9  1  0
 10  5  1  0
 11  9  1  0
 12  9  1  0
 13  1  1  0
 14 13  1  0
 15 14  2  0
 16 15  1  0
 17 16  2  0
 18 17  1  0
 19 18  2  0
 19 14  1  0
 20 13  1  0
  4 21  1  0
  4 22  1  0
  4 23  1  0
  5 24  1  6
  6 25  1  0
  6 26  1  0
  7 27  1  1
  8 28  1  0
  8 29  1  0
 10 30  1  0
 10 31  1  0
 11 32  1  0
 11 33  1  0
 11 34  1  0
 12 35  1  0
 12 36  1  0
 12 37  1  0
 13 38  1  6
 15 39  1  0
 16 40  1  0
 17 41  1  0
 18 42  1  0
 19 43  1  0
 20 44  1  0
M  END
>  <score>  (2) 
-9.885

$$$$
=
     RDKit          3D

 44 45  0  0  0  0  0  0  0  0999 V2000
    0.7520   67.7430   65.6690 C   0  0  0  0  0  0  0  0  0  0  0  0
    0.7810   66.6540   65.1020 O   0  0  0  0  0  0  0  0  0  0  0  0
    1.5490   68.8060   65.3710 O   0  0  0  0  0  0  0  0  0  0  0  0
    6.1080   70.0220   66.7650 C   0  0  0  0  0  0  0  0  0  0  0  0
    5.1550   69.7550   65.6010 C   0  0  2  0  0  0  0  0  0  0  0  0
    3.7460   69.4130   66.1160 C   0  0  0  0  0  0  0  0  0  0  0  0
    2.9430   68.5190   65.1590 C   0  0  2  0  0  0  0  0  0  0  0  0
    3.3270   68.7960   63.7060 C   0  0  0  0  0  0  0  0  0  0  0  0
    4.8110   68.4520   63.4220 C   0  0  0  0  0  0  0  0  0  0  0  0
    5.6910   68.6460   64.6860 C   0  0  0  0  0  0  0  0  0  0  0  0
    5.3190   69.3560   62.2830 C   0  0  0  0  0  0  0  0  0  0  0  0
    4.9280   66.9880   62.9590 C   0  0  0  0  0  0  0  0  0  0  0  0
   -0.2640   68.0830   66.7690 C   0  0  2  0  0  0  0  0  0  0  0  0
    0.0380   67.3880   68.0800 C   0  0  0  0  0  0  0  0  0  0  0  0
   -0.8910   66.5130   68.6670 C   0  0  0  0  0  0  0  0  0  0  0  0
   -0.5910   65.8510   69.8580 C   0  0  0  0  0  0  0  0  0  0  0  0
    0.6410   66.0520   70.4770 C   0  0  0  0  0  0  0  0  0  0  0  0
    1.5740   66.9140   69.9050 C   0  0  0  0  0  0  0  0  0  0  0  0
    1.2760   67.5780   68.7130 C   0  0  0  0  0  0  0  0  0  0  0  0
   -1.5970   67.7490   66.3650 O   0  0  0  0  0  0  0  0  0  0  0  0
    5.5759   69.8729   67.7161 H   0  0  0  0  0  0  0  0  0  0  0  0
    6.9594   69.3278   66.7085 H   0  0  0  0  0  0  0  0  0  0  0  0
    6.4748   71.0575   66.7085 H   0  0  0  0  0  0  0  0  0  0  0  0
    5.0865   70.6757   65.0031 H   0  0  0  0  0  0  0  0  0  0  0  0
    3.8447   68.8911   67.0793 H   0  0  0  0  0  0  0  0  0  0  0  0
    3.1970   70.3616   66.2092 H   0  0  0  0  0  0  0  0  0  0  0  0
    3.1575   67.4586   65.3578 H   0  0  0  0  0  0  0  0  0  0  0  0
    2.6892   68.1876   63.0480 H   0  0  0  0  0  0  0  0  0  0  0  0
    3.1848   69.8701   63.5159 H   0  0  0  0  0  0  0  0  0  0  0  0
    5.7140   67.7018   65.2499 H   0  0  0  0  0  0  0  0  0  0  0  0
    6.6981   68.9391   64.3545 H   0  0  0  0  0  0  0  0  0  0  0  0
    5.8156   70.2397   62.7100 H   0  0  0  0  0  0  0  0  0  0  0  0
    6.0351   68.7969   61.6628 H   0  0  0  0  0  0  0  0  0  0  0  0
    4.4691   69.6769   61.6628 H   0  0  0  0  0  0  0  0  0  0  0  0
    4.9807   66.3286   63.8379 H   0  0  0  0  0  0  0  0  0  0  0  0
    4.0481   66.7233   62.3542 H   0  0  0  0  0  0  0  0  0  0  0  0
    5.8387   66.8664   62.3542 H   0  0  0  0  0  0  0  0  0  0  0  0
   -0.1814   69.1685   66.9266 H   0  0  0  0  0  0  0  0  0  0  0  0
   -1.8648   66.3481   68.1828 H   0  0  0  0  0  0  0  0  0  0  0  0
   -1.3278   65.1698   70.3087 H   0  0  0  0  0  0  0  0  0  0  0  0
    0.8767   65.5305   71.4164 H   0  0  0  0  0  0  0  0  0  0  0  0
    2.5471   67.0719   70.3930 H   0  0  0  0  0  0  0  0  0  0  0  0
    2.0183   68.2559   68.2664 H   0  0  0  0  0  0  0  0  0  0  0  0
   -2.1595   67.6081   67.1674 H   0  0  0  0  0  0  0  0  0  0  0  0
  2  1  2  0
  3  1  1  0
  5  4  1  0
  6  5  1  0
  7  6  1  0
  7  3  1  0
  8  7  1  0
  9  8  1  0
 10  9  1  0
 10  5  1  0
 11  9  1  0
 12  9  1  0
 13  1  1  0
 14 13  1  0
 15 14  2  0
 16 15  1  0
 17 16  2  0
 18 17  1  0
 19 18  2  0
 19 14  1  0
 20 13  1  0
  4 21  1  0
  4 22  1  0
  4 23  1  0
  5 24  1  6
  6 25  1  0
  6 26  1  0
  7 27  1  1
  8 28  1  0
  8 29  1  0
 10 30  1  0
 10 31  1  0
 11 32  1  0
 11 33  1  0
 11 34  1  0
 12 35  1  0
 12 36  1  0
 12 37  1  0
 13 38  1  1
 15 39  1  0
 16 40  1  0
 17 41  1  0
 18 42  1  0
 19 43  1  0
 20 44  1  0
M  END
>  <score>  (3) 
-9.446

$$$$
=
     RDKit          3D

 44 45  0  0  0  0  0  0  0  0999 V2000
   -0.0300   68.3190   64.8050 C   0  0  0  0  0  0  0  0  0  0  0  0
   -0.4160   68.7250   63.7120 O   0  0  0  0  0  0  0  0  0  0  0  0
    0.7940   67.2520   65.0000 O   0  0  0  0  0  0  0  0  0  0  0  0
    4.7920   64.5850   63.9490 C   0  0  0  0  0  0  0  0  0  0  0  0
    4.1900   65.9810   64.1010 C   0  0  2  0  0  0  0  0  0  0  0  0
    2.7110   65.8950   64.5170 C   0  0  0  0  0  0  0  0  0  0  0  0
    1.8740   67.1000   64.0620 C   0  0  2  0  0  0  0  0  0  0  0  0
    2.7270   68.3690   64.0240 C   0  0  0  0  0  0  0  0  0  0  0  0
    3.8740   68.2670   62.9880 C   0  0  0  0  0  0  0  0  0  0  0  0
    4.3530   66.8000   62.8140 C   0  0  0  0  0  0  0  0  0  0  0  0
    5.0440   69.1510   63.4580 C   0  0  0  0  0  0  0  0  0  0  0  0
    3.3940   68.7940   61.6230 C   0  0  0  0  0  0  0  0  0  0  0  0
   -0.3740   69.0230   66.1260 C   0  0  2  0  0  0  0  0  0  0  0  0
   -0.0850   68.1650   67.3400 C   0  0  0  0  0  0  0  0  0  0  0  0
   -1.0000   67.1940   67.7760 C   0  0  0  0  0  0  0  0  0  0  0  0
   -0.7110   66.3850   68.8760 C   0  0  0  0  0  0  0  0  0  0  0  0
    0.4990   66.5340   69.5520 C   0  0  0  0  0  0  0  0  0  0  0  0
    1.4190   67.4900   69.1290 C   0  0  0  0  0  0  0  0  0  0  0  0
    1.1320   68.3010   68.0290 C   0  0  0  0  0  0  0  0  0  0  0  0
   -1.7500   69.4190   66.1580 O   0  0  0  0  0  0  0  0  0  0  0  0
    4.9773   64.1552   64.9445 H   0  0  0  0  0  0  0  0  0  0  0  0
    4.0913   63.9417   63.3965 H   0  0  0  0  0  0  0  0  0  0  0  0
    5.7408   64.6530   63.3965 H   0  0  0  0  0  0  0  0  0  0  0  0
    4.7403   66.5013   64.8987 H   0  0  0  0  0  0  0  0  0  0  0  0
    2.2781   64.9846   64.0768 H   0  0  0  0  0  0  0  0  0  0  0  0
    2.6851   65.8806   65.6166 H   0  0  0  0  0  0  0  0  0  0  0  0
    1.4869   66.9340   63.0459 H   0  0  0  0  0  0  0  0  0  0  0  0
    2.0840   69.2212   63.7590 H   0  0  0  0  0  0  0  0  0  0  0  0
    3.1783   68.5047   65.0179 H   0  0  0  0  0  0  0  0  0  0  0  0
    3.7624   66.3268   62.0157 H   0  0  0  0  0  0  0  0  0  0  0  0
    5.4232   66.8218   62.5607 H   0  0  0  0  0  0  0  0  0  0  0  0
    5.0700   69.1707   64.5575 H   0  0  0  0  0  0  0  0  0  0  0  0
    5.9903   68.7403   63.0761 H   0  0  0  0  0  0  0  0  0  0  0  0
    4.9074   70.1735   63.0761 H   0  0  0  0  0  0  0  0  0  0  0  0
    2.6607   69.5991   61.7781 H   0  0  0  0  0  0  0  0  0  0  0  0
    4.2532   69.1845   61.0579 H   0  0  0  0  0  0  0  0  0  0  0  0
    2.9252   67.9749   61.0579 H   0  0  0  0  0  0  0  0  0  0  0  0
    0.2738   69.9110   66.1688 H   0  0  0  0  0  0  0  0  0  0  0  0
   -1.9552   67.0693   67.2450 H   0  0  0  0  0  0  0  0  0  0  0  0
   -1.4380   65.6299   69.2095 H   0  0  0  0  0  0  0  0  0  0  0  0
    0.7270   65.8967   70.4191 H   0  0  0  0  0  0  0  0  0  0  0  0
    2.3739   67.6066   69.6625 H   0  0  0  0  0  0  0  0  0  0  0  0
    1.8646   69.0524   67.6992 H   0  0  0  0  0  0  0  0  0  0  0  0
   -2.0470   69.5045   67.0985 H   0  0  0  0  0  0  0  0  0  0  0  0
  2  1  2  0
  3  1  1  0
  5  4  1  0
  6  5  1  0
  7  6  1  0
  7  3  1  0
  8  7  1  0
  9  8  1  0
 10  9  1  0
 10  5  1  0
 11  9  1  0
 12  9  1  0
 13  1  1  0
 14 13  1  0
 15 14  2  0
 16 15  1  0
 17 16  2  0
 18 17  1  0
 19 18  2  0
 19 14  1  0
 20 13  1  0
  4 21  1  0
  4 22  1  0
  4 23  1  0
  5 24  1  1
  6 25  1  0
  6 26  1  0
  7 27  1  6
  8 28  1  0
  8 29  1  0
 10 30  1  0
 10 31  1  0
 11 32  1  0
 11 33  1  0
 11 34  1  0
 12 35  1  0
 12 36  1  0
 12 37  1  0
 13 38  1  1
 15 39  1  0
 16 40  1  0
 17 41  1  0
 18 42  1  0
 19 43  1  0
 20 44  1  0
M  END
>  <score>  (4) 
-9.05

$$$$
=
     RDKit          3D

 44 45  0  0  0  0  0  0  0  0999 V2000
    3.0850   69.4590   67.2180 C   0  0  0  0  0  0  0  0  0  0  0  0
    4.0500   70.2180   67.1790 O   0  0  0  0  0  0  0  0  0  0  0  0
    2.8260   68.4710   66.3180 O   0  0  0  0  0  0  0  0  0  0  0  0
    0.4230   69.0070   62.0580 C   0  0  0  0  0  0  0  0  0  0  0  0
    1.6360   68.4180   62.7760 C   0  0  2  0  0  0  0  0  0  0  0  0
    1.5960   68.7530   64.2770 C   0  0  0  0  0  0  0  0  0  0  0  0
    2.9860   68.8140   64.9290 C   0  0  2  0  0  0  0  0  0  0  0  0
    3.9480   67.8390   64.2490 C   0  0  0  0  0  0  0  0  0  0  0  0
    4.1880   68.2030   62.7630 C   0  0  0  0  0  0  0  0  0  0  0  0
    2.9460   68.8960   62.1390 C   0  0  0  0  0  0  0  0  0  0  0  0
    4.5180   66.9140   61.9860 C   0  0  0  0  0  0  0  0  0  0  0  0
    5.3950   69.1530   62.6460 C   0  0  0  0  0  0  0  0  0  0  0  0
    2.0540   69.4780   68.3560 C   0  0  2  0  0  0  0  0  0  0  0  0
    0.7540   68.7980   67.9820 C   0  0  0  0  0  0  0  0  0  0  0  0
   -0.2120   69.4590   67.2070 C   0  0  0  0  0  0  0  0  0  0  0  0
   -1.3930   68.8140   66.8380 C   0  0  0  0  0  0  0  0  0  0  0  0
   -1.6220   67.4980   67.2360 C   0  0  0  0  0  0  0  0  0  0  0  0
   -0.6710   66.8270   68.0010 C   0  0  0  0  0  0  0  0  0  0  0  0
    0.5110   67.4710   68.3720 C   0  0  0  0  0  0  0  0  0  0  0  0
    1.7710   70.8170   68.7770 O   0  0  0  0  0  0  0  0  0  0  0  0
   -0.3066   69.3613   62.8011 H   0  0  0  0  0  0  0  0  0  0  0  0
    0.7434   69.8498   61.4280 H   0  0  0  0  0  0  0  0  0  0  0  0
   -0.0412   68.2340   61.4280 H   0  0  0  0  0  0  0  0  0  0  0  0
    1.5948   67.3241   62.6682 H   0  0  0  0  0  0  0  0  0  0  0  0
    1.1094   69.7315   64.4024 H   0  0  0  0  0  0  0  0  0  0  0  0
    1.0408   67.9440   64.7742 H   0  0  0  0  0  0  0  0  0  0  0  0
    3.4120   69.8226   64.8234 H   0  0  0  0  0  0  0  0  0  0  0  0
    4.9110   67.8615   64.7802 H   0  0  0  0  0  0  0  0  0  0  0  0
    3.4974   66.8362   64.2849 H   0  0  0  0  0  0  0  0  0  0  0  0
    3.0355   69.9825   62.2855 H   0  0  0  0  0  0  0  0  0  0  0  0
    2.9161   68.6376   61.0702 H   0  0  0  0  0  0  0  0  0  0  0  0
    4.7262   66.1006   62.6967 H   0  0  0  0  0  0  0  0  0  0  0  0
    3.6616   66.6378   61.3533 H   0  0  0  0  0  0  0  0  0  0  0  0
    5.4018   67.0833   61.3533 H   0  0  0  0  0  0  0  0  0  0  0  0
    5.7442   69.4278   63.6522 H   0  0  0  0  0  0  0  0  0  0  0  0
    6.2068   68.6490   62.1011 H   0  0  0  0  0  0  0  0  0  0  0  0
    5.0959   70.0605   62.1011 H   0  0  0  0  0  0  0  0  0  0  0  0
    2.5121   68.9143   69.1820 H   0  0  0  0  0  0  0  0  0  0  0  0
   -0.0360   70.4967   66.8872 H   0  0  0  0  0  0  0  0  0  0  0  0
   -2.1433   69.3441   66.2330 H   0  0  0  0  0  0  0  0  0  0  0  0
   -2.5534   66.9896   66.9461 H   0  0  0  0  0  0  0  0  0  0  0  0
   -0.8514   65.7879   68.3135 H   0  0  0  0  0  0  0  0  0  0  0  0
    1.2583   66.9343   68.9749 H   0  0  0  0  0  0  0  0  0  0  0  0
    1.7625   70.8571   69.7662 H   0  0  0  0  0  0  0  0  0  0  0  0
  2  1  2  0
  3  1  1  0
  5  4  1  0
  6  5  1  0
  7  6  1  0
  7  3  1  0
  8  7  1  0
  9  8  1  0
 10  9  1  0
 10  5  1  0
 11  9  1  0
 12  9  1  0
 13  1  1  0
 14 13  1  0
 15 14  2  0
 16 15  1  0
 17 16  2  0
 18 17  1  0
 19 18  2  0
 19 14  1  0
 20 13  1  0
  4 21  1  0
  4 22  1  0
  4 23  1  0
  5 24  1  1
  6 25  1  0
  6 26  1  0
  7 27  1  1
  8 28  1  0
  8 29  1  0
 10 30  1  0
 10 31  1  0
 11 32  1  0
 11 33  1  0
 11 34  1  0
 12 35  1  0
 12 36  1  0
 12 37  1  0
 13 38  1  1
 15 39  1  0
 16 40  1  0
 17 41  1  0
 18 42  1  0
 19 43  1  0
 20 44  1  0
M  END
>  <score>  (5) 
-9.006

$$$$
=
     RDKit          3D

 44 45  0  0  0  0  0  0  0  0999 V2000
    3.4130   59.0010   72.5540 C   0  0  0  0  0  0  0  0  0  0  0  0
    3.9390   58.9370   73.6620 O   0  0  0  0  0  0  0  0  0  0  0  0
    2.0740   59.0640   72.3220 O   0  0  0  0  0  0  0  0  0  0  0  0
   -2.2790   60.3530   74.2210 C   0  0  0  0  0  0  0  0  0  0  0  0
   -1.1130   60.7440   73.3140 C   0  0  2  0  0  0  0  0  0  0  0  0
   -0.0590   59.6240   73.2660 C   0  0  0  0  0  0  0  0  0  0  0  0
    1.3620   60.1310   72.9760 C   0  0  2  0  0  0  0  0  0  0  0  0
    1.3240   61.3700   72.0810 C   0  0  0  0  0  0  0  0  0  0  0  0
    0.6090   62.5600   72.7680 C   0  0  0  0  0  0  0  0  0  0  0  0
   -0.4860   62.0730   73.7550 C   0  0  0  0  0  0  0  0  0  0  0  0
   -0.0200   63.4530   71.6810 C   0  0  0  0  0  0  0  0  0  0  0  0
    1.6340   63.4060   73.5460 C   0  0  0  0  0  0  0  0  0  0  0  0
    4.2220   59.0950   71.2520 C   0  0  2  0  0  0  0  0  0  0  0  0
    4.2320   60.4920   70.6670 C   0  0  0  0  0  0  0  0  0  0  0  0
    3.5140   60.7940   69.5000 C   0  0  0  0  0  0  0  0  0  0  0  0
    3.5010   62.0920   68.9860 C   0  0  0  0  0  0  0  0  0  0  0  0
    4.2040   63.1050   69.6350 C   0  0  0  0  0  0  0  0  0  0  0  0
    4.9180   62.8230   70.7970 C   0  0  0  0  0  0  0  0  0  0  0  0
    4.9320   61.5250   71.3120 C   0  0  0  0  0  0  0  0  0  0  0  0
    3.7240   58.1850   70.2660 O   0  0  0  0  0  0  0  0  0  0  0  0
   -1.9752   60.4549   75.2733 H   0  0  0  0  0  0  0  0  0  0  0  0
   -3.1361   61.0129   74.0213 H   0  0  0  0  0  0  0  0  0  0  0  0
   -2.5650   59.3098   74.0213 H   0  0  0  0  0  0  0  0  0  0  0  0
   -1.5086   60.8846   72.2973 H   0  0  0  0  0  0  0  0  0  0  0  0
   -0.0533   59.1095   74.2382 H   0  0  0  0  0  0  0  0  0  0  0  0
   -0.3377   58.9530   72.4401 H   0  0  0  0  0  0  0  0  0  0  0  0
    1.8630   60.4179   73.9123 H   0  0  0  0  0  0  0  0  0  0  0  0
    2.3557   61.6663   71.8406 H   0  0  0  0  0  0  0  0  0  0  0  0
    0.7612   61.1148   71.1710 H   0  0  0  0  0  0  0  0  0  0  0  0
   -0.0333   61.9389   74.7485 H   0  0  0  0  0  0  0  0  0  0  0  0
   -1.2824   62.8315   73.7775 H   0  0  0  0  0  0  0  0  0  0  0  0
   -0.5909   64.2636   72.1575 H   0  0  0  0  0  0  0  0  0  0  0  0
    0.7752   63.8836   71.0548 H   0  0  0  0  0  0  0  0  0  0  0  0
   -0.6933   62.8492   71.0548 H   0  0  0  0  0  0  0  0  0  0  0  0
    1.4740   63.2739   74.6263 H   0  0  0  0  0  0  0  0  0  0  0  0
    2.6518   63.0815   73.2837 H   0  0  0  0  0  0  0  0  0  0  0  0
    1.5084   64.4669   73.2837 H   0  0  0  0  0  0  0  0  0  0  0  0
    5.2541   58.8271   71.5223 H   0  0  0  0  0  0  0  0  0  0  0  0
    2.9551   59.9992   68.9843 H   0  0  0  0  0  0  0  0  0  0  0  0
    2.9359   62.3149   68.0689 H   0  0  0  0  0  0  0  0  0  0  0  0
    4.1950   64.1275   69.2295 H   0  0  0  0  0  0  0  0  0  0  0  0
    5.4715   63.6235   71.3097 H   0  0  0  0  0  0  0  0  0  0  0  0
    5.4964   61.3095   72.2312 H   0  0  0  0  0  0  0  0  0  0  0  0
    3.3005   57.4111   70.7152 H   0  0  0  0  0  0  0  0  0  0  0  0
  2  1  2  0
  3  1  1  0
  5  4  1  0
  6  5  1  0
  7  6  1  0
  7  3  1  0
  8  7  1  0
  9  8  1  0
 10  9  1  0
 10  5  1  0
 11  9  1  0
 12  9  1  0
 13  1  1  0
 14 13  1  0
 15 14  2  0
 16 15  1  0
 17 16  2  0
 18 17  1  0
 19 18  2  0
 19 14  1  0
 20 13  1  0
  4 21  1  0
  4 22  1  0
  4 23  1  0
  5 24  1  6
  6 25  1  0
  6 26  1  0
  7 27  1  1
  8 28  1  0
  8 29  1  0
 10 30  1  0
 10 31  1  0
 11 32  1  0
 11 33  1  0
 11 34  1  0
 12 35  1  0
 12 36  1  0
 12 37  1  0
 13 38  1  1
 15 39  1  0
 16 40  1  0
 17 41  1  0
 18 42  1  0
 19 43  1  0
 20 44  1  0
M  END
>  <score>  (6) 
-8.723

$$$$
=
     RDKit          3D

 44 45  0  0  0  0  0  0  0  0999 V2000
    1.8070   69.2160   67.8870 C   0  0  0  0  0  0  0  0  0  0  0  0
    2.0480   69.9200   68.8640 O   0  0  0  0  0  0  0  0  0  0  0  0
    2.1670   69.5010   66.6050 O   0  0  0  0  0  0  0  0  0  0  0  0
    7.0100   70.2210   67.0850 C   0  0  0  0  0  0  0  0  0  0  0  0
    5.8390   70.0000   66.1290 C   0  0  2  0  0  0  0  0  0  0  0  0
    4.5170   69.8740   66.9060 C   0  0  0  0  0  0  0  0  0  0  0  0
    3.4580   69.0270   66.1840 C   0  0  2  0  0  0  0  0  0  0  0  0
    3.6030   69.1560   64.6670 C   0  0  0  0  0  0  0  0  0  0  0  0
    4.9620   68.6090   64.1650 C   0  0  0  0  0  0  0  0  0  0  0  0
    6.0720   68.7740   65.2380 C   0  0  0  0  0  0  0  0  0  0  0  0
    5.3540   69.3640   62.8800 C   0  0  0  0  0  0  0  0  0  0  0  0
    4.8280   67.1140   63.8180 C   0  0  0  0  0  0  0  0  0  0  0  0
    1.1140   67.8500   67.9940 C   0  0  2  0  0  0  0  0  0  0  0  0
   -0.3050   67.8690   67.4640 C   0  0  0  0  0  0  0  0  0  0  0  0
   -1.2620   66.9520   67.9240 C   0  0  0  0  0  0  0  0  0  0  0  0
   -2.5760   66.9980   67.4540 C   0  0  0  0  0  0  0  0  0  0  0  0
   -2.9490   67.9630   66.5210 C   0  0  0  0  0  0  0  0  0  0  0  0
   -2.0110   68.8820   66.0580 C   0  0  0  0  0  0  0  0  0  0  0  0
   -0.6970   68.8380   66.5260 C   0  0  0  0  0  0  0  0  0  0  0  0
    1.0950   67.3840   69.3480 O   0  0  0  0  0  0  0  0  0  0  0  0
    6.6533   70.1537   68.1234 H   0  0  0  0  0  0  0  0  0  0  0  0
    7.7765   69.4517   66.9100 H   0  0  0  0  0  0  0  0  0  0  0  0
    7.4433   71.2168   66.9100 H   0  0  0  0  0  0  0  0  0  0  0  0
    5.7683   70.8798   65.4726 H   0  0  0  0  0  0  0  0  0  0  0  0
    4.7291   69.4093   67.8802 H   0  0  0  0  0  0  0  0  0  0  0  0
    4.1044   70.8886   67.0076 H   0  0  0  0  0  0  0  0  0  0  0  0
    3.5830   67.9637   66.4365 H   0  0  0  0  0  0  0  0  0  0  0  0
    2.7924   68.5910   64.1835 H   0  0  0  0  0  0  0  0  0  0  0  0
    3.5515   70.2245   64.4106 H   0  0  0  0  0  0  0  0  0  0  0  0
    6.0894   67.8744   65.8708 H   0  0  0  0  0  0  0  0  0  0  0  0
    7.0293   68.9141   64.7146 H   0  0  0  0  0  0  0  0  0  0  0  0
    5.8457   70.3111   63.1468 H   0  0  0  0  0  0  0  0  0  0  0  0
    6.0451   68.7460   62.2880 H   0  0  0  0  0  0  0  0  0  0  0  0
    4.4509   69.5738   62.2880 H   0  0  0  0  0  0  0  0  0  0  0  0
    4.7753   66.5255   64.7459 H   0  0  0  0  0  0  0  0  0  0  0  0
    3.9120   66.9547   63.2302 H   0  0  0  0  0  0  0  0  0  0  0  0
    5.7011   66.7943   63.2302 H   0  0  0  0  0  0  0  0  0  0  0  0
    1.7062   67.1650   67.3694 H   0  0  0  0  0  0  0  0  0  0  0  0
   -0.9743   66.1891   68.6624 H   0  0  0  0  0  0  0  0  0  0  0  0
   -3.3168   66.2721   67.8205 H   0  0  0  0  0  0  0  0  0  0  0  0
   -3.9840   67.9989   66.1503 H   0  0  0  0  0  0  0  0  0  0  0  0
   -2.3063   69.6442   65.3219 H   0  0  0  0  0  0  0  0  0  0  0  0
    0.0380   69.5685   66.1571 H   0  0  0  0  0  0  0  0  0  0  0  0
    1.1266   68.1584   69.9640 H   0  0  0  0  0  0  0  0  0  0  0  0
  2  1  2  0
  3  1  1  0
  5  4  1  0
  6  5  1  0
  7  6  1  0
  7  3  1  0
  8  7  1  0
  9  8  1  0
 10  9  1  0
 10  5  1  0
 11  9  1  0
 12  9  1  0
 13  1  1  0
 14 13  1  0
 15 14  2  0
 16 15  1  0
 17 16  2  0
 18 17  1  0
 19 18  2  0
 19 14  1  0
 20 13  1  0
  4 21  1  0
  4 22  1  0
  4 23  1  0
  5 24  1  6
  6 25  1  0
  6 26  1  0
  7 27  1  6
  8 28  1  0
  8 29  1  0
 10 30  1  0
 10 31  1  0
 11 32  1  0
 11 33  1  0
 11 34  1  0
 12 35  1  0
 12 36  1  0
 12 37  1  0
 13 38  1  6
 15 39  1  0
 16 40  1  0
 17 41  1  0
 18 42  1  0
 19 43  1  0
 20 44  1  0
M  END
>  <score>  (7) 
-8.683

$$$$
=
     RDKit          3D

 44 45  0  0  0  0  0  0  0  0999 V2000
    4.5210   61.5460   70.3620 C   0  0  0  0  0  0  0  0  0  0  0  0
    4.3970   61.1550   69.2040 O   0  0  0  0  0  0  0  0  0  0  0  0
    4.0820   62.7430   70.8390 O   0  0  0  0  0  0  0  0  0  0  0  0
    0.3530   65.8660   70.0960 C   0  0  0  0  0  0  0  0  0  0  0  0
    1.0320   64.8900   71.0560 C   0  0  2  0  0  0  0  0  0  0  0  0
    2.2990   64.2930   70.4210 C   0  0  0  0  0  0  0  0  0  0  0  0
    2.6560   62.8980   70.9570 C   0  0  2  0  0  0  0  0  0  0  0  0
    2.2260   62.7520   72.4170 C   0  0  0  0  0  0  0  0  0  0  0  0
    0.6900   62.8630   72.5840 C   0  0  0  0  0  0  0  0  0  0  0  0
    0.0660   63.7860   71.5020 C   0  0  0  0  0  0  0  0  0  0  0  0
    0.3830   63.4150   73.9880 C   0  0  0  0  0  0  0  0  0  0  0  0
    0.0500   61.4660   72.4700 C   0  0  0  0  0  0  0  0  0  0  0  0
    5.1410   60.6830   71.4710 C   0  0  2  0  0  0  0  0  0  0  0  0
    4.1620   59.6850   72.0520 C   0  0  0  0  0  0  0  0  0  0  0  0
    3.8690   59.6730   73.4250 C   0  0  0  0  0  0  0  0  0  0  0  0
    2.9400   58.7720   73.9480 C   0  0  0  0  0  0  0  0  0  0  0  0
    2.2900   57.8730   73.1040 C   0  0  0  0  0  0  0  0  0  0  0  0
    2.5680   57.8740   71.7390 C   0  0  0  0  0  0  0  0  0  0  0  0
    3.4970   58.7750   71.2140 C   0  0  0  0  0  0  0  0  0  0  0  0
    5.6580   61.4950   72.5310 O   0  0  0  0  0  0  0  0  0  0  0  0
   -0.1820   66.6350   70.6726 H   0  0  0  0  0  0  0  0  0  0  0  0
    1.1134   66.3457   69.4622 H   0  0  0  0  0  0  0  0  0  0  0  0
   -0.3612   65.3199   69.4622 H   0  0  0  0  0  0  0  0  0  0  0  0
    1.3315   65.4515   71.9532 H   0  0  0  0  0  0  0  0  0  0  0  0
    2.1418   64.2186   69.3348 H   0  0  0  0  0  0  0  0  0  0  0  0
    3.1344   64.9611   70.6777 H   0  0  0  0  0  0  0  0  0  0  0  0
    2.1308   62.1224   70.3803 H   0  0  0  0  0  0  0  0  0  0  0  0
    2.5532   61.7691   72.7869 H   0  0  0  0  0  0  0  0  0  0  0  0
    2.6898   63.5679   72.9908 H   0  0  0  0  0  0  0  0  0  0  0  0
   -0.2024   63.1754   70.6273 H   0  0  0  0  0  0  0  0  0  0  0  0
   -0.8200   64.2689   71.9399 H   0  0  0  0  0  0  0  0  0  0  0  0
    0.7696   62.7199   74.7479 H   0  0  0  0  0  0  0  0  0  0  0  0
    0.8650   64.3963   74.1096 H   0  0  0  0  0  0  0  0  0  0  0  0
   -0.7049   63.5232   74.1096 H   0  0  0  0  0  0  0  0  0  0  0  0
   -0.1343   61.0638   73.4771 H   0  0  0  0  0  0  0  0  0  0  0  0
   -0.9029   61.5425   71.9257 H   0  0  0  0  0  0  0  0  0  0  0  0
    0.7302   60.7944   71.9257 H   0  0  0  0  0  0  0  0  0  0  0  0
    5.9598   60.1249   70.9934 H   0  0  0  0  0  0  0  0  0  0  0  0
    4.3771   60.3814   74.0959 H   0  0  0  0  0  0  0  0  0  0  0  0
    2.7209   58.7714   75.0260 H   0  0  0  0  0  0  0  0  0  0  0  0
    1.5577   57.1629   73.5158 H   0  0  0  0  0  0  0  0  0  0  0  0
    2.0550   57.1640   71.0736 H   0  0  0  0  0  0  0  0  0  0  0  0
    3.7097   58.7719   70.1348 H   0  0  0  0  0  0  0  0  0  0  0  0
    5.4060   61.0993   73.4028 H   0  0  0  0  0  0  0  0  0  0  0  0
  2  1  2  0
  3  1  1  0
  5  4  1  0
  6  5  1  0
  7  6  1  0
  7  3  1  0
  8  7  1  0
  9  8  1  0
 10  9  1  0
 10  5  1  0
 11  9  1  0
 12  9  1  0
 13  1  1  0
 14 13  1  0
 15 14  2  0
 16 15  1  0
 17 16  2  0
 18 17  1  0
 19 18  2  0
 19 14  1  0
 20 13  1  0
  4 21  1  0
  4 22  1  0
  4 23  1  0
  5 24  1  1
  6 25  1  0
  6 26  1  0
  7 27  1  6
  8 28  1  0
  8 29  1  0
 10 30  1  0
 10 31  1  0
 11 32  1  0
 11 33  1  0
 11 34  1  0
 12 35  1  0
 12 36  1  0
 12 37  1  0
 13 38  1  6
 15 39  1  0
 16 40  1  0
 17 41  1  0
 18 42  1  0
 19 43  1  0
 20 44  1  0
M  END
>  <score>  (8) 
-8.579

$$$$
=
     RDKit          3D

 44 45  0  0  0  0  0  0  0  0999 V2000
    3.5900   67.5670   64.1170 C   0  0  0  0  0  0  0  0  0  0  0  0
    3.2860   66.4030   64.3670 O   0  0  0  0  0  0  0  0  0  0  0  0
    4.1810   68.4300   64.9880 O   0  0  0  0  0  0  0  0  0  0  0  0
    4.1160   71.1460   69.0900 C   0  0  0  0  0  0  0  0  0  0  0  0
    3.5750   69.9160   68.3620 C   0  0  2  0  0  0  0  0  0  0  0  0
    4.2100   69.7850   66.9670 C   0  0  0  0  0  0  0  0  0  0  0  0
    3.3160   69.0570   65.9510 C   0  0  2  0  0  0  0  0  0  0  0  0
    2.4470   68.0090   66.6470 C   0  0  0  0  0  0  0  0  0  0  0  0
    1.4630   68.6480   67.6580 C   0  0  0  0  0  0  0  0  0  0  0  0
    2.0450   69.9520   68.2700 C   0  0  0  0  0  0  0  0  0  0  0  0
    1.1680   67.6280   68.7740 C   0  0  0  0  0  0  0  0  0  0  0  0
    0.1350   68.9830   66.9540 C   0  0  0  0  0  0  0  0  0  0  0  0
    3.4030   68.1960   62.7280 C   0  0  2  0  0  0  0  0  0  0  0  0
    1.9900   68.6860   62.4920 C   0  0  0  0  0  0  0  0  0  0  0  0
    1.0020   68.5520   63.4800 C   0  0  0  0  0  0  0  0  0  0  0  0
   -0.2900   69.0350   63.2670 C   0  0  0  0  0  0  0  0  0  0  0  0
   -0.6090   69.6610   62.0630 C   0  0  0  0  0  0  0  0  0  0  0  0
    0.3610   69.8050   61.0740 C   0  0  0  0  0  0  0  0  0  0  0  0
    1.6530   69.3210   61.2860 C   0  0  0  0  0  0  0  0  0  0  0  0
    3.7530   67.2740   61.6910 O   0  0  0  0  0  0  0  0  0  0  0  0
    4.0469   70.9889   70.1765 H   0  0  0  0  0  0  0  0  0  0  0  0
    5.1674   71.3056   68.8087 H   0  0  0  0  0  0  0  0  0  0  0  0
    3.5231   72.0288   68.8087 H   0  0  0  0  0  0  0  0  0  0  0  0
    3.8514   69.0274   68.9485 H   0  0  0  0  0  0  0  0  0  0  0  0
    4.4207   70.7946   66.5844 H   0  0  0  0  0  0  0  0  0  0  0  0
    5.1233   69.1831   67.0831 H   0  0  0  0  0  0  0  0  0  0  0  0
    2.6387   69.7704   65.4588 H   0  0  0  0  0  0  0  0  0  0  0  0
    1.8695   67.4643   65.8855 H   0  0  0  0  0  0  0  0  0  0  0  0
    3.1121   67.3317   67.2028 H   0  0  0  0  0  0  0  0  0  0  0  0
    1.7480   70.8027   67.6391 H   0  0  0  0  0  0  0  0  0  0  0  0
    1.6476   70.0526   69.2908 H   0  0  0  0  0  0  0  0  0  0  0  0
    1.3065   68.1070   69.7545 H   0  0  0  0  0  0  0  0  0  0  0  0
    0.1306   67.2739   68.6822 H   0  0  0  0  0  0  0  0  0  0  0  0
    1.8562   66.7748   68.6822 H   0  0  0  0  0  0  0  0  0  0  0  0
   -0.6409   69.1787   67.7087 H   0  0  0  0  0  0  0  0  0  0  0  0
    0.2683   69.8756   66.3252 H   0  0  0  0  0  0  0  0  0  0  0  0
   -0.1710   68.1339   66.3252 H   0  0  0  0  0  0  0  0  0  0  0  0
    4.0775   69.0645   62.6998 H   0  0  0  0  0  0  0  0  0  0  0  0
    1.2488   68.0608   64.4328 H   0  0  0  0  0  0  0  0  0  0  0  0
   -1.0558   68.9218   64.0485 H   0  0  0  0  0  0  0  0  0  0  0  0
   -1.6272   70.0414   61.8940 H   0  0  0  0  0  0  0  0  0  0  0  0
    0.1087   70.3006   60.1249 H   0  0  0  0  0  0  0  0  0  0  0  0
    2.4143   69.4382   60.5007 H   0  0  0  0  0  0  0  0  0  0  0  0
    4.0737   66.4291   62.0951 H   0  0  0  0  0  0  0  0  0  0  0  0
  2  1  2  0
  3  1  1  0
  5  4  1  0
  6  5  1  0
  7  6  1  0
  7  3  1  0
  8  7  1  0
  9  8  1  0
 10  9  1  0
 10  5  1  0
 11  9  1  0
 12  9  1  0
 13  1  1  0
 14 13  1  0
 15 14  2  0
 16 15  1  0
 17 16  2  0
 18 17  1  0
 19 18  2  0
 19 14  1  0
 20 13  1  0
  4 21  1  0
  4 22  1  0
  4 23  1  0
  5 24  1  1
  6 25  1  0
  6 26  1  0
  7 27  1  6
  8 28  1  0
  8 29  1  0
 10 30  1  0
 10 31  1  0
 11 32  1  0
 11 33  1  0
 11 34  1  0
 12 35  1  0
 12 36  1  0
 12 37  1  0
 13 38  1  1
 15 39  1  0
 16 40  1  0
 17 41  1  0
 18 42  1  0
 19 43  1  0
 20 44  1  0
M  END
>  <score>  (9) 
-8.541

$$$$
