=
     RDKit          3D

 67 71  0  0  0  0  0  0  0  0999 V2000
    0.8380   67.1020   68.8100 C   0  0  0  0  0  0  0  0  0  0  0  0
    0.8120   66.4520   70.1920 C   0  0  0  0  0  0  0  0  0  0  0  0
    1.0610   64.1490   71.0340 C   0  0  0  0  0  0  0  0  0  0  0  0
    0.1940   64.3040   71.8910 O   0  0  0  0  0  0  0  0  0  0  0  0
    1.4660   65.1620   70.2010 N   0  0  0  0  0  0  0  0  0  0  0  0
    2.4080   58.2940   72.4580 C   0  0  0  0  0  0  0  0  0  0  0  0
    3.2940   58.0610   71.3980 C   0  0  0  0  0  0  0  0  0  0  0  0
    3.5710   59.0620   70.4700 C   0  0  0  0  0  0  0  0  0  0  0  0
    2.9530   60.3000   70.6140 C   0  0  0  0  0  0  0  0  0  0  0  0
    2.0710   60.5560   71.6550 C   0  0  0  0  0  0  0  0  0  0  0  0
    1.7970   59.5450   72.5840 C   0  0  0  0  0  0  0  0  0  0  0  0
    1.4620   61.8740   71.7460 C   0  0  0  0  0  0  0  0  0  0  0  0
    1.7410   62.8280   70.8410 C   0  0  0  0  0  0  0  0  0  0  0  0
    2.6740   62.5560   69.7250 C   0  0  0  0  0  0  0  0  0  0  0  0
    2.9370   63.4040   68.8750 O   0  0  0  0  0  0  0  0  0  0  0  0
    3.2500   61.2910   69.6630 O   0  0  0  0  0  0  0  0  0  0  0  0
    0.9040   56.7250   73.4290 C   0  0  0  0  0  0  0  0  0  0  0  0
    2.2290   57.2240   73.2920 O   0  0  0  0  0  0  0  0  0  0  0  0
   -0.5150   67.1430   68.0900 C   0  0  0  0  0  0  0  0  0  0  0  0
   -0.3970   67.4340   66.5920 C   0  0  0  0  0  0  0  0  0  0  0  0
    1.0660   67.5460   66.1620 C   0  0  0  0  0  0  0  0  0  0  0  0
    1.4140   68.9120   65.7370 N   0  0  0  0  0  0  0  0  0  0  0  0
    2.8160   69.1380   65.6190 C   0  0  0  0  0  0  0  0  0  0  0  0
    3.4930   68.9450   64.4060 C   0  0  0  0  0  0  0  0  0  0  0  0
    2.8670   68.4440   63.1310 C   0  0  0  0  0  0  0  0  0  0  0  0
    3.7660   67.4240   62.4250 C   0  0  0  0  0  0  0  0  0  0  0  0
    5.2550   67.7950   62.3930 C   0  0  0  0  0  0  0  0  0  0  0  0
    5.5770   69.1360   63.0450 C   0  0  0  0  0  0  0  0  0  0  0  0
    4.8480   69.2800   64.3550 C   0  0  0  0  0  0  0  0  0  0  0  0
    5.5480   69.7610   65.4050 N   0  0  0  0  0  0  0  0  0  0  0  0
    4.9090   69.9130   66.5750 C   0  0  0  0  0  0  0  0  0  0  0  0
    3.5410   69.6140   66.7460 C   0  0  0  0  0  0  0  0  0  0  0  0
    2.9640   69.7920   68.0260 C   0  0  0  0  0  0  0  0  0  0  0  0
    3.7110   70.2700   69.1010 C   0  0  0  0  0  0  0  0  0  0  0  0
    5.0520   70.5720   68.9170 C   0  0  0  0  0  0  0  0  0  0  0  0
    5.6340   70.3880   67.6610 C   0  0  0  0  0  0  0  0  0  0  0  0
    1.1950   68.1360   68.9255 H   0  0  0  0  0  0  0  0  0  0  0  0
    1.4991   66.4797   68.1889 H   0  0  0  0  0  0  0  0  0  0  0  0
    1.3251   67.1143   70.9048 H   0  0  0  0  0  0  0  0  0  0  0  0
   -0.2403   66.2993   70.4738 H   0  0  0  0  0  0  0  0  0  0  0  0
    2.2586   64.9987   69.5638 H   0  0  0  0  0  0  0  0  0  0  0  0
    3.7759   57.0773   71.2976 H   0  0  0  0  0  0  0  0  0  0  0  0
    4.2662   58.8769   69.6379 H   0  0  0  0  0  0  0  0  0  0  0  0
    1.1003   59.7352   73.4137 H   0  0  0  0  0  0  0  0  0  0  0  0
    0.7634   62.0930   72.5669 H   0  0  0  0  0  0  0  0  0  0  0  0
    0.6559   56.6316   74.4966 H   0  0  0  0  0  0  0  0  0  0  0  0
    0.1992   57.4193   72.9482 H   0  0  0  0  0  0  0  0  0  0  0  0
    0.8323   55.7383   72.9482 H   0  0  0  0  0  0  0  0  0  0  0  0
   -1.0080   66.1681   68.2182 H   0  0  0  0  0  0  0  0  0  0  0  0
   -1.0957   67.9640   68.5358 H   0  0  0  0  0  0  0  0  0  0  0  0
   -0.8744   66.6180   66.0297 H   0  0  0  0  0  0  0  0  0  0  0  0
   -0.8946   68.3927   66.3840 H   0  0  0  0  0  0  0  0  0  0  0  0
    1.7077   67.2637   67.0097 H   0  0  0  0  0  0  0  0  0  0  0  0
    1.2200   66.8743   65.3046 H   0  0  0  0  0  0  0  0  0  0  0  0
    0.7090   69.6374   65.5429 H   0  0  0  0  0  0  0  0  0  0  0  0
    1.9046   67.9674   63.3690 H   0  0  0  0  0  0  0  0  0  0  0  0
    2.7243   69.3017   62.4573 H   0  0  0  0  0  0  0  0  0  0  0  0
    3.6642   66.4599   62.9448 H   0  0  0  0  0  0  0  0  0  0  0  0
    3.4322   67.3883   61.3775 H   0  0  0  0  0  0  0  0  0  0  0  0
    5.8178   67.0106   62.9202 H   0  0  0  0  0  0  0  0  0  0  0  0
    5.5376   67.8815   61.3334 H   0  0  0  0  0  0  0  0  0  0  0  0
    6.6602   69.1987   63.2258 H   0  0  0  0  0  0  0  0  0  0  0  0
    5.2551   69.9433   62.3707 H   0  0  0  0  0  0  0  0  0  0  0  0
    1.9020   69.5475   68.1757 H   0  0  0  0  0  0  0  0  0  0  0  0
    3.2414   70.4065   70.0863 H   0  0  0  0  0  0  0  0  0  0  0  0
    5.6534   70.9540   69.7551 H   0  0  0  0  0  0  0  0  0  0  0  0
    6.6995   70.6265   67.5272 H   0  0  0  0  0  0  0  0  0  0  0  0
  2  1  1  0
  4  3  2  0
  5  3  1  0
  5  2  1  0
  7  6  2  0
  8  7  1  0
  9  8  2  0
 10  9  1  0
 11  6  1  0
 11 10  2  0
 12 10  1  0
 13 12  2  0
 13  3  1  0
 14 13  1  0
 15 14  2  0
 16 14  1  0
 16  9  1  0
 18 17  1  0
 18  6  1  0
 19  1  1  0
 20 19  1  0
 21 20  1  0
 22 21  1  0
 23 22  1  0
 24 23  1  0
 25 24  1  0
 26 25  1  0
 27 26  1  0
 28 27  1  0
 29 24  2  0
 29 28  1  0
 30 29  1  0
 31 30  2  0
 32 31  1  0
 32 23  2  0
 33 32  1  0
 34 33  2  0
 35 34  1  0
 36 35  2  0
 36 31  1  0
  1 37  1  0
  1 38  1  0
  2 39  1  0
  2 40  1  0
  5 41  1  0
  7 42  1  0
  8 43  1  0
 11 44  1  0
 12 45  1  0
 17 46  1  0
 17 47  1  0
 17 48  1  0
 19 49  1  0
 19 50  1  0
 20 51  1  0
 20 52  1  0
 21 53  1  0
 21 54  1  0
 22 55  1  0
 25 56  1  0
 25 57  1  0
 26 58  1  0
 26 59  1  0
 27 60  1  0
 27 61  1  0
 28 62  1  0
 28 63  1  0
 33 64  1  0
 34 65  1  0
 35 66  1  0
 36 67  1  0
M  END
>  <score>  (1) 
-12.614

$$$$
=
     RDKit          3D

 67 71  0  0  0  0  0  0  0  0999 V2000
   -0.3720   66.4550   69.0180 C   0  0  0  0  0  0  0  0  0  0  0  0
    0.8780   66.4570   69.8960 C   0  0  0  0  0  0  0  0  0  0  0  0
    1.2990   64.2500   70.9120 C   0  0  0  0  0  0  0  0  0  0  0  0
    0.6060   64.5040   71.8950 O   0  0  0  0  0  0  0  0  0  0  0  0
    1.5320   65.1670   69.9170 N   0  0  0  0  0  0  0  0  0  0  0  0
    2.4670   58.3720   72.3960 C   0  0  0  0  0  0  0  0  0  0  0  0
    3.3500   58.1040   71.3430 C   0  0  0  0  0  0  0  0  0  0  0  0
    3.6620   59.0880   70.4080 C   0  0  0  0  0  0  0  0  0  0  0  0
    3.0790   60.3450   70.5370 C   0  0  0  0  0  0  0  0  0  0  0  0
    2.2000   60.6360   71.5710 C   0  0  0  0  0  0  0  0  0  0  0  0
    1.8910   59.6420   72.5080 C   0  0  0  0  0  0  0  0  0  0  0  0
    1.6290   61.9710   71.6460 C   0  0  0  0  0  0  0  0  0  0  0  0
    1.9400   62.9090   70.7350 C   0  0  0  0  0  0  0  0  0  0  0  0
    2.8710   62.5990   69.6260 C   0  0  0  0  0  0  0  0  0  0  0  0
    3.1630   63.4320   68.7710 O   0  0  0  0  0  0  0  0  0  0  0  0
    3.4100   61.3180   69.5790 O   0  0  0  0  0  0  0  0  0  0  0  0
    1.0180   57.2930   73.9460 C   0  0  0  0  0  0  0  0  0  0  0  0
    2.2520   57.3150   73.2380 O   0  0  0  0  0  0  0  0  0  0  0  0
   -0.4560   67.6080   68.0120 C   0  0  0  0  0  0  0  0  0  0  0  0
    0.0070   67.2220   66.6050 C   0  0  0  0  0  0  0  0  0  0  0  0
    1.4970   67.5120   66.4130 C   0  0  0  0  0  0  0  0  0  0  0  0
    1.7580   68.9470   66.2100 N   0  0  0  0  0  0  0  0  0  0  0  0
    3.1040   69.2410   65.8480 C   0  0  0  0  0  0  0  0  0  0  0  0
    4.0490   69.6510   66.8000 C   0  0  0  0  0  0  0  0  0  0  0  0
    3.7690   69.8780   68.2630 C   0  0  0  0  0  0  0  0  0  0  0  0
    4.4580   71.1460   68.7780 C   0  0  0  0  0  0  0  0  0  0  0  0
    5.9000   71.3370   68.2880 C   0  0  0  0  0  0  0  0  0  0  0  0
    6.4090   70.2090   67.3950 C   0  0  0  0  0  0  0  0  0  0  0  0
    5.3690   69.8270   66.3750 C   0  0  0  0  0  0  0  0  0  0  0  0
    5.7840   69.6430   65.1040 N   0  0  0  0  0  0  0  0  0  0  0  0
    4.8740   69.2840   64.1860 C   0  0  0  0  0  0  0  0  0  0  0  0
    3.5150   69.0710   64.4970 C   0  0  0  0  0  0  0  0  0  0  0  0
    2.6290   68.7120   63.4530 C   0  0  0  0  0  0  0  0  0  0  0  0
    3.0770   68.5480   62.1440 C   0  0  0  0  0  0  0  0  0  0  0  0
    4.4180   68.7470   61.8530 C   0  0  0  0  0  0  0  0  0  0  0  0
    5.2970   69.1140   62.8730 C   0  0  0  0  0  0  0  0  0  0  0  0
   -0.3936   65.5094   68.4565 H   0  0  0  0  0  0  0  0  0  0  0  0
   -1.2273   66.5769   69.6989 H   0  0  0  0  0  0  0  0  0  0  0  0
    1.5835   67.2057   69.5065 H   0  0  0  0  0  0  0  0  0  0  0  0
    0.5686   66.6959   70.9242 H   0  0  0  0  0  0  0  0  0  0  0  0
    2.1922   64.9292   69.1630 H   0  0  0  0  0  0  0  0  0  0  0  0
    3.8023   57.1053   71.2532 H   0  0  0  0  0  0  0  0  0  0  0  0
    4.3569   58.8753   69.5822 H   0  0  0  0  0  0  0  0  0  0  0  0
    1.1955   59.8598   73.3319 H   0  0  0  0  0  0  0  0  0  0  0  0
    0.9320   62.2171   72.4606 H   0  0  0  0  0  0  0  0  0  0  0  0
    1.2160   57.2965   75.0280 H   0  0  0  0  0  0  0  0  0  0  0  0
    0.4260   58.1807   73.6787 H   0  0  0  0  0  0  0  0  0  0  0  0
    0.4580   56.3847   73.6787 H   0  0  0  0  0  0  0  0  0  0  0  0
   -1.5014   67.9454   67.9548 H   0  0  0  0  0  0  0  0  0  0  0  0
    0.2177   68.4007   68.3695 H   0  0  0  0  0  0  0  0  0  0  0  0
   -0.1721   66.1477   66.4506 H   0  0  0  0  0  0  0  0  0  0  0  0
   -0.5605   67.8190   65.8759 H   0  0  0  0  0  0  0  0  0  0  0  0
    2.0425   67.1748   67.3067 H   0  0  0  0  0  0  0  0  0  0  0  0
    1.8347   66.9748   65.5145 H   0  0  0  0  0  0  0  0  0  0  0  0
    1.0340   69.6714   66.3197 H   0  0  0  0  0  0  0  0  0  0  0  0
    2.6831   69.9778   68.4075 H   0  0  0  0  0  0  0  0  0  0  0  0
    4.1625   69.0191   68.8264 H   0  0  0  0  0  0  0  0  0  0  0  0
    3.8671   72.0141   68.4504 H   0  0  0  0  0  0  0  0  0  0  0  0
    4.5124   71.0472   69.8722 H   0  0  0  0  0  0  0  0  0  0  0  0
    5.9499   72.2772   67.7192 H   0  0  0  0  0  0  0  0  0  0  0  0
    6.5403   71.3471   69.1824 H   0  0  0  0  0  0  0  0  0  0  0  0
    7.3191   70.5427   66.8751 H   0  0  0  0  0  0  0  0  0  0  0  0
    6.6276   69.3324   68.0225 H   0  0  0  0  0  0  0  0  0  0  0  0
    1.5636   68.5592   63.6802 H   0  0  0  0  0  0  0  0  0  0  0  0
    2.3730   68.2631   61.3483 H   0  0  0  0  0  0  0  0  0  0  0  0
    4.7866   68.6165   60.8249 H   0  0  0  0  0  0  0  0  0  0  0  0
    6.3579   69.2737   62.6302 H   0  0  0  0  0  0  0  0  0  0  0  0
  2  1  1  0
  4  3  2  0
  5  3  1  0
  5  2  1  0
  7  6  2  0
  8  7  1  0
  9  8  2  0
 10  9  1  0
 11  6  1  0
 11 10  2  0
 12 10  1  0
 13 12  2  0
 13  3  1  0
 14 13  1  0
 15 14  2  0
 16 14  1  0
 16  9  1  0
 18 17  1  0
 18  6  1  0
 19  1  1  0
 20 19  1  0
 21 20  1  0
 22 21  1  0
 23 22  1  0
 24 23  1  0
 25 24  1  0
 26 25  1  0
 27 26  1  0
 28 27  1  0
 29 24  2  0
 29 28  1  0
 30 29  1  0
 31 30  2  0
 32 31  1  0
 32 23  2  0
 33 32  1  0
 34 33  2  0
 35 34  1  0
 36 35  2  0
 36 31  1  0
  1 37  1  0
  1 38  1  0
  2 39  1  0
  2 40  1  0
  5 41  1  0
  7 42  1  0
  8 43  1  0
 11 44  1  0
 12 45  1  0
 17 46  1  0
 17 47  1  0
 17 48  1  0
 19 49  1  0
 19 50  1  0
 20 51  1  0
 20 52  1  0
 21 53  1  0
 21 54  1  0
 22 55  1  0
 25 56  1  0
 25 57  1  0
 26 58  1  0
 26 59  1  0
 27 60  1  0
 27 61  1  0
 28 62  1  0
 28 63  1  0
 33 64  1  0
 34 65  1  0
 35 66  1  0
 36 67  1  0
M  END
>  <score>  (2) 
-12.437

$$$$
=
     RDKit          3D

 67 71  0  0  0  0  0  0  0  0999 V2000
    1.0690   65.4620   70.0730 C   0  0  0  0  0  0  0  0  0  0  0  0
    2.4250   64.7900   70.2800 C   0  0  0  0  0  0  0  0  0  0  0  0
    3.4010   62.5540   70.6290 C   0  0  0  0  0  0  0  0  0  0  0  0
    4.5510   62.9740   70.5210 O   0  0  0  0  0  0  0  0  0  0  0  0
    2.3030   63.3610   70.4670 N   0  0  0  0  0  0  0  0  0  0  0  0
    0.7600   57.9320   73.7570 C   0  0  0  0  0  0  0  0  0  0  0  0
    1.3530   56.8830   73.0430 C   0  0  0  0  0  0  0  0  0  0  0  0
    2.2320   57.1450   71.9940 C   0  0  0  0  0  0  0  0  0  0  0  0
    2.5100   58.4680   71.6660 C   0  0  0  0  0  0  0  0  0  0  0  0
    1.9350   59.5250   72.3570 C   0  0  0  0  0  0  0  0  0  0  0  0
    1.0530   59.2550   73.4110 C   0  0  0  0  0  0  0  0  0  0  0  0
    2.2720   60.8830   71.9620 C   0  0  0  0  0  0  0  0  0  0  0  0
    3.1210   61.1170   70.9470 C   0  0  0  0  0  0  0  0  0  0  0  0
    3.7300   59.9920   70.2020 C   0  0  0  0  0  0  0  0  0  0  0  0
    4.4990   60.1760   69.2610 O   0  0  0  0  0  0  0  0  0  0  0  0
    3.3980   58.7020   70.6030 O   0  0  0  0  0  0  0  0  0  0  0  0
    0.5050   56.8450   75.8590 C   0  0  0  0  0  0  0  0  0  0  0  0
   -0.0810   57.5310   74.7590 O   0  0  0  0  0  0  0  0  0  0  0  0
    1.1360   66.9360   69.6540 C   0  0  0  0  0  0  0  0  0  0  0  0
    0.3360   67.2440   68.3860 C   0  0  0  0  0  0  0  0  0  0  0  0
    1.2520   67.3620   67.1670 C   0  0  0  0  0  0  0  0  0  0  0  0
    1.3420   68.7480   66.6770 N   0  0  0  0  0  0  0  0  0  0  0  0
    2.6530   69.1290   66.2690 C   0  0  0  0  0  0  0  0  0  0  0  0
    3.6040   69.5940   67.1900 C   0  0  0  0  0  0  0  0  0  0  0  0
    3.3630   69.7950   68.6630 C   0  0  0  0  0  0  0  0  0  0  0  0
    3.9890   71.1010   69.1620 C   0  0  0  0  0  0  0  0  0  0  0  0
    5.3970   71.3860   68.6230 C   0  0  0  0  0  0  0  0  0  0  0  0
    5.9440   70.2970   67.7040 C   0  0  0  0  0  0  0  0  0  0  0  0
    4.8940   69.8550   66.7180 C   0  0  0  0  0  0  0  0  0  0  0  0
    5.2730   69.7040   65.4320 N   0  0  0  0  0  0  0  0  0  0  0  0
    4.3550   69.2930   64.5450 C   0  0  0  0  0  0  0  0  0  0  0  0
    3.0240   68.9920   64.9030 C   0  0  0  0  0  0  0  0  0  0  0  0
    2.1250   68.5820   63.8890 C   0  0  0  0  0  0  0  0  0  0  0  0
    2.5350   68.4540   62.5630 C   0  0  0  0  0  0  0  0  0  0  0  0
    3.8490   68.7400   62.2260 C   0  0  0  0  0  0  0  0  0  0  0  0
    4.7400   69.1570   63.2170 C   0  0  0  0  0  0  0  0  0  0  0  0
    0.5292   64.9085   69.2905 H   0  0  0  0  0  0  0  0  0  0  0  0
    0.5623   65.4415   71.0491 H   0  0  0  0  0  0  0  0  0  0  0  0
    3.0529   64.9795   69.3969 H   0  0  0  0  0  0  0  0  0  0  0  0
    2.8763   65.2126   71.1898 H   0  0  0  0  0  0  0  0  0  0  0  0
    1.3645   62.9367   70.4789 H   0  0  0  0  0  0  0  0  0  0  0  0
    1.1225   55.8419   73.3131 H   0  0  0  0  0  0  0  0  0  0  0  0
    2.6979   56.3201   71.4350 H   0  0  0  0  0  0  0  0  0  0  0  0
    0.5905   60.0839   73.9669 H   0  0  0  0  0  0  0  0  0  0  0  0
    1.8256   61.7311   72.5018 H   0  0  0  0  0  0  0  0  0  0  0  0
    0.1352   57.2779   76.8002 H   0  0  0  0  0  0  0  0  0  0  0  0
    0.2335   55.7800   75.8137 H   0  0  0  0  0  0  0  0  0  0  0  0
    1.5993   56.9467   75.8137 H   0  0  0  0  0  0  0  0  0  0  0  0
    0.7383   67.5504   70.4752 H   0  0  0  0  0  0  0  0  0  0  0  0
    2.1899   67.1645   69.4368 H   0  0  0  0  0  0  0  0  0  0  0  0
   -0.3880   66.4340   68.2133 H   0  0  0  0  0  0  0  0  0  0  0  0
   -0.1814   68.2045   68.5262 H   0  0  0  0  0  0  0  0  0  0  0  0
    2.2590   67.0173   67.4447 H   0  0  0  0  0  0  0  0  0  0  0  0
    0.8279   66.7438   66.3620 H   0  0  0  0  0  0  0  0  0  0  0  0
    0.5323   69.3831   66.6333 H   0  0  0  0  0  0  0  0  0  0  0  0
    2.2789   69.8253   68.8468 H   0  0  0  0  0  0  0  0  0  0  0  0
    3.8294   68.9596   69.2058 H   0  0  0  0  0  0  0  0  0  0  0  0
    3.3330   71.9315   68.8621 H   0  0  0  0  0  0  0  0  0  0  0  0
    4.0893   70.9997   70.2527 H   0  0  0  0  0  0  0  0  0  0  0  0
    5.3668   72.3304   68.0598 H   0  0  0  0  0  0  0  0  0  0  0  0
    6.0671   71.4324   69.4941 H   0  0  0  0  0  0  0  0  0  0  0  0
    6.8121   70.6904   67.1549 H   0  0  0  0  0  0  0  0  0  0  0  0
    6.2396   69.4327   68.3169 H   0  0  0  0  0  0  0  0  0  0  0  0
    1.0806   68.3597   64.1533 H   0  0  0  0  0  0  0  0  0  0  0  0
    1.8223   68.1289   61.7908 H   0  0  0  0  0  0  0  0  0  0  0  0
    4.1876   68.6390   61.1843 H   0  0  0  0  0  0  0  0  0  0  0  0
    5.7792   69.3849   62.9375 H   0  0  0  0  0  0  0  0  0  0  0  0
  2  1  1  0
  4  3  2  0
  5  3  1  0
  5  2  1  0
  7  6  2  0
  8  7  1  0
  9  8  2  0
 10  9  1  0
 11  6  1  0
 11 10  2  0
 12 10  1  0
 13 12  2  0
 13  3  1  0
 14 13  1  0
 15 14  2  0
 16 14  1  0
 16  9  1  0
 18 17  1  0
 18  6  1  0
 19  1  1  0
 20 19  1  0
 21 20  1  0
 22 21  1  0
 23 22  1  0
 24 23  1  0
 25 24  1  0
 26 25  1  0
 27 26  1  0
 28 27  1  0
 29 24  2  0
 29 28  1  0
 30 29  1  0
 31 30  2  0
 32 31  1  0
 32 23  2  0
 33 32  1  0
 34 33  2  0
 35 34  1  0
 36 35  2  0
 36 31  1  0
  1 37  1  0
  1 38  1  0
  2 39  1  0
  2 40  1  0
  5 41  1  0
  7 42  1  0
  8 43  1  0
 11 44  1  0
 12 45  1  0
 17 46  1  0
 17 47  1  0
 17 48  1  0
 19 49  1  0
 19 50  1  0
 20 51  1  0
 20 52  1  0
 21 53  1  0
 21 54  1  0
 22 55  1  0
 25 56  1  0
 25 57  1  0
 26 58  1  0
 26 59  1  0
 27 60  1  0
 27 61  1  0
 28 62  1  0
 28 63  1  0
 33 64  1  0
 34 65  1  0
 35 66  1  0
 36 67  1  0
M  END
>  <score>  (3) 
-11.922

$$$$
=
     RDKit          3D

 67 71  0  0  0  0  0  0  0  0999 V2000
    0.7130   65.9350   70.2610 C   0  0  0  0  0  0  0  0  0  0  0  0
    1.7110   64.8050   70.5090 C   0  0  0  0  0  0  0  0  0  0  0  0
    1.8140   62.6980   71.7840 C   0  0  0  0  0  0  0  0  0  0  0  0
    3.0420   62.7150   71.8270 O   0  0  0  0  0  0  0  0  0  0  0  0
    1.0860   63.6480   71.1120 N   0  0  0  0  0  0  0  0  0  0  0  0
    0.6500   56.9250   73.6390 C   0  0  0  0  0  0  0  0  0  0  0  0
   -0.5590   57.1970   74.2900 C   0  0  0  0  0  0  0  0  0  0  0  0
   -1.0710   58.4920   74.3280 C   0  0  0  0  0  0  0  0  0  0  0  0
   -0.3600   59.5130   73.7060 C   0  0  0  0  0  0  0  0  0  0  0  0
    0.8410   59.2700   73.0540 C   0  0  0  0  0  0  0  0  0  0  0  0
    1.3500   57.9660   73.0200 C   0  0  0  0  0  0  0  0  0  0  0  0
    1.5310   60.3840   72.4240 C   0  0  0  0  0  0  0  0  0  0  0  0
    1.0230   61.6280   72.4710 C   0  0  0  0  0  0  0  0  0  0  0  0
   -0.2540   61.8920   73.1720 C   0  0  0  0  0  0  0  0  0  0  0  0
   -0.7350   63.0200   73.2430 O   0  0  0  0  0  0  0  0  0  0  0  0
   -0.8990   60.8090   73.7610 O   0  0  0  0  0  0  0  0  0  0  0  0
    2.1370   55.2870   74.5170 C   0  0  0  0  0  0  0  0  0  0  0  0
    1.0340   55.6130   73.6800 O   0  0  0  0  0  0  0  0  0  0  0  0
    1.2660   67.1210   69.4620 C   0  0  0  0  0  0  0  0  0  0  0  0
    0.4320   67.4620   68.2250 C   0  0  0  0  0  0  0  0  0  0  0  0
    1.3020   67.5210   66.9680 C   0  0  0  0  0  0  0  0  0  0  0  0
    1.4600   68.8990   66.4720 N   0  0  0  0  0  0  0  0  0  0  0  0
    2.7890   69.2140   66.0660 C   0  0  0  0  0  0  0  0  0  0  0  0
    3.7590   69.6380   66.9870 C   0  0  0  0  0  0  0  0  0  0  0  0
    3.5230   69.8580   68.4580 C   0  0  0  0  0  0  0  0  0  0  0  0
    4.2090   71.1360   68.9520 C   0  0  0  0  0  0  0  0  0  0  0  0
    5.6310   71.3500   68.4160 C   0  0  0  0  0  0  0  0  0  0  0  0
    6.1280   70.2310   67.5050 C   0  0  0  0  0  0  0  0  0  0  0  0
    5.0600   69.8340   66.5180 C   0  0  0  0  0  0  0  0  0  0  0  0
    5.4360   69.6580   65.2340 N   0  0  0  0  0  0  0  0  0  0  0  0
    4.5020   69.2860   64.3460 C   0  0  0  0  0  0  0  0  0  0  0  0
    3.1570   69.0510   64.7020 C   0  0  0  0  0  0  0  0  0  0  0  0
    2.2430   68.6800   63.6870 C   0  0  0  0  0  0  0  0  0  0  0  0
    2.6500   68.5240   62.3640 C   0  0  0  0  0  0  0  0  0  0  0  0
    3.9770   68.7450   62.0290 C   0  0  0  0  0  0  0  0  0  0  0  0
    4.8840   69.1240   63.0200 C   0  0  0  0  0  0  0  0  0  0  0  0
   -0.1427   65.5199   69.7083 H   0  0  0  0  0  0  0  0  0  0  0  0
    0.4417   66.3298   71.2512 H   0  0  0  0  0  0  0  0  0  0  0  0
    2.1554   64.5072   69.5478 H   0  0  0  0  0  0  0  0  0  0  0  0
    2.4770   65.1770   71.2053 H   0  0  0  0  0  0  0  0  0  0  0  0
    0.0653   63.5338   71.0348 H   0  0  0  0  0  0  0  0  0  0  0  0
   -1.1107   56.3793   74.7768 H   0  0  0  0  0  0  0  0  0  0  0  0
   -2.0209   58.7034   74.8409 H   0  0  0  0  0  0  0  0  0  0  0  0
    2.3007   57.7601   72.5063 H   0  0  0  0  0  0  0  0  0  0  0  0
    2.4825   60.2065   71.9013 H   0  0  0  0  0  0  0  0  0  0  0  0
    1.8361   55.3759   75.5713 H   0  0  0  0  0  0  0  0  0  0  0  0
    2.4594   54.2552   74.3135 H   0  0  0  0  0  0  0  0  0  0  0  0
    2.9685   55.9778   74.3135 H   0  0  0  0  0  0  0  0  0  0  0  0
    1.2915   68.0027   70.1192 H   0  0  0  0  0  0  0  0  0  0  0  0
    2.2683   66.8361   69.1095 H   0  0  0  0  0  0  0  0  0  0  0  0
   -0.3409   66.6910   68.0901 H   0  0  0  0  0  0  0  0  0  0  0  0
   -0.0268   68.4502   68.3768 H   0  0  0  0  0  0  0  0  0  0  0  0
    2.2955   67.1121   67.2039 H   0  0  0  0  0  0  0  0  0  0  0  0
    0.8061   66.9314   66.1829 H   0  0  0  0  0  0  0  0  0  0  0  0
    0.6821   69.5723   66.4232 H   0  0  0  0  0  0  0  0  0  0  0  0
    2.4410   69.9407   68.6379 H   0  0  0  0  0  0  0  0  0  0  0  0
    3.9472   69.0044   69.0070 H   0  0  0  0  0  0  0  0  0  0  0  0
    3.5944   71.9951   68.6450 H   0  0  0  0  0  0  0  0  0  0  0  0
    4.3006   71.0368   70.0437 H   0  0  0  0  0  0  0  0  0  0  0  0
    5.6479   72.2916   67.8475 H   0  0  0  0  0  0  0  0  0  0  0  0
    6.2998   71.3691   69.2891 H   0  0  0  0  0  0  0  0  0  0  0  0
    7.0154   70.5793   66.9562 H   0  0  0  0  0  0  0  0  0  0  0  0
    6.3806   69.3571   68.1235 H   0  0  0  0  0  0  0  0  0  0  0  0
    1.1880   68.5111   63.9487 H   0  0  0  0  0  0  0  0  0  0  0  0
    1.9248   68.2280   61.5917 H   0  0  0  0  0  0  0  0  0  0  0  0
    4.3130   68.6224   60.9888 H   0  0  0  0  0  0  0  0  0  0  0  0
    5.9338   69.2999   62.7425 H   0  0  0  0  0  0  0  0  0  0  0  0
  2  1  1  0
  4  3  2  0
  5  3  1  0
  5  2  1  0
  7  6  2  0
  8  7  1  0
  9  8  2  0
 10  9  1  0
 11  6  1  0
 11 10  2  0
 12 10  1  0
 13 12  2  0
 13  3  1  0
 14 13  1  0
 15 14  2  0
 16 14  1  0
 16  9  1  0
 18 17  1  0
 18  6  1  0
 19  1  1  0
 20 19  1  0
 21 20  1  0
 22 21  1  0
 23 22  1  0
 24 23  1  0
 25 24  1  0
 26 25  1  0
 27 26  1  0
 28 27  1  0
 29 24  2  0
 29 28  1  0
 30 29  1  0
 31 30  2  0
 32 31  1  0
 32 23  2  0
 33 32  1  0
 34 33  2  0
 35 34  1  0
 36 35  2  0
 36 31  1  0
  1 37  1  0
  1 38  1  0
  2 39  1  0
  2 40  1  0
  5 41  1  0
  7 42  1  0
  8 43  1  0
 11 44  1  0
 12 45  1  0
 17 46  1  0
 17 47  1  0
 17 48  1  0
 19 49  1  0
 19 50  1  0
 20 51  1  0
 20 52  1  0
 21 53  1  0
 21 54  1  0
 22 55  1  0
 25 56  1  0
 25 57  1  0
 26 58  1  0
 26 59  1  0
 27 60  1  0
 27 61  1  0
 28 62  1  0
 28 63  1  0
 33 64  1  0
 34 65  1  0
 35 66  1  0
 36 67  1  0
M  END
>  <score>  (4) 
-11.851

$$$$
=
     RDKit          3D

 67 71  0  0  0  0  0  0  0  0999 V2000
   -1.5070   66.6370   68.7500 C   0  0  0  0  0  0  0  0  0  0  0  0
   -1.6780   66.7400   67.2350 C   0  0  0  0  0  0  0  0  0  0  0  0
   -0.2460   68.3400   66.0250 C   0  0  0  0  0  0  0  0  0  0  0  0
   -1.1330   69.1890   65.9750 O   0  0  0  0  0  0  0  0  0  0  0  0
   -0.4440   67.0960   66.5700 N   0  0  0  0  0  0  0  0  0  0  0  0
    5.7000   69.9540   66.4300 C   0  0  0  0  0  0  0  0  0  0  0  0
    6.0030   69.8300   65.0680 C   0  0  0  0  0  0  0  0  0  0  0  0
    5.0260   69.4360   64.1550 C   0  0  0  0  0  0  0  0  0  0  0  0
    3.7420   69.1690   64.6200 C   0  0  0  0  0  0  0  0  0  0  0  0
    3.4170   69.2840   65.9650 C   0  0  0  0  0  0  0  0  0  0  0  0
    4.4040   69.6790   66.8760 C   0  0  0  0  0  0  0  0  0  0  0  0
    2.0550   68.9910   66.3810 C   0  0  0  0  0  0  0  0  0  0  0  0
    1.1250   68.6120   65.4870 C   0  0  0  0  0  0  0  0  0  0  0  0
    1.4710   68.4800   64.0530 C   0  0  0  0  0  0  0  0  0  0  0  0
    0.6450   68.1230   63.2160 O   0  0  0  0  0  0  0  0  0  0  0  0
    2.7780   68.7740   63.6790 O   0  0  0  0  0  0  0  0  0  0  0  0
    6.4640   71.2220   68.2930 C   0  0  0  0  0  0  0  0  0  0  0  0
    6.7530   70.3460   67.2100 O   0  0  0  0  0  0  0  0  0  0  0  0
   -0.0600   66.4610   69.2250 C   0  0  0  0  0  0  0  0  0  0  0  0
    0.0480   65.9100   70.6480 C   0  0  0  0  0  0  0  0  0  0  0  0
    0.2550   64.3940   70.6420 C   0  0  0  0  0  0  0  0  0  0  0  0
    0.6810   63.8900   71.9590 N   0  0  0  0  0  0  0  0  0  0  0  0
    1.2070   62.5670   71.9240 C   0  0  0  0  0  0  0  0  0  0  0  0
    2.4360   62.2790   71.3110 C   0  0  0  0  0  0  0  0  0  0  0  0
    3.3030   63.2780   70.5910 C   0  0  0  0  0  0  0  0  0  0  0  0
    3.8710   62.6960   69.2920 C   0  0  0  0  0  0  0  0  0  0  0  0
    4.3840   61.2550   69.4050 C   0  0  0  0  0  0  0  0  0  0  0  0
    4.2670   60.6600   70.8060 C   0  0  0  0  0  0  0  0  0  0  0  0
    2.9210   60.9720   71.4060 C   0  0  0  0  0  0  0  0  0  0  0  0
    2.2740   59.9690   72.0350 N   0  0  0  0  0  0  0  0  0  0  0  0
    1.0830   60.2350   72.5920 C   0  0  0  0  0  0  0  0  0  0  0  0
    0.4940   61.5170   72.5670 C   0  0  0  0  0  0  0  0  0  0  0  0
   -0.7760   61.6920   73.1670 C   0  0  0  0  0  0  0  0  0  0  0  0
   -1.4350   60.6360   73.7930 C   0  0  0  0  0  0  0  0  0  0  0  0
   -0.8400   59.3830   73.8240 C   0  0  0  0  0  0  0  0  0  0  0  0
    0.4070   59.1980   73.2230 C   0  0  0  0  0  0  0  0  0  0  0  0
   -1.9058   67.5570   69.2024 H   0  0  0  0  0  0  0  0  0  0  0  0
   -2.0465   65.7302   69.0608 H   0  0  0  0  0  0  0  0  0  0  0  0
   -2.0205   65.7681   66.8501 H   0  0  0  0  0  0  0  0  0  0  0  0
   -2.4131   67.5324   67.0307 H   0  0  0  0  0  0  0  0  0  0  0  0
    0.3082   66.3955   66.5035 H   0  0  0  0  0  0  0  0  0  0  0  0
    7.0223   70.0457   64.7153 H   0  0  0  0  0  0  0  0  0  0  0  0
    5.2659   69.3379   63.0860 H   0  0  0  0  0  0  0  0  0  0  0  0
    4.1593   69.7731   67.9443 H   0  0  0  0  0  0  0  0  0  0  0  0
    1.7814   69.0807   67.4427 H   0  0  0  0  0  0  0  0  0  0  0  0
    6.6369   70.6980   69.2446 H   0  0  0  0  0  0  0  0  0  0  0  0
    7.1188   72.1041   68.2359 H   0  0  0  0  0  0  0  0  0  0  0  0
    5.4129   71.5413   68.2359 H   0  0  0  0  0  0  0  0  0  0  0  0
    0.4494   65.7654   68.5419 H   0  0  0  0  0  0  0  0  0  0  0  0
    0.4057   67.4576   69.2258 H   0  0  0  0  0  0  0  0  0  0  0  0
    0.9013   66.3863   71.1531 H   0  0  0  0  0  0  0  0  0  0  0  0
   -0.8902   66.1306   71.1783 H   0  0  0  0  0  0  0  0  0  0  0  0
   -0.6918   63.9074   70.3648 H   0  0  0  0  0  0  0  0  0  0  0  0
    1.0488   64.1623   69.9166 H   0  0  0  0  0  0  0  0  0  0  0  0
    0.6055   64.4430   72.8247 H   0  0  0  0  0  0  0  0  0  0  0  0
    2.7007   64.1666   70.3511 H   0  0  0  0  0  0  0  0  0  0  0  0
    4.1449   63.5411   71.2483 H   0  0  0  0  0  0  0  0  0  0  0  0
    3.0772   62.7183   68.5308 H   0  0  0  0  0  0  0  0  0  0  0  0
    4.7410   63.3154   69.0287 H   0  0  0  0  0  0  0  0  0  0  0  0
    3.8040   60.6265   68.7132 H   0  0  0  0  0  0  0  0  0  0  0  0
    5.4559   61.2796   69.1593 H   0  0  0  0  0  0  0  0  0  0  0  0
    4.3917   59.5687   70.7465 H   0  0  0  0  0  0  0  0  0  0  0  0
    5.0487   61.0991   71.4432 H   0  0  0  0  0  0  0  0  0  0  0  0
   -1.2529   62.6829   73.1384 H   0  0  0  0  0  0  0  0  0  0  0  0
   -2.4188   60.7944   74.2588 H   0  0  0  0  0  0  0  0  0  0  0  0
   -1.3469   58.5412   74.3185 H   0  0  0  0  0  0  0  0  0  0  0  0
    0.8685   58.1999   73.2500 H   0  0  0  0  0  0  0  0  0  0  0  0
  2  1  1  0
  4  3  2  0
  5  3  1  0
  5  2  1  0
  7  6  2  0
  8  7  1  0
  9  8  2  0
 10  9  1  0
 11  6  1  0
 11 10  2  0
 12 10  1  0
 13 12  2  0
 13  3  1  0
 14 13  1  0
 15 14  2  0
 16 14  1  0
 16  9  1  0
 18 17  1  0
 18  6  1  0
 19  1  1  0
 20 19  1  0
 21 20  1  0
 22 21  1  0
 23 22  1  0
 24 23  1  0
 25 24  1  0
 26 25  1  0
 27 26  1  0
 28 27  1  0
 29 24  2  0
 29 28  1  0
 30 29  1  0
 31 30  2  0
 32 31  1  0
 32 23  2  0
 33 32  1  0
 34 33  2  0
 35 34  1  0
 36 35  2  0
 36 31  1  0
  1 37  1  0
  1 38  1  0
  2 39  1  0
  2 40  1  0
  5 41  1  0
  7 42  1  0
  8 43  1  0
 11 44  1  0
 12 45  1  0
 17 46  1  0
 17 47  1  0
 17 48  1  0
 19 49  1  0
 19 50  1  0
 20 51  1  0
 20 52  1  0
 21 53  1  0
 21 54  1  0
 22 55  1  0
 25 56  1  0
 25 57  1  0
 26 58  1  0
 26 59  1  0
 27 60  1  0
 27 61  1  0
 28 62  1  0
 28 63  1  0
 33 64  1  0
 34 65  1  0
 35 66  1  0
 36 67  1  0
M  END
>  <score>  (5) 
-11.79

$$$$
=
     RDKit          3D

 67 71  0  0  0  0  0  0  0  0999 V2000
    0.9560   66.4950   69.9720 C   0  0  0  0  0  0  0  0  0  0  0  0
    1.8930   65.2920   69.8830 C   0  0  0  0  0  0  0  0  0  0  0  0
    2.1410   63.1730   71.1180 C   0  0  0  0  0  0  0  0  0  0  0  0
    3.3670   63.2040   71.0440 O   0  0  0  0  0  0  0  0  0  0  0  0
    1.3420   64.1210   70.5290 N   0  0  0  0  0  0  0  0  0  0  0  0
    1.3790   57.4260   73.2430 C   0  0  0  0  0  0  0  0  0  0  0  0
    0.1640   57.6490   73.9030 C   0  0  0  0  0  0  0  0  0  0  0  0
   -0.4290   58.9090   73.8930 C   0  0  0  0  0  0  0  0  0  0  0  0
    0.2050   59.9440   73.2150 C   0  0  0  0  0  0  0  0  0  0  0  0
    1.4100   59.7500   72.5530 C   0  0  0  0  0  0  0  0  0  0  0  0
    2.0010   58.4800   72.5670 C   0  0  0  0  0  0  0  0  0  0  0  0
    2.0170   60.8770   71.8630 C   0  0  0  0  0  0  0  0  0  0  0  0
    1.4310   62.0860   71.8650 C   0  0  0  0  0  0  0  0  0  0  0  0
    0.1500   62.2990   72.5760 C   0  0  0  0  0  0  0  0  0  0  0  0
   -0.4030   63.3970   72.6060 O   0  0  0  0  0  0  0  0  0  0  0  0
   -0.4150   61.2050   73.2220 O   0  0  0  0  0  0  0  0  0  0  0  0
    1.0120   55.1960   73.9890 C   0  0  0  0  0  0  0  0  0  0  0  0
    1.8470   56.1440   73.3350 O   0  0  0  0  0  0  0  0  0  0  0  0
   -0.2080   66.4820   68.9740 C   0  0  0  0  0  0  0  0  0  0  0  0
   -0.0600   67.5150   67.8550 C   0  0  0  0  0  0  0  0  0  0  0  0
    1.4090   67.7170   67.4780 C   0  0  0  0  0  0  0  0  0  0  0  0
    1.7060   69.1230   67.1560 N   0  0  0  0  0  0  0  0  0  0  0  0
    3.0090   69.3250   66.6160 C   0  0  0  0  0  0  0  0  0  0  0  0
    3.2960   69.0680   65.2680 C   0  0  0  0  0  0  0  0  0  0  0  0
    2.3200   68.5170   64.2610 C   0  0  0  0  0  0  0  0  0  0  0  0
    2.9710   67.4540   63.3700 C   0  0  0  0  0  0  0  0  0  0  0  0
    4.3820   67.8040   62.8800 C   0  0  0  0  0  0  0  0  0  0  0  0
    4.8810   69.1700   63.3420 C   0  0  0  0  0  0  0  0  0  0  0  0
    4.5750   69.3840   64.8010 C   0  0  0  0  0  0  0  0  0  0  0  0
    5.5530   69.9030   65.5710 N   0  0  0  0  0  0  0  0  0  0  0  0
    5.2910   70.1160   66.8700 C   0  0  0  0  0  0  0  0  0  0  0  0
    4.0360   69.8440   67.4530 C   0  0  0  0  0  0  0  0  0  0  0  0
    3.8650   70.0870   68.8370 C   0  0  0  0  0  0  0  0  0  0  0  0
    4.8970   70.6040   69.6170 C   0  0  0  0  0  0  0  0  0  0  0  0
    6.1220   70.8810   69.0300 C   0  0  0  0  0  0  0  0  0  0  0  0
    6.3050   70.6320   67.6680 C   0  0  0  0  0  0  0  0  0  0  0  0
    0.5349   66.5257   70.9877 H   0  0  0  0  0  0  0  0  0  0  0  0
    1.5637   67.3782   69.7257 H   0  0  0  0  0  0  0  0  0  0  0  0
    2.0722   65.0603   68.8227 H   0  0  0  0  0  0  0  0  0  0  0  0
    2.8284   65.5537   70.3993 H   0  0  0  0  0  0  0  0  0  0  0  0
    0.3199   63.9948   70.5476 H   0  0  0  0  0  0  0  0  0  0  0  0
   -0.3268   56.8205   74.4347 H   0  0  0  0  0  0  0  0  0  0  0  0
   -1.3828   59.0824   74.4127 H   0  0  0  0  0  0  0  0  0  0  0  0
    2.9550   58.3119   72.0458 H   0  0  0  0  0  0  0  0  0  0  0  0
    2.9700   60.7376   71.3316 H   0  0  0  0  0  0  0  0  0  0  0  0
    1.1119   55.3094   75.0786 H   0  0  0  0  0  0  0  0  0  0  0  0
   -0.0348   55.3664   73.6971 H   0  0  0  0  0  0  0  0  0  0  0  0
    1.3132   54.1791   73.6971 H   0  0  0  0  0  0  0  0  0  0  0  0
   -0.2669   65.4819   68.5198 H   0  0  0  0  0  0  0  0  0  0  0  0
   -1.1193   66.7382   69.5343 H   0  0  0  0  0  0  0  0  0  0  0  0
   -0.6128   67.1668   66.9700 H   0  0  0  0  0  0  0  0  0  0  0  0
   -0.4628   68.4745   68.2117 H   0  0  0  0  0  0  0  0  0  0  0  0
    2.0392   67.4054   68.3240 H   0  0  0  0  0  0  0  0  0  0  0  0
    1.6173   67.1116   66.5835 H   0  0  0  0  0  0  0  0  0  0  0  0
    1.0343   69.8891   67.3071 H   0  0  0  0  0  0  0  0  0  0  0  0
    1.4721   68.0643   64.7959 H   0  0  0  0  0  0  0  0  0  0  0  0
    1.9823   69.3445   63.6198 H   0  0  0  0  0  0  0  0  0  0  0  0
    3.0299   66.5165   63.9425 H   0  0  0  0  0  0  0  0  0  0  0  0
    2.3413   67.3740   62.4716 H   0  0  0  0  0  0  0  0  0  0  0  0
    5.0773   67.0378   63.2535 H   0  0  0  0  0  0  0  0  0  0  0  0
    4.3370   67.8377   61.7814 H   0  0  0  0  0  0  0  0  0  0  0  0
    5.9688   69.2275   63.1892 H   0  0  0  0  0  0  0  0  0  0  0  0
    4.3711   69.9490   62.7562 H   0  0  0  0  0  0  0  0  0  0  0  0
    2.8960   69.8627   69.3069 H   0  0  0  0  0  0  0  0  0  0  0  0
    4.7412   70.7909   70.6898 H   0  0  0  0  0  0  0  0  0  0  0  0
    6.9442   71.2941   69.6328 H   0  0  0  0  0  0  0  0  0  0  0  0
    7.2821   70.8511   67.2128 H   0  0  0  0  0  0  0  0  0  0  0  0
  2  1  1  0
  4  3  2  0
  5  3  1  0
  5  2  1  0
  7  6  2  0
  8  7  1  0
  9  8  2  0
 10  9  1  0
 11  6  1  0
 11 10  2  0
 12 10  1  0
 13 12  2  0
 13  3  1  0
 14 13  1  0
 15 14  2  0
 16 14  1  0
 16  9  1  0
 18 17  1  0
 18  6  1  0
 19  1  1  0
 20 19  1  0
 21 20  1  0
 22 21  1  0
 23 22  1  0
 24 23  1  0
 25 24  1  0
 26 25  1  0
 27 26  1  0
 28 27  1  0
 29 24  2  0
 29 28  1  0
 30 29  1  0
 31 30  2  0
 32 31  1  0
 32 23  2  0
 33 32  1  0
 34 33  2  0
 35 34  1  0
 36 35  2  0
 36 31  1  0
  1 37  1  0
  1 38  1  0
  2 39  1  0
  2 40  1  0
  5 41  1  0
  7 42  1  0
  8 43  1  0
 11 44  1  0
 12 45  1  0
 17 46  1  0
 17 47  1  0
 17 48  1  0
 19 49  1  0
 19 50  1  0
 20 51  1  0
 20 52  1  0
 21 53  1  0
 21 54  1  0
 22 55  1  0
 25 56  1  0
 25 57  1  0
 26 58  1  0
 26 59  1  0
 27 60  1  0
 27 61  1  0
 28 62  1  0
 28 63  1  0
 33 64  1  0
 34 65  1  0
 35 66  1  0
 36 67  1  0
M  END
>  <score>  (6) 
-11.646

$$$$
=
     RDKit          3D

 67 71  0  0  0  0  0  0  0  0999 V2000
    3.4650   63.8450   65.4050 C   0  0  0  0  0  0  0  0  0  0  0  0
    4.2450   63.6350   66.7010 C   0  0  0  0  0  0  0  0  0  0  0  0
    3.8400   62.9980   69.0470 C   0  0  0  0  0  0  0  0  0  0  0  0
    4.9560   63.3700   69.4040 O   0  0  0  0  0  0  0  0  0  0  0  0
    3.4320   63.0380   67.7370 N   0  0  0  0  0  0  0  0  0  0  0  0
    1.5760   58.8860   73.0580 C   0  0  0  0  0  0  0  0  0  0  0  0
    0.4100   59.5910   73.3840 C   0  0  0  0  0  0  0  0  0  0  0  0
    0.1410   60.8270   72.8010 C   0  0  0  0  0  0  0  0  0  0  0  0
    1.0490   61.3500   71.8870 C   0  0  0  0  0  0  0  0  0  0  0  0
    2.2120   60.6720   71.5480 C   0  0  0  0  0  0  0  0  0  0  0  0
    2.4770   59.4300   72.1380 C   0  0  0  0  0  0  0  0  0  0  0  0
    3.1170   61.2780   70.5840 C   0  0  0  0  0  0  0  0  0  0  0  0
    2.8410   62.4710   70.0310 C   0  0  0  0  0  0  0  0  0  0  0  0
    1.6060   63.2010   70.3970 C   0  0  0  0  0  0  0  0  0  0  0  0
    1.3340   64.3000   69.9180 O   0  0  0  0  0  0  0  0  0  0  0  0
    0.7520   62.5990   71.3150 O   0  0  0  0  0  0  0  0  0  0  0  0
    2.2560   57.7220   75.0200 C   0  0  0  0  0  0  0  0  0  0  0  0
    1.7130   57.6890   73.7050 O   0  0  0  0  0  0  0  0  0  0  0  0
    4.2590   64.5080   64.2730 C   0  0  0  0  0  0  0  0  0  0  0  0
    3.6950   65.8650   63.8490 C   0  0  0  0  0  0  0  0  0  0  0  0
    4.5440   67.0140   64.3950 C   0  0  0  0  0  0  0  0  0  0  0  0
    3.8550   68.3110   64.2820 N   0  0  0  0  0  0  0  0  0  0  0  0
    3.3770   68.8170   65.5250 C   0  0  0  0  0  0  0  0  0  0  0  0
    2.0540   68.6100   65.9440 C   0  0  0  0  0  0  0  0  0  0  0  0
    0.9910   67.9000   65.1480 C   0  0  0  0  0  0  0  0  0  0  0  0
   -0.3540   68.6290   65.2300 C   0  0  0  0  0  0  0  0  0  0  0  0
   -0.7270   69.1340   66.6300 C   0  0  0  0  0  0  0  0  0  0  0  0
    0.2970   68.7920   67.7090 C   0  0  0  0  0  0  0  0  0  0  0  0
    1.6970   69.0590   67.2180 C   0  0  0  0  0  0  0  0  0  0  0  0
    2.5390   69.6930   68.0610 N   0  0  0  0  0  0  0  0  0  0  0  0
    3.7940   69.9230   67.6470 C   0  0  0  0  0  0  0  0  0  0  0  0
    4.2730   69.5110   66.3850 C   0  0  0  0  0  0  0  0  0  0  0  0
    5.6090   69.8170   66.0350 C   0  0  0  0  0  0  0  0  0  0  0  0
    6.4550   70.4920   66.9130 C   0  0  0  0  0  0  0  0  0  0  0  0
    5.9770   70.8800   68.1550 C   0  0  0  0  0  0  0  0  0  0  0  0
    4.6560   70.5940   68.5060 C   0  0  0  0  0  0  0  0  0  0  0  0
    3.1206   62.8623   65.0506 H   0  0  0  0  0  0  0  0  0  0  0  0
    2.6422   64.5333   65.6485 H   0  0  0  0  0  0  0  0  0  0  0  0
    5.1001   62.9739   66.4967 H   0  0  0  0  0  0  0  0  0  0  0  0
    4.5775   64.6207   67.0586 H   0  0  0  0  0  0  0  0  0  0  0  0
    2.5201   62.6309   67.4847 H   0  0  0  0  0  0  0  0  0  0  0  0
   -0.3001   59.1641   74.1076 H   0  0  0  0  0  0  0  0  0  0  0  0
   -0.7742   61.3800   73.0592 H   0  0  0  0  0  0  0  0  0  0  0  0
    3.3946   58.8822   71.8774 H   0  0  0  0  0  0  0  0  0  0  0  0
    4.0413   60.7517   70.3035 H   0  0  0  0  0  0  0  0  0  0  0  0
    1.4393   57.6724   75.7553 H   0  0  0  0  0  0  0  0  0  0  0  0
    2.9287   56.8631   75.1606 H   0  0  0  0  0  0  0  0  0  0  0  0
    2.8197   58.6561   75.1606 H   0  0  0  0  0  0  0  0  0  0  0  0
    5.2955   64.6518   64.6120 H   0  0  0  0  0  0  0  0  0  0  0  0
    4.1957   63.8428   63.3992 H   0  0  0  0  0  0  0  0  0  0  0  0
    3.6812   65.9201   62.7505 H   0  0  0  0  0  0  0  0  0  0  0  0
    2.6775   65.9609   64.2559 H   0  0  0  0  0  0  0  0  0  0  0  0
    4.7645   66.8201   65.4551 H   0  0  0  0  0  0  0  0  0  0  0  0
    5.4676   67.0668   63.7998 H   0  0  0  0  0  0  0  0  0  0  0  0
    3.7304   68.8061   63.3874 H   0  0  0  0  0  0  0  0  0  0  0  0
    1.3066   67.8498   64.0954 H   0  0  0  0  0  0  0  0  0  0  0  0
    0.8625   66.8912   65.5673 H   0  0  0  0  0  0  0  0  0  0  0  0
   -0.3159   69.4949   64.5526 H   0  0  0  0  0  0  0  0  0  0  0  0
   -1.1228   67.8935   64.9508 H   0  0  0  0  0  0  0  0  0  0  0  0
   -0.8305   70.2283   66.5863 H   0  0  0  0  0  0  0  0  0  0  0  0
   -1.6635   68.6296   66.9101 H   0  0  0  0  0  0  0  0  0  0  0  0
    0.1029   69.4080   68.5994 H   0  0  0  0  0  0  0  0  0  0  0  0
    0.2066   67.7241   67.9569 H   0  0  0  0  0  0  0  0  0  0  0  0
    5.9887   69.5154   65.0476 H   0  0  0  0  0  0  0  0  0  0  0  0
    7.4925   70.7148   66.6231 H   0  0  0  0  0  0  0  0  0  0  0  0
    6.6344   71.4100   68.8599 H   0  0  0  0  0  0  0  0  0  0  0  0
    4.2864   70.9096   69.4928 H   0  0  0  0  0  0  0  0  0  0  0  0
  2  1  1  0
  4  3  2  0
  5  3  1  0
  5  2  1  0
  7  6  2  0
  8  7  1  0
  9  8  2  0
 10  9  1  0
 11  6  1  0
 11 10  2  0
 12 10  1  0
 13 12  2  0
 13  3  1  0
 14 13  1  0
 15 14  2  0
 16 14  1  0
 16  9  1  0
 18 17  1  0
 18  6  1  0
 19  1  1  0
 20 19  1  0
 21 20  1  0
 22 21  1  0
 23 22  1  0
 24 23  1  0
 25 24  1  0
 26 25  1  0
 27 26  1  0
 28 27  1  0
 29 24  2  0
 29 28  1  0
 30 29  1  0
 31 30  2  0
 32 31  1  0
 32 23  2  0
 33 32  1  0
 34 33  2  0
 35 34  1  0
 36 35  2  0
 36 31  1  0
  1 37  1  0
  1 38  1  0
  2 39  1  0
  2 40  1  0
  5 41  1  0
  7 42  1  0
  8 43  1  0
 11 44  1  0
 12 45  1  0
 17 46  1  0
 17 47  1  0
 17 48  1  0
 19 49  1  0
 19 50  1  0
 20 51  1  0
 20 52  1  0
 21 53  1  0
 21 54  1  0
 22 55  1  0
 25 56  1  0
 25 57  1  0
 26 58  1  0
 26 59  1  0
 27 60  1  0
 27 61  1  0
 28 62  1  0
 28 63  1  0
 33 64  1  0
 34 65  1  0
 35 66  1  0
 36 67  1  0
M  END
>  <score>  (7) 
-11.414

$$$$
=
     RDKit          3D

 67 71  0  0  0  0  0  0  0  0999 V2000
    1.0320   66.4420   70.2700 C   0  0  0  0  0  0  0  0  0  0  0  0
    0.3810   65.1160   69.8810 C   0  0  0  0  0  0  0  0  0  0  0  0
    2.1300   63.4010   70.1620 C   0  0  0  0  0  0  0  0  0  0  0  0
    2.6880   63.7120   69.1120 O   0  0  0  0  0  0  0  0  0  0  0  0
    0.9670   63.9940   70.5830 N   0  0  0  0  0  0  0  0  0  0  0  0
    1.8330   58.4050   73.7770 C   0  0  0  0  0  0  0  0  0  0  0  0
    3.1920   58.3560   74.1110 C   0  0  0  0  0  0  0  0  0  0  0  0
    4.0820   59.3020   73.6080 C   0  0  0  0  0  0  0  0  0  0  0  0
    3.5980   60.2980   72.7660 C   0  0  0  0  0  0  0  0  0  0  0  0
    2.2560   60.3680   72.4190 C   0  0  0  0  0  0  0  0  0  0  0  0
    1.3660   59.4140   72.9290 C   0  0  0  0  0  0  0  0  0  0  0  0
    1.8180   61.4370   71.5360 C   0  0  0  0  0  0  0  0  0  0  0  0
    2.6910   62.3400   71.0580 C   0  0  0  0  0  0  0  0  0  0  0  0
    4.1240   62.2640   71.4200 C   0  0  0  0  0  0  0  0  0  0  0  0
    4.9470   63.0680   70.9880 O   0  0  0  0  0  0  0  0  0  0  0  0
    4.5180   61.2380   72.2720 O   0  0  0  0  0  0  0  0  0  0  0  0
   -0.2790   57.3160   73.9190 C   0  0  0  0  0  0  0  0  0  0  0  0
    1.0760   57.4150   74.3410 O   0  0  0  0  0  0  0  0  0  0  0  0
    1.4910   67.3060   69.0890 C   0  0  0  0  0  0  0  0  0  0  0  0
    0.5550   67.2290   67.8800 C   0  0  0  0  0  0  0  0  0  0  0  0
    1.2600   67.6890   66.6030 C   0  0  0  0  0  0  0  0  0  0  0  0
    1.6780   69.0990   66.6810 N   0  0  0  0  0  0  0  0  0  0  0  0
    3.0310   69.3200   66.2920 C   0  0  0  0  0  0  0  0  0  0  0  0
    3.4640   69.0960   64.9770 C   0  0  0  0  0  0  0  0  0  0  0  0
    2.6070   68.5640   63.8570 C   0  0  0  0  0  0  0  0  0  0  0  0
    3.3580   67.5250   63.0180 C   0  0  0  0  0  0  0  0  0  0  0  0
    4.8120   67.8930   62.6930 C   0  0  0  0  0  0  0  0  0  0  0  0
    5.2480   69.2500   63.2370 C   0  0  0  0  0  0  0  0  0  0  0  0
    4.7840   69.4280   64.6590 C   0  0  0  0  0  0  0  0  0  0  0  0
    5.6690   69.9330   65.5430 N   0  0  0  0  0  0  0  0  0  0  0  0
    5.2660   70.1150   66.8100 C   0  0  0  0  0  0  0  0  0  0  0  0
    3.9570   69.8230   67.2470 C   0  0  0  0  0  0  0  0  0  0  0  0
    3.6340   70.0330   68.6090 C   0  0  0  0  0  0  0  0  0  0  0  0
    4.5720   70.5360   69.5090 C   0  0  0  0  0  0  0  0  0  0  0  0
    5.8520   70.8320   69.0640 C   0  0  0  0  0  0  0  0  0  0  0  0
    6.1840   70.6160   67.7250 C   0  0  0  0  0  0  0  0  0  0  0  0
    0.3031   67.0221   70.8550 H   0  0  0  0  0  0  0  0  0  0  0  0
    1.9395   66.1861   70.8366 H   0  0  0  0  0  0  0  0  0  0  0  0
   -0.6914   65.1636   70.1213 H   0  0  0  0  0  0  0  0  0  0  0  0
    0.5427   64.9629   68.8038 H   0  0  0  0  0  0  0  0  0  0  0  0
    0.4966   63.6300   71.4239 H   0  0  0  0  0  0  0  0  0  0  0  0
    3.5605   57.5622   74.7775 H   0  0  0  0  0  0  0  0  0  0  0  0
    5.1491   59.2622   73.8720 H   0  0  0  0  0  0  0  0  0  0  0  0
    0.2997   59.4586   72.6624 H   0  0  0  0  0  0  0  0  0  0  0  0
    0.7568   61.5076   71.2552 H   0  0  0  0  0  0  0  0  0  0  0  0
   -0.9350   57.2681   74.8007 H   0  0  0  0  0  0  0  0  0  0  0  0
   -0.5403   58.1974   73.3150 H   0  0  0  0  0  0  0  0  0  0  0  0
   -0.4094   56.4059   73.3150 H   0  0  0  0  0  0  0  0  0  0  0  0
    1.5443   68.3528   69.4227 H   0  0  0  0  0  0  0  0  0  0  0  0
    2.4702   66.9222   68.7668 H   0  0  0  0  0  0  0  0  0  0  0  0
    0.2213   66.1889   67.7506 H   0  0  0  0  0  0  0  0  0  0  0  0
   -0.3033   67.8926   68.0618 H   0  0  0  0  0  0  0  0  0  0  0  0
    2.1503   67.0629   66.4436 H   0  0  0  0  0  0  0  0  0  0  0  0
    0.5500   67.5907   65.7686 H   0  0  0  0  0  0  0  0  0  0  0  0
    1.0503   69.8556   66.9884 H   0  0  0  0  0  0  0  0  0  0  0  0
    1.7092   68.0952   64.2861 H   0  0  0  0  0  0  0  0  0  0  0  0
    2.3356   69.4048   63.2018 H   0  0  0  0  0  0  0  0  0  0  0  0
    3.3607   66.5745   63.5717 H   0  0  0  0  0  0  0  0  0  0  0  0
    2.8304   67.4632   62.0548 H   0  0  0  0  0  0  0  0  0  0  0  0
    5.4679   67.1216   63.1230 H   0  0  0  0  0  0  0  0  0  0  0  0
    4.8867   67.9519   61.5971 H   0  0  0  0  0  0  0  0  0  0  0  0
    6.3455   69.3163   63.2044 H   0  0  0  0  0  0  0  0  0  0  0  0
    4.7991   70.0401   62.6172 H   0  0  0  0  0  0  0  0  0  0  0  0
    2.6209   69.7941   68.9649 H   0  0  0  0  0  0  0  0  0  0  0  0
    4.2997   70.6968   70.5626 H   0  0  0  0  0  0  0  0  0  0  0  0
    6.6011   71.2345   69.7618 H   0  0  0  0  0  0  0  0  0  0  0  0
    7.2034   70.8496   67.3841 H   0  0  0  0  0  0  0  0  0  0  0  0
  2  1  1  0
  4  3  2  0
  5  3  1  0
  5  2  1  0
  7  6  2  0
  8  7  1  0
  9  8  2  0
 10  9  1  0
 11  6  1  0
 11 10  2  0
 12 10  1  0
 13 12  2  0
 13  3  1  0
 14 13  1  0
 15 14  2  0
 16 14  1  0
 16  9  1  0
 18 17  1  0
 18  6  1  0
 19  1  1  0
 20 19  1  0
 21 20  1  0
 22 21  1  0
 23 22  1  0
 24 23  1  0
 25 24  1  0
 26 25  1  0
 27 26  1  0
 28 27  1  0
 29 24  2  0
 29 28  1  0
 30 29  1  0
 31 30  2  0
 32 31  1  0
 32 23  2  0
 33 32  1  0
 34 33  2  0
 35 34  1  0
 36 35  2  0
 36 31  1  0
  1 37  1  0
  1 38  1  0
  2 39  1  0
  2 40  1  0
  5 41  1  0
  7 42  1  0
  8 43  1  0
 11 44  1  0
 12 45  1  0
 17 46  1  0
 17 47  1  0
 17 48  1  0
 19 49  1  0
 19 50  1  0
 20 51  1  0
 20 52  1  0
 21 53  1  0
 21 54  1  0
 22 55  1  0
 25 56  1  0
 25 57  1  0
 26 58  1  0
 26 59  1  0
 27 60  1  0
 27 61  1  0
 28 62  1  0
 28 63  1  0
 33 64  1  0
 34 65  1  0
 35 66  1  0
 36 67  1  0
M  END
>  <score>  (8) 
-11.372

$$$$
=
     RDKit          3D

 67 71  0  0  0  0  0  0  0  0999 V2000
    1.4120   65.1690   70.2620 C   0  0  0  0  0  0  0  0  0  0  0  0
    0.8260   66.5580   70.0130 C   0  0  0  0  0  0  0  0  0  0  0  0
   -0.1890   67.0730   67.8260 C   0  0  0  0  0  0  0  0  0  0  0  0
   -1.3150   66.7620   68.2080 O   0  0  0  0  0  0  0  0  0  0  0  0
    0.9220   66.9490   68.6230 N   0  0  0  0  0  0  0  0  0  0  0  0
    3.0490   67.9570   62.6440 C   0  0  0  0  0  0  0  0  0  0  0  0
    2.1020   68.7500   61.9850 C   0  0  0  0  0  0  0  0  0  0  0  0
    0.8880   69.0620   62.5950 C   0  0  0  0  0  0  0  0  0  0  0  0
    0.6330   68.5710   63.8700 C   0  0  0  0  0  0  0  0  0  0  0  0
    1.5550   67.7820   64.5440 C   0  0  0  0  0  0  0  0  0  0  0  0
    2.7720   67.4730   63.9260 C   0  0  0  0  0  0  0  0  0  0  0  0
    1.2220   67.3040   65.8770 C   0  0  0  0  0  0  0  0  0  0  0  0
    0.0470   67.6140   66.4490 C   0  0  0  0  0  0  0  0  0  0  0  0
   -0.9430   68.4480   65.7310 C   0  0  0  0  0  0  0  0  0  0  0  0
   -2.0310   68.7370   66.2230 O   0  0  0  0  0  0  0  0  0  0  0  0
   -0.5990   68.9000   64.4600 O   0  0  0  0  0  0  0  0  0  0  0  0
    5.4150   68.1810   62.5020 C   0  0  0  0  0  0  0  0  0  0  0  0
    4.1930   67.7300   61.9290 O   0  0  0  0  0  0  0  0  0  0  0  0
    0.3830   64.0910   70.6220 C   0  0  0  0  0  0  0  0  0  0  0  0
    0.2280   63.8780   72.1290 C   0  0  0  0  0  0  0  0  0  0  0  0
   -0.1760   62.4370   72.4470 C   0  0  0  0  0  0  0  0  0  0  0  0
    0.6850   61.8390   73.4810 N   0  0  0  0  0  0  0  0  0  0  0  0
    1.4980   60.7700   73.0040 C   0  0  0  0  0  0  0  0  0  0  0  0
    2.7360   61.0060   72.3880 C   0  0  0  0  0  0  0  0  0  0  0  0
    3.3250   62.3650   72.1110 C   0  0  0  0  0  0  0  0  0  0  0  0
    3.9620   62.4290   70.7190 C   0  0  0  0  0  0  0  0  0  0  0  0
    4.7940   61.1980   70.3370 C   0  0  0  0  0  0  0  0  0  0  0  0
    4.8680   60.1330   71.4270 C   0  0  0  0  0  0  0  0  0  0  0  0
    3.5100   59.8970   72.0350 C   0  0  0  0  0  0  0  0  0  0  0  0
    3.1330   58.6170   72.2350 N   0  0  0  0  0  0  0  0  0  0  0  0
    1.9340   58.3910   72.7930 C   0  0  0  0  0  0  0  0  0  0  0  0
    1.0680   59.4280   73.1970 C   0  0  0  0  0  0  0  0  0  0  0  0
   -0.1850   59.0850   73.7590 C   0  0  0  0  0  0  0  0  0  0  0  0
   -0.5620   57.7560   73.9370 C   0  0  0  0  0  0  0  0  0  0  0  0
    0.3030   56.7440   73.5490 C   0  0  0  0  0  0  0  0  0  0  0  0
    1.5360   57.0720   72.9810 C   0  0  0  0  0  0  0  0  0  0  0  0
    1.9361   64.8502   69.3489 H   0  0  0  0  0  0  0  0  0  0  0  0
    2.0765   65.2654   71.1333 H   0  0  0  0  0  0  0  0  0  0  0  0
   -0.2338   66.5537   70.3077 H   0  0  0  0  0  0  0  0  0  0  0  0
    1.4034   67.2806   70.6084 H   0  0  0  0  0  0  0  0  0  0  0  0
    1.8505   67.1397   68.2200 H   0  0  0  0  0  0  0  0  0  0  0  0
    2.3180   69.1307   60.9758 H   0  0  0  0  0  0  0  0  0  0  0  0
    0.1450   69.6858   62.0764 H   0  0  0  0  0  0  0  0  0  0  0  0
    3.5112   66.8488   64.4494 H   0  0  0  0  0  0  0  0  0  0  0  0
    1.9432   66.6794   66.4246 H   0  0  0  0  0  0  0  0  0  0  0  0
    5.3381   68.1526   63.5989 H   0  0  0  0  0  0  0  0  0  0  0  0
    6.2367   67.5269   62.1750 H   0  0  0  0  0  0  0  0  0  0  0  0
    5.6148   69.2121   62.1750 H   0  0  0  0  0  0  0  0  0  0  0  0
   -0.5925   64.3886   70.2098 H   0  0  0  0  0  0  0  0  0  0  0  0
    0.7430   63.1431   70.1954 H   0  0  0  0  0  0  0  0  0  0  0  0
    1.1858   64.0991   72.6227 H   0  0  0  0  0  0  0  0  0  0  0  0
   -0.5623   64.5496   72.4956 H   0  0  0  0  0  0  0  0  0  0  0  0
   -1.2166   62.4302   72.8036 H   0  0  0  0  0  0  0  0  0  0  0  0
   -0.0669   61.8425   71.5280 H   0  0  0  0  0  0  0  0  0  0  0  0
    0.6985   62.1632   74.4585 H   0  0  0  0  0  0  0  0  0  0  0  0
    2.5272   63.1197   72.1738 H   0  0  0  0  0  0  0  0  0  0  0  0
    4.1087   62.5597   72.8579 H   0  0  0  0  0  0  0  0  0  0  0  0
    3.1564   62.5412   69.9785 H   0  0  0  0  0  0  0  0  0  0  0  0
    4.6575   63.2811   70.7347 H   0  0  0  0  0  0  0  0  0  0  0  0
    4.3472   60.7439   69.4402 H   0  0  0  0  0  0  0  0  0  0  0  0
    5.8222   61.5504   70.1677 H   0  0  0  0  0  0  0  0  0  0  0  0
    5.2357   59.1933   70.9891 H   0  0  0  0  0  0  0  0  0  0  0  0
    5.5523   60.4808   72.2149 H   0  0  0  0  0  0  0  0  0  0  0  0
   -0.8761   59.8855   74.0618 H   0  0  0  0  0  0  0  0  0  0  0  0
   -1.5379   57.5112   74.3817 H   0  0  0  0  0  0  0  0  0  0  0  0
    0.0200   55.6901   73.6876 H   0  0  0  0  0  0  0  0  0  0  0  0
    2.2132   56.2618   72.6728 H   0  0  0  0  0  0  0  0  0  0  0  0
  2  1  1  0
  4  3  2  0
  5  3  1  0
  5  2  1  0
  7  6  2  0
  8  7  1  0
  9  8  2  0
 10  9  1  0
 11  6  1  0
 11 10  2  0
 12 10  1  0
 13 12  2  0
 13  3  1  0
 14 13  1  0
 15 14  2  0
 16 14  1  0
 16  9  1  0
 18 17  1  0
 18  6  1  0
 19  1  1  0
 20 19  1  0
 21 20  1  0
 22 21  1  0
 23 22  1  0
 24 23  1  0
 25 24  1  0
 26 25  1  0
 27 26  1  0
 28 27  1  0
 29 24  2  0
 29 28  1  0
 30 29  1  0
 31 30  2  0
 32 31  1  0
 32 23  2  0
 33 32  1  0
 34 33  2  0
 35 34  1  0
 36 35  2  0
 36 31  1  0
  1 37  1  0
  1 38  1  0
  2 39  1  0
  2 40  1  0
  5 41  1  0
  7 42  1  0
  8 43  1  0
 11 44  1  0
 12 45  1  0
 17 46  1  0
 17 47  1  0
 17 48  1  0
 19 49  1  0
 19 50  1  0
 20 51  1  0
 20 52  1  0
 21 53  1  0
 21 54  1  0
 22 55  1  0
 25 56  1  0
 25 57  1  0
 26 58  1  0
 26 59  1  0
 27 60  1  0
 27 61  1  0
 28 62  1  0
 28 63  1  0
 33 64  1  0
 34 65  1  0
 35 66  1  0
 36 67  1  0
M  END
>  <score>  (9) 
-11.014

$$$$
