=
     RDKit          3D

 59 62  0  0  0  0  0  0  0  0999 V2000
    0.8460   64.3150   71.7470 C   0  0  2  0  0  0  0  0  0  0  0  0
   -0.0880   65.8650   71.3480 S   0  0  0  0  0  0  0  0  0  0  0  0
    0.8420   66.1680   69.9100 C   0  0  0  0  0  0  0  0  0  0  0  0
    0.6050   67.2900   69.2630 N   0  0  0  0  0  4  0  0  0  0  0  0
    1.6570   65.1800   69.6160 N   0  0  0  0  0  0  0  0  0  0  0  0
    1.7000   64.0870   70.5200 C   0  0  0  0  0  0  0  0  0  0  0  0
    2.3890   63.1320   70.2330 O   0  0  0  0  0  0  0  0  0  0  0  0
    1.2670   67.7570   68.1690 C   0  0  0  0  0  0  0  0  0  0  0  0
    2.1540   68.8390   68.1950 C   0  0  0  0  0  0  0  0  0  0  0  0
    2.7910   69.2730   67.0260 C   0  0  0  0  0  0  0  0  0  0  0  0
    2.5430   68.6460   65.7990 C   0  0  0  0  0  0  0  0  0  0  0  0
    1.6260   67.5900   65.7660 C   0  0  0  0  0  0  0  0  0  0  0  0
    0.9890   67.1600   66.9350 C   0  0  0  0  0  0  0  0  0  0  0  0
    3.2190   69.1010   64.5140 C   0  0  0  0  0  0  0  0  0  0  0  0
    2.7270   68.3040   63.2920 C   0  0  0  0  0  0  0  0  0  0  0  0
    3.4080   68.7750   62.0080 C   0  0  0  0  0  0  0  0  0  0  0  0
    4.9280   68.7260   62.1260 C   0  0  0  0  0  0  0  0  0  0  0  0
    5.4240   69.5130   63.3370 C   0  0  0  0  0  0  0  0  0  0  0  0
    4.7530   69.0450   64.6270 C   0  0  0  0  0  0  0  0  0  0  0  0
   -0.0650   63.1240   72.0190 C   0  0  0  0  0  0  0  0  0  0  0  0
    1.5050   62.3670   73.6500 O   0  0  0  0  0  0  0  0  0  0  0  0
    0.6530   62.0590   72.8250 C   0  0  0  0  0  0  0  0  0  0  0  0
    0.2320   60.7830   72.4990 N   0  0  0  0  0  0  0  0  0  0  0  0
    0.6800   59.5680   73.0600 C   0  0  0  0  0  0  0  0  0  0  0  0
    1.9090   58.9750   72.7710 C   0  0  0  0  0  0  0  0  0  0  0  0
    2.2830   57.7630   73.3730 C   0  0  0  0  0  0  0  0  0  0  0  0
    1.4300   57.1300   74.2740 C   0  0  0  0  0  0  0  0  0  0  0  0
    0.2000   57.7220   74.5650 C   0  0  0  0  0  0  0  0  0  0  0  0
   -0.1740   58.9290   73.9650 C   0  0  0  0  0  0  0  0  0  0  0  0
    1.6620   55.9560   74.9290 O   0  0  0  0  0  0  0  0  0  0  0  0
    1.4320   54.7470   74.2240 C   0  0  0  0  0  0  0  0  0  0  0  0
    1.3850   53.7300   75.1110 F   0  0  0  0  0  0  0  0  0  0  0  0
    0.2550   54.7860   73.5650 F   0  0  0  0  0  0  0  0  0  0  0  0
    2.4300   54.4980   73.3490 F   0  0  0  0  0  0  0  0  0  0  0  0
    1.4318   64.4196   72.6722 H   0  0  0  0  0  0  0  0  0  0  0  0
   -0.1620   67.8760   69.6224 H   0  0  0  0  0  0  0  0  0  0  0  0
    2.2392   65.1981   68.7665 H   0  0  0  0  0  0  0  0  0  0  0  0
    2.3534   69.3551   69.1457 H   0  0  0  0  0  0  0  0  0  0  0  0
    3.4950   70.1170   67.0723 H   0  0  0  0  0  0  0  0  0  0  0  0
    1.4034   67.0924   64.8106 H   0  0  0  0  0  0  0  0  0  0  0  0
    0.2581   66.3396   66.8829 H   0  0  0  0  0  0  0  0  0  0  0  0
    2.9322   70.1519   64.3609 H   0  0  0  0  0  0  0  0  0  0  0  0
    2.9514   67.2382   63.4459 H   0  0  0  0  0  0  0  0  0  0  0  0
    1.6437   68.4638   63.1879 H   0  0  0  0  0  0  0  0  0  0  0  0
    3.0935   68.1248   61.1783 H   0  0  0  0  0  0  0  0  0  0  0  0
    3.1113   69.8183   61.8249 H   0  0  0  0  0  0  0  0  0  0  0  0
    5.2444   67.6774   62.2278 H   0  0  0  0  0  0  0  0  0  0  0  0
    5.3579   69.1803   61.2211 H   0  0  0  0  0  0  0  0  0  0  0  0
    6.5114   69.3759   63.4305 H   0  0  0  0  0  0  0  0  0  0  0  0
    5.1726   70.5729   63.1842 H   0  0  0  0  0  0  0  0  0  0  0  0
    5.0591   68.0090   64.8342 H   0  0  0  0  0  0  0  0  0  0  0  0
    5.0649   69.7144   65.4422 H   0  0  0  0  0  0  0  0  0  0  0  0
   -0.9460   63.4669   72.5814 H   0  0  0  0  0  0  0  0  0  0  0  0
   -0.3665   62.6881   71.0551 H   0  0  0  0  0  0  0  0  0  0  0  0
   -0.4879   60.7113   71.7659 H   0  0  0  0  0  0  0  0  0  0  0  0
    2.5941   59.4632   72.0623 H   0  0  0  0  0  0  0  0  0  0  0  0
    3.2560   57.3104   73.1315 H   0  0  0  0  0  0  0  0  0  0  0  0
   -0.4837   57.2334   75.2749 H   0  0  0  0  0  0  0  0  0  0  0  0
   -1.1479   59.3795   74.2069 H   0  0  0  0  0  0  0  0  0  0  0  0
  2  1  1  0
  3  2  1  0
  4  3  2  0
  5  3  1  0
  6  5  1  0
  6  1  1  0
  7  6  2  0
  8  4  1  0
  9  8  2  0
 10  9  1  0
 11 10  2  0
 12 11  1  0
 13 12  2  0
 13  8  1  0
 14 11  1  0
 15 14  1  0
 16 15  1  0
 17 16  1  0
 18 17  1  0
 19 18  1  0
 19 14  1  0
 20  1  1  0
 22 21  2  0
 22 20  1  0
 23 22  1  0
 24 23  1  0
 25 24  2  0
 26 25  1  0
 27 26  2  0
 28 27  1  0
 29 28  2  0
 29 24  1  0
 30 27  1  0
 31 30  1  0
 32 31  1  0
 33 31  1  0
 34 31  1  0
  1 35  1  1
  4 36  1  0
  5 37  1  0
  9 38  1  0
 10 39  1  0
 12 40  1  0
 13 41  1  0
 14 42  1  0
 15 43  1  0
 15 44  1  0
 16 45  1  0
 16 46  1  0
 17 47  1  0
 17 48  1  0
 18 49  1  0
 18 50  1  0
 19 51  1  0
 19 52  1  0
 20 53  1  0
 20 54  1  0
 23 55  1  0
 25 56  1  0
 26 57  1  0
 28 58  1  0
 29 59  1  0
M  CHG  1   4   1
M  END
>  <score>  (1) 
-10.37

$$$$
=
     RDKit          3D

 59 62  0  0  0  0  0  0  0  0999 V2000
    2.2050   67.5530   63.4020 C   0  0  2  0  0  0  0  0  0  0  0  0
    1.2780   68.7130   64.5110 S   0  0  0  0  0  0  0  0  0  0  0  0
    1.2850   67.5970   65.8440 C   0  0  0  0  0  0  0  0  0  0  0  0
    0.6210   67.9440   66.9250 N   0  0  0  0  0  4  0  0  0  0  0  0
    2.0210   66.5330   65.6090 N   0  0  0  0  0  0  0  0  0  0  0  0
    2.6190   66.4320   64.3270 C   0  0  0  0  0  0  0  0  0  0  0  0
    3.3600   65.4970   64.1120 O   0  0  0  0  0  0  0  0  0  0  0  0
    0.4330   67.1910   68.0450 C   0  0  0  0  0  0  0  0  0  0  0  0
   -0.7810   66.5890   68.3870 C   0  0  0  0  0  0  0  0  0  0  0  0
   -0.9040   65.8380   69.5630 C   0  0  0  0  0  0  0  0  0  0  0  0
    0.1810   65.6870   70.4340 C   0  0  0  0  0  0  0  0  0  0  0  0
    1.3850   66.3220   70.1110 C   0  0  0  0  0  0  0  0  0  0  0  0
    1.5040   67.0740   68.9380 C   0  0  0  0  0  0  0  0  0  0  0  0
    0.0730   64.8790   71.7190 C   0  0  0  0  0  0  0  0  0  0  0  0
   -0.1570   65.7810   72.9460 C   0  0  0  0  0  0  0  0  0  0  0  0
   -0.2720   64.9580   74.2280 C   0  0  0  0  0  0  0  0  0  0  0  0
    0.9390   64.0510   74.4260 C   0  0  0  0  0  0  0  0  0  0  0  0
    1.1760   63.1560   73.2130 C   0  0  0  0  0  0  0  0  0  0  0  0
    1.2970   63.9700   71.9250 C   0  0  0  0  0  0  0  0  0  0  0  0
    3.4140   68.2030   62.7390 C   0  0  0  0  0  0  0  0  0  0  0  0
    5.6290   68.2590   63.6250 O   0  0  0  0  0  0  0  0  0  0  0  0
    4.4580   68.5910   63.7670 C   0  0  0  0  0  0  0  0  0  0  0  0
    3.9190   69.3160   64.8130 N   0  0  0  0  0  0  0  0  0  0  0  0
    4.6040   69.8430   65.9290 C   0  0  0  0  0  0  0  0  0  0  0  0
    5.8850   70.3930   65.8760 C   0  0  0  0  0  0  0  0  0  0  0  0
    6.4980   70.9000   67.0320 C   0  0  0  0  0  0  0  0  0  0  0  0
    5.8360   70.8630   68.2570 C   0  0  0  0  0  0  0  0  0  0  0  0
    4.5540   70.3140   68.3120 C   0  0  0  0  0  0  0  0  0  0  0  0
    3.9420   69.8080   67.1600 C   0  0  0  0  0  0  0  0  0  0  0  0
    6.3090   71.3170   69.4540 O   0  0  0  0  0  0  0  0  0  0  0  0
    7.5760   70.8480   69.8850 C   0  0  0  0  0  0  0  0  0  0  0  0
    8.0230   69.9300   69.0020 F   0  0  0  0  0  0  0  0  0  0  0  0
    8.4740   71.8540   69.9370 F   0  0  0  0  0  0  0  0  0  0  0  0
    7.4890   70.2590   71.0970 F   0  0  0  0  0  0  0  0  0  0  0  0
    1.5873   67.2147   62.5570 H   0  0  0  0  0  0  0  0  0  0  0  0
    0.1988   68.8835   66.9250 H   0  0  0  0  0  0  0  0  0  0  0  0
    2.1572   65.8048   66.3246 H   0  0  0  0  0  0  0  0  0  0  0  0
   -1.6510   66.7064   67.7242 H   0  0  0  0  0  0  0  0  0  0  0  0
   -1.8652   65.3610   69.8049 H   0  0  0  0  0  0  0  0  0  0  0  0
    2.2476   66.2287   70.7872 H   0  0  0  0  0  0  0  0  0  0  0  0
    2.4540   67.5813   68.7139 H   0  0  0  0  0  0  0  0  0  0  0  0
   -0.8100   64.2317   71.6129 H   0  0  0  0  0  0  0  0  0  0  0  0
    0.6891   66.4773   73.0422 H   0  0  0  0  0  0  0  0  0  0  0  0
   -1.0991   66.3300   72.8009 H   0  0  0  0  0  0  0  0  0  0  0  0
   -0.3488   65.6426   75.0856 H   0  0  0  0  0  0  0  0  0  0  0  0
   -1.1670   64.3233   74.1493 H   0  0  0  0  0  0  0  0  0  0  0  0
    1.8299   64.6756   74.5881 H   0  0  0  0  0  0  0  0  0  0  0  0
    0.7469   63.4064   75.2964 H   0  0  0  0  0  0  0  0  0  0  0  0
    2.1061   62.5886   73.3649 H   0  0  0  0  0  0  0  0  0  0  0  0
    0.3141   62.4801   73.1119 H   0  0  0  0  0  0  0  0  0  0  0  0
    2.2012   64.5940   71.9795 H   0  0  0  0  0  0  0  0  0  0  0  0
    1.3559   63.2710   71.0777 H   0  0  0  0  0  0  0  0  0  0  0  0
    3.8582   67.4923   62.0266 H   0  0  0  0  0  0  0  0  0  0  0  0
    3.0800   69.1135   62.2199 H   0  0  0  0  0  0  0  0  0  0  0  0
    2.9048   69.4912   64.7738 H   0  0  0  0  0  0  0  0  0  0  0  0
    6.4211   70.4297   64.9162 H   0  0  0  0  0  0  0  0  0  0  0  0
    7.5087   71.3298   66.9703 H   0  0  0  0  0  0  0  0  0  0  0  0
    4.0185   70.2787   69.2722 H   0  0  0  0  0  0  0  0  0  0  0  0
    2.9311   69.3789   67.2234 H   0  0  0  0  0  0  0  0  0  0  0  0
  2  1  1  0
  3  2  1  0
  4  3  2  0
  5  3  1  0
  6  5  1  0
  6  1  1  0
  7  6  2  0
  8  4  1  0
  9  8  2  0
 10  9  1  0
 11 10  2  0
 12 11  1  0
 13 12  2  0
 13  8  1  0
 14 11  1  0
 15 14  1  0
 16 15  1  0
 17 16  1  0
 18 17  1  0
 19 18  1  0
 19 14  1  0
 20  1  1  0
 22 21  2  0
 22 20  1  0
 23 22  1  0
 24 23  1  0
 25 24  2  0
 26 25  1  0
 27 26  2  0
 28 27  1  0
 29 28  2  0
 29 24  1  0
 30 27  1  0
 31 30  1  0
 32 31  1  0
 33 31  1  0
 34 31  1  0
  1 35  1  6
  4 36  1  0
  5 37  1  0
  9 38  1  0
 10 39  1  0
 12 40  1  0
 13 41  1  0
 14 42  1  0
 15 43  1  0
 15 44  1  0
 16 45  1  0
 16 46  1  0
 17 47  1  0
 17 48  1  0
 18 49  1  0
 18 50  1  0
 19 51  1  0
 19 52  1  0
 20 53  1  0
 20 54  1  0
 23 55  1  0
 25 56  1  0
 26 57  1  0
 28 58  1  0
 29 59  1  0
M  CHG  1   4   1
M  END
>  <score>  (2) 
-9.69

$$$$
=
     RDKit          3D

 59 62  0  0  0  0  0  0  0  0999 V2000
   -0.1210   67.9340   68.1160 C   0  0  2  0  0  0  0  0  0  0  0  0
    1.4240   67.4610   69.0220 S   0  0  0  0  0  0  0  0  0  0  0  0
    0.7350   65.9810   69.6200 C   0  0  0  0  0  0  0  0  0  0  0  0
    1.4620   65.2690   70.4540 N   0  0  0  0  0  4  0  0  0  0  0  0
   -0.4480   65.7300   69.1050 N   0  0  0  0  0  0  0  0  0  0  0  0
   -0.9890   66.7020   68.2250 C   0  0  0  0  0  0  0  0  0  0  0  0
   -2.0450   66.4590   67.6810 O   0  0  0  0  0  0  0  0  0  0  0  0
    1.0870   64.1290   71.0960 C   0  0  0  0  0  0  0  0  0  0  0  0
    0.2210   64.0980   72.1940 C   0  0  0  0  0  0  0  0  0  0  0  0
   -0.1100   62.8870   72.8130 C   0  0  0  0  0  0  0  0  0  0  0  0
    0.4300   61.6780   72.3600 C   0  0  0  0  0  0  0  0  0  0  0  0
    1.3270   61.7130   71.2870 C   0  0  0  0  0  0  0  0  0  0  0  0
    1.6600   62.9240   70.6720 C   0  0  0  0  0  0  0  0  0  0  0  0
    0.0890   60.3490   73.0180 C   0  0  0  0  0  0  0  0  0  0  0  0
   -1.2850   60.3870   73.7100 C   0  0  0  0  0  0  0  0  0  0  0  0
   -1.6190   59.0450   74.3610 C   0  0  0  0  0  0  0  0  0  0  0  0
   -0.5240   58.5990   75.3250 C   0  0  0  0  0  0  0  0  0  0  0  0
    0.8420   58.5610   74.6470 C   0  0  0  0  0  0  0  0  0  0  0  0
    1.1880   59.9000   73.9980 C   0  0  0  0  0  0  0  0  0  0  0  0
    0.1330   68.3100   66.6610 C   0  0  0  0  0  0  0  0  0  0  0  0
    2.1260   68.6340   65.3880 O   0  0  0  0  0  0  0  0  0  0  0  0
    1.5580   68.7900   66.4620 C   0  0  0  0  0  0  0  0  0  0  0  0
    2.0750   69.3790   67.6000 N   0  0  0  0  0  0  0  0  0  0  0  0
    3.3600   69.9410   67.7620 C   0  0  0  0  0  0  0  0  0  0  0  0
    4.4150   69.7600   66.8670 C   0  0  0  0  0  0  0  0  0  0  0  0
    5.6640   70.3560   67.0970 C   0  0  0  0  0  0  0  0  0  0  0  0
    5.8730   71.1440   68.2270 C   0  0  0  0  0  0  0  0  0  0  0  0
    4.8190   71.3270   69.1230 C   0  0  0  0  0  0  0  0  0  0  0  0
    3.5730   70.7330   68.8940 C   0  0  0  0  0  0  0  0  0  0  0  0
    7.0290   71.7800   68.5760 O   0  0  0  0  0  0  0  0  0  0  0  0
    7.8830   71.1380   69.5070 C   0  0  0  0  0  0  0  0  0  0  0  0
    7.1680   70.8270   70.6100 F   0  0  0  0  0  0  0  0  0  0  0  0
    8.3870   69.9940   68.9970 F   0  0  0  0  0  0  0  0  0  0  0  0
    8.8960   71.9500   69.8780 F   0  0  0  0  0  0  0  0  0  0  0  0
   -0.5863   68.8335   68.5455 H   0  0  0  0  0  0  0  0  0  0  0  0
    2.4157   65.6104   70.6408 H   0  0  0  0  0  0  0  0  0  0  0  0
   -0.9599   64.8651   69.3306 H   0  0  0  0  0  0  0  0  0  0  0  0
   -0.2054   65.0373   72.5759 H   0  0  0  0  0  0  0  0  0  0  0  0
   -0.8037   62.8856   73.6667 H   0  0  0  0  0  0  0  0  0  0  0  0
    1.7756   60.7770   70.9228 H   0  0  0  0  0  0  0  0  0  0  0  0
    2.3828   62.9299   69.8429 H   0  0  0  0  0  0  0  0  0  0  0  0
    0.0334   59.6020   72.2125 H   0  0  0  0  0  0  0  0  0  0  0  0
   -1.2740   61.1677   74.4848 H   0  0  0  0  0  0  0  0  0  0  0  0
   -2.0498   60.6026   72.9494 H   0  0  0  0  0  0  0  0  0  0  0  0
   -2.5641   59.1428   74.9153 H   0  0  0  0  0  0  0  0  0  0  0  0
   -1.7053   58.2896   73.5660 H   0  0  0  0  0  0  0  0  0  0  0  0
   -0.4837   59.3029   76.1693 H   0  0  0  0  0  0  0  0  0  0  0  0
   -0.7640   57.5828   75.6709 H   0  0  0  0  0  0  0  0  0  0  0  0
    1.6072   58.3215   75.4000 H   0  0  0  0  0  0  0  0  0  0  0  0
    0.8121   57.7951   73.8581 H   0  0  0  0  0  0  0  0  0  0  0  0
    1.2991   60.6610   74.7845 H   0  0  0  0  0  0  0  0  0  0  0  0
    2.1259   59.7805   73.4358 H   0  0  0  0  0  0  0  0  0  0  0  0
   -0.0411   67.4285   66.0265 H   0  0  0  0  0  0  0  0  0  0  0  0
   -0.5521   69.1256   66.3861 H   0  0  0  0  0  0  0  0  0  0  0  0
    1.4541   69.4117   68.4212 H   0  0  0  0  0  0  0  0  0  0  0  0
    4.2655   69.1420   65.9694 H   0  0  0  0  0  0  0  0  0  0  0  0
    6.4839   70.2002   66.3804 H   0  0  0  0  0  0  0  0  0  0  0  0
    4.9695   71.9456   70.0200 H   0  0  0  0  0  0  0  0  0  0  0  0
    2.7539   70.8906   69.6111 H   0  0  0  0  0  0  0  0  0  0  0  0
  2  1  1  0
  3  2  1  0
  4  3  2  0
  5  3  1  0
  6  5  1  0
  6  1  1  0
  7  6  2  0
  8  4  1  0
  9  8  2  0
 10  9  1  0
 11 10  2  0
 12 11  1  0
 13 12  2  0
 13  8  1  0
 14 11  1  0
 15 14  1  0
 16 15  1  0
 17 16  1  0
 18 17  1  0
 19 18  1  0
 19 14  1  0
 20  1  1  0
 22 21  2  0
 22 20  1  0
 23 22  1  0
 24 23  1  0
 25 24  2  0
 26 25  1  0
 27 26  2  0
 28 27  1  0
 29 28  2  0
 29 24  1  0
 30 27  1  0
 31 30  1  0
 32 31  1  0
 33 31  1  0
 34 31  1  0
  1 35  1  1
  4 36  1  0
  5 37  1  0
  9 38  1  0
 10 39  1  0
 12 40  1  0
 13 41  1  0
 14 42  1  0
 15 43  1  0
 15 44  1  0
 16 45  1  0
 16 46  1  0
 17 47  1  0
 17 48  1  0
 18 49  1  0
 18 50  1  0
 19 51  1  0
 19 52  1  0
 20 53  1  0
 20 54  1  0
 23 55  1  0
 25 56  1  0
 26 57  1  0
 28 58  1  0
 29 59  1  0
M  CHG  1   4   1
M  END
>  <score>  (3) 
-9.629

$$$$
=
     RDKit          3D

 59 62  0  0  0  0  0  0  0  0999 V2000
    1.1710   66.0480   70.2720 C   0  0  2  0  0  0  0  0  0  0  0  0
    2.1330   64.6780   69.4760 S   0  0  0  0  0  0  0  0  0  0  0  0
    1.5980   63.4990   70.6370 C   0  0  0  0  0  0  0  0  0  0  0  0
    2.1130   62.2910   70.5520 N   0  0  0  0  0  4  0  0  0  0  0  0
    0.6790   63.9700   71.4500 N   0  0  0  0  0  0  0  0  0  0  0  0
    0.3260   65.3360   71.3030 C   0  0  0  0  0  0  0  0  0  0  0  0
   -0.5710   65.7740   71.9920 O   0  0  0  0  0  0  0  0  0  0  0  0
    1.8950   61.2490   71.4010 C   0  0  0  0  0  0  0  0  0  0  0  0
    0.8500   61.2010   72.3290 C   0  0  0  0  0  0  0  0  0  0  0  0
    0.6950   60.1000   73.1800 C   0  0  0  0  0  0  0  0  0  0  0  0
    1.5920   59.0270   73.1350 C   0  0  0  0  0  0  0  0  0  0  0  0
    2.6610   59.0930   72.2350 C   0  0  0  0  0  0  0  0  0  0  0  0
    2.8150   60.1950   71.3880 C   0  0  0  0  0  0  0  0  0  0  0  0
    1.4480   57.8210   74.0520 C   0  0  0  0  0  0  0  0  0  0  0  0
    2.6210   57.7090   75.0430 C   0  0  0  0  0  0  0  0  0  0  0  0
    2.4600   56.4990   75.9620 C   0  0  0  0  0  0  0  0  0  0  0  0
    2.2800   55.2090   75.1670 C   0  0  0  0  0  0  0  0  0  0  0  0
    1.1210   55.3120   74.1800 C   0  0  0  0  0  0  0  0  0  0  0  0
    1.2750   56.5170   73.2530 C   0  0  0  0  0  0  0  0  0  0  0  0
    0.3080   66.8220   69.2820 C   0  0  0  0  0  0  0  0  0  0  0  0
    1.9060   68.4470   68.5710 O   0  0  0  0  0  0  0  0  0  0  0  0
    1.1630   67.5280   68.2470 C   0  0  0  0  0  0  0  0  0  0  0  0
    0.9790   67.0130   66.9780 N   0  0  0  0  0  0  0  0  0  0  0  0
    1.6190   67.4250   65.7890 C   0  0  0  0  0  0  0  0  0  0  0  0
    1.2550   68.5490   65.0490 C   0  0  0  0  0  0  0  0  0  0  0  0
    1.9440   68.8940   63.8760 C   0  0  0  0  0  0  0  0  0  0  0  0
    3.0100   68.1160   63.4290 C   0  0  0  0  0  0  0  0  0  0  0  0
    3.3770   66.9910   64.1690 C   0  0  0  0  0  0  0  0  0  0  0  0
    2.6900   66.6460   65.3380 C   0  0  0  0  0  0  0  0  0  0  0  0
    3.7650   68.3310   62.3130 O   0  0  0  0  0  0  0  0  0  0  0  0
    4.9880   69.0330   62.4660 C   0  0  0  0  0  0  0  0  0  0  0  0
    4.9110   69.8010   63.5750 F   0  0  0  0  0  0  0  0  0  0  0  0
    6.0220   68.1800   62.6160 F   0  0  0  0  0  0  0  0  0  0  0  0
    5.2190   69.8420   61.4100 F   0  0  0  0  0  0  0  0  0  0  0  0
    1.8318   66.8137   70.7043 H   0  0  0  0  0  0  0  0  0  0  0  0
    2.7477   62.1152   69.7600 H   0  0  0  0  0  0  0  0  0  0  0  0
    0.2347   63.3735   72.1625 H   0  0  0  0  0  0  0  0  0  0  0  0
    0.1404   62.0392   72.3912 H   0  0  0  0  0  0  0  0  0  0  0  0
   -0.1424   60.0783   73.8929 H   0  0  0  0  0  0  0  0  0  0  0  0
    3.3884   58.2689   72.1931 H   0  0  0  0  0  0  0  0  0  0  0  0
    3.6730   60.2338   70.7007 H   0  0  0  0  0  0  0  0  0  0  0  0
    0.5320   57.9780   74.6405 H   0  0  0  0  0  0  0  0  0  0  0  0
    3.5589   57.6067   74.4775 H   0  0  0  0  0  0  0  0  0  0  0  0
    2.6373   58.6164   75.6646 H   0  0  0  0  0  0  0  0  0  0  0  0
    3.3570   56.4076   76.5921 H   0  0  0  0  0  0  0  0  0  0  0  0
    1.5611   56.6519   76.5773 H   0  0  0  0  0  0  0  0  0  0  0  0
    3.2055   55.0015   74.6098 H   0  0  0  0  0  0  0  0  0  0  0  0
    2.0563   54.3978   75.8754 H   0  0  0  0  0  0  0  0  0  0  0  0
    1.0879   54.3960   73.5718 H   0  0  0  0  0  0  0  0  0  0  0  0
    0.1911   55.4370   74.7541 H   0  0  0  0  0  0  0  0  0  0  0  0
    2.1590   56.3677   72.6157 H   0  0  0  0  0  0  0  0  0  0  0  0
    0.3640   56.6031   72.6425 H   0  0  0  0  0  0  0  0  0  0  0  0
   -0.3689   66.1213   68.7712 H   0  0  0  0  0  0  0  0  0  0  0  0
   -0.2656   67.5793   69.8365 H   0  0  0  0  0  0  0  0  0  0  0  0
    0.2999   66.2436   66.8898 H   0  0  0  0  0  0  0  0  0  0  0  0
    0.4162   69.1741   65.3892 H   0  0  0  0  0  0  0  0  0  0  0  0
    1.6405   69.7844   63.3058 H   0  0  0  0  0  0  0  0  0  0  0  0
    4.2171   66.3676   63.8288 H   0  0  0  0  0  0  0  0  0  0  0  0
    2.9944   65.7552   65.9070 H   0  0  0  0  0  0  0  0  0  0  0  0
  2  1  1  0
  3  2  1  0
  4  3  2  0
  5  3  1  0
  6  5  1  0
  6  1  1  0
  7  6  2  0
  8  4  1  0
  9  8  2  0
 10  9  1  0
 11 10  2  0
 12 11  1  0
 13 12  2  0
 13  8  1  0
 14 11  1  0
 15 14  1  0
 16 15  1  0
 17 16  1  0
 18 17  1  0
 19 18  1  0
 19 14  1  0
 20  1  1  0
 22 21  2  0
 22 20  1  0
 23 22  1  0
 24 23  1  0
 25 24  2  0
 26 25  1  0
 27 26  2  0
 28 27  1  0
 29 28  2  0
 29 24  1  0
 30 27  1  0
 31 30  1  0
 32 31  1  0
 33 31  1  0
 34 31  1  0
  1 35  1  1
  4 36  1  0
  5 37  1  0
  9 38  1  0
 10 39  1  0
 12 40  1  0
 13 41  1  0
 14 42  1  0
 15 43  1  0
 15 44  1  0
 16 45  1  0
 16 46  1  0
 17 47  1  0
 17 48  1  0
 18 49  1  0
 18 50  1  0
 19 51  1  0
 19 52  1  0
 20 53  1  0
 20 54  1  0
 23 55  1  0
 25 56  1  0
 26 57  1  0
 28 58  1  0
 29 59  1  0
M  CHG  1   4   1
M  END
>  <score>  (4) 
-9.339

$$$$
=
     RDKit          3D

 59 62  0  0  0  0  0  0  0  0999 V2000
   -0.7530   68.9570   67.5090 C   0  0  2  0  0  0  0  0  0  0  0  0
    0.8660   68.8020   68.3970 S   0  0  0  0  0  0  0  0  0  0  0  0
    0.6120   67.1230   68.7680 C   0  0  0  0  0  0  0  0  0  0  0  0
    1.5100   66.5280   69.5240 N   0  0  0  0  0  4  0  0  0  0  0  0
   -0.4590   66.6320   68.1840 N   0  0  0  0  0  0  0  0  0  0  0  0
   -1.2490   67.5310   67.4230 C   0  0  0  0  0  0  0  0  0  0  0  0
   -2.2000   67.0870   66.8160 O   0  0  0  0  0  0  0  0  0  0  0  0
    1.4640   65.2520   69.9960 C   0  0  0  0  0  0  0  0  0  0  0  0
    0.3500   64.6910   70.6280 C   0  0  0  0  0  0  0  0  0  0  0  0
    0.3800   63.3720   71.1000 C   0  0  0  0  0  0  0  0  0  0  0  0
    1.5330   62.5890   70.9660 C   0  0  0  0  0  0  0  0  0  0  0  0
    2.6600   63.1630   70.3690 C   0  0  0  0  0  0  0  0  0  0  0  0
    2.6280   64.4810   69.9010 C   0  0  0  0  0  0  0  0  0  0  0  0
    1.5930   61.1560   71.4730 C   0  0  0  0  0  0  0  0  0  0  0  0
    1.0940   61.0390   72.9250 C   0  0  0  0  0  0  0  0  0  0  0  0
    1.1520   59.5950   73.4200 C   0  0  0  0  0  0  0  0  0  0  0  0
    2.5490   59.0020   73.2640 C   0  0  0  0  0  0  0  0  0  0  0  0
    3.0530   59.1160   71.8280 C   0  0  0  0  0  0  0  0  0  0  0  0
    3.0030   60.5580   71.3260 C   0  0  0  0  0  0  0  0  0  0  0  0
   -0.6170   69.5830   66.1270 C   0  0  0  0  0  0  0  0  0  0  0  0
   -0.4730   68.2250   64.1690 O   0  0  0  0  0  0  0  0  0  0  0  0
    0.0950   68.6460   65.1700 C   0  0  0  0  0  0  0  0  0  0  0  0
    1.3830   68.3590   65.5800 N   0  0  0  0  0  0  0  0  0  0  0  0
    2.3240   67.5350   64.9250 C   0  0  0  0  0  0  0  0  0  0  0  0
    3.4520   68.0100   64.2550 C   0  0  0  0  0  0  0  0  0  0  0  0
    4.3430   67.1250   63.6290 C   0  0  0  0  0  0  0  0  0  0  0  0
    4.1160   65.7510   63.6670 C   0  0  0  0  0  0  0  0  0  0  0  0
    2.9890   65.2730   64.3370 C   0  0  0  0  0  0  0  0  0  0  0  0
    2.1000   66.1550   64.9610 C   0  0  0  0  0  0  0  0  0  0  0  0
    4.8940   64.7800   63.1050 O   0  0  0  0  0  0  0  0  0  0  0  0
    5.0790   63.5770   63.8320 C   0  0  0  0  0  0  0  0  0  0  0  0
    5.1800   63.8760   65.1460 F   0  0  0  0  0  0  0  0  0  0  0  0
    4.0300   62.7440   63.6690 F   0  0  0  0  0  0  0  0  0  0  0  0
    6.2150   62.9520   63.4550 F   0  0  0  0  0  0  0  0  0  0  0  0
   -1.4455   69.6284   68.0378 H   0  0  0  0  0  0  0  0  0  0  0  0
    2.3346   67.0867   69.7862 H   0  0  0  0  0  0  0  0  0  0  0  0
   -0.7130   65.6380   68.2752 H   0  0  0  0  0  0  0  0  0  0  0  0
   -0.5617   65.2929   70.7563 H   0  0  0  0  0  0  0  0  0  0  0  0
   -0.5129   62.9466   71.5815 H   0  0  0  0  0  0  0  0  0  0  0  0
    3.5818   62.5716   70.2663 H   0  0  0  0  0  0  0  0  0  0  0  0
    3.5318   64.9180   69.4514 H   0  0  0  0  0  0  0  0  0  0  0  0
    0.9121   60.5682   70.8399 H   0  0  0  0  0  0  0  0  0  0  0  0
    1.7262   61.6648   73.5721 H   0  0  0  0  0  0  0  0  0  0  0  0
    0.0471   61.3748   72.9592 H   0  0  0  0  0  0  0  0  0  0  0  0
    0.8709   59.5708   74.4832 H   0  0  0  0  0  0  0  0  0  0  0  0
    0.4552   58.9963   72.8150 H   0  0  0  0  0  0  0  0  0  0  0  0
    3.2410   59.5401   73.9285 H   0  0  0  0  0  0  0  0  0  0  0  0
    2.5001   57.9350   73.5268 H   0  0  0  0  0  0  0  0  0  0  0  0
    4.0927   58.7593   71.7854 H   0  0  0  0  0  0  0  0  0  0  0  0
    2.4011   58.5058   71.1856 H   0  0  0  0  0  0  0  0  0  0  0  0
    3.7114   61.1646   71.9092 H   0  0  0  0  0  0  0  0  0  0  0  0
    3.2709   60.5622   70.2591 H   0  0  0  0  0  0  0  0  0  0  0  0
   -1.6198   69.8048   65.7330 H   0  0  0  0  0  0  0  0  0  0  0  0
   -0.0244   70.5052   66.2183 H   0  0  0  0  0  0  0  0  0  0  0  0
    1.6907   68.7945   66.4612 H   0  0  0  0  0  0  0  0  0  0  0  0
    3.6453   69.0922   64.2170 H   0  0  0  0  0  0  0  0  0  0  0  0
    5.2264   67.5186   63.1049 H   0  0  0  0  0  0  0  0  0  0  0  0
    2.7974   64.1905   64.3750 H   0  0  0  0  0  0  0  0  0  0  0  0
    1.2171   65.7595   65.4845 H   0  0  0  0  0  0  0  0  0  0  0  0
  2  1  1  0
  3  2  1  0
  4  3  2  0
  5  3  1  0
  6  5  1  0
  6  1  1  0
  7  6  2  0
  8  4  1  0
  9  8  2  0
 10  9  1  0
 11 10  2  0
 12 11  1  0
 13 12  2  0
 13  8  1  0
 14 11  1  0
 15 14  1  0
 16 15  1  0
 17 16  1  0
 18 17  1  0
 19 18  1  0
 19 14  1  0
 20  1  1  0
 22 21  2  0
 22 20  1  0
 23 22  1  0
 24 23  1  0
 25 24  2  0
 26 25  1  0
 27 26  2  0
 28 27  1  0
 29 28  2  0
 29 24  1  0
 30 27  1  0
 31 30  1  0
 32 31  1  0
 33 31  1  0
 34 31  1  0
  1 35  1  1
  4 36  1  0
  5 37  1  0
  9 38  1  0
 10 39  1  0
 12 40  1  0
 13 41  1  0
 14 42  1  0
 15 43  1  0
 15 44  1  0
 16 45  1  0
 16 46  1  0
 17 47  1  0
 17 48  1  0
 18 49  1  0
 18 50  1  0
 19 51  1  0
 19 52  1  0
 20 53  1  0
 20 54  1  0
 23 55  1  0
 25 56  1  0
 26 57  1  0
 28 58  1  0
 29 59  1  0
M  CHG  1   4   1
M  END
>  <score>  (5) 
-9.287

$$$$
=
     RDKit          3D

 59 62  0  0  0  0  0  0  0  0999 V2000
   -0.4360   68.4980   67.1780 C   0  0  2  0  0  0  0  0  0  0  0  0
    1.1790   68.2930   68.0630 S   0  0  0  0  0  0  0  0  0  0  0  0
    0.6780   66.8180   68.8360 C   0  0  0  0  0  0  0  0  0  0  0  0
    1.5050   66.2820   69.7070 N   0  0  0  0  0  4  0  0  0  0  0  0
   -0.4840   66.3870   68.3980 N   0  0  0  0  0  0  0  0  0  0  0  0
   -1.1560   67.1960   67.4460 C   0  0  0  0  0  0  0  0  0  0  0  0
   -2.1940   66.7840   66.9740 O   0  0  0  0  0  0  0  0  0  0  0  0
    1.2800   65.1810   70.4770 C   0  0  0  0  0  0  0  0  0  0  0  0
    1.9390   63.9600   70.3070 C   0  0  0  0  0  0  0  0  0  0  0  0
    1.6460   62.8650   71.1300 C   0  0  0  0  0  0  0  0  0  0  0  0
    0.6730   62.9620   72.1320 C   0  0  0  0  0  0  0  0  0  0  0  0
   -0.0150   64.1710   72.2760 C   0  0  0  0  0  0  0  0  0  0  0  0
    0.2780   65.2620   71.4500 C   0  0  0  0  0  0  0  0  0  0  0  0
    0.3330   61.7860   73.0370 C   0  0  0  0  0  0  0  0  0  0  0  0
    1.1170   60.5190   72.6510 C   0  0  0  0  0  0  0  0  0  0  0  0
    0.7720   59.3480   73.5710 C   0  0  0  0  0  0  0  0  0  0  0  0
   -0.7300   59.0830   73.6050 C   0  0  0  0  0  0  0  0  0  0  0  0
   -1.5150   60.3360   73.9850 C   0  0  0  0  0  0  0  0  0  0  0  0
   -1.1810   61.5100   73.0670 C   0  0  0  0  0  0  0  0  0  0  0  0
   -0.2680   68.7430   65.6830 C   0  0  0  0  0  0  0  0  0  0  0  0
    1.9760   69.0820   64.9440 O   0  0  0  0  0  0  0  0  0  0  0  0
    1.0920   68.2740   65.2020 C   0  0  0  0  0  0  0  0  0  0  0  0
    1.1650   66.8980   65.1010 N   0  0  0  0  0  0  0  0  0  0  0  0
    2.2790   66.1300   64.6980 C   0  0  0  0  0  0  0  0  0  0  0  0
    2.6100   64.8850   65.2330 C   0  0  0  0  0  0  0  0  0  0  0  0
    3.7350   64.1810   64.7760 C   0  0  0  0  0  0  0  0  0  0  0  0
    4.5440   64.7160   63.7750 C   0  0  0  0  0  0  0  0  0  0  0  0
    4.2140   65.9610   63.2380 C   0  0  0  0  0  0  0  0  0  0  0  0
    3.0930   66.6630   63.6930 C   0  0  0  0  0  0  0  0  0  0  0  0
    5.6610   64.1450   63.2390 O   0  0  0  0  0  0  0  0  0  0  0  0
    5.7100   62.7300   63.1610 C   0  0  0  0  0  0  0  0  0  0  0  0
    5.4940   62.2210   64.3930 F   0  0  0  0  0  0  0  0  0  0  0  0
    4.7540   62.2560   62.3350 F   0  0  0  0  0  0  0  0  0  0  0  0
    6.9210   62.3090   62.7370 F   0  0  0  0  0  0  0  0  0  0  0  0
   -0.9867   69.3816   67.5330 H   0  0  0  0  0  0  0  0  0  0  0  0
    2.4191   66.7433   69.8187 H   0  0  0  0  0  0  0  0  0  0  0  0
   -0.8889   65.5006   68.7315 H   0  0  0  0  0  0  0  0  0  0  0  0
    2.6974   63.8577   69.5168 H   0  0  0  0  0  0  0  0  0  0  0  0
    2.1867   61.9178   70.9873 H   0  0  0  0  0  0  0  0  0  0  0  0
   -0.7945   64.2654   73.0464 H   0  0  0  0  0  0  0  0  0  0  0  0
   -0.2883   66.1977   71.5676 H   0  0  0  0  0  0  0  0  0  0  0  0
    0.6420   62.0693   74.0540 H   0  0  0  0  0  0  0  0  0  0  0  0
    0.8679   60.2457   71.6150 H   0  0  0  0  0  0  0  0  0  0  0  0
    2.1914   60.7328   72.7506 H   0  0  0  0  0  0  0  0  0  0  0  0
    1.2854   58.4455   73.2077 H   0  0  0  0  0  0  0  0  0  0  0  0
    1.0991   59.6034   74.5897 H   0  0  0  0  0  0  0  0  0  0  0  0
   -1.0554   58.7465   72.6096 H   0  0  0  0  0  0  0  0  0  0  0  0
   -0.9255   58.3119   74.3647 H   0  0  0  0  0  0  0  0  0  0  0  0
   -2.5909   60.1194   73.9101 H   0  0  0  0  0  0  0  0  0  0  0  0
   -1.2405   60.6148   75.0131 H   0  0  0  0  0  0  0  0  0  0  0  0
   -1.5224   61.2759   72.0479 H   0  0  0  0  0  0  0  0  0  0  0  0
   -1.6889   62.4064   73.4524 H   0  0  0  0  0  0  0  0  0  0  0  0
   -1.0505   68.1938   65.1388 H   0  0  0  0  0  0  0  0  0  0  0  0
   -0.3516   69.8235   65.4946 H   0  0  0  0  0  0  0  0  0  0  0  0
    0.3126   66.3747   65.3469 H   0  0  0  0  0  0  0  0  0  0  0  0
    1.9811   64.4493   66.0234 H   0  0  0  0  0  0  0  0  0  0  0  0
    3.9798   63.2006   65.2107 H   0  0  0  0  0  0  0  0  0  0  0  0
    4.8431   66.3956   62.4472 H   0  0  0  0  0  0  0  0  0  0  0  0
    2.8494   67.6429   63.2566 H   0  0  0  0  0  0  0  0  0  0  0  0
  2  1  1  0
  3  2  1  0
  4  3  2  0
  5  3  1  0
  6  5  1  0
  6  1  1  0
  7  6  2  0
  8  4  1  0
  9  8  2  0
 10  9  1  0
 11 10  2  0
 12 11  1  0
 13 12  2  0
 13  8  1  0
 14 11  1  0
 15 14  1  0
 16 15  1  0
 17 16  1  0
 18 17  1  0
 19 18  1  0
 19 14  1  0
 20  1  1  0
 22 21  2  0
 22 20  1  0
 23 22  1  0
 24 23  1  0
 25 24  2  0
 26 25  1  0
 27 26  2  0
 28 27  1  0
 29 28  2  0
 29 24  1  0
 30 27  1  0
 31 30  1  0
 32 31  1  0
 33 31  1  0
 34 31  1  0
  1 35  1  1
  4 36  1  0
  5 37  1  0
  9 38  1  0
 10 39  1  0
 12 40  1  0
 13 41  1  0
 14 42  1  0
 15 43  1  0
 15 44  1  0
 16 45  1  0
 16 46  1  0
 17 47  1  0
 17 48  1  0
 18 49  1  0
 18 50  1  0
 19 51  1  0
 19 52  1  0
 20 53  1  0
 20 54  1  0
 23 55  1  0
 25 56  1  0
 26 57  1  0
 28 58  1  0
 29 59  1  0
M  CHG  1   4   1
M  END
>  <score>  (6) 
-9.232

$$$$
=
     RDKit          3D

 59 62  0  0  0  0  0  0  0  0999 V2000
    1.4820   63.0540   72.1130 C   0  0  2  0  0  0  0  0  0  0  0  0
    0.3480   64.5100   72.2850 S   0  0  0  0  0  0  0  0  0  0  0  0
    0.5930   65.0160   70.6400 C   0  0  0  0  0  0  0  0  0  0  0  0
    0.0290   66.1440   70.2650 N   0  0  0  0  0  4  0  0  0  0  0  0
    1.2950   64.1510   69.9430 N   0  0  0  0  0  0  0  0  0  0  0  0
    1.7840   63.0120   70.6330 C   0  0  0  0  0  0  0  0  0  0  0  0
    2.3720   62.1640   69.9960 O   0  0  0  0  0  0  0  0  0  0  0  0
    0.1560   66.7590   69.0570 C   0  0  0  0  0  0  0  0  0  0  0  0
   -0.8450   66.7790   68.0800 C   0  0  0  0  0  0  0  0  0  0  0  0
   -0.6390   67.4210   66.8530 C   0  0  0  0  0  0  0  0  0  0  0  0
    0.5810   68.0440   66.5660 C   0  0  0  0  0  0  0  0  0  0  0  0
    1.5960   67.9900   67.5270 C   0  0  0  0  0  0  0  0  0  0  0  0
    1.3890   67.3450   68.7510 C   0  0  0  0  0  0  0  0  0  0  0  0
    0.8320   68.7450   65.2390 C   0  0  0  0  0  0  0  0  0  0  0  0
   -0.3970   68.6820   64.3140 C   0  0  0  0  0  0  0  0  0  0  0  0
   -0.1340   69.3950   62.9890 C   0  0  0  0  0  0  0  0  0  0  0  0
    1.1110   68.8520   62.2940 C   0  0  0  0  0  0  0  0  0  0  0  0
    2.3340   68.9090   63.2050 C   0  0  0  0  0  0  0  0  0  0  0  0
    2.0830   68.1940   64.5320 C   0  0  0  0  0  0  0  0  0  0  0  0
    0.8540   61.7510   72.5910 C   0  0  0  0  0  0  0  0  0  0  0  0
    1.8400   62.0100   74.7490 O   0  0  0  0  0  0  0  0  0  0  0  0
    1.5390   61.2410   73.8440 C   0  0  0  0  0  0  0  0  0  0  0  0
    1.7610   59.8770   73.8010 N   0  0  0  0  0  0  0  0  0  0  0  0
    2.3630   59.0790   74.7970 C   0  0  0  0  0  0  0  0  0  0  0  0
    3.7160   58.7390   74.8210 C   0  0  0  0  0  0  0  0  0  0  0  0
    4.2400   57.9410   75.8490 C   0  0  0  0  0  0  0  0  0  0  0  0
    3.4160   57.4730   76.8690 C   0  0  0  0  0  0  0  0  0  0  0  0
    2.0620   57.8120   76.8490 C   0  0  0  0  0  0  0  0  0  0  0  0
    1.5380   58.6080   75.8240 C   0  0  0  0  0  0  0  0  0  0  0  0
    3.7870   56.6930   77.9260 O   0  0  0  0  0  0  0  0  0  0  0  0
    4.5440   57.2980   78.9610 C   0  0  0  0  0  0  0  0  0  0  0  0
    4.4410   58.6400   78.8460 F   0  0  0  0  0  0  0  0  0  0  0  0
    4.0770   56.9420   80.1760 F   0  0  0  0  0  0  0  0  0  0  0  0
    5.8500   56.9660   78.8660 F   0  0  0  0  0  0  0  0  0  0  0  0
    2.3810   63.1605   72.7379 H   0  0  0  0  0  0  0  0  0  0  0  0
   -0.5722   66.6112   70.9587 H   0  0  0  0  0  0  0  0  0  0  0  0
    1.4819   64.2936   68.9402 H   0  0  0  0  0  0  0  0  0  0  0  0
   -1.8069   66.2837   68.2785 H   0  0  0  0  0  0  0  0  0  0  0  0
   -1.4458   67.4360   66.1054 H   0  0  0  0  0  0  0  0  0  0  0  0
    2.5682   68.4602   67.3179 H   0  0  0  0  0  0  0  0  0  0  0  0
    2.2080   67.2979   69.4838 H   0  0  0  0  0  0  0  0  0  0  0  0
    1.0173   69.8042   65.4708 H   0  0  0  0  0  0  0  0  0  0  0  0
   -0.6390   67.6282   64.1116 H   0  0  0  0  0  0  0  0  0  0  0  0
   -1.2356   69.1851   64.8175 H   0  0  0  0  0  0  0  0  0  0  0  0
   -1.0020   69.2519   62.3286 H   0  0  0  0  0  0  0  0  0  0  0  0
    0.0288   70.4622   63.2000 H   0  0  0  0  0  0  0  0  0  0  0  0
    0.9304   67.8064   62.0042 H   0  0  0  0  0  0  0  0  0  0  0  0
    1.3112   69.4761   61.4106 H   0  0  0  0  0  0  0  0  0  0  0  0
    3.1813   68.4273   62.6951 H   0  0  0  0  0  0  0  0  0  0  0  0
    2.5528   69.9653   63.4202 H   0  0  0  0  0  0  0  0  0  0  0  0
    1.9412   67.1204   64.3388 H   0  0  0  0  0  0  0  0  0  0  0  0
    2.9519   68.3617   65.1853 H   0  0  0  0  0  0  0  0  0  0  0  0
   -0.2103   61.9240   72.8087 H   0  0  0  0  0  0  0  0  0  0  0  0
    0.9695   60.9968   71.7987 H   0  0  0  0  0  0  0  0  0  0  0  0
    1.4529   59.3894   72.9476 H   0  0  0  0  0  0  0  0  0  0  0  0
    4.3808   59.1015   74.0231 H   0  0  0  0  0  0  0  0  0  0  0  0
    5.3094   57.6833   75.8492 H   0  0  0  0  0  0  0  0  0  0  0  0
    1.3990   57.4492   77.6483 H   0  0  0  0  0  0  0  0  0  0  0  0
    0.4685   58.8654   75.8259 H   0  0  0  0  0  0  0  0  0  0  0  0
  2  1  1  0
  3  2  1  0
  4  3  2  0
  5  3  1  0
  6  5  1  0
  6  1  1  0
  7  6  2  0
  8  4  1  0
  9  8  2  0
 10  9  1  0
 11 10  2  0
 12 11  1  0
 13 12  2  0
 13  8  1  0
 14 11  1  0
 15 14  1  0
 16 15  1  0
 17 16  1  0
 18 17  1  0
 19 18  1  0
 19 14  1  0
 20  1  1  0
 22 21  2  0
 22 20  1  0
 23 22  1  0
 24 23  1  0
 25 24  2  0
 26 25  1  0
 27 26  2  0
 28 27  1  0
 29 28  2  0
 29 24  1  0
 30 27  1  0
 31 30  1  0
 32 31  1  0
 33 31  1  0
 34 31  1  0
  1 35  1  1
  4 36  1  0
  5 37  1  0
  9 38  1  0
 10 39  1  0
 12 40  1  0
 13 41  1  0
 14 42  1  0
 15 43  1  0
 15 44  1  0
 16 45  1  0
 16 46  1  0
 17 47  1  0
 17 48  1  0
 18 49  1  0
 18 50  1  0
 19 51  1  0
 19 52  1  0
 20 53  1  0
 20 54  1  0
 23 55  1  0
 25 56  1  0
 26 57  1  0
 28 58  1  0
 29 59  1  0
M  CHG  1   4   1
M  END
>  <score>  (7) 
-8.877

$$$$
=
     RDKit          3D

 59 62  0  0  0  0  0  0  0  0999 V2000
    1.9670   63.3290   72.0920 C   0  0  2  0  0  0  0  0  0  0  0  0
    0.4040   64.3240   72.0630 S   0  0  0  0  0  0  0  0  0  0  0  0
    0.7370   64.9770   70.4860 C   0  0  0  0  0  0  0  0  0  0  0  0
   -0.0980   65.8800   70.0190 N   0  0  0  0  0  4  0  0  0  0  0  0
    1.7900   64.4290   69.9240 N   0  0  0  0  0  0  0  0  0  0  0  0
    2.5070   63.4730   70.6880 C   0  0  0  0  0  0  0  0  0  0  0  0
    3.4390   62.9010   70.1640 O   0  0  0  0  0  0  0  0  0  0  0  0
    0.0170   66.5720   68.8510 C   0  0  0  0  0  0  0  0  0  0  0  0
   -1.0130   66.7010   67.9140 C   0  0  0  0  0  0  0  0  0  0  0  0
   -0.8180   67.4180   66.7270 C   0  0  0  0  0  0  0  0  0  0  0  0
    0.4180   68.0090   66.4410 C   0  0  0  0  0  0  0  0  0  0  0  0
    1.4600   67.8460   67.3600 C   0  0  0  0  0  0  0  0  0  0  0  0
    1.2640   67.1270   68.5430 C   0  0  0  0  0  0  0  0  0  0  0  0
    0.6570   68.7900   65.1580 C   0  0  0  0  0  0  0  0  0  0  0  0
   -0.5600   68.7360   64.2170 C   0  0  0  0  0  0  0  0  0  0  0  0
   -0.3100   69.5290   62.9350 C   0  0  0  0  0  0  0  0  0  0  0  0
    0.9600   69.0680   62.2260 C   0  0  0  0  0  0  0  0  0  0  0  0
    2.1710   69.1170   63.1520 C   0  0  0  0  0  0  0  0  0  0  0  0
    1.9330   68.3220   64.4350 C   0  0  0  0  0  0  0  0  0  0  0  0
    1.7350   61.8660   72.4520 C   0  0  0  0  0  0  0  0  0  0  0  0
    0.5110   62.4540   74.4150 O   0  0  0  0  0  0  0  0  0  0  0  0
    0.5910   61.7210   73.4370 C   0  0  0  0  0  0  0  0  0  0  0  0
   -0.2760   60.7030   73.0860 N   0  0  0  0  0  0  0  0  0  0  0  0
   -1.4450   60.3040   73.7680 C   0  0  0  0  0  0  0  0  0  0  0  0
   -1.5810   59.0970   74.4530 C   0  0  0  0  0  0  0  0  0  0  0  0
   -2.7780   58.7730   75.1100 C   0  0  0  0  0  0  0  0  0  0  0  0
   -3.8560   59.6560   75.0910 C   0  0  0  0  0  0  0  0  0  0  0  0
   -3.7210   60.8650   74.4070 C   0  0  0  0  0  0  0  0  0  0  0  0
   -2.5280   61.1880   73.7510 C   0  0  0  0  0  0  0  0  0  0  0  0
   -5.0720   59.4720   75.6820 O   0  0  0  0  0  0  0  0  0  0  0  0
   -6.1130   58.9170   74.8960 C   0  0  0  0  0  0  0  0  0  0  0  0
   -7.2740   59.0190   75.5800 F   0  0  0  0  0  0  0  0  0  0  0  0
   -6.2500   59.5830   73.7310 F   0  0  0  0  0  0  0  0  0  0  0  0
   -5.8860   57.6100   74.6440 F   0  0  0  0  0  0  0  0  0  0  0  0
    2.6633   63.6862   72.8650 H   0  0  0  0  0  0  0  0  0  0  0  0
   -0.9255   66.0854   70.5970 H   0  0  0  0  0  0  0  0  0  0  0  0
    2.0825   64.6826   68.9695 H   0  0  0  0  0  0  0  0  0  0  0  0
   -1.9888   66.2333   68.1118 H   0  0  0  0  0  0  0  0  0  0  0  0
   -1.6466   67.5179   66.0105 H   0  0  0  0  0  0  0  0  0  0  0  0
    2.4448   68.2885   67.1495 H   0  0  0  0  0  0  0  0  0  0  0  0
    2.1029   66.9956   69.2423 H   0  0  0  0  0  0  0  0  0  0  0  0
    0.8035   69.8403   65.4504 H   0  0  0  0  0  0  0  0  0  0  0  0
   -0.7634   67.6872   63.9550 H   0  0  0  0  0  0  0  0  0  0  0  0
   -1.4199   69.1825   64.7377 H   0  0  0  0  0  0  0  0  0  0  0  0
   -1.1662   69.3919   62.2581 H   0  0  0  0  0  0  0  0  0  0  0  0
   -0.1873   70.5883   63.2050 H   0  0  0  0  0  0  0  0  0  0  0  0
    0.8189   68.0342   61.8777 H   0  0  0  0  0  0  0  0  0  0  0  0
    1.1467   69.7462   61.3803 H   0  0  0  0  0  0  0  0  0  0  0  0
    3.0394   68.6937   62.6261 H   0  0  0  0  0  0  0  0  0  0  0  0
    2.3505   70.1668   63.4271 H   0  0  0  0  0  0  0  0  0  0  0  0
    1.8304   67.2565   64.1818 H   0  0  0  0  0  0  0  0  0  0  0  0
    2.7897   68.4834   65.1059 H   0  0  0  0  0  0  0  0  0  0  0  0
    1.4947   61.3046   71.5371 H   0  0  0  0  0  0  0  0  0  0  0  0
    2.6498   61.4716   72.9184 H   0  0  0  0  0  0  0  0  0  0  0  0
   -0.0426   60.1773   72.2316 H   0  0  0  0  0  0  0  0  0  0  0  0
   -0.7390   58.3896   74.4787 H   0  0  0  0  0  0  0  0  0  0  0  0
   -2.8660   57.8152   75.6438 H   0  0  0  0  0  0  0  0  0  0  0  0
   -4.5628   61.5727   74.3833 H   0  0  0  0  0  0  0  0  0  0  0  0
   -2.4415   62.1459   73.2172 H   0  0  0  0  0  0  0  0  0  0  0  0
  2  1  1  0
  3  2  1  0
  4  3  2  0
  5  3  1  0
  6  5  1  0
  6  1  1  0
  7  6  2  0
  8  4  1  0
  9  8  2  0
 10  9  1  0
 11 10  2  0
 12 11  1  0
 13 12  2  0
 13  8  1  0
 14 11  1  0
 15 14  1  0
 16 15  1  0
 17 16  1  0
 18 17  1  0
 19 18  1  0
 19 14  1  0
 20  1  1  0
 22 21  2  0
 22 20  1  0
 23 22  1  0
 24 23  1  0
 25 24  2  0
 26 25  1  0
 27 26  2  0
 28 27  1  0
 29 28  2  0
 29 24  1  0
 30 27  1  0
 31 30  1  0
 32 31  1  0
 33 31  1  0
 34 31  1  0
  1 35  1  1
  4 36  1  0
  5 37  1  0
  9 38  1  0
 10 39  1  0
 12 40  1  0
 13 41  1  0
 14 42  1  0
 15 43  1  0
 15 44  1  0
 16 45  1  0
 16 46  1  0
 17 47  1  0
 17 48  1  0
 18 49  1  0
 18 50  1  0
 19 51  1  0
 19 52  1  0
 20 53  1  0
 20 54  1  0
 23 55  1  0
 25 56  1  0
 26 57  1  0
 28 58  1  0
 29 59  1  0
M  CHG  1   4   1
M  END
>  <score>  (8) 
-8.669

$$$$
=
     RDKit          3D

 59 62  0  0  0  0  0  0  0  0999 V2000
    0.7450   61.9700   71.7970 C   0  0  2  0  0  0  0  0  0  0  0  0
   -0.7740   61.6290   72.8030 S   0  0  0  0  0  0  0  0  0  0  0  0
   -0.1950   60.0740   73.3250 C   0  0  0  0  0  0  0  0  0  0  0  0
   -1.0130   59.3360   74.0440 N   0  0  0  0  0  4  0  0  0  0  0  0
    1.0480   59.8490   72.9620 N   0  0  0  0  0  0  0  0  0  0  0  0
    1.6810   60.8430   72.1720 C   0  0  0  0  0  0  0  0  0  0  0  0
    2.8490   60.6910   71.8870 O   0  0  0  0  0  0  0  0  0  0  0  0
   -0.7930   58.0670   74.4850 C   0  0  0  0  0  0  0  0  0  0  0  0
   -0.4500   56.9970   73.6520 C   0  0  0  0  0  0  0  0  0  0  0  0
   -0.2510   55.7140   74.1750 C   0  0  0  0  0  0  0  0  0  0  0  0
   -0.4080   55.4660   75.5440 C   0  0  0  0  0  0  0  0  0  0  0  0
   -0.7890   56.5270   76.3720 C   0  0  0  0  0  0  0  0  0  0  0  0
   -0.9910   57.8070   75.8460 C   0  0  0  0  0  0  0  0  0  0  0  0
   -0.2010   54.0800   76.1370 C   0  0  0  0  0  0  0  0  0  0  0  0
    0.1340   54.1410   77.6390 C   0  0  0  0  0  0  0  0  0  0  0  0
    0.3310   52.7430   78.2230 C   0  0  0  0  0  0  0  0  0  0  0  0
    1.3850   51.9540   77.4520 C   0  0  0  0  0  0  0  0  0  0  0  0
    1.0620   51.8900   75.9620 C   0  0  0  0  0  0  0  0  0  0  0  0
    0.8670   53.2840   75.3670 C   0  0  0  0  0  0  0  0  0  0  0  0
    1.3640   63.3300   72.0970 C   0  0  0  0  0  0  0  0  0  0  0  0
    2.3720   63.8280   69.9910 O   0  0  0  0  0  0  0  0  0  0  0  0
    1.5350   64.1430   70.8280 C   0  0  0  0  0  0  0  0  0  0  0  0
    0.6690   65.2190   70.7760 N   0  0  0  0  0  0  0  0  0  0  0  0
    0.5510   66.1700   69.7390 C   0  0  0  0  0  0  0  0  0  0  0  0
    1.5260   67.1190   69.4300 C   0  0  0  0  0  0  0  0  0  0  0  0
    1.3350   68.0310   68.3810 C   0  0  0  0  0  0  0  0  0  0  0  0
    0.1640   68.0050   67.6260 C   0  0  0  0  0  0  0  0  0  0  0  0
   -0.8120   67.0550   67.9330 C   0  0  0  0  0  0  0  0  0  0  0  0
   -0.6220   66.1460   68.9790 C   0  0  0  0  0  0  0  0  0  0  0  0
   -0.1540   68.8260   66.5840 O   0  0  0  0  0  0  0  0  0  0  0  0
    0.5030   68.6100   65.3460 C   0  0  0  0  0  0  0  0  0  0  0  0
   -0.2910   69.0590   64.3500 F   0  0  0  0  0  0  0  0  0  0  0  0
    1.6700   69.2860   65.2920 F   0  0  0  0  0  0  0  0  0  0  0  0
    0.7330   67.2950   65.1420 F   0  0  0  0  0  0  0  0  0  0  0  0
    0.5209   62.0102   70.7208 H   0  0  0  0  0  0  0  0  0  0  0  0
   -1.9146   59.7632   74.3002 H   0  0  0  0  0  0  0  0  0  0  0  0
    1.5412   58.9883   73.2391 H   0  0  0  0  0  0  0  0  0  0  0  0
   -0.3351   57.1661   72.5712 H   0  0  0  0  0  0  0  0  0  0  0  0
    0.0321   54.8908   73.5025 H   0  0  0  0  0  0  0  0  0  0  0  0
   -0.9313   56.3527   77.4487 H   0  0  0  0  0  0  0  0  0  0  0  0
   -1.3104   58.6220   76.5121 H   0  0  0  0  0  0  0  0  0  0  0  0
   -1.1571   53.5462   76.0321 H   0  0  0  0  0  0  0  0  0  0  0  0
    1.0592   54.7199   77.7762 H   0  0  0  0  0  0  0  0  0  0  0  0
   -0.7069   54.6196   78.1623 H   0  0  0  0  0  0  0  0  0  0  0  0
    0.6512   52.8362   79.2712 H   0  0  0  0  0  0  0  0  0  0  0  0
   -0.6243   52.2025   78.1498 H   0  0  0  0  0  0  0  0  0  0  0  0
    2.3626   52.4405   77.5845 H   0  0  0  0  0  0  0  0  0  0  0  0
    1.4004   50.9266   77.8446 H   0  0  0  0  0  0  0  0  0  0  0  0
    1.8910   51.3914   75.4384 H   0  0  0  0  0  0  0  0  0  0  0  0
    0.1239   51.3291   75.8376 H   0  0  0  0  0  0  0  0  0  0  0  0
    1.8214   53.8291   75.4126 H   0  0  0  0  0  0  0  0  0  0  0  0
    0.5304   53.1714   74.3258 H   0  0  0  0  0  0  0  0  0  0  0  0
    0.7085   63.8783   72.7896 H   0  0  0  0  0  0  0  0  0  0  0  0
    2.3551   63.1716   72.5471 H   0  0  0  0  0  0  0  0  0  0  0  0
    0.0403   65.3405   71.5828 H   0  0  0  0  0  0  0  0  0  0  0  0
    2.4562   67.1526   70.0162 H   0  0  0  0  0  0  0  0  0  0  0  0
    2.1153   68.7720   68.1529 H   0  0  0  0  0  0  0  0  0  0  0  0
   -1.7413   67.0210   67.3454 H   0  0  0  0  0  0  0  0  0  0  0  0
   -1.4030   65.4053   69.2057 H   0  0  0  0  0  0  0  0  0  0  0  0
  2  1  1  0
  3  2  1  0
  4  3  2  0
  5  3  1  0
  6  5  1  0
  6  1  1  0
  7  6  2  0
  8  4  1  0
  9  8  2  0
 10  9  1  0
 11 10  2  0
 12 11  1  0
 13 12  2  0
 13  8  1  0
 14 11  1  0
 15 14  1  0
 16 15  1  0
 17 16  1  0
 18 17  1  0
 19 18  1  0
 19 14  1  0
 20  1  1  0
 22 21  2  0
 22 20  1  0
 23 22  1  0
 24 23  1  0
 25 24  2  0
 26 25  1  0
 27 26  2  0
 28 27  1  0
 29 28  2  0
 29 24  1  0
 30 27  1  0
 31 30  1  0
 32 31  1  0
 33 31  1  0
 34 31  1  0
  1 35  1  6
  4 36  1  0
  5 37  1  0
  9 38  1  0
 10 39  1  0
 12 40  1  0
 13 41  1  0
 14 42  1  0
 15 43  1  0
 15 44  1  0
 16 45  1  0
 16 46  1  0
 17 47  1  0
 17 48  1  0
 18 49  1  0
 18 50  1  0
 19 51  1  0
 19 52  1  0
 20 53  1  0
 20 54  1  0
 23 55  1  0
 25 56  1  0
 26 57  1  0
 28 58  1  0
 29 59  1  0
M  CHG  1   4   1
M  END
>  <score>  (9) 
-8.464

$$$$
