=
     RDKit          3D

 61 65  0  0  0  0  0  0  0  0999 V2000
    0.9850   66.7180   69.5210 N   0  0  0  0  0  0  0  0  0  0  0  0
    0.3890   67.1800   68.3700 C   0  0  0  0  0  0  0  0  0  0  0  0
   -0.8210   67.3740   68.2540 O   0  0  0  0  0  0  0  0  0  0  0  0
    0.1400   66.0760   70.5250 C   0  0  0  0  0  0  0  0  0  0  0  0
   -0.1190   63.8770   69.5790 O   0  0  0  0  0  0  0  0  0  0  0  0
    0.4040   64.5620   70.4590 C   0  0  0  0  0  0  0  0  0  0  0  0
    1.2380   64.1110   71.4670 N   0  0  0  0  0  0  0  0  0  0  0  0
    1.5960   62.7450   71.6510 C   0  0  0  0  0  0  0  0  0  0  0  0
    2.8240   62.2380   71.1980 C   0  0  0  0  0  0  0  0  0  0  0  0
    3.9500   63.0420   70.5970 C   0  0  0  0  0  0  0  0  0  0  0  0
    5.3030   62.6240   71.1850 C   0  0  0  0  0  0  0  0  0  0  0  0
    5.5460   61.1110   71.2060 C   0  0  0  0  0  0  0  0  0  0  0  0
    4.3280   60.2790   70.8150 C   0  0  0  0  0  0  0  0  0  0  0  0
    3.0580   60.8730   71.3670 C   0  0  0  0  0  0  0  0  0  0  0  0
    2.2050   60.0380   71.9910 N   0  0  0  0  0  0  0  0  0  0  0  0
    1.0710   60.5360   72.4940 C   0  0  0  0  0  0  0  0  0  0  0  0
    0.6960   61.8910   72.3600 C   0  0  0  0  0  0  0  0  0  0  0  0
   -0.5560   62.2860   72.9110 C   0  0  0  0  0  0  0  0  0  0  0  0
   -1.3800   61.3810   73.5820 C   0  0  0  0  0  0  0  0  0  0  0  0
   -0.9830   60.0620   73.7120 C   0  0  0  0  0  0  0  0  0  0  0  0
    0.2330   59.6550   73.1640 C   0  0  0  0  0  0  0  0  0  0  0  0
    1.3120   67.4240   67.1710 C   0  0  1  0  0  0  0  0  0  0  0  0
    0.6550   66.8670   65.9300 N   0  0  0  0  0  4  0  0  0  0  0  0
    1.5900   68.9220   67.0100 C   0  0  0  0  0  0  0  0  0  0  0  0
    2.9880   69.2080   66.5580 C   0  0  0  0  0  0  0  0  0  0  0  0
    3.5140   68.9250   65.3120 C   0  0  0  0  0  0  0  0  0  0  0  0
    4.8230   69.3280   65.2940 N   0  0  0  0  0  0  0  0  0  0  0  0
    5.1760   69.8350   66.5230 C   0  0  0  0  0  0  0  0  0  0  0  0
    4.0380   69.8040   67.3290 C   0  0  0  0  0  0  0  0  0  0  0  0
    4.1320   70.3160   68.6400 C   0  0  0  0  0  0  0  0  0  0  0  0
    5.3560   70.8190   69.0970 C   0  0  0  0  0  0  0  0  0  0  0  0
    6.4750   70.8240   68.2710 C   0  0  0  0  0  0  0  0  0  0  0  0
    6.4050   70.3360   66.9640 C   0  0  0  0  0  0  0  0  0  0  0  0
    1.9988   66.8219   69.6705 H   0  0  0  0  0  0  0  0  0  0  0  0
    0.3918   66.4570   71.5257 H   0  0  0  0  0  0  0  0  0  0  0  0
   -0.9211   66.2911   70.3303 H   0  0  0  0  0  0  0  0  0  0  0  0
    1.6229   64.8050   72.1236 H   0  0  0  0  0  0  0  0  0  0  0  0
    3.9659   62.8803   69.5091 H   0  0  0  0  0  0  0  0  0  0  0  0
    3.7823   64.1043   70.8280 H   0  0  0  0  0  0  0  0  0  0  0  0
    6.0977   63.0914   70.5850 H   0  0  0  0  0  0  0  0  0  0  0  0
    5.3046   62.9560   72.2337 H   0  0  0  0  0  0  0  0  0  0  0  0
    6.3607   60.8822   70.5032 H   0  0  0  0  0  0  0  0  0  0  0  0
    5.7928   60.8437   72.2441 H   0  0  0  0  0  0  0  0  0  0  0  0
    4.2580   60.2402   69.7179 H   0  0  0  0  0  0  0  0  0  0  0  0
    4.4490   59.2690   71.2336 H   0  0  0  0  0  0  0  0  0  0  0  0
   -0.8823   63.3312   72.8052 H   0  0  0  0  0  0  0  0  0  0  0  0
   -2.3392   61.7144   74.0049 H   0  0  0  0  0  0  0  0  0  0  0  0
   -1.6212   59.3405   74.2431 H   0  0  0  0  0  0  0  0  0  0  0  0
    0.5377   58.6030   73.2658 H   0  0  0  0  0  0  0  0  0  0  0  0
    2.2750   66.9177   67.3334 H   0  0  0  0  0  0  0  0  0  0  0  0
   -0.1028   66.2245   66.2017 H   0  0  0  0  0  0  0  0  0  0  0  0
    0.2661   67.6398   65.3711 H   0  0  0  0  0  0  0  0  0  0  0  0
    1.3538   66.3569   65.3711 H   0  0  0  0  0  0  0  0  0  0  0  0
    0.8899   69.3314   66.2669 H   0  0  0  0  0  0  0  0  0  0  0  0
    1.4588   69.3907   67.9965 H   0  0  0  0  0  0  0  0  0  0  0  0
    2.9735   68.4559   64.4767 H   0  0  0  0  0  0  0  0  0  0  0  0
    5.4506   69.2612   64.4800 H   0  0  0  0  0  0  0  0  0  0  0  0
    3.2506   70.3200   69.2981 H   0  0  0  0  0  0  0  0  0  0  0  0
    5.4336   71.2146   70.1205 H   0  0  0  0  0  0  0  0  0  0  0  0
    7.4287   71.2178   68.6524 H   0  0  0  0  0  0  0  0  0  0  0  0
    7.2856   70.3454   66.3048 H   0  0  0  0  0  0  0  0  0  0  0  0
  2  1  1  0
  3  2  2  0
  4  1  1  0
  6  5  2  0
  6  4  1  0
  7  6  1  0
  8  7  1  0
  9  8  1  0
 10  9  1  0
 11 10  1  0
 12 11  1  0
 13 12  1  0
 14 13  1  0
 14  9  2  0
 15 14  1  0
 16 15  2  0
 17 16  1  0
 17  8  2  0
 18 17  1  0
 19 18  2  0
 20 19  1  0
 21 20  2  0
 21 16  1  0
 22  2  1  0
 23 22  1  0
 24 22  1  0
 25 24  1  0
 26 25  2  0
 27 26  1  0
 28 27  1  0
 29 28  2  0
 29 25  1  0
 30 29  1  0
 31 30  2  0
 32 31  1  0
 33 28  1  0
 33 32  2  0
  1 34  1  0
  4 35  1  0
  4 36  1  0
  7 37  1  0
 10 38  1  0
 10 39  1  0
 11 40  1  0
 11 41  1  0
 12 42  1  0
 12 43  1  0
 13 44  1  0
 13 45  1  0
 18 46  1  0
 19 47  1  0
 20 48  1  0
 21 49  1  0
 22 50  1  1
 23 51  1  0
 23 52  1  0
 23 53  1  0
 24 54  1  0
 24 55  1  0
 26 56  1  0
 27 57  1  0
 30 58  1  0
 31 59  1  0
 32 60  1  0
 33 61  1  0
M  CHG  1  23   1
M  END
>  <score>  (1) 
-13.021

$$$$
=
     RDKit          3D

 61 65  0  0  0  0  0  0  0  0999 V2000
    1.0220   66.7910   69.6800 N   0  0  0  0  0  0  0  0  0  0  0  0
    0.4180   67.2030   68.5140 C   0  0  0  0  0  0  0  0  0  0  0  0
   -0.7970   67.3600   68.3900 O   0  0  0  0  0  0  0  0  0  0  0  0
    0.1920   66.1550   70.7010 C   0  0  0  0  0  0  0  0  0  0  0  0
   -0.2200   64.0200   69.6680 O   0  0  0  0  0  0  0  0  0  0  0  0
    0.3630   64.6340   70.5620 C   0  0  0  0  0  0  0  0  0  0  0  0
    1.1940   64.0900   71.5280 N   0  0  0  0  0  0  0  0  0  0  0  0
    1.4750   62.6990   71.6430 C   0  0  0  0  0  0  0  0  0  0  0  0
    0.7860   61.8810   72.5520 C   0  0  0  0  0  0  0  0  0  0  0  0
   -0.3850   62.2960   73.4100 C   0  0  0  0  0  0  0  0  0  0  0  0
   -1.4920   61.2350   73.3850 C   0  0  0  0  0  0  0  0  0  0  0  0
   -1.0040   59.8030   73.6290 C   0  0  0  0  0  0  0  0  0  0  0  0
    0.5150   59.6600   73.6650 C   0  0  0  0  0  0  0  0  0  0  0  0
    1.1740   60.5450   72.6380 C   0  0  0  0  0  0  0  0  0  0  0  0
    2.1210   59.9880   71.8590 N   0  0  0  0  0  0  0  0  0  0  0  0
    2.7210   60.7470   70.9360 C   0  0  0  0  0  0  0  0  0  0  0  0
    2.4480   62.1230   70.7700 C   0  0  0  0  0  0  0  0  0  0  0  0
    3.1840   62.8250   69.7740 C   0  0  0  0  0  0  0  0  0  0  0  0
    4.1260   62.1840   68.9690 C   0  0  0  0  0  0  0  0  0  0  0  0
    4.3650   60.8310   69.1430 C   0  0  0  0  0  0  0  0  0  0  0  0
    3.6640   60.1320   70.1250 C   0  0  0  0  0  0  0  0  0  0  0  0
    1.3390   67.4360   67.3110 C   0  0  1  0  0  0  0  0  0  0  0  0
    0.6940   66.8390   66.0830 N   0  0  0  0  0  4  0  0  0  0  0  0
    1.5890   68.9350   67.1160 C   0  0  0  0  0  0  0  0  0  0  0  0
    2.9710   69.2340   66.6250 C   0  0  0  0  0  0  0  0  0  0  0  0
    3.4650   68.9510   65.3660 C   0  0  0  0  0  0  0  0  0  0  0  0
    4.7690   69.3680   65.3100 N   0  0  0  0  0  0  0  0  0  0  0  0
    5.1490   69.8850   66.5260 C   0  0  0  0  0  0  0  0  0  0  0  0
    4.0340   69.8450   67.3640 C   0  0  0  0  0  0  0  0  0  0  0  0
    4.1590   70.3640   68.6700 C   0  0  0  0  0  0  0  0  0  0  0  0
    5.3900   70.8820   69.0910 C   0  0  0  0  0  0  0  0  0  0  0  0
    6.4850   70.8950   68.2340 C   0  0  0  0  0  0  0  0  0  0  0  0
    6.3850   70.4000   66.9310 C   0  0  0  0  0  0  0  0  0  0  0  0
    2.0320   66.9273   69.8291 H   0  0  0  0  0  0  0  0  0  0  0  0
    0.5153   66.4784   71.7014 H   0  0  0  0  0  0  0  0  0  0  0  0
   -0.8631   66.4374   70.5704 H   0  0  0  0  0  0  0  0  0  0  0  0
    1.6350   64.7304   72.2035 H   0  0  0  0  0  0  0  0  0  0  0  0
   -0.0409   62.4317   74.4460 H   0  0  0  0  0  0  0  0  0  0  0  0
   -0.7937   63.2364   73.0117 H   0  0  0  0  0  0  0  0  0  0  0  0
   -2.2260   61.4856   74.1650 H   0  0  0  0  0  0  0  0  0  0  0  0
   -1.9193   61.2519   72.3715 H   0  0  0  0  0  0  0  0  0  0  0  0
   -1.4062   59.4607   74.5939 H   0  0  0  0  0  0  0  0  0  0  0  0
   -1.3596   59.1980   72.7819 H   0  0  0  0  0  0  0  0  0  0  0  0
    0.8775   59.9405   74.6650 H   0  0  0  0  0  0  0  0  0  0  0  0
    0.7704   58.6146   73.4369 H   0  0  0  0  0  0  0  0  0  0  0  0
    3.0052   63.9015   69.6354 H   0  0  0  0  0  0  0  0  0  0  0  0
    4.6750   62.7492   68.2015 H   0  0  0  0  0  0  0  0  0  0  0  0
    5.1016   60.3122   68.5119 H   0  0  0  0  0  0  0  0  0  0  0  0
    3.8649   59.0591   70.2610 H   0  0  0  0  0  0  0  0  0  0  0  0
    2.3110   66.9516   67.4860 H   0  0  0  0  0  0  0  0  0  0  0  0
   -0.0322   66.1669   66.3690 H   0  0  0  0  0  0  0  0  0  0  0  0
    0.2659   67.5887   65.5212 H   0  0  0  0  0  0  0  0  0  0  0  0
    1.4084   66.3543   65.5212 H   0  0  0  0  0  0  0  0  0  0  0  0
    0.8648   69.3195   66.3828 H   0  0  0  0  0  0  0  0  0  0  0  0
    1.4740   69.4200   68.0966 H   0  0  0  0  0  0  0  0  0  0  0  0
    2.9065   68.4725   64.5480 H   0  0  0  0  0  0  0  0  0  0  0  0
    5.3750   69.3037   64.4796 H   0  0  0  0  0  0  0  0  0  0  0  0
    3.2961   70.3618   69.3522 H   0  0  0  0  0  0  0  0  0  0  0  0
    5.4919   71.2828   70.1103 H   0  0  0  0  0  0  0  0  0  0  0  0
    7.4444   71.3011   68.5871 H   0  0  0  0  0  0  0  0  0  0  0  0
    7.2473   70.4148   66.2482 H   0  0  0  0  0  0  0  0  0  0  0  0
  2  1  1  0
  3  2  2  0
  4  1  1  0
  6  5  2  0
  6  4  1  0
  7  6  1  0
  8  7  1  0
  9  8  1  0
 10  9  1  0
 11 10  1  0
 12 11  1  0
 13 12  1  0
 14 13  1  0
 14  9  2  0
 15 14  1  0
 16 15  2  0
 17 16  1  0
 17  8  2  0
 18 17  1  0
 19 18  2  0
 20 19  1  0
 21 20  2  0
 21 16  1  0
 22  2  1  0
 23 22  1  0
 24 22  1  0
 25 24  1  0
 26 25  2  0
 27 26  1  0
 28 27  1  0
 29 28  2  0
 29 25  1  0
 30 29  1  0
 31 30  2  0
 32 31  1  0
 33 28  1  0
 33 32  2  0
  1 34  1  0
  4 35  1  0
  4 36  1  0
  7 37  1  0
 10 38  1  0
 10 39  1  0
 11 40  1  0
 11 41  1  0
 12 42  1  0
 12 43  1  0
 13 44  1  0
 13 45  1  0
 18 46  1  0
 19 47  1  0
 20 48  1  0
 21 49  1  0
 22 50  1  1
 23 51  1  0
 23 52  1  0
 23 53  1  0
 24 54  1  0
 24 55  1  0
 26 56  1  0
 27 57  1  0
 30 58  1  0
 31 59  1  0
 32 60  1  0
 33 61  1  0
M  CHG  1  23   1
M  END
>  <score>  (2) 
-12.628

$$$$
=
     RDKit          3D

 61 65  0  0  0  0  0  0  0  0999 V2000
    0.9170   67.2060   68.1040 N   0  0  0  0  0  0  0  0  0  0  0  0
    0.6440   67.1610   66.7550 C   0  0  0  0  0  0  0  0  0  0  0  0
   -0.4400   66.8180   66.2860 O   0  0  0  0  0  0  0  0  0  0  0  0
    0.0370   66.4720   69.0100 C   0  0  0  0  0  0  0  0  0  0  0  0
    1.9730   66.1600   70.4070 O   0  0  0  0  0  0  0  0  0  0  0  0
    0.9240   65.6750   69.9800 C   0  0  0  0  0  0  0  0  0  0  0  0
    0.4200   64.4180   70.2700 N   0  0  0  0  0  0  0  0  0  0  0  0
    1.0790   63.4710   71.1050 C   0  0  0  0  0  0  0  0  0  0  0  0
    1.8980   62.4640   70.5720 C   0  0  0  0  0  0  0  0  0  0  0  0
    2.2920   62.3120   69.1240 C   0  0  0  0  0  0  0  0  0  0  0  0
    3.7880   62.0050   68.9870 C   0  0  0  0  0  0  0  0  0  0  0  0
    4.2920   60.8830   69.9010 C   0  0  0  0  0  0  0  0  0  0  0  0
    3.2620   60.3990   70.9180 C   0  0  0  0  0  0  0  0  0  0  0  0
    2.4490   61.5440   71.4640 C   0  0  0  0  0  0  0  0  0  0  0  0
    2.2920   61.6080   72.8000 N   0  0  0  0  0  0  0  0  0  0  0  0
    1.5790   62.6150   73.3150 C   0  0  0  0  0  0  0  0  0  0  0  0
    0.9360   63.5920   72.5220 C   0  0  0  0  0  0  0  0  0  0  0  0
    0.1770   64.5910   73.1940 C   0  0  0  0  0  0  0  0  0  0  0  0
    0.0830   64.6280   74.5850 C   0  0  0  0  0  0  0  0  0  0  0  0
    0.7340   63.6680   75.3400 C   0  0  0  0  0  0  0  0  0  0  0  0
    1.4680   62.6730   74.6970 C   0  0  0  0  0  0  0  0  0  0  0  0
    1.7930   67.5350   65.8120 C   0  0  1  0  0  0  0  0  0  0  0  0
    1.4010   67.1680   64.4000 N   0  0  0  0  0  4  0  0  0  0  0  0
    2.1010   69.0330   65.9160 C   0  0  0  0  0  0  0  0  0  0  0  0
    3.5680   69.3270   65.8990 C   0  0  0  0  0  0  0  0  0  0  0  0
    4.4230   69.1370   64.8300 C   0  0  0  0  0  0  0  0  0  0  0  0
    5.6830   69.5130   65.2140 N   0  0  0  0  0  0  0  0  0  0  0  0
    5.6750   69.9110   66.5300 C   0  0  0  0  0  0  0  0  0  0  0  0
    4.3570   69.8360   66.9810 C   0  0  0  0  0  0  0  0  0  0  0  0
    4.0780   70.2360   68.3040 C   0  0  0  0  0  0  0  0  0  0  0  0
    5.1220   70.6750   69.1270 C   0  0  0  0  0  0  0  0  0  0  0  0
    6.4280   70.7250   68.6500 C   0  0  0  0  0  0  0  0  0  0  0  0
    6.7300   70.3480   67.3390 C   0  0  0  0  0  0  0  0  0  0  0  0
    1.7193   67.7422   68.4641 H   0  0  0  0  0  0  0  0  0  0  0  0
   -0.5938   67.1765   69.5720 H   0  0  0  0  0  0  0  0  0  0  0  0
   -0.6200   65.7950   68.4443 H   0  0  0  0  0  0  0  0  0  0  0  0
   -0.4854   64.1522   69.8572 H   0  0  0  0  0  0  0  0  0  0  0  0
    1.7143   61.4883   68.6793 H   0  0  0  0  0  0  0  0  0  0  0  0
    2.0810   63.2580   68.6039 H   0  0  0  0  0  0  0  0  0  0  0  0
    3.9851   61.7139   67.9447 H   0  0  0  0  0  0  0  0  0  0  0  0
    4.3238   62.9177   69.2869 H   0  0  0  0  0  0  0  0  0  0  0  0
    4.5838   60.0294   69.2716 H   0  0  0  0  0  0  0  0  0  0  0  0
    5.1353   61.2952   70.4746 H   0  0  0  0  0  0  0  0  0  0  0  0
    2.5865   59.6813   70.4295 H   0  0  0  0  0  0  0  0  0  0  0  0
    3.7970   59.9246   71.7539 H   0  0  0  0  0  0  0  0  0  0  0  0
   -0.3491   65.3536   72.6010 H   0  0  0  0  0  0  0  0  0  0  0  0
   -0.5050   65.4155   75.0791 H   0  0  0  0  0  0  0  0  0  0  0  0
    0.6726   63.6901   76.4381 H   0  0  0  0  0  0  0  0  0  0  0  0
    1.9756   61.9092   75.3044 H   0  0  0  0  0  0  0  0  0  0  0  0
    2.7018   66.9836   66.0949 H   0  0  0  0  0  0  0  0  0  0  0  0
    0.6493   66.4642   64.4243 H   0  0  0  0  0  0  0  0  0  0  0  0
    1.0684   68.0087   63.9065 H   0  0  0  0  0  0  0  0  0  0  0  0
    2.2180   66.7808   63.9065 H   0  0  0  0  0  0  0  0  0  0  0  0
    1.6296   69.5483   65.0662 H   0  0  0  0  0  0  0  0  0  0  0  0
    1.7041   69.3861   66.8792 H   0  0  0  0  0  0  0  0  0  0  0  0
    4.1401   68.7500   63.8400 H   0  0  0  0  0  0  0  0  0  0  0  0
    6.5144   69.4995   64.6061 H   0  0  0  0  0  0  0  0  0  0  0  0
    3.0473   70.2033   68.6868 H   0  0  0  0  0  0  0  0  0  0  0  0
    4.9076   70.9834   70.1609 H   0  0  0  0  0  0  0  0  0  0  0  0
    7.2349   71.0665   69.3150 H   0  0  0  0  0  0  0  0  0  0  0  0
    7.7603   70.3931   66.9564 H   0  0  0  0  0  0  0  0  0  0  0  0
  2  1  1  0
  3  2  2  0
  4  1  1  0
  6  5  2  0
  6  4  1  0
  7  6  1  0
  8  7  1  0
  9  8  1  0
 10  9  1  0
 11 10  1  0
 12 11  1  0
 13 12  1  0
 14 13  1  0
 14  9  2  0
 15 14  1  0
 16 15  2  0
 17 16  1  0
 17  8  2  0
 18 17  1  0
 19 18  2  0
 20 19  1  0
 21 20  2  0
 21 16  1  0
 22  2  1  0
 23 22  1  0
 24 22  1  0
 25 24  1  0
 26 25  2  0
 27 26  1  0
 28 27  1  0
 29 28  2  0
 29 25  1  0
 30 29  1  0
 31 30  2  0
 32 31  1  0
 33 28  1  0
 33 32  2  0
  1 34  1  0
  4 35  1  0
  4 36  1  0
  7 37  1  0
 10 38  1  0
 10 39  1  0
 11 40  1  0
 11 41  1  0
 12 42  1  0
 12 43  1  0
 13 44  1  0
 13 45  1  0
 18 46  1  0
 19 47  1  0
 20 48  1  0
 21 49  1  0
 22 50  1  1
 23 51  1  0
 23 52  1  0
 23 53  1  0
 24 54  1  0
 24 55  1  0
 26 56  1  0
 27 57  1  0
 30 58  1  0
 31 59  1  0
 32 60  1  0
 33 61  1  0
M  CHG  1  23   1
M  END
>  <score>  (3) 
-12.567

$$$$
=
     RDKit          3D

 61 65  0  0  0  0  0  0  0  0999 V2000
    0.6750   66.8600   69.8350 N   0  0  0  0  0  0  0  0  0  0  0  0
    0.2200   65.6170   70.2130 C   0  0  0  0  0  0  0  0  0  0  0  0
   -0.3220   64.8210   69.4450 O   0  0  0  0  0  0  0  0  0  0  0  0
    0.1770   67.4250   68.5830 C   0  0  0  0  0  0  0  0  0  0  0  0
    1.9300   66.3650   67.3180 O   0  0  0  0  0  0  0  0  0  0  0  0
    1.3350   67.4130   67.5710 C   0  0  0  0  0  0  0  0  0  0  0  0
    1.6040   68.6630   67.0390 N   0  0  0  0  0  0  0  0  0  0  0  0
    2.6580   68.9230   66.1170 C   0  0  0  0  0  0  0  0  0  0  0  0
    2.5400   68.6080   64.7550 C   0  0  0  0  0  0  0  0  0  0  0  0
    1.3000   68.0920   64.0660 C   0  0  0  0  0  0  0  0  0  0  0  0
    1.0620   68.8210   62.7380 C   0  0  0  0  0  0  0  0  0  0  0  0
    2.2960   68.9140   61.8350 C   0  0  0  0  0  0  0  0  0  0  0  0
    3.5870   68.4340   62.4930 C   0  0  0  0  0  0  0  0  0  0  0  0
    3.6490   68.8410   63.9420 C   0  0  0  0  0  0  0  0  0  0  0  0
    4.7920   69.4070   64.3770 N   0  0  0  0  0  0  0  0  0  0  0  0
    4.8750   69.7820   65.6570 C   0  0  0  0  0  0  0  0  0  0  0  0
    3.8400   69.5690   66.5940 C   0  0  0  0  0  0  0  0  0  0  0  0
    4.0700   69.9840   67.9360 C   0  0  0  0  0  0  0  0  0  0  0  0
    5.2620   70.6010   68.3190 C   0  0  0  0  0  0  0  0  0  0  0  0
    6.2560   70.8110   67.3780 C   0  0  0  0  0  0  0  0  0  0  0  0
    6.0520   70.3960   66.0630 C   0  0  0  0  0  0  0  0  0  0  0  0
    0.3820   65.2490   71.6920 C   0  0  1  0  0  0  0  0  0  0  0  0
   -0.5870   66.0720   72.5060 N   0  0  0  0  0  4  0  0  0  0  0  0
    0.1290   63.7520   71.9000 C   0  0  0  0  0  0  0  0  0  0  0  0
    1.3850   62.9820   72.1620 C   0  0  0  0  0  0  0  0  0  0  0  0
    1.9030   62.6710   73.4050 C   0  0  0  0  0  0  0  0  0  0  0  0
    3.0650   61.9670   73.2240 N   0  0  0  0  0  0  0  0  0  0  0  0
    3.3370   61.8460   71.8810 C   0  0  0  0  0  0  0  0  0  0  0  0
    2.2850   62.4440   71.1860 C   0  0  0  0  0  0  0  0  0  0  0  0
    2.3100   62.4130   69.7760 C   0  0  0  0  0  0  0  0  0  0  0  0
    3.3870   61.8060   69.1200 C   0  0  0  0  0  0  0  0  0  0  0  0
    4.4270   61.2300   69.8430 C   0  0  0  0  0  0  0  0  0  0  0  0
    4.4190   61.2340   71.2400 C   0  0  0  0  0  0  0  0  0  0  0  0
    1.3478   67.3774   70.4186 H   0  0  0  0  0  0  0  0  0  0  0  0
   -0.6581   66.8176   68.2039 H   0  0  0  0  0  0  0  0  0  0  0  0
   -0.1858   68.4514   68.7410 H   0  0  0  0  0  0  0  0  0  0  0  0
    1.0067   69.4511   67.3271 H   0  0  0  0  0  0  0  0  0  0  0  0
    1.4198   67.0165   63.8689 H   0  0  0  0  0  0  0  0  0  0  0  0
    0.4357   68.2710   64.7224 H   0  0  0  0  0  0  0  0  0  0  0  0
    0.2736   68.2857   62.1886 H   0  0  0  0  0  0  0  0  0  0  0  0
    0.7824   69.8537   62.9935 H   0  0  0  0  0  0  0  0  0  0  0  0
    2.1159   68.3009   60.9396 H   0  0  0  0  0  0  0  0  0  0  0  0
    2.4370   69.9791   61.5991 H   0  0  0  0  0  0  0  0  0  0  0  0
    3.6362   67.3371   62.4268 H   0  0  0  0  0  0  0  0  0  0  0  0
    4.4361   68.8950   61.9671 H   0  0  0  0  0  0  0  0  0  0  0  0
    3.2881   69.8141   68.6908 H   0  0  0  0  0  0  0  0  0  0  0  0
    5.4109   70.9184   69.3616 H   0  0  0  0  0  0  0  0  0  0  0  0
    7.1980   71.3008   67.6656 H   0  0  0  0  0  0  0  0  0  0  0  0
    6.8493   70.5603   65.3232 H   0  0  0  0  0  0  0  0  0  0  0  0
    1.4100   65.4648   72.0187 H   0  0  0  0  0  0  0  0  0  0  0  0
   -0.4083   65.9202   73.5090 H   0  0  0  0  0  0  0  0  0  0  0  0
   -0.4625   67.0697   72.2822 H   0  0  0  0  0  0  0  0  0  0  0  0
   -1.5514   65.7877   72.2822 H   0  0  0  0  0  0  0  0  0  0  0  0
   -0.5462   63.6258   72.7592 H   0  0  0  0  0  0  0  0  0  0  0  0
   -0.3127   63.3590   70.9724 H   0  0  0  0  0  0  0  0  0  0  0  0
    1.4586   62.9421   74.3740 H   0  0  0  0  0  0  0  0  0  0  0  0
    3.6485   61.5849   73.9819 H   0  0  0  0  0  0  0  0  0  0  0  0
    1.4898   62.8622   69.1968 H   0  0  0  0  0  0  0  0  0  0  0  0
    3.4116   61.7840   68.0205 H   0  0  0  0  0  0  0  0  0  0  0  0
    5.2674   60.7649   69.3070 H   0  0  0  0  0  0  0  0  0  0  0  0
    5.2348   60.7722   71.8155 H   0  0  0  0  0  0  0  0  0  0  0  0
  2  1  1  0
  3  2  2  0
  4  1  1  0
  6  5  2  0
  6  4  1  0
  7  6  1  0
  8  7  1  0
  9  8  1  0
 10  9  1  0
 11 10  1  0
 12 11  1  0
 13 12  1  0
 14 13  1  0
 14  9  2  0
 15 14  1  0
 16 15  2  0
 17 16  1  0
 17  8  2  0
 18 17  1  0
 19 18  2  0
 20 19  1  0
 21 20  2  0
 21 16  1  0
 22  2  1  0
 23 22  1  0
 24 22  1  0
 25 24  1  0
 26 25  2  0
 27 26  1  0
 28 27  1  0
 29 28  2  0
 29 25  1  0
 30 29  1  0
 31 30  2  0
 32 31  1  0
 33 28  1  0
 33 32  2  0
  1 34  1  0
  4 35  1  0
  4 36  1  0
  7 37  1  0
 10 38  1  0
 10 39  1  0
 11 40  1  0
 11 41  1  0
 12 42  1  0
 12 43  1  0
 13 44  1  0
 13 45  1  0
 18 46  1  0
 19 47  1  0
 20 48  1  0
 21 49  1  0
 22 50  1  1
 23 51  1  0
 23 52  1  0
 23 53  1  0
 24 54  1  0
 24 55  1  0
 26 56  1  0
 27 57  1  0
 30 58  1  0
 31 59  1  0
 32 60  1  0
 33 61  1  0
M  CHG  1  23   1
M  END
>  <score>  (4) 
-12.486

$$$$
=
     RDKit          3D

 61 65  0  0  0  0  0  0  0  0999 V2000
   -0.0070   66.3230   69.3960 N   0  0  0  0  0  0  0  0  0  0  0  0
    0.8370   67.3390   69.0080 C   0  0  0  0  0  0  0  0  0  0  0  0
    1.8810   67.6250   69.5950 O   0  0  0  0  0  0  0  0  0  0  0  0
    0.1220   65.7990   70.7530 C   0  0  0  0  0  0  0  0  0  0  0  0
   -0.0700   63.6320   69.7190 O   0  0  0  0  0  0  0  0  0  0  0  0
    0.4030   64.2910   70.6470 C   0  0  0  0  0  0  0  0  0  0  0  0
    1.1930   63.8110   71.6780 N   0  0  0  0  0  0  0  0  0  0  0  0
    1.5550   62.4430   71.8310 C   0  0  0  0  0  0  0  0  0  0  0  0
    2.7830   61.9490   71.3650 C   0  0  0  0  0  0  0  0  0  0  0  0
    3.9050   62.7690   70.7770 C   0  0  0  0  0  0  0  0  0  0  0  0
    5.2610   62.3420   71.3530 C   0  0  0  0  0  0  0  0  0  0  0  0
    5.5080   60.8300   71.3400 C   0  0  0  0  0  0  0  0  0  0  0  0
    4.2910   60.0030   70.9350 C   0  0  0  0  0  0  0  0  0  0  0  0
    3.0210   60.5810   71.5030 C   0  0  0  0  0  0  0  0  0  0  0  0
    2.1720   59.7300   72.1110 N   0  0  0  0  0  0  0  0  0  0  0  0
    1.0390   60.2150   72.6280 C   0  0  0  0  0  0  0  0  0  0  0  0
    0.6590   61.5710   72.5240 C   0  0  0  0  0  0  0  0  0  0  0  0
   -0.5920   61.9500   73.0870 C   0  0  0  0  0  0  0  0  0  0  0  0
   -1.4120   61.0290   73.7410 C   0  0  0  0  0  0  0  0  0  0  0  0
   -1.0100   59.7080   73.8410 C   0  0  0  0  0  0  0  0  0  0  0  0
    0.2050   59.3170   73.2820 C   0  0  0  0  0  0  0  0  0  0  0  0
    0.4020   68.1640   67.7910 C   0  0  1  0  0  0  0  0  0  0  0  0
    0.7030   69.6200   68.0590 N   0  0  0  0  0  4  0  0  0  0  0  0
    1.1330   67.6820   66.5340 C   0  0  0  0  0  0  0  0  0  0  0  0
    0.5670   68.2620   65.2750 C   0  0  0  0  0  0  0  0  0  0  0  0
   -0.7430   68.6540   65.0790 C   0  0  0  0  0  0  0  0  0  0  0  0
   -0.8660   69.1210   63.7960 N   0  0  0  0  0  0  0  0  0  0  0  0
    0.3350   69.0040   63.1370 C   0  0  0  0  0  0  0  0  0  0  0  0
    1.2640   68.4980   64.0460 C   0  0  0  0  0  0  0  0  0  0  0  0
    2.5960   68.3240   63.6170 C   0  0  0  0  0  0  0  0  0  0  0  0
    2.9420   68.6440   62.2980 C   0  0  0  0  0  0  0  0  0  0  0  0
    1.9880   69.1350   61.4130 C   0  0  0  0  0  0  0  0  0  0  0  0
    0.6650   69.3290   61.8170 C   0  0  0  0  0  0  0  0  0  0  0  0
   -0.7104   65.9427   68.7468 H   0  0  0  0  0  0  0  0  0  0  0  0
    0.9537   66.2996   71.2704 H   0  0  0  0  0  0  0  0  0  0  0  0
   -0.7999   65.9798   71.3251 H   0  0  0  0  0  0  0  0  0  0  0  0
    1.5395   64.4844   72.3761 H   0  0  0  0  0  0  0  0  0  0  0  0
    3.9182   62.6299   69.6859 H   0  0  0  0  0  0  0  0  0  0  0  0
    3.7351   63.8260   71.0297 H   0  0  0  0  0  0  0  0  0  0  0  0
    6.0530   62.8248   70.7617 H   0  0  0  0  0  0  0  0  0  0  0  0
    5.2642   62.6509   72.4087 H   0  0  0  0  0  0  0  0  0  0  0  0
    6.3209   60.6189   70.6297 H   0  0  0  0  0  0  0  0  0  0  0  0
    5.7589   60.5408   72.3712 H   0  0  0  0  0  0  0  0  0  0  0  0
    4.2178   59.9874   69.8375 H   0  0  0  0  0  0  0  0  0  0  0  0
    4.4162   58.9848   71.3319 H   0  0  0  0  0  0  0  0  0  0  0  0
   -0.9213   62.9963   73.0046 H   0  0  0  0  0  0  0  0  0  0  0  0
   -2.3708   61.3505   74.1739 H   0  0  0  0  0  0  0  0  0  0  0  0
   -1.6447   58.9729   74.3576 H   0  0  0  0  0  0  0  0  0  0  0  0
    0.5135   58.2641   73.3611 H   0  0  0  0  0  0  0  0  0  0  0  0
   -0.6777   68.0391   67.6217 H   0  0  0  0  0  0  0  0  0  0  0  0
    0.7365   69.7822   69.0756 H   0  0  0  0  0  0  0  0  0  0  0  0
    1.6124   69.8650   67.6421 H   0  0  0  0  0  0  0  0  0  0  0  0
   -0.0347   70.2055   67.6421 H   0  0  0  0  0  0  0  0  0  0  0  0
    2.1913   67.9723   66.6099 H   0  0  0  0  0  0  0  0  0  0  0  0
    1.0122   66.5900   66.4790 H   0  0  0  0  0  0  0  0  0  0  0  0
   -1.5497   68.6006   65.8250 H   0  0  0  0  0  0  0  0  0  0  0  0
   -1.7303   69.5030   63.3863 H   0  0  0  0  0  0  0  0  0  0  0  0
    3.3570   67.9402   64.3124 H   0  0  0  0  0  0  0  0  0  0  0  0
    3.9791   68.5055   61.9585 H   0  0  0  0  0  0  0  0  0  0  0  0
    2.2796   69.3741   60.3797 H   0  0  0  0  0  0  0  0  0  0  0  0
   -0.0907   69.7234   61.1217 H   0  0  0  0  0  0  0  0  0  0  0  0
  2  1  1  0
  3  2  2  0
  4  1  1  0
  6  5  2  0
  6  4  1  0
  7  6  1  0
  8  7  1  0
  9  8  1  0
 10  9  1  0
 11 10  1  0
 12 11  1  0
 13 12  1  0
 14 13  1  0
 14  9  2  0
 15 14  1  0
 16 15  2  0
 17 16  1  0
 17  8  2  0
 18 17  1  0
 19 18  2  0
 20 19  1  0
 21 20  2  0
 21 16  1  0
 22  2  1  0
 23 22  1  0
 24 22  1  0
 25 24  1  0
 26 25  2  0
 27 26  1  0
 28 27  1  0
 29 28  2  0
 29 25  1  0
 30 29  1  0
 31 30  2  0
 32 31  1  0
 33 28  1  0
 33 32  2  0
  1 34  1  0
  4 35  1  0
  4 36  1  0
  7 37  1  0
 10 38  1  0
 10 39  1  0
 11 40  1  0
 11 41  1  0
 12 42  1  0
 12 43  1  0
 13 44  1  0
 13 45  1  0
 18 46  1  0
 19 47  1  0
 20 48  1  0
 21 49  1  0
 22 50  1  6
 23 51  1  0
 23 52  1  0
 23 53  1  0
 24 54  1  0
 24 55  1  0
 26 56  1  0
 27 57  1  0
 30 58  1  0
 31 59  1  0
 32 60  1  0
 33 61  1  0
M  CHG  1  23   1
M  END
>  <score>  (5) 
-11.767

$$$$
=
     RDKit          3D

 61 65  0  0  0  0  0  0  0  0999 V2000
    0.0240   66.4140   69.4670 N   0  0  0  0  0  0  0  0  0  0  0  0
    0.9180   67.3950   69.1020 C   0  0  0  0  0  0  0  0  0  0  0  0
    1.9680   67.6250   69.7040 O   0  0  0  0  0  0  0  0  0  0  0  0
    0.1150   65.8670   70.8190 C   0  0  0  0  0  0  0  0  0  0  0  0
   -0.3040   63.7220   69.8070 O   0  0  0  0  0  0  0  0  0  0  0  0
    0.2810   64.3430   70.6960 C   0  0  0  0  0  0  0  0  0  0  0  0
    1.1080   63.8060   71.6690 N   0  0  0  0  0  0  0  0  0  0  0  0
    1.3830   62.4150   71.7980 C   0  0  0  0  0  0  0  0  0  0  0  0
    0.6770   61.6060   72.7020 C   0  0  0  0  0  0  0  0  0  0  0  0
   -0.5060   62.0290   73.5370 C   0  0  0  0  0  0  0  0  0  0  0  0
   -1.6150   60.9710   73.5020 C   0  0  0  0  0  0  0  0  0  0  0  0
   -1.1350   59.5390   73.7640 C   0  0  0  0  0  0  0  0  0  0  0  0
    0.3830   59.3930   73.8260 C   0  0  0  0  0  0  0  0  0  0  0  0
    1.0610   60.2690   72.8040 C   0  0  0  0  0  0  0  0  0  0  0  0
    2.0190   59.7040   72.0440 N   0  0  0  0  0  0  0  0  0  0  0  0
    2.6360   60.4550   71.1260 C   0  0  0  0  0  0  0  0  0  0  0  0
    2.3690   61.8300   70.9460 C   0  0  0  0  0  0  0  0  0  0  0  0
    3.1220   62.5240   69.9570 C   0  0  0  0  0  0  0  0  0  0  0  0
    4.0760   61.8740   69.1720 C   0  0  0  0  0  0  0  0  0  0  0  0
    4.3090   60.5220   69.3600 C   0  0  0  0  0  0  0  0  0  0  0  0
    3.5910   59.8320   70.3340 C   0  0  0  0  0  0  0  0  0  0  0  0
    0.5350   68.2540   67.8920 C   0  0  1  0  0  0  0  0  0  0  0  0
    1.1710   69.6160   68.0430 N   0  0  0  0  0  4  0  0  0  0  0  0
    0.9980   67.5820   66.5950 C   0  0  0  0  0  0  0  0  0  0  0  0
    0.3900   68.1980   65.3740 C   0  0  0  0  0  0  0  0  0  0  0  0
   -0.9260   68.5940   65.2330 C   0  0  0  0  0  0  0  0  0  0  0  0
   -1.0920   69.0980   63.9690 N   0  0  0  0  0  0  0  0  0  0  0  0
    0.0870   69.0030   63.2670 C   0  0  0  0  0  0  0  0  0  0  0  0
    1.0450   68.4720   64.1300 C   0  0  0  0  0  0  0  0  0  0  0  0
    2.3630   68.3120   63.6510 C   0  0  0  0  0  0  0  0  0  0  0  0
    2.6650   68.6720   62.3320 C   0  0  0  0  0  0  0  0  0  0  0  0
    1.6820   69.1870   61.4940 C   0  0  0  0  0  0  0  0  0  0  0  0
    0.3730   69.3680   61.9470 C   0  0  0  0  0  0  0  0  0  0  0  0
   -0.6891   66.0750   68.8056 H   0  0  0  0  0  0  0  0  0  0  0  0
    0.9829   66.2977   71.3399 H   0  0  0  0  0  0  0  0  0  0  0  0
   -0.7897   66.1110   71.3953 H   0  0  0  0  0  0  0  0  0  0  0  0
    1.5502   64.4514   72.3389 H   0  0  0  0  0  0  0  0  0  0  0  0
   -0.1785   62.1714   74.5774 H   0  0  0  0  0  0  0  0  0  0  0  0
   -0.9060   62.9672   73.1249 H   0  0  0  0  0  0  0  0  0  0  0  0
   -2.3606   61.2292   74.2684 H   0  0  0  0  0  0  0  0  0  0  0  0
   -2.0259   60.9818   72.4817 H   0  0  0  0  0  0  0  0  0  0  0  0
   -1.5539   59.2044   74.7245 H   0  0  0  0  0  0  0  0  0  0  0  0
   -1.4783   58.9288   72.9156 H   0  0  0  0  0  0  0  0  0  0  0  0
    0.7296   59.6798   74.8298 H   0  0  0  0  0  0  0  0  0  0  0  0
    0.6396   58.3455   73.6095 H   0  0  0  0  0  0  0  0  0  0  0  0
    2.9477   63.5998   69.8076 H   0  0  0  0  0  0  0  0  0  0  0  0
    4.6388   62.4321   68.4092 H   0  0  0  0  0  0  0  0  0  0  0  0
    5.0550   59.9972   68.7452 H   0  0  0  0  0  0  0  0  0  0  0  0
    3.7869   58.7595   70.4803 H   0  0  0  0  0  0  0  0  0  0  0  0
   -0.5585   68.3636   67.8436 H   0  0  0  0  0  0  0  0  0  0  0  0
    1.2745   69.8376   69.0435 H   0  0  0  0  0  0  0  0  0  0  0  0
    2.0981   69.6137   67.5942 H   0  0  0  0  0  0  0  0  0  0  0  0
    0.5741   70.3253   67.5942 H   0  0  0  0  0  0  0  0  0  0  0  0
    2.0923   67.6694   66.5251 H   0  0  0  0  0  0  0  0  0  0  0  0
    0.6743   66.5314   66.6323 H   0  0  0  0  0  0  0  0  0  0  0  0
   -1.7073   68.5179   66.0035 H   0  0  0  0  0  0  0  0  0  0  0  0
   -1.9699   69.4899   63.5995 H   0  0  0  0  0  0  0  0  0  0  0  0
    3.1466   67.9077   64.3086 H   0  0  0  0  0  0  0  0  0  0  0  0
    3.6906   68.5461   61.9547 H   0  0  0  0  0  0  0  0  0  0  0  0
    1.9390   69.4559   60.4588 H   0  0  0  0  0  0  0  0  0  0  0  0
   -0.4051   69.7827   61.2893 H   0  0  0  0  0  0  0  0  0  0  0  0
  2  1  1  0
  3  2  2  0
  4  1  1  0
  6  5  2  0
  6  4  1  0
  7  6  1  0
  8  7  1  0
  9  8  1  0
 10  9  1  0
 11 10  1  0
 12 11  1  0
 13 12  1  0
 14 13  1  0
 14  9  2  0
 15 14  1  0
 16 15  2  0
 17 16  1  0
 17  8  2  0
 18 17  1  0
 19 18  2  0
 20 19  1  0
 21 20  2  0
 21 16  1  0
 22  2  1  0
 23 22  1  0
 24 22  1  0
 25 24  1  0
 26 25  2  0
 27 26  1  0
 28 27  1  0
 29 28  2  0
 29 25  1  0
 30 29  1  0
 31 30  2  0
 32 31  1  0
 33 28  1  0
 33 32  2  0
  1 34  1  0
  4 35  1  0
  4 36  1  0
  7 37  1  0
 10 38  1  0
 10 39  1  0
 11 40  1  0
 11 41  1  0
 12 42  1  0
 12 43  1  0
 13 44  1  0
 13 45  1  0
 18 46  1  0
 19 47  1  0
 20 48  1  0
 21 49  1  0
 22 50  1  6
 23 51  1  0
 23 52  1  0
 23 53  1  0
 24 54  1  0
 24 55  1  0
 26 56  1  0
 27 57  1  0
 30 58  1  0
 31 59  1  0
 32 60  1  0
 33 61  1  0
M  CHG  1  23   1
M  END
>  <score>  (6) 
-11.318

$$$$
=
     RDKit          3D

 61 65  0  0  0  0  0  0  0  0999 V2000
    0.2260   66.3360   69.1170 N   0  0  0  0  0  0  0  0  0  0  0  0
    1.0160   67.4070   68.7640 C   0  0  0  0  0  0  0  0  0  0  0  0
    1.8690   67.9020   69.5000 O   0  0  0  0  0  0  0  0  0  0  0  0
    0.1160   65.9980   70.5340 C   0  0  0  0  0  0  0  0  0  0  0  0
    0.0340   63.6820   69.8790 O   0  0  0  0  0  0  0  0  0  0  0  0
    0.4610   64.5070   70.6870 C   0  0  0  0  0  0  0  0  0  0  0  0
    1.2500   64.2430   71.7950 N   0  0  0  0  0  0  0  0  0  0  0  0
    1.6650   62.9370   72.1810 C   0  0  0  0  0  0  0  0  0  0  0  0
    0.8400   62.0980   72.9470 C   0  0  0  0  0  0  0  0  0  0  0  0
   -0.5870   62.3810   73.3490 C   0  0  0  0  0  0  0  0  0  0  0  0
   -1.4740   61.1480   73.1420 C   0  0  0  0  0  0  0  0  0  0  0  0
   -0.8990   59.8490   73.7170 C   0  0  0  0  0  0  0  0  0  0  0  0
    0.5340   59.9730   74.2260 C   0  0  0  0  0  0  0  0  0  0  0  0
    1.3590   60.8620   73.3310 C   0  0  0  0  0  0  0  0  0  0  0  0
    2.5700   60.4080   72.9560 N   0  0  0  0  0  0  0  0  0  0  0  0
    3.3230   61.1720   72.1590 C   0  0  0  0  0  0  0  0  0  0  0  0
    2.9330   62.4600   71.7280 C   0  0  0  0  0  0  0  0  0  0  0  0
    3.8450   63.1860   70.9110 C   0  0  0  0  0  0  0  0  0  0  0  0
    5.0720   62.6460   70.5220 C   0  0  0  0  0  0  0  0  0  0  0  0
    5.4240   61.3760   70.9460 C   0  0  0  0  0  0  0  0  0  0  0  0
    4.5500   60.6580   71.7600 C   0  0  0  0  0  0  0  0  0  0  0  0
    0.7660   68.0140   67.3790 C   0  0  1  0  0  0  0  0  0  0  0  0
   -0.3110   69.0670   67.4970 N   0  0  0  0  0  4  0  0  0  0  0  0
    2.0580   68.6210   66.8230 C   0  0  0  0  0  0  0  0  0  0  0  0
    2.6200   67.8420   65.6760 C   0  0  0  0  0  0  0  0  0  0  0  0
    2.2500   66.5640   65.3030 C   0  0  0  0  0  0  0  0  0  0  0  0
    2.9990   66.1980   64.2150 N   0  0  0  0  0  0  0  0  0  0  0  0
    3.8810   67.2020   63.8930 C   0  0  0  0  0  0  0  0  0  0  0  0
    3.6470   68.2620   64.7700 C   0  0  0  0  0  0  0  0  0  0  0  0
    4.4070   69.4400   64.6160 C   0  0  0  0  0  0  0  0  0  0  0  0
    5.3770   69.5070   63.6090 C   0  0  0  0  0  0  0  0  0  0  0  0
    5.5940   68.4280   62.7580 C   0  0  0  0  0  0  0  0  0  0  0  0
    4.8450   67.2540   62.8810 C   0  0  0  0  0  0  0  0  0  0  0  0
   -0.2736   65.7883   68.4019 H   0  0  0  0  0  0  0  0  0  0  0  0
    0.8195   66.6074   71.1203 H   0  0  0  0  0  0  0  0  0  0  0  0
   -0.9020   66.1975   70.8998 H   0  0  0  0  0  0  0  0  0  0  0  0
    1.5543   65.0388   72.3737 H   0  0  0  0  0  0  0  0  0  0  0  0
   -0.6111   62.6666   74.4110 H   0  0  0  0  0  0  0  0  0  0  0  0
   -0.9716   63.1974   72.7201 H   0  0  0  0  0  0  0  0  0  0  0  0
   -2.4442   61.3376   73.6244 H   0  0  0  0  0  0  0  0  0  0  0  0
   -1.5562   61.0001   72.0551 H   0  0  0  0  0  0  0  0  0  0  0  0
   -1.5366   59.5301   74.5547 H   0  0  0  0  0  0  0  0  0  0  0  0
   -0.8811   59.1189   72.8944 H   0  0  0  0  0  0  0  0  0  0  0  0
    0.5184   60.4005   75.2394 H   0  0  0  0  0  0  0  0  0  0  0  0
    0.9876   58.9709   74.2328 H   0  0  0  0  0  0  0  0  0  0  0  0
    3.5758   64.1991   70.5775 H   0  0  0  0  0  0  0  0  0  0  0  0
    5.7545   63.2255   69.8830 H   0  0  0  0  0  0  0  0  0  0  0  0
    6.3860   60.9371   70.6428 H   0  0  0  0  0  0  0  0  0  0  0  0
    4.8411   59.6523   72.0972 H   0  0  0  0  0  0  0  0  0  0  0  0
    0.4355   67.2293   66.6825 H   0  0  0  0  0  0  0  0  0  0  0  0
   -0.5015   69.2533   68.4919 H   0  0  0  0  0  0  0  0  0  0  0  0
    0.0051   69.9341   67.0398 H   0  0  0  0  0  0  0  0  0  0  0  0
   -1.1708   68.7315   67.0398 H   0  0  0  0  0  0  0  0  0  0  0  0
    1.8463   69.6451   66.4817 H   0  0  0  0  0  0  0  0  0  0  0  0
    2.8047   68.6051   67.6306 H   0  0  0  0  0  0  0  0  0  0  0  0
    1.4848   65.9458   65.7953 H   0  0  0  0  0  0  0  0  0  0  0  0
    2.9136   65.3028   63.7128 H   0  0  0  0  0  0  0  0  0  0  0  0
    4.2389   70.2993   65.2819 H   0  0  0  0  0  0  0  0  0  0  0  0
    5.9743   70.4229   63.4892 H   0  0  0  0  0  0  0  0  0  0  0  0
    6.3657   68.4996   61.9774 H   0  0  0  0  0  0  0  0  0  0  0  0
    5.0081   66.4012   62.2056 H   0  0  0  0  0  0  0  0  0  0  0  0
  2  1  1  0
  3  2  2  0
  4  1  1  0
  6  5  2  0
  6  4  1  0
  7  6  1  0
  8  7  1  0
  9  8  1  0
 10  9  1  0
 11 10  1  0
 12 11  1  0
 13 12  1  0
 14 13  1  0
 14  9  2  0
 15 14  1  0
 16 15  2  0
 17 16  1  0
 17  8  2  0
 18 17  1  0
 19 18  2  0
 20 19  1  0
 21 20  2  0
 21 16  1  0
 22  2  1  0
 23 22  1  0
 24 22  1  0
 25 24  1  0
 26 25  2  0
 27 26  1  0
 28 27  1  0
 29 28  2  0
 29 25  1  0
 30 29  1  0
 31 30  2  0
 32 31  1  0
 33 28  1  0
 33 32  2  0
  1 34  1  0
  4 35  1  0
  4 36  1  0
  7 37  1  0
 10 38  1  0
 10 39  1  0
 11 40  1  0
 11 41  1  0
 12 42  1  0
 12 43  1  0
 13 44  1  0
 13 45  1  0
 18 46  1  0
 19 47  1  0
 20 48  1  0
 21 49  1  0
 22 50  1  6
 23 51  1  0
 23 52  1  0
 23 53  1  0
 24 54  1  0
 24 55  1  0
 26 56  1  0
 27 57  1  0
 30 58  1  0
 31 59  1  0
 32 60  1  0
 33 61  1  0
M  CHG  1  23   1
M  END
>  <score>  (7) 
-11.22

$$$$
=
     RDKit          3D

 61 65  0  0  0  0  0  0  0  0999 V2000
    0.7440   67.2600   68.9570 N   0  0  0  0  0  0  0  0  0  0  0  0
    0.1700   66.0900   69.4020 C   0  0  0  0  0  0  0  0  0  0  0  0
   -0.8280   65.5790   68.8950 O   0  0  0  0  0  0  0  0  0  0  0  0
   -0.0520   68.1360   68.1000 C   0  0  0  0  0  0  0  0  0  0  0  0
    0.4580   69.5260   66.2020 O   0  0  0  0  0  0  0  0  0  0  0  0
    0.8990   68.7840   67.0810 C   0  0  0  0  0  0  0  0  0  0  0  0
    2.2230   68.4250   67.2690 N   0  0  0  0  0  0  0  0  0  0  0  0
    3.2890   68.8550   66.4280 C   0  0  0  0  0  0  0  0  0  0  0  0
    3.3500   68.4940   65.0740 C   0  0  0  0  0  0  0  0  0  0  0  0
    2.2890   67.7460   64.3040 C   0  0  0  0  0  0  0  0  0  0  0  0
    2.0410   68.3910   62.9360 C   0  0  0  0  0  0  0  0  0  0  0  0
    3.3130   68.6880   62.1340 C   0  0  0  0  0  0  0  0  0  0  0  0
    4.6060   68.4660   62.9130 C   0  0  0  0  0  0  0  0  0  0  0  0
    4.4660   68.9090   64.3460 C   0  0  0  0  0  0  0  0  0  0  0  0
    5.4450   69.6820   64.8530 N   0  0  0  0  0  0  0  0  0  0  0  0
    5.3470   70.0940   66.1210 C   0  0  0  0  0  0  0  0  0  0  0  0
    4.2890   69.7160   66.9770 C   0  0  0  0  0  0  0  0  0  0  0  0
    4.3220   70.1940   68.3170 C   0  0  0  0  0  0  0  0  0  0  0  0
    5.3450   71.0260   68.7740 C   0  0  0  0  0  0  0  0  0  0  0  0
    6.3630   71.3940   67.9110 C   0  0  0  0  0  0  0  0  0  0  0  0
    6.3540   70.9210   66.6000 C   0  0  0  0  0  0  0  0  0  0  0  0
    0.8200   65.4320   70.6250 C   0  0  1  0  0  0  0  0  0  0  0  0
   -0.0010   65.7650   71.8480 N   0  0  0  0  0  4  0  0  0  0  0  0
    0.9080   63.9150   70.4280 C   0  0  0  0  0  0  0  0  0  0  0  0
    2.3180   63.4240   70.3240 C   0  0  0  0  0  0  0  0  0  0  0  0
    3.1720   63.6250   69.2570 C   0  0  0  0  0  0  0  0  0  0  0  0
    4.3650   63.0140   69.5390 N   0  0  0  0  0  0  0  0  0  0  0  0
    4.2930   62.3810   70.7580 C   0  0  0  0  0  0  0  0  0  0  0  0
    3.0320   62.6460   71.2920 C   0  0  0  0  0  0  0  0  0  0  0  0
    2.7250   62.1350   72.5700 C   0  0  0  0  0  0  0  0  0  0  0  0
    3.6770   61.3690   73.2540 C   0  0  0  0  0  0  0  0  0  0  0  0
    4.9220   61.1130   72.6870 C   0  0  0  0  0  0  0  0  0  0  0  0
    5.2560   61.6190   71.4280 C   0  0  0  0  0  0  0  0  0  0  0  0
    1.7076   67.5107   69.2209 H   0  0  0  0  0  0  0  0  0  0  0  0
   -0.8201   67.5492   67.5749 H   0  0  0  0  0  0  0  0  0  0  0  0
   -0.5564   68.9074   68.7005 H   0  0  0  0  0  0  0  0  0  0  0  0
    2.4504   67.8108   68.0639 H   0  0  0  0  0  0  0  0  0  0  0  0
    2.6178   66.7067   64.1567 H   0  0  0  0  0  0  0  0  0  0  0  0
    1.3523   67.7777   64.8798 H   0  0  0  0  0  0  0  0  0  0  0  0
    1.4125   67.7097   62.3437 H   0  0  0  0  0  0  0  0  0  0  0  0
    1.5594   69.3608   63.1298 H   0  0  0  0  0  0  0  0  0  0  0  0
    3.3252   68.0330   61.2503 H   0  0  0  0  0  0  0  0  0  0  0  0
    3.2803   69.7555   61.8708 H   0  0  0  0  0  0  0  0  0  0  0  0
    4.8573   67.3953   62.8921 H   0  0  0  0  0  0  0  0  0  0  0  0
    5.4013   69.0623   62.4419 H   0  0  0  0  0  0  0  0  0  0  0  0
    3.5204   69.9001   69.0105 H   0  0  0  0  0  0  0  0  0  0  0  0
    5.3425   71.3870   69.8131 H   0  0  0  0  0  0  0  0  0  0  0  0
    7.1721   72.0541   68.2570 H   0  0  0  0  0  0  0  0  0  0  0  0
    7.1708   71.2122   65.9233 H   0  0  0  0  0  0  0  0  0  0  0  0
    1.8430   65.8146   70.7558 H   0  0  0  0  0  0  0  0  0  0  0  0
    0.5411   65.5451   72.6957 H   0  0  0  0  0  0  0  0  0  0  0  0
   -0.2359   66.7678   71.8412 H   0  0  0  0  0  0  0  0  0  0  0  0
   -0.8681   65.2092   71.8412 H   0  0  0  0  0  0  0  0  0  0  0  0
    0.4262   63.4209   71.2846 H   0  0  0  0  0  0  0  0  0  0  0  0
    0.4030   63.6744   69.4808 H   0  0  0  0  0  0  0  0  0  0  0  0
    2.9345   64.1808   68.3379 H   0  0  0  0  0  0  0  0  0  0  0  0
    5.1941   63.0267   68.9280 H   0  0  0  0  0  0  0  0  0  0  0  0
    1.7447   62.3367   73.0263 H   0  0  0  0  0  0  0  0  0  0  0  0
    3.4385   60.9657   74.2492 H   0  0  0  0  0  0  0  0  0  0  0  0
    5.6536   60.5036   73.2378 H   0  0  0  0  0  0  0  0  0  0  0  0
    6.2415   61.4250   70.9795 H   0  0  0  0  0  0  0  0  0  0  0  0
  2  1  1  0
  3  2  2  0
  4  1  1  0
  6  5  2  0
  6  4  1  0
  7  6  1  0
  8  7  1  0
  9  8  1  0
 10  9  1  0
 11 10  1  0
 12 11  1  0
 13 12  1  0
 14 13  1  0
 14  9  2  0
 15 14  1  0
 16 15  2  0
 17 16  1  0
 17  8  2  0
 18 17  1  0
 19 18  2  0
 20 19  1  0
 21 20  2  0
 21 16  1  0
 22  2  1  0
 23 22  1  0
 24 22  1  0
 25 24  1  0
 26 25  2  0
 27 26  1  0
 28 27  1  0
 29 28  2  0
 29 25  1  0
 30 29  1  0
 31 30  2  0
 32 31  1  0
 33 28  1  0
 33 32  2  0
  1 34  1  0
  4 35  1  0
  4 36  1  0
  7 37  1  0
 10 38  1  0
 10 39  1  0
 11 40  1  0
 11 41  1  0
 12 42  1  0
 12 43  1  0
 13 44  1  0
 13 45  1  0
 18 46  1  0
 19 47  1  0
 20 48  1  0
 21 49  1  0
 22 50  1  1
 23 51  1  0
 23 52  1  0
 23 53  1  0
 24 54  1  0
 24 55  1  0
 26 56  1  0
 27 57  1  0
 30 58  1  0
 31 59  1  0
 32 60  1  0
 33 61  1  0
M  CHG  1  23   1
M  END
>  <score>  (8) 
-11.147

$$$$
=
     RDKit          3D

 61 65  0  0  0  0  0  0  0  0999 V2000
    0.4530   66.8970   68.2330 N   0  0  0  0  0  0  0  0  0  0  0  0
   -0.2310   67.5790   67.2520 C   0  0  0  0  0  0  0  0  0  0  0  0
   -1.4450   67.7820   67.2780 O   0  0  0  0  0  0  0  0  0  0  0  0
   -0.3120   66.0570   69.1520 C   0  0  0  0  0  0  0  0  0  0  0  0
    1.7270   65.9200   70.4250 O   0  0  0  0  0  0  0  0  0  0  0  0
    0.6870   65.3540   70.0840 C   0  0  0  0  0  0  0  0  0  0  0  0
    0.2880   64.0780   70.4460 N   0  0  0  0  0  0  0  0  0  0  0  0
    1.0610   63.2050   71.2630 C   0  0  0  0  0  0  0  0  0  0  0  0
    1.9190   62.2430   70.7080 C   0  0  0  0  0  0  0  0  0  0  0  0
    2.2400   62.0790   69.2430 C   0  0  0  0  0  0  0  0  0  0  0  0
    3.7440   61.8760   69.0260 C   0  0  0  0  0  0  0  0  0  0  0  0
    4.3800   60.8190   69.9360 C   0  0  0  0  0  0  0  0  0  0  0  0
    3.4480   60.2920   71.0230 C   0  0  0  0  0  0  0  0  0  0  0  0
    2.5870   61.3920   71.5880 C   0  0  0  0  0  0  0  0  0  0  0  0
    2.5010   61.4830   72.9290 N   0  0  0  0  0  0  0  0  0  0  0  0
    1.7480   62.4510   73.4600 C   0  0  0  0  0  0  0  0  0  0  0  0
    0.9910   63.3560   72.6830 C   0  0  0  0  0  0  0  0  0  0  0  0
    0.2000   64.3170   73.3730 C   0  0  0  0  0  0  0  0  0  0  0  0
    0.1830   64.3880   74.7670 C   0  0  0  0  0  0  0  0  0  0  0  0
    0.9450   63.4990   75.5060 C   0  0  0  0  0  0  0  0  0  0  0  0
    1.7130   62.5410   74.8450 C   0  0  0  0  0  0  0  0  0  0  0  0
    0.5930   68.0680   66.0560 C   0  0  1  0  0  0  0  0  0  0  0  0
   -0.3410   68.3380   64.9010 N   0  0  0  0  0  4  0  0  0  0  0  0
    1.3710   69.3340   66.4300 C   0  0  0  0  0  0  0  0  0  0  0  0
    2.7960   69.2960   65.9710 C   0  0  0  0  0  0  0  0  0  0  0  0
    3.9110   69.4830   66.7650 C   0  0  0  0  0  0  0  0  0  0  0  0
    5.0250   69.3830   65.9740 N   0  0  0  0  0  0  0  0  0  0  0  0
    4.6560   69.1710   64.6660 C   0  0  0  0  0  0  0  0  0  0  0  0
    3.2640   69.0790   64.6350 C   0  0  0  0  0  0  0  0  0  0  0  0
    2.6380   68.8190   63.3980 C   0  0  0  0  0  0  0  0  0  0  0  0
    3.4200   68.6800   62.2450 C   0  0  0  0  0  0  0  0  0  0  0  0
    4.8060   68.7900   62.3100 C   0  0  0  0  0  0  0  0  0  0  0  0
    5.4520   69.0330   63.5240 C   0  0  0  0  0  0  0  0  0  0  0  0
    1.4765   66.9767   68.3169 H   0  0  0  0  0  0  0  0  0  0  0  0
   -1.0013   66.6787   69.7422 H   0  0  0  0  0  0  0  0  0  0  0  0
   -0.9051   65.3171   68.5945 H   0  0  0  0  0  0  0  0  0  0  0  0
   -0.6228   63.7403   70.1035 H   0  0  0  0  0  0  0  0  0  0  0  0
    1.6995   61.2040   68.8527 H   0  0  0  0  0  0  0  0  0  0  0  0
    1.9312   62.9925   68.7137 H   0  0  0  0  0  0  0  0  0  0  0  0
    3.9023   61.5703   67.9813 H   0  0  0  0  0  0  0  0  0  0  0  0
    4.2278   62.8328   69.2719 H   0  0  0  0  0  0  0  0  0  0  0  0
    4.6970   59.9708   69.3114 H   0  0  0  0  0  0  0  0  0  0  0  0
    5.2223   61.3066   70.4487 H   0  0  0  0  0  0  0  0  0  0  0  0
    2.7994   59.5147   70.5927 H   0  0  0  0  0  0  0  0  0  0  0  0
    4.0626   59.8800   71.8369 H   0  0  0  0  0  0  0  0  0  0  0  0
   -0.4137   65.0219   72.7930 H   0  0  0  0  0  0  0  0  0  0  0  0
   -0.4319   65.1454   75.2752 H   0  0  0  0  0  0  0  0  0  0  0  0
    0.9446   63.5480   76.6049 H   0  0  0  0  0  0  0  0  0  0  0  0
    2.3101   61.8341   75.4398 H   0  0  0  0  0  0  0  0  0  0  0  0
    1.3217   67.2973   65.7645 H   0  0  0  0  0  0  0  0  0  0  0  0
   -1.2671   68.6057   65.2637 H   0  0  0  0  0  0  0  0  0  0  0  0
    0.0370   69.1042   64.3257 H   0  0  0  0  0  0  0  0  0  0  0  0
   -0.4301   67.4883   64.3257 H   0  0  0  0  0  0  0  0  0  0  0  0
    0.8757   70.2004   65.9674 H   0  0  0  0  0  0  0  0  0  0  0  0
    1.3783   69.4062   67.5276 H   0  0  0  0  0  0  0  0  0  0  0  0
    3.9053   69.6787   67.8474 H   0  0  0  0  0  0  0  0  0  0  0  0
    5.9961   69.4559   66.3094 H   0  0  0  0  0  0  0  0  0  0  0  0
    1.5435   68.7261   63.3396 H   0  0  0  0  0  0  0  0  0  0  0  0
    2.9342   68.4819   61.2782 H   0  0  0  0  0  0  0  0  0  0  0  0
    5.4015   68.6839   61.3912 H   0  0  0  0  0  0  0  0  0  0  0  0
    6.5476   69.1130   63.5802 H   0  0  0  0  0  0  0  0  0  0  0  0
  2  1  1  0
  3  2  2  0
  4  1  1  0
  6  5  2  0
  6  4  1  0
  7  6  1  0
  8  7  1  0
  9  8  1  0
 10  9  1  0
 11 10  1  0
 12 11  1  0
 13 12  1  0
 14 13  1  0
 14  9  2  0
 15 14  1  0
 16 15  2  0
 17 16  1  0
 17  8  2  0
 18 17  1  0
 19 18  2  0
 20 19  1  0
 21 20  2  0
 21 16  1  0
 22  2  1  0
 23 22  1  0
 24 22  1  0
 25 24  1  0
 26 25  2  0
 27 26  1  0
 28 27  1  0
 29 28  2  0
 29 25  1  0
 30 29  1  0
 31 30  2  0
 32 31  1  0
 33 28  1  0
 33 32  2  0
  1 34  1  0
  4 35  1  0
  4 36  1  0
  7 37  1  0
 10 38  1  0
 10 39  1  0
 11 40  1  0
 11 41  1  0
 12 42  1  0
 12 43  1  0
 13 44  1  0
 13 45  1  0
 18 46  1  0
 19 47  1  0
 20 48  1  0
 21 49  1  0
 22 50  1  6
 23 51  1  0
 23 52  1  0
 23 53  1  0
 24 54  1  0
 24 55  1  0
 26 56  1  0
 27 57  1  0
 30 58  1  0
 31 59  1  0
 32 60  1  0
 33 61  1  0
M  CHG  1  23   1
M  END
>  <score>  (9) 
-10.927

$$$$
