=
     RDKit          3D

 19 20  0  0  0  0  0  0  0  0999 V2000
    2.9070   68.5270   63.6440 O   0  0  0  0  0  0  0  0  0  0  0  0
    3.7140   68.9960   64.4110 C   0  0  0  0  0  0  0  0  0  0  0  0
    5.1800   69.4070   64.1120 C   0  0  0  0  0  0  0  0  0  0  0  0
    5.7510   69.3190   63.0480 O   0  0  0  0  0  0  0  0  0  0  0  0
    5.6750   69.8850   65.3100 N   0  0  0  0  0  0  0  0  0  0  0  0
    4.7130   69.8270   66.3200 C   0  0  0  0  0  0  0  0  0  0  0  0
    3.5150   69.3000   65.8310 C   0  0  0  0  0  0  0  0  0  0  0  0
    2.3910   69.1310   66.6130 C   0  0  0  0  0  0  0  0  0  0  0  0
    2.4900   69.5120   67.9500 C   0  0  0  0  0  0  0  0  0  0  0  0
    3.6920   70.0450   68.4580 C   0  0  0  0  0  0  0  0  0  0  0  0
    4.8330   70.2140   67.6440 C   0  0  0  0  0  0  0  0  0  0  0  0
    6.0920   70.7850   68.2290 C   0  0  0  0  0  0  0  0  0  0  0  0
    6.2190   72.1170   67.9840 F   0  0  0  0  0  0  0  0  0  0  0  0
    7.2310   70.2090   67.7480 F   0  0  0  0  0  0  0  0  0  0  0  0
    6.1480   70.6440   69.5810 F   0  0  0  0  0  0  0  0  0  0  0  0
    6.6331   70.2395   65.4414 H   0  0  0  0  0  0  0  0  0  0  0  0
    1.4600   68.7149   66.2005 H   0  0  0  0  0  0  0  0  0  0  0  0
    1.6217   69.3956   68.6152 H   0  0  0  0  0  0  0  0  0  0  0  0
    3.7423   70.3371   69.5173 H   0  0  0  0  0  0  0  0  0  0  0  0
  2  1  2  0
  3  2  1  0
  4  3  2  0
  5  3  1  0
  6  5  1  0
  7  2  1  0
  7  6  2  0
  8  7  1  0
  9  8  2  0
 10  9  1  0
 11 10  2  0
 11  6  1  0
 12 11  1  0
 13 12  1  0
 14 12  1  0
 15 12  1  0
  5 16  1  0
  8 17  1  0
  9 18  1  0
 10 19  1  0
M  END
>  <score>  (1) 
-9.203

$$$$
=
     RDKit          3D

 19 20  0  0  0  0  0  0  0  0999 V2000
    1.1020   68.1560   65.1930 O   0  0  0  0  0  0  0  0  0  0  0  0
    1.7910   68.6850   66.0330 C   0  0  0  0  0  0  0  0  0  0  0  0
    1.3780   69.1140   67.4660 C   0  0  0  0  0  0  0  0  0  0  0  0
    0.2850   68.9840   67.9700 O   0  0  0  0  0  0  0  0  0  0  0  0
    2.5160   69.6660   68.0210 N   0  0  0  0  0  0  0  0  0  0  0  0
    3.5860   69.6400   67.1260 C   0  0  0  0  0  0  0  0  0  0  0  0
    3.2020   69.0590   65.9150 C   0  0  0  0  0  0  0  0  0  0  0  0
    4.0630   68.9030   64.8470 C   0  0  0  0  0  0  0  0  0  0  0  0
    5.3690   69.3580   65.0190 C   0  0  0  0  0  0  0  0  0  0  0  0
    5.7710   69.9470   66.2350 C   0  0  0  0  0  0  0  0  0  0  0  0
    4.8790   70.0990   67.3180 C   0  0  0  0  0  0  0  0  0  0  0  0
    5.3510   70.7320   68.5950 C   0  0  0  0  0  0  0  0  0  0  0  0
    6.6910   70.5890   68.7790 F   0  0  0  0  0  0  0  0  0  0  0  0
    4.7650   70.2150   69.7130 F   0  0  0  0  0  0  0  0  0  0  0  0
    5.1070   72.0700   68.6320 F   0  0  0  0  0  0  0  0  0  0  0  0
    2.5682   70.0488   68.9758 H   0  0  0  0  0  0  0  0  0  0  0  0
    3.7336   68.4412   63.9045 H   0  0  0  0  0  0  0  0  0  0  0  0
    6.0935   69.2565   64.1975 H   0  0  0  0  0  0  0  0  0  0  0  0
    6.8080   70.2976   66.3426 H   0  0  0  0  0  0  0  0  0  0  0  0
  2  1  2  0
  3  2  1  0
  4  3  2  0
  5  3  1  0
  6  5  1  0
  7  2  1  0
  7  6  2  0
  8  7  1  0
  9  8  2  0
 10  9  1  0
 11 10  2  0
 11  6  1  0
 12 11  1  0
 13 12  1  0
 14 12  1  0
 15 12  1  0
  5 16  1  0
  8 17  1  0
  9 18  1  0
 10 19  1  0
M  END
>  <score>  (2) 
-8.762

$$$$
=
     RDKit          3D

 19 20  0  0  0  0  0  0  0  0999 V2000
    4.0260   70.8300   69.9190 O   0  0  0  0  0  0  0  0  0  0  0  0
    4.4440   70.5460   68.8220 C   0  0  0  0  0  0  0  0  0  0  0  0
    5.8750   70.7690   68.2640 C   0  0  0  0  0  0  0  0  0  0  0  0
    6.8070   71.2710   68.8510 O   0  0  0  0  0  0  0  0  0  0  0  0
    5.8420   70.2760   66.9740 N   0  0  0  0  0  0  0  0  0  0  0  0
    4.5810   69.7740   66.6500 C   0  0  0  0  0  0  0  0  0  0  0  0
    3.7030   69.9130   67.7280 C   0  0  0  0  0  0  0  0  0  0  0  0
    2.3870   69.4990   67.6860 C   0  0  0  0  0  0  0  0  0  0  0  0
    1.9450   68.9210   66.4970 C   0  0  0  0  0  0  0  0  0  0  0  0
    2.8190   68.7740   65.4010 C   0  0  0  0  0  0  0  0  0  0  0  0
    4.1640   69.2020   65.4600 C   0  0  0  0  0  0  0  0  0  0  0  0
    5.0580   69.0260   64.2670 C   0  0  0  0  0  0  0  0  0  0  0  0
    6.0320   68.1000   64.4820 F   0  0  0  0  0  0  0  0  0  0  0  0
    5.7060   70.1670   63.8950 F   0  0  0  0  0  0  0  0  0  0  0  0
    4.3780   68.6080   63.1650 F   0  0  0  0  0  0  0  0  0  0  0  0
    6.6473   70.2786   66.3318 H   0  0  0  0  0  0  0  0  0  0  0  0
    1.7179   69.6196   68.5508 H   0  0  0  0  0  0  0  0  0  0  0  0
    0.9038   68.5762   66.4133 H   0  0  0  0  0  0  0  0  0  0  0  0
    2.4438   68.3137   64.4750 H   0  0  0  0  0  0  0  0  0  0  0  0
  2  1  2  0
  3  2  1  0
  4  3  2  0
  5  3  1  0
  6  5  1  0
  7  2  1  0
  7  6  2  0
  8  7  1  0
  9  8  2  0
 10  9  1  0
 11 10  2  0
 11  6  1  0
 12 11  1  0
 13 12  1  0
 14 12  1  0
 15 12  1  0
  5 16  1  0
  8 17  1  0
  9 18  1  0
 10 19  1  0
M  END
>  <score>  (3) 
-8.74

$$$$
=
     RDKit          3D

 19 20  0  0  0  0  0  0  0  0999 V2000
    3.1520   68.5020   62.1950 O   0  0  0  0  0  0  0  0  0  0  0  0
    2.7960   68.6320   63.3420 C   0  0  0  0  0  0  0  0  0  0  0  0
    1.3840   68.3750   63.9320 C   0  0  0  0  0  0  0  0  0  0  0  0
    0.4060   67.9990   63.3240 O   0  0  0  0  0  0  0  0  0  0  0  0
    1.4940   68.6670   65.2770 N   0  0  0  0  0  0  0  0  0  0  0  0
    2.7880   69.0730   65.6080 C   0  0  0  0  0  0  0  0  0  0  0  0
    3.6100   69.0690   64.4790 C   0  0  0  0  0  0  0  0  0  0  0  0
    4.9420   69.4270   64.5160 C   0  0  0  0  0  0  0  0  0  0  0  0
    5.4600   69.8060   65.7530 C   0  0  0  0  0  0  0  0  0  0  0  0
    4.6420   69.8150   66.9020 C   0  0  0  0  0  0  0  0  0  0  0  0
    3.2810   69.4450   66.8480 C   0  0  0  0  0  0  0  0  0  0  0  0
    2.4480   69.4700   68.0970 C   0  0  0  0  0  0  0  0  0  0  0  0
    1.9040   68.2560   68.3810 F   0  0  0  0  0  0  0  0  0  0  0  0
    1.4010   70.3430   68.0400 F   0  0  0  0  0  0  0  0  0  0  0  0
    3.1690   69.8260   69.1950 F   0  0  0  0  0  0  0  0  0  0  0  0
    0.7188   68.5944   65.9513 H   0  0  0  0  0  0  0  0  0  0  0  0
    5.5665   69.4139   63.6105 H   0  0  0  0  0  0  0  0  0  0  0  0
    6.5166   70.1009   65.8341 H   0  0  0  0  0  0  0  0  0  0  0  0
    5.0764   70.1185   67.8660 H   0  0  0  0  0  0  0  0  0  0  0  0
  2  1  2  0
  3  2  1  0
  4  3  2  0
  5  3  1  0
  6  5  1  0
  7  2  1  0
  7  6  2  0
  8  7  1  0
  9  8  2  0
 10  9  1  0
 11 10  2  0
 11  6  1  0
 12 11  1  0
 13 12  1  0
 14 12  1  0
 15 12  1  0
  5 16  1  0
  8 17  1  0
  9 18  1  0
 10 19  1  0
M  END
>  <score>  (4) 
-8.697

$$$$
=
     RDKit          3D

 19 20  0  0  0  0  0  0  0  0999 V2000
    2.8120   70.5310   69.6300 O   0  0  0  0  0  0  0  0  0  0  0  0
    3.0160   70.1190   68.5120 C   0  0  0  0  0  0  0  0  0  0  0  0
    1.9990   69.4550   67.5460 C   0  0  0  0  0  0  0  0  0  0  0  0
    0.8280   69.2430   67.7660 O   0  0  0  0  0  0  0  0  0  0  0  0
    2.7200   69.1660   66.4040 N   0  0  0  0  0  0  0  0  0  0  0  0
    4.0530   69.5620   66.5260 C   0  0  0  0  0  0  0  0  0  0  0  0
    4.2830   70.1400   67.7770 C   0  0  0  0  0  0  0  0  0  0  0  0
    5.5150   70.6220   68.1690 C   0  0  0  0  0  0  0  0  0  0  0  0
    6.5580   70.5100   67.2520 C   0  0  0  0  0  0  0  0  0  0  0  0
    6.3420   69.9280   65.9860 C   0  0  0  0  0  0  0  0  0  0  0  0
    5.0750   69.4400   65.5990 C   0  0  0  0  0  0  0  0  0  0  0  0
    4.8910   68.8270   64.2410 C   0  0  0  0  0  0  0  0  0  0  0  0
    3.8880   69.4180   63.5370 F   0  0  0  0  0  0  0  0  0  0  0  0
    4.5880   67.4980   64.2750 F   0  0  0  0  0  0  0  0  0  0  0  0
    6.0060   68.9340   63.4680 F   0  0  0  0  0  0  0  0  0  0  0  0
    2.3238   68.7148   65.5672 H   0  0  0  0  0  0  0  0  0  0  0  0
    5.6668   71.0741   69.1603 H   0  0  0  0  0  0  0  0  0  0  0  0
    7.5594   70.8791   67.5182 H   0  0  0  0  0  0  0  0  0  0  0  0
    7.1831   69.8522   65.2811 H   0  0  0  0  0  0  0  0  0  0  0  0
  2  1  2  0
  3  2  1  0
  4  3  2  0
  5  3  1  0
  6  5  1  0
  7  2  1  0
  7  6  2  0
  8  7  1  0
  9  8  2  0
 10  9  1  0
 11 10  2  0
 11  6  1  0
 12 11  1  0
 13 12  1  0
 14 12  1  0
 15 12  1  0
  5 16  1  0
  8 17  1  0
  9 18  1  0
 10 19  1  0
M  END
>  <score>  (5) 
-8.44

$$$$
=
     RDKit          3D

 19 20  0  0  0  0  0  0  0  0999 V2000
    1.3310   68.9650   67.9400 O   0  0  0  0  0  0  0  0  0  0  0  0
    1.7040   68.8400   66.7980 C   0  0  0  0  0  0  0  0  0  0  0  0
    0.8940   68.3000   65.5890 C   0  0  0  0  0  0  0  0  0  0  0  0
   -0.2540   67.9140   65.6050 O   0  0  0  0  0  0  0  0  0  0  0  0
    1.7620   68.3580   64.5160 N   0  0  0  0  0  0  0  0  0  0  0  0
    3.0080   68.8620   64.8930 C   0  0  0  0  0  0  0  0  0  0  0  0
    3.0240   69.1680   66.2560 C   0  0  0  0  0  0  0  0  0  0  0  0
    4.1310   69.6850   66.8980 C   0  0  0  0  0  0  0  0  0  0  0  0
    5.2690   69.8990   66.1220 C   0  0  0  0  0  0  0  0  0  0  0  0
    5.2670   69.5950   64.7450 C   0  0  0  0  0  0  0  0  0  0  0  0
    4.1260   69.0670   64.1020 C   0  0  0  0  0  0  0  0  0  0  0  0
    4.1700   68.7590   62.6340 C   0  0  0  0  0  0  0  0  0  0  0  0
    4.3120   67.4280   62.3880 F   0  0  0  0  0  0  0  0  0  0  0  0
    5.1970   69.3700   61.9760 F   0  0  0  0  0  0  0  0  0  0  0  0
    3.0350   69.1420   61.9880 F   0  0  0  0  0  0  0  0  0  0  0  0
    1.5203   68.0661   63.5583 H   0  0  0  0  0  0  0  0  0  0  0  0
    4.1159   69.9176   67.9730 H   0  0  0  0  0  0  0  0  0  0  0  0
    6.1771   70.3089   66.5881 H   0  0  0  0  0  0  0  0  0  0  0  0
    6.1786   69.7739   64.1560 H   0  0  0  0  0  0  0  0  0  0  0  0
  2  1  2  0
  3  2  1  0
  4  3  2  0
  5  3  1  0
  6  5  1  0
  7  2  1  0
  7  6  2  0
  8  7  1  0
  9  8  2  0
 10  9  1  0
 11 10  2  0
 11  6  1  0
 12 11  1  0
 13 12  1  0
 14 12  1  0
 15 12  1  0
  5 16  1  0
  8 17  1  0
  9 18  1  0
 10 19  1  0
M  END
>  <score>  (6) 
-8.389

$$$$
=
     RDKit          3D

 19 20  0  0  0  0  0  0  0  0999 V2000
    5.6890   70.4980   67.5640 O   0  0  0  0  0  0  0  0  0  0  0  0
    4.5290   70.1870   67.6900 C   0  0  0  0  0  0  0  0  0  0  0  0
    3.6380   70.3350   68.9520 C   0  0  0  0  0  0  0  0  0  0  0  0
    3.9740   70.7910   70.0220 O   0  0  0  0  0  0  0  0  0  0  0  0
    2.4030   69.8380   68.5840 N   0  0  0  0  0  0  0  0  0  0  0  0
    2.4020   69.3980   67.2600 C   0  0  0  0  0  0  0  0  0  0  0  0
    3.6570   69.5860   66.6770 C   0  0  0  0  0  0  0  0  0  0  0  0
    3.9410   69.2410   65.3710 C   0  0  0  0  0  0  0  0  0  0  0  0
    2.9050   68.6790   64.6280 C   0  0  0  0  0  0  0  0  0  0  0  0
    1.6330   68.4830   65.2020 C   0  0  0  0  0  0  0  0  0  0  0  0
    1.3580   68.8430   66.5390 C   0  0  0  0  0  0  0  0  0  0  0  0
   -0.0120   68.6140   67.1090 C   0  0  0  0  0  0  0  0  0  0  0  0
   -0.8670   68.0700   66.2020 F   0  0  0  0  0  0  0  0  0  0  0  0
   -0.6180   69.7530   67.5530 F   0  0  0  0  0  0  0  0  0  0  0  0
    0.0020   67.7630   68.1710 F   0  0  0  0  0  0  0  0  0  0  0  0
    1.5851   69.7973   69.2088 H   0  0  0  0  0  0  0  0  0  0  0  0
    4.9388   69.4023   64.9370 H   0  0  0  0  0  0  0  0  0  0  0  0
    3.0817   68.3853   63.5828 H   0  0  0  0  0  0  0  0  0  0  0  0
    0.8332   68.0377   64.5921 H   0  0  0  0  0  0  0  0  0  0  0  0
  2  1  2  0
  3  2  1  0
  4  3  2  0
  5  3  1  0
  6  5  1  0
  7  2  1  0
  7  6  2  0
  8  7  1  0
  9  8  2  0
 10  9  1  0
 11 10  2  0
 11  6  1  0
 12 11  1  0
 13 12  1  0
 14 12  1  0
 15 12  1  0
  5 16  1  0
  8 17  1  0
  9 18  1  0
 10 19  1  0
M  END
>  <score>  (7) 
-8.385

$$$$
=
     RDKit          3D

 19 20  0  0  0  0  0  0  0  0999 V2000
    5.6110   69.2590   62.6420 O   0  0  0  0  0  0  0  0  0  0  0  0
    4.6370   69.0430   63.3240 C   0  0  0  0  0  0  0  0  0  0  0  0
    3.2810   68.4350   62.8760 C   0  0  0  0  0  0  0  0  0  0  0  0
    2.9860   68.0800   61.7570 O   0  0  0  0  0  0  0  0  0  0  0  0
    2.5070   68.3950   64.0190 N   0  0  0  0  0  0  0  0  0  0  0  0
    3.1980   68.8970   65.1230 C   0  0  0  0  0  0  0  0  0  0  0  0
    4.4840   69.3000   64.7580 C   0  0  0  0  0  0  0  0  0  0  0  0
    5.3880   69.8350   65.6530 C   0  0  0  0  0  0  0  0  0  0  0  0
    4.9660   69.9670   66.9740 C   0  0  0  0  0  0  0  0  0  0  0  0
    3.6700   69.5650   67.3570 C   0  0  0  0  0  0  0  0  0  0  0  0
    2.7570   69.0180   66.4300 C   0  0  0  0  0  0  0  0  0  0  0  0
    1.3870   68.6030   66.8830 C   0  0  0  0  0  0  0  0  0  0  0  0
    1.2150   67.2550   66.8480 F   0  0  0  0  0  0  0  0  0  0  0  0
    0.3780   69.1260   66.1280 F   0  0  0  0  0  0  0  0  0  0  0  0
    1.1270   68.9830   68.1640 F   0  0  0  0  0  0  0  0  0  0  0  0
    1.5409   68.0393   64.0526 H   0  0  0  0  0  0  0  0  0  0  0  0
    6.3958   70.1431   65.3377 H   0  0  0  0  0  0  0  0  0  0  0  0
    5.6501   70.3887   67.7251 H   0  0  0  0  0  0  0  0  0  0  0  0
    3.3621   69.6808   68.4067 H   0  0  0  0  0  0  0  0  0  0  0  0
  2  1  2  0
  3  2  1  0
  4  3  2  0
  5  3  1  0
  6  5  1  0
  7  2  1  0
  7  6  2  0
  8  7  1  0
  9  8  2  0
 10  9  1  0
 11 10  2  0
 11  6  1  0
 12 11  1  0
 13 12  1  0
 14 12  1  0
 15 12  1  0
  5 16  1  0
  8 17  1  0
  9 18  1  0
 10 19  1  0
M  END
>  <score>  (8) 
-8.308

$$$$
=
     RDKit          3D

 19 20  0  0  0  0  0  0  0  0999 V2000
    5.9390   70.8830   68.1280 O   0  0  0  0  0  0  0  0  0  0  0  0
    4.9190   70.3550   67.7550 C   0  0  0  0  0  0  0  0  0  0  0  0
    3.6180   70.1230   68.5680 C   0  0  0  0  0  0  0  0  0  0  0  0
    3.4220   70.4390   69.7200 O   0  0  0  0  0  0  0  0  0  0  0  0
    2.7540   69.4880   67.6970 N   0  0  0  0  0  0  0  0  0  0  0  0
    3.3420   69.2910   66.4460 C   0  0  0  0  0  0  0  0  0  0  0  0
    4.6450   69.7960   66.4290 C   0  0  0  0  0  0  0  0  0  0  0  0
    5.4600   69.7370   65.3170 C   0  0  0  0  0  0  0  0  0  0  0  0
    4.9300   69.1390   64.1760 C   0  0  0  0  0  0  0  0  0  0  0  0
    3.6170   68.6250   64.1780 C   0  0  0  0  0  0  0  0  0  0  0  0
    2.7940   68.6940   65.3230 C   0  0  0  0  0  0  0  0  0  0  0  0
    1.4020   68.1330   65.2800 C   0  0  0  0  0  0  0  0  0  0  0  0
    0.4580   69.0660   65.5750 F   0  0  0  0  0  0  0  0  0  0  0  0
    1.1970   67.1070   66.1560 F   0  0  0  0  0  0  0  0  0  0  0  0
    1.0780   67.6430   64.0530 F   0  0  0  0  0  0  0  0  0  0  0  0
    1.7964   69.1965   67.9399 H   0  0  0  0  0  0  0  0  0  0  0  0
    6.4819   70.1438   65.3310 H   0  0  0  0  0  0  0  0  0  0  0  0
    5.5417   69.0671   63.2646 H   0  0  0  0  0  0  0  0  0  0  0  0
    3.2235   68.1579   63.2632 H   0  0  0  0  0  0  0  0  0  0  0  0
  2  1  2  0
  3  2  1  0
  4  3  2  0
  5  3  1  0
  6  5  1  0
  7  2  1  0
  7  6  2  0
  8  7  1  0
  9  8  2  0
 10  9  1  0
 11 10  2  0
 11  6  1  0
 12 11  1  0
 13 12  1  0
 14 12  1  0
 15 12  1  0
  5 16  1  0
  8 17  1  0
  9 18  1  0
 10 19  1  0
M  END
>  <score>  (9) 
-8.242

$$$$
