=
     RDKit          3D

 60 63  0  0  0  0  0  0  0  0999 V2000
    1.0790   68.1800   66.1210 C   0  0  0  0  0  0  0  0  0  0  0  0
    0.7690   67.7100   65.0320 O   0  0  0  0  0  0  0  0  0  0  0  0
    0.2730   68.1170   67.2370 N   0  0  0  0  0  0  0  0  0  0  0  0
    6.3120   71.0980   68.4600 C   0  0  0  0  0  0  0  0  0  0  0  0
    5.3350   70.9700   69.4450 C   0  0  0  0  0  0  0  0  0  0  0  0
    4.1140   70.3630   69.1410 C   0  0  0  0  0  0  0  0  0  0  0  0
    3.8810   69.8890   67.8510 C   0  0  0  0  0  0  0  0  0  0  0  0
    4.8690   70.0210   66.8740 C   0  0  0  0  0  0  0  0  0  0  0  0
    6.0930   70.6280   67.1700 C   0  0  0  0  0  0  0  0  0  0  0  0
    4.5930   69.5070   65.5270 C   0  0  0  0  0  0  0  0  0  0  0  0
    5.4050   69.5730   64.6140 O   0  0  0  0  0  0  0  0  0  0  0  0
    3.2750   68.8940   65.3090 C   0  0  0  0  0  0  0  0  0  0  0  0
    2.4030   68.8460   66.3240 C   0  0  0  0  0  0  0  0  0  0  0  0
    2.6670   69.3010   67.6060 O   0  0  0  0  0  0  0  0  0  0  0  0
    7.4830   71.6980   68.8100 O   0  0  0  0  0  0  0  0  0  0  0  0
   -0.9850   67.3960   67.2280 C   0  0  0  0  0  0  0  0  0  0  0  0
   -1.1570   66.4810   68.4460 C   0  0  0  0  0  0  0  0  0  0  0  0
   -0.0250   66.6310   69.4710 C   0  0  0  0  0  0  0  0  0  0  0  0
    0.4010   65.3460   70.2050 C   0  0  0  0  0  0  0  0  0  0  0  0
    1.9070   65.0760   70.1100 C   0  0  0  0  0  0  0  0  0  0  0  0
    2.2770   63.7550   70.7750 C   0  0  0  0  0  0  0  0  0  0  0  0
    1.8110   63.7620   72.2130 N   0  0  0  0  0  4  0  0  0  0  0  0
    0.3250   63.9940   72.3320 C   0  0  0  0  0  0  0  0  0  0  0  0
   -0.0440   65.3160   71.6710 C   0  0  0  0  0  0  0  0  0  0  0  0
    2.2320   62.5140   72.9650 C   0  0  0  0  0  0  0  0  0  0  0  0
    3.1490   61.6280   72.1660 C   0  0  0  0  0  0  0  0  0  0  0  0
    2.6330   60.5640   71.4100 C   0  0  0  0  0  0  0  0  0  0  0  0
    3.4840   59.7610   70.6500 C   0  0  0  0  0  0  0  0  0  0  0  0
    4.8530   60.0090   70.6380 C   0  0  0  0  0  0  0  0  0  0  0  0
    5.3790   61.0570   71.3900 C   0  0  0  0  0  0  0  0  0  0  0  0
    4.5330   61.8640   72.1520 C   0  0  0  0  0  0  0  0  0  0  0  0
    0.5718   68.5942   68.0995 H   0  0  0  0  0  0  0  0  0  0  0  0
    5.5248   71.3465   70.4610 H   0  0  0  0  0  0  0  0  0  0  0  0
    3.3402   70.2596   69.9159 H   0  0  0  0  0  0  0  0  0  0  0  0
    6.8684   70.7318   66.3967 H   0  0  0  0  0  0  0  0  0  0  0  0
    3.0086   68.4802   64.3252 H   0  0  0  0  0  0  0  0  0  0  0  0
    8.2026   71.8082   68.1391 H   0  0  0  0  0  0  0  0  0  0  0  0
   -1.8078   68.1260   67.2184 H   0  0  0  0  0  0  0  0  0  0  0  0
   -0.9933   66.7579   66.3320 H   0  0  0  0  0  0  0  0  0  0  0  0
   -2.1101   66.7264   68.9374 H   0  0  0  0  0  0  0  0  0  0  0  0
   -1.1383   65.4426   68.0836 H   0  0  0  0  0  0  0  0  0  0  0  0
    0.8563   67.0239   68.9429 H   0  0  0  0  0  0  0  0  0  0  0  0
   -0.4200   67.2988   70.2508 H   0  0  0  0  0  0  0  0  0  0  0  0
   -0.1247   64.5376   69.6758 H   0  0  0  0  0  0  0  0  0  0  0  0
    2.1977   65.0370   69.0498 H   0  0  0  0  0  0  0  0  0  0  0  0
    2.4381   65.8868   70.6301 H   0  0  0  0  0  0  0  0  0  0  0  0
    1.7927   62.9265   70.2374 H   0  0  0  0  0  0  0  0  0  0  0  0
    3.3689   63.6251   70.7459 H   0  0  0  0  0  0  0  0  0  0  0  0
    2.2841   64.5606   72.6594 H   0  0  0  0  0  0  0  0  0  0  0  0
   -0.2139   63.1739   71.8349 H   0  0  0  0  0  0  0  0  0  0  0  0
    0.0462   64.0287   73.3955 H   0  0  0  0  0  0  0  0  0  0  0  0
    0.4482   66.1374   72.2122 H   0  0  0  0  0  0  0  0  0  0  0  0
   -1.1376   65.4292   71.7053 H   0  0  0  0  0  0  0  0  0  0  0  0
    2.7522   62.8179   73.8853 H   0  0  0  0  0  0  0  0  0  0  0  0
    1.3210   61.9363   73.1802 H   0  0  0  0  0  0  0  0  0  0  0  0
    1.5517   60.3621   71.4167 H   0  0  0  0  0  0  0  0  0  0  0  0
    3.0717   58.9300   70.0590 H   0  0  0  0  0  0  0  0  0  0  0  0
    5.5206   59.3769   70.0341 H   0  0  0  0  0  0  0  0  0  0  0  0
    6.4622   61.2486   71.3832 H   0  0  0  0  0  0  0  0  0  0  0  0
    4.9529   62.6898   72.7451 H   0  0  0  0  0  0  0  0  0  0  0  0
  2  1  2  0
  3  1  1  0
  5  4  2  0
  6  5  1  0
  7  6  2  0
  8  7  1  0
  9  8  2  0
  9  4  1  0
 10  8  1  0
 11 10  2  0
 12 10  1  0
 13 12  2  0
 13  1  1  0
 14 13  1  0
 14  7  1  0
 15  4  1  0
 16  3  1  0
 17 16  1  0
 18 17  1  0
 19 18  1  0
 20 19  1  0
 21 20  1  0
 22 21  1  0
 23 22  1  0
 24 19  1  0
 24 23  1  0
 25 22  1  0
 26 25  1  0
 27 26  2  0
 28 27  1  0
 29 28  2  0
 30 29  1  0
 31 30  2  0
 31 26  1  0
  3 32  1  0
  5 33  1  0
  6 34  1  0
  9 35  1  0
 12 36  1  0
 15 37  1  0
 16 38  1  0
 16 39  1  0
 17 40  1  0
 17 41  1  0
 18 42  1  0
 18 43  1  0
 19 44  1  0
 20 45  1  0
 20 46  1  0
 21 47  1  0
 21 48  1  0
 22 49  1  0
 23 50  1  0
 23 51  1  0
 24 52  1  0
 24 53  1  0
 25 54  1  0
 25 55  1  0
 27 56  1  0
 28 57  1  0
 29 58  1  0
 30 59  1  0
 31 60  1  0
M  CHG  1  22   1
M  END
>  <score>  (1) 
-11.291

$$$$
=
     RDKit          3D

 60 63  0  0  0  0  0  0  0  0999 V2000
    0.7680   68.2010   67.6220 C   0  0  0  0  0  0  0  0  0  0  0  0
   -0.2070   68.9360   67.7260 O   0  0  0  0  0  0  0  0  0  0  0  0
    0.9080   67.0170   68.3140 N   0  0  0  0  0  0  0  0  0  0  0  0
    4.6060   69.0910   62.5380 C   0  0  0  0  0  0  0  0  0  0  0  0
    3.4410   68.4230   62.1680 C   0  0  0  0  0  0  0  0  0  0  0  0
    2.4720   68.1270   63.1290 C   0  0  0  0  0  0  0  0  0  0  0  0
    2.6770   68.5040   64.4550 C   0  0  0  0  0  0  0  0  0  0  0  0
    3.8460   69.1750   64.8130 C   0  0  0  0  0  0  0  0  0  0  0  0
    4.8220   69.4750   63.8570 C   0  0  0  0  0  0  0  0  0  0  0  0
    4.0290   69.5630   66.2170 C   0  0  0  0  0  0  0  0  0  0  0  0
    5.0190   70.1610   66.6160 O   0  0  0  0  0  0  0  0  0  0  0  0
    2.9540   69.1970   67.1500 C   0  0  0  0  0  0  0  0  0  0  0  0
    1.8870   68.5330   66.6870 C   0  0  0  0  0  0  0  0  0  0  0  0
    1.6930   68.1910   65.3580 O   0  0  0  0  0  0  0  0  0  0  0  0
    5.5190   69.3540   61.5620 O   0  0  0  0  0  0  0  0  0  0  0  0
   -0.1470   66.5020   69.1630 C   0  0  0  0  0  0  0  0  0  0  0  0
    0.3780   65.9170   70.4800 C   0  0  0  0  0  0  0  0  0  0  0  0
    1.8040   65.3640   70.3610 C   0  0  0  0  0  0  0  0  0  0  0  0
    1.9340   63.8310   70.2940 C   0  0  0  0  0  0  0  0  0  0  0  0
    3.2090   63.3710   69.5780 C   0  0  0  0  0  0  0  0  0  0  0  0
    3.2610   61.8520   69.4560 C   0  0  0  0  0  0  0  0  0  0  0  0
    3.1480   61.2290   70.8290 N   0  0  0  0  0  4  0  0  0  0  0  0
    1.8830   61.6410   71.5430 C   0  0  0  0  0  0  0  0  0  0  0  0
    1.8340   63.1580   71.6670 C   0  0  0  0  0  0  0  0  0  0  0  0
    3.2890   59.7190   70.7940 C   0  0  0  0  0  0  0  0  0  0  0  0
    3.1430   59.0830   72.1490 C   0  0  0  0  0  0  0  0  0  0  0  0
    3.9760   59.4660   73.2110 C   0  0  0  0  0  0  0  0  0  0  0  0
    3.8190   58.8920   74.4730 C   0  0  0  0  0  0  0  0  0  0  0  0
    2.8350   57.9310   74.6870 C   0  0  0  0  0  0  0  0  0  0  0  0
    2.0070   57.5360   73.6390 C   0  0  0  0  0  0  0  0  0  0  0  0
    2.1580   58.1070   72.3740 C   0  0  0  0  0  0  0  0  0  0  0  0
    1.7853   66.4847   68.2252 H   0  0  0  0  0  0  0  0  0  0  0  0
    3.2844   68.1289   61.1197 H   0  0  0  0  0  0  0  0  0  0  0  0
    1.5512   67.5987   62.8408 H   0  0  0  0  0  0  0  0  0  0  0  0
    5.7428   70.0045   64.1430 H   0  0  0  0  0  0  0  0  0  0  0  0
    3.0248   69.4649   68.2145 H   0  0  0  0  0  0  0  0  0  0  0  0
    6.3596   69.8270   61.7850 H   0  0  0  0  0  0  0  0  0  0  0  0
   -0.8420   67.3223   69.3958 H   0  0  0  0  0  0  0  0  0  0  0  0
   -0.6434   65.6876   68.6150 H   0  0  0  0  0  0  0  0  0  0  0  0
    0.3712   66.7091   71.2433 H   0  0  0  0  0  0  0  0  0  0  0  0
   -0.2794   65.0787   70.7542 H   0  0  0  0  0  0  0  0  0  0  0  0
    2.2499   65.7792   69.4452 H   0  0  0  0  0  0  0  0  0  0  0  0
    2.3147   65.6631   71.2883 H   0  0  0  0  0  0  0  0  0  0  0  0
    1.0700   63.5065   69.6955 H   0  0  0  0  0  0  0  0  0  0  0  0
    3.2327   63.8120   68.5706 H   0  0  0  0  0  0  0  0  0  0  0  0
    4.0762   63.7009   70.1689 H   0  0  0  0  0  0  0  0  0  0  0  0
    2.4271   61.5064   68.8274 H   0  0  0  0  0  0  0  0  0  0  0  0
    4.2156   61.5547   68.9973 H   0  0  0  0  0  0  0  0  0  0  0  0
    3.9421   61.5969   71.3721 H   0  0  0  0  0  0  0  0  0  0  0  0
    1.0104   61.2926   70.9711 H   0  0  0  0  0  0  0  0  0  0  0  0
    1.8694   61.1929   72.5475 H   0  0  0  0  0  0  0  0  0  0  0  0
    2.6738   63.4939   72.2930 H   0  0  0  0  0  0  0  0  0  0  0  0
    0.8731   63.4388   72.1228 H   0  0  0  0  0  0  0  0  0  0  0  0
    2.5136   59.3100   70.1295 H   0  0  0  0  0  0  0  0  0  0  0  0
    4.3024   59.4918   70.4316 H   0  0  0  0  0  0  0  0  0  0  0  0
    4.7572   60.2230   73.0478 H   0  0  0  0  0  0  0  0  0  0  0  0
    4.4745   59.1997   75.3010 H   0  0  0  0  0  0  0  0  0  0  0  0
    2.7113   57.4834   75.6842 H   0  0  0  0  0  0  0  0  0  0  0  0
    1.2329   56.7730   73.8083 H   0  0  0  0  0  0  0  0  0  0  0  0
    1.5023   57.7910   71.5492 H   0  0  0  0  0  0  0  0  0  0  0  0
  2  1  2  0
  3  1  1  0
  5  4  2  0
  6  5  1  0
  7  6  2  0
  8  7  1  0
  9  8  2  0
  9  4  1  0
 10  8  1  0
 11 10  2  0
 12 10  1  0
 13 12  2  0
 13  1  1  0
 14 13  1  0
 14  7  1  0
 15  4  1  0
 16  3  1  0
 17 16  1  0
 18 17  1  0
 19 18  1  0
 20 19  1  0
 21 20  1  0
 22 21  1  0
 23 22  1  0
 24 19  1  0
 24 23  1  0
 25 22  1  0
 26 25  1  0
 27 26  2  0
 28 27  1  0
 29 28  2  0
 30 29  1  0
 31 30  2  0
 31 26  1  0
  3 32  1  0
  5 33  1  0
  6 34  1  0
  9 35  1  0
 12 36  1  0
 15 37  1  0
 16 38  1  0
 16 39  1  0
 17 40  1  0
 17 41  1  0
 18 42  1  0
 18 43  1  0
 19 44  1  0
 20 45  1  0
 20 46  1  0
 21 47  1  0
 21 48  1  0
 22 49  1  0
 23 50  1  0
 23 51  1  0
 24 52  1  0
 24 53  1  0
 25 54  1  0
 25 55  1  0
 27 56  1  0
 28 57  1  0
 29 58  1  0
 30 59  1  0
 31 60  1  0
M  CHG  1  22   1
M  END
>  <score>  (2) 
-11.053

$$$$
=
     RDKit          3D

 60 63  0  0  0  0  0  0  0  0999 V2000
    0.4750   68.3220   67.2470 C   0  0  0  0  0  0  0  0  0  0  0  0
    0.5240   69.2720   68.0200 O   0  0  0  0  0  0  0  0  0  0  0  0
    0.1230   67.0450   67.6270 N   0  0  0  0  0  0  0  0  0  0  0  0
    3.2080   68.8760   61.4510 C   0  0  0  0  0  0  0  0  0  0  0  0
    4.1770   68.7830   62.4480 C   0  0  0  0  0  0  0  0  0  0  0  0
    3.7910   68.6580   63.7850 C   0  0  0  0  0  0  0  0  0  0  0  0
    2.4370   68.6280   64.1120 C   0  0  0  0  0  0  0  0  0  0  0  0
    1.4770   68.7200   63.1050 C   0  0  0  0  0  0  0  0  0  0  0  0
    1.8540   68.8460   61.7640 C   0  0  0  0  0  0  0  0  0  0  0  0
    0.0580   68.6800   63.4830 C   0  0  0  0  0  0  0  0  0  0  0  0
   -0.8480   68.7460   62.6640 O   0  0  0  0  0  0  0  0  0  0  0  0
   -0.2400   68.5560   64.9170 C   0  0  0  0  0  0  0  0  0  0  0  0
    0.7730   68.4970   65.7920 C   0  0  0  0  0  0  0  0  0  0  0  0
    2.1130   68.5030   65.4390 O   0  0  0  0  0  0  0  0  0  0  0  0
    3.6390   68.9970   60.1650 O   0  0  0  0  0  0  0  0  0  0  0  0
   -0.3110   66.7460   68.9780 C   0  0  0  0  0  0  0  0  0  0  0  0
    0.8560   66.4480   69.9270 C   0  0  0  0  0  0  0  0  0  0  0  0
    0.4910   65.4430   71.0270 C   0  0  0  0  0  0  0  0  0  0  0  0
    0.9820   63.9980   70.8180 C   0  0  0  0  0  0  0  0  0  0  0  0
    2.4390   63.9250   70.3500 C   0  0  0  0  0  0  0  0  0  0  0  0
    2.8630   62.4870   70.0720 C   0  0  0  0  0  0  0  0  0  0  0  0
    2.6400   61.6450   71.3090 N   0  0  0  0  0  4  0  0  0  0  0  0
    1.2040   61.6750   71.7710 C   0  0  0  0  0  0  0  0  0  0  0  0
    0.7840   63.1120   72.0520 C   0  0  0  0  0  0  0  0  0  0  0  0
    3.1300   60.2210   71.1350 C   0  0  0  0  0  0  0  0  0  0  0  0
    3.0000   59.3970   72.3870 C   0  0  0  0  0  0  0  0  0  0  0  0
    2.1210   58.3050   72.4340 C   0  0  0  0  0  0  0  0  0  0  0  0
    2.0230   57.5270   73.5890 C   0  0  0  0  0  0  0  0  0  0  0  0
    2.7970   57.8330   74.7050 C   0  0  0  0  0  0  0  0  0  0  0  0
    3.6690   58.9180   74.6730 C   0  0  0  0  0  0  0  0  0  0  0  0
    3.7710   59.7000   73.5210 C   0  0  0  0  0  0  0  0  0  0  0  0
    0.1693   66.2841   66.9343 H   0  0  0  0  0  0  0  0  0  0  0  0
    5.2443   68.8080   62.1828 H   0  0  0  0  0  0  0  0  0  0  0  0
    4.5523   68.5836   64.5755 H   0  0  0  0  0  0  0  0  0  0  0  0
    1.0938   68.9199   60.9724 H   0  0  0  0  0  0  0  0  0  0  0  0
   -1.2818   68.5122   65.2675 H   0  0  0  0  0  0  0  0  0  0  0  0
    2.9824   69.0659   59.4273 H   0  0  0  0  0  0  0  0  0  0  0  0
   -0.8680   67.6110   69.3673 H   0  0  0  0  0  0  0  0  0  0  0  0
   -0.9376   65.8431   68.9314 H   0  0  0  0  0  0  0  0  0  0  0  0
    1.6900   66.0370   69.3391 H   0  0  0  0  0  0  0  0  0  0  0  0
    1.1286   67.3924   70.4208 H   0  0  0  0  0  0  0  0  0  0  0  0
    0.9188   65.8095   71.9718 H   0  0  0  0  0  0  0  0  0  0  0  0
   -0.6074   65.3847   71.0198 H   0  0  0  0  0  0  0  0  0  0  0  0
    0.3450   63.6028   70.0130 H   0  0  0  0  0  0  0  0  0  0  0  0
    2.5487   64.5150   69.4281 H   0  0  0  0  0  0  0  0  0  0  0  0
    3.0796   64.3263   71.1491 H   0  0  0  0  0  0  0  0  0  0  0  0
    2.2656   62.0831   69.2414 H   0  0  0  0  0  0  0  0  0  0  0  0
    3.9293   62.4657   69.8024 H   0  0  0  0  0  0  0  0  0  0  0  0
    3.2102   62.0751   72.0511 H   0  0  0  0  0  0  0  0  0  0  0  0
    0.5588   61.2524   70.9867 H   0  0  0  0  0  0  0  0  0  0  0  0
    1.1053   61.0805   72.6912 H   0  0  0  0  0  0  0  0  0  0  0  0
    1.3911   63.5081   72.8793 H   0  0  0  0  0  0  0  0  0  0  0  0
   -0.2835   63.1175   72.3173 H   0  0  0  0  0  0  0  0  0  0  0  0
    2.5416   59.7428   70.3381 H   0  0  0  0  0  0  0  0  0  0  0  0
    4.1996   60.2698   70.8830 H   0  0  0  0  0  0  0  0  0  0  0  0
    1.5054   58.0602   71.5559 H   0  0  0  0  0  0  0  0  0  0  0  0
    1.3331   56.6707   73.6173 H   0  0  0  0  0  0  0  0  0  0  0  0
    2.7196   57.2169   75.6130 H   0  0  0  0  0  0  0  0  0  0  0  0
    4.2783   59.1593   75.5565 H   0  0  0  0  0  0  0  0  0  0  0  0
    4.4590   60.5581   73.5014 H   0  0  0  0  0  0  0  0  0  0  0  0
  2  1  2  0
  3  1  1  0
  5  4  2  0
  6  5  1  0
  7  6  2  0
  8  7  1  0
  9  8  2  0
  9  4  1  0
 10  8  1  0
 11 10  2  0
 12 10  1  0
 13 12  2  0
 13  1  1  0
 14 13  1  0
 14  7  1  0
 15  4  1  0
 16  3  1  0
 17 16  1  0
 18 17  1  0
 19 18  1  0
 20 19  1  0
 21 20  1  0
 22 21  1  0
 23 22  1  0
 24 19  1  0
 24 23  1  0
 25 22  1  0
 26 25  1  0
 27 26  2  0
 28 27  1  0
 29 28  2  0
 30 29  1  0
 31 30  2  0
 31 26  1  0
  3 32  1  0
  5 33  1  0
  6 34  1  0
  9 35  1  0
 12 36  1  0
 15 37  1  0
 16 38  1  0
 16 39  1  0
 17 40  1  0
 17 41  1  0
 18 42  1  0
 18 43  1  0
 19 44  1  0
 20 45  1  0
 20 46  1  0
 21 47  1  0
 21 48  1  0
 22 49  1  0
 23 50  1  0
 23 51  1  0
 24 52  1  0
 24 53  1  0
 25 54  1  0
 25 55  1  0
 27 56  1  0
 28 57  1  0
 29 58  1  0
 30 59  1  0
 31 60  1  0
M  CHG  1  22   1
M  END
>  <score>  (3) 
-10.805

$$$$
=
     RDKit          3D

 60 63  0  0  0  0  0  0  0  0999 V2000
    0.4610   67.7960   67.9560 C   0  0  0  0  0  0  0  0  0  0  0  0
   -0.6660   68.1240   67.6040 O   0  0  0  0  0  0  0  0  0  0  0  0
    0.7130   66.8660   68.9420 N   0  0  0  0  0  0  0  0  0  0  0  0
    6.0120   70.7320   66.5660 C   0  0  0  0  0  0  0  0  0  0  0  0
    5.6730   70.9220   67.9040 C   0  0  0  0  0  0  0  0  0  0  0  0
    4.4970   70.3660   68.4110 C   0  0  0  0  0  0  0  0  0  0  0  0
    3.6680   69.6220   67.5720 C   0  0  0  0  0  0  0  0  0  0  0  0
    4.0200   69.4370   66.2350 C   0  0  0  0  0  0  0  0  0  0  0  0
    5.1950   69.9920   65.7190 C   0  0  0  0  0  0  0  0  0  0  0  0
    3.1270   68.6450   65.3800 C   0  0  0  0  0  0  0  0  0  0  0  0
    3.3630   68.4260   64.1990 O   0  0  0  0  0  0  0  0  0  0  0  0
    1.9100   68.1110   66.0080 C   0  0  0  0  0  0  0  0  0  0  0  0
    1.6730   68.3770   67.3000 C   0  0  0  0  0  0  0  0  0  0  0  0
    2.5260   69.0980   68.1200 O   0  0  0  0  0  0  0  0  0  0  0  0
    7.1700   71.2970   66.1240 O   0  0  0  0  0  0  0  0  0  0  0  0
   -0.3570   66.1280   69.5830 C   0  0  0  0  0  0  0  0  0  0  0  0
    0.1430   64.9010   70.3540 C   0  0  0  0  0  0  0  0  0  0  0  0
    1.6690   64.8730   70.5090 C   0  0  0  0  0  0  0  0  0  0  0  0
    2.2870   63.5220   70.9140 C   0  0  0  0  0  0  0  0  0  0  0  0
    3.7910   63.4440   70.6280 C   0  0  0  0  0  0  0  0  0  0  0  0
    4.3490   62.0650   70.9620 C   0  0  0  0  0  0  0  0  0  0  0  0
    4.0470   61.7310   72.4050 N   0  0  0  0  0  4  0  0  0  0  0  0
    2.5680   61.7690   72.7040 C   0  0  0  0  0  0  0  0  0  0  0  0
    2.0120   63.1480   72.3740 C   0  0  0  0  0  0  0  0  0  0  0  0
    4.6580   60.4110   72.8350 C   0  0  0  0  0  0  0  0  0  0  0  0
    3.7060   59.2540   72.7110 C   0  0  0  0  0  0  0  0  0  0  0  0
    3.5060   58.6240   71.4740 C   0  0  0  0  0  0  0  0  0  0  0  0
    2.6410   57.5330   71.3690 C   0  0  0  0  0  0  0  0  0  0  0  0
    1.9680   57.0640   72.4940 C   0  0  0  0  0  0  0  0  0  0  0  0
    2.1530   57.6860   73.7270 C   0  0  0  0  0  0  0  0  0  0  0  0
    3.0170   58.7770   73.8380 C   0  0  0  0  0  0  0  0  0  0  0  0
    1.6862   66.6913   69.2304 H   0  0  0  0  0  0  0  0  0  0  0  0
    6.3315   71.5097   68.5605 H   0  0  0  0  0  0  0  0  0  0  0  0
    4.2258   70.5140   69.4667 H   0  0  0  0  0  0  0  0  0  0  0  0
    5.4676   69.8459   64.6634 H   0  0  0  0  0  0  0  0  0  0  0  0
    1.2035   67.5014   65.4255 H   0  0  0  0  0  0  0  0  0  0  0  0
    7.4464   71.1853   65.1800 H   0  0  0  0  0  0  0  0  0  0  0  0
   -0.8732   66.7980   70.2863 H   0  0  0  0  0  0  0  0  0  0  0  0
   -1.0304   65.7683   68.7910 H   0  0  0  0  0  0  0  0  0  0  0  0
   -0.3113   64.9071   71.3558 H   0  0  0  0  0  0  0  0  0  0  0  0
   -0.1462   64.0095   69.7782 H   0  0  0  0  0  0  0  0  0  0  0  0
    2.1096   65.1681   69.5453 H   0  0  0  0  0  0  0  0  0  0  0  0
    1.8930   65.5595   71.3388 H   0  0  0  0  0  0  0  0  0  0  0  0
    1.7795   62.7837   70.2758 H   0  0  0  0  0  0  0  0  0  0  0  0
    3.9640   63.6516   69.5617 H   0  0  0  0  0  0  0  0  0  0  0  0
    4.3026   64.1868   71.2578 H   0  0  0  0  0  0  0  0  0  0  0  0
    3.8836   61.3135   70.3073 H   0  0  0  0  0  0  0  0  0  0  0  0
    5.4381   62.0646   70.8074 H   0  0  0  0  0  0  0  0  0  0  0  0
    4.4940   62.4706   72.9655 H   0  0  0  0  0  0  0  0  0  0  0  0
    2.0524   61.0117   72.0951 H   0  0  0  0  0  0  0  0  0  0  0  0
    2.4069   61.5575   73.7714 H   0  0  0  0  0  0  0  0  0  0  0  0
    2.4862   63.8925   73.0304 H   0  0  0  0  0  0  0  0  0  0  0  0
    0.9232   63.1307   72.5297 H   0  0  0  0  0  0  0  0  0  0  0  0
    5.5373   60.2103   72.2053 H   0  0  0  0  0  0  0  0  0  0  0  0
    4.9260   60.5036   73.8978 H   0  0  0  0  0  0  0  0  0  0  0  0
    4.0336   58.9915   70.5815 H   0  0  0  0  0  0  0  0  0  0  0  0
    2.4910   57.0431   70.3956 H   0  0  0  0  0  0  0  0  0  0  0  0
    1.2899   56.2020   72.4094 H   0  0  0  0  0  0  0  0  0  0  0  0
    1.6176   57.3169   74.6142 H   0  0  0  0  0  0  0  0  0  0  0  0
    3.1588   59.2656   74.8133 H   0  0  0  0  0  0  0  0  0  0  0  0
  2  1  2  0
  3  1  1  0
  5  4  2  0
  6  5  1  0
  7  6  2  0
  8  7  1  0
  9  8  2  0
  9  4  1  0
 10  8  1  0
 11 10  2  0
 12 10  1  0
 13 12  2  0
 13  1  1  0
 14 13  1  0
 14  7  1  0
 15  4  1  0
 16  3  1  0
 17 16  1  0
 18 17  1  0
 19 18  1  0
 20 19  1  0
 21 20  1  0
 22 21  1  0
 23 22  1  0
 24 19  1  0
 24 23  1  0
 25 22  1  0
 26 25  1  0
 27 26  2  0
 28 27  1  0
 29 28  2  0
 30 29  1  0
 31 30  2  0
 31 26  1  0
  3 32  1  0
  5 33  1  0
  6 34  1  0
  9 35  1  0
 12 36  1  0
 15 37  1  0
 16 38  1  0
 16 39  1  0
 17 40  1  0
 17 41  1  0
 18 42  1  0
 18 43  1  0
 19 44  1  0
 20 45  1  0
 20 46  1  0
 21 47  1  0
 21 48  1  0
 22 49  1  0
 23 50  1  0
 23 51  1  0
 24 52  1  0
 24 53  1  0
 25 54  1  0
 25 55  1  0
 27 56  1  0
 28 57  1  0
 29 58  1  0
 30 59  1  0
 31 60  1  0
M  CHG  1  22   1
M  END
>  <score>  (4) 
-10.562

$$$$
=
     RDKit          3D

 60 63  0  0  0  0  0  0  0  0999 V2000
    0.0640   67.9760   67.5170 C   0  0  0  0  0  0  0  0  0  0  0  0
   -0.8960   68.6860   67.7930 O   0  0  0  0  0  0  0  0  0  0  0  0
    0.4670   66.9050   68.2860 N   0  0  0  0  0  0  0  0  0  0  0  0
    4.6660   69.1580   63.1820 C   0  0  0  0  0  0  0  0  0  0  0  0
    5.1550   69.3130   64.4780 C   0  0  0  0  0  0  0  0  0  0  0  0
    4.3110   69.1050   65.5710 C   0  0  0  0  0  0  0  0  0  0  0  0
    2.9820   68.7410   65.3570 C   0  0  0  0  0  0  0  0  0  0  0  0
    2.5060   68.5860   64.0550 C   0  0  0  0  0  0  0  0  0  0  0  0
    3.3440   68.7940   62.9550 C   0  0  0  0  0  0  0  0  0  0  0  0
    1.1020   68.1970   63.8650 C   0  0  0  0  0  0  0  0  0  0  0  0
    0.6050   68.0310   62.7590 O   0  0  0  0  0  0  0  0  0  0  0  0
    0.2970   68.0110   65.0800 C   0  0  0  0  0  0  0  0  0  0  0  0
    0.8650   68.2110   66.2760 C   0  0  0  0  0  0  0  0  0  0  0  0
    2.1970   68.5480   66.4640 O   0  0  0  0  0  0  0  0  0  0  0  0
    5.5320   69.3740   62.1530 O   0  0  0  0  0  0  0  0  0  0  0  0
   -0.2840   66.4780   69.4500 C   0  0  0  0  0  0  0  0  0  0  0  0
    0.5270   65.5720   70.3840 C   0  0  0  0  0  0  0  0  0  0  0  0
    1.9310   65.2640   69.8470 C   0  0  0  0  0  0  0  0  0  0  0  0
    2.7270   64.1860   70.6060 C   0  0  0  0  0  0  0  0  0  0  0  0
    1.8280   63.2220   71.3890 C   0  0  0  0  0  0  0  0  0  0  0  0
    2.6530   62.2230   72.1930 C   0  0  0  0  0  0  0  0  0  0  0  0
    3.5870   61.4750   71.2680 N   0  0  0  0  0  4  0  0  0  0  0  0
    4.5050   62.4010   70.5090 C   0  0  0  0  0  0  0  0  0  0  0  0
    3.6800   63.3960   69.7030 C   0  0  0  0  0  0  0  0  0  0  0  0
    4.3720   60.3950   71.9880 C   0  0  0  0  0  0  0  0  0  0  0  0
    3.5270   59.2120   72.3750 C   0  0  0  0  0  0  0  0  0  0  0  0
    3.0410   58.3330   71.3960 C   0  0  0  0  0  0  0  0  0  0  0  0
    2.2790   57.2210   71.7620 C   0  0  0  0  0  0  0  0  0  0  0  0
    1.9950   56.9790   73.1020 C   0  0  0  0  0  0  0  0  0  0  0  0
    2.4670   57.8490   74.0830 C   0  0  0  0  0  0  0  0  0  0  0  0
    3.2290   58.9620   73.7240 C   0  0  0  0  0  0  0  0  0  0  0  0
    1.3236   66.3952   68.0268 H   0  0  0  0  0  0  0  0  0  0  0  0
    6.2048   69.5989   64.6397 H   0  0  0  0  0  0  0  0  0  0  0  0
    4.6926   69.2277   66.5954 H   0  0  0  0  0  0  0  0  0  0  0  0
    2.9642   68.6719   61.9299 H   0  0  0  0  0  0  0  0  0  0  0  0
   -0.7589   67.7112   65.0080 H   0  0  0  0  0  0  0  0  0  0  0  0
    5.2239   69.2742   61.2175 H   0  0  0  0  0  0  0  0  0  0  0  0
   -0.5979   67.3701   70.0118 H   0  0  0  0  0  0  0  0  0  0  0  0
   -1.1457   65.8957   69.0915 H   0  0  0  0  0  0  0  0  0  0  0  0
    0.6260   66.0718   71.3589 H   0  0  0  0  0  0  0  0  0  0  0  0
   -0.0117   64.6165   70.4664 H   0  0  0  0  0  0  0  0  0  0  0  0
    1.8260   64.9316   68.8037 H   0  0  0  0  0  0  0  0  0  0  0  0
    2.5042   66.1948   69.9697 H   0  0  0  0  0  0  0  0  0  0  0  0
    3.3360   64.7483   71.3291 H   0  0  0  0  0  0  0  0  0  0  0  0
    1.1961   63.8015   72.0782 H   0  0  0  0  0  0  0  0  0  0  0  0
    1.2103   62.6631   70.6706 H   0  0  0  0  0  0  0  0  0  0  0  0
    3.2415   62.7605   72.9511 H   0  0  0  0  0  0  0  0  0  0  0  0
    1.9795   61.5080   72.6882 H   0  0  0  0  0  0  0  0  0  0  0  0
    2.9846   61.0054   70.5770 H   0  0  0  0  0  0  0  0  0  0  0  0
    5.1432   62.9464   71.2198 H   0  0  0  0  0  0  0  0  0  0  0  0
    5.1332   61.8110   69.8254 H   0  0  0  0  0  0  0  0  0  0  0  0
    3.0915   62.8488   68.9519 H   0  0  0  0  0  0  0  0  0  0  0  0
    4.3667   64.1046   69.2169 H   0  0  0  0  0  0  0  0  0  0  0  0
    5.1787   60.0477   71.3257 H   0  0  0  0  0  0  0  0  0  0  0  0
    4.7637   60.8368   72.9161 H   0  0  0  0  0  0  0  0  0  0  0  0
    3.2610   58.5203   70.3346 H   0  0  0  0  0  0  0  0  0  0  0  0
    1.9027   56.5351   70.9888 H   0  0  0  0  0  0  0  0  0  0  0  0
    1.3976   56.1006   73.3875 H   0  0  0  0  0  0  0  0  0  0  0  0
    2.2387   57.6583   75.1420 H   0  0  0  0  0  0  0  0  0  0  0  0
    3.5979   59.6467   74.5019 H   0  0  0  0  0  0  0  0  0  0  0  0
  2  1  2  0
  3  1  1  0
  5  4  2  0
  6  5  1  0
  7  6  2  0
  8  7  1  0
  9  8  2  0
  9  4  1  0
 10  8  1  0
 11 10  2  0
 12 10  1  0
 13 12  2  0
 13  1  1  0
 14 13  1  0
 14  7  1  0
 15  4  1  0
 16  3  1  0
 17 16  1  0
 18 17  1  0
 19 18  1  0
 20 19  1  0
 21 20  1  0
 22 21  1  0
 23 22  1  0
 24 19  1  0
 24 23  1  0
 25 22  1  0
 26 25  1  0
 27 26  2  0
 28 27  1  0
 29 28  2  0
 30 29  1  0
 31 30  2  0
 31 26  1  0
  3 32  1  0
  5 33  1  0
  6 34  1  0
  9 35  1  0
 12 36  1  0
 15 37  1  0
 16 38  1  0
 16 39  1  0
 17 40  1  0
 17 41  1  0
 18 42  1  0
 18 43  1  0
 19 44  1  0
 20 45  1  0
 20 46  1  0
 21 47  1  0
 21 48  1  0
 22 49  1  0
 23 50  1  0
 23 51  1  0
 24 52  1  0
 24 53  1  0
 25 54  1  0
 25 55  1  0
 27 56  1  0
 28 57  1  0
 29 58  1  0
 30 59  1  0
 31 60  1  0
M  CHG  1  22   1
M  END
>  <score>  (5) 
-10.44

$$$$
=
     RDKit          3D

 60 63  0  0  0  0  0  0  0  0999 V2000
    0.5080   64.9980   70.8170 C   0  0  0  0  0  0  0  0  0  0  0  0
   -0.0890   65.5040   71.7600 O   0  0  0  0  0  0  0  0  0  0  0  0
    0.4860   65.5090   69.5370 N   0  0  0  0  0  0  0  0  0  0  0  0
    2.8540   59.1940   72.2940 C   0  0  0  0  0  0  0  0  0  0  0  0
    1.5820   59.3660   72.8340 C   0  0  0  0  0  0  0  0  0  0  0  0
    0.8940   60.5640   72.6310 C   0  0  0  0  0  0  0  0  0  0  0  0
    1.4880   61.5830   71.8870 C   0  0  0  0  0  0  0  0  0  0  0  0
    2.7620   61.3980   71.3500 C   0  0  0  0  0  0  0  0  0  0  0  0
    3.4570   60.2010   71.5490 C   0  0  0  0  0  0  0  0  0  0  0  0
    3.3560   62.4890   70.5680 C   0  0  0  0  0  0  0  0  0  0  0  0
    4.4630   62.4090   70.0540 O   0  0  0  0  0  0  0  0  0  0  0  0
    2.5530   63.7120   70.4210 C   0  0  0  0  0  0  0  0  0  0  0  0
    1.3490   63.7750   71.0040 C   0  0  0  0  0  0  0  0  0  0  0  0
    0.7690   62.7380   71.7180 O   0  0  0  0  0  0  0  0  0  0  0  0
    3.4810   58.0070   72.5230 O   0  0  0  0  0  0  0  0  0  0  0  0
   -0.1840   66.7560   69.2280 C   0  0  0  0  0  0  0  0  0  0  0  0
   -1.3130   66.5880   68.2030 C   0  0  0  0  0  0  0  0  0  0  0  0
   -1.4790   67.8100   67.2910 C   0  0  0  0  0  0  0  0  0  0  0  0
   -0.1800   68.4350   66.7500 C   0  0  0  0  0  0  0  0  0  0  0  0
    0.6790   69.0720   67.8490 C   0  0  0  0  0  0  0  0  0  0  0  0
    1.9120   69.7530   67.2660 C   0  0  0  0  0  0  0  0  0  0  0  0
    2.7090   68.7550   66.4570 N   0  0  0  0  0  4  0  0  0  0  0  0
    1.8940   68.1380   65.3470 C   0  0  0  0  0  0  0  0  0  0  0  0
    0.6640   67.4540   65.9300 C   0  0  0  0  0  0  0  0  0  0  0  0
    4.0030   69.3410   65.9250 C   0  0  0  0  0  0  0  0  0  0  0  0
    4.9000   69.8660   67.0120 C   0  0  0  0  0  0  0  0  0  0  0  0
    6.2710   70.0490   66.7780 C   0  0  0  0  0  0  0  0  0  0  0  0
    7.0960   70.5620   67.7800 C   0  0  0  0  0  0  0  0  0  0  0  0
    6.5630   70.8930   69.0230 C   0  0  0  0  0  0  0  0  0  0  0  0
    5.2050   70.7090   69.2700 C   0  0  0  0  0  0  0  0  0  0  0  0
    4.3750   70.1970   68.2710 C   0  0  0  0  0  0  0  0  0  0  0  0
    0.9575   64.9916   68.7815 H   0  0  0  0  0  0  0  0  0  0  0  0
    1.1194   58.5584   73.4203 H   0  0  0  0  0  0  0  0  0  0  0  0
   -0.1111   60.7032   73.0557 H   0  0  0  0  0  0  0  0  0  0  0  0
    4.4617   60.0589   71.1242 H   0  0  0  0  0  0  0  0  0  0  0  0
    2.9361   64.5638   69.8399 H   0  0  0  0  0  0  0  0  0  0  0  0
    4.3863   57.8464   72.1558 H   0  0  0  0  0  0  0  0  0  0  0  0
   -0.6102   67.1650   70.1560 H   0  0  0  0  0  0  0  0  0  0  0  0
    0.5635   67.4327   68.7884 H   0  0  0  0  0  0  0  0  0  0  0  0
   -1.0912   65.7109   67.5774 H   0  0  0  0  0  0  0  0  0  0  0  0
   -2.2515   66.4649   68.7634 H   0  0  0  0  0  0  0  0  0  0  0  0
   -2.0894   67.5047   66.4283 H   0  0  0  0  0  0  0  0  0  0  0  0
   -1.9401   68.5862   67.9194 H   0  0  0  0  0  0  0  0  0  0  0  0
   -0.5189   69.2345   66.0748 H   0  0  0  0  0  0  0  0  0  0  0  0
    0.0769   69.8201   68.3855 H   0  0  0  0  0  0  0  0  0  0  0  0
    1.0128   68.2771   68.5322 H   0  0  0  0  0  0  0  0  0  0  0  0
    1.5985   70.5835   66.6164 H   0  0  0  0  0  0  0  0  0  0  0  0
    2.5362   70.1405   68.0847 H   0  0  0  0  0  0  0  0  0  0  0  0
    2.9627   67.9998   67.1099 H   0  0  0  0  0  0  0  0  0  0  0  0
    1.5770   68.9242   64.6461 H   0  0  0  0  0  0  0  0  0  0  0  0
    2.5065   67.3941   64.8165 H   0  0  0  0  0  0  0  0  0  0  0  0
    0.9875   66.6282   66.5807 H   0  0  0  0  0  0  0  0  0  0  0  0
    0.0496   67.0761   65.0996 H   0  0  0  0  0  0  0  0  0  0  0  0
    4.5424   68.5569   65.3734 H   0  0  0  0  0  0  0  0  0  0  0  0
    3.7385   70.1900   65.2775 H   0  0  0  0  0  0  0  0  0  0  0  0
    6.6983   69.7866   65.7990 H   0  0  0  0  0  0  0  0  0  0  0  0
    8.1695   70.7051   67.5874 H   0  0  0  0  0  0  0  0  0  0  0  0
    7.2148   71.3000   69.8101 H   0  0  0  0  0  0  0  0  0  0  0  0
    4.7857   70.9674   70.2536 H   0  0  0  0  0  0  0  0  0  0  0  0
    3.3032   70.0521   68.4717 H   0  0  0  0  0  0  0  0  0  0  0  0
  2  1  2  0
  3  1  1  0
  5  4  2  0
  6  5  1  0
  7  6  2  0
  8  7  1  0
  9  8  2  0
  9  4  1  0
 10  8  1  0
 11 10  2  0
 12 10  1  0
 13 12  2  0
 13  1  1  0
 14 13  1  0
 14  7  1  0
 15  4  1  0
 16  3  1  0
 17 16  1  0
 18 17  1  0
 19 18  1  0
 20 19  1  0
 21 20  1  0
 22 21  1  0
 23 22  1  0
 24 19  1  0
 24 23  1  0
 25 22  1  0
 26 25  1  0
 27 26  2  0
 28 27  1  0
 29 28  2  0
 30 29  1  0
 31 30  2  0
 31 26  1  0
  3 32  1  0
  5 33  1  0
  6 34  1  0
  9 35  1  0
 12 36  1  0
 15 37  1  0
 16 38  1  0
 16 39  1  0
 17 40  1  0
 17 41  1  0
 18 42  1  0
 18 43  1  0
 19 44  1  0
 20 45  1  0
 20 46  1  0
 21 47  1  0
 21 48  1  0
 22 49  1  0
 23 50  1  0
 23 51  1  0
 24 52  1  0
 24 53  1  0
 25 54  1  0
 25 55  1  0
 27 56  1  0
 28 57  1  0
 29 58  1  0
 30 59  1  0
 31 60  1  0
M  CHG  1  22   1
M  END
>  <score>  (6) 
-10.249

$$$$
=
     RDKit          3D

 60 63  0  0  0  0  0  0  0  0999 V2000
    0.3780   64.3940   71.3800 C   0  0  0  0  0  0  0  0  0  0  0  0
   -0.0780   64.9980   72.3440 O   0  0  0  0  0  0  0  0  0  0  0  0
    0.4470   64.9250   70.1100 N   0  0  0  0  0  0  0  0  0  0  0  0
    3.4460   58.7850   70.6780 C   0  0  0  0  0  0  0  0  0  0  0  0
    3.6040   59.5810   69.5450 C   0  0  0  0  0  0  0  0  0  0  0  0
    3.0110   60.8440   69.4930 C   0  0  0  0  0  0  0  0  0  0  0  0
    2.2630   61.3010   70.5770 C   0  0  0  0  0  0  0  0  0  0  0  0
    2.1140   60.4960   71.7060 C   0  0  0  0  0  0  0  0  0  0  0  0
    2.7040   59.2290   71.7670 C   0  0  0  0  0  0  0  0  0  0  0  0
    1.3240   61.0090   72.8320 C   0  0  0  0  0  0  0  0  0  0  0  0
    1.1500   60.3730   73.8630 O   0  0  0  0  0  0  0  0  0  0  0  0
    0.7350   62.3460   72.6730 C   0  0  0  0  0  0  0  0  0  0  0  0
    0.9340   63.0140   71.5280 C   0  0  0  0  0  0  0  0  0  0  0  0
    1.7030   62.5490   70.4740 O   0  0  0  0  0  0  0  0  0  0  0  0
    4.0450   57.5620   70.6760 O   0  0  0  0  0  0  0  0  0  0  0  0
    0.0610   66.2950   69.8350 C   0  0  0  0  0  0  0  0  0  0  0  0
   -1.1000   66.3990   68.8380 C   0  0  0  0  0  0  0  0  0  0  0  0
   -0.8680   67.4650   67.7600 C   0  0  0  0  0  0  0  0  0  0  0  0
    0.6010   67.7750   67.4160 C   0  0  0  0  0  0  0  0  0  0  0  0
    0.9700   67.3920   65.9780 C   0  0  0  0  0  0  0  0  0  0  0  0
    2.4500   67.6330   65.7010 C   0  0  0  0  0  0  0  0  0  0  0  0
    2.7900   69.0780   65.9890 N   0  0  0  0  0  4  0  0  0  0  0  0
    2.4660   69.4710   67.4090 C   0  0  0  0  0  0  0  0  0  0  0  0
    0.9870   69.2330   67.6840 C   0  0  0  0  0  0  0  0  0  0  0  0
    4.2280   69.4140   65.6430 C   0  0  0  0  0  0  0  0  0  0  0  0
    5.0130   69.9240   66.8200 C   0  0  0  0  0  0  0  0  0  0  0  0
    6.4030   70.0930   66.7320 C   0  0  0  0  0  0  0  0  0  0  0  0
    7.1240   70.5920   67.8190 C   0  0  0  0  0  0  0  0  0  0  0  0
    6.4670   70.9220   69.0000 C   0  0  0  0  0  0  0  0  0  0  0  0
    5.0880   70.7520   69.1030 C   0  0  0  0  0  0  0  0  0  0  0  0
    4.3620   70.2550   68.0200 C   0  0  0  0  0  0  0  0  0  0  0  0
    0.7815   64.3331   69.3363 H   0  0  0  0  0  0  0  0  0  0  0  0
    4.1952   59.2147   68.6927 H   0  0  0  0  0  0  0  0  0  0  0  0
    3.1335   61.4756   68.6007 H   0  0  0  0  0  0  0  0  0  0  0  0
    2.5833   58.5965   72.6588 H   0  0  0  0  0  0  0  0  0  0  0  0
    0.1390   62.7925   73.4826 H   0  0  0  0  0  0  0  0  0  0  0  0
    3.9568   56.9663   71.4618 H   0  0  0  0  0  0  0  0  0  0  0  0
   -0.2435   66.7702   70.7792 H   0  0  0  0  0  0  0  0  0  0  0  0
    0.9291   66.7986   69.3847 H   0  0  0  0  0  0  0  0  0  0  0  0
   -1.2279   65.4238   68.3454 H   0  0  0  0  0  0  0  0  0  0  0  0
   -1.9961   66.6924   69.4046 H   0  0  0  0  0  0  0  0  0  0  0  0
   -1.3638   67.1246   66.8390 H   0  0  0  0  0  0  0  0  0  0  0  0
   -1.2765   68.3980   68.1755 H   0  0  0  0  0  0  0  0  0  0  0  0
    1.1849   67.1409   68.0994 H   0  0  0  0  0  0  0  0  0  0  0  0
    0.7456   66.3264   65.8225 H   0  0  0  0  0  0  0  0  0  0  0  0
    0.3824   68.0187   65.2909 H   0  0  0  0  0  0  0  0  0  0  0  0
    3.0547   66.9788   66.3463 H   0  0  0  0  0  0  0  0  0  0  0  0
    2.6657   67.4098   64.6457 H   0  0  0  0  0  0  0  0  0  0  0  0
    2.1877   69.6390   65.3698 H   0  0  0  0  0  0  0  0  0  0  0  0
    3.0686   68.8658   68.1022 H   0  0  0  0  0  0  0  0  0  0  0  0
    2.6958   70.5371   67.5529 H   0  0  0  0  0  0  0  0  0  0  0  0
    0.3909   69.8877   67.0313 H   0  0  0  0  0  0  0  0  0  0  0  0
    0.7893   69.4565   68.7428 H   0  0  0  0  0  0  0  0  0  0  0  0
    4.7180   68.5058   65.2621 H   0  0  0  0  0  0  0  0  0  0  0  0
    4.2061   70.2159   64.8904 H   0  0  0  0  0  0  0  0  0  0  0  0
    6.9279   69.8310   65.8015 H   0  0  0  0  0  0  0  0  0  0  0  0
    8.2132   70.7243   67.7412 H   0  0  0  0  0  0  0  0  0  0  0  0
    7.0370   71.3176   69.8536 H   0  0  0  0  0  0  0  0  0  0  0  0
    4.5710   71.0099   70.0391 H   0  0  0  0  0  0  0  0  0  0  0  0
    3.2735   70.1216   68.1064 H   0  0  0  0  0  0  0  0  0  0  0  0
  2  1  2  0
  3  1  1  0
  5  4  2  0
  6  5  1  0
  7  6  2  0
  8  7  1  0
  9  8  2  0
  9  4  1  0
 10  8  1  0
 11 10  2  0
 12 10  1  0
 13 12  2  0
 13  1  1  0
 14 13  1  0
 14  7  1  0
 15  4  1  0
 16  3  1  0
 17 16  1  0
 18 17  1  0
 19 18  1  0
 20 19  1  0
 21 20  1  0
 22 21  1  0
 23 22  1  0
 24 19  1  0
 24 23  1  0
 25 22  1  0
 26 25  1  0
 27 26  2  0
 28 27  1  0
 29 28  2  0
 30 29  1  0
 31 30  2  0
 31 26  1  0
  3 32  1  0
  5 33  1  0
  6 34  1  0
  9 35  1  0
 12 36  1  0
 15 37  1  0
 16 38  1  0
 16 39  1  0
 17 40  1  0
 17 41  1  0
 18 42  1  0
 18 43  1  0
 19 44  1  0
 20 45  1  0
 20 46  1  0
 21 47  1  0
 21 48  1  0
 22 49  1  0
 23 50  1  0
 23 51  1  0
 24 52  1  0
 24 53  1  0
 25 54  1  0
 25 55  1  0
 27 56  1  0
 28 57  1  0
 29 58  1  0
 30 59  1  0
 31 60  1  0
M  CHG  1  22   1
M  END
>  <score>  (7) 
-10.175

$$$$
=
     RDKit          3D

 60 63  0  0  0  0  0  0  0  0999 V2000
    0.2680   63.4540   72.5170 C   0  0  0  0  0  0  0  0  0  0  0  0
   -0.2820   63.8170   73.5510 O   0  0  0  0  0  0  0  0  0  0  0  0
    0.4580   64.2730   71.4250 N   0  0  0  0  0  0  0  0  0  0  0  0
    3.4470   58.1300   70.8080 C   0  0  0  0  0  0  0  0  0  0  0  0
    3.7390   59.1800   69.9410 C   0  0  0  0  0  0  0  0  0  0  0  0
    3.1460   60.4300   70.1360 C   0  0  0  0  0  0  0  0  0  0  0  0
    2.2650   60.6180   71.2000 C   0  0  0  0  0  0  0  0  0  0  0  0
    1.9830   59.5580   72.0620 C   0  0  0  0  0  0  0  0  0  0  0  0
    2.5710   58.3040   71.8740 C   0  0  0  0  0  0  0  0  0  0  0  0
    1.0540   59.7910   73.1760 C   0  0  0  0  0  0  0  0  0  0  0  0
    0.7580   58.9220   73.9840 O   0  0  0  0  0  0  0  0  0  0  0  0
    0.4780   61.1390   73.2870 C   0  0  0  0  0  0  0  0  0  0  0  0
    0.8130   62.0670   72.3810 C   0  0  0  0  0  0  0  0  0  0  0  0
    1.7120   61.8640   71.3460 O   0  0  0  0  0  0  0  0  0  0  0  0
    4.0510   56.9320   70.5730 O   0  0  0  0  0  0  0  0  0  0  0  0
    0.0950   65.6760   71.4540 C   0  0  0  0  0  0  0  0  0  0  0  0
    0.6280   66.4550   70.2450 C   0  0  0  0  0  0  0  0  0  0  0  0
   -0.4330   66.6720   69.1590 C   0  0  0  0  0  0  0  0  0  0  0  0
   -0.0250   67.5780   67.9820 C   0  0  0  0  0  0  0  0  0  0  0  0
    1.4790   67.5380   67.6920 C   0  0  0  0  0  0  0  0  0  0  0  0
    1.8570   68.5100   66.5790 C   0  0  0  0  0  0  0  0  0  0  0  0
    1.0500   68.1980   65.3390 N   0  0  0  0  0  4  0  0  0  0  0  0
   -0.4360   68.2630   65.5910 C   0  0  0  0  0  0  0  0  0  0  0  0
   -0.8130   67.2900   66.7000 C   0  0  0  0  0  0  0  0  0  0  0  0
    1.4430   69.0660   64.1590 C   0  0  0  0  0  0  0  0  0  0  0  0
    2.8290   68.7750   63.6500 C   0  0  0  0  0  0  0  0  0  0  0  0
    3.9550   69.2590   64.3310 C   0  0  0  0  0  0  0  0  0  0  0  0
    5.2400   68.9640   63.8710 C   0  0  0  0  0  0  0  0  0  0  0  0
    5.4110   68.1870   62.7290 C   0  0  0  0  0  0  0  0  0  0  0  0
    4.3000   67.7060   62.0390 C   0  0  0  0  0  0  0  0  0  0  0  0
    3.0140   67.9980   62.4960 C   0  0  0  0  0  0  0  0  0  0  0  0
    0.8683   63.8782   70.5667 H   0  0  0  0  0  0  0  0  0  0  0  0
    4.4356   59.0255   69.1038 H   0  0  0  0  0  0  0  0  0  0  0  0
    3.3732   61.2619   69.4532 H   0  0  0  0  0  0  0  0  0  0  0  0
    2.3453   57.4709   72.5560 H   0  0  0  0  0  0  0  0  0  0  0  0
   -0.2185   61.3822   74.1029 H   0  0  0  0  0  0  0  0  0  0  0  0
    3.8693   56.1611   71.1669 H   0  0  0  0  0  0  0  0  0  0  0  0
   -1.0021   65.7546   71.4664 H   0  0  0  0  0  0  0  0  0  0  0  0
    0.5468   66.1155   72.3555 H   0  0  0  0  0  0  0  0  0  0  0  0
    0.9834   67.4373   70.5895 H   0  0  0  0  0  0  0  0  0  0  0  0
    1.4384   65.8591   69.7999 H   0  0  0  0  0  0  0  0  0  0  0  0
   -0.6990   65.6870   68.7479 H   0  0  0  0  0  0  0  0  0  0  0  0
   -1.2632   67.1932   69.6581 H   0  0  0  0  0  0  0  0  0  0  0  0
   -0.2815   68.5949   68.3139 H   0  0  0  0  0  0  0  0  0  0  0  0
    2.0271   67.8099   68.6061 H   0  0  0  0  0  0  0  0  0  0  0  0
    1.7421   66.5205   67.3673 H   0  0  0  0  0  0  0  0  0  0  0  0
    1.6457   69.5394   66.9042 H   0  0  0  0  0  0  0  0  0  0  0  0
    2.9288   68.4085   66.3531 H   0  0  0  0  0  0  0  0  0  0  0  0
    1.2777   67.2245   65.0913 H   0  0  0  0  0  0  0  0  0  0  0  0
   -0.7112   69.2846   65.8920 H   0  0  0  0  0  0  0  0  0  0  0  0
   -0.9732   67.9911   64.6704 H   0  0  0  0  0  0  0  0  0  0  0  0
   -0.5943   66.2646   66.3672 H   0  0  0  0  0  0  0  0  0  0  0  0
   -1.8851   67.4074   66.9166 H   0  0  0  0  0  0  0  0  0  0  0  0
    0.7264   68.8929   63.3426 H   0  0  0  0  0  0  0  0  0  0  0  0
    1.4312   70.1113   64.5014 H   0  0  0  0  0  0  0  0  0  0  0  0
    3.8253   69.8749   65.2332 H   0  0  0  0  0  0  0  0  0  0  0  0
    6.1183   69.3462   64.4119 H   0  0  0  0  0  0  0  0  0  0  0  0
    6.4242   67.9524   62.3707 H   0  0  0  0  0  0  0  0  0  0  0  0
    4.4366   67.0960   61.1339 H   0  0  0  0  0  0  0  0  0  0  0  0
    2.1397   67.6166   61.9481 H   0  0  0  0  0  0  0  0  0  0  0  0
  2  1  2  0
  3  1  1  0
  5  4  2  0
  6  5  1  0
  7  6  2  0
  8  7  1  0
  9  8  2  0
  9  4  1  0
 10  8  1  0
 11 10  2  0
 12 10  1  0
 13 12  2  0
 13  1  1  0
 14 13  1  0
 14  7  1  0
 15  4  1  0
 16  3  1  0
 17 16  1  0
 18 17  1  0
 19 18  1  0
 20 19  1  0
 21 20  1  0
 22 21  1  0
 23 22  1  0
 24 19  1  0
 24 23  1  0
 25 22  1  0
 26 25  1  0
 27 26  2  0
 28 27  1  0
 29 28  2  0
 30 29  1  0
 31 30  2  0
 31 26  1  0
  3 32  1  0
  5 33  1  0
  6 34  1  0
  9 35  1  0
 12 36  1  0
 15 37  1  0
 16 38  1  0
 16 39  1  0
 17 40  1  0
 17 41  1  0
 18 42  1  0
 18 43  1  0
 19 44  1  0
 20 45  1  0
 20 46  1  0
 21 47  1  0
 21 48  1  0
 22 49  1  0
 23 50  1  0
 23 51  1  0
 24 52  1  0
 24 53  1  0
 25 54  1  0
 25 55  1  0
 27 56  1  0
 28 57  1  0
 29 58  1  0
 30 59  1  0
 31 60  1  0
M  CHG  1  22   1
M  END
>  <score>  (8) 
-9.952

$$$$
=
     RDKit          3D

 60 63  0  0  0  0  0  0  0  0999 V2000
    2.3660   63.8090   70.1710 C   0  0  0  0  0  0  0  0  0  0  0  0
    2.8270   64.1290   69.0810 O   0  0  0  0  0  0  0  0  0  0  0  0
    1.4930   64.5950   70.8910 N   0  0  0  0  0  0  0  0  0  0  0  0
    2.3390   58.1600   73.2450 C   0  0  0  0  0  0  0  0  0  0  0  0
    1.1120   58.8050   73.3850 C   0  0  0  0  0  0  0  0  0  0  0  0
    0.9100   60.0540   72.7930 C   0  0  0  0  0  0  0  0  0  0  0  0
    1.9400   60.6460   72.0630 C   0  0  0  0  0  0  0  0  0  0  0  0
    3.1620   59.9880   71.9280 C   0  0  0  0  0  0  0  0  0  0  0  0
    3.3730   58.7390   72.5190 C   0  0  0  0  0  0  0  0  0  0  0  0
    4.2240   60.6380   71.1490 C   0  0  0  0  0  0  0  0  0  0  0  0
    5.3230   60.1280   70.9730 O   0  0  0  0  0  0  0  0  0  0  0  0
    3.9130   61.9540   70.5750 C   0  0  0  0  0  0  0  0  0  0  0  0
    2.7050   62.4920   70.7930 C   0  0  0  0  0  0  0  0  0  0  0  0
    1.6880   61.8710   71.5020 O   0  0  0  0  0  0  0  0  0  0  0  0
    2.4830   56.9450   73.8440 O   0  0  0  0  0  0  0  0  0  0  0  0
    0.9770   65.8420   70.3610 C   0  0  0  0  0  0  0  0  0  0  0  0
   -0.2940   65.6530   69.5240 C   0  0  0  0  0  0  0  0  0  0  0  0
   -0.7910   66.9580   68.8890 C   0  0  0  0  0  0  0  0  0  0  0  0
   -0.3940   67.1930   67.4200 C   0  0  0  0  0  0  0  0  0  0  0  0
   -0.9040   68.5300   66.8700 C   0  0  0  0  0  0  0  0  0  0  0  0
   -0.5660   68.6880   65.3920 C   0  0  0  0  0  0  0  0  0  0  0  0
    0.9270   68.5480   65.1960 N   0  0  0  0  0  4  0  0  0  0  0  0
    1.4490   67.2250   65.7000 C   0  0  0  0  0  0  0  0  0  0  0  0
    1.1140   67.0690   67.1770 C   0  0  0  0  0  0  0  0  0  0  0  0
    1.3470   68.7910   63.7590 C   0  0  0  0  0  0  0  0  0  0  0  0
    2.8340   68.9490   63.5990 C   0  0  0  0  0  0  0  0  0  0  0  0
    3.6360   69.2970   64.6970 C   0  0  0  0  0  0  0  0  0  0  0  0
    5.0190   69.4160   64.5500 C   0  0  0  0  0  0  0  0  0  0  0  0
    5.6130   69.1930   63.3110 C   0  0  0  0  0  0  0  0  0  0  0  0
    4.8270   68.8540   62.2120 C   0  0  0  0  0  0  0  0  0  0  0  0
    3.4430   68.7330   62.3530 C   0  0  0  0  0  0  0  0  0  0  0  0
    1.1995   64.2889   71.8296 H   0  0  0  0  0  0  0  0  0  0  0  0
    0.3034   58.3313   73.9610 H   0  0  0  0  0  0  0  0  0  0  0  0
   -0.0565   60.5678   72.9021 H   0  0  0  0  0  0  0  0  0  0  0  0
    4.3391   58.2241   72.4115 H   0  0  0  0  0  0  0  0  0  0  0  0
    4.6618   62.4908   69.9741 H   0  0  0  0  0  0  0  0  0  0  0  0
    3.3394   56.4542   73.7682 H   0  0  0  0  0  0  0  0  0  0  0  0
    0.7471   66.5127   71.2021 H   0  0  0  0  0  0  0  0  0  0  0  0
    1.7482   66.2645   69.7001 H   0  0  0  0  0  0  0  0  0  0  0  0
   -0.0816   64.9311   68.7217 H   0  0  0  0  0  0  0  0  0  0  0  0
   -1.0837   65.2936   70.2001 H   0  0  0  0  0  0  0  0  0  0  0  0
   -1.8896   66.9612   68.9445 H   0  0  0  0  0  0  0  0  0  0  0  0
   -0.3068   67.7655   69.4578 H   0  0  0  0  0  0  0  0  0  0  0  0
   -0.8927   66.3837   66.8665 H   0  0  0  0  0  0  0  0  0  0  0  0
   -1.9960   68.5751   66.9943 H   0  0  0  0  0  0  0  0  0  0  0  0
   -0.4142   69.3429   67.4262 H   0  0  0  0  0  0  0  0  0  0  0  0
   -1.0859   67.9110   64.8123 H   0  0  0  0  0  0  0  0  0  0  0  0
   -0.8884   69.6816   65.0474 H   0  0  0  0  0  0  0  0  0  0  0  0
    1.3586   69.2871   65.7691 H   0  0  0  0  0  0  0  0  0  0  0  0
    0.9823   66.4073   65.1311 H   0  0  0  0  0  0  0  0  0  0  0  0
    2.5406   67.1908   65.5689 H   0  0  0  0  0  0  0  0  0  0  0  0
    1.6348   67.8521   67.7476 H   0  0  0  0  0  0  0  0  0  0  0  0
    1.4382   66.0699   67.5038 H   0  0  0  0  0  0  0  0  0  0  0  0
    1.0177   67.9372   63.1486 H   0  0  0  0  0  0  0  0  0  0  0  0
    0.8798   69.7326   63.4349 H   0  0  0  0  0  0  0  0  0  0  0  0
    3.1724   69.4768   65.6782 H   0  0  0  0  0  0  0  0  0  0  0  0
    5.6412   69.6868   65.4157 H   0  0  0  0  0  0  0  0  0  0  0  0
    6.7035   69.2845   63.1997 H   0  0  0  0  0  0  0  0  0  0  0  0
    5.2969   68.6815   61.2325 H   0  0  0  0  0  0  0  0  0  0  0  0
    2.8261   68.4667   61.4820 H   0  0  0  0  0  0  0  0  0  0  0  0
  2  1  2  0
  3  1  1  0
  5  4  2  0
  6  5  1  0
  7  6  2  0
  8  7  1  0
  9  8  2  0
  9  4  1  0
 10  8  1  0
 11 10  2  0
 12 10  1  0
 13 12  2  0
 13  1  1  0
 14 13  1  0
 14  7  1  0
 15  4  1  0
 16  3  1  0
 17 16  1  0
 18 17  1  0
 19 18  1  0
 20 19  1  0
 21 20  1  0
 22 21  1  0
 23 22  1  0
 24 19  1  0
 24 23  1  0
 25 22  1  0
 26 25  1  0
 27 26  2  0
 28 27  1  0
 29 28  2  0
 30 29  1  0
 31 30  2  0
 31 26  1  0
  3 32  1  0
  5 33  1  0
  6 34  1  0
  9 35  1  0
 12 36  1  0
 15 37  1  0
 16 38  1  0
 16 39  1  0
 17 40  1  0
 17 41  1  0
 18 42  1  0
 18 43  1  0
 19 44  1  0
 20 45  1  0
 20 46  1  0
 21 47  1  0
 21 48  1  0
 22 49  1  0
 23 50  1  0
 23 51  1  0
 24 52  1  0
 24 53  1  0
 25 54  1  0
 25 55  1  0
 27 56  1  0
 28 57  1  0
 29 58  1  0
 30 59  1  0
 31 60  1  0
M  CHG  1  22   1
M  END
>  <score>  (9) 
-9.874

$$$$
