=
     RDKit          3D

 55 59  0  0  0  0  0  0  0  0999 V2000
    0.3820   67.3670   68.8790 C   0  0  0  0  0  0  0  0  0  0  0  0
    1.7090   67.0760   69.6020 C   0  0  0  0  0  0  0  0  0  0  0  0
    1.8810   65.5910   69.8790 C   0  0  0  0  0  0  0  0  0  0  0  0
    0.7810   65.1000   70.8050 N   0  0  0  0  0  4  0  0  0  0  0  0
   -0.5110   65.8850   70.7200 C   0  0  0  0  0  0  0  0  0  0  0  0
   -0.7300   66.3930   69.3060 C   0  0  0  0  0  0  0  0  0  0  0  0
    4.5130   69.2130   63.2670 C   0  0  0  0  0  0  0  0  0  0  0  0
    5.1950   69.7530   64.3740 C   0  0  0  0  0  0  0  0  0  0  0  0
    4.6950   69.6030   65.6770 C   0  0  0  0  0  0  0  0  0  0  0  0
    3.5110   68.9080   65.8540 C   0  0  0  0  0  0  0  0  0  0  0  0
    2.8470   68.3790   64.7480 C   0  0  0  0  0  0  0  0  0  0  0  0
    3.3200   68.5140   63.4570 C   0  0  0  0  0  0  0  0  0  0  0  0
    1.6310   67.6950   65.1950 C   0  0  0  0  0  0  0  0  0  0  0  0
    0.8180   67.1220   64.5000 O   0  0  0  0  0  0  0  0  0  0  0  0
    1.5760   67.8360   66.6860 C   0  0  0  0  0  0  0  0  0  0  0  0
    0.5620   67.3030   67.3840 C   0  0  0  0  0  0  0  0  0  0  0  0
    2.7860   68.6170   67.1340 C   0  0  0  0  0  0  0  0  0  0  0  0
    3.9370   69.0290   60.9630 C   0  0  0  0  0  0  0  0  0  0  0  0
    4.9120   69.3030   61.9620 O   0  0  0  0  0  0  0  0  0  0  0  0
    0.5600   63.6010   70.6900 C   0  0  0  0  0  0  0  0  0  0  0  0
    1.8460   62.8220   70.6370 C   0  0  0  0  0  0  0  0  0  0  0  0
    2.2810   62.2400   69.4210 C   0  0  0  0  0  0  0  0  0  0  0  0
    3.4590   61.4860   69.3640 C   0  0  0  0  0  0  0  0  0  0  0  0
    4.1770   61.3290   70.5280 C   0  0  0  0  0  0  0  0  0  0  0  0
    3.7660   61.8900   71.7110 C   0  0  0  0  0  0  0  0  0  0  0  0
    2.6120   62.6400   71.8010 C   0  0  0  0  0  0  0  0  0  0  0  0
    4.6120   61.6140   72.7380 O   0  0  0  0  0  0  0  0  0  0  0  0
    5.6230   60.8340   72.0590 C   0  0  0  0  0  0  0  0  0  0  0  0
    5.3350   60.6310   70.6590 O   0  0  0  0  0  0  0  0  0  0  0  0
    0.0773   68.3840   69.1668 H   0  0  0  0  0  0  0  0  0  0  0  0
    2.5421   67.4205   68.9716 H   0  0  0  0  0  0  0  0  0  0  0  0
    1.6998   67.6071   70.5653 H   0  0  0  0  0  0  0  0  0  0  0  0
    1.8322   65.0362   68.9304 H   0  0  0  0  0  0  0  0  0  0  0  0
    2.8562   65.4259   70.3604 H   0  0  0  0  0  0  0  0  0  0  0  0
    1.1331   65.2857   71.7550 H   0  0  0  0  0  0  0  0  0  0  0  0
   -1.3503   65.2336   71.0051 H   0  0  0  0  0  0  0  0  0  0  0  0
   -0.4512   66.7453   71.4028 H   0  0  0  0  0  0  0  0  0  0  0  0
   -0.7396   65.5365   68.6158 H   0  0  0  0  0  0  0  0  0  0  0  0
   -1.6896   66.9299   69.2766 H   0  0  0  0  0  0  0  0  0  0  0  0
    6.1352   70.3015   64.2152 H   0  0  0  0  0  0  0  0  0  0  0  0
    5.2318   70.0281   66.5379 H   0  0  0  0  0  0  0  0  0  0  0  0
    2.7732   68.0838   62.6050 H   0  0  0  0  0  0  0  0  0  0  0  0
   -0.2107   66.7691   66.8114 H   0  0  0  0  0  0  0  0  0  0  0  0
    2.4880   69.5486   67.6372 H   0  0  0  0  0  0  0  0  0  0  0  0
    3.4040   68.0688   67.8603 H   0  0  0  0  0  0  0  0  0  0  0  0
    2.9846   68.7613   61.4438 H   0  0  0  0  0  0  0  0  0  0  0  0
    3.7933   69.9215   60.3363 H   0  0  0  0  0  0  0  0  0  0  0  0
    4.2793   68.1922   60.3363 H   0  0  0  0  0  0  0  0  0  0  0  0
   -0.0190   63.2636   71.5623 H   0  0  0  0  0  0  0  0  0  0  0  0
    0.0239   63.4177   69.7471 H   0  0  0  0  0  0  0  0  0  0  0  0
    1.6843   62.3827   68.5080 H   0  0  0  0  0  0  0  0  0  0  0  0
    3.7996   61.0341   68.4207 H   0  0  0  0  0  0  0  0  0  0  0  0
    2.2997   63.0836   72.7579 H   0  0  0  0  0  0  0  0  0  0  0  0
    6.5865   61.3576   72.1461 H   0  0  0  0  0  0  0  0  0  0  0  0
    5.6487   59.8431   72.5360 H   0  0  0  0  0  0  0  0  0  0  0  0
  2  1  1  0
  3  2  1  0
  4  3  1  0
  5  4  1  0
  6  5  1  0
  6  1  1  0
  8  7  2  0
  9  8  1  0
 10  9  2  0
 11 10  1  0
 12 11  2  0
 12  7  1  0
 13 11  1  0
 14 13  2  0
 15 13  1  0
 16 15  2  0
 16  1  1  0
 17 15  1  0
 17 10  1  0
 19 18  1  0
 19  7  1  0
 20  4  1  0
 21 20  1  0
 22 21  2  0
 23 22  1  0
 24 23  2  0
 25 24  1  0
 26 21  1  0
 26 25  2  0
 27 25  1  0
 28 27  1  0
 29 24  1  0
 29 28  1  0
  1 30  1  0
  2 31  1  0
  2 32  1  0
  3 33  1  0
  3 34  1  0
  4 35  1  0
  5 36  1  0
  5 37  1  0
  6 38  1  0
  6 39  1  0
  8 40  1  0
  9 41  1  0
 12 42  1  0
 16 43  1  0
 17 44  1  0
 17 45  1  0
 18 46  1  0
 18 47  1  0
 18 48  1  0
 20 49  1  0
 20 50  1  0
 22 51  1  0
 23 52  1  0
 26 53  1  0
 28 54  1  0
 28 55  1  0
M  CHG  1   4   1
M  END
>  <score>  (1) 
-10.505

$$$$
=
     RDKit          3D

 55 59  0  0  0  0  0  0  0  0999 V2000
    0.7960   67.2090   69.1540 C   0  0  0  0  0  0  0  0  0  0  0  0
   -0.6450   66.9680   68.6710 C   0  0  0  0  0  0  0  0  0  0  0  0
   -0.7670   67.1360   67.1650 C   0  0  0  0  0  0  0  0  0  0  0  0
   -0.4220   68.5610   66.7660 N   0  0  0  0  0  4  0  0  0  0  0  0
    0.5370   69.2630   67.7040 C   0  0  0  0  0  0  0  0  0  0  0  0
    1.5170   68.2680   68.3010 C   0  0  0  0  0  0  0  0  0  0  0  0
    1.7310   60.7250   72.1600 C   0  0  0  0  0  0  0  0  0  0  0  0
    0.6660   61.2810   72.8930 C   0  0  0  0  0  0  0  0  0  0  0  0
    0.1790   62.5650   72.6030 C   0  0  0  0  0  0  0  0  0  0  0  0
    0.7690   63.2780   71.5750 C   0  0  0  0  0  0  0  0  0  0  0  0
    1.8230   62.7140   70.8570 C   0  0  0  0  0  0  0  0  0  0  0  0
    2.3190   61.4530   71.1240 C   0  0  0  0  0  0  0  0  0  0  0  0
    2.2700   63.6590   69.8300 C   0  0  0  0  0  0  0  0  0  0  0  0
    3.1650   63.4950   69.0270 O   0  0  0  0  0  0  0  0  0  0  0  0
    1.4090   64.8790   69.9570 C   0  0  0  0  0  0  0  0  0  0  0  0
    1.5860   65.9270   69.1390 C   0  0  0  0  0  0  0  0  0  0  0  0
    0.4280   64.6520   71.0800 C   0  0  0  0  0  0  0  0  0  0  0  0
    3.3180   59.0850   71.4760 C   0  0  0  0  0  0  0  0  0  0  0  0
    2.2790   59.4870   72.3610 O   0  0  0  0  0  0  0  0  0  0  0  0
    0.0060   68.6630   65.3120 C   0  0  0  0  0  0  0  0  0  0  0  0
    1.3180   67.9790   65.0390 C   0  0  0  0  0  0  0  0  0  0  0  0
    2.4850   68.7430   64.7890 C   0  0  0  0  0  0  0  0  0  0  0  0
    3.7050   68.1200   64.5020 C   0  0  0  0  0  0  0  0  0  0  0  0
    3.7320   66.7440   64.4690 C   0  0  0  0  0  0  0  0  0  0  0  0
    2.6080   65.9950   64.7120 C   0  0  0  0  0  0  0  0  0  0  0  0
    1.3910   66.5760   65.0000 C   0  0  0  0  0  0  0  0  0  0  0  0
    2.8460   64.6600   64.6300 O   0  0  0  0  0  0  0  0  0  0  0  0
    4.2610   64.6510   64.3320 C   0  0  0  0  0  0  0  0  0  0  0  0
    4.8210   65.9760   64.2060 O   0  0  0  0  0  0  0  0  0  0  0  0
    0.7295   67.5848   70.1857 H   0  0  0  0  0  0  0  0  0  0  0  0
   -0.9455   65.9450   68.9414 H   0  0  0  0  0  0  0  0  0  0  0  0
   -1.2978   67.7103   69.1536 H   0  0  0  0  0  0  0  0  0  0  0  0
   -0.0762   66.4413   66.6648 H   0  0  0  0  0  0  0  0  0  0  0  0
   -1.8022   66.9193   66.8625 H   0  0  0  0  0  0  0  0  0  0  0  0
   -1.3046   69.0831   66.8622 H   0  0  0  0  0  0  0  0  0  0  0  0
    1.0939   70.0299   67.1457 H   0  0  0  0  0  0  0  0  0  0  0  0
   -0.0373   69.7303   68.5175 H   0  0  0  0  0  0  0  0  0  0  0  0
    2.0559   67.7637   67.4854 H   0  0  0  0  0  0  0  0  0  0  0  0
    2.2146   68.8176   68.9501 H   0  0  0  0  0  0  0  0  0  0  0  0
    0.2077   60.6997   73.7066 H   0  0  0  0  0  0  0  0  0  0  0  0
   -0.6531   62.9946   73.1802 H   0  0  0  0  0  0  0  0  0  0  0  0
    3.1514   61.0353   70.5386 H   0  0  0  0  0  0  0  0  0  0  0  0
    2.3835   65.8421   68.3861 H   0  0  0  0  0  0  0  0  0  0  0  0
    0.5616   65.4002   71.8752 H   0  0  0  0  0  0  0  0  0  0  0  0
   -0.6196   64.7417   70.7566 H   0  0  0  0  0  0  0  0  0  0  0  0
    4.1874   58.7486   72.0600 H   0  0  0  0  0  0  0  0  0  0  0  0
    2.9609   58.2602   70.8419 H   0  0  0  0  0  0  0  0  0  0  0  0
    3.6090   59.9354   70.8419 H   0  0  0  0  0  0  0  0  0  0  0  0
   -0.7691   68.1989   64.6845 H   0  0  0  0  0  0  0  0  0  0  0  0
    0.1354   69.7304   65.0799 H   0  0  0  0  0  0  0  0  0  0  0  0
    2.4313   69.8412   64.8210 H   0  0  0  0  0  0  0  0  0  0  0  0
    4.6127   68.7106   64.3091 H   0  0  0  0  0  0  0  0  0  0  0  0
    0.5017   65.9583   65.1939 H   0  0  0  0  0  0  0  0  0  0  0  0
    4.7863   64.1244   65.1424 H   0  0  0  0  0  0  0  0  0  0  0  0
    4.3892   64.1468   63.3628 H   0  0  0  0  0  0  0  0  0  0  0  0
  2  1  1  0
  3  2  1  0
  4  3  1  0
  5  4  1  0
  6  5  1  0
  6  1  1  0
  8  7  2  0
  9  8  1  0
 10  9  2  0
 11 10  1  0
 12 11  2  0
 12  7  1  0
 13 11  1  0
 14 13  2  0
 15 13  1  0
 16 15  2  0
 16  1  1  0
 17 15  1  0
 17 10  1  0
 19 18  1  0
 19  7  1  0
 20  4  1  0
 21 20  1  0
 22 21  2  0
 23 22  1  0
 24 23  2  0
 25 24  1  0
 26 21  1  0
 26 25  2  0
 27 25  1  0
 28 27  1  0
 29 24  1  0
 29 28  1  0
  1 30  1  0
  2 31  1  0
  2 32  1  0
  3 33  1  0
  3 34  1  0
  4 35  1  0
  5 36  1  0
  5 37  1  0
  6 38  1  0
  6 39  1  0
  8 40  1  0
  9 41  1  0
 12 42  1  0
 16 43  1  0
 17 44  1  0
 17 45  1  0
 18 46  1  0
 18 47  1  0
 18 48  1  0
 20 49  1  0
 20 50  1  0
 22 51  1  0
 23 52  1  0
 26 53  1  0
 28 54  1  0
 28 55  1  0
M  CHG  1   4   1
M  END
>  <score>  (2) 
-10.334

$$$$
=
     RDKit          3D

 55 59  0  0  0  0  0  0  0  0999 V2000
    0.0500   66.8490   69.7320 C   0  0  0  0  0  0  0  0  0  0  0  0
   -0.8860   67.0170   68.5220 C   0  0  0  0  0  0  0  0  0  0  0  0
   -0.1650   66.7370   67.2130 C   0  0  0  0  0  0  0  0  0  0  0  0
    0.9640   67.7350   67.0130 N   0  0  0  0  0  4  0  0  0  0  0  0
    1.5480   68.2900   68.2940 C   0  0  0  0  0  0  0  0  0  0  0  0
    1.4990   67.2450   69.3950 C   0  0  0  0  0  0  0  0  0  0  0  0
    3.9450   61.0420   71.4860 C   0  0  0  0  0  0  0  0  0  0  0  0
    4.9110   61.9800   71.0770 C   0  0  0  0  0  0  0  0  0  0  0  0
    4.5400   63.2640   70.6500 C   0  0  0  0  0  0  0  0  0  0  0  0
    3.1960   63.5940   70.6390 C   0  0  0  0  0  0  0  0  0  0  0  0
    2.2500   62.6550   71.0470 C   0  0  0  0  0  0  0  0  0  0  0  0
    2.5910   61.3850   71.4720 C   0  0  0  0  0  0  0  0  0  0  0  0
    0.9110   63.2410   70.9460 C   0  0  0  0  0  0  0  0  0  0  0  0
   -0.1440   62.7050   71.2200 O   0  0  0  0  0  0  0  0  0  0  0  0
    1.0850   64.6380   70.4340 C   0  0  0  0  0  0  0  0  0  0  0  0
    0.0210   65.4300   70.2380 C   0  0  0  0  0  0  0  0  0  0  0  0
    2.5590   64.8880   70.2310 C   0  0  0  0  0  0  0  0  0  0  0  0
    4.1870   59.5450   73.3230 C   0  0  0  0  0  0  0  0  0  0  0  0
    4.1990   59.7690   71.9180 O   0  0  0  0  0  0  0  0  0  0  0  0
    2.0300   67.2120   66.0650 C   0  0  0  0  0  0  0  0  0  0  0  0
    1.9150   67.7880   64.6790 C   0  0  0  0  0  0  0  0  0  0  0  0
    3.0290   67.7740   63.8040 C   0  0  0  0  0  0  0  0  0  0  0  0
    2.9460   68.3350   62.5240 C   0  0  0  0  0  0  0  0  0  0  0  0
    1.7490   68.8990   62.1470 C   0  0  0  0  0  0  0  0  0  0  0  0
    0.6630   68.9160   62.9860 C   0  0  0  0  0  0  0  0  0  0  0  0
    0.7100   68.3710   64.2520 C   0  0  0  0  0  0  0  0  0  0  0  0
   -0.4180   69.5200   62.4250 O   0  0  0  0  0  0  0  0  0  0  0  0
    0.1040   69.8610   61.1210 C   0  0  0  0  0  0  0  0  0  0  0  0
    1.4890   69.4880   60.9500 O   0  0  0  0  0  0  0  0  0  0  0  0
   -0.3185   67.5246   70.5180 H   0  0  0  0  0  0  0  0  0  0  0  0
   -1.7283   66.3167   68.6224 H   0  0  0  0  0  0  0  0  0  0  0  0
   -1.2405   68.0581   68.5034 H   0  0  0  0  0  0  0  0  0  0  0  0
    0.2500   65.7186   67.2372 H   0  0  0  0  0  0  0  0  0  0  0  0
   -0.8794   66.8312   66.3819 H   0  0  0  0  0  0  0  0  0  0  0  0
    0.5222   68.5473   66.5593 H   0  0  0  0  0  0  0  0  0  0  0  0
    2.5937   68.5827   68.1185 H   0  0  0  0  0  0  0  0  0  0  0  0
    0.9577   69.1643   68.6056 H   0  0  0  0  0  0  0  0  0  0  0  0
    2.0463   66.3503   69.0634 H   0  0  0  0  0  0  0  0  0  0  0  0
    1.9591   67.6728   70.2980 H   0  0  0  0  0  0  0  0  0  0  0  0
    5.9751   61.7018   71.0923 H   0  0  0  0  0  0  0  0  0  0  0  0
    5.3004   63.9921   70.3311 H   0  0  0  0  0  0  0  0  0  0  0  0
    1.8205   60.6669   71.7892 H   0  0  0  0  0  0  0  0  0  0  0  0
   -0.9664   65.0035   70.4684 H   0  0  0  0  0  0  0  0  0  0  0  0
    2.7768   65.1179   69.1776 H   0  0  0  0  0  0  0  0  0  0  0  0
    2.9300   65.7476   70.8085 H   0  0  0  0  0  0  0  0  0  0  0  0
    4.2387   60.5099   73.8486 H   0  0  0  0  0  0  0  0  0  0  0  0
    3.2597   59.0240   73.6033 H   0  0  0  0  0  0  0  0  0  0  0  0
    5.0534   58.9279   73.6033 H   0  0  0  0  0  0  0  0  0  0  0  0
    3.0188   67.4707   66.4716 H   0  0  0  0  0  0  0  0  0  0  0  0
    1.8932   66.1237   65.9826 H   0  0  0  0  0  0  0  0  0  0  0  0
    3.9727   67.3158   64.1350 H   0  0  0  0  0  0  0  0  0  0  0  0
    3.8092   68.3252   61.8423 H   0  0  0  0  0  0  0  0  0  0  0  0
   -0.1717   68.3921   64.9094 H   0  0  0  0  0  0  0  0  0  0  0  0
   -0.4950   69.3428   60.3576 H   0  0  0  0  0  0  0  0  0  0  0  0
    0.0438   70.9546   61.0192 H   0  0  0  0  0  0  0  0  0  0  0  0
  2  1  1  0
  3  2  1  0
  4  3  1  0
  5  4  1  0
  6  5  1  0
  6  1  1  0
  8  7  2  0
  9  8  1  0
 10  9  2  0
 11 10  1  0
 12 11  2  0
 12  7  1  0
 13 11  1  0
 14 13  2  0
 15 13  1  0
 16 15  2  0
 16  1  1  0
 17 15  1  0
 17 10  1  0
 19 18  1  0
 19  7  1  0
 20  4  1  0
 21 20  1  0
 22 21  2  0
 23 22  1  0
 24 23  2  0
 25 24  1  0
 26 21  1  0
 26 25  2  0
 27 25  1  0
 28 27  1  0
 29 24  1  0
 29 28  1  0
  1 30  1  0
  2 31  1  0
  2 32  1  0
  3 33  1  0
  3 34  1  0
  4 35  1  0
  5 36  1  0
  5 37  1  0
  6 38  1  0
  6 39  1  0
  8 40  1  0
  9 41  1  0
 12 42  1  0
 16 43  1  0
 17 44  1  0
 17 45  1  0
 18 46  1  0
 18 47  1  0
 18 48  1  0
 20 49  1  0
 20 50  1  0
 22 51  1  0
 23 52  1  0
 26 53  1  0
 28 54  1  0
 28 55  1  0
M  CHG  1   4   1
M  END
>  <score>  (3) 
-10.029

$$$$
=
     RDKit          3D

 55 59  0  0  0  0  0  0  0  0999 V2000
    0.6830   66.1490   70.5800 C   0  0  0  0  0  0  0  0  0  0  0  0
    1.7490   65.0620   70.3550 C   0  0  0  0  0  0  0  0  0  0  0  0
    1.1730   63.6670   70.5400 C   0  0  0  0  0  0  0  0  0  0  0  0
    0.6830   63.4870   71.9670 N   0  0  0  0  0  4  0  0  0  0  0  0
    0.2520   64.7670   72.6510 C   0  0  0  0  0  0  0  0  0  0  0  0
   -0.3480   65.7300   71.6420 C   0  0  0  0  0  0  0  0  0  0  0  0
    1.3040   68.8970   63.9440 C   0  0  0  0  0  0  0  0  0  0  0  0
    2.6030   69.0110   64.4750 C   0  0  0  0  0  0  0  0  0  0  0  0
    2.8950   68.5750   65.7760 C   0  0  0  0  0  0  0  0  0  0  0  0
    1.8750   68.0270   66.5340 C   0  0  0  0  0  0  0  0  0  0  0  0
    0.5940   67.9200   65.9950 C   0  0  0  0  0  0  0  0  0  0  0  0
    0.2820   68.3420   64.7170 C   0  0  0  0  0  0  0  0  0  0  0  0
   -0.2980   67.3110   66.9850 C   0  0  0  0  0  0  0  0  0  0  0  0
   -1.4810   67.0690   66.8520 O   0  0  0  0  0  0  0  0  0  0  0  0
    0.5270   67.0390   68.2060 C   0  0  0  0  0  0  0  0  0  0  0  0
   -0.0250   66.4770   69.2910 C   0  0  0  0  0  0  0  0  0  0  0  0
    1.9400   67.4940   67.9340 C   0  0  0  0  0  0  0  0  0  0  0  0
   -0.4770   69.2410   62.4000 C   0  0  0  0  0  0  0  0  0  0  0  0
    0.9150   69.2900   62.6930 O   0  0  0  0  0  0  0  0  0  0  0  0
   -0.3580   62.3870   72.0820 C   0  0  0  0  0  0  0  0  0  0  0  0
    0.2190   61.0810   72.5580 C   0  0  0  0  0  0  0  0  0  0  0  0
    1.5380   60.7090   72.1970 C   0  0  0  0  0  0  0  0  0  0  0  0
    2.0770   59.4830   72.6050 C   0  0  0  0  0  0  0  0  0  0  0  0
    1.2830   58.6540   73.3660 C   0  0  0  0  0  0  0  0  0  0  0  0
    0.0050   59.0070   73.7230 C   0  0  0  0  0  0  0  0  0  0  0  0
   -0.5550   60.2070   73.3390 C   0  0  0  0  0  0  0  0  0  0  0  0
   -0.6070   58.0520   74.4700 O   0  0  0  0  0  0  0  0  0  0  0  0
    0.4440   57.0630   74.5670 C   0  0  0  0  0  0  0  0  0  0  0  0
    1.6380   57.4340   73.8460 O   0  0  0  0  0  0  0  0  0  0  0  0
    1.2088   67.0433   70.9458 H   0  0  0  0  0  0  0  0  0  0  0  0
    2.1416   65.1533   69.3315 H   0  0  0  0  0  0  0  0  0  0  0  0
    2.5487   65.2054   71.0965 H   0  0  0  0  0  0  0  0  0  0  0  0
    0.3310   63.5265   69.8462 H   0  0  0  0  0  0  0  0  0  0  0  0
    1.9576   62.9242   70.3334 H   0  0  0  0  0  0  0  0  0  0  0  0
    1.5127   63.1799   72.4944 H   0  0  0  0  0  0  0  0  0  0  0  0
   -0.4995   64.5322   73.4192 H   0  0  0  0  0  0  0  0  0  0  0  0
    1.1316   65.2378   73.1143 H   0  0  0  0  0  0  0  0  0  0  0  0
   -1.1972   65.2409   71.1423 H   0  0  0  0  0  0  0  0  0  0  0  0
   -0.6762   66.6322   72.1790 H   0  0  0  0  0  0  0  0  0  0  0  0
    3.4023   69.4493   63.8594 H   0  0  0  0  0  0  0  0  0  0  0  0
    3.9122   68.6667   66.1846 H   0  0  0  0  0  0  0  0  0  0  0  0
   -0.7395   68.2439   64.3208 H   0  0  0  0  0  0  0  0  0  0  0  0
   -1.0960   66.2323   69.2348 H   0  0  0  0  0  0  0  0  0  0  0  0
    2.2420   68.2813   68.6404 H   0  0  0  0  0  0  0  0  0  0  0  0
    2.6788   66.6875   68.0506 H   0  0  0  0  0  0  0  0  0  0  0  0
   -1.0489   69.2209   63.3394 H   0  0  0  0  0  0  0  0  0  0  0  0
   -0.7605   70.1297   61.8171 H   0  0  0  0  0  0  0  0  0  0  0  0
   -0.6973   68.3345   61.8171 H   0  0  0  0  0  0  0  0  0  0  0  0
   -1.1316   62.7092   72.7945 H   0  0  0  0  0  0  0  0  0  0  0  0
   -0.7715   62.2180   71.0768 H   0  0  0  0  0  0  0  0  0  0  0  0
    2.1468   61.3931   71.5877 H   0  0  0  0  0  0  0  0  0  0  0  0
    3.1006   59.1915   72.3270 H   0  0  0  0  0  0  0  0  0  0  0  0
   -1.5802   60.4727   73.6362 H   0  0  0  0  0  0  0  0  0  0  0  0
    0.7027   56.9297   75.6278 H   0  0  0  0  0  0  0  0  0  0  0  0
    0.0636   56.1344   74.1164 H   0  0  0  0  0  0  0  0  0  0  0  0
  2  1  1  0
  3  2  1  0
  4  3  1  0
  5  4  1  0
  6  5  1  0
  6  1  1  0
  8  7  2  0
  9  8  1  0
 10  9  2  0
 11 10  1  0
 12 11  2  0
 12  7  1  0
 13 11  1  0
 14 13  2  0
 15 13  1  0
 16 15  2  0
 16  1  1  0
 17 15  1  0
 17 10  1  0
 19 18  1  0
 19  7  1  0
 20  4  1  0
 21 20  1  0
 22 21  2  0
 23 22  1  0
 24 23  2  0
 25 24  1  0
 26 21  1  0
 26 25  2  0
 27 25  1  0
 28 27  1  0
 29 24  1  0
 29 28  1  0
  1 30  1  0
  2 31  1  0
  2 32  1  0
  3 33  1  0
  3 34  1  0
  4 35  1  0
  5 36  1  0
  5 37  1  0
  6 38  1  0
  6 39  1  0
  8 40  1  0
  9 41  1  0
 12 42  1  0
 16 43  1  0
 17 44  1  0
 17 45  1  0
 18 46  1  0
 18 47  1  0
 18 48  1  0
 20 49  1  0
 20 50  1  0
 22 51  1  0
 23 52  1  0
 26 53  1  0
 28 54  1  0
 28 55  1  0
M  CHG  1   4   1
M  END
>  <score>  (4) 
-9.733

$$$$
=
     RDKit          3D

 55 59  0  0  0  0  0  0  0  0999 V2000
    0.8550   67.4820   68.7570 C   0  0  0  0  0  0  0  0  0  0  0  0
    1.6370   67.1750   70.0460 C   0  0  0  0  0  0  0  0  0  0  0  0
    1.7370   65.6790   70.2970 C   0  0  0  0  0  0  0  0  0  0  0  0
    0.3520   65.0860   70.4950 N   0  0  0  0  0  4  0  0  0  0  0  0
   -0.7600   65.8380   69.7950 C   0  0  0  0  0  0  0  0  0  0  0  0
   -0.2540   66.4450   68.4990 C   0  0  0  0  0  0  0  0  0  0  0  0
    1.5170   69.0690   61.7570 C   0  0  0  0  0  0  0  0  0  0  0  0
    0.1680   69.3550   62.0370 C   0  0  0  0  0  0  0  0  0  0  0  0
   -0.3600   69.1700   63.3240 C   0  0  0  0  0  0  0  0  0  0  0  0
    0.4760   68.6990   64.3200 C   0  0  0  0  0  0  0  0  0  0  0  0
    1.8110   68.4200   64.0270 C   0  0  0  0  0  0  0  0  0  0  0  0
    2.3530   68.5940   62.7690 C   0  0  0  0  0  0  0  0  0  0  0  0
    2.4810   67.9380   65.2380 C   0  0  0  0  0  0  0  0  0  0  0  0
    3.6430   67.6050   65.3460 O   0  0  0  0  0  0  0  0  0  0  0  0
    1.4550   67.9330   66.3310 C   0  0  0  0  0  0  0  0  0  0  0  0
    1.7810   67.5360   67.5700 C   0  0  0  0  0  0  0  0  0  0  0  0
    0.1490   68.4240   65.7570 C   0  0  0  0  0  0  0  0  0  0  0  0
    3.5220   68.9310   60.4770 C   0  0  0  0  0  0  0  0  0  0  0  0
    2.1290   69.2130   60.5410 O   0  0  0  0  0  0  0  0  0  0  0  0
    0.3180   63.5950   70.2070 C   0  0  0  0  0  0  0  0  0  0  0  0
    1.6490   62.9260   70.4260 C   0  0  0  0  0  0  0  0  0  0  0  0
    2.4550   62.5590   69.3200 C   0  0  0  0  0  0  0  0  0  0  0  0
    3.6790   61.9080   69.5070 C   0  0  0  0  0  0  0  0  0  0  0  0
    4.0720   61.6370   70.7990 C   0  0  0  0  0  0  0  0  0  0  0  0
    3.3000   61.9900   71.8770 C   0  0  0  0  0  0  0  0  0  0  0  0
    2.0900   62.6340   71.7280 C   0  0  0  0  0  0  0  0  0  0  0  0
    3.8640   61.6320   73.0600 O   0  0  0  0  0  0  0  0  0  0  0  0
    5.0990   61.0320   72.6050 C   0  0  0  0  0  0  0  0  0  0  0  0
    5.2220   61.0120   71.1670 O   0  0  0  0  0  0  0  0  0  0  0  0
    0.3817   68.4653   68.8953 H   0  0  0  0  0  0  0  0  0  0  0  0
    2.6515   67.5904   69.9555 H   0  0  0  0  0  0  0  0  0  0  0  0
    1.0999   67.6305   70.8910 H   0  0  0  0  0  0  0  0  0  0  0  0
    2.2184   65.1971   69.4333 H   0  0  0  0  0  0  0  0  0  0  0  0
    2.3342   65.5066   71.2046 H   0  0  0  0  0  0  0  0  0  0  0  0
    0.1537   65.2074   71.4984 H   0  0  0  0  0  0  0  0  0  0  0  0
   -1.5833   65.1433   69.5727 H   0  0  0  0  0  0  0  0  0  0  0  0
   -1.1140   66.6454   70.4529 H   0  0  0  0  0  0  0  0  0  0  0  0
    0.1474   65.6434   67.8616 H   0  0  0  0  0  0  0  0  0  0  0  0
   -1.0946   66.9541   68.0049 H   0  0  0  0  0  0  0  0  0  0  0  0
   -0.4835   69.7298   61.2338 H   0  0  0  0  0  0  0  0  0  0  0  0
   -1.4157   69.3947   63.5360 H   0  0  0  0  0  0  0  0  0  0  0  0
    3.4105   68.3655   62.5705 H   0  0  0  0  0  0  0  0  0  0  0  0
    2.8218   67.2203   67.7348 H   0  0  0  0  0  0  0  0  0  0  0  0
   -0.6314   67.6534   65.8416 H   0  0  0  0  0  0  0  0  0  0  0  0
   -0.2433   69.3072   66.2824 H   0  0  0  0  0  0  0  0  0  0  0  0
    3.9267   68.8491   61.4965 H   0  0  0  0  0  0  0  0  0  0  0  0
    3.6799   67.9827   59.9425 H   0  0  0  0  0  0  0  0  0  0  0  0
    4.0364   69.7432   59.9425 H   0  0  0  0  0  0  0  0  0  0  0  0
   -0.4239   63.1262   70.8701 H   0  0  0  0  0  0  0  0  0  0  0  0
    0.0557   63.4694   69.1461 H   0  0  0  0  0  0  0  0  0  0  0  0
    2.1135   62.7892   68.3000 H   0  0  0  0  0  0  0  0  0  0  0  0
    4.3070   61.6219   68.6504 H   0  0  0  0  0  0  0  0  0  0  0  0
    1.4862   62.9117   72.6045 H   0  0  0  0  0  0  0  0  0  0  0  0
    5.9408   61.6053   73.0205 H   0  0  0  0  0  0  0  0  0  0  0  0
    5.1028   59.9873   72.9493 H   0  0  0  0  0  0  0  0  0  0  0  0
  2  1  1  0
  3  2  1  0
  4  3  1  0
  5  4  1  0
  6  5  1  0
  6  1  1  0
  8  7  2  0
  9  8  1  0
 10  9  2  0
 11 10  1  0
 12 11  2  0
 12  7  1  0
 13 11  1  0
 14 13  2  0
 15 13  1  0
 16 15  2  0
 16  1  1  0
 17 15  1  0
 17 10  1  0
 19 18  1  0
 19  7  1  0
 20  4  1  0
 21 20  1  0
 22 21  2  0
 23 22  1  0
 24 23  2  0
 25 24  1  0
 26 21  1  0
 26 25  2  0
 27 25  1  0
 28 27  1  0
 29 24  1  0
 29 28  1  0
  1 30  1  0
  2 31  1  0
  2 32  1  0
  3 33  1  0
  3 34  1  0
  4 35  1  0
  5 36  1  0
  5 37  1  0
  6 38  1  0
  6 39  1  0
  8 40  1  0
  9 41  1  0
 12 42  1  0
 16 43  1  0
 17 44  1  0
 17 45  1  0
 18 46  1  0
 18 47  1  0
 18 48  1  0
 20 49  1  0
 20 50  1  0
 22 51  1  0
 23 52  1  0
 26 53  1  0
 28 54  1  0
 28 55  1  0
M  CHG  1   4   1
M  END
>  <score>  (5) 
-9.516

$$$$
=
     RDKit          3D

 55 59  0  0  0  0  0  0  0  0999 V2000
    0.1160   62.7690   72.7280 C   0  0  0  0  0  0  0  0  0  0  0  0
   -0.6720   62.7990   71.4070 C   0  0  0  0  0  0  0  0  0  0  0  0
    0.0150   63.6690   70.3660 C   0  0  0  0  0  0  0  0  0  0  0  0
    0.0830   65.1090   70.8480 N   0  0  0  0  0  4  0  0  0  0  0  0
    0.1070   65.2680   72.3530 C   0  0  0  0  0  0  0  0  0  0  0  0
    0.8360   64.1020   72.9970 C   0  0  0  0  0  0  0  0  0  0  0  0
    1.2240   55.7400   73.8830 C   0  0  0  0  0  0  0  0  0  0  0  0
   -0.1460   55.9110   74.1580 C   0  0  0  0  0  0  0  0  0  0  0  0
   -0.7570   57.1690   74.0440 C   0  0  0  0  0  0  0  0  0  0  0  0
    0.0180   58.2470   73.6540 C   0  0  0  0  0  0  0  0  0  0  0  0
    1.3740   58.0630   73.3860 C   0  0  0  0  0  0  0  0  0  0  0  0
    1.9970   56.8340   73.4900 C   0  0  0  0  0  0  0  0  0  0  0  0
    1.9680   59.3440   72.9950 C   0  0  0  0  0  0  0  0  0  0  0  0
    3.1260   59.5500   72.6920 O   0  0  0  0  0  0  0  0  0  0  0  0
    0.8720   60.3640   73.0390 C   0  0  0  0  0  0  0  0  0  0  0  0
    1.1190   61.6450   72.7260 C   0  0  0  0  0  0  0  0  0  0  0  0
   -0.4010   59.6740   73.4630 C   0  0  0  0  0  0  0  0  0  0  0  0
    1.9020   53.8850   75.2150 C   0  0  0  0  0  0  0  0  0  0  0  0
    1.9140   54.5620   73.9630 O   0  0  0  0  0  0  0  0  0  0  0  0
    1.1890   65.8930   70.1620 C   0  0  0  0  0  0  0  0  0  0  0  0
    0.6760   66.8000   69.0750 C   0  0  0  0  0  0  0  0  0  0  0  0
    1.4820   67.8580   68.5880 C   0  0  0  0  0  0  0  0  0  0  0  0
    1.0070   68.7290   67.6010 C   0  0  0  0  0  0  0  0  0  0  0  0
   -0.2670   68.5230   67.1220 C   0  0  0  0  0  0  0  0  0  0  0  0
   -1.0560   67.5000   67.5860 C   0  0  0  0  0  0  0  0  0  0  0  0
   -0.6170   66.6230   68.5560 C   0  0  0  0  0  0  0  0  0  0  0  0
   -2.2750   67.4720   66.9880 O   0  0  0  0  0  0  0  0  0  0  0  0
   -2.1570   68.5830   66.0710 C   0  0  0  0  0  0  0  0  0  0  0  0
   -0.8900   69.2680   66.1720 O   0  0  0  0  0  0  0  0  0  0  0  0
   -0.6148   62.6048   73.5336 H   0  0  0  0  0  0  0  0  0  0  0  0
   -0.7548   61.7737   71.0172 H   0  0  0  0  0  0  0  0  0  0  0  0
   -1.6665   63.2236   71.6087 H   0  0  0  0  0  0  0  0  0  0  0  0
    1.0350   63.2944   70.1952 H   0  0  0  0  0  0  0  0  0  0  0  0
   -0.5607   63.6306   69.4295 H   0  0  0  0  0  0  0  0  0  0  0  0
   -0.8128   65.5271   70.5587 H   0  0  0  0  0  0  0  0  0  0  0  0
    0.6231   66.2047   72.6103 H   0  0  0  0  0  0  0  0  0  0  0  0
   -0.9276   65.2917   72.7258 H   0  0  0  0  0  0  0  0  0  0  0  0
    1.8551   64.0470   72.5866 H   0  0  0  0  0  0  0  0  0  0  0  0
    0.8601   64.2680   74.0841 H   0  0  0  0  0  0  0  0  0  0  0  0
   -0.7477   55.0437   74.4675 H   0  0  0  0  0  0  0  0  0  0  0  0
   -1.8282   57.2954   74.2598 H   0  0  0  0  0  0  0  0  0  0  0  0
    3.0688   56.7212   73.2699 H   0  0  0  0  0  0  0  0  0  0  0  0
    2.1508   61.8984   72.4412 H   0  0  0  0  0  0  0  0  0  0  0  0
   -0.7845   60.0997   74.4020 H   0  0  0  0  0  0  0  0  0  0  0  0
   -1.2128   59.7865   72.7293 H   0  0  0  0  0  0  0  0  0  0  0  0
    1.9151   54.6227   76.0309 H   0  0  0  0  0  0  0  0  0  0  0  0
    0.9928   53.2705   75.2908 H   0  0  0  0  0  0  0  0  0  0  0  0
    2.7888   53.2386   75.2908 H   0  0  0  0  0  0  0  0  0  0  0  0
    1.7048   66.5056   70.9161 H   0  0  0  0  0  0  0  0  0  0  0  0
    1.8673   65.1654   69.6924 H   0  0  0  0  0  0  0  0  0  0  0  0
    2.4959   67.9970   68.9914 H   0  0  0  0  0  0  0  0  0  0  0  0
    1.6310   69.5511   67.2205 H   0  0  0  0  0  0  0  0  0  0  0  0
   -1.2623   65.8070   68.9134 H   0  0  0  0  0  0  0  0  0  0  0  0
   -2.2690   68.2034   65.0447 H   0  0  0  0  0  0  0  0  0  0  0  0
   -2.9433   69.3073   66.3300 H   0  0  0  0  0  0  0  0  0  0  0  0
  2  1  1  0
  3  2  1  0
  4  3  1  0
  5  4  1  0
  6  5  1  0
  6  1  1  0
  8  7  2  0
  9  8  1  0
 10  9  2  0
 11 10  1  0
 12 11  2  0
 12  7  1  0
 13 11  1  0
 14 13  2  0
 15 13  1  0
 16 15  2  0
 16  1  1  0
 17 15  1  0
 17 10  1  0
 19 18  1  0
 19  7  1  0
 20  4  1  0
 21 20  1  0
 22 21  2  0
 23 22  1  0
 24 23  2  0
 25 24  1  0
 26 21  1  0
 26 25  2  0
 27 25  1  0
 28 27  1  0
 29 24  1  0
 29 28  1  0
  1 30  1  0
  2 31  1  0
  2 32  1  0
  3 33  1  0
  3 34  1  0
  4 35  1  0
  5 36  1  0
  5 37  1  0
  6 38  1  0
  6 39  1  0
  8 40  1  0
  9 41  1  0
 12 42  1  0
 16 43  1  0
 17 44  1  0
 17 45  1  0
 18 46  1  0
 18 47  1  0
 18 48  1  0
 20 49  1  0
 20 50  1  0
 22 51  1  0
 23 52  1  0
 26 53  1  0
 28 54  1  0
 28 55  1  0
M  CHG  1   4   1
M  END
>  <score>  (6) 
-9.302

$$$$
=
     RDKit          3D

 55 59  0  0  0  0  0  0  0  0999 V2000
    4.4240   59.8460   71.3160 C   0  0  0  0  0  0  0  0  0  0  0  0
    5.5900   60.8490   71.2460 C   0  0  0  0  0  0  0  0  0  0  0  0
    5.0990   62.2850   71.3390 C   0  0  0  0  0  0  0  0  0  0  0  0
    4.1960   62.6070   70.1590 N   0  0  0  0  0  4  0  0  0  0  0  0
    3.4690   61.4130   69.5780 C   0  0  0  0  0  0  0  0  0  0  0  0
    3.1450   60.4080   70.6690 C   0  0  0  0  0  0  0  0  0  0  0  0
    0.2000   56.0380   75.7450 C   0  0  0  0  0  0  0  0  0  0  0  0
   -0.3310   55.7730   74.4680 C   0  0  0  0  0  0  0  0  0  0  0  0
    0.2300   56.3450   73.3170 C   0  0  0  0  0  0  0  0  0  0  0  0
    1.3240   57.1810   73.4600 C   0  0  0  0  0  0  0  0  0  0  0  0
    1.8390   57.4340   74.7300 C   0  0  0  0  0  0  0  0  0  0  0  0
    1.3040   56.8820   75.8790 C   0  0  0  0  0  0  0  0  0  0  0  0
    2.9850   58.3400   74.6160 C   0  0  0  0  0  0  0  0  0  0  0  0
    3.6720   58.7680   75.5220 O   0  0  0  0  0  0  0  0  0  0  0  0
    3.1560   58.6440   73.1590 C   0  0  0  0  0  0  0  0  0  0  0  0
    4.1380   59.4570   72.7430 C   0  0  0  0  0  0  0  0  0  0  0  0
    2.0900   57.9020   72.3920 C   0  0  0  0  0  0  0  0  0  0  0  0
   -0.9040   54.2610   76.8830 C   0  0  0  0  0  0  0  0  0  0  0  0
   -0.2710   55.5340   76.9260 O   0  0  0  0  0  0  0  0  0  0  0  0
    3.2640   63.7710   70.4510 C   0  0  0  0  0  0  0  0  0  0  0  0
    2.0770   63.3750   71.2890 C   0  0  0  0  0  0  0  0  0  0  0  0
    0.7870   63.2950   70.7090 C   0  0  0  0  0  0  0  0  0  0  0  0
   -0.3300   62.9590   71.4830 C   0  0  0  0  0  0  0  0  0  0  0  0
   -0.1320   62.7110   72.8220 C   0  0  0  0  0  0  0  0  0  0  0  0
    1.1140   62.7840   73.3940 C   0  0  0  0  0  0  0  0  0  0  0  0
    2.2350   63.1100   72.6590 C   0  0  0  0  0  0  0  0  0  0  0  0
    1.0930   62.5070   74.7230 O   0  0  0  0  0  0  0  0  0  0  0  0
   -0.3110   62.2240   74.9230 C   0  0  0  0  0  0  0  0  0  0  0  0
   -1.0950   62.3770   73.7200 O   0  0  0  0  0  0  0  0  0  0  0  0
    4.7334   58.9549   70.7501 H   0  0  0  0  0  0  0  0  0  0  0  0
    6.2801   60.6529   72.0798 H   0  0  0  0  0  0  0  0  0  0  0  0
    6.0969   60.7206   70.2782 H   0  0  0  0  0  0  0  0  0  0  0  0
    4.5357   62.4168   72.2746 H   0  0  0  0  0  0  0  0  0  0  0  0
    5.9652   62.9628   71.3244 H   0  0  0  0  0  0  0  0  0  0  0  0
    4.8362   62.9074   69.4101 H   0  0  0  0  0  0  0  0  0  0  0  0
    2.5339   61.7516   69.1079 H   0  0  0  0  0  0  0  0  0  0  0  0
    4.1155   60.9312   68.8298 H   0  0  0  0  0  0  0  0  0  0  0  0
    2.5406   60.9033   71.4433 H   0  0  0  0  0  0  0  0  0  0  0  0
    2.5917   59.5724   70.2154 H   0  0  0  0  0  0  0  0  0  0  0  0
   -1.2005   55.1061   74.3716 H   0  0  0  0  0  0  0  0  0  0  0  0
   -0.1900   56.1340   72.3225 H   0  0  0  0  0  0  0  0  0  0  0  0
    1.7344   57.1008   76.8674 H   0  0  0  0  0  0  0  0  0  0  0  0
    4.7964   59.8795   73.5163 H   0  0  0  0  0  0  0  0  0  0  0  0
    1.4396   58.6018   71.8468 H   0  0  0  0  0  0  0  0  0  0  0  0
    2.5046   57.2237   71.6318 H   0  0  0  0  0  0  0  0  0  0  0  0
   -1.0811   53.9048   77.9085 H   0  0  0  0  0  0  0  0  0  0  0  0
   -1.8644   54.3468   76.3536 H   0  0  0  0  0  0  0  0  0  0  0  0
   -0.2560   53.5470   76.3536 H   0  0  0  0  0  0  0  0  0  0  0  0
    3.8293   64.5472   70.9876 H   0  0  0  0  0  0  0  0  0  0  0  0
    2.8805   64.1368   69.4871 H   0  0  0  0  0  0  0  0  0  0  0  0
    0.6613   63.4997   69.6356 H   0  0  0  0  0  0  0  0  0  0  0  0
   -1.3329   62.8953   71.0356 H   0  0  0  0  0  0  0  0  0  0  0  0
    3.2261   63.1610   73.1334 H   0  0  0  0  0  0  0  0  0  0  0  0
   -0.4125   61.1878   75.2780 H   0  0  0  0  0  0  0  0  0  0  0  0
   -0.6911   62.9492   75.6576 H   0  0  0  0  0  0  0  0  0  0  0  0
  2  1  1  0
  3  2  1  0
  4  3  1  0
  5  4  1  0
  6  5  1  0
  6  1  1  0
  8  7  2  0
  9  8  1  0
 10  9  2  0
 11 10  1  0
 12 11  2  0
 12  7  1  0
 13 11  1  0
 14 13  2  0
 15 13  1  0
 16 15  2  0
 16  1  1  0
 17 15  1  0
 17 10  1  0
 19 18  1  0
 19  7  1  0
 20  4  1  0
 21 20  1  0
 22 21  2  0
 23 22  1  0
 24 23  2  0
 25 24  1  0
 26 21  1  0
 26 25  2  0
 27 25  1  0
 28 27  1  0
 29 24  1  0
 29 28  1  0
  1 30  1  0
  2 31  1  0
  2 32  1  0
  3 33  1  0
  3 34  1  0
  4 35  1  0
  5 36  1  0
  5 37  1  0
  6 38  1  0
  6 39  1  0
  8 40  1  0
  9 41  1  0
 12 42  1  0
 16 43  1  0
 17 44  1  0
 17 45  1  0
 18 46  1  0
 18 47  1  0
 18 48  1  0
 20 49  1  0
 20 50  1  0
 22 51  1  0
 23 52  1  0
 26 53  1  0
 28 54  1  0
 28 55  1  0
M  CHG  1   4   1
M  END
>  <score>  (7) 
-9.236

$$$$
=
     RDKit          3D

 55 59  0  0  0  0  0  0  0  0999 V2000
    0.3290   66.7180   69.8620 C   0  0  0  0  0  0  0  0  0  0  0  0
   -0.9200   67.1030   69.0490 C   0  0  0  0  0  0  0  0  0  0  0  0
   -0.7400   66.8020   67.5700 C   0  0  0  0  0  0  0  0  0  0  0  0
    0.4030   67.6280   67.0020 N   0  0  0  0  0  4  0  0  0  0  0  0
    1.4680   68.0050   68.0090 C   0  0  0  0  0  0  0  0  0  0  0  0
    1.6220   66.9110   69.0510 C   0  0  0  0  0  0  0  0  0  0  0  0
    3.9730   60.7130   71.4810 C   0  0  0  0  0  0  0  0  0  0  0  0
    4.9780   61.6180   71.0930 C   0  0  0  0  0  0  0  0  0  0  0  0
    4.6620   62.9260   70.6960 C   0  0  0  0  0  0  0  0  0  0  0  0
    3.3330   63.3130   70.6930 C   0  0  0  0  0  0  0  0  0  0  0  0
    2.3480   62.4050   71.0800 C   0  0  0  0  0  0  0  0  0  0  0  0
    2.6350   61.1130   71.4750 C   0  0  0  0  0  0  0  0  0  0  0  0
    1.0350   63.0490   70.9930 C   0  0  0  0  0  0  0  0  0  0  0  0
   -0.0410   62.5530   71.2550 O   0  0  0  0  0  0  0  0  0  0  0  0
    1.2690   64.4500   70.5130 C   0  0  0  0  0  0  0  0  0  0  0  0
    0.2390   65.2900   70.3360 C   0  0  0  0  0  0  0  0  0  0  0  0
    2.7520   64.6420   70.3150 C   0  0  0  0  0  0  0  0  0  0  0  0
    3.0660   58.5320   71.7920 C   0  0  0  0  0  0  0  0  0  0  0  0
    4.1730   59.4210   71.8840 O   0  0  0  0  0  0  0  0  0  0  0  0
    0.9850   67.0120   65.7410 C   0  0  0  0  0  0  0  0  0  0  0  0
    2.2140   67.7310   65.2520 C   0  0  0  0  0  0  0  0  0  0  0  0
    2.7600   68.8030   66.0000 C   0  0  0  0  0  0  0  0  0  0  0  0
    3.8830   69.5010   65.5420 C   0  0  0  0  0  0  0  0  0  0  0  0
    4.4370   69.1110   64.3430 C   0  0  0  0  0  0  0  0  0  0  0  0
    3.9170   68.0720   63.6120 C   0  0  0  0  0  0  0  0  0  0  0  0
    2.8130   67.3630   64.0360 C   0  0  0  0  0  0  0  0  0  0  0  0
    4.6060   67.8500   62.4630 O   0  0  0  0  0  0  0  0  0  0  0  0
    5.6410   68.8550   62.5640 C   0  0  0  0  0  0  0  0  0  0  0  0
    5.5210   69.6740   63.7470 O   0  0  0  0  0  0  0  0  0  0  0  0
    0.3651   67.3897   70.7323 H   0  0  0  0  0  0  0  0  0  0  0  0
   -1.7816   66.5330   69.4270 H   0  0  0  0  0  0  0  0  0  0  0  0
   -1.0842   68.1848   69.1623 H   0  0  0  0  0  0  0  0  0  0  0  0
   -0.5148   65.7330   67.4414 H   0  0  0  0  0  0  0  0  0  0  0  0
   -1.6673   67.0570   67.0361 H   0  0  0  0  0  0  0  0  0  0  0  0
   -0.0265   68.5250   66.7340 H   0  0  0  0  0  0  0  0  0  0  0  0
    2.4262   68.1464   67.4875 H   0  0  0  0  0  0  0  0  0  0  0  0
    1.1701   68.9371   68.5115 H   0  0  0  0  0  0  0  0  0  0  0  0
    1.8700   65.9669   68.5439 H   0  0  0  0  0  0  0  0  0  0  0  0
    2.4234   67.2056   69.7445 H   0  0  0  0  0  0  0  0  0  0  0  0
    6.0293   61.2945   71.1011 H   0  0  0  0  0  0  0  0  0  0  0  0
    5.4528   63.6284   70.3938 H   0  0  0  0  0  0  0  0  0  0  0  0
    1.8347   60.4207   71.7755 H   0  0  0  0  0  0  0  0  0  0  0  0
   -0.7656   64.9006   70.5574 H   0  0  0  0  0  0  0  0  0  0  0  0
    2.9799   64.8865   69.2670 H   0  0  0  0  0  0  0  0  0  0  0  0
    3.1590   65.4717   70.9116 H   0  0  0  0  0  0  0  0  0  0  0  0
    2.7284   58.2609   72.8032 H   0  0  0  0  0  0  0  0  0  0  0  0
    2.2445   59.0242   71.2508 H   0  0  0  0  0  0  0  0  0  0  0  0
    3.3692   57.6236   71.2508 H   0  0  0  0  0  0  0  0  0  0  0  0
    1.2509   65.9657   65.9518 H   0  0  0  0  0  0  0  0  0  0  0  0
    0.2215   67.0891   64.9529 H   0  0  0  0  0  0  0  0  0  0  0  0
    2.2946   69.0908   66.9543 H   0  0  0  0  0  0  0  0  0  0  0  0
    4.3093   70.3338   66.1206 H   0  0  0  0  0  0  0  0  0  0  0  0
    2.4121   66.5314   63.4379 H   0  0  0  0  0  0  0  0  0  0  0  0
    6.6182   68.3504   62.5851 H   0  0  0  0  0  0  0  0  0  0  0  0
    5.5395   69.5194   61.6932 H   0  0  0  0  0  0  0  0  0  0  0  0
  2  1  1  0
  3  2  1  0
  4  3  1  0
  5  4  1  0
  6  5  1  0
  6  1  1  0
  8  7  2  0
  9  8  1  0
 10  9  2  0
 11 10  1  0
 12 11  2  0
 12  7  1  0
 13 11  1  0
 14 13  2  0
 15 13  1  0
 16 15  2  0
 16  1  1  0
 17 15  1  0
 17 10  1  0
 19 18  1  0
 19  7  1  0
 20  4  1  0
 21 20  1  0
 22 21  2  0
 23 22  1  0
 24 23  2  0
 25 24  1  0
 26 21  1  0
 26 25  2  0
 27 25  1  0
 28 27  1  0
 29 24  1  0
 29 28  1  0
  1 30  1  0
  2 31  1  0
  2 32  1  0
  3 33  1  0
  3 34  1  0
  4 35  1  0
  5 36  1  0
  5 37  1  0
  6 38  1  0
  6 39  1  0
  8 40  1  0
  9 41  1  0
 12 42  1  0
 16 43  1  0
 17 44  1  0
 17 45  1  0
 18 46  1  0
 18 47  1  0
 18 48  1  0
 20 49  1  0
 20 50  1  0
 22 51  1  0
 23 52  1  0
 26 53  1  0
 28 54  1  0
 28 55  1  0
M  CHG  1   4   1
M  END
>  <score>  (8) 
-9.204

$$$$
=
     RDKit          3D

 55 59  0  0  0  0  0  0  0  0999 V2000
    1.6530   59.0580   73.0330 C   0  0  0  0  0  0  0  0  0  0  0  0
    2.5250   59.2590   74.2850 C   0  0  0  0  0  0  0  0  0  0  0  0
    3.5970   60.3130   74.0580 C   0  0  0  0  0  0  0  0  0  0  0  0
    4.5430   59.8700   72.9540 N   0  0  0  0  0  4  0  0  0  0  0  0
    3.9250   58.9370   71.9330 C   0  0  0  0  0  0  0  0  0  0  0  0
    2.4560   59.2660   71.7360 C   0  0  0  0  0  0  0  0  0  0  0  0
   -5.1000   60.1170   75.3210 C   0  0  0  0  0  0  0  0  0  0  0  0
   -4.7690   58.8490   75.8350 C   0  0  0  0  0  0  0  0  0  0  0  0
   -3.5090   58.2780   75.6000 C   0  0  0  0  0  0  0  0  0  0  0  0
   -2.5910   58.9900   74.8490 C   0  0  0  0  0  0  0  0  0  0  0  0
   -2.9330   60.2450   74.3460 C   0  0  0  0  0  0  0  0  0  0  0  0
   -4.1660   60.8280   74.5640 C   0  0  0  0  0  0  0  0  0  0  0  0
   -1.8000   60.7890   73.5920 C   0  0  0  0  0  0  0  0  0  0  0  0
   -1.7490   61.8590   73.0210 O   0  0  0  0  0  0  0  0  0  0  0  0
   -0.7040   59.7690   73.6560 C   0  0  0  0  0  0  0  0  0  0  0  0
    0.4710   59.9920   73.0490 C   0  0  0  0  0  0  0  0  0  0  0  0
   -1.1960   58.5950   74.4670 C   0  0  0  0  0  0  0  0  0  0  0  0
   -6.9840   61.1740   74.3170 C   0  0  0  0  0  0  0  0  0  0  0  0
   -6.2950   60.7610   75.4910 O   0  0  0  0  0  0  0  0  0  0  0  0
    5.2650   61.0410   72.3110 C   0  0  0  0  0  0  0  0  0  0  0  0
    4.3380   61.9610   71.5620 C   0  0  0  0  0  0  0  0  0  0  0  0
    4.6170   62.3210   70.2210 C   0  0  0  0  0  0  0  0  0  0  0  0
    3.7820   63.2000   69.5220 C   0  0  0  0  0  0  0  0  0  0  0  0
    2.6830   63.7020   70.1830 C   0  0  0  0  0  0  0  0  0  0  0  0
    2.4020   63.3590   71.4820 C   0  0  0  0  0  0  0  0  0  0  0  0
    3.2030   62.4940   72.1970 C   0  0  0  0  0  0  0  0  0  0  0  0
    1.2780   63.9630   71.9470 O   0  0  0  0  0  0  0  0  0  0  0  0
    0.8650   64.7110   70.7810 C   0  0  0  0  0  0  0  0  0  0  0  0
    1.7700   64.5650   69.6650 O   0  0  0  0  0  0  0  0  0  0  0  0
    1.2963   58.0176   73.0545 H   0  0  0  0  0  0  0  0  0  0  0  0
    1.8830   59.5770   75.1197 H   0  0  0  0  0  0  0  0  0  0  0  0
    3.0234   58.3054   74.5134 H   0  0  0  0  0  0  0  0  0  0  0  0
    3.1193   61.2607   73.7687 H   0  0  0  0  0  0  0  0  0  0  0  0
    4.1690   60.4493   74.9876 H   0  0  0  0  0  0  0  0  0  0  0  0
    5.2546   59.2972   73.4298 H   0  0  0  0  0  0  0  0  0  0  0  0
    4.4530   59.0479   70.9744 H   0  0  0  0  0  0  0  0  0  0  0  0
    4.0133   57.9023   72.2958 H   0  0  0  0  0  0  0  0  0  0  0  0
    2.3637   60.3165   71.4229 H   0  0  0  0  0  0  0  0  0  0  0  0
    2.0511   58.5915   70.9671 H   0  0  0  0  0  0  0  0  0  0  0  0
   -5.5105   58.2966   76.4308 H   0  0  0  0  0  0  0  0  0  0  0  0
   -3.2568   57.2864   76.0039 H   0  0  0  0  0  0  0  0  0  0  0  0
   -4.4048   61.8206   74.1545 H   0  0  0  0  0  0  0  0  0  0  0  0
    0.5820   60.9460   72.5127 H   0  0  0  0  0  0  0  0  0  0  0  0
   -1.1995   57.6750   73.8640 H   0  0  0  0  0  0  0  0  0  0  0  0
   -0.5591   58.3802   75.3377 H   0  0  0  0  0  0  0  0  0  0  0  0
   -7.8957   61.7205   74.6000 H   0  0  0  0  0  0  0  0  0  0  0  0
   -6.3328   61.8308   73.7216 H   0  0  0  0  0  0  0  0  0  0  0  0
   -7.2563   60.2901   73.7216 H   0  0  0  0  0  0  0  0  0  0  0  0
    5.7702   61.6178   73.0997 H   0  0  0  0  0  0  0  0  0  0  0  0
    5.9799   60.6289   71.5836 H   0  0  0  0  0  0  0  0  0  0  0  0
    5.5035   61.9034   69.7213 H   0  0  0  0  0  0  0  0  0  0  0  0
    3.9962   63.4804   68.4801 H   0  0  0  0  0  0  0  0  0  0  0  0
    2.9603   62.2282   73.2364 H   0  0  0  0  0  0  0  0  0  0  0  0
   -0.1304   64.3582   70.4731 H   0  0  0  0  0  0  0  0  0  0  0  0
    0.8566   65.7751   71.0597 H   0  0  0  0  0  0  0  0  0  0  0  0
  2  1  1  0
  3  2  1  0
  4  3  1  0
  5  4  1  0
  6  5  1  0
  6  1  1  0
  8  7  2  0
  9  8  1  0
 10  9  2  0
 11 10  1  0
 12 11  2  0
 12  7  1  0
 13 11  1  0
 14 13  2  0
 15 13  1  0
 16 15  2  0
 16  1  1  0
 17 15  1  0
 17 10  1  0
 19 18  1  0
 19  7  1  0
 20  4  1  0
 21 20  1  0
 22 21  2  0
 23 22  1  0
 24 23  2  0
 25 24  1  0
 26 21  1  0
 26 25  2  0
 27 25  1  0
 28 27  1  0
 29 24  1  0
 29 28  1  0
  1 30  1  0
  2 31  1  0
  2 32  1  0
  3 33  1  0
  3 34  1  0
  4 35  1  0
  5 36  1  0
  5 37  1  0
  6 38  1  0
  6 39  1  0
  8 40  1  0
  9 41  1  0
 12 42  1  0
 16 43  1  0
 17 44  1  0
 17 45  1  0
 18 46  1  0
 18 47  1  0
 18 48  1  0
 20 49  1  0
 20 50  1  0
 22 51  1  0
 23 52  1  0
 26 53  1  0
 28 54  1  0
 28 55  1  0
M  CHG  1   4   1
M  END
>  <score>  (9) 
-9.143

$$$$
