=
     RDKit          3D

 29 31  0  0  0  0  0  0  0  0999 V2000
    3.5670   60.5890   70.0760 C   0  0  1  0  0  0  0  0  0  0  0  0
    3.2540   61.7930   69.1710 C   0  0  0  0  0  0  0  0  0  0  0  0
    3.4350   63.0950   69.9740 C   0  0  2  0  0  0  0  0  0  0  0  0
    4.8860   63.1800   70.4800 C   0  0  0  0  0  0  0  0  0  0  0  0
    5.2060   61.9740   71.3820 C   0  0  2  0  0  0  0  0  0  0  0  0
    5.0190   60.6750   70.5740 C   0  0  0  0  0  0  0  0  0  0  0  0
    4.2380   61.9670   72.5790 C   0  0  0  0  0  0  0  0  0  0  0  0
    2.7820   61.8740   72.0860 C   0  0  2  0  0  0  0  0  0  0  0  0
    2.6050   60.5760   71.2750 C   0  0  0  0  0  0  0  0  0  0  0  0
    2.4790   63.0810   71.1800 C   0  0  0  0  0  0  0  0  0  0  0  0
    3.3920   59.3360   69.2970 N   0  0  0  0  0  4  0  0  0  0  0  0
    3.9394   61.7938   68.3106 H   0  0  0  0  0  0  0  0  0  0  0  0
    2.2168   61.7234   68.8113 H   0  0  0  0  0  0  0  0  0  0  0  0
    3.2137   63.9613   69.3332 H   0  0  0  0  0  0  0  0  0  0  0  0
    5.5713   63.1822   69.6196 H   0  0  0  0  0  0  0  0  0  0  0  0
    5.0099   64.1057   71.0611 H   0  0  0  0  0  0  0  0  0  0  0  0
    6.2431   62.0434   71.7420 H   0  0  0  0  0  0  0  0  0  0  0  0
    5.2391   59.8088   71.2153 H   0  0  0  0  0  0  0  0  0  0  0  0
    5.7037   60.6756   69.7131 H   0  0  0  0  0  0  0  0  0  0  0  0
    4.4602   61.1016   73.2207 H   0  0  0  0  0  0  0  0  0  0  0  0
    4.3650   62.8996   73.1483 H   0  0  0  0  0  0  0  0  0  0  0  0
    2.0962   61.8718   72.9461 H   0  0  0  0  0  0  0  0  0  0  0  0
    1.5684   60.5075   70.9133 H   0  0  0  0  0  0  0  0  0  0  0  0
    2.8267   59.7093   71.9150 H   0  0  0  0  0  0  0  0  0  0  0  0
    2.6078   64.0091   71.7563 H   0  0  0  0  0  0  0  0  0  0  0  0
    1.4438   63.0050   70.8159 H   0  0  0  0  0  0  0  0  0  0  0  0
    3.2811   58.5422   69.9439 H   0  0  0  0  0  0  0  0  0  0  0  0
    2.5539   59.4149   68.7035 H   0  0  0  0  0  0  0  0  0  0  0  0
    4.2197   59.1823   68.7035 H   0  0  0  0  0  0  0  0  0  0  0  0
  2  1  1  0
  3  2  1  0
  4  3  1  0
  5  4  1  0
  6  1  1  0
  6  5  1  0
  7  5  1  0
  8  7  1  0
  9  1  1  0
  9  8  1  0
 10  3  1  0
 10  8  1  0
  1 11  1  6
  2 12  1  0
  2 13  1  0
  3 14  1  6
  4 15  1  0
  4 16  1  0
  5 17  1  1
  6 18  1  0
  6 19  1  0
  7 20  1  0
  7 21  1  0
  8 22  1  1
  9 23  1  0
  9 24  1  0
 10 25  1  0
 10 26  1  0
 11 27  1  0
 11 28  1  0
 11 29  1  0
M  CHG  1  11   1
M  END
>  <score>  (1) 
-6.425

$$$$
=
     RDKit          3D

 29 31  0  0  0  0  0  0  0  0999 V2000
    3.5740   60.5900   70.0830 C   0  0  1  0  0  0  0  0  0  0  0  0
    5.0240   60.6800   70.5870 C   0  0  0  0  0  0  0  0  0  0  0  0
    5.2050   61.9810   71.3910 C   0  0  2  0  0  0  0  0  0  0  0  0
    4.2330   61.9790   72.5830 C   0  0  0  0  0  0  0  0  0  0  0  0
    2.7800   61.8830   72.0850 C   0  0  2  0  0  0  0  0  0  0  0  0
    2.6070   60.5820   71.2790 C   0  0  0  0  0  0  0  0  0  0  0  0
    2.4790   63.0860   71.1720 C   0  0  0  0  0  0  0  0  0  0  0  0
    3.4400   63.0950   69.9690 C   0  0  2  0  0  0  0  0  0  0  0  0
    3.2650   61.7890   69.1720 C   0  0  0  0  0  0  0  0  0  0  0  0
    4.8880   63.1830   70.4820 C   0  0  0  0  0  0  0  0  0  0  0  0
    3.4040   59.3340   69.3090 N   0  0  0  0  0  4  0  0  0  0  0  0
    5.2428   59.8163   71.2320 H   0  0  0  0  0  0  0  0  0  0  0  0
    5.7125   60.6789   69.7291 H   0  0  0  0  0  0  0  0  0  0  0  0
    6.2401   62.0520   71.7565 H   0  0  0  0  0  0  0  0  0  0  0  0
    4.4530   61.1167   73.2296 H   0  0  0  0  0  0  0  0  0  0  0  0
    4.3571   62.9144   73.1484 H   0  0  0  0  0  0  0  0  0  0  0  0
    2.0913   61.8842   72.9428 H   0  0  0  0  0  0  0  0  0  0  0  0
    1.5719   60.5115   70.9136 H   0  0  0  0  0  0  0  0  0  0  0  0
    2.8268   59.7182   71.9237 H   0  0  0  0  0  0  0  0  0  0  0  0
    1.4430   63.0161   70.8088 H   0  0  0  0  0  0  0  0  0  0  0  0
    2.6142   64.0146   71.7460 H   0  0  0  0  0  0  0  0  0  0  0  0
    3.2200   63.9574   69.3226 H   0  0  0  0  0  0  0  0  0  0  0  0
    3.9550   61.7865   68.3153 H   0  0  0  0  0  0  0  0  0  0  0  0
    2.2296   61.7166   68.8077 H   0  0  0  0  0  0  0  0  0  0  0  0
    5.0148   64.1141   71.0537 H   0  0  0  0  0  0  0  0  0  0  0  0
    5.5742   63.1733   69.6223 H   0  0  0  0  0  0  0  0  0  0  0  0
    3.2968   58.5421   69.9588 H   0  0  0  0  0  0  0  0  0  0  0  0
    2.5652   59.4072   68.7157 H   0  0  0  0  0  0  0  0  0  0  0  0
    4.2320   59.1816   68.7157 H   0  0  0  0  0  0  0  0  0  0  0  0
  2  1  1  0
  3  2  1  0
  4  3  1  0
  5  4  1  0
  6  1  1  0
  6  5  1  0
  7  5  1  0
  8  7  1  0
  9  1  1  0
  9  8  1  0
 10  3  1  0
 10  8  1  0
  1 11  1  6
  2 12  1  0
  2 13  1  0
  3 14  1  1
  4 15  1  0
  4 16  1  0
  5 17  1  1
  6 18  1  0
  6 19  1  0
  7 20  1  0
  7 21  1  0
  8 22  1  6
  9 23  1  0
  9 24  1  0
 10 25  1  0
 10 26  1  0
 11 27  1  0
 11 28  1  0
 11 29  1  0
M  CHG  1  11   1
M  END
>  <score>  (2) 
-6.423

$$$$
=
     RDKit          3D

 29 31  0  0  0  0  0  0  0  0999 V2000
    3.5680   60.5920   70.0730 C   0  0  1  0  0  0  0  0  0  0  0  0
    2.6100   60.5890   71.2760 C   0  0  0  0  0  0  0  0  0  0  0  0
    2.7930   61.8910   72.0780 C   0  0  2  0  0  0  0  0  0  0  0  0
    2.4890   63.0930   71.1670 C   0  0  0  0  0  0  0  0  0  0  0  0
    3.4410   63.0990   69.9570 C   0  0  2  0  0  0  0  0  0  0  0  0
    3.2550   61.7920   69.1630 C   0  0  0  0  0  0  0  0  0  0  0  0
    4.8940   63.1830   70.4590 C   0  0  0  0  0  0  0  0  0  0  0  0
    5.2140   61.9800   71.3660 C   0  0  2  0  0  0  0  0  0  0  0  0
    5.0220   60.6780   70.5650 C   0  0  0  0  0  0  0  0  0  0  0  0
    4.2510   61.9830   72.5660 C   0  0  0  0  0  0  0  0  0  0  0  0
    3.3880   59.3360   69.3030 N   0  0  0  0  0  4  0  0  0  0  0  0
    1.5720   60.5209   70.9185 H   0  0  0  0  0  0  0  0  0  0  0  0
    2.8319   59.7258   71.9206 H   0  0  0  0  0  0  0  0  0  0  0  0
    2.1102   61.8958   72.9404 H   0  0  0  0  0  0  0  0  0  0  0  0
    1.4502   63.0256   70.8114 H   0  0  0  0  0  0  0  0  0  0  0  0
    2.6312   64.0215   71.7394 H   0  0  0  0  0  0  0  0  0  0  0  0
    3.2196   63.9619   69.3117 H   0  0  0  0  0  0  0  0  0  0  0  0
    3.9377   61.7863   68.3005 H   0  0  0  0  0  0  0  0  0  0  0  0
    2.2162   61.7226   68.8080 H   0  0  0  0  0  0  0  0  0  0  0  0
    5.5770   63.1798   69.5968 H   0  0  0  0  0  0  0  0  0  0  0  0
    5.0213   64.1110   71.0356 H   0  0  0  0  0  0  0  0  0  0  0  0
    6.2525   62.0473   71.7224 H   0  0  0  0  0  0  0  0  0  0  0  0
    5.2432   59.8144   71.2094 H   0  0  0  0  0  0  0  0  0  0  0  0
    5.7034   60.6735   69.7015 H   0  0  0  0  0  0  0  0  0  0  0  0
    4.3850   62.9135   73.1371 H   0  0  0  0  0  0  0  0  0  0  0  0
    4.4711   61.1152   73.2051 H   0  0  0  0  0  0  0  0  0  0  0  0
    3.2749   58.5467   69.9551 H   0  0  0  0  0  0  0  0  0  0  0  0
    2.5496   59.4141   68.7098 H   0  0  0  0  0  0  0  0  0  0  0  0
    4.2146   59.1755   68.7098 H   0  0  0  0  0  0  0  0  0  0  0  0
  2  1  1  0
  3  2  1  0
  4  3  1  0
  5  4  1  0
  6  1  1  0
  6  5  1  0
  7  5  1  0
  8  7  1  0
  9  1  1  0
  9  8  1  0
 10  3  1  0
 10  8  1  0
  1 11  1  6
  2 12  1  0
  2 13  1  0
  3 14  1  1
  4 15  1  0
  4 16  1  0
  5 17  1  6
  6 18  1  0
  6 19  1  0
  7 20  1  0
  7 21  1  0
  8 22  1  1
  9 23  1  0
  9 24  1  0
 10 25  1  0
 10 26  1  0
 11 27  1  0
 11 28  1  0
 11 29  1  0
M  CHG  1  11   1
M  END
>  <score>  (3) 
-6.417

$$$$
=
     RDKit          3D

 29 31  0  0  0  0  0  0  0  0999 V2000
    2.8660   61.9640   72.1850 C   0  0  1  0  0  0  0  0  0  0  0  0
    2.4250   60.7990   71.2830 C   0  0  0  0  0  0  0  0  0  0  0  0
    3.2110   60.8530   69.9590 C   0  0  2  0  0  0  0  0  0  0  0  0
    4.7160   60.7460   70.2590 C   0  0  0  0  0  0  0  0  0  0  0  0
    5.1620   61.9070   71.1670 C   0  0  2  0  0  0  0  0  0  0  0  0
    4.3700   61.8490   72.4860 C   0  0  0  0  0  0  0  0  0  0  0  0
    4.8670   63.2420   70.4600 C   0  0  0  0  0  0  0  0  0  0  0  0
    3.3620   63.3660   70.1610 C   0  0  2  0  0  0  0  0  0  0  0  0
    2.5770   63.3020   71.4850 C   0  0  0  0  0  0  0  0  0  0  0  0
    2.9290   62.1950   69.2600 C   0  0  0  0  0  0  0  0  0  0  0  0
    2.1070   61.9070   73.4600 N   0  0  0  0  0  4  0  0  0  0  0  0
    2.6266   59.8444   71.7911 H   0  0  0  0  0  0  0  0  0  0  0  0
    1.3480   60.8817   71.0753 H   0  0  0  0  0  0  0  0  0  0  0  0
    2.9022   60.0215   69.3085 H   0  0  0  0  0  0  0  0  0  0  0  0
    4.9184   59.7906   70.7652 H   0  0  0  0  0  0  0  0  0  0  0  0
    5.2747   60.7959   69.3127 H   0  0  0  0  0  0  0  0  0  0  0  0
    6.2390   61.8251   71.3750 H   0  0  0  0  0  0  0  0  0  0  0  0
    4.6787   62.6808   73.1362 H   0  0  0  0  0  0  0  0  0  0  0  0
    4.5710   60.8939   72.9933 H   0  0  0  0  0  0  0  0  0  0  0  0
    5.1777   64.0734   71.1098 H   0  0  0  0  0  0  0  0  0  0  0  0
    5.4245   63.2763   69.5124 H   0  0  0  0  0  0  0  0  0  0  0  0
    3.1598   64.3211   69.6541 H   0  0  0  0  0  0  0  0  0  0  0  0
    1.4998   63.3826   71.2774 H   0  0  0  0  0  0  0  0  0  0  0  0
    2.8867   64.1324   72.1366 H   0  0  0  0  0  0  0  0  0  0  0  0
    3.4901   62.2372   68.3148 H   0  0  0  0  0  0  0  0  0  0  0  0
    1.8502   62.2758   69.0607 H   0  0  0  0  0  0  0  0  0  0  0  0
    2.7630   61.9563   74.2526 H   0  0  0  0  0  0  0  0  0  0  0  0
    1.4528   62.7012   73.5059 H   0  0  0  0  0  0  0  0  0  0  0  0
    1.5787   61.0240   73.5059 H   0  0  0  0  0  0  0  0  0  0  0  0
  2  1  1  0
  3  2  1  0
  4  3  1  0
  5  4  1  0
  6  1  1  0
  6  5  1  0
  7  5  1  0
  8  7  1  0
  9  1  1  0
  9  8  1  0
 10  3  1  0
 10  8  1  0
  1 11  1  1
  2 12  1  0
  2 13  1  0
  3 14  1  6
  4 15  1  0
  4 16  1  0
  5 17  1  1
  6 18  1  0
  6 19  1  0
  7 20  1  0
  7 21  1  0
  8 22  1  6
  9 23  1  0
  9 24  1  0
 10 25  1  0
 10 26  1  0
 11 27  1  0
 11 28  1  0
 11 29  1  0
M  CHG  1  11   1
M  END
>  <score>  (4) 
-6.281

$$$$
=
     RDKit          3D

 29 31  0  0  0  0  0  0  0  0999 V2000
    2.8540   61.9750   72.2090 C   0  0  1  0  0  0  0  0  0  0  0  0
    4.3560   61.8620   72.5200 C   0  0  0  0  0  0  0  0  0  0  0  0
    5.1540   61.9080   71.2040 C   0  0  2  0  0  0  0  0  0  0  0  0
    4.8650   63.2360   70.4830 C   0  0  0  0  0  0  0  0  0  0  0  0
    3.3610   63.3580   70.1740 C   0  0  2  0  0  0  0  0  0  0  0  0
    2.5690   63.3070   71.4940 C   0  0  0  0  0  0  0  0  0  0  0  0
    2.9320   62.1780   69.2820 C   0  0  0  0  0  0  0  0  0  0  0  0
    3.2090   60.8430   69.9960 C   0  0  2  0  0  0  0  0  0  0  0  0
    2.4170   60.8020   71.3170 C   0  0  0  0  0  0  0  0  0  0  0  0
    4.7130   60.7380   70.3050 C   0  0  0  0  0  0  0  0  0  0  0  0
    2.0880   61.9310   73.4810 N   0  0  0  0  0  4  0  0  0  0  0  0
    4.6617   62.6995   73.1643 H   0  0  0  0  0  0  0  0  0  0  0  0
    4.5542   60.9119   73.0377 H   0  0  0  0  0  0  0  0  0  0  0  0
    6.2300   61.8282   71.4183 H   0  0  0  0  0  0  0  0  0  0  0  0
    5.1726   64.0732   71.1267 H   0  0  0  0  0  0  0  0  0  0  0  0
    5.4284   63.2613   69.5385 H   0  0  0  0  0  0  0  0  0  0  0  0
    3.1623   64.3081   69.6565 H   0  0  0  0  0  0  0  0  0  0  0  0
    1.4929   63.3858   71.2798 H   0  0  0  0  0  0  0  0  0  0  0  0
    2.8754   64.1436   72.1392 H   0  0  0  0  0  0  0  0  0  0  0  0
    1.8564   62.2581   69.0661 H   0  0  0  0  0  0  0  0  0  0  0  0
    3.5068   62.2094   68.3447 H   0  0  0  0  0  0  0  0  0  0  0  0
    2.9020   60.0057   69.3520 H   0  0  0  0  0  0  0  0  0  0  0  0
    2.6161   59.8524   71.8353 H   0  0  0  0  0  0  0  0  0  0  0  0
    1.3409   60.8828   71.1037 H   0  0  0  0  0  0  0  0  0  0  0  0
    5.2805   60.7694   69.3632 H   0  0  0  0  0  0  0  0  0  0  0  0
    4.9066   59.7902   70.8286 H   0  0  0  0  0  0  0  0  0  0  0  0
    2.7411   61.9685   74.2766 H   0  0  0  0  0  0  0  0  0  0  0  0
    1.4476   62.7366   73.5242 H   0  0  0  0  0  0  0  0  0  0  0  0
    1.5441   61.0574   73.5242 H   0  0  0  0  0  0  0  0  0  0  0  0
  2  1  1  0
  3  2  1  0
  4  3  1  0
  5  4  1  0
  6  1  1  0
  6  5  1  0
  7  5  1  0
  8  7  1  0
  9  1  1  0
  9  8  1  0
 10  3  1  0
 10  8  1  0
  1 11  1  1
  2 12  1  0
  2 13  1  0
  3 14  1  1
  4 15  1  0
  4 16  1  0
  5 17  1  6
  6 18  1  0
  6 19  1  0
  7 20  1  0
  7 21  1  0
  8 22  1  6
  9 23  1  0
  9 24  1  0
 10 25  1  0
 10 26  1  0
 11 27  1  0
 11 28  1  0
 11 29  1  0
M  CHG  1  11   1
M  END
>  <score>  (5) 
-6.276

$$$$
=
     RDKit          3D

 29 31  0  0  0  0  0  0  0  0999 V2000
    3.6280   62.2820   69.4510 C   0  0  1  0  0  0  0  0  0  0  0  0
    4.0570   60.8360   69.1520 C   0  0  0  0  0  0  0  0  0  0  0  0
    4.1850   60.0580   70.4750 C   0  0  2  0  0  0  0  0  0  0  0  0
    2.8270   60.0640   71.1980 C   0  0  0  0  0  0  0  0  0  0  0  0
    2.3880   61.5090   71.4950 C   0  0  2  0  0  0  0  0  0  0  0  0
    2.2670   62.2830   70.1690 C   0  0  0  0  0  0  0  0  0  0  0  0
    3.4510   62.1880   72.3800 C   0  0  0  0  0  0  0  0  0  0  0  0
    4.8140   62.1950   71.6640 C   0  0  2  0  0  0  0  0  0  0  0  0
    4.6830   62.9660   70.3370 C   0  0  0  0  0  0  0  0  0  0  0  0
    5.2350   60.7450   71.3660 C   0  0  0  0  0  0  0  0  0  0  0  0
    3.5060   63.0290   68.1730 N   0  0  0  0  0  4  0  0  0  0  0  0
    3.3021   60.3535   68.5138 H   0  0  0  0  0  0  0  0  0  0  0  0
    5.0263   60.8397   68.6320 H   0  0  0  0  0  0  0  0  0  0  0  0
    4.4924   59.0221   70.2691 H   0  0  0  0  0  0  0  0  0  0  0  0
    2.0736   59.5795   70.5596 H   0  0  0  0  0  0  0  0  0  0  0  0
    2.9239   59.5166   72.1472 H   0  0  0  0  0  0  0  0  0  0  0  0
    1.4181   61.5043   72.0138 H   0  0  0  0  0  0  0  0  0  0  0  0
    1.9617   63.3194   70.3755 H   0  0  0  0  0  0  0  0  0  0  0  0
    1.5135   61.8005   69.5292 H   0  0  0  0  0  0  0  0  0  0  0  0
    3.1439   63.2238   72.5866 H   0  0  0  0  0  0  0  0  0  0  0  0
    3.5437   61.6284   73.3225 H   0  0  0  0  0  0  0  0  0  0  0  0
    5.5682   62.6779   72.3027 H   0  0  0  0  0  0  0  0  0  0  0  0
    5.6524   62.9694   69.8172 H   0  0  0  0  0  0  0  0  0  0  0  0
    4.3747   64.0017   70.5426 H   0  0  0  0  0  0  0  0  0  0  0  0
    5.3264   60.1916   72.3123 H   0  0  0  0  0  0  0  0  0  0  0  0
    6.2012   60.7531   70.8403 H   0  0  0  0  0  0  0  0  0  0  0  0
    3.3431   64.0263   68.3724 H   0  0  0  0  0  0  0  0  0  0  0  0
    4.3751   62.9249   67.6302 H   0  0  0  0  0  0  0  0  0  0  0  0
    2.7151   62.6538   67.6302 H   0  0  0  0  0  0  0  0  0  0  0  0
  2  1  1  0
  3  2  1  0
  4  3  1  0
  5  4  1  0
  6  1  1  0
  6  5  1  0
  7  5  1  0
  8  7  1  0
  9  1  1  0
  9  8  1  0
 10  3  1  0
 10  8  1  0
  1 11  1  6
  2 12  1  0
  2 13  1  0
  3 14  1  6
  4 15  1  0
  4 16  1  0
  5 17  1  1
  6 18  1  0
  6 19  1  0
  7 20  1  0
  7 21  1  0
  8 22  1  1
  9 23  1  0
  9 24  1  0
 10 25  1  0
 10 26  1  0
 11 27  1  0
 11 28  1  0
 11 29  1  0
M  CHG  1  11   1
M  END
>  <score>  (6) 
-6.269

$$$$
=
     RDKit          3D

 29 31  0  0  0  0  0  0  0  0999 V2000
    3.6130   62.3130   69.5120 C   0  0  1  0  0  0  0  0  0  0  0  0
    2.2680   62.2720   70.2570 C   0  0  0  0  0  0  0  0  0  0  0  0
    2.4370   61.4880   71.5720 C   0  0  2  0  0  0  0  0  0  0  0  0
    3.4990   62.1820   72.4430 C   0  0  0  0  0  0  0  0  0  0  0  0
    4.8470   62.2310   71.6990 C   0  0  2  0  0  0  0  0  0  0  0  0
    4.6700   63.0120   70.3840 C   0  0  0  0  0  0  0  0  0  0  0  0
    5.2980   60.7940   71.3760 C   0  0  0  0  0  0  0  0  0  0  0  0
    4.2460   60.0910   70.4990 C   0  0  2  0  0  0  0  0  0  0  0  0
    4.0720   60.8820   69.1880 C   0  0  0  0  0  0  0  0  0  0  0  0
    2.9040   60.0560   71.2500 C   0  0  0  0  0  0  0  0  0  0  0  0
    3.4460   63.0700   68.2460 N   0  0  0  0  0  4  0  0  0  0  0  0
    1.9406   63.2981   70.4806 H   0  0  0  0  0  0  0  0  0  0  0  0
    1.5136   61.7771   69.6277 H   0  0  0  0  0  0  0  0  0  0  0  0
    1.4786   61.4552   72.1109 H   0  0  0  0  0  0  0  0  0  0  0  0
    3.1708   63.2074   72.6684 H   0  0  0  0  0  0  0  0  0  0  0  0
    3.6245   61.6144   73.3769 H   0  0  0  0  0  0  0  0  0  0  0  0
    5.6017   62.7262   72.3277 H   0  0  0  0  0  0  0  0  0  0  0  0
    5.6280   63.0438   69.8444 H   0  0  0  0  0  0  0  0  0  0  0  0
    4.3415   64.0377   70.6076 H   0  0  0  0  0  0  0  0  0  0  0  0
    6.2568   60.8264   70.8377 H   0  0  0  0  0  0  0  0  0  0  0  0
    5.4137   60.2343   72.3159 H   0  0  0  0  0  0  0  0  0  0  0  0
    4.5731   59.0650   70.2746 H   0  0  0  0  0  0  0  0  0  0  0  0
    3.3169   60.3880   68.5588 H   0  0  0  0  0  0  0  0  0  0  0  0
    5.0307   60.9167   68.6498 H   0  0  0  0  0  0  0  0  0  0  0  0
    3.0270   59.4944   72.1878 H   0  0  0  0  0  0  0  0  0  0  0  0
    2.1503   59.5669   70.6154 H   0  0  0  0  0  0  0  0  0  0  0  0
    3.2290   64.0538   68.4603 H   0  0  0  0  0  0  0  0  0  0  0  0
    4.3178   63.0219   67.6996 H   0  0  0  0  0  0  0  0  0  0  0  0
    2.6753   62.6595   67.6996 H   0  0  0  0  0  0  0  0  0  0  0  0
  2  1  1  0
  3  2  1  0
  4  3  1  0
  5  4  1  0
  6  1  1  0
  6  5  1  0
  7  5  1  0
  8  7  1  0
  9  1  1  0
  9  8  1  0
 10  3  1  0
 10  8  1  0
  1 11  1  6
  2 12  1  0
  2 13  1  0
  3 14  1  1
  4 15  1  0
  4 16  1  0
  5 17  1  1
  6 18  1  0
  6 19  1  0
  7 20  1  0
  7 21  1  0
  8 22  1  6
  9 23  1  0
  9 24  1  0
 10 25  1  0
 10 26  1  0
 11 27  1  0
 11 28  1  0
 11 29  1  0
M  CHG  1  11   1
M  END
>  <score>  (7) 
-6.269

$$$$
=
     RDKit          3D

 29 31  0  0  0  0  0  0  0  0999 V2000
    3.6290   62.2700   69.4760 C   0  0  1  0  0  0  0  0  0  0  0  0
    4.6790   62.9590   70.3630 C   0  0  0  0  0  0  0  0  0  0  0  0
    4.8160   62.1840   71.6870 C   0  0  2  0  0  0  0  0  0  0  0  0
    5.2500   60.7390   71.3860 C   0  0  0  0  0  0  0  0  0  0  0  0
    4.2050   60.0460   70.4930 C   0  0  2  0  0  0  0  0  0  0  0  0
    4.0710   60.8280   69.1720 C   0  0  0  0  0  0  0  0  0  0  0  0
    2.8460   60.0400   71.2160 C   0  0  0  0  0  0  0  0  0  0  0  0
    2.3970   61.4810   71.5170 C   0  0  2  0  0  0  0  0  0  0  0  0
    2.2690   62.2570   70.1930 C   0  0  0  0  0  0  0  0  0  0  0  0
    3.4530   62.1640   72.4030 C   0  0  0  0  0  0  0  0  0  0  0  0
    3.5010   63.0190   68.2000 N   0  0  0  0  0  4  0  0  0  0  0  0
    5.6481   62.9714   69.8428 H   0  0  0  0  0  0  0  0  0  0  0  0
    4.3636   63.9919   70.5721 H   0  0  0  0  0  0  0  0  0  0  0  0
    5.5665   62.6710   72.3271 H   0  0  0  0  0  0  0  0  0  0  0  0
    6.2202   60.7513   70.8677 H   0  0  0  0  0  0  0  0  0  0  0  0
    5.3374   60.1855   72.3326 H   0  0  0  0  0  0  0  0  0  0  0  0
    4.5201   59.0129   70.2845 H   0  0  0  0  0  0  0  0  0  0  0  0
    3.3208   60.3412   68.5315 H   0  0  0  0  0  0  0  0  0  0  0  0
    5.0406   60.8420   68.6527 H   0  0  0  0  0  0  0  0  0  0  0  0
    2.0962   59.5521   70.5759 H   0  0  0  0  0  0  0  0  0  0  0  0
    2.9462   59.4903   72.1635 H   0  0  0  0  0  0  0  0  0  0  0  0
    1.4274   61.4684   72.0363 H   0  0  0  0  0  0  0  0  0  0  0  0
    1.9542   63.2901   70.4019 H   0  0  0  0  0  0  0  0  0  0  0  0
    1.5199   61.7693   69.5519 H   0  0  0  0  0  0  0  0  0  0  0  0
    3.5474   61.6098   73.3485 H   0  0  0  0  0  0  0  0  0  0  0  0
    3.1380   63.1986   72.6038 H   0  0  0  0  0  0  0  0  0  0  0  0
    3.3309   64.0146   68.4019 H   0  0  0  0  0  0  0  0  0  0  0  0
    4.3707   62.9226   67.6566 H   0  0  0  0  0  0  0  0  0  0  0  0
    2.7127   62.6393   67.6566 H   0  0  0  0  0  0  0  0  0  0  0  0
  2  1  1  0
  3  2  1  0
  4  3  1  0
  5  4  1  0
  6  1  1  0
  6  5  1  0
  7  5  1  0
  8  7  1  0
  9  1  1  0
  9  8  1  0
 10  3  1  0
 10  8  1  0
  1 11  1  6
  2 12  1  0
  2 13  1  0
  3 14  1  1
  4 15  1  0
  4 16  1  0
  5 17  1  6
  6 18  1  0
  6 19  1  0
  7 20  1  0
  7 21  1  0
  8 22  1  1
  9 23  1  0
  9 24  1  0
 10 25  1  0
 10 26  1  0
 11 27  1  0
 11 28  1  0
 11 29  1  0
M  CHG  1  11   1
M  END
>  <score>  (8) 
-6.269

$$$$
=
     RDKit          3D

 29 31  0  0  0  0  0  0  0  0999 V2000
    2.8270   61.8060   72.0910 C   0  0  1  0  0  0  0  0  0  0  0  0
    2.4980   63.1360   71.3920 C   0  0  0  0  0  0  0  0  0  0  0  0
    3.4170   63.3100   70.1680 C   0  0  2  0  0  0  0  0  0  0  0  0
    3.1940   62.1370   69.1980 C   0  0  0  0  0  0  0  0  0  0  0  0
    3.5160   60.8020   69.8930 C   0  0  2  0  0  0  0  0  0  0  0  0
    2.5970   60.6370   71.1180 C   0  0  0  0  0  0  0  0  0  0  0  0
    4.9830   60.8170   70.3610 C   0  0  0  0  0  0  0  0  0  0  0  0
    5.2170   61.9820   71.3400 C   0  0  2  0  0  0  0  0  0  0  0  0
    4.2920   61.8120   72.5590 C   0  0  0  0  0  0  0  0  0  0  0  0
    4.8840   63.3090   70.6340 C   0  0  0  0  0  0  0  0  0  0  0  0
    1.9390   61.6420   73.2700 N   0  0  0  0  0  4  0  0  0  0  0  0
    1.4478   63.1290   71.0647 H   0  0  0  0  0  0  0  0  0  0  0  0
    2.6565   63.9691   72.0926 H   0  0  0  0  0  0  0  0  0  0  0  0
    3.1877   64.2595   69.6621 H   0  0  0  0  0  0  0  0  0  0  0  0
    2.1440   62.1316   68.8701 H   0  0  0  0  0  0  0  0  0  0  0  0
    3.8587   62.2585   68.3300 H   0  0  0  0  0  0  0  0  0  0  0  0
    3.3572   59.9690   69.1923 H   0  0  0  0  0  0  0  0  0  0  0  0
    2.8270   59.6878   71.6240 H   0  0  0  0  0  0  0  0  0  0  0  0
    1.5467   60.6324   70.7912 H   0  0  0  0  0  0  0  0  0  0  0  0
    5.2132   59.8669   70.8652 H   0  0  0  0  0  0  0  0  0  0  0  0
    5.6374   60.9463   69.4863 H   0  0  0  0  0  0  0  0  0  0  0  0
    6.2670   61.9876   71.6680 H   0  0  0  0  0  0  0  0  0  0  0  0
    4.4503   62.6456   73.2590 H   0  0  0  0  0  0  0  0  0  0  0  0
    4.5205   60.8620   73.0642 H   0  0  0  0  0  0  0  0  0  0  0  0
    5.5425   63.4315   69.7614 H   0  0  0  0  0  0  0  0  0  0  0  0
    5.0369   64.1390   71.3395 H   0  0  0  0  0  0  0  0  0  0  0  0
    2.4918   61.7441   74.1330 H   0  0  0  0  0  0  0  0  0  0  0  0
    1.2019   62.3611   73.2473 H   0  0  0  0  0  0  0  0  0  0  0  0
    1.5074   60.7071   73.2473 H   0  0  0  0  0  0  0  0  0  0  0  0
  2  1  1  0
  3  2  1  0
  4  3  1  0
  5  4  1  0
  6  1  1  0
  6  5  1  0
  7  5  1  0
  8  7  1  0
  9  1  1  0
  9  8  1  0
 10  3  1  0
 10  8  1  0
  1 11  1  1
  2 12  1  0
  2 13  1  0
  3 14  1  6
  4 15  1  0
  4 16  1  0
  5 17  1  6
  6 18  1  0
  6 19  1  0
  7 20  1  0
  7 21  1  0
  8 22  1  1
  9 23  1  0
  9 24  1  0
 10 25  1  0
 10 26  1  0
 11 27  1  0
 11 28  1  0
 11 29  1  0
M  CHG  1  11   1
M  END
>  <score>  (9) 
-6.19

$$$$
