=
     RDKit          3D

 25 27  0  0  0  0  0  0  0  0999 V2000
    0.9520   67.9670   63.2540 O   0  0  0  0  0  0  0  0  0  0  0  0
    2.0050   68.2640   63.8050 C   0  0  0  0  0  0  0  0  0  0  0  0
    3.2960   68.2450   63.0140 C   0  0  0  0  0  0  0  0  0  0  0  0
    3.3810   67.6020   61.9780 O   0  0  0  0  0  0  0  0  0  0  0  0
    4.4920   68.9900   63.5360 C   0  0  0  0  0  0  0  0  0  0  0  0
    5.4290   69.2790   62.8070 O   0  0  0  0  0  0  0  0  0  0  0  0
    4.4730   69.3430   64.9620 C   0  0  0  0  0  0  0  0  0  0  0  0
    3.3150   69.1410   65.7250 C   0  0  0  0  0  0  0  0  0  0  0  0
    2.1210   68.6120   65.1500 N   0  0  0  0  0  0  0  0  0  0  0  0
    0.9030   68.5780   65.9580 C   0  0  0  0  0  0  0  0  0  0  0  0
    1.1840   68.2860   67.4210 C   0  0  0  0  0  0  0  0  0  0  0  0
    2.1290   69.3380   67.9730 C   0  0  0  0  0  0  0  0  0  0  0  0
    3.3410   69.4960   67.0890 C   0  0  0  0  0  0  0  0  0  0  0  0
    4.5030   70.0570   67.6480 C   0  0  0  0  0  0  0  0  0  0  0  0
    5.6420   70.2520   66.8730 C   0  0  0  0  0  0  0  0  0  0  0  0
    5.6300   69.8960   65.5290 C   0  0  0  0  0  0  0  0  0  0  0  0
    0.4025   69.5547   65.8830 H   0  0  0  0  0  0  0  0  0  0  0  0
    0.2679   67.7674   65.5713 H   0  0  0  0  0  0  0  0  0  0  0  0
    0.2410   68.3066   67.9870 H   0  0  0  0  0  0  0  0  0  0  0  0
    1.6456   67.2920   67.5151 H   0  0  0  0  0  0  0  0  0  0  0  0
    1.5999   70.3005   68.0327 H   0  0  0  0  0  0  0  0  0  0  0  0
    2.4635   69.0184   68.9710 H   0  0  0  0  0  0  0  0  0  0  0  0
    4.5116   70.3448   68.7096 H   0  0  0  0  0  0  0  0  0  0  0  0
    6.5479   70.6858   67.3216 H   0  0  0  0  0  0  0  0  0  0  0  0
    6.5273   70.0480   64.9112 H   0  0  0  0  0  0  0  0  0  0  0  0
  2  1  2  0
  3  2  1  0
  4  3  2  0
  5  3  1  0
  6  5  2  0
  7  5  1  0
  8  7  2  0
  9  2  1  0
  9  8  1  0
 10  9  1  0
 11 10  1  0
 12 11  1  0
 13 12  1  0
 13  8  1  0
 14 13  2  0
 15 14  1  0
 16  7  1  0
 16 15  2  0
 10 17  1  0
 10 18  1  0
 11 19  1  0
 11 20  1  0
 12 21  1  0
 12 22  1  0
 14 23  1  0
 15 24  1  0
 16 25  1  0
M  END
>  <score>  (1) 
-9.444

$$$$
=
     RDKit          3D

 25 27  0  0  0  0  0  0  0  0999 V2000
    1.3250   67.4030   63.6810 O   0  0  0  0  0  0  0  0  0  0  0  0
    1.6010   68.0740   64.6680 C   0  0  0  0  0  0  0  0  0  0  0  0
    0.5250   68.3870   65.6860 C   0  0  0  0  0  0  0  0  0  0  0  0
   -0.6570   68.3180   65.3840 O   0  0  0  0  0  0  0  0  0  0  0  0
    0.9230   68.8310   67.0660 C   0  0  0  0  0  0  0  0  0  0  0  0
    0.1370   68.7790   68.0010 O   0  0  0  0  0  0  0  0  0  0  0  0
    2.2960   69.3290   67.2250 C   0  0  0  0  0  0  0  0  0  0  0  0
    3.2140   69.2190   66.1710 C   0  0  0  0  0  0  0  0  0  0  0  0
    2.8620   68.6090   64.9310 N   0  0  0  0  0  0  0  0  0  0  0  0
    3.9070   68.3790   63.9350 C   0  0  0  0  0  0  0  0  0  0  0  0
    4.9480   69.4840   63.9210 C   0  0  0  0  0  0  0  0  0  0  0  0
    5.5770   69.6030   65.2970 C   0  0  0  0  0  0  0  0  0  0  0  0
    4.5210   69.7090   66.3680 C   0  0  0  0  0  0  0  0  0  0  0  0
    4.8820   70.2710   67.6050 C   0  0  0  0  0  0  0  0  0  0  0  0
    3.9570   70.3690   68.6390 C   0  0  0  0  0  0  0  0  0  0  0  0
    2.6620   69.8980   68.4520 C   0  0  0  0  0  0  0  0  0  0  0  0
    4.4070   67.4258   64.1616 H   0  0  0  0  0  0  0  0  0  0  0  0
    3.4275   68.3580   62.9452 H   0  0  0  0  0  0  0  0  0  0  0  0
    5.7264   69.2453   63.1813 H   0  0  0  0  0  0  0  0  0  0  0  0
    4.4681   70.4369   63.6533 H   0  0  0  0  0  0  0  0  0  0  0  0
    6.1947   68.7131   65.4881 H   0  0  0  0  0  0  0  0  0  0  0  0
    6.1936   70.5136   65.3223 H   0  0  0  0  0  0  0  0  0  0  0  0
    5.9080   70.6375   67.7569 H   0  0  0  0  0  0  0  0  0  0  0  0
    4.2485   70.8171   69.6004 H   0  0  0  0  0  0  0  0  0  0  0  0
    1.9260   69.9720   69.2662 H   0  0  0  0  0  0  0  0  0  0  0  0
  2  1  2  0
  3  2  1  0
  4  3  2  0
  5  3  1  0
  6  5  2  0
  7  5  1  0
  8  7  2  0
  9  2  1  0
  9  8  1  0
 10  9  1  0
 11 10  1  0
 12 11  1  0
 13 12  1  0
 13  8  1  0
 14 13  2  0
 15 14  1  0
 16  7  1  0
 16 15  2  0
 10 17  1  0
 10 18  1  0
 11 19  1  0
 11 20  1  0
 12 21  1  0
 12 22  1  0
 14 23  1  0
 15 24  1  0
 16 25  1  0
M  END
>  <score>  (2) 
-9.385

$$$$
=
     RDKit          3D

 25 27  0  0  0  0  0  0  0  0999 V2000
   -0.4060   67.9040   65.6360 O   0  0  0  0  0  0  0  0  0  0  0  0
    0.6700   68.4470   65.8480 C   0  0  0  0  0  0  0  0  0  0  0  0
    0.9390   69.0770   67.1980 C   0  0  0  0  0  0  0  0  0  0  0  0
    0.0140   69.3850   67.9360 O   0  0  0  0  0  0  0  0  0  0  0  0
    2.3560   69.3630   67.6100 C   0  0  0  0  0  0  0  0  0  0  0  0
    2.6510   69.5550   68.7800 O   0  0  0  0  0  0  0  0  0  0  0  0
    3.3560   69.4020   66.5340 C   0  0  0  0  0  0  0  0  0  0  0  0
    3.0090   69.0150   65.2320 C   0  0  0  0  0  0  0  0  0  0  0  0
    1.6970   68.5550   64.9110 N   0  0  0  0  0  0  0  0  0  0  0  0
    1.4460   68.0140   63.5770 C   0  0  0  0  0  0  0  0  0  0  0  0
    2.2370   68.7340   62.5000 C   0  0  0  0  0  0  0  0  0  0  0  0
    3.7190   68.6400   62.8140 C   0  0  0  0  0  0  0  0  0  0  0  0
    4.0010   69.0660   64.2320 C   0  0  0  0  0  0  0  0  0  0  0  0
    5.3060   69.4770   64.5560 C   0  0  0  0  0  0  0  0  0  0  0  0
    5.6310   69.8550   65.8550 C   0  0  0  0  0  0  0  0  0  0  0  0
    4.6570   69.8180   66.8470 C   0  0  0  0  0  0  0  0  0  0  0  0
    1.7263   66.9503   63.5691 H   0  0  0  0  0  0  0  0  0  0  0  0
    0.3774   68.1520   63.3558 H   0  0  0  0  0  0  0  0  0  0  0  0
    2.0383   68.2663   61.5244 H   0  0  0  0  0  0  0  0  0  0  0  0
    1.9350   69.7912   62.4676 H   0  0  0  0  0  0  0  0  0  0  0  0
    4.0496   67.5996   62.6789 H   0  0  0  0  0  0  0  0  0  0  0  0
    4.2638   69.3102   62.1328 H   0  0  0  0  0  0  0  0  0  0  0  0
    6.0788   69.5000   63.7736 H   0  0  0  0  0  0  0  0  0  0  0  0
    6.6534   70.1815   66.0962 H   0  0  0  0  0  0  0  0  0  0  0  0
    4.9076   70.1149   67.8761 H   0  0  0  0  0  0  0  0  0  0  0  0
  2  1  2  0
  3  2  1  0
  4  3  2  0
  5  3  1  0
  6  5  2  0
  7  5  1  0
  8  7  2  0
  9  2  1  0
  9  8  1  0
 10  9  1  0
 11 10  1  0
 12 11  1  0
 13 12  1  0
 13  8  1  0
 14 13  2  0
 15 14  1  0
 16  7  1  0
 16 15  2  0
 10 17  1  0
 10 18  1  0
 11 19  1  0
 11 20  1  0
 12 21  1  0
 12 22  1  0
 14 23  1  0
 15 24  1  0
 16 25  1  0
M  END
>  <score>  (3) 
-9.319

$$$$
=
     RDKit          3D

 25 27  0  0  0  0  0  0  0  0999 V2000
    2.9880   68.9580   60.5080 O   0  0  0  0  0  0  0  0  0  0  0  0
    2.4520   69.0120   61.6080 C   0  0  0  0  0  0  0  0  0  0  0  0
    0.9490   69.1630   61.7030 C   0  0  0  0  0  0  0  0  0  0  0  0
    0.3070   69.6000   60.7590 O   0  0  0  0  0  0  0  0  0  0  0  0
    0.2520   68.8150   62.9890 C   0  0  0  0  0  0  0  0  0  0  0  0
   -0.9510   68.6050   63.0230 O   0  0  0  0  0  0  0  0  0  0  0  0
    1.0930   68.7450   64.1920 C   0  0  0  0  0  0  0  0  0  0  0  0
    2.4880   68.8290   64.0850 C   0  0  0  0  0  0  0  0  0  0  0  0
    3.1370   68.9620   62.8220 N   0  0  0  0  0  0  0  0  0  0  0  0
    4.5950   68.8800   62.7650 C   0  0  0  0  0  0  0  0  0  0  0  0
    5.2590   69.5000   63.9810 C   0  0  0  0  0  0  0  0  0  0  0  0
    4.7620   68.8080   65.2360 C   0  0  0  0  0  0  0  0  0  0  0  0
    3.2550   68.7550   65.2660 C   0  0  0  0  0  0  0  0  0  0  0  0
    2.6200   68.5810   66.5080 C   0  0  0  0  0  0  0  0  0  0  0  0
    1.2340   68.4980   66.5920 C   0  0  0  0  0  0  0  0  0  0  0  0
    0.4670   68.5790   65.4350 C   0  0  0  0  0  0  0  0  0  0  0  0
    4.8869   67.8211   62.7049 H   0  0  0  0  0  0  0  0  0  0  0  0
    4.9274   69.4415   61.8794 H   0  0  0  0  0  0  0  0  0  0  0  0
    6.3498   69.3807   63.9040 H   0  0  0  0  0  0  0  0  0  0  0  0
    5.0098   70.5703   64.0292 H   0  0  0  0  0  0  0  0  0  0  0  0
    5.1582   67.7821   65.2615 H   0  0  0  0  0  0  0  0  0  0  0  0
    5.1091   69.3782   66.1103 H   0  0  0  0  0  0  0  0  0  0  0  0
    3.2257   68.5097   67.4234 H   0  0  0  0  0  0  0  0  0  0  0  0
    0.7467   68.3688   67.5697 H   0  0  0  0  0  0  0  0  0  0  0  0
   -0.6294   68.5129   65.4952 H   0  0  0  0  0  0  0  0  0  0  0  0
  2  1  2  0
  3  2  1  0
  4  3  2  0
  5  3  1  0
  6  5  2  0
  7  5  1  0
  8  7  2  0
  9  2  1  0
  9  8  1  0
 10  9  1  0
 11 10  1  0
 12 11  1  0
 13 12  1  0
 13  8  1  0
 14 13  2  0
 15 14  1  0
 16  7  1  0
 16 15  2  0
 10 17  1  0
 10 18  1  0
 11 19  1  0
 11 20  1  0
 12 21  1  0
 12 22  1  0
 14 23  1  0
 15 24  1  0
 16 25  1  0
M  END
>  <score>  (4) 
-9.248

$$$$
=
     RDKit          3D

 25 27  0  0  0  0  0  0  0  0999 V2000
    0.0790   68.9690   67.9390 O   0  0  0  0  0  0  0  0  0  0  0  0
    1.0500   68.8050   67.2120 C   0  0  0  0  0  0  0  0  0  0  0  0
    0.9290   67.9210   65.9880 C   0  0  0  0  0  0  0  0  0  0  0  0
    0.0360   67.0900   65.9070 O   0  0  0  0  0  0  0  0  0  0  0  0
    1.9460   68.0410   64.8880 C   0  0  0  0  0  0  0  0  0  0  0  0
    1.7230   67.6080   63.7670 O   0  0  0  0  0  0  0  0  0  0  0  0
    3.2130   68.6980   65.2350 C   0  0  0  0  0  0  0  0  0  0  0  0
    3.3660   69.3250   66.4800 C   0  0  0  0  0  0  0  0  0  0  0  0
    2.3070   69.3660   67.4340 N   0  0  0  0  0  0  0  0  0  0  0  0
    2.4750   70.1740   68.6410 C   0  0  0  0  0  0  0  0  0  0  0  0
    3.9030   70.1570   69.1560 C   0  0  0  0  0  0  0  0  0  0  0  0
    4.8360   70.6660   68.0730 C   0  0  0  0  0  0  0  0  0  0  0  0
    4.5990   69.9450   66.7700 C   0  0  0  0  0  0  0  0  0  0  0  0
    5.6300   69.9420   65.8140 C   0  0  0  0  0  0  0  0  0  0  0  0
    5.4570   69.3160   64.5830 C   0  0  0  0  0  0  0  0  0  0  0  0
    4.2490   68.6930   64.2910 C   0  0  0  0  0  0  0  0  0  0  0  0
    2.1945   71.2128   68.4124 H   0  0  0  0  0  0  0  0  0  0  0  0
    1.8317   69.7451   69.4234 H   0  0  0  0  0  0  0  0  0  0  0  0
    3.9813   70.8045   70.0418 H   0  0  0  0  0  0  0  0  0  0  0  0
    4.1829   69.1287   69.4283 H   0  0  0  0  0  0  0  0  0  0  0  0
    4.6618   71.7420   67.9251 H   0  0  0  0  0  0  0  0  0  0  0  0
    5.8731   70.4825   68.3904 H   0  0  0  0  0  0  0  0  0  0  0  0
    6.5841   70.4400   66.0415 H   0  0  0  0  0  0  0  0  0  0  0  0
    6.2723   69.3142   63.8446 H   0  0  0  0  0  0  0  0  0  0  0  0
    4.1064   68.1965   63.3198 H   0  0  0  0  0  0  0  0  0  0  0  0
  2  1  2  0
  3  2  1  0
  4  3  2  0
  5  3  1  0
  6  5  2  0
  7  5  1  0
  8  7  2  0
  9  2  1  0
  9  8  1  0
 10  9  1  0
 11 10  1  0
 12 11  1  0
 13 12  1  0
 13  8  1  0
 14 13  2  0
 15 14  1  0
 16  7  1  0
 16 15  2  0
 10 17  1  0
 10 18  1  0
 11 19  1  0
 11 20  1  0
 12 21  1  0
 12 22  1  0
 14 23  1  0
 15 24  1  0
 16 25  1  0
M  END
>  <score>  (5) 
-9.221

$$$$
=
     RDKit          3D

 25 27  0  0  0  0  0  0  0  0999 V2000
    0.8680   68.8740   68.0780 O   0  0  0  0  0  0  0  0  0  0  0  0
    1.8220   69.1650   67.3670 C   0  0  0  0  0  0  0  0  0  0  0  0
    3.0310   69.8430   67.9760 C   0  0  0  0  0  0  0  0  0  0  0  0
    2.9420   70.4350   69.0420 O   0  0  0  0  0  0  0  0  0  0  0  0
    4.3390   69.8240   67.2350 C   0  0  0  0  0  0  0  0  0  0  0  0
    5.3950   70.0570   67.8040 O   0  0  0  0  0  0  0  0  0  0  0  0
    4.2740   69.5180   65.8000 C   0  0  0  0  0  0  0  0  0  0  0  0
    3.0690   69.0970   65.2200 C   0  0  0  0  0  0  0  0  0  0  0  0
    1.8820   68.9320   65.9940 N   0  0  0  0  0  0  0  0  0  0  0  0
    0.7060   68.3360   65.3640 C   0  0  0  0  0  0  0  0  0  0  0  0
    0.5610   68.7370   63.9070 C   0  0  0  0  0  0  0  0  0  0  0  0
    1.8070   68.3250   63.1440 C   0  0  0  0  0  0  0  0  0  0  0  0
    3.0540   68.8110   63.8400 C   0  0  0  0  0  0  0  0  0  0  0  0
    4.2340   68.9310   63.0840 C   0  0  0  0  0  0  0  0  0  0  0  0
    5.4200   69.3480   63.6780 C   0  0  0  0  0  0  0  0  0  0  0  0
    5.4440   69.6420   65.0370 C   0  0  0  0  0  0  0  0  0  0  0  0
    0.7918   67.2409   65.4216 H   0  0  0  0  0  0  0  0  0  0  0  0
   -0.1819   68.7009   65.9011 H   0  0  0  0  0  0  0  0  0  0  0  0
   -0.3171   68.2355   63.4740 H   0  0  0  0  0  0  0  0  0  0  0  0
    0.4312   69.8271   63.8372 H   0  0  0  0  0  0  0  0  0  0  0  0
    1.8391   67.2277   63.0736 H   0  0  0  0  0  0  0  0  0  0  0  0
    1.7680   68.7751   62.1411 H   0  0  0  0  0  0  0  0  0  0  0  0
    4.2184   68.6922   62.0104 H   0  0  0  0  0  0  0  0  0  0  0  0
    6.3353   69.4449   63.0756 H   0  0  0  0  0  0  0  0  0  0  0  0
    6.3795   69.9714   65.5128 H   0  0  0  0  0  0  0  0  0  0  0  0
  2  1  2  0
  3  2  1  0
  4  3  2  0
  5  3  1  0
  6  5  2  0
  7  5  1  0
  8  7  2  0
  9  2  1  0
  9  8  1  0
 10  9  1  0
 11 10  1  0
 12 11  1  0
 13 12  1  0
 13  8  1  0
 14 13  2  0
 15 14  1  0
 16  7  1  0
 16 15  2  0
 10 17  1  0
 10 18  1  0
 11 19  1  0
 11 20  1  0
 12 21  1  0
 12 22  1  0
 14 23  1  0
 15 24  1  0
 16 25  1  0
M  END
>  <score>  (6) 
-9.168

$$$$
=
     RDKit          3D

 25 27  0  0  0  0  0  0  0  0999 V2000
   -1.0810   68.6990   64.7840 O   0  0  0  0  0  0  0  0  0  0  0  0
    0.1250   68.6750   64.5760 C   0  0  0  0  0  0  0  0  0  0  0  0
    0.6400   68.3670   63.1860 C   0  0  0  0  0  0  0  0  0  0  0  0
   -0.0680   67.7880   62.3740 O   0  0  0  0  0  0  0  0  0  0  0  0
    2.0500   68.7390   62.8220 C   0  0  0  0  0  0  0  0  0  0  0  0
    2.4060   68.8160   61.6550 O   0  0  0  0  0  0  0  0  0  0  0  0
    2.9690   68.9970   63.9390 C   0  0  0  0  0  0  0  0  0  0  0  0
    2.4840   69.0600   65.2530 C   0  0  0  0  0  0  0  0  0  0  0  0
    1.0980   68.8980   65.5490 N   0  0  0  0  0  0  0  0  0  0  0  0
    0.6360   69.1360   66.9150 C   0  0  0  0  0  0  0  0  0  0  0  0
    1.6480   68.6920   67.9560 C   0  0  0  0  0  0  0  0  0  0  0  0
    2.9580   69.4240   67.7300 C   0  0  0  0  0  0  0  0  0  0  0  0
    3.4010   69.3120   66.2930 C   0  0  0  0  0  0  0  0  0  0  0  0
    4.7610   69.5150   65.9980 C   0  0  0  0  0  0  0  0  0  0  0  0
    5.2220   69.4510   64.6870 C   0  0  0  0  0  0  0  0  0  0  0  0
    4.3270   69.1930   63.6550 C   0  0  0  0  0  0  0  0  0  0  0  0
    0.4486   70.2125   67.0416 H   0  0  0  0  0  0  0  0  0  0  0  0
   -0.2800   68.5459   67.0659 H   0  0  0  0  0  0  0  0  0  0  0  0
    1.2665   68.9244   68.9612 H   0  0  0  0  0  0  0  0  0  0  0  0
    1.8131   67.6080   67.8689 H   0  0  0  0  0  0  0  0  0  0  0  0
    2.8245   70.4861   67.9831 H   0  0  0  0  0  0  0  0  0  0  0  0
    3.7280   68.9682   68.3697 H   0  0  0  0  0  0  0  0  0  0  0  0
    5.4684   69.7268   66.8133 H   0  0  0  0  0  0  0  0  0  0  0  0
    6.2891   69.6037   64.4681 H   0  0  0  0  0  0  0  0  0  0  0  0
    4.6847   69.1428   62.6160 H   0  0  0  0  0  0  0  0  0  0  0  0
  2  1  2  0
  3  2  1  0
  4  3  2  0
  5  3  1  0
  6  5  2  0
  7  5  1  0
  8  7  2  0
  9  2  1  0
  9  8  1  0
 10  9  1  0
 11 10  1  0
 12 11  1  0
 13 12  1  0
 13  8  1  0
 14 13  2  0
 15 14  1  0
 16  7  1  0
 16 15  2  0
 10 17  1  0
 10 18  1  0
 11 19  1  0
 11 20  1  0
 12 21  1  0
 12 22  1  0
 14 23  1  0
 15 24  1  0
 16 25  1  0
M  END
>  <score>  (7) 
-9.164

$$$$
=
     RDKit          3D

 25 27  0  0  0  0  0  0  0  0999 V2000
    2.6280   70.0590   69.4830 O   0  0  0  0  0  0  0  0  0  0  0  0
    2.7850   69.6470   68.3400 C   0  0  0  0  0  0  0  0  0  0  0  0
    1.7080   68.8030   67.6930 C   0  0  0  0  0  0  0  0  0  0  0  0
    0.8790   68.2200   68.3780 O   0  0  0  0  0  0  0  0  0  0  0  0
    1.6900   68.6480   66.1980 C   0  0  0  0  0  0  0  0  0  0  0  0
    0.6890   68.2680   65.6110 O   0  0  0  0  0  0  0  0  0  0  0  0
    2.9360   68.9740   65.4910 C   0  0  0  0  0  0  0  0  0  0  0  0
    4.0070   69.5620   66.1790 C   0  0  0  0  0  0  0  0  0  0  0  0
    3.9210   69.8810   67.5670 N   0  0  0  0  0  0  0  0  0  0  0  0
    5.0080   70.6390   68.1850 C   0  0  0  0  0  0  0  0  0  0  0  0
    6.3670   70.2740   67.6150 C   0  0  0  0  0  0  0  0  0  0  0  0
    6.3680   70.5180   66.1180 C   0  0  0  0  0  0  0  0  0  0  0  0
    5.1820   69.8590   65.4600 C   0  0  0  0  0  0  0  0  0  0  0  0
    5.2520   69.5840   64.0830 C   0  0  0  0  0  0  0  0  0  0  0  0
    4.1780   69.0030   63.4180 C   0  0  0  0  0  0  0  0  0  0  0  0
    3.0170   68.6960   64.1200 C   0  0  0  0  0  0  0  0  0  0  0  0
    4.8309   71.7115   68.0163 H   0  0  0  0  0  0  0  0  0  0  0  0
    5.0184   70.3953   69.2576 H   0  0  0  0  0  0  0  0  0  0  0  0
    7.1421   70.8945   68.0884 H   0  0  0  0  0  0  0  0  0  0  0  0
    6.5757   69.2125   67.8142 H   0  0  0  0  0  0  0  0  0  0  0  0
    6.3270   71.6011   65.9305 H   0  0  0  0  0  0  0  0  0  0  0  0
    7.2870   70.0869   65.6943 H   0  0  0  0  0  0  0  0  0  0  0  0
    6.1672   69.8314   63.5252 H   0  0  0  0  0  0  0  0  0  0  0  0
    4.2461   68.7871   62.3416 H   0  0  0  0  0  0  0  0  0  0  0  0
    2.1640   68.2358   63.5998 H   0  0  0  0  0  0  0  0  0  0  0  0
  2  1  2  0
  3  2  1  0
  4  3  2  0
  5  3  1  0
  6  5  2  0
  7  5  1  0
  8  7  2  0
  9  2  1  0
  9  8  1  0
 10  9  1  0
 11 10  1  0
 12 11  1  0
 13 12  1  0
 13  8  1  0
 14 13  2  0
 15 14  1  0
 16  7  1  0
 16 15  2  0
 10 17  1  0
 10 18  1  0
 11 19  1  0
 11 20  1  0
 12 21  1  0
 12 22  1  0
 14 23  1  0
 15 24  1  0
 16 25  1  0
M  END
>  <score>  (8) 
-9.12

$$$$
=
     RDKit          3D

 25 27  0  0  0  0  0  0  0  0999 V2000
    5.1180   68.6240   62.5400 O   0  0  0  0  0  0  0  0  0  0  0  0
    4.1680   68.7780   63.2970 C   0  0  0  0  0  0  0  0  0  0  0  0
    2.7570   68.6010   62.7760 C   0  0  0  0  0  0  0  0  0  0  0  0
    2.5220   68.6790   61.5780 O   0  0  0  0  0  0  0  0  0  0  0  0
    1.6340   68.3740   63.7480 C   0  0  0  0  0  0  0  0  0  0  0  0
    0.5640   67.9090   63.3850 O   0  0  0  0  0  0  0  0  0  0  0  0
    1.8930   68.7440   65.1460 C   0  0  0  0  0  0  0  0  0  0  0  0
    3.1820   69.1180   65.5520 C   0  0  0  0  0  0  0  0  0  0  0  0
    4.2790   69.1330   64.6410 N   0  0  0  0  0  0  0  0  0  0  0  0
    5.6240   69.3730   65.1600 C   0  0  0  0  0  0  0  0  0  0  0  0
    5.6340   70.3630   66.3110 C   0  0  0  0  0  0  0  0  0  0  0  0
    4.7450   69.8480   67.4270 C   0  0  0  0  0  0  0  0  0  0  0  0
    3.3840   69.4620   66.9030 C   0  0  0  0  0  0  0  0  0  0  0  0
    2.3130   69.4060   67.8120 C   0  0  0  0  0  0  0  0  0  0  0  0
    1.0420   69.0300   67.3900 C   0  0  0  0  0  0  0  0  0  0  0  0
    0.8290   68.6980   66.0570 C   0  0  0  0  0  0  0  0  0  0  0  0
    6.0420   68.4183   65.5120 H   0  0  0  0  0  0  0  0  0  0  0  0
    6.2257   69.8014   64.3449 H   0  0  0  0  0  0  0  0  0  0  0  0
    6.6617   70.4803   66.6851 H   0  0  0  0  0  0  0  0  0  0  0  0
    5.2583   71.3361   65.9617 H   0  0  0  0  0  0  0  0  0  0  0  0
    5.2172   68.9661   67.8845 H   0  0  0  0  0  0  0  0  0  0  0  0
    4.6188   70.6485   68.1708 H   0  0  0  0  0  0  0  0  0  0  0  0
    2.4819   69.6623   68.8683 H   0  0  0  0  0  0  0  0  0  0  0  0
    0.2092   68.9955   68.1078 H   0  0  0  0  0  0  0  0  0  0  0  0
   -0.1738   68.3994   65.7175 H   0  0  0  0  0  0  0  0  0  0  0  0
  2  1  2  0
  3  2  1  0
  4  3  2  0
  5  3  1  0
  6  5  2  0
  7  5  1  0
  8  7  2  0
  9  2  1  0
  9  8  1  0
 10  9  1  0
 11 10  1  0
 12 11  1  0
 13 12  1  0
 13  8  1  0
 14 13  2  0
 15 14  1  0
 16  7  1  0
 16 15  2  0
 10 17  1  0
 10 18  1  0
 11 19  1  0
 11 20  1  0
 12 21  1  0
 12 22  1  0
 14 23  1  0
 15 24  1  0
 16 25  1  0
M  END
>  <score>  (9) 
-8.86

$$$$
