=
     RDKit          3D

 30 31  0  0  0  0  0  0  0  0999 V2000
    1.1310   66.8210   67.8980 O   0  0  0  0  0  1  0  0  0  0  0  0
    1.7950   67.8750   66.7930 S   0  0  0  0  0  3  0  0  0  0  0  0
    2.1230   69.4460   67.6620 C   0  0  0  0  0  0  0  0  0  0  0  0
    3.5770   69.8360   67.6010 C   0  0  0  0  0  0  0  0  0  0  0  0
    4.3520   69.5370   66.4710 C   0  0  0  0  0  0  0  0  0  0  0  0
    5.6990   69.9030   66.4190 C   0  0  0  0  0  0  0  0  0  0  0  0
    6.2860   70.5640   67.4960 C   0  0  0  0  0  0  0  0  0  0  0  0
    5.5280   70.8610   68.6260 C   0  0  0  0  0  0  0  0  0  0  0  0
    4.1810   70.5000   68.6790 C   0  0  0  0  0  0  0  0  0  0  0  0
    0.4320   68.5320   65.7740 C   0  0  0  0  0  0  0  0  0  0  0  0
    0.8350   68.7220   64.3360 C   0  0  0  0  0  0  0  0  0  0  0  0
    2.1620   68.5090   63.9350 C   0  0  0  0  0  0  0  0  0  0  0  0
    2.5380   68.6860   62.6040 C   0  0  0  0  0  0  0  0  0  0  0  0
    1.5940   69.0790   61.6570 C   0  0  0  0  0  0  0  0  0  0  0  0
    0.2730   69.2980   62.0440 C   0  0  0  0  0  0  0  0  0  0  0  0
   -0.1050   69.1230   63.3760 C   0  0  0  0  0  0  0  0  0  0  0  0
    1.5229   70.2411   67.1955 H   0  0  0  0  0  0  0  0  0  0  0  0
    1.8534   69.3101   68.7198 H   0  0  0  0  0  0  0  0  0  0  0  0
    3.8959   69.0105   65.6197 H   0  0  0  0  0  0  0  0  0  0  0  0
    6.2974   69.6690   65.5262 H   0  0  0  0  0  0  0  0  0  0  0  0
    7.3471   70.8510   67.4538 H   0  0  0  0  0  0  0  0  0  0  0  0
    5.9915   71.3806   69.4776 H   0  0  0  0  0  0  0  0  0  0  0  0
    3.5876   70.7383   69.5741 H   0  0  0  0  0  0  0  0  0  0  0  0
   -0.4118   67.8275   65.8149 H   0  0  0  0  0  0  0  0  0  0  0  0
    0.1531   69.5162   66.1785 H   0  0  0  0  0  0  0  0  0  0  0  0
    2.9128   68.1996   64.6770 H   0  0  0  0  0  0  0  0  0  0  0  0
    3.5815   68.5152   62.3009 H   0  0  0  0  0  0  0  0  0  0  0  0
    1.8907   69.2160   60.6067 H   0  0  0  0  0  0  0  0  0  0  0  0
   -0.4731   69.6094   61.2981 H   0  0  0  0  0  0  0  0  0  0  0  0
   -1.1485   69.3010   63.6751 H   0  0  0  0  0  0  0  0  0  0  0  0
  2  1  1  0
  3  2  1  0
  4  3  1  0
  5  4  2  0
  6  5  1  0
  7  6  2  0
  8  7  1  0
  9  4  1  0
  9  8  2  0
 10  2  1  0
 11 10  1  0
 12 11  2  0
 13 12  1  0
 14 13  2  0
 15 14  1  0
 16 15  2  0
 16 11  1  0
  3 17  1  0
  3 18  1  0
  5 19  1  0
  6 20  1  0
  7 21  1  0
  8 22  1  0
  9 23  1  0
 10 24  1  0
 10 25  1  0
 12 26  1  0
 13 27  1  0
 14 28  1  0
 15 29  1  0
 16 30  1  0
M  CHG  2   1  -1   2   1
M  END
>  <score>  (1) 
-8.537

$$$$
=
     RDKit          3D

 30 31  0  0  0  0  0  0  0  0999 V2000
    0.0850   66.8290   67.4660 O   0  0  0  0  0  1  0  0  0  0  0  0
    1.1330   67.8380   66.6570 S   0  0  0  0  0  3  0  0  0  0  0  0
    1.3590   69.3310   67.6810 C   0  0  0  0  0  0  0  0  0  0  0  0
    2.8080   69.7240   67.8040 C   0  0  0  0  0  0  0  0  0  0  0  0
    3.2910   70.3170   68.9800 C   0  0  0  0  0  0  0  0  0  0  0  0
    4.6360   70.6780   69.0890 C   0  0  0  0  0  0  0  0  0  0  0  0
    5.5080   70.4570   68.0260 C   0  0  0  0  0  0  0  0  0  0  0  0
    5.0390   69.8750   66.8510 C   0  0  0  0  0  0  0  0  0  0  0  0
    3.6960   69.5100   66.7400 C   0  0  0  0  0  0  0  0  0  0  0  0
    0.1840   68.6780   65.3460 C   0  0  0  0  0  0  0  0  0  0  0  0
    0.9410   68.7450   64.0460 C   0  0  0  0  0  0  0  0  0  0  0  0
    0.3070   69.1810   62.8740 C   0  0  0  0  0  0  0  0  0  0  0  0
    1.0060   69.2410   61.6680 C   0  0  0  0  0  0  0  0  0  0  0  0
    2.3470   68.8670   61.6190 C   0  0  0  0  0  0  0  0  0  0  0  0
    2.9880   68.4270   62.7760 C   0  0  0  0  0  0  0  0  0  0  0  0
    2.2900   68.3640   63.9830 C   0  0  0  0  0  0  0  0  0  0  0  0
    0.8044   70.1626   67.2218 H   0  0  0  0  0  0  0  0  0  0  0  0
    0.9833   69.1076   68.6904 H   0  0  0  0  0  0  0  0  0  0  0  0
    2.6063   70.4988   69.8215 H   0  0  0  0  0  0  0  0  0  0  0  0
    5.0072   71.1379   70.0167 H   0  0  0  0  0  0  0  0  0  0  0  0
    6.5668   70.7420   68.1144 H   0  0  0  0  0  0  0  0  0  0  0  0
    5.7269   69.7028   66.0101 H   0  0  0  0  0  0  0  0  0  0  0  0
    3.3312   69.0504   65.8096 H   0  0  0  0  0  0  0  0  0  0  0  0
   -0.7544   68.1282   65.1810 H   0  0  0  0  0  0  0  0  0  0  0  0
   -0.0075   69.7093   65.6774 H   0  0  0  0  0  0  0  0  0  0  0  0
   -0.7515   69.4786   62.9056 H   0  0  0  0  0  0  0  0  0  0  0  0
    0.4976   69.5840   60.7548 H   0  0  0  0  0  0  0  0  0  0  0  0
    2.8991   68.9188   60.6690 H   0  0  0  0  0  0  0  0  0  0  0  0
    4.0461   68.1288   62.7377 H   0  0  0  0  0  0  0  0  0  0  0  0
    2.8012   68.0131   64.8916 H   0  0  0  0  0  0  0  0  0  0  0  0
  2  1  1  0
  3  2  1  0
  4  3  1  0
  5  4  2  0
  6  5  1  0
  7  6  2  0
  8  7  1  0
  9  4  1  0
  9  8  2  0
 10  2  1  0
 11 10  1  0
 12 11  2  0
 13 12  1  0
 14 13  2  0
 15 14  1  0
 16 15  2  0
 16 11  1  0
  3 17  1  0
  3 18  1  0
  5 19  1  0
  6 20  1  0
  7 21  1  0
  8 22  1  0
  9 23  1  0
 10 24  1  0
 10 25  1  0
 12 26  1  0
 13 27  1  0
 14 28  1  0
 15 29  1  0
 16 30  1  0
M  CHG  2   1  -1   2   1
M  END
>  <score>  (2) 
-8.44

$$$$
=
     RDKit          3D

 30 31  0  0  0  0  0  0  0  0999 V2000
    3.2770   66.7170   63.8870 O   0  0  0  0  0  1  0  0  0  0  0  0
    2.9460   67.7410   65.1560 S   0  0  0  0  0  3  0  0  0  0  0  0
    1.4330   68.6690   64.7310 C   0  0  0  0  0  0  0  0  0  0  0  0
    0.2780   68.3180   65.6330 C   0  0  0  0  0  0  0  0  0  0  0  0
   -1.0050   68.8310   65.3850 C   0  0  0  0  0  0  0  0  0  0  0  0
   -2.0720   68.5020   66.2230 C   0  0  0  0  0  0  0  0  0  0  0  0
   -1.8700   67.6640   67.3180 C   0  0  0  0  0  0  0  0  0  0  0  0
   -0.6000   67.1540   67.5770 C   0  0  0  0  0  0  0  0  0  0  0  0
    0.4680   67.4780   66.7400 C   0  0  0  0  0  0  0  0  0  0  0  0
    4.0640   69.1750   65.0100 C   0  0  0  0  0  0  0  0  0  0  0  0
    4.4890   69.7050   66.3540 C   0  0  0  0  0  0  0  0  0  0  0  0
    5.8210   70.0820   66.5810 C   0  0  0  0  0  0  0  0  0  0  0  0
    6.2180   70.5720   67.8250 C   0  0  0  0  0  0  0  0  0  0  0  0
    5.2890   70.6920   68.8580 C   0  0  0  0  0  0  0  0  0  0  0  0
    3.9630   70.3170   68.6460 C   0  0  0  0  0  0  0  0  0  0  0  0
    3.5640   69.8240   67.4020 C   0  0  0  0  0  0  0  0  0  0  0  0
    1.6400   69.7454   64.8230 H   0  0  0  0  0  0  0  0  0  0  0  0
    1.1510   68.4022   63.7018 H   0  0  0  0  0  0  0  0  0  0  0  0
   -1.1706   69.4964   64.5249 H   0  0  0  0  0  0  0  0  0  0  0  0
   -3.0748   68.9053   66.0184 H   0  0  0  0  0  0  0  0  0  0  0  0
   -2.7122   67.4057   67.9768 H   0  0  0  0  0  0  0  0  0  0  0  0
   -0.4389   66.4948   68.4428 H   0  0  0  0  0  0  0  0  0  0  0  0
    1.4681   67.0710   66.9501 H   0  0  0  0  0  0  0  0  0  0  0  0
    4.9603   68.8697   64.4502 H   0  0  0  0  0  0  0  0  0  0  0  0
    3.5193   69.9758   64.4884 H   0  0  0  0  0  0  0  0  0  0  0  0
    6.5591   69.9903   65.7705 H   0  0  0  0  0  0  0  0  0  0  0  0
    7.2653   70.8642   67.9915 H   0  0  0  0  0  0  0  0  0  0  0  0
    5.6017   71.0817   69.8380 H   0  0  0  0  0  0  0  0  0  0  0  0
    3.2295   70.4097   69.4605 H   0  0  0  0  0  0  0  0  0  0  0  0
    2.5170   69.5268   67.2426 H   0  0  0  0  0  0  0  0  0  0  0  0
  2  1  1  0
  3  2  1  0
  4  3  1  0
  5  4  2  0
  6  5  1  0
  7  6  2  0
  8  7  1  0
  9  4  1  0
  9  8  2  0
 10  2  1  0
 11 10  1  0
 12 11  2  0
 13 12  1  0
 14 13  2  0
 15 14  1  0
 16 15  2  0
 16 11  1  0
  3 17  1  0
  3 18  1  0
  5 19  1  0
  6 20  1  0
  7 21  1  0
  8 22  1  0
  9 23  1  0
 10 24  1  0
 10 25  1  0
 12 26  1  0
 13 27  1  0
 14 28  1  0
 15 29  1  0
 16 30  1  0
M  CHG  2   1  -1   2   1
M  END
>  <score>  (3) 
-8.286

$$$$
=
     RDKit          3D

 30 31  0  0  0  0  0  0  0  0999 V2000
    0.8970   70.0010   68.0160 O   0  0  0  0  0  1  0  0  0  0  0  0
    1.9380   68.7370   67.7170 S   0  0  0  0  0  3  0  0  0  0  0  0
    3.1860   69.3250   66.5220 C   0  0  0  0  0  0  0  0  0  0  0  0
    4.4180   69.8620   67.2030 C   0  0  0  0  0  0  0  0  0  0  0  0
    4.3490   70.3700   68.5080 C   0  0  0  0  0  0  0  0  0  0  0  0
    5.4940   70.8660   69.1360 C   0  0  0  0  0  0  0  0  0  0  0  0
    6.7150   70.8640   68.4660 C   0  0  0  0  0  0  0  0  0  0  0  0
    6.7940   70.3680   67.1670 C   0  0  0  0  0  0  0  0  0  0  0  0
    5.6530   69.8690   66.5380 C   0  0  0  0  0  0  0  0  0  0  0  0
    1.1090   67.6080   66.5480 C   0  0  0  0  0  0  0  0  0  0  0  0
   -0.3840   67.8000   66.5320 C   0  0  0  0  0  0  0  0  0  0  0  0
   -1.2060   67.0550   67.3900 C   0  0  0  0  0  0  0  0  0  0  0  0
   -2.5900   67.2290   67.3750 C   0  0  0  0  0  0  0  0  0  0  0  0
   -3.1690   68.1500   66.5040 C   0  0  0  0  0  0  0  0  0  0  0  0
   -2.3640   68.8930   65.6430 C   0  0  0  0  0  0  0  0  0  0  0  0
   -0.9780   68.7180   65.6540 C   0  0  0  0  0  0  0  0  0  0  0  0
    3.4774   68.4863   65.8727 H   0  0  0  0  0  0  0  0  0  0  0  0
    2.7373   70.1442   65.9410 H   0  0  0  0  0  0  0  0  0  0  0  0
    3.3867   70.3780   69.0409 H   0  0  0  0  0  0  0  0  0  0  0  0
    5.4312   71.2589   70.1615 H   0  0  0  0  0  0  0  0  0  0  0  0
    7.6160   71.2538   68.9623 H   0  0  0  0  0  0  0  0  0  0  0  0
    7.7574   70.3697   66.6362 H   0  0  0  0  0  0  0  0  0  0  0  0
    5.7225   69.4779   65.5122 H   0  0  0  0  0  0  0  0  0  0  0  0
    1.5008   67.7948   65.5373 H   0  0  0  0  0  0  0  0  0  0  0  0
    1.3129   66.5770   66.8729 H   0  0  0  0  0  0  0  0  0  0  0  0
   -0.7555   66.3271   68.0808 H   0  0  0  0  0  0  0  0  0  0  0  0
   -3.2252   66.6384   68.0516 H   0  0  0  0  0  0  0  0  0  0  0  0
   -4.2600   68.2902   66.4962 H   0  0  0  0  0  0  0  0  0  0  0  0
   -2.8205   69.6185   64.9536 H   0  0  0  0  0  0  0  0  0  0  0  0
   -0.3481   69.3045   64.9690 H   0  0  0  0  0  0  0  0  0  0  0  0
  2  1  1  0
  3  2  1  0
  4  3  1  0
  5  4  2  0
  6  5  1  0
  7  6  2  0
  8  7  1  0
  9  4  1  0
  9  8  2  0
 10  2  1  0
 11 10  1  0
 12 11  2  0
 13 12  1  0
 14 13  2  0
 15 14  1  0
 16 15  2  0
 16 11  1  0
  3 17  1  0
  3 18  1  0
  5 19  1  0
  6 20  1  0
  7 21  1  0
  8 22  1  0
  9 23  1  0
 10 24  1  0
 10 25  1  0
 12 26  1  0
 13 27  1  0
 14 28  1  0
 15 29  1  0
 16 30  1  0
M  CHG  2   1  -1   2   1
M  END
>  <score>  (4) 
-8.219

$$$$
=
     RDKit          3D

 30 31  0  0  0  0  0  0  0  0999 V2000
    5.1110   69.5570   63.2140 O   0  0  0  0  0  1  0  0  0  0  0  0
    4.8110   68.4210   64.3930 S   0  0  0  0  0  3  0  0  0  0  0  0
    3.4910   67.3230   63.7750 C   0  0  0  0  0  0  0  0  0  0  0  0
    2.2890   68.0930   63.2920 C   0  0  0  0  0  0  0  0  0  0  0  0
    2.2770   68.6740   62.0150 C   0  0  0  0  0  0  0  0  0  0  0  0
    1.1600   69.3850   61.5720 C   0  0  0  0  0  0  0  0  0  0  0  0
    0.0490   69.5290   62.3990 C   0  0  0  0  0  0  0  0  0  0  0  0
    0.0520   68.9620   63.6720 C   0  0  0  0  0  0  0  0  0  0  0  0
    1.1650   68.2480   64.1160 C   0  0  0  0  0  0  0  0  0  0  0  0
    3.7800   69.2150   65.6700 C   0  0  0  0  0  0  0  0  0  0  0  0
    4.6040   69.8030   66.7860 C   0  0  0  0  0  0  0  0  0  0  0  0
    5.9830   70.0010   66.6220 C   0  0  0  0  0  0  0  0  0  0  0  0
    6.7490   70.5430   67.6540 C   0  0  0  0  0  0  0  0  0  0  0  0
    6.1470   70.8940   68.8610 C   0  0  0  0  0  0  0  0  0  0  0  0
    4.7780   70.6980   69.0380 C   0  0  0  0  0  0  0  0  0  0  0  0
    4.0100   70.1530   68.0070 C   0  0  0  0  0  0  0  0  0  0  0  0
    3.8883   66.7265   62.9405 H   0  0  0  0  0  0  0  0  0  0  0  0
    3.1683   66.6813   64.6081 H   0  0  0  0  0  0  0  0  0  0  0  0
    3.1533   68.5687   61.3585 H   0  0  0  0  0  0  0  0  0  0  0  0
    1.1576   69.8325   60.5672 H   0  0  0  0  0  0  0  0  0  0  0  0
   -0.8299   70.0896   62.0479 H   0  0  0  0  0  0  0  0  0  0  0  0
   -0.8240   69.0776   64.3272 H   0  0  0  0  0  0  0  0  0  0  0  0
    1.1610   67.8025   65.1217 H   0  0  0  0  0  0  0  0  0  0  0  0
    3.1936   70.0192   65.2016 H   0  0  0  0  0  0  0  0  0  0  0  0
    3.1278   68.4428   66.1040 H   0  0  0  0  0  0  0  0  0  0  0  0
    6.4642   69.7266   65.6717 H   0  0  0  0  0  0  0  0  0  0  0  0
    7.8297   70.6936   67.5150 H   0  0  0  0  0  0  0  0  0  0  0  0
    6.7511   71.3251   69.6729 H   0  0  0  0  0  0  0  0  0  0  0  0
    4.3024   70.9730   69.9910 H   0  0  0  0  0  0  0  0  0  0  0  0
    2.9310   69.9971   68.1537 H   0  0  0  0  0  0  0  0  0  0  0  0
  2  1  1  0
  3  2  1  0
  4  3  1  0
  5  4  2  0
  6  5  1  0
  7  6  2  0
  8  7  1  0
  9  4  1  0
  9  8  2  0
 10  2  1  0
 11 10  1  0
 12 11  2  0
 13 12  1  0
 14 13  2  0
 15 14  1  0
 16 15  2  0
 16 11  1  0
  3 17  1  0
  3 18  1  0
  5 19  1  0
  6 20  1  0
  7 21  1  0
  8 22  1  0
  9 23  1  0
 10 24  1  0
 10 25  1  0
 12 26  1  0
 13 27  1  0
 14 28  1  0
 15 29  1  0
 16 30  1  0
M  CHG  2   1  -1   2   1
M  END
>  <score>  (5) 
-8.206

$$$$
=
     RDKit          3D

 30 31  0  0  0  0  0  0  0  0999 V2000
    0.6520   68.7940   67.1740 O   0  0  0  0  0  1  0  0  0  0  0  0
    2.0520   68.0620   66.6480 S   0  0  0  0  0  3  0  0  0  0  0  0
    3.1010   69.3570   65.9040 C   0  0  0  0  0  0  0  0  0  0  0  0
    4.2070   69.7940   66.8290 C   0  0  0  0  0  0  0  0  0  0  0  0
    5.5400   69.8170   66.3900 C   0  0  0  0  0  0  0  0  0  0  0  0
    6.5610   70.2240   67.2510 C   0  0  0  0  0  0  0  0  0  0  0  0
    6.2650   70.6070   68.5570 C   0  0  0  0  0  0  0  0  0  0  0  0
    4.9460   70.5820   69.0060 C   0  0  0  0  0  0  0  0  0  0  0  0
    3.9230   70.1780   68.1470 C   0  0  0  0  0  0  0  0  0  0  0  0
    1.6760   67.2280   65.0700 C   0  0  0  0  0  0  0  0  0  0  0  0
    2.7700   66.2820   64.6500 C   0  0  0  0  0  0  0  0  0  0  0  0
    3.6320   66.6140   63.5950 C   0  0  0  0  0  0  0  0  0  0  0  0
    4.6440   65.7390   63.2030 C   0  0  0  0  0  0  0  0  0  0  0  0
    4.8080   64.5210   63.8610 C   0  0  0  0  0  0  0  0  0  0  0  0
    3.9550   64.1770   64.9080 C   0  0  0  0  0  0  0  0  0  0  0  0
    2.9400   65.0510   65.3010 C   0  0  0  0  0  0  0  0  0  0  0  0
    3.5475   68.9632   64.9790 H   0  0  0  0  0  0  0  0  0  0  0  0
    2.4653   70.2314   65.7007 H   0  0  0  0  0  0  0  0  0  0  0  0
    5.7818   69.5124   65.3610 H   0  0  0  0  0  0  0  0  0  0  0  0
    7.6023   70.2422   66.8968 H   0  0  0  0  0  0  0  0  0  0  0  0
    7.0710   70.9287   69.2329 H   0  0  0  0  0  0  0  0  0  0  0  0
    4.7110   70.8809   70.0382 H   0  0  0  0  0  0  0  0  0  0  0  0
    2.8839   70.1607   68.5076 H   0  0  0  0  0  0  0  0  0  0  0  0
    0.7411   66.6597   65.1840 H   0  0  0  0  0  0  0  0  0  0  0  0
    1.5830   68.0017   64.2937 H   0  0  0  0  0  0  0  0  0  0  0  0
    3.5085   67.5737   63.0719 H   0  0  0  0  0  0  0  0  0  0  0  0
    5.3138   66.0099   62.3736 H   0  0  0  0  0  0  0  0  0  0  0  0
    5.6093   63.8326   63.5543 H   0  0  0  0  0  0  0  0  0  0  0  0
    4.0818   63.2148   65.4258 H   0  0  0  0  0  0  0  0  0  0  0  0
    2.2688   64.7726   66.1268 H   0  0  0  0  0  0  0  0  0  0  0  0
  2  1  1  0
  3  2  1  0
  4  3  1  0
  5  4  2  0
  6  5  1  0
  7  6  2  0
  8  7  1  0
  9  4  1  0
  9  8  2  0
 10  2  1  0
 11 10  1  0
 12 11  2  0
 13 12  1  0
 14 13  2  0
 15 14  1  0
 16 15  2  0
 16 11  1  0
  3 17  1  0
  3 18  1  0
  5 19  1  0
  6 20  1  0
  7 21  1  0
  8 22  1  0
  9 23  1  0
 10 24  1  0
 10 25  1  0
 12 26  1  0
 13 27  1  0
 14 28  1  0
 15 29  1  0
 16 30  1  0
M  CHG  2   1  -1   2   1
M  END
>  <score>  (6) 
-7.872

$$$$
=
     RDKit          3D

 30 31  0  0  0  0  0  0  0  0999 V2000
   -0.8140   68.3160   65.6630 O   0  0  0  0  0  1  0  0  0  0  0  0
    0.8200   68.6340   65.7120 S   0  0  0  0  0  3  0  0  0  0  0  0
    1.6950   67.0600   65.4180 C   0  0  0  0  0  0  0  0  0  0  0  0
    2.6070   67.1310   64.2200 C   0  0  0  0  0  0  0  0  0  0  0  0
    2.4490   68.1410   63.2600 C   0  0  0  0  0  0  0  0  0  0  0  0
    3.2980   68.2030   62.1520 C   0  0  0  0  0  0  0  0  0  0  0  0
    4.3060   67.2560   61.9900 C   0  0  0  0  0  0  0  0  0  0  0  0
    4.4680   66.2440   62.9340 C   0  0  0  0  0  0  0  0  0  0  0  0
    3.6240   66.1820   64.0440 C   0  0  0  0  0  0  0  0  0  0  0  0
    1.3010   68.7650   67.4660 C   0  0  0  0  0  0  0  0  0  0  0  0
    2.6550   69.4000   67.6400 C   0  0  0  0  0  0  0  0  0  0  0  0
    3.0020   70.0150   68.8520 C   0  0  0  0  0  0  0  0  0  0  0  0
    4.2550   70.6060   69.0150 C   0  0  0  0  0  0  0  0  0  0  0  0
    5.1770   70.5870   67.9700 C   0  0  0  0  0  0  0  0  0  0  0  0
    4.8430   69.9820   66.7600 C   0  0  0  0  0  0  0  0  0  0  0  0
    3.5890   69.3930   66.5940 C   0  0  0  0  0  0  0  0  0  0  0  0
    2.2959   66.8173   66.3068 H   0  0  0  0  0  0  0  0  0  0  0  0
    0.9394   66.2850   65.2219 H   0  0  0  0  0  0  0  0  0  0  0  0
    1.6516   68.8892   63.3800 H   0  0  0  0  0  0  0  0  0  0  0  0
    3.1699   69.0014   61.4063 H   0  0  0  0  0  0  0  0  0  0  0  0
    4.9739   67.3068   61.1174 H   0  0  0  0  0  0  0  0  0  0  0  0
    5.2616   65.4934   62.8044 H   0  0  0  0  0  0  0  0  0  0  0  0
    3.7579   65.3819   64.7869 H   0  0  0  0  0  0  0  0  0  0  0  0
    0.5533   69.3755   67.9934 H   0  0  0  0  0  0  0  0  0  0  0  0
    1.3507   67.7466   67.8788 H   0  0  0  0  0  0  0  0  0  0  0  0
    2.2796   70.0314   69.6814 H   0  0  0  0  0  0  0  0  0  0  0  0
    4.5156   71.0874   69.9691 H   0  0  0  0  0  0  0  0  0  0  0  0
    6.1668   71.0489   68.1002 H   0  0  0  0  0  0  0  0  0  0  0  0
    5.5694   69.9687   65.9340 H   0  0  0  0  0  0  0  0  0  0  0  0
    3.3311   68.9195   65.6352 H   0  0  0  0  0  0  0  0  0  0  0  0
  2  1  1  0
  3  2  1  0
  4  3  1  0
  5  4  2  0
  6  5  1  0
  7  6  2  0
  8  7  1  0
  9  4  1  0
  9  8  2  0
 10  2  1  0
 11 10  1  0
 12 11  2  0
 13 12  1  0
 14 13  2  0
 15 14  1  0
 16 15  2  0
 16 11  1  0
  3 17  1  0
  3 18  1  0
  5 19  1  0
  6 20  1  0
  7 21  1  0
  8 22  1  0
  9 23  1  0
 10 24  1  0
 10 25  1  0
 12 26  1  0
 13 27  1  0
 14 28  1  0
 15 29  1  0
 16 30  1  0
M  CHG  2   1  -1   2   1
M  END
>  <score>  (7) 
-7.795

$$$$
=
     RDKit          3D

 30 31  0  0  0  0  0  0  0  0999 V2000
    1.9560   68.1180   67.7840 O   0  0  0  0  0  1  0  0  0  0  0  0
    1.9830   68.9320   66.3320 S   0  0  0  0  0  3  0  0  0  0  0  0
    1.5080   67.7460   65.0290 C   0  0  0  0  0  0  0  0  0  0  0  0
    1.1810   68.4310   63.7270 C   0  0  0  0  0  0  0  0  0  0  0  0
   -0.0620   69.0530   63.5390 C   0  0  0  0  0  0  0  0  0  0  0  0
   -0.3590   69.6880   62.3310 C   0  0  0  0  0  0  0  0  0  0  0  0
    0.5770   69.7030   61.3000 C   0  0  0  0  0  0  0  0  0  0  0  0
    1.8120   69.0830   61.4730 C   0  0  0  0  0  0  0  0  0  0  0  0
    2.1140   68.4510   62.6800 C   0  0  0  0  0  0  0  0  0  0  0  0
    3.7250   69.0630   65.8090 C   0  0  0  0  0  0  0  0  0  0  0  0
    4.5850   69.7310   66.8500 C   0  0  0  0  0  0  0  0  0  0  0  0
    5.9610   69.8950   66.6370 C   0  0  0  0  0  0  0  0  0  0  0  0
    6.7590   70.5110   67.6010 C   0  0  0  0  0  0  0  0  0  0  0  0
    6.1930   70.9710   68.7880 C   0  0  0  0  0  0  0  0  0  0  0  0
    4.8270   70.8100   69.0130 C   0  0  0  0  0  0  0  0  0  0  0  0
    4.0260   70.1910   68.0510 C   0  0  0  0  0  0  0  0  0  0  0  0
    2.3429   67.0493   64.8628 H   0  0  0  0  0  0  0  0  0  0  0  0
    0.6055   67.2161   65.3676 H   0  0  0  0  0  0  0  0  0  0  0  0
   -0.8074   69.0406   64.3478 H   0  0  0  0  0  0  0  0  0  0  0  0
   -1.3345   70.1774   62.1937 H   0  0  0  0  0  0  0  0  0  0  0  0
    0.3411   70.2042   60.3497 H   0  0  0  0  0  0  0  0  0  0  0  0
    2.5501   69.0915   60.6575 H   0  0  0  0  0  0  0  0  0  0  0  0
    3.0918   67.9645   62.8113 H   0  0  0  0  0  0  0  0  0  0  0  0
    4.1157   68.0517   65.6231 H   0  0  0  0  0  0  0  0  0  0  0  0
    3.7579   69.6796   64.8987 H   0  0  0  0  0  0  0  0  0  0  0  0
    6.4150   69.5349   65.7020 H   0  0  0  0  0  0  0  0  0  0  0  0
    7.8376   70.6339   67.4236 H   0  0  0  0  0  0  0  0  0  0  0  0
    6.8227   71.4601   69.5458 H   0  0  0  0  0  0  0  0  0  0  0  0
    4.3789   71.1713   69.9504 H   0  0  0  0  0  0  0  0  0  0  0  0
    2.9493   70.0634   68.2366 H   0  0  0  0  0  0  0  0  0  0  0  0
  2  1  1  0
  3  2  1  0
  4  3  1  0
  5  4  2  0
  6  5  1  0
  7  6  2  0
  8  7  1  0
  9  4  1  0
  9  8  2  0
 10  2  1  0
 11 10  1  0
 12 11  2  0
 13 12  1  0
 14 13  2  0
 15 14  1  0
 16 15  2  0
 16 11  1  0
  3 17  1  0
  3 18  1  0
  5 19  1  0
  6 20  1  0
  7 21  1  0
  8 22  1  0
  9 23  1  0
 10 24  1  0
 10 25  1  0
 12 26  1  0
 13 27  1  0
 14 28  1  0
 15 29  1  0
 16 30  1  0
M  CHG  2   1  -1   2   1
M  END
>  <score>  (8) 
-7.769

$$$$
=
     RDKit          3D

 30 31  0  0  0  0  0  0  0  0999 V2000
    1.9100   67.9630   67.6300 O   0  0  0  0  0  1  0  0  0  0  0  0
    1.9860   69.0290   66.3530 S   0  0  0  0  0  3  0  0  0  0  0  0
    1.4430   68.1350   64.8580 C   0  0  0  0  0  0  0  0  0  0  0  0
    2.4610   67.1230   64.3990 C   0  0  0  0  0  0  0  0  0  0  0  0
    3.3440   67.4220   63.3510 C   0  0  0  0  0  0  0  0  0  0  0  0
    4.2860   66.4810   62.9300 C   0  0  0  0  0  0  0  0  0  0  0  0
    4.3530   65.2340   63.5460 C   0  0  0  0  0  0  0  0  0  0  0  0
    3.4780   64.9230   64.5830 C   0  0  0  0  0  0  0  0  0  0  0  0
    2.5370   65.8620   65.0090 C   0  0  0  0  0  0  0  0  0  0  0  0
    3.7330   69.1540   65.8460 C   0  0  0  0  0  0  0  0  0  0  0  0
    4.5900   69.7970   66.9040 C   0  0  0  0  0  0  0  0  0  0  0  0
    5.9620   69.9890   66.6890 C   0  0  0  0  0  0  0  0  0  0  0  0
    6.7580   70.5830   67.6680 C   0  0  0  0  0  0  0  0  0  0  0  0
    6.1930   70.9930   68.8740 C   0  0  0  0  0  0  0  0  0  0  0  0
    4.8310   70.8040   69.1020 C   0  0  0  0  0  0  0  0  0  0  0  0
    4.0330   70.2080   68.1240 C   0  0  0  0  0  0  0  0  0  0  0  0
    0.5002   67.6136   65.0798 H   0  0  0  0  0  0  0  0  0  0  0  0
    1.3125   68.8723   64.0522 H   0  0  0  0  0  0  0  0  0  0  0  0
    3.2941   68.4039   62.8576 H   0  0  0  0  0  0  0  0  0  0  0  0
    4.9769   66.7255   62.1097 H   0  0  0  0  0  0  0  0  0  0  0  0
    5.0969   64.4951   63.2134 H   0  0  0  0  0  0  0  0  0  0  0  0
    3.5281   63.9365   65.0671 H   0  0  0  0  0  0  0  0  0  0  0  0
    1.8492   65.6110   65.8300 H   0  0  0  0  0  0  0  0  0  0  0  0
    4.1167   68.1426   65.6463 H   0  0  0  0  0  0  0  0  0  0  0  0
    3.7782   69.7854   64.9464 H   0  0  0  0  0  0  0  0  0  0  0  0
    6.4149   69.6681   65.7393 H   0  0  0  0  0  0  0  0  0  0  0  0
    7.8334   70.7281   67.4879 H   0  0  0  0  0  0  0  0  0  0  0  0
    6.8205   71.4648   69.6444 H   0  0  0  0  0  0  0  0  0  0  0  0
    4.3841   71.1251   70.0545 H   0  0  0  0  0  0  0  0  0  0  0  0
    2.9593   70.0595   68.3114 H   0  0  0  0  0  0  0  0  0  0  0  0
  2  1  1  0
  3  2  1  0
  4  3  1  0
  5  4  2  0
  6  5  1  0
  7  6  2  0
  8  7  1  0
  9  4  1  0
  9  8  2  0
 10  2  1  0
 11 10  1  0
 12 11  2  0
 13 12  1  0
 14 13  2  0
 15 14  1  0
 16 15  2  0
 16 11  1  0
  3 17  1  0
  3 18  1  0
  5 19  1  0
  6 20  1  0
  7 21  1  0
  8 22  1  0
  9 23  1  0
 10 24  1  0
 10 25  1  0
 12 26  1  0
 13 27  1  0
 14 28  1  0
 15 29  1  0
 16 30  1  0
M  CHG  2   1  -1   2   1
M  END
>  <score>  (9) 
-7.578

$$$$
