=
     RDKit          3D

 35 37  0  0  0  0  0  0  0  0999 V2000
    0.0750   69.8300   62.7090 C   0  0  0  0  0  0  0  0  0  0  0  0
    1.1450   69.0600   63.3330 N   0  0  0  0  0  0  0  0  0  0  0  0
    2.2060   68.6800   62.5030 C   0  0  0  0  0  0  0  0  0  0  0  0
    2.2840   69.0430   61.3250 O   0  0  0  0  0  0  0  0  0  0  0  0
    3.2340   67.7180   63.0830 C   0  0  0  0  0  0  0  0  0  0  0  0
    4.0310   68.4140   64.0880 N   0  0  0  0  0  0  0  0  0  0  0  0
    3.4620   68.7290   65.2020 C   0  0  0  0  0  0  0  0  0  0  0  0
    2.0580   68.3660   65.5540 C   0  0  0  0  0  0  0  0  0  0  0  0
    0.9780   68.5960   64.6750 C   0  0  0  0  0  0  0  0  0  0  0  0
   -0.3230   68.3510   65.1590 C   0  0  0  0  0  0  0  0  0  0  0  0
   -0.5480   67.8440   66.4450 C   0  0  0  0  0  0  0  0  0  0  0  0
    0.5390   67.5740   67.2770 C   0  0  0  0  0  0  0  0  0  0  0  0
    1.8410   67.8320   66.8400 C   0  0  0  0  0  0  0  0  0  0  0  0
    4.2780   69.4980   66.1940 C   0  0  0  0  0  0  0  0  0  0  0  0
    5.5870   69.8640   65.8600 C   0  0  0  0  0  0  0  0  0  0  0  0
    6.3680   70.5780   66.7700 C   0  0  0  0  0  0  0  0  0  0  0  0
    5.8410   70.9370   68.0100 C   0  0  0  0  0  0  0  0  0  0  0  0
    4.5300   70.5930   68.3400 C   0  0  0  0  0  0  0  0  0  0  0  0
    3.7450   69.8780   67.4330 C   0  0  0  0  0  0  0  0  0  0  0  0
    0.3130   67.0270   68.6200 N   0  0  0  0  0  4  0  0  0  0  0  0
   -0.7110   66.3560   68.8030 O   0  0  0  0  0  0  0  0  0  0  0  0
    1.1630   67.2680   69.4890 O   0  0  0  0  0  1  0  0  0  0  0  0
   -0.5541   70.2828   63.4895 H   0  0  0  0  0  0  0  0  0  0  0  0
    0.5107   70.6230   62.0834 H   0  0  0  0  0  0  0  0  0  0  0  0
   -0.5385   69.1650   62.0834 H   0  0  0  0  0  0  0  0  0  0  0  0
    2.7180   66.8655   63.5487 H   0  0  0  0  0  0  0  0  0  0  0  0
    3.8907   67.3516   62.2802 H   0  0  0  0  0  0  0  0  0  0  0  0
   -1.1847   68.5637   64.5092 H   0  0  0  0  0  0  0  0  0  0  0  0
   -1.5740   67.6600   66.7965 H   0  0  0  0  0  0  0  0  0  0  0  0
    2.6955   67.6185   67.4990 H   0  0  0  0  0  0  0  0  0  0  0  0
    6.0008   69.5885   64.8788 H   0  0  0  0  0  0  0  0  0  0  0  0
    7.3994   70.8575   66.5090 H   0  0  0  0  0  0  0  0  0  0  0  0
    6.4603   71.4926   68.7295 H   0  0  0  0  0  0  0  0  0  0  0  0
    4.1142   70.8852   69.3156 H   0  0  0  0  0  0  0  0  0  0  0  0
    2.7090   69.6133   67.6910 H   0  0  0  0  0  0  0  0  0  0  0  0
  2  1  1  0
  3  2  1  0
  4  3  2  0
  5  3  1  0
  6  5  1  0
  7  6  2  0
  8  7  1  0
  9  2  1  0
  9  8  2  0
 10  9  1  0
 11 10  2  0
 12 11  1  0
 13 12  2  0
 13  8  1  0
 14  7  1  0
 15 14  2  0
 16 15  1  0
 17 16  2  0
 18 17  1  0
 19 18  2  0
 19 14  1  0
 20 12  1  0
 21 20  2  0
 22 20  1  0
  1 23  1  0
  1 24  1  0
  1 25  1  0
  5 26  1  0
  5 27  1  0
 10 28  1  0
 11 29  1  0
 13 30  1  0
 15 31  1  0
 16 32  1  0
 17 33  1  0
 18 34  1  0
 19 35  1  0
M  CHG  2  20   1  22  -1
M  END
>  <score>  (1) 
-11.065

$$$$
=
     RDKit          3D

 35 37  0  0  0  0  0  0  0  0999 V2000
    3.0430   68.8350   61.0430 C   0  0  0  0  0  0  0  0  0  0  0  0
    2.9880   68.1840   62.3460 N   0  0  0  0  0  0  0  0  0  0  0  0
    3.9610   67.2090   62.5970 C   0  0  0  0  0  0  0  0  0  0  0  0
    4.8710   66.9650   61.7990 O   0  0  0  0  0  0  0  0  0  0  0  0
    3.8080   66.3840   63.8680 C   0  0  0  0  0  0  0  0  0  0  0  0
    4.0930   67.2260   65.0250 N   0  0  0  0  0  0  0  0  0  0  0  0
    3.2430   68.1470   65.3300 C   0  0  0  0  0  0  0  0  0  0  0  0
    1.9510   68.3600   64.6130 C   0  0  0  0  0  0  0  0  0  0  0  0
    1.8750   68.4390   63.2060 C   0  0  0  0  0  0  0  0  0  0  0  0
    0.6340   68.7870   62.6360 C   0  0  0  0  0  0  0  0  0  0  0  0
   -0.5060   68.9940   63.4230 C   0  0  0  0  0  0  0  0  0  0  0  0
   -0.4190   68.8580   64.8090 C   0  0  0  0  0  0  0  0  0  0  0  0
    0.8030   68.5430   65.4090 C   0  0  0  0  0  0  0  0  0  0  0  0
    3.5840   69.0400   66.4820 C   0  0  0  0  0  0  0  0  0  0  0  0
    4.8420   69.6530   66.5170 C   0  0  0  0  0  0  0  0  0  0  0  0
    5.1840   70.4880   67.5820 C   0  0  0  0  0  0  0  0  0  0  0  0
    4.2680   70.7200   68.6080 C   0  0  0  0  0  0  0  0  0  0  0  0
    3.0060   70.1280   68.5670 C   0  0  0  0  0  0  0  0  0  0  0  0
    2.6590   69.2920   67.5030 C   0  0  0  0  0  0  0  0  0  0  0  0
   -1.6130   69.0590   65.6390 N   0  0  0  0  0  4  0  0  0  0  0  0
   -2.7150   68.8170   65.1290 O   0  0  0  0  0  0  0  0  0  0  0  0
   -1.4440   69.4540   66.8010 O   0  0  0  0  0  1  0  0  0  0  0  0
    3.1349   69.9226   61.1801 H   0  0  0  0  0  0  0  0  0  0  0  0
    3.9128   68.4613   60.4828 H   0  0  0  0  0  0  0  0  0  0  0  0
    2.1229   68.6125   60.4828 H   0  0  0  0  0  0  0  0  0  0  0  0
    2.7790   66.0013   63.9363 H   0  0  0  0  0  0  0  0  0  0  0  0
    4.5103   65.5377   63.8455 H   0  0  0  0  0  0  0  0  0  0  0  0
    0.5587   68.8990   61.5443 H   0  0  0  0  0  0  0  0  0  0  0  0
   -1.4632   69.2619   62.9518 H   0  0  0  0  0  0  0  0  0  0  0  0
    0.8686   68.4380   66.5020 H   0  0  0  0  0  0  0  0  0  0  0  0
    5.5619   69.4765   65.7042 H   0  0  0  0  0  0  0  0  0  0  0  0
    6.1757   70.9630   67.6121 H   0  0  0  0  0  0  0  0  0  0  0  0
    4.5416   71.3713   69.4512 H   0  0  0  0  0  0  0  0  0  0  0  0
    2.2829   70.3196   69.3735 H   0  0  0  0  0  0  0  0  0  0  0  0
    1.6604   68.8321   67.4671 H   0  0  0  0  0  0  0  0  0  0  0  0
  2  1  1  0
  3  2  1  0
  4  3  2  0
  5  3  1  0
  6  5  1  0
  7  6  2  0
  8  7  1  0
  9  2  1  0
  9  8  2  0
 10  9  1  0
 11 10  2  0
 12 11  1  0
 13 12  2  0
 13  8  1  0
 14  7  1  0
 15 14  2  0
 16 15  1  0
 17 16  2  0
 18 17  1  0
 19 18  2  0
 19 14  1  0
 20 12  1  0
 21 20  2  0
 22 20  1  0
  1 23  1  0
  1 24  1  0
  1 25  1  0
  5 26  1  0
  5 27  1  0
 10 28  1  0
 11 29  1  0
 13 30  1  0
 15 31  1  0
 16 32  1  0
 17 33  1  0
 18 34  1  0
 19 35  1  0
M  CHG  2  20   1  22  -1
M  END
>  <score>  (2) 
-10.586

$$$$
=
     RDKit          3D

 35 37  0  0  0  0  0  0  0  0999 V2000
    4.8880   67.2720   63.3970 C   0  0  0  0  0  0  0  0  0  0  0  0
    3.7780   68.0250   63.9700 N   0  0  0  0  0  0  0  0  0  0  0  0
    2.6320   68.1490   63.1750 C   0  0  0  0  0  0  0  0  0  0  0  0
    2.5250   67.5860   62.0810 O   0  0  0  0  0  0  0  0  0  0  0  0
    1.5390   69.0860   63.6700 C   0  0  0  0  0  0  0  0  0  0  0  0
    0.8880   68.4940   64.8330 N   0  0  0  0  0  0  0  0  0  0  0  0
    1.5550   68.4300   65.9360 C   0  0  0  0  0  0  0  0  0  0  0  0
    2.9280   68.9880   66.1140 C   0  0  0  0  0  0  0  0  0  0  0  0
    3.9710   68.7230   65.2020 C   0  0  0  0  0  0  0  0  0  0  0  0
    5.2640   69.1760   65.5370 C   0  0  0  0  0  0  0  0  0  0  0  0
    5.5060   69.9140   66.7020 C   0  0  0  0  0  0  0  0  0  0  0  0
    4.4480   70.2100   67.5620 C   0  0  0  0  0  0  0  0  0  0  0  0
    3.1600   69.7510   67.2760 C   0  0  0  0  0  0  0  0  0  0  0  0
    0.8920   67.7620   67.1000 C   0  0  0  0  0  0  0  0  0  0  0  0
   -0.4680   67.4400   67.0150 C   0  0  0  0  0  0  0  0  0  0  0  0
   -1.1080   66.8200   68.0890 C   0  0  0  0  0  0  0  0  0  0  0  0
   -0.3910   66.5110   69.2440 C   0  0  0  0  0  0  0  0  0  0  0  0
    0.9680   66.8110   69.3260 C   0  0  0  0  0  0  0  0  0  0  0  0
    1.6140   67.4310   68.2540 C   0  0  0  0  0  0  0  0  0  0  0  0
    4.6920   70.9950   68.7780 N   0  0  0  0  0  4  0  0  0  0  0  0
    4.2130   70.5750   69.8390 O   0  0  0  0  0  0  0  0  0  0  0  0
    5.3660   72.0290   68.6680 O   0  0  0  0  0  1  0  0  0  0  0  0
    5.5042   66.8540   64.2067 H   0  0  0  0  0  0  0  0  0  0  0  0
    4.4942   66.4538   62.7761 H   0  0  0  0  0  0  0  0  0  0  0  0
    5.5027   67.9403   62.7761 H   0  0  0  0  0  0  0  0  0  0  0  0
    1.9826   70.0530   63.9496 H   0  0  0  0  0  0  0  0  0  0  0  0
    0.7980   69.2423   62.8722 H   0  0  0  0  0  0  0  0  0  0  0  0
    6.1039   68.9435   64.8658 H   0  0  0  0  0  0  0  0  0  0  0  0
    6.5238   70.2582   66.9377 H   0  0  0  0  0  0  0  0  0  0  0  0
    2.3281   69.9847   67.9567 H   0  0  0  0  0  0  0  0  0  0  0  0
   -1.0325   67.6760   66.1008 H   0  0  0  0  0  0  0  0  0  0  0  0
   -2.1784   66.5751   68.0242 H   0  0  0  0  0  0  0  0  0  0  0  0
   -0.8988   66.0293   70.0926 H   0  0  0  0  0  0  0  0  0  0  0  0
    1.5322   66.5591   70.2361 H   0  0  0  0  0  0  0  0  0  0  0  0
    2.6883   67.6591   68.3158 H   0  0  0  0  0  0  0  0  0  0  0  0
  2  1  1  0
  3  2  1  0
  4  3  2  0
  5  3  1  0
  6  5  1  0
  7  6  2  0
  8  7  1  0
  9  2  1  0
  9  8  2  0
 10  9  1  0
 11 10  2  0
 12 11  1  0
 13 12  2  0
 13  8  1  0
 14  7  1  0
 15 14  2  0
 16 15  1  0
 17 16  2  0
 18 17  1  0
 19 18  2  0
 19 14  1  0
 20 12  1  0
 21 20  2  0
 22 20  1  0
  1 23  1  0
  1 24  1  0
  1 25  1  0
  5 26  1  0
  5 27  1  0
 10 28  1  0
 11 29  1  0
 13 30  1  0
 15 31  1  0
 16 32  1  0
 17 33  1  0
 18 34  1  0
 19 35  1  0
M  CHG  2  20   1  22  -1
M  END
>  <score>  (3) 
-10.415

$$$$
=
     RDKit          3D

 35 37  0  0  0  0  0  0  0  0999 V2000
   -0.3960   69.5550   67.5570 C   0  0  0  0  0  0  0  0  0  0  0  0
    0.8010   68.7990   67.2100 N   0  0  0  0  0  0  0  0  0  0  0  0
    0.6130   67.4540   66.8700 C   0  0  0  0  0  0  0  0  0  0  0  0
   -0.5100   66.9470   66.7850 O   0  0  0  0  0  0  0  0  0  0  0  0
    1.8610   66.6000   66.6920 C   0  0  0  0  0  0  0  0  0  0  0  0
    2.5470   67.0010   65.4690 N   0  0  0  0  0  0  0  0  0  0  0  0
    3.1360   68.1490   65.4510 C   0  0  0  0  0  0  0  0  0  0  0  0
    3.2180   69.0630   66.6280 C   0  0  0  0  0  0  0  0  0  0  0  0
    2.0850   69.4010   67.3980 C   0  0  0  0  0  0  0  0  0  0  0  0
    2.2410   70.3840   68.3970 C   0  0  0  0  0  0  0  0  0  0  0  0
    3.4840   70.9690   68.6650 C   0  0  0  0  0  0  0  0  0  0  0  0
    4.6020   70.5790   67.9270 C   0  0  0  0  0  0  0  0  0  0  0  0
    4.4770   69.6300   66.9090 C   0  0  0  0  0  0  0  0  0  0  0  0
    3.7810   68.5690   64.1670 C   0  0  0  0  0  0  0  0  0  0  0  0
    3.0410   68.4980   62.9800 C   0  0  0  0  0  0  0  0  0  0  0  0
    3.6220   68.8820   61.7700 C   0  0  0  0  0  0  0  0  0  0  0  0
    4.9370   69.3450   61.7440 C   0  0  0  0  0  0  0  0  0  0  0  0
    5.6710   69.4360   62.9250 C   0  0  0  0  0  0  0  0  0  0  0  0
    5.0950   69.0540   64.1390 C   0  0  0  0  0  0  0  0  0  0  0  0
    5.9120   71.1780   68.2120 N   0  0  0  0  0  4  0  0  0  0  0  0
    6.8350   70.4160   68.5280 O   0  0  0  0  0  0  0  0  0  0  0  0
    6.0140   72.4090   68.1160 O   0  0  0  0  0  1  0  0  0  0  0  0
   -0.4884   69.6133   68.6516 H   0  0  0  0  0  0  0  0  0  0  0  0
   -0.3219   70.5705   67.1406 H   0  0  0  0  0  0  0  0  0  0  0  0
   -1.2811   69.0517   67.1406 H   0  0  0  0  0  0  0  0  0  0  0  0
    2.5305   66.7431   67.5530 H   0  0  0  0  0  0  0  0  0  0  0  0
    1.5763   65.5396   66.6249 H   0  0  0  0  0  0  0  0  0  0  0  0
    1.3634   70.6991   68.9805 H   0  0  0  0  0  0  0  0  0  0  0  0
    3.5788   71.7313   69.4524 H   0  0  0  0  0  0  0  0  0  0  0  0
    5.3601   69.3260   66.3279 H   0  0  0  0  0  0  0  0  0  0  0  0
    2.0013   68.1394   63.0011 H   0  0  0  0  0  0  0  0  0  0  0  0
    3.0424   68.8193   60.8372 H   0  0  0  0  0  0  0  0  0  0  0  0
    5.3962   69.6392   60.7887 H   0  0  0  0  0  0  0  0  0  0  0  0
    6.7055   69.8092   62.9013 H   0  0  0  0  0  0  0  0  0  0  0  0
    5.6725   69.1339   65.0718 H   0  0  0  0  0  0  0  0  0  0  0  0
  2  1  1  0
  3  2  1  0
  4  3  2  0
  5  3  1  0
  6  5  1  0
  7  6  2  0
  8  7  1  0
  9  2  1  0
  9  8  2  0
 10  9  1  0
 11 10  2  0
 12 11  1  0
 13 12  2  0
 13  8  1  0
 14  7  1  0
 15 14  2  0
 16 15  1  0
 17 16  2  0
 18 17  1  0
 19 18  2  0
 19 14  1  0
 20 12  1  0
 21 20  2  0
 22 20  1  0
  1 23  1  0
  1 24  1  0
  1 25  1  0
  5 26  1  0
  5 27  1  0
 10 28  1  0
 11 29  1  0
 13 30  1  0
 15 31  1  0
 16 32  1  0
 17 33  1  0
 18 34  1  0
 19 35  1  0
M  CHG  2  20   1  22  -1
M  END
>  <score>  (4) 
-9.895

$$$$
=
     RDKit          3D

 35 37  0  0  0  0  0  0  0  0999 V2000
    5.8100   67.3930   62.7540 C   0  0  0  0  0  0  0  0  0  0  0  0
    4.4940   66.9800   63.2260 N   0  0  0  0  0  0  0  0  0  0  0  0
    4.4350   65.7720   63.9320 C   0  0  0  0  0  0  0  0  0  0  0  0
    5.4480   65.1240   64.2150 O   0  0  0  0  0  0  0  0  0  0  0  0
    3.0530   65.2270   64.2660 C   0  0  0  0  0  0  0  0  0  0  0  0
    2.4420   66.0660   65.2930 N   0  0  0  0  0  0  0  0  0  0  0  0
    2.0690   67.2550   64.9620 C   0  0  0  0  0  0  0  0  0  0  0  0
    2.1600   67.8050   63.5780 C   0  0  0  0  0  0  0  0  0  0  0  0
    3.3410   67.7160   62.8100 C   0  0  0  0  0  0  0  0  0  0  0  0
    3.3700   68.3920   61.5730 C   0  0  0  0  0  0  0  0  0  0  0  0
    2.2540   69.0830   61.0850 C   0  0  0  0  0  0  0  0  0  0  0  0
    1.0800   69.1110   61.8380 C   0  0  0  0  0  0  0  0  0  0  0  0
    1.0260   68.4770   63.0820 C   0  0  0  0  0  0  0  0  0  0  0  0
    1.5020   68.1210   66.0450 C   0  0  0  0  0  0  0  0  0  0  0  0
    2.3660   68.9370   66.7840 C   0  0  0  0  0  0  0  0  0  0  0  0
    1.8620   69.7500   67.8000 C   0  0  0  0  0  0  0  0  0  0  0  0
    0.4940   69.7580   68.0730 C   0  0  0  0  0  0  0  0  0  0  0  0
   -0.3730   68.9630   67.3250 C   0  0  0  0  0  0  0  0  0  0  0  0
    0.1260   68.1470   66.3070 C   0  0  0  0  0  0  0  0  0  0  0  0
   -0.0990   69.8210   61.3270 N   0  0  0  0  0  4  0  0  0  0  0  0
   -0.1390   70.0710   60.1150 O   0  0  0  0  0  0  0  0  0  0  0  0
   -0.9850   70.1230   62.1390 O   0  0  0  0  0  1  0  0  0  0  0  0
    6.4614   67.5974   63.6165 H   0  0  0  0  0  0  0  0  0  0  0  0
    6.2497   66.5897   62.1447 H   0  0  0  0  0  0  0  0  0  0  0  0
    5.7119   68.3035   62.1447 H   0  0  0  0  0  0  0  0  0  0  0  0
    2.4257   65.2357   63.3624 H   0  0  0  0  0  0  0  0  0  0  0  0
    3.1420   64.1950   64.6362 H   0  0  0  0  0  0  0  0  0  0  0  0
    4.2935   68.3762   60.9756 H   0  0  0  0  0  0  0  0  0  0  0  0
    2.3027   69.5998   60.1152 H   0  0  0  0  0  0  0  0  0  0  0  0
    0.0988   68.5027   63.6733 H   0  0  0  0  0  0  0  0  0  0  0  0
    3.4437   68.9375   66.5637 H   0  0  0  0  0  0  0  0  0  0  0  0
    2.5434   70.3846   68.3856 H   0  0  0  0  0  0  0  0  0  0  0  0
    0.0988   70.3927   68.8798 H   0  0  0  0  0  0  0  0  0  0  0  0
   -1.4523   68.9783   67.5368 H   0  0  0  0  0  0  0  0  0  0  0  0
   -0.5601   67.5261   65.7122 H   0  0  0  0  0  0  0  0  0  0  0  0
  2  1  1  0
  3  2  1  0
  4  3  2  0
  5  3  1  0
  6  5  1  0
  7  6  2  0
  8  7  1  0
  9  2  1  0
  9  8  2  0
 10  9  1  0
 11 10  2  0
 12 11  1  0
 13 12  2  0
 13  8  1  0
 14  7  1  0
 15 14  2  0
 16 15  1  0
 17 16  2  0
 18 17  1  0
 19 18  2  0
 19 14  1  0
 20 12  1  0
 21 20  2  0
 22 20  1  0
  1 23  1  0
  1 24  1  0
  1 25  1  0
  5 26  1  0
  5 27  1  0
 10 28  1  0
 11 29  1  0
 13 30  1  0
 15 31  1  0
 16 32  1  0
 17 33  1  0
 18 34  1  0
 19 35  1  0
M  CHG  2  20   1  22  -1
M  END
>  <score>  (5) 
-8.774

$$$$
=
     RDKit          3D

 35 37  0  0  0  0  0  0  0  0999 V2000
    0.0280   58.1130   73.7950 C   0  0  0  0  0  0  0  0  0  0  0  0
    1.1510   59.0410   73.8600 N   0  0  0  0  0  0  0  0  0  0  0  0
    2.4150   58.4760   74.0730 C   0  0  0  0  0  0  0  0  0  0  0  0
    2.5920   57.2550   74.1220 O   0  0  0  0  0  0  0  0  0  0  0  0
    3.5700   59.4340   74.3360 C   0  0  0  0  0  0  0  0  0  0  0  0
    3.8940   60.1440   73.1040 N   0  0  0  0  0  0  0  0  0  0  0  0
    3.0550   61.0230   72.6700 C   0  0  0  0  0  0  0  0  0  0  0  0
    1.8040   61.4070   73.3870 C   0  0  0  0  0  0  0  0  0  0  0  0
    0.8940   60.4470   73.8790 C   0  0  0  0  0  0  0  0  0  0  0  0
   -0.3260   60.9130   74.4110 C   0  0  0  0  0  0  0  0  0  0  0  0
   -0.6120   62.2800   74.5070 C   0  0  0  0  0  0  0  0  0  0  0  0
    0.3260   63.2130   74.0630 C   0  0  0  0  0  0  0  0  0  0  0  0
    1.5330   62.7850   73.5030 C   0  0  0  0  0  0  0  0  0  0  0  0
    3.3770   61.6960   71.3720 C   0  0  0  0  0  0  0  0  0  0  0  0
    4.4980   62.5310   71.2990 C   0  0  0  0  0  0  0  0  0  0  0  0
    4.8160   63.1710   70.1000 C   0  0  0  0  0  0  0  0  0  0  0  0
    4.0230   62.9720   68.9710 C   0  0  0  0  0  0  0  0  0  0  0  0
    2.9170   62.1250   69.0330 C   0  0  0  0  0  0  0  0  0  0  0  0
    2.5940   61.4810   70.2300 C   0  0  0  0  0  0  0  0  0  0  0  0
    0.0390   64.6480   74.1740 N   0  0  0  0  0  4  0  0  0  0  0  0
    0.2070   65.1840   75.2780 O   0  0  0  0  0  0  0  0  0  0  0  0
   -0.3490   65.2370   73.1560 O   0  0  0  0  0  1  0  0  0  0  0  0
   -0.2900   57.8502   74.8147 H   0  0  0  0  0  0  0  0  0  0  0  0
   -0.8087   58.5867   73.2606 H   0  0  0  0  0  0  0  0  0  0  0  0
    0.3356   57.2020   73.2606 H   0  0  0  0  0  0  0  0  0  0  0  0
    3.2787   60.1574   75.1118 H   0  0  0  0  0  0  0  0  0  0  0  0
    4.4489   58.8681   74.6786 H   0  0  0  0  0  0  0  0  0  0  0  0
   -1.0721   60.1836   74.7595 H   0  0  0  0  0  0  0  0  0  0  0  0
   -1.5701   62.6166   74.9298 H   0  0  0  0  0  0  0  0  0  0  0  0
    2.2702   63.5227   73.1534 H   0  0  0  0  0  0  0  0  0  0  0  0
    5.1289   62.6830   72.1872 H   0  0  0  0  0  0  0  0  0  0  0  0
    5.6930   63.8328   70.0460 H   0  0  0  0  0  0  0  0  0  0  0  0
    4.2702   63.4841   68.0294 H   0  0  0  0  0  0  0  0  0  0  0  0
    2.2980   61.9637   68.1382 H   0  0  0  0  0  0  0  0  0  0  0  0
    1.7264   60.8063   70.2759 H   0  0  0  0  0  0  0  0  0  0  0  0
  2  1  1  0
  3  2  1  0
  4  3  2  0
  5  3  1  0
  6  5  1  0
  7  6  2  0
  8  7  1  0
  9  2  1  0
  9  8  2  0
 10  9  1  0
 11 10  2  0
 12 11  1  0
 13 12  2  0
 13  8  1  0
 14  7  1  0
 15 14  2  0
 16 15  1  0
 17 16  2  0
 18 17  1  0
 19 18  2  0
 19 14  1  0
 20 12  1  0
 21 20  2  0
 22 20  1  0
  1 23  1  0
  1 24  1  0
  1 25  1  0
  5 26  1  0
  5 27  1  0
 10 28  1  0
 11 29  1  0
 13 30  1  0
 15 31  1  0
 16 32  1  0
 17 33  1  0
 18 34  1  0
 19 35  1  0
M  CHG  2  20   1  22  -1
M  END
>  <score>  (6) 
-8.232

$$$$
=
     RDKit          3D

 35 37  0  0  0  0  0  0  0  0999 V2000
    1.2910   55.7540   74.8650 C   0  0  0  0  0  0  0  0  0  0  0  0
    1.8670   57.0920   74.8020 N   0  0  0  0  0  0  0  0  0  0  0  0
    3.1170   57.2620   75.4110 C   0  0  0  0  0  0  0  0  0  0  0  0
    3.7430   56.3190   75.9040 O   0  0  0  0  0  0  0  0  0  0  0  0
    3.6470   58.6840   75.5250 C   0  0  0  0  0  0  0  0  0  0  0  0
    4.0250   59.1650   74.2010 N   0  0  0  0  0  0  0  0  0  0  0  0
    3.0840   59.4140   73.3540 C   0  0  0  0  0  0  0  0  0  0  0  0
    1.6290   59.3060   73.6680 C   0  0  0  0  0  0  0  0  0  0  0  0
    1.0760   58.1680   74.2930 C   0  0  0  0  0  0  0  0  0  0  0  0
   -0.3270   58.1040   74.4130 C   0  0  0  0  0  0  0  0  0  0  0  0
   -1.1510   59.1510   73.9840 C   0  0  0  0  0  0  0  0  0  0  0  0
   -0.5780   60.2900   73.4180 C   0  0  0  0  0  0  0  0  0  0  0  0
    0.8080   60.3740   73.2560 C   0  0  0  0  0  0  0  0  0  0  0  0
    3.4950   59.8450   71.9800 C   0  0  0  0  0  0  0  0  0  0  0  0
    4.1950   61.0480   71.8270 C   0  0  0  0  0  0  0  0  0  0  0  0
    4.5860   61.4720   70.5560 C   0  0  0  0  0  0  0  0  0  0  0  0
    4.2870   60.6930   69.4380 C   0  0  0  0  0  0  0  0  0  0  0  0
    3.6070   59.4850   69.5880 C   0  0  0  0  0  0  0  0  0  0  0  0
    3.2140   59.0560   70.8570 C   0  0  0  0  0  0  0  0  0  0  0  0
   -1.4350   61.3990   72.9800 N   0  0  0  0  0  4  0  0  0  0  0  0
   -0.9060   62.3130   72.3330 O   0  0  0  0  0  0  0  0  0  0  0  0
   -2.6360   61.3500   73.2800 O   0  0  0  0  0  1  0  0  0  0  0  0
    1.1639   55.4587   75.9170 H   0  0  0  0  0  0  0  0  0  0  0  0
    0.3123   55.7521   74.3628 H   0  0  0  0  0  0  0  0  0  0  0  0
    1.9622   55.0418   74.3628 H   0  0  0  0  0  0  0  0  0  0  0  0
    2.8652   59.3351   75.9432 H   0  0  0  0  0  0  0  0  0  0  0  0
    4.5255   58.6979   76.1868 H   0  0  0  0  0  0  0  0  0  0  0  0
   -0.7864   57.2077   74.8554 H   0  0  0  0  0  0  0  0  0  0  0  0
   -2.2431   59.0762   74.0924 H   0  0  0  0  0  0  0  0  0  0  0  0
    1.2568   61.2726   72.8075 H   0  0  0  0  0  0  0  0  0  0  0  0
    4.4369   61.6592   72.7090 H   0  0  0  0  0  0  0  0  0  0  0  0
    5.1300   62.4205   70.4358 H   0  0  0  0  0  0  0  0  0  0  0  0
    4.5883   61.0325   68.4360 H   0  0  0  0  0  0  0  0  0  0  0  0
    3.3799   58.8692   68.7053 H   0  0  0  0  0  0  0  0  0  0  0  0
    2.6842   58.0993   70.9750 H   0  0  0  0  0  0  0  0  0  0  0  0
  2  1  1  0
  3  2  1  0
  4  3  2  0
  5  3  1  0
  6  5  1  0
  7  6  2  0
  8  7  1  0
  9  2  1  0
  9  8  2  0
 10  9  1  0
 11 10  2  0
 12 11  1  0
 13 12  2  0
 13  8  1  0
 14  7  1  0
 15 14  2  0
 16 15  1  0
 17 16  2  0
 18 17  1  0
 19 18  2  0
 19 14  1  0
 20 12  1  0
 21 20  2  0
 22 20  1  0
  1 23  1  0
  1 24  1  0
  1 25  1  0
  5 26  1  0
  5 27  1  0
 10 28  1  0
 11 29  1  0
 13 30  1  0
 15 31  1  0
 16 32  1  0
 17 33  1  0
 18 34  1  0
 19 35  1  0
M  CHG  2  20   1  22  -1
M  END
>  <score>  (7) 
-8.214

$$$$
