=
     RDKit          3D

 73 77  0  0  0  0  0  0  0  0999 V2000
    0.9990   64.5730   70.6830 C   0  0  0  0  0  0  0  0  0  0  0  0
    2.4990   64.5590   70.3760 C   0  0  0  0  0  0  0  0  0  0  0  0
    2.9260   63.3050   69.6130 C   0  0  0  0  0  0  0  0  0  0  0  0
    3.1750   61.4740   71.2570 C   0  0  0  0  0  0  0  0  0  0  0  0
    4.2020   61.9530   71.7310 O   0  0  0  0  0  0  0  0  0  0  0  0
    2.4730   62.0870   70.2500 N   0  0  0  0  0  0  0  0  0  0  0  0
   -0.1480   56.6620   74.1220 C   0  0  0  0  0  0  0  0  0  0  0  0
   -0.6630   57.9050   74.5080 C   0  0  0  0  0  0  0  0  0  0  0  0
   -0.1120   59.0960   74.0210 C   0  0  0  0  0  0  0  0  0  0  0  0
    0.9660   59.0500   73.1390 C   0  0  0  0  0  0  0  0  0  0  0  0
    1.4690   57.8110   72.7630 C   0  0  0  0  0  0  0  0  0  0  0  0
    0.9300   56.6140   73.2400 C   0  0  0  0  0  0  0  0  0  0  0  0
    2.5570   57.7230   71.8770 O   0  0  0  0  0  0  0  0  0  0  0  0
    3.1650   58.8580   71.3500 C   0  0  0  0  0  0  0  0  0  0  0  0
    4.1200   58.7550   70.5830 O   0  0  0  0  0  0  0  0  0  0  0  0
    2.6180   60.1740   71.7510 C   0  0  0  0  0  0  0  0  0  0  0  0
    1.5800   60.2510   72.6000 C   0  0  0  0  0  0  0  0  0  0  0  0
   -0.3140   54.2960   74.2970 C   0  0  0  0  0  0  0  0  0  0  0  0
   -0.7830   55.5850   74.6740 O   0  0  0  0  0  0  0  0  0  0  0  0
    0.3060   65.8730   70.2610 C   0  0  0  0  0  0  0  0  0  0  0  0
    1.2340   66.8360   69.5140 C   0  0  0  0  0  0  0  0  0  0  0  0
    0.5810   67.4730   68.2840 C   0  0  0  0  0  0  0  0  0  0  0  0
    1.5170   67.5590   67.0770 C   0  0  0  0  0  0  0  0  0  0  0  0
    1.6370   68.9670   66.6710 N   0  0  0  0  0  0  0  0  0  0  0  0
    2.9750   69.2880   66.2890 C   0  0  0  0  0  0  0  0  0  0  0  0
    3.3780   69.0190   64.9650 C   0  0  0  0  0  0  0  0  0  0  0  0
    2.3860   68.5450   63.9270 C   0  0  0  0  0  0  0  0  0  0  0  0
    3.0330   68.0230   62.6450 C   0  0  0  0  0  0  0  0  0  0  0  0
    4.1270   68.9690   62.1750 C   0  0  0  0  0  0  0  0  0  0  0  0
    5.2240   69.0530   63.2290 C   0  0  0  0  0  0  0  0  0  0  0  0
    4.6980   69.3080   64.6180 C   0  0  0  0  0  0  0  0  0  0  0  0
    5.6080   69.7860   65.4990 N   0  0  0  0  0  0  0  0  0  0  0  0
    5.2290   70.0240   66.7620 C   0  0  0  0  0  0  0  0  0  0  0  0
    3.9190   69.7920   67.2290 C   0  0  0  0  0  0  0  0  0  0  0  0
    3.6300   70.0770   68.5890 C   0  0  0  0  0  0  0  0  0  0  0  0
    4.6060   70.5730   69.4540 C   0  0  0  0  0  0  0  0  0  0  0  0
    5.8890   70.7940   68.9770 C   0  0  0  0  0  0  0  0  0  0  0  0
    6.1840   70.5180   67.6420 C   0  0  0  0  0  0  0  0  0  0  0  0
    0.5256   63.7358   70.1492 H   0  0  0  0  0  0  0  0  0  0  0  0
    0.8889   64.4844   71.7739 H   0  0  0  0  0  0  0  0  0  0  0  0
    2.7435   65.4427   69.7683 H   0  0  0  0  0  0  0  0  0  0  0  0
    3.0377   64.5678   71.3350 H   0  0  0  0  0  0  0  0  0  0  0  0
    2.5052   63.3496   68.5977 H   0  0  0  0  0  0  0  0  0  0  0  0
    4.0256   63.2834   69.5947 H   0  0  0  0  0  0  0  0  0  0  0  0
    1.5885   61.6635   69.9349 H   0  0  0  0  0  0  0  0  0  0  0  0
   -1.5134   57.9465   75.2045 H   0  0  0  0  0  0  0  0  0  0  0  0
   -0.5285   60.0650   74.3334 H   0  0  0  0  0  0  0  0  0  0  0  0
    1.3501   55.6477   72.9242 H   0  0  0  0  0  0  0  0  0  0  0  0
    1.1895   61.2373   72.8912 H   0  0  0  0  0  0  0  0  0  0  0  0
   -0.0991   53.7055   75.1998 H   0  0  0  0  0  0  0  0  0  0  0  0
   -1.0841   53.7858   73.6998 H   0  0  0  0  0  0  0  0  0  0  0  0
    0.6039   54.4000   73.6998 H   0  0  0  0  0  0  0  0  0  0  0  0
   -0.5392   65.6212   69.6035 H   0  0  0  0  0  0  0  0  0  0  0  0
   -0.0224   66.3816   71.1794 H   0  0  0  0  0  0  0  0  0  0  0  0
    1.5346   67.6377   70.2046 H   0  0  0  0  0  0  0  0  0  0  0  0
    2.0951   66.2504   69.1597 H   0  0  0  0  0  0  0  0  0  0  0  0
   -0.2959   66.8711   68.0034 H   0  0  0  0  0  0  0  0  0  0  0  0
    0.3073   68.5027   68.5575 H   0  0  0  0  0  0  0  0  0  0  0  0
    2.5081   67.1667   67.3488 H   0  0  0  0  0  0  0  0  0  0  0  0
    1.1116   66.9632   66.2459 H   0  0  0  0  0  0  0  0  0  0  0  0
    0.8549   69.6371   66.6631 H   0  0  0  0  0  0  0  0  0  0  0  0
    1.7854   67.7350   64.3664 H   0  0  0  0  0  0  0  0  0  0  0  0
    1.7775   69.4170   63.6453 H   0  0  0  0  0  0  0  0  0  0  0  0
    3.4700   67.0321   62.8379 H   0  0  0  0  0  0  0  0  0  0  0  0
    2.2635   67.9532   61.8620 H   0  0  0  0  0  0  0  0  0  0  0  0
    4.5537   68.5946   61.2328 H   0  0  0  0  0  0  0  0  0  0  0  0
    3.6986   69.9696   62.0159 H   0  0  0  0  0  0  0  0  0  0  0  0
    5.7768   68.1020   63.2341 H   0  0  0  0  0  0  0  0  0  0  0  0
    5.8670   69.9048   62.9627 H   0  0  0  0  0  0  0  0  0  0  0  0
    2.6129   69.9028   68.9700 H   0  0  0  0  0  0  0  0  0  0  0  0
    4.3599   70.7867   70.5046 H   0  0  0  0  0  0  0  0  0  0  0  0
    6.6691   71.1844   69.6470 H   0  0  0  0  0  0  0  0  0  0  0  0
    7.2051   70.6971   67.2742 H   0  0  0  0  0  0  0  0  0  0  0  0
  2  1  1  0
  3  2  1  0
  5  4  2  0
  6  3  1  0
  6  4  1  0
  8  7  2  0
  9  8  1  0
 10  9  2  0
 11 10  1  0
 12 11  2  0
 12  7  1  0
 13 11  1  0
 14 13  1  0
 15 14  2  0
 16 14  1  0
 16  4  1  0
 17 10  1  0
 17 16  2  0
 19 18  1  0
 19  7  1  0
 20  1  1  0
 21 20  1  0
 22 21  1  0
 23 22  1  0
 24 23  1  0
 25 24  1  0
 26 25  1  0
 27 26  1  0
 28 27  1  0
 29 28  1  0
 30 29  1  0
 31 30  1  0
 31 26  2  0
 32 31  1  0
 33 32  2  0
 34 33  1  0
 34 25  2  0
 35 34  1  0
 36 35  2  0
 37 36  1  0
 38 33  1  0
 38 37  2  0
  1 39  1  0
  1 40  1  0
  2 41  1  0
  2 42  1  0
  3 43  1  0
  3 44  1  0
  6 45  1  0
  8 46  1  0
  9 47  1  0
 12 48  1  0
 17 49  1  0
 18 50  1  0
 18 51  1  0
 18 52  1  0
 20 53  1  0
 20 54  1  0
 21 55  1  0
 21 56  1  0
 22 57  1  0
 22 58  1  0
 23 59  1  0
 23 60  1  0
 24 61  1  0
 27 62  1  0
 27 63  1  0
 28 64  1  0
 28 65  1  0
 29 66  1  0
 29 67  1  0
 30 68  1  0
 30 69  1  0
 35 70  1  0
 36 71  1  0
 37 72  1  0
 38 73  1  0
M  END
>  <score>  (1) 
-12.189

$$$$
=
     RDKit          3D

 73 77  0  0  0  0  0  0  0  0999 V2000
    1.0020   64.4350   70.5460 C   0  0  0  0  0  0  0  0  0  0  0  0
    2.5310   64.3680   70.6030 C   0  0  0  0  0  0  0  0  0  0  0  0
    3.0890   63.1460   69.8740 C   0  0  0  0  0  0  0  0  0  0  0  0
    3.2390   61.2570   71.4640 C   0  0  0  0  0  0  0  0  0  0  0  0
    4.2230   61.7290   72.0310 O   0  0  0  0  0  0  0  0  0  0  0  0
    2.6060   61.9010   70.4310 N   0  0  0  0  0  0  0  0  0  0  0  0
   -0.1360   56.3050   74.0110 C   0  0  0  0  0  0  0  0  0  0  0  0
   -0.6210   57.5240   74.4970 C   0  0  0  0  0  0  0  0  0  0  0  0
   -0.0540   58.7380   74.0930 C   0  0  0  0  0  0  0  0  0  0  0  0
    1.0100   58.7400   73.1930 C   0  0  0  0  0  0  0  0  0  0  0  0
    1.4840   57.5230   72.7170 C   0  0  0  0  0  0  0  0  0  0  0  0
    0.9280   56.3040   73.1110 C   0  0  0  0  0  0  0  0  0  0  0  0
    2.5570   57.4820   71.8100 O   0  0  0  0  0  0  0  0  0  0  0  0
    3.1790   58.6420   71.3610 C   0  0  0  0  0  0  0  0  0  0  0  0
    4.1220   58.5800   70.5740 O   0  0  0  0  0  0  0  0  0  0  0  0
    2.6640   59.9340   71.8670 C   0  0  0  0  0  0  0  0  0  0  0  0
    1.6400   59.9660   72.7360 C   0  0  0  0  0  0  0  0  0  0  0  0
   -0.1480   53.9440   74.2940 C   0  0  0  0  0  0  0  0  0  0  0  0
   -0.7840   55.2010   74.4900 O   0  0  0  0  0  0  0  0  0  0  0  0
    0.4660   65.8500   70.3030 C   0  0  0  0  0  0  0  0  0  0  0  0
    1.4310   66.7320   69.5060 C   0  0  0  0  0  0  0  0  0  0  0  0
    0.7320   67.5830   68.4410 C   0  0  0  0  0  0  0  0  0  0  0  0
    1.4810   67.6220   67.1080 C   0  0  0  0  0  0  0  0  0  0  0  0
    1.6550   69.0250   66.7040 N   0  0  0  0  0  0  0  0  0  0  0  0
    3.0050   69.2970   66.3270 C   0  0  0  0  0  0  0  0  0  0  0  0
    3.8680   69.8660   67.2860 C   0  0  0  0  0  0  0  0  0  0  0  0
    3.4310   70.0470   68.7210 C   0  0  0  0  0  0  0  0  0  0  0  0
    4.3610   70.9370   69.5450 C   0  0  0  0  0  0  0  0  0  0  0  0
    5.8140   70.5540   69.3070 C   0  0  0  0  0  0  0  0  0  0  0  0
    6.1710   70.7680   67.8410 C   0  0  0  0  0  0  0  0  0  0  0  0
    5.1740   70.1560   66.8910 C   0  0  0  0  0  0  0  0  0  0  0  0
    5.6270   69.9590   65.6300 N   0  0  0  0  0  0  0  0  0  0  0  0
    4.8010   69.4350   64.7150 C   0  0  0  0  0  0  0  0  0  0  0  0
    3.4660   69.0810   64.9960 C   0  0  0  0  0  0  0  0  0  0  0  0
    2.6790   68.5370   63.9480 C   0  0  0  0  0  0  0  0  0  0  0  0
    3.1990   68.3520   62.6670 C   0  0  0  0  0  0  0  0  0  0  0  0
    4.5140   68.7050   62.4080 C   0  0  0  0  0  0  0  0  0  0  0  0
    5.2960   69.2410   63.4320 C   0  0  0  0  0  0  0  0  0  0  0  0
    0.6542   63.7849   69.7297 H   0  0  0  0  0  0  0  0  0  0  0  0
    0.6247   64.1075   71.5260 H   0  0  0  0  0  0  0  0  0  0  0  0
    2.9419   65.2755   70.1366 H   0  0  0  0  0  0  0  0  0  0  0  0
    2.8238   64.2899   71.6604 H   0  0  0  0  0  0  0  0  0  0  0  0
    2.7903   63.1990   68.8167 H   0  0  0  0  0  0  0  0  0  0  0  0
    4.1832   63.1604   69.9860 H   0  0  0  0  0  0  0  0  0  0  0  0
    1.7524   61.4812   70.0360 H   0  0  0  0  0  0  0  0  0  0  0  0
   -1.4608   57.5283   75.2075 H   0  0  0  0  0  0  0  0  0  0  0  0
   -0.4470   59.6878   74.4847 H   0  0  0  0  0  0  0  0  0  0  0  0
    1.3242   55.3567   72.7166 H   0  0  0  0  0  0  0  0  0  0  0  0
    1.2735   60.9347   73.1067 H   0  0  0  0  0  0  0  0  0  0  0  0
    0.0805   53.4924   75.2707 H   0  0  0  0  0  0  0  0  0  0  0  0
   -0.8177   53.2782   73.7299 H   0  0  0  0  0  0  0  0  0  0  0  0
    0.7851   54.0892   73.7299 H   0  0  0  0  0  0  0  0  0  0  0  0
   -0.4797   65.7748   69.7463 H   0  0  0  0  0  0  0  0  0  0  0  0
    0.3296   66.3214   71.2875 H   0  0  0  0  0  0  0  0  0  0  0  0
    1.9492   67.4042   70.2058 H   0  0  0  0  0  0  0  0  0  0  0  0
    2.1291   66.0622   68.9825 H   0  0  0  0  0  0  0  0  0  0  0  0
   -0.2712   67.1673   68.2654 H   0  0  0  0  0  0  0  0  0  0  0  0
    0.6934   68.6140   68.8225 H   0  0  0  0  0  0  0  0  0  0  0  0
    2.4657   67.1454   67.2230 H   0  0  0  0  0  0  0  0  0  0  0  0
    0.9081   67.0802   66.3410 H   0  0  0  0  0  0  0  0  0  0  0  0
    0.8983   69.7237   66.6942 H   0  0  0  0  0  0  0  0  0  0  0  0
    2.4280   70.4987   68.7231 H   0  0  0  0  0  0  0  0  0  0  0  0
    3.4471   69.0509   69.1873 H   0  0  0  0  0  0  0  0  0  0  0  0
    4.2107   71.9867   69.2523 H   0  0  0  0  0  0  0  0  0  0  0  0
    4.1281   70.8037   70.6118 H   0  0  0  0  0  0  0  0  0  0  0  0
    6.4643   71.1795   69.9362 H   0  0  0  0  0  0  0  0  0  0  0  0
    5.9570   69.4942   69.5646 H   0  0  0  0  0  0  0  0  0  0  0  0
    6.2196   71.8497   67.6475 H   0  0  0  0  0  0  0  0  0  0  0  0
    7.1370   70.2724   67.6644 H   0  0  0  0  0  0  0  0  0  0  0  0
    1.6353   68.2548   64.1504 H   0  0  0  0  0  0  0  0  0  0  0  0
    2.5707   67.9295   61.8691 H   0  0  0  0  0  0  0  0  0  0  0  0
    4.9380   68.5637   61.4029 H   0  0  0  0  0  0  0  0  0  0  0  0
    6.3382   69.5188   63.2160 H   0  0  0  0  0  0  0  0  0  0  0  0
  2  1  1  0
  3  2  1  0
  5  4  2  0
  6  3  1  0
  6  4  1  0
  8  7  2  0
  9  8  1  0
 10  9  2  0
 11 10  1  0
 12 11  2  0
 12  7  1  0
 13 11  1  0
 14 13  1  0
 15 14  2  0
 16 14  1  0
 16  4  1  0
 17 10  1  0
 17 16  2  0
 19 18  1  0
 19  7  1  0
 20  1  1  0
 21 20  1  0
 22 21  1  0
 23 22  1  0
 24 23  1  0
 25 24  1  0
 26 25  1  0
 27 26  1  0
 28 27  1  0
 29 28  1  0
 30 29  1  0
 31 30  1  0
 31 26  2  0
 32 31  1  0
 33 32  2  0
 34 33  1  0
 34 25  2  0
 35 34  1  0
 36 35  2  0
 37 36  1  0
 38 33  1  0
 38 37  2  0
  1 39  1  0
  1 40  1  0
  2 41  1  0
  2 42  1  0
  3 43  1  0
  3 44  1  0
  6 45  1  0
  8 46  1  0
  9 47  1  0
 12 48  1  0
 17 49  1  0
 18 50  1  0
 18 51  1  0
 18 52  1  0
 20 53  1  0
 20 54  1  0
 21 55  1  0
 21 56  1  0
 22 57  1  0
 22 58  1  0
 23 59  1  0
 23 60  1  0
 24 61  1  0
 27 62  1  0
 27 63  1  0
 28 64  1  0
 28 65  1  0
 29 66  1  0
 29 67  1  0
 30 68  1  0
 30 69  1  0
 35 70  1  0
 36 71  1  0
 37 72  1  0
 38 73  1  0
M  END
>  <score>  (2) 
-11.983

$$$$
=
     RDKit          3D

 73 77  0  0  0  0  0  0  0  0999 V2000
    4.1420   63.4590   64.8170 C   0  0  0  0  0  0  0  0  0  0  0  0
    3.6950   63.9880   66.1840 C   0  0  0  0  0  0  0  0  0  0  0  0
    4.1190   63.0700   67.3300 C   0  0  0  0  0  0  0  0  0  0  0  0
    3.2900   62.8720   69.6520 C   0  0  0  0  0  0  0  0  0  0  0  0
    4.3950   63.1110   70.1350 O   0  0  0  0  0  0  0  0  0  0  0  0
    3.0630   62.8690   68.2990 N   0  0  0  0  0  0  0  0  0  0  0  0
   -1.0980   60.3550   73.7520 C   0  0  0  0  0  0  0  0  0  0  0  0
    0.0200   59.5170   73.6630 C   0  0  0  0  0  0  0  0  0  0  0  0
    1.1030   59.8460   72.8400 C   0  0  0  0  0  0  0  0  0  0  0  0
    1.0740   61.0240   72.0950 C   0  0  0  0  0  0  0  0  0  0  0  0
   -0.0420   61.8470   72.1920 C   0  0  0  0  0  0  0  0  0  0  0  0
   -1.1290   61.5330   73.0090 C   0  0  0  0  0  0  0  0  0  0  0  0
   -0.1100   63.0430   71.4550 O   0  0  0  0  0  0  0  0  0  0  0  0
    0.9220   63.4420   70.6110 C   0  0  0  0  0  0  0  0  0  0  0  0
    0.8350   64.4880   69.9710 O   0  0  0  0  0  0  0  0  0  0  0  0
    2.1090   62.5620   70.5190 C   0  0  0  0  0  0  0  0  0  0  0  0
    2.1670   61.4190   71.2240 C   0  0  0  0  0  0  0  0  0  0  0  0
   -2.7980   60.8950   75.3250 C   0  0  0  0  0  0  0  0  0  0  0  0
   -2.0790   59.9090   74.5940 O   0  0  0  0  0  0  0  0  0  0  0  0
    4.7970   64.5310   63.9390 C   0  0  0  0  0  0  0  0  0  0  0  0
    3.9090   65.7590   63.7230 C   0  0  0  0  0  0  0  0  0  0  0  0
    4.6740   66.9710   63.1840 C   0  0  0  0  0  0  0  0  0  0  0  0
    5.2000   67.8950   64.2850 C   0  0  0  0  0  0  0  0  0  0  0  0
    4.3330   69.0800   64.3610 N   0  0  0  0  0  0  0  0  0  0  0  0
    3.8420   69.2840   65.6870 C   0  0  0  0  0  0  0  0  0  0  0  0
    2.4870   69.0010   65.9520 C   0  0  0  0  0  0  0  0  0  0  0  0
    1.6050   68.3560   64.9080 C   0  0  0  0  0  0  0  0  0  0  0  0
    0.1150   68.3930   65.2460 C   0  0  0  0  0  0  0  0  0  0  0  0
   -0.1140   67.9850   66.6950 C   0  0  0  0  0  0  0  0  0  0  0  0
    0.5830   68.9710   67.6240 C   0  0  0  0  0  0  0  0  0  0  0  0
    2.0160   69.2380   67.2440 C   0  0  0  0  0  0  0  0  0  0  0  0
    2.7850   69.7630   68.2270 N   0  0  0  0  0  0  0  0  0  0  0  0
    4.0680   70.0480   67.9690 C   0  0  0  0  0  0  0  0  0  0  0  0
    4.6660   69.8350   66.7100 C   0  0  0  0  0  0  0  0  0  0  0  0
    6.0340   70.1780   66.5490 C   0  0  0  0  0  0  0  0  0  0  0  0
    6.7800   70.7130   67.5990 C   0  0  0  0  0  0  0  0  0  0  0  0
    6.1760   70.9150   68.8300 C   0  0  0  0  0  0  0  0  0  0  0  0
    4.8310   70.5820   69.0000 C   0  0  0  0  0  0  0  0  0  0  0  0
    4.8667   62.6470   64.9764 H   0  0  0  0  0  0  0  0  0  0  0  0
    3.2408   63.1114   64.2906 H   0  0  0  0  0  0  0  0  0  0  0  0
    4.1421   64.9805   66.3423 H   0  0  0  0  0  0  0  0  0  0  0  0
    2.5961   64.0371   66.1821 H   0  0  0  0  0  0  0  0  0  0  0  0
    4.4050   62.0934   66.9123 H   0  0  0  0  0  0  0  0  0  0  0  0
    4.9616   63.5505   67.8488 H   0  0  0  0  0  0  0  0  0  0  0  0
    2.1025   62.7176   67.9592 H   0  0  0  0  0  0  0  0  0  0  0  0
    0.0476   58.5862   74.2486 H   0  0  0  0  0  0  0  0  0  0  0  0
    1.9744   59.1772   72.7811 H   0  0  0  0  0  0  0  0  0  0  0  0
   -1.9975   62.2058   73.0654 H   0  0  0  0  0  0  0  0  0  0  0  0
    3.0542   60.7742   71.1401 H   0  0  0  0  0  0  0  0  0  0  0  0
   -2.6693   60.7185   76.4031 H   0  0  0  0  0  0  0  0  0  0  0  0
   -2.4146   61.8936   75.0686 H   0  0  0  0  0  0  0  0  0  0  0  0
   -3.8660   60.8353   75.0686 H   0  0  0  0  0  0  0  0  0  0  0  0
    5.7308   64.8554   64.4214 H   0  0  0  0  0  0  0  0  0  0  0  0
    4.9768   64.0800   62.9519 H   0  0  0  0  0  0  0  0  0  0  0  0
    3.1189   65.4966   63.0041 H   0  0  0  0  0  0  0  0  0  0  0  0
    3.4990   66.0417   64.7038 H   0  0  0  0  0  0  0  0  0  0  0  0
    5.5290   66.6097   62.5937 H   0  0  0  0  0  0  0  0  0  0  0  0
    3.9685   67.5572   62.5769 H   0  0  0  0  0  0  0  0  0  0  0  0
    5.1885   67.3656   65.2492 H   0  0  0  0  0  0  0  0  0  0  0  0
    6.2319   68.2000   64.0566 H   0  0  0  0  0  0  0  0  0  0  0  0
    4.1080   69.6865   63.5595 H   0  0  0  0  0  0  0  0  0  0  0  0
    1.7567   68.8820   63.9539 H   0  0  0  0  0  0  0  0  0  0  0  0
    1.8942   67.2959   64.8571 H   0  0  0  0  0  0  0  0  0  0  0  0
   -0.2656   69.4137   65.0930 H   0  0  0  0  0  0  0  0  0  0  0  0
   -0.4160   67.6876   64.5899 H   0  0  0  0  0  0  0  0  0  0  0  0
   -1.1932   67.9829   66.9078 H   0  0  0  0  0  0  0  0  0  0  0  0
    0.2975   66.9781   66.8586 H   0  0  0  0  0  0  0  0  0  0  0  0
    0.0322   69.9229   67.5993 H   0  0  0  0  0  0  0  0  0  0  0  0
    0.5908   68.5221   68.6282 H   0  0  0  0  0  0  0  0  0  0  0  0
    6.5168   70.0182   65.5736 H   0  0  0  0  0  0  0  0  0  0  0  0
    7.8387   70.9724   67.4514 H   0  0  0  0  0  0  0  0  0  0  0  0
    6.7526   71.3349   69.6674 H   0  0  0  0  0  0  0  0  0  0  0  0
    4.3607   70.7475   69.9805 H   0  0  0  0  0  0  0  0  0  0  0  0
  2  1  1  0
  3  2  1  0
  5  4  2  0
  6  3  1  0
  6  4  1  0
  8  7  2  0
  9  8  1  0
 10  9  2  0
 11 10  1  0
 12 11  2  0
 12  7  1  0
 13 11  1  0
 14 13  1  0
 15 14  2  0
 16 14  1  0
 16  4  1  0
 17 10  1  0
 17 16  2  0
 19 18  1  0
 19  7  1  0
 20  1  1  0
 21 20  1  0
 22 21  1  0
 23 22  1  0
 24 23  1  0
 25 24  1  0
 26 25  1  0
 27 26  1  0
 28 27  1  0
 29 28  1  0
 30 29  1  0
 31 30  1  0
 31 26  2  0
 32 31  1  0
 33 32  2  0
 34 33  1  0
 34 25  2  0
 35 34  1  0
 36 35  2  0
 37 36  1  0
 38 33  1  0
 38 37  2  0
  1 39  1  0
  1 40  1  0
  2 41  1  0
  2 42  1  0
  3 43  1  0
  3 44  1  0
  6 45  1  0
  8 46  1  0
  9 47  1  0
 12 48  1  0
 17 49  1  0
 18 50  1  0
 18 51  1  0
 18 52  1  0
 20 53  1  0
 20 54  1  0
 21 55  1  0
 21 56  1  0
 22 57  1  0
 22 58  1  0
 23 59  1  0
 23 60  1  0
 24 61  1  0
 27 62  1  0
 27 63  1  0
 28 64  1  0
 28 65  1  0
 29 66  1  0
 29 67  1  0
 30 68  1  0
 30 69  1  0
 35 70  1  0
 36 71  1  0
 37 72  1  0
 38 73  1  0
M  END
>  <score>  (3) 
-11.743

$$$$
=
     RDKit          3D

 73 77  0  0  0  0  0  0  0  0999 V2000
    4.6550   63.6690   64.8680 C   0  0  0  0  0  0  0  0  0  0  0  0
    3.6320   63.7760   66.0030 C   0  0  0  0  0  0  0  0  0  0  0  0
    4.1510   63.1820   67.3120 C   0  0  0  0  0  0  0  0  0  0  0  0
    3.3400   62.9100   69.6330 C   0  0  0  0  0  0  0  0  0  0  0  0
    4.4580   63.0830   70.1120 O   0  0  0  0  0  0  0  0  0  0  0  0
    3.0980   62.9780   68.2840 N   0  0  0  0  0  0  0  0  0  0  0  0
   -1.0550   60.4330   73.7510 C   0  0  0  0  0  0  0  0  0  0  0  0
    0.0660   59.5980   73.6770 C   0  0  0  0  0  0  0  0  0  0  0  0
    1.1510   59.9190   72.8530 C   0  0  0  0  0  0  0  0  0  0  0  0
    1.1200   61.0870   72.0920 C   0  0  0  0  0  0  0  0  0  0  0  0
    0.0020   61.9080   72.1740 C   0  0  0  0  0  0  0  0  0  0  0  0
   -1.0870   61.6010   72.9910 C   0  0  0  0  0  0  0  0  0  0  0  0
   -0.0670   63.0940   71.4210 O   0  0  0  0  0  0  0  0  0  0  0  0
    0.9660   63.4850   70.5750 C   0  0  0  0  0  0  0  0  0  0  0  0
    0.8780   64.5210   69.9210 O   0  0  0  0  0  0  0  0  0  0  0  0
    2.1560   62.6070   70.4990 C   0  0  0  0  0  0  0  0  0  0  0  0
    2.2150   61.4750   71.2200 C   0  0  0  0  0  0  0  0  0  0  0  0
   -3.3400   60.5350   74.4030 C   0  0  0  0  0  0  0  0  0  0  0  0
   -2.0380   59.9950   74.5940 O   0  0  0  0  0  0  0  0  0  0  0  0
    4.2790   64.4960   63.6340 C   0  0  0  0  0  0  0  0  0  0  0  0
    3.5730   65.8100   63.9810 C   0  0  0  0  0  0  0  0  0  0  0  0
    4.2350   67.0370   63.3460 C   0  0  0  0  0  0  0  0  0  0  0  0
    5.0440   67.8720   64.3410 C   0  0  0  0  0  0  0  0  0  0  0  0
    4.4340   69.2060   64.4440 N   0  0  0  0  0  0  0  0  0  0  0  0
    3.8670   69.4230   65.7360 C   0  0  0  0  0  0  0  0  0  0  0  0
    4.7070   69.8880   66.7680 C   0  0  0  0  0  0  0  0  0  0  0  0
    6.1360   70.2930   66.4900 C   0  0  0  0  0  0  0  0  0  0  0  0
    6.9830   70.4850   67.7480 C   0  0  0  0  0  0  0  0  0  0  0  0
    6.2220   71.2970   68.7850 C   0  0  0  0  0  0  0  0  0  0  0  0
    4.9600   70.5510   69.2010 C   0  0  0  0  0  0  0  0  0  0  0  0
    4.1440   70.0620   68.0330 C   0  0  0  0  0  0  0  0  0  0  0  0
    2.8540   69.7650   68.3170 N   0  0  0  0  0  0  0  0  0  0  0  0
    2.0610   69.3060   67.3390 C   0  0  0  0  0  0  0  0  0  0  0  0
    2.5070   69.1070   66.0170 C   0  0  0  0  0  0  0  0  0  0  0  0
    1.5800   68.6120   65.0620 C   0  0  0  0  0  0  0  0  0  0  0  0
    0.2590   68.3260   65.4090 C   0  0  0  0  0  0  0  0  0  0  0  0
   -0.1620   68.5280   66.7140 C   0  0  0  0  0  0  0  0  0  0  0  0
    0.7420   69.0140   67.6610 C   0  0  0  0  0  0  0  0  0  0  0  0
    5.6283   64.0207   65.2408 H   0  0  0  0  0  0  0  0  0  0  0  0
    4.6872   62.6145   64.5564 H   0  0  0  0  0  0  0  0  0  0  0  0
    3.3949   64.8377   66.1662 H   0  0  0  0  0  0  0  0  0  0  0  0
    2.7399   63.2053   65.7058 H   0  0  0  0  0  0  0  0  0  0  0  0
    4.6246   62.2129   67.0963 H   0  0  0  0  0  0  0  0  0  0  0  0
    4.8688   63.8962   67.7417 H   0  0  0  0  0  0  0  0  0  0  0  0
    2.1287   62.8800   67.9498 H   0  0  0  0  0  0  0  0  0  0  0  0
    0.0947   58.6755   74.2755 H   0  0  0  0  0  0  0  0  0  0  0  0
    2.0248   59.2524   72.8060 H   0  0  0  0  0  0  0  0  0  0  0  0
   -1.9582   62.2712   73.0346 H   0  0  0  0  0  0  0  0  0  0  0  0
    3.1052   60.8328   71.1490 H   0  0  0  0  0  0  0  0  0  0  0  0
   -3.8043   60.7275   75.3815 H   0  0  0  0  0  0  0  0  0  0  0  0
   -3.2672   61.4771   73.8399 H   0  0  0  0  0  0  0  0  0  0  0  0
   -3.9554   59.8179   73.8399 H   0  0  0  0  0  0  0  0  0  0  0  0
    5.1979   64.7295   63.0763 H   0  0  0  0  0  0  0  0  0  0  0  0
    3.5762   63.8944   63.0389 H   0  0  0  0  0  0  0  0  0  0  0  0
    2.5329   65.7519   63.6277 H   0  0  0  0  0  0  0  0  0  0  0  0
    3.6325   65.9347   65.0723 H   0  0  0  0  0  0  0  0  0  0  0  0
    4.9098   66.6954   62.5473 H   0  0  0  0  0  0  0  0  0  0  0  0
    3.4290   67.6794   62.9616 H   0  0  0  0  0  0  0  0  0  0  0  0
    5.0351   67.3840   65.3268 H   0  0  0  0  0  0  0  0  0  0  0  0
    6.0845   67.9618   63.9955 H   0  0  0  0  0  0  0  0  0  0  0  0
    4.4179   69.8968   63.6802 H   0  0  0  0  0  0  0  0  0  0  0  0
    6.6037   69.5109   65.8740 H   0  0  0  0  0  0  0  0  0  0  0  0
    6.0977   71.2669   65.9801 H   0  0  0  0  0  0  0  0  0  0  0  0
    7.2315   69.5003   68.1707 H   0  0  0  0  0  0  0  0  0  0  0  0
    7.9024   71.0254   67.4783 H   0  0  0  0  0  0  0  0  0  0  0  0
    6.8609   71.4537   69.6667 H   0  0  0  0  0  0  0  0  0  0  0  0
    5.9430   72.2688   68.3517 H   0  0  0  0  0  0  0  0  0  0  0  0
    5.2524   69.6831   69.8103 H   0  0  0  0  0  0  0  0  0  0  0  0
    4.3331   71.2595   69.7623 H   0  0  0  0  0  0  0  0  0  0  0  0
    1.9106   68.4504   64.0254 H   0  0  0  0  0  0  0  0  0  0  0  0
   -0.4425   67.9434   64.6530 H   0  0  0  0  0  0  0  0  0  0  0  0
   -1.2005   68.3071   67.0016 H   0  0  0  0  0  0  0  0  0  0  0  0
    0.3986   69.1704   68.6943 H   0  0  0  0  0  0  0  0  0  0  0  0
  2  1  1  0
  3  2  1  0
  5  4  2  0
  6  3  1  0
  6  4  1  0
  8  7  2  0
  9  8  1  0
 10  9  2  0
 11 10  1  0
 12 11  2  0
 12  7  1  0
 13 11  1  0
 14 13  1  0
 15 14  2  0
 16 14  1  0
 16  4  1  0
 17 10  1  0
 17 16  2  0
 19 18  1  0
 19  7  1  0
 20  1  1  0
 21 20  1  0
 22 21  1  0
 23 22  1  0
 24 23  1  0
 25 24  1  0
 26 25  1  0
 27 26  1  0
 28 27  1  0
 29 28  1  0
 30 29  1  0
 31 30  1  0
 31 26  2  0
 32 31  1  0
 33 32  2  0
 34 33  1  0
 34 25  2  0
 35 34  1  0
 36 35  2  0
 37 36  1  0
 38 33  1  0
 38 37  2  0
  1 39  1  0
  1 40  1  0
  2 41  1  0
  2 42  1  0
  3 43  1  0
  3 44  1  0
  6 45  1  0
  8 46  1  0
  9 47  1  0
 12 48  1  0
 17 49  1  0
 18 50  1  0
 18 51  1  0
 18 52  1  0
 20 53  1  0
 20 54  1  0
 21 55  1  0
 21 56  1  0
 22 57  1  0
 22 58  1  0
 23 59  1  0
 23 60  1  0
 24 61  1  0
 27 62  1  0
 27 63  1  0
 28 64  1  0
 28 65  1  0
 29 66  1  0
 29 67  1  0
 30 68  1  0
 30 69  1  0
 35 70  1  0
 36 71  1  0
 37 72  1  0
 38 73  1  0
M  END
>  <score>  (4) 
-11.612

$$$$
=
     RDKit          3D

 73 77  0  0  0  0  0  0  0  0999 V2000
    3.4890   64.2960   64.6500 C   0  0  0  0  0  0  0  0  0  0  0  0
    3.9970   63.2710   65.6690 C   0  0  0  0  0  0  0  0  0  0  0  0
    3.7340   63.7040   67.1110 C   0  0  0  0  0  0  0  0  0  0  0  0
    3.2900   62.7190   69.3360 C   0  0  0  0  0  0  0  0  0  0  0  0
    3.3630   63.8070   69.9030 O   0  0  0  0  0  0  0  0  0  0  0  0
    3.4220   62.5870   67.9770 N   0  0  0  0  0  0  0  0  0  0  0  0
    1.3420   58.0190   73.4010 C   0  0  0  0  0  0  0  0  0  0  0  0
    0.6790   59.2170   73.6900 C   0  0  0  0  0  0  0  0  0  0  0  0
    0.9310   60.3770   72.9490 C   0  0  0  0  0  0  0  0  0  0  0  0
    1.8550   60.3450   71.9060 C   0  0  0  0  0  0  0  0  0  0  0  0
    2.5070   59.1500   71.6280 C   0  0  0  0  0  0  0  0  0  0  0  0
    2.2660   57.9850   72.3580 C   0  0  0  0  0  0  0  0  0  0  0  0
    3.4480   59.0780   70.5840 O   0  0  0  0  0  0  0  0  0  0  0  0
    3.7580   60.1850   69.8020 C   0  0  0  0  0  0  0  0  0  0  0  0
    4.5900   60.0990   68.9010 O   0  0  0  0  0  0  0  0  0  0  0  0
    3.0540   61.4530   70.1010 C   0  0  0  0  0  0  0  0  0  0  0  0
    2.1580   61.5160   71.1010 C   0  0  0  0  0  0  0  0  0  0  0  0
   -0.1360   56.2020   73.8150 C   0  0  0  0  0  0  0  0  0  0  0  0
    0.9980   56.9680   74.2040 O   0  0  0  0  0  0  0  0  0  0  0  0
    4.5250   65.3700   64.3040 C   0  0  0  0  0  0  0  0  0  0  0  0
    4.2250   66.0960   62.9890 C   0  0  0  0  0  0  0  0  0  0  0  0
    4.7940   67.5170   62.9390 C   0  0  0  0  0  0  0  0  0  0  0  0
    5.2430   68.0380   64.3060 C   0  0  0  0  0  0  0  0  0  0  0  0
    4.6450   69.3630   64.5250 N   0  0  0  0  0  0  0  0  0  0  0  0
    4.0620   69.4640   65.8250 C   0  0  0  0  0  0  0  0  0  0  0  0
    2.6990   69.1350   65.9770 C   0  0  0  0  0  0  0  0  0  0  0  0
    1.9060   68.5450   64.8340 C   0  0  0  0  0  0  0  0  0  0  0  0
    0.3960   68.5260   65.0710 C   0  0  0  0  0  0  0  0  0  0  0  0
    0.0820   68.0140   66.4690 C   0  0  0  0  0  0  0  0  0  0  0  0
    0.6890   68.9470   67.5090 C   0  0  0  0  0  0  0  0  0  0  0  0
    2.1370   69.2710   67.2460 C   0  0  0  0  0  0  0  0  0  0  0  0
    2.8240   69.7430   68.3130 N   0  0  0  0  0  0  0  0  0  0  0  0
    4.1140   70.0730   68.1640 C   0  0  0  0  0  0  0  0  0  0  0  0
    4.8000   69.9610   66.9370 C   0  0  0  0  0  0  0  0  0  0  0  0
    6.1660   70.3430   66.8940 C   0  0  0  0  0  0  0  0  0  0  0  0
    6.8270   70.8200   68.0260 C   0  0  0  0  0  0  0  0  0  0  0  0
    6.1360   70.9230   69.2240 C   0  0  0  0  0  0  0  0  0  0  0  0
    4.7930   70.5500   69.2780 C   0  0  0  0  0  0  0  0  0  0  0  0
    3.2152   63.7645   63.7267 H   0  0  0  0  0  0  0  0  0  0  0  0
    2.6277   64.8079   65.1040 H   0  0  0  0  0  0  0  0  0  0  0  0
    3.4883   62.3124   65.4896 H   0  0  0  0  0  0  0  0  0  0  0  0
    5.0855   63.1799   65.5392 H   0  0  0  0  0  0  0  0  0  0  0  0
    4.6316   64.2095   67.4968 H   0  0  0  0  0  0  0  0  0  0  0  0
    2.8628   64.3756   67.1047 H   0  0  0  0  0  0  0  0  0  0  0  0
    3.2940   61.6557   67.5560 H   0  0  0  0  0  0  0  0  0  0  0  0
   -0.0513   59.2473   74.5121 H   0  0  0  0  0  0  0  0  0  0  0  0
    0.4016   61.3109   73.1889 H   0  0  0  0  0  0  0  0  0  0  0  0
    2.7976   57.0535   72.1137 H   0  0  0  0  0  0  0  0  0  0  0  0
    1.6473   62.4669   71.3128 H   0  0  0  0  0  0  0  0  0  0  0  0
   -0.6632   55.8459   74.7123 H   0  0  0  0  0  0  0  0  0  0  0  0
   -0.8135   56.8282   73.2160 H   0  0  0  0  0  0  0  0  0  0  0  0
    0.1920   55.3397   73.2160 H   0  0  0  0  0  0  0  0  0  0  0  0
    4.5445   66.1115   65.1162 H   0  0  0  0  0  0  0  0  0  0  0  0
    5.4939   64.8632   64.1840 H   0  0  0  0  0  0  0  0  0  0  0  0
    4.6610   65.5159   62.1624 H   0  0  0  0  0  0  0  0  0  0  0  0
    3.1314   66.1794   62.9046 H   0  0  0  0  0  0  0  0  0  0  0  0
    5.6606   67.5224   62.2615 H   0  0  0  0  0  0  0  0  0  0  0  0
    3.9884   68.1782   62.5870 H   0  0  0  0  0  0  0  0  0  0  0  0
    4.9091   67.3465   65.0936 H   0  0  0  0  0  0  0  0  0  0  0  0
    6.3401   68.1122   64.3370 H   0  0  0  0  0  0  0  0  0  0  0  0
    4.6463   70.1223   63.8291 H   0  0  0  0  0  0  0  0  0  0  0  0
    2.1071   69.1390   63.9303 H   0  0  0  0  0  0  0  0  0  0  0  0
    2.2258   67.4975   64.7314 H   0  0  0  0  0  0  0  0  0  0  0  0
   -0.0004   69.5463   64.9617 H   0  0  0  0  0  0  0  0  0  0  0  0
   -0.0712   67.8565   64.3338 H   0  0  0  0  0  0  0  0  0  0  0  0
   -1.0086   67.9739   66.6067 H   0  0  0  0  0  0  0  0  0  0  0  0
    0.5085   67.0074   66.5913 H   0  0  0  0  0  0  0  0  0  0  0  0
    0.1161   69.8860   67.5124 H   0  0  0  0  0  0  0  0  0  0  0  0
    0.6418   68.4293   68.4784 H   0  0  0  0  0  0  0  0  0  0  0  0
    6.7168   70.2610   65.9454 H   0  0  0  0  0  0  0  0  0  0  0  0
    7.8861   71.1116   67.9690 H   0  0  0  0  0  0  0  0  0  0  0  0
    6.6436   71.2964   70.1256 H   0  0  0  0  0  0  0  0  0  0  0  0
    4.2544   70.6363   70.2332 H   0  0  0  0  0  0  0  0  0  0  0  0
  2  1  1  0
  3  2  1  0
  5  4  2  0
  6  3  1  0
  6  4  1  0
  8  7  2  0
  9  8  1  0
 10  9  2  0
 11 10  1  0
 12 11  2  0
 12  7  1  0
 13 11  1  0
 14 13  1  0
 15 14  2  0
 16 14  1  0
 16  4  1  0
 17 10  1  0
 17 16  2  0
 19 18  1  0
 19  7  1  0
 20  1  1  0
 21 20  1  0
 22 21  1  0
 23 22  1  0
 24 23  1  0
 25 24  1  0
 26 25  1  0
 27 26  1  0
 28 27  1  0
 29 28  1  0
 30 29  1  0
 31 30  1  0
 31 26  2  0
 32 31  1  0
 33 32  2  0
 34 33  1  0
 34 25  2  0
 35 34  1  0
 36 35  2  0
 37 36  1  0
 38 33  1  0
 38 37  2  0
  1 39  1  0
  1 40  1  0
  2 41  1  0
  2 42  1  0
  3 43  1  0
  3 44  1  0
  6 45  1  0
  8 46  1  0
  9 47  1  0
 12 48  1  0
 17 49  1  0
 18 50  1  0
 18 51  1  0
 18 52  1  0
 20 53  1  0
 20 54  1  0
 21 55  1  0
 21 56  1  0
 22 57  1  0
 22 58  1  0
 23 59  1  0
 23 60  1  0
 24 61  1  0
 27 62  1  0
 27 63  1  0
 28 64  1  0
 28 65  1  0
 29 66  1  0
 29 67  1  0
 30 68  1  0
 30 69  1  0
 35 70  1  0
 36 71  1  0
 37 72  1  0
 38 73  1  0
M  END
>  <score>  (5) 
-11.552

$$$$
=
     RDKit          3D

 73 77  0  0  0  0  0  0  0  0999 V2000
    3.4010   63.7950   64.8970 C   0  0  0  0  0  0  0  0  0  0  0  0
    4.2220   63.3360   66.1060 C   0  0  0  0  0  0  0  0  0  0  0  0
    3.5650   63.7110   67.4340 C   0  0  0  0  0  0  0  0  0  0  0  0
    3.2120   62.6220   69.6260 C   0  0  0  0  0  0  0  0  0  0  0  0
    3.3240   63.6800   70.2420 O   0  0  0  0  0  0  0  0  0  0  0  0
    3.2800   62.5560   68.2580 N   0  0  0  0  0  0  0  0  0  0  0  0
    1.2810   57.7090   73.4390 C   0  0  0  0  0  0  0  0  0  0  0  0
    0.5510   58.8670   73.7310 C   0  0  0  0  0  0  0  0  0  0  0  0
    0.7860   60.0610   73.0400 C   0  0  0  0  0  0  0  0  0  0  0  0
    1.7610   60.1040   72.0450 C   0  0  0  0  0  0  0  0  0  0  0  0
    2.4800   58.9490   71.7640 C   0  0  0  0  0  0  0  0  0  0  0  0
    2.2570   57.7500   72.4440 C   0  0  0  0  0  0  0  0  0  0  0  0
    3.4730   58.9520   70.7680 O   0  0  0  0  0  0  0  0  0  0  0  0
    3.7710   60.0980   70.0370 C   0  0  0  0  0  0  0  0  0  0  0  0
    4.6490   60.0780   69.1770 O   0  0  0  0  0  0  0  0  0  0  0  0
    2.9960   61.3230   70.3390 C   0  0  0  0  0  0  0  0  0  0  0  0
    2.0500   61.3130   71.2930 C   0  0  0  0  0  0  0  0  0  0  0  0
    2.0170   55.8640   74.7470 C   0  0  0  0  0  0  0  0  0  0  0  0
    0.9460   56.6180   74.1910 O   0  0  0  0  0  0  0  0  0  0  0  0
    3.4930   65.3040   64.6410 C   0  0  0  0  0  0  0  0  0  0  0  0
    4.2330   65.6520   63.3470 C   0  0  0  0  0  0  0  0  0  0  0  0
    4.3870   67.1590   63.1260 C   0  0  0  0  0  0  0  0  0  0  0  0
    5.0530   67.8800   64.3000 C   0  0  0  0  0  0  0  0  0  0  0  0
    4.4610   69.2200   64.4280 N   0  0  0  0  0  0  0  0  0  0  0  0
    3.9010   69.4220   65.7260 C   0  0  0  0  0  0  0  0  0  0  0  0
    4.7420   69.8950   66.7540 C   0  0  0  0  0  0  0  0  0  0  0  0
    6.1620   70.3260   66.4660 C   0  0  0  0  0  0  0  0  0  0  0  0
    7.0150   70.5250   67.7180 C   0  0  0  0  0  0  0  0  0  0  0  0
    6.2490   71.3210   68.7650 C   0  0  0  0  0  0  0  0  0  0  0  0
    5.0040   70.5510   69.1880 C   0  0  0  0  0  0  0  0  0  0  0  0
    4.1870   70.0550   68.0240 C   0  0  0  0  0  0  0  0  0  0  0  0
    2.9040   69.7350   68.3170 N   0  0  0  0  0  0  0  0  0  0  0  0
    2.1100   69.2670   67.3430 C   0  0  0  0  0  0  0  0  0  0  0  0
    2.5490   69.0820   66.0160 C   0  0  0  0  0  0  0  0  0  0  0  0
    1.6220   68.5760   65.0670 C   0  0  0  0  0  0  0  0  0  0  0  0
    0.3090   68.2670   65.4230 C   0  0  0  0  0  0  0  0  0  0  0  0
   -0.1040   68.4560   66.7320 C   0  0  0  0  0  0  0  0  0  0  0  0
    0.7990   68.9520   67.6740 C   0  0  0  0  0  0  0  0  0  0  0  0
    3.7674   63.2662   64.0047 H   0  0  0  0  0  0  0  0  0  0  0  0
    2.3471   63.5638   65.1112 H   0  0  0  0  0  0  0  0  0  0  0  0
    4.3325   62.2424   66.0631 H   0  0  0  0  0  0  0  0  0  0  0  0
    5.1975   63.8423   66.0602 H   0  0  0  0  0  0  0  0  0  0  0  0
    4.2421   64.3795   67.9860 H   0  0  0  0  0  0  0  0  0  0  0  0
    2.6078   64.2026   67.2058 H   0  0  0  0  0  0  0  0  0  0  0  0
    3.1219   61.6479   67.7985 H   0  0  0  0  0  0  0  0  0  0  0  0
   -0.2193   58.8381   74.5157 H   0  0  0  0  0  0  0  0  0  0  0  0
    0.2034   60.9623   73.2813 H   0  0  0  0  0  0  0  0  0  0  0  0
    2.8423   56.8516   72.1985 H   0  0  0  0  0  0  0  0  0  0  0  0
    1.4865   62.2330   71.5077 H   0  0  0  0  0  0  0  0  0  0  0  0
    1.9616   55.9030   75.8449 H   0  0  0  0  0  0  0  0  0  0  0  0
    1.9416   54.8187   74.4130 H   0  0  0  0  0  0  0  0  0  0  0  0
    2.9757   56.2875   74.4130 H   0  0  0  0  0  0  0  0  0  0  0  0
    2.4729   65.7112   64.5808 H   0  0  0  0  0  0  0  0  0  0  0  0
    4.0644   65.7424   65.4724 H   0  0  0  0  0  0  0  0  0  0  0  0
    5.2352   65.2002   63.3852 H   0  0  0  0  0  0  0  0  0  0  0  0
    3.6338   65.2591   62.5124 H   0  0  0  0  0  0  0  0  0  0  0  0
    4.9990   67.3188   62.2261 H   0  0  0  0  0  0  0  0  0  0  0  0
    3.3750   67.5769   63.0199 H   0  0  0  0  0  0  0  0  0  0  0  0
    4.8855   67.3114   65.2266 H   0  0  0  0  0  0  0  0  0  0  0  0
    6.1354   67.9640   64.1227 H   0  0  0  0  0  0  0  0  0  0  0  0
    4.4515   69.9241   63.6763 H   0  0  0  0  0  0  0  0  0  0  0  0
    6.6379   69.5555   65.8417 H   0  0  0  0  0  0  0  0  0  0  0  0
    6.1033   71.3017   65.9615 H   0  0  0  0  0  0  0  0  0  0  0  0
    7.2816   69.5423   68.1342 H   0  0  0  0  0  0  0  0  0  0  0  0
    7.9240   71.0805   67.4441 H   0  0  0  0  0  0  0  0  0  0  0  0
    6.8924   71.4855   69.6419 H   0  0  0  0  0  0  0  0  0  0  0  0
    5.9500   72.2899   68.3385 H   0  0  0  0  0  0  0  0  0  0  0  0
    5.3167   69.6848   69.7896 H   0  0  0  0  0  0  0  0  0  0  0  0
    4.3699   71.2448   69.7594 H   0  0  0  0  0  0  0  0  0  0  0  0
    1.9466   68.4241   64.0270 H   0  0  0  0  0  0  0  0  0  0  0  0
   -0.3924   67.8766   64.6709 H   0  0  0  0  0  0  0  0  0  0  0  0
   -1.1364   68.2168   67.0269 H   0  0  0  0  0  0  0  0  0  0  0  0
    0.4613   69.0978   68.7107 H   0  0  0  0  0  0  0  0  0  0  0  0
  2  1  1  0
  3  2  1  0
  5  4  2  0
  6  3  1  0
  6  4  1  0
  8  7  2  0
  9  8  1  0
 10  9  2  0
 11 10  1  0
 12 11  2  0
 12  7  1  0
 13 11  1  0
 14 13  1  0
 15 14  2  0
 16 14  1  0
 16  4  1  0
 17 10  1  0
 17 16  2  0
 19 18  1  0
 19  7  1  0
 20  1  1  0
 21 20  1  0
 22 21  1  0
 23 22  1  0
 24 23  1  0
 25 24  1  0
 26 25  1  0
 27 26  1  0
 28 27  1  0
 29 28  1  0
 30 29  1  0
 31 30  1  0
 31 26  2  0
 32 31  1  0
 33 32  2  0
 34 33  1  0
 34 25  2  0
 35 34  1  0
 36 35  2  0
 37 36  1  0
 38 33  1  0
 38 37  2  0
  1 39  1  0
  1 40  1  0
  2 41  1  0
  2 42  1  0
  3 43  1  0
  3 44  1  0
  6 45  1  0
  8 46  1  0
  9 47  1  0
 12 48  1  0
 17 49  1  0
 18 50  1  0
 18 51  1  0
 18 52  1  0
 20 53  1  0
 20 54  1  0
 21 55  1  0
 21 56  1  0
 22 57  1  0
 22 58  1  0
 23 59  1  0
 23 60  1  0
 24 61  1  0
 27 62  1  0
 27 63  1  0
 28 64  1  0
 28 65  1  0
 29 66  1  0
 29 67  1  0
 30 68  1  0
 30 69  1  0
 35 70  1  0
 36 71  1  0
 37 72  1  0
 38 73  1  0
M  END
>  <score>  (6) 
-11.331

$$$$
=
     RDKit          3D

 73 77  0  0  0  0  0  0  0  0999 V2000
    4.1960   64.1750   65.7970 C   0  0  0  0  0  0  0  0  0  0  0  0
    3.7140   62.9750   66.6190 C   0  0  0  0  0  0  0  0  0  0  0  0
    4.0480   63.1150   68.1040 C   0  0  0  0  0  0  0  0  0  0  0  0
    2.9680   62.9440   70.3220 C   0  0  0  0  0  0  0  0  0  0  0  0
    3.9780   63.3220   70.9140 O   0  0  0  0  0  0  0  0  0  0  0  0
    2.9080   62.8510   68.9550 N   0  0  0  0  0  0  0  0  0  0  0  0
   -1.6470   60.1190   73.9440 C   0  0  0  0  0  0  0  0  0  0  0  0
   -0.4790   59.3480   73.9580 C   0  0  0  0  0  0  0  0  0  0  0  0
    0.6580   59.7500   73.2500 C   0  0  0  0  0  0  0  0  0  0  0  0
    0.6340   60.9360   72.5160 C   0  0  0  0  0  0  0  0  0  0  0  0
   -0.5320   61.6930   72.5100 C   0  0  0  0  0  0  0  0  0  0  0  0
   -1.6740   61.3040   73.2120 C   0  0  0  0  0  0  0  0  0  0  0  0
   -0.5970   62.8940   71.7810 O   0  0  0  0  0  0  0  0  0  0  0  0
    0.4880   63.3630   71.0470 C   0  0  0  0  0  0  0  0  0  0  0  0
    0.4040   64.4120   70.4110 O   0  0  0  0  0  0  0  0  0  0  0  0
    1.7280   62.5540   71.0650 C   0  0  0  0  0  0  0  0  0  0  0  0
    1.7830   61.4060   71.7620 C   0  0  0  0  0  0  0  0  0  0  0  0
   -2.4140   58.4230   75.4250 C   0  0  0  0  0  0  0  0  0  0  0  0
   -2.6790   59.6050   74.6800 O   0  0  0  0  0  0  0  0  0  0  0  0
    3.4160   64.3670   64.4920 C   0  0  0  0  0  0  0  0  0  0  0  0
    2.2820   65.3890   64.6120 C   0  0  0  0  0  0  0  0  0  0  0  0
    2.6040   66.5380   65.5720 C   0  0  0  0  0  0  0  0  0  0  0  0
    1.3650   67.3070   66.0350 C   0  0  0  0  0  0  0  0  0  0  0  0
    1.4770   68.7020   65.5810 N   0  0  0  0  0  0  0  0  0  0  0  0
    2.8410   69.1170   65.5040 C   0  0  0  0  0  0  0  0  0  0  0  0
    3.5140   68.9860   64.2720 C   0  0  0  0  0  0  0  0  0  0  0  0
    2.7790   68.5610   63.0220 C   0  0  0  0  0  0  0  0  0  0  0  0
    3.6980   68.1850   61.8600 C   0  0  0  0  0  0  0  0  0  0  0  0
    4.8020   69.2200   61.6970 C   0  0  0  0  0  0  0  0  0  0  0  0
    5.6610   69.2610   62.9550 C   0  0  0  0  0  0  0  0  0  0  0  0
    4.8550   69.3660   64.2230 C   0  0  0  0  0  0  0  0  0  0  0  0
    5.5400   69.8060   65.3050 N   0  0  0  0  0  0  0  0  0  0  0  0
    4.9050   69.9120   66.4800 C   0  0  0  0  0  0  0  0  0  0  0  0
    3.5460   69.5800   66.6520 C   0  0  0  0  0  0  0  0  0  0  0  0
    2.9760   69.7290   67.9440 C   0  0  0  0  0  0  0  0  0  0  0  0
    3.7280   70.1900   69.0240 C   0  0  0  0  0  0  0  0  0  0  0  0
    5.0630   70.5130   68.8360 C   0  0  0  0  0  0  0  0  0  0  0  0
    5.6340   70.3700   67.5700 C   0  0  0  0  0  0  0  0  0  0  0  0
    4.0852   65.0835   66.4071 H   0  0  0  0  0  0  0  0  0  0  0  0
    5.2447   63.9843   65.5253 H   0  0  0  0  0  0  0  0  0  0  0  0
    2.6231   62.8865   66.5089 H   0  0  0  0  0  0  0  0  0  0  0  0
    4.2307   62.0802   66.2416 H   0  0  0  0  0  0  0  0  0  0  0  0
    4.8478   62.4026   68.3545 H   0  0  0  0  0  0  0  0  0  0  0  0
    4.3629   64.1542   68.2795 H   0  0  0  0  0  0  0  0  0  0  0  0
    2.0155   62.5824   68.5165 H   0  0  0  0  0  0  0  0  0  0  0  0
   -0.4550   58.4116   74.5347 H   0  0  0  0  0  0  0  0  0  0  0  0
    1.5684   59.1330   73.2718 H   0  0  0  0  0  0  0  0  0  0  0  0
   -2.5822   61.9242   73.1876 H   0  0  0  0  0  0  0  0  0  0  0  0
    2.7105   60.8146   71.7614 H   0  0  0  0  0  0  0  0  0  0  0  0
   -2.4645   58.6484   76.5005 H   0  0  0  0  0  0  0  0  0  0  0  0
   -3.1626   57.6567   75.1754 H   0  0  0  0  0  0  0  0  0  0  0  0
   -1.4099   58.0496   75.1754 H   0  0  0  0  0  0  0  0  0  0  0  0
    4.1145   64.7095   63.7143 H   0  0  0  0  0  0  0  0  0  0  0  0
    2.9585   63.3991   64.2391 H   0  0  0  0  0  0  0  0  0  0  0  0
    2.0848   65.8110   63.6155 H   0  0  0  0  0  0  0  0  0  0  0  0
    1.4069   64.8600   65.0174 H   0  0  0  0  0  0  0  0  0  0  0  0
    3.1076   66.1223   66.4572 H   0  0  0  0  0  0  0  0  0  0  0  0
    3.2425   67.2483   65.0264 H   0  0  0  0  0  0  0  0  0  0  0  0
    0.4627   66.8489   65.6036 H   0  0  0  0  0  0  0  0  0  0  0  0
    1.2932   67.2752   67.1322 H   0  0  0  0  0  0  0  0  0  0  0  0
    0.6735   69.3029   65.3483 H   0  0  0  0  0  0  0  0  0  0  0  0
    2.1556   67.6884   63.2667 H   0  0  0  0  0  0  0  0  0  0  0  0
    2.1847   69.4258   62.6918 H   0  0  0  0  0  0  0  0  0  0  0  0
    4.1499   67.2021   62.0593 H   0  0  0  0  0  0  0  0  0  0  0  0
    3.1046   68.1490   60.9345 H   0  0  0  0  0  0  0  0  0  0  0  0
    5.4299   68.9514   60.8347 H   0  0  0  0  0  0  0  0  0  0  0  0
    4.3507   70.2097   61.5330 H   0  0  0  0  0  0  0  0  0  0  0  0
    6.2614   68.3403   62.9981 H   0  0  0  0  0  0  0  0  0  0  0  0
    6.2886   70.1622   62.8920 H   0  0  0  0  0  0  0  0  0  0  0  0
    1.9167   69.4749   68.0964 H   0  0  0  0  0  0  0  0  0  0  0  0
    3.2659   70.2965   70.0166 H   0  0  0  0  0  0  0  0  0  0  0  0
    5.6681   70.8794   69.6784 H   0  0  0  0  0  0  0  0  0  0  0  0
    6.6943   70.6281   67.4314 H   0  0  0  0  0  0  0  0  0  0  0  0
  2  1  1  0
  3  2  1  0
  5  4  2  0
  6  3  1  0
  6  4  1  0
  8  7  2  0
  9  8  1  0
 10  9  2  0
 11 10  1  0
 12 11  2  0
 12  7  1  0
 13 11  1  0
 14 13  1  0
 15 14  2  0
 16 14  1  0
 16  4  1  0
 17 10  1  0
 17 16  2  0
 19 18  1  0
 19  7  1  0
 20  1  1  0
 21 20  1  0
 22 21  1  0
 23 22  1  0
 24 23  1  0
 25 24  1  0
 26 25  1  0
 27 26  1  0
 28 27  1  0
 29 28  1  0
 30 29  1  0
 31 30  1  0
 31 26  2  0
 32 31  1  0
 33 32  2  0
 34 33  1  0
 34 25  2  0
 35 34  1  0
 36 35  2  0
 37 36  1  0
 38 33  1  0
 38 37  2  0
  1 39  1  0
  1 40  1  0
  2 41  1  0
  2 42  1  0
  3 43  1  0
  3 44  1  0
  6 45  1  0
  8 46  1  0
  9 47  1  0
 12 48  1  0
 17 49  1  0
 18 50  1  0
 18 51  1  0
 18 52  1  0
 20 53  1  0
 20 54  1  0
 21 55  1  0
 21 56  1  0
 22 57  1  0
 22 58  1  0
 23 59  1  0
 23 60  1  0
 24 61  1  0
 27 62  1  0
 27 63  1  0
 28 64  1  0
 28 65  1  0
 29 66  1  0
 29 67  1  0
 30 68  1  0
 30 69  1  0
 35 70  1  0
 36 71  1  0
 37 72  1  0
 38 73  1  0
M  END
>  <score>  (7) 
-10.443

$$$$
=
     RDKit          3D

 73 77  0  0  0  0  0  0  0  0999 V2000
    3.2560   69.4570   66.6890 C   0  0  0  0  0  0  0  0  0  0  0  0
    1.9110   68.7610   66.9250 C   0  0  0  0  0  0  0  0  0  0  0  0
    1.4210   68.9130   68.3650 C   0  0  0  0  0  0  0  0  0  0  0  0
    0.7690   66.7220   69.3100 C   0  0  0  0  0  0  0  0  0  0  0  0
   -0.3060   66.7140   68.7150 O   0  0  0  0  0  0  0  0  0  0  0  0
    1.6820   67.7360   69.1660 N   0  0  0  0  0  0  0  0  0  0  0  0
    3.5290   61.7310   72.4530 C   0  0  0  0  0  0  0  0  0  0  0  0
    4.2640   62.0490   71.3050 C   0  0  0  0  0  0  0  0  0  0  0  0
    3.8670   63.0920   70.4610 C   0  0  0  0  0  0  0  0  0  0  0  0
    2.7230   63.8290   70.7620 C   0  0  0  0  0  0  0  0  0  0  0  0
    2.0010   63.5050   71.9040 C   0  0  0  0  0  0  0  0  0  0  0  0
    2.3850   62.4670   72.7560 C   0  0  0  0  0  0  0  0  0  0  0  0
    0.8410   64.2240   72.2420 O   0  0  0  0  0  0  0  0  0  0  0  0
    0.3760   65.2730   71.4540 C   0  0  0  0  0  0  0  0  0  0  0  0
   -0.6460   65.8810   71.7660 O   0  0  0  0  0  0  0  0  0  0  0  0
    1.1550   65.6160   70.2430 C   0  0  0  0  0  0  0  0  0  0  0  0
    2.2620   64.9230   69.9250 C   0  0  0  0  0  0  0  0  0  0  0  0
    3.8830   59.3870   72.6370 C   0  0  0  0  0  0  0  0  0  0  0  0
    4.0320   60.6910   73.1840 O   0  0  0  0  0  0  0  0  0  0  0  0
    4.1910   68.6700   65.7650 C   0  0  0  0  0  0  0  0  0  0  0  0
    5.2760   69.5390   65.1230 C   0  0  0  0  0  0  0  0  0  0  0  0
    5.1170   69.6800   63.6060 C   0  0  0  0  0  0  0  0  0  0  0  0
    5.6620   68.4820   62.8250 C   0  0  0  0  0  0  0  0  0  0  0  0
    4.5860   67.9400   61.9810 N   0  0  0  0  0  0  0  0  0  0  0  0
    3.5370   67.3780   62.7700 C   0  0  0  0  0  0  0  0  0  0  0  0
    2.3000   68.0530   62.8200 C   0  0  0  0  0  0  0  0  0  0  0  0
    2.0310   69.2580   61.9480 C   0  0  0  0  0  0  0  0  0  0  0  0
    0.7760   70.0370   62.3360 C   0  0  0  0  0  0  0  0  0  0  0  0
   -0.3870   69.0870   62.5820 C   0  0  0  0  0  0  0  0  0  0  0  0
   -0.0570   68.1580   63.7440 C   0  0  0  0  0  0  0  0  0  0  0  0
    1.2970   67.5090   63.6220 C   0  0  0  0  0  0  0  0  0  0  0  0
    1.4740   66.4000   64.3790 N   0  0  0  0  0  0  0  0  0  0  0  0
    2.6550   65.7700   64.3450 C   0  0  0  0  0  0  0  0  0  0  0  0
    3.7400   66.2090   63.5580 C   0  0  0  0  0  0  0  0  0  0  0  0
    4.9470   65.4650   63.6020 C   0  0  0  0  0  0  0  0  0  0  0  0
    5.0730   64.3260   64.3980 C   0  0  0  0  0  0  0  0  0  0  0  0
    3.9960   63.9080   65.1640 C   0  0  0  0  0  0  0  0  0  0  0  0
    2.8040   64.6330   65.1280 C   0  0  0  0  0  0  0  0  0  0  0  0
    3.0652   70.4414   66.2367 H   0  0  0  0  0  0  0  0  0  0  0  0
    3.7561   69.5397   67.6653 H   0  0  0  0  0  0  0  0  0  0  0  0
    1.1626   69.2001   66.2490 H   0  0  0  0  0  0  0  0  0  0  0  0
    2.0500   67.6875   66.7296 H   0  0  0  0  0  0  0  0  0  0  0  0
    1.9329   69.7722   68.8231 H   0  0  0  0  0  0  0  0  0  0  0  0
    0.3315   69.0613   68.3336 H   0  0  0  0  0  0  0  0  0  0  0  0
    2.5893   67.6565   69.6471 H   0  0  0  0  0  0  0  0  0  0  0  0
    5.1674   61.4701   71.0627 H   0  0  0  0  0  0  0  0  0  0  0  0
    4.4559   63.3295   69.5628 H   0  0  0  0  0  0  0  0  0  0  0  0
    1.7930   62.2338   73.6533 H   0  0  0  0  0  0  0  0  0  0  0  0
    2.8264   65.1879   69.0187 H   0  0  0  0  0  0  0  0  0  0  0  0
    3.7993   58.6544   73.4532 H   0  0  0  0  0  0  0  0  0  0  0  0
    2.9749   59.3509   72.0173 H   0  0  0  0  0  0  0  0  0  0  0  0
    4.7596   59.1470   72.0173 H   0  0  0  0  0  0  0  0  0  0  0  0
    4.6792   67.8789   66.3530 H   0  0  0  0  0  0  0  0  0  0  0  0
    3.5763   68.2595   64.9504 H   0  0  0  0  0  0  0  0  0  0  0  0
    5.2331   70.5415   65.5737 H   0  0  0  0  0  0  0  0  0  0  0  0
    6.2415   69.0447   65.3059 H   0  0  0  0  0  0  0  0  0  0  0  0
    4.0468   69.7888   63.3760 H   0  0  0  0  0  0  0  0  0  0  0  0
    5.6994   70.5610   63.2984 H   0  0  0  0  0  0  0  0  0  0  0  0
    6.5022   68.8039   62.1922 H   0  0  0  0  0  0  0  0  0  0  0  0
    6.0159   67.7092   63.5232 H   0  0  0  0  0  0  0  0  0  0  0  0
    4.5889   67.9630   60.9513 H   0  0  0  0  0  0  0  0  0  0  0  0
    2.8945   69.9358   62.0184 H   0  0  0  0  0  0  0  0  0  0  0  0
    1.8698   68.8825   60.9267 H   0  0  0  0  0  0  0  0  0  0  0  0
    0.9752   70.6104   63.2534 H   0  0  0  0  0  0  0  0  0  0  0  0
    0.5113   70.7173   61.5131 H   0  0  0  0  0  0  0  0  0  0  0  0
   -1.2888   69.6685   62.8240 H   0  0  0  0  0  0  0  0  0  0  0  0
   -0.5646   68.4878   61.6768 H   0  0  0  0  0  0  0  0  0  0  0  0
   -0.0815   68.7421   64.6758 H   0  0  0  0  0  0  0  0  0  0  0  0
   -0.8060   67.3524   63.7399 H   0  0  0  0  0  0  0  0  0  0  0  0
    5.8033   65.7936   62.9946 H   0  0  0  0  0  0  0  0  0  0  0  0
    6.0188   63.7646   64.4175 H   0  0  0  0  0  0  0  0  0  0  0  0
    4.0802   63.0114   65.7957 H   0  0  0  0  0  0  0  0  0  0  0  0
    1.9553   64.2928   65.7395 H   0  0  0  0  0  0  0  0  0  0  0  0
  2  1  1  0
  3  2  1  0
  5  4  2  0
  6  3  1  0
  6  4  1  0
  8  7  2  0
  9  8  1  0
 10  9  2  0
 11 10  1  0
 12 11  2  0
 12  7  1  0
 13 11  1  0
 14 13  1  0
 15 14  2  0
 16 14  1  0
 16  4  1  0
 17 10  1  0
 17 16  2  0
 19 18  1  0
 19  7  1  0
 20  1  1  0
 21 20  1  0
 22 21  1  0
 23 22  1  0
 24 23  1  0
 25 24  1  0
 26 25  1  0
 27 26  1  0
 28 27  1  0
 29 28  1  0
 30 29  1  0
 31 30  1  0
 31 26  2  0
 32 31  1  0
 33 32  2  0
 34 33  1  0
 34 25  2  0
 35 34  1  0
 36 35  2  0
 37 36  1  0
 38 33  1  0
 38 37  2  0
  1 39  1  0
  1 40  1  0
  2 41  1  0
  2 42  1  0
  3 43  1  0
  3 44  1  0
  6 45  1  0
  8 46  1  0
  9 47  1  0
 12 48  1  0
 17 49  1  0
 18 50  1  0
 18 51  1  0
 18 52  1  0
 20 53  1  0
 20 54  1  0
 21 55  1  0
 21 56  1  0
 22 57  1  0
 22 58  1  0
 23 59  1  0
 23 60  1  0
 24 61  1  0
 27 62  1  0
 27 63  1  0
 28 64  1  0
 28 65  1  0
 29 66  1  0
 29 67  1  0
 30 68  1  0
 30 69  1  0
 35 70  1  0
 36 71  1  0
 37 72  1  0
 38 73  1  0
M  END
>  <score>  (8) 
-10.186

$$$$
=
     RDKit          3D

 73 77  0  0  0  0  0  0  0  0999 V2000
    1.3750   64.7440   70.5210 C   0  0  0  0  0  0  0  0  0  0  0  0
    2.5400   63.9870   69.8780 C   0  0  0  0  0  0  0  0  0  0  0  0
    3.2660   63.0810   70.8720 C   0  0  0  0  0  0  0  0  0  0  0  0
    2.9720   62.1050   73.1250 C   0  0  0  0  0  0  0  0  0  0  0  0
    4.0590   61.5320   73.0890 O   0  0  0  0  0  0  0  0  0  0  0  0
    2.5280   62.9070   72.1050 N   0  0  0  0  0  0  0  0  0  0  0  0
   -1.5290   62.7430   77.7880 C   0  0  0  0  0  0  0  0  0  0  0  0
   -1.5550   63.8510   76.9330 C   0  0  0  0  0  0  0  0  0  0  0  0
   -0.6760   63.9450   75.8480 C   0  0  0  0  0  0  0  0  0  0  0  0
    0.2420   62.9230   75.6100 C   0  0  0  0  0  0  0  0  0  0  0  0
    0.2580   61.8280   76.4660 C   0  0  0  0  0  0  0  0  0  0  0  0
   -0.6130   61.7210   77.5520 C   0  0  0  0  0  0  0  0  0  0  0  0
    1.1700   60.7770   76.2610 O   0  0  0  0  0  0  0  0  0  0  0  0
    2.0800   60.7940   75.2080 C   0  0  0  0  0  0  0  0  0  0  0  0
    2.8730   59.8680   75.0550 O   0  0  0  0  0  0  0  0  0  0  0  0
    2.0510   61.9610   74.2980 C   0  0  0  0  0  0  0  0  0  0  0  0
    1.1780   62.9630   74.5010 C   0  0  0  0  0  0  0  0  0  0  0  0
   -1.9350   62.7310   80.1310 C   0  0  0  0  0  0  0  0  0  0  0  0
   -2.4430   62.7850   78.8040 O   0  0  0  0  0  0  0  0  0  0  0  0
    1.2830   66.2070   70.0750 C   0  0  0  0  0  0  0  0  0  0  0  0
    0.2320   66.4410   68.9860 C   0  0  0  0  0  0  0  0  0  0  0  0
    0.4330   67.7550   68.2250 C   0  0  0  0  0  0  0  0  0  0  0  0
    1.5360   67.6830   67.1680 C   0  0  0  0  0  0  0  0  0  0  0  0
    1.6610   68.9980   66.5240 N   0  0  0  0  0  0  0  0  0  0  0  0
    3.0180   69.2880   66.1850 C   0  0  0  0  0  0  0  0  0  0  0  0
    3.4580   69.0040   64.8760 C   0  0  0  0  0  0  0  0  0  0  0  0
    2.4910   68.5490   63.8080 C   0  0  0  0  0  0  0  0  0  0  0  0
    3.1670   68.0070   62.5490 C   0  0  0  0  0  0  0  0  0  0  0  0
    4.2980   68.9270   62.1130 C   0  0  0  0  0  0  0  0  0  0  0  0
    5.3610   68.9900   63.2030 C   0  0  0  0  0  0  0  0  0  0  0  0
    4.7950   69.2620   64.5720 C   0  0  0  0  0  0  0  0  0  0  0  0
    5.6860   69.7220   65.4820 N   0  0  0  0  0  0  0  0  0  0  0  0
    5.2710   69.9730   66.7310 C   0  0  0  0  0  0  0  0  0  0  0  0
    3.9410   69.7740   67.1550 C   0  0  0  0  0  0  0  0  0  0  0  0
    3.6140   70.0700   68.5040 C   0  0  0  0  0  0  0  0  0  0  0  0
    4.5720   70.5470   69.3990 C   0  0  0  0  0  0  0  0  0  0  0  0
    5.8750   70.7380   68.9640 C   0  0  0  0  0  0  0  0  0  0  0  0
    6.2070   70.4490   67.6400 C   0  0  0  0  0  0  0  0  0  0  0  0
    0.4372   64.2368   70.2502 H   0  0  0  0  0  0  0  0  0  0  0  0
    1.5471   64.7448   71.6075 H   0  0  0  0  0  0  0  0  0  0  0  0
    2.1489   63.3684   69.0568 H   0  0  0  0  0  0  0  0  0  0  0  0
    3.2629   64.7315   69.5131 H   0  0  0  0  0  0  0  0  0  0  0  0
    3.4141   62.0950   70.4074 H   0  0  0  0  0  0  0  0  0  0  0  0
    4.2249   63.5590   71.1211 H   0  0  0  0  0  0  0  0  0  0  0  0
    1.6340   63.4052   72.2209 H   0  0  0  0  0  0  0  0  0  0  0  0
   -2.2772   64.6601   77.1167 H   0  0  0  0  0  0  0  0  0  0  0  0
   -0.7093   64.8223   75.1852 H   0  0  0  0  0  0  0  0  0  0  0  0
   -0.5762   60.8417   78.2119 H   0  0  0  0  0  0  0  0  0  0  0  0
    1.1728   63.8249   73.8175 H   0  0  0  0  0  0  0  0  0  0  0  0
   -2.7664   62.8194   80.8458 H   0  0  0  0  0  0  0  0  0  0  0  0
   -1.4177   61.7728   80.2869 H   0  0  0  0  0  0  0  0  0  0  0  0
   -1.2279   63.5590   80.2869 H   0  0  0  0  0  0  0  0  0  0  0  0
    1.0242   66.8232   70.9487 H   0  0  0  0  0  0  0  0  0  0  0  0
    2.2600   66.4813   69.6505 H   0  0  0  0  0  0  0  0  0  0  0  0
    0.2823   65.6097   68.2674 H   0  0  0  0  0  0  0  0  0  0  0  0
   -0.7471   66.4984   69.4840 H   0  0  0  0  0  0  0  0  0  0  0  0
   -0.5116   68.0166   67.7258 H   0  0  0  0  0  0  0  0  0  0  0  0
    0.7384   68.5129   68.9614 H   0  0  0  0  0  0  0  0  0  0  0  0
    2.4893   67.4133   67.6461 H   0  0  0  0  0  0  0  0  0  0  0  0
    1.2839   66.9209   66.4159 H   0  0  0  0  0  0  0  0  0  0  0  0
    0.8696   69.6310   66.3402 H   0  0  0  0  0  0  0  0  0  0  0  0
    1.8578   67.7547   64.2301 H   0  0  0  0  0  0  0  0  0  0  0  0
    1.9129   69.4339   63.5036 H   0  0  0  0  0  0  0  0  0  0  0  0
    3.5743   67.0070   62.7588 H   0  0  0  0  0  0  0  0  0  0  0  0
    2.4223   67.9514   61.7413 H   0  0  0  0  0  0  0  0  0  0  0  0
    4.7473   68.5398   61.1866 H   0  0  0  0  0  0  0  0  0  0  0  0
    3.8979   69.9364   61.9369 H   0  0  0  0  0  0  0  0  0  0  0  0
    5.8914   68.0267   63.2295 H   0  0  0  0  0  0  0  0  0  0  0  0
    6.0320   69.8259   62.9558 H   0  0  0  0  0  0  0  0  0  0  0  0
    2.5813   69.9198   68.8519 H   0  0  0  0  0  0  0  0  0  0  0  0
    4.2964   70.7696   70.4404 H   0  0  0  0  0  0  0  0  0  0  0  0
    6.6411   71.1146   69.6577 H   0  0  0  0  0  0  0  0  0  0  0  0
    7.2435   70.6031   67.3053 H   0  0  0  0  0  0  0  0  0  0  0  0
  2  1  1  0
  3  2  1  0
  5  4  2  0
  6  3  1  0
  6  4  1  0
  8  7  2  0
  9  8  1  0
 10  9  2  0
 11 10  1  0
 12 11  2  0
 12  7  1  0
 13 11  1  0
 14 13  1  0
 15 14  2  0
 16 14  1  0
 16  4  1  0
 17 10  1  0
 17 16  2  0
 19 18  1  0
 19  7  1  0
 20  1  1  0
 21 20  1  0
 22 21  1  0
 23 22  1  0
 24 23  1  0
 25 24  1  0
 26 25  1  0
 27 26  1  0
 28 27  1  0
 29 28  1  0
 30 29  1  0
 31 30  1  0
 31 26  2  0
 32 31  1  0
 33 32  2  0
 34 33  1  0
 34 25  2  0
 35 34  1  0
 36 35  2  0
 37 36  1  0
 38 33  1  0
 38 37  2  0
  1 39  1  0
  1 40  1  0
  2 41  1  0
  2 42  1  0
  3 43  1  0
  3 44  1  0
  6 45  1  0
  8 46  1  0
  9 47  1  0
 12 48  1  0
 17 49  1  0
 18 50  1  0
 18 51  1  0
 18 52  1  0
 20 53  1  0
 20 54  1  0
 21 55  1  0
 21 56  1  0
 22 57  1  0
 22 58  1  0
 23 59  1  0
 23 60  1  0
 24 61  1  0
 27 62  1  0
 27 63  1  0
 28 64  1  0
 28 65  1  0
 29 66  1  0
 29 67  1  0
 30 68  1  0
 30 69  1  0
 35 70  1  0
 36 71  1  0
 37 72  1  0
 38 73  1  0
M  END
>  <score>  (9) 
-10.016

$$$$
