=
     RDKit          3D

 35 36  0  0  0  0  0  0  0  0999 V2000
    2.0050   69.1780   67.4080 N   0  0  0  0  0  0  0  0  0  0  0  0
    4.2950   69.3030   64.5850 C   0  0  0  0  0  0  0  0  0  0  0  0
    5.4270   69.6610   65.2130 N   0  0  0  0  0  0  0  0  0  0  0  0
    5.3320   69.8180   66.5420 C   0  0  0  0  0  0  0  0  0  0  0  0
    4.2230   69.6490   67.2680 N   0  0  0  0  0  0  0  0  0  0  0  0
    3.1340   69.3100   66.5740 C   0  0  0  0  0  0  0  0  0  0  0  0
    3.0970   69.1070   65.2210 C   0  0  0  0  0  0  0  0  0  0  0  0
    5.6020   69.0580   62.6540 C   0  0  0  0  0  0  0  0  0  0  0  0
    4.2950   69.1150   63.2170 O   0  0  0  0  0  0  0  0  0  0  0  0
    6.4440   70.1730   67.2730 O   0  0  0  0  0  0  0  0  0  0  0  0
    6.2510   71.3500   68.0470 C   0  0  0  0  0  0  0  0  0  0  0  0
    1.3200   67.6470   67.5420 S   0  0  0  0  0  6  0  0  0  0  0  0
    1.9300   66.7760   66.5600 O   0  0  0  0  0  0  0  0  0  0  0  0
    1.3290   67.3080   68.9500 O   0  0  0  0  0  0  0  0  0  0  0  0
   -0.3760   67.9050   67.0720 C   0  0  0  0  0  0  0  0  0  0  0  0
   -0.6940   68.8380   66.0830 C   0  0  0  0  0  0  0  0  0  0  0  0
   -2.0300   69.0300   65.7250 C   0  0  0  0  0  0  0  0  0  0  0  0
   -3.0450   68.2630   66.3080 C   0  0  0  0  0  0  0  0  0  0  0  0
   -2.7120   67.3640   67.3260 C   0  0  0  0  0  0  0  0  0  0  0  0
   -1.3800   67.1600   67.6930 C   0  0  0  0  0  0  0  0  0  0  0  0
   -4.3860   68.5470   66.0320 N   0  0  0  0  0  0  0  0  0  0  0  0
    1.6154   69.9858   67.9146 H   0  0  0  0  0  0  0  0  0  0  0  0
    2.1814   68.8110   64.6881 H   0  0  0  0  0  0  0  0  0  0  0  0
    6.3480   69.0255   63.4617 H   0  0  0  0  0  0  0  0  0  0  0  0
    5.6946   68.1550   62.0327 H   0  0  0  0  0  0  0  0  0  0  0  0
    5.7728   69.9495   62.0327 H   0  0  0  0  0  0  0  0  0  0  0  0
    6.2926   71.0964   69.1166 H   0  0  0  0  0  0  0  0  0  0  0  0
    7.0419   72.0774   67.8116 H   0  0  0  0  0  0  0  0  0  0  0  0
    5.2692   71.7867   67.8116 H   0  0  0  0  0  0  0  0  0  0  0  0
    0.1011   69.4168   65.5901 H   0  0  0  0  0  0  0  0  0  0  0  0
   -2.2876   69.7932   64.9759 H   0  0  0  0  0  0  0  0  0  0  0  0
   -3.5090   66.8106   67.8442 H   0  0  0  0  0  0  0  0  0  0  0  0
   -1.1243   66.4188   68.4646 H   0  0  0  0  0  0  0  0  0  0  0  0
   -5.1314   67.9811   66.4622 H   0  0  0  0  0  0  0  0  0  0  0  0
   -4.6284   69.3221   65.3985 H   0  0  0  0  0  0  0  0  0  0  0  0
  3  2  2  0
  4  3  1  0
  5  4  2  0
  6  5  1  0
  6  1  1  0
  7  2  1  0
  7  6  2  0
  9  2  1  0
  9  8  1  0
 10  4  1  0
 11 10  1  0
 12  1  1  0
 13 12  2  0
 14 12  2  0
 15 12  1  0
 16 15  2  0
 17 16  1  0
 18 17  2  0
 19 18  1  0
 20 19  2  0
 20 15  1  0
 21 18  1  0
  1 22  1  0
  7 23  1  0
  8 24  1  0
  8 25  1  0
  8 26  1  0
 11 27  1  0
 11 28  1  0
 11 29  1  0
 16 30  1  0
 17 31  1  0
 19 32  1  0
 20 33  1  0
 21 34  1  0
 21 35  1  0
M  END
>  <score>  (1) 
-8.954

$$$$
=
     RDKit          3D

 35 36  0  0  0  0  0  0  0  0999 V2000
    2.0230   69.3750   67.2580 N   0  0  0  0  0  0  0  0  0  0  0  0
    5.5640   69.8280   66.5610 C   0  0  0  0  0  0  0  0  0  0  0  0
    5.5860   69.5440   65.2490 N   0  0  0  0  0  0  0  0  0  0  0  0
    4.4030   69.2370   64.6980 C   0  0  0  0  0  0  0  0  0  0  0  0
    3.2320   69.1930   65.3430 N   0  0  0  0  0  0  0  0  0  0  0  0
    3.2910   69.4700   66.6480 C   0  0  0  0  0  0  0  0  0  0  0  0
    4.4290   69.8090   67.3290 C   0  0  0  0  0  0  0  0  0  0  0  0
    6.5260   70.9170   68.4020 C   0  0  0  0  0  0  0  0  0  0  0  0
    6.7340   70.1580   67.2150 O   0  0  0  0  0  0  0  0  0  0  0  0
    4.3240   68.9430   63.3550 O   0  0  0  0  0  0  0  0  0  0  0  0
    5.5390   69.1850   62.6580 C   0  0  0  0  0  0  0  0  0  0  0  0
    1.3850   67.8340   67.4770 S   0  0  0  0  0  6  0  0  0  0  0  0
    2.0100   66.9320   66.5320 O   0  0  0  0  0  0  0  0  0  0  0  0
    1.4200   67.5660   68.9000 O   0  0  0  0  0  0  0  0  0  0  0  0
   -0.3220   68.0180   67.0160 C   0  0  0  0  0  0  0  0  0  0  0  0
   -0.6870   68.9480   66.0410 C   0  0  0  0  0  0  0  0  0  0  0  0
   -2.0330   69.0820   65.6900 C   0  0  0  0  0  0  0  0  0  0  0  0
   -3.0080   68.2610   66.2660 C   0  0  0  0  0  0  0  0  0  0  0  0
   -2.6300   67.3650   67.2710 C   0  0  0  0  0  0  0  0  0  0  0  0
   -1.2880   67.2180   67.6310 C   0  0  0  0  0  0  0  0  0  0  0  0
   -4.3630   68.4860   65.9980 N   0  0  0  0  0  0  0  0  0  0  0  0
    1.5083   70.2154   67.5574 H   0  0  0  0  0  0  0  0  0  0  0  0
    4.4323   70.0464   68.4031 H   0  0  0  0  0  0  0  0  0  0  0  0
    6.7009   70.2788   69.2807 H   0  0  0  0  0  0  0  0  0  0  0  0
    7.2244   71.7666   68.4211 H   0  0  0  0  0  0  0  0  0  0  0  0
    5.4920   71.2918   68.4211 H   0  0  0  0  0  0  0  0  0  0  0  0
    6.3511   69.3468   63.3821 H   0  0  0  0  0  0  0  0  0  0  0  0
    5.7785   68.3169   62.0263 H   0  0  0  0  0  0  0  0  0  0  0  0
    5.4276   70.0786   62.0263 H   0  0  0  0  0  0  0  0  0  0  0  0
    0.0781   69.5699   65.5533 H   0  0  0  0  0  0  0  0  0  0  0  0
   -2.3292   69.8421   64.9521 H   0  0  0  0  0  0  0  0  0  0  0  0
   -3.3986   66.7686   67.7844 H   0  0  0  0  0  0  0  0  0  0  0  0
   -0.9949   66.4793   68.3915 H   0  0  0  0  0  0  0  0  0  0  0  0
   -5.0795   67.8804   66.4231 H   0  0  0  0  0  0  0  0  0  0  0  0
   -4.6437   69.2572   65.3757 H   0  0  0  0  0  0  0  0  0  0  0  0
  3  2  2  0
  4  3  1  0
  5  4  2  0
  6  5  1  0
  6  1  1  0
  7  2  1  0
  7  6  2  0
  9  2  1  0
  9  8  1  0
 10  4  1  0
 11 10  1  0
 12  1  1  0
 13 12  2  0
 14 12  2  0
 15 12  1  0
 16 15  2  0
 17 16  1  0
 18 17  2  0
 19 18  1  0
 20 19  2  0
 20 15  1  0
 21 18  1  0
  1 22  1  0
  7 23  1  0
  8 24  1  0
  8 25  1  0
  8 26  1  0
 11 27  1  0
 11 28  1  0
 11 29  1  0
 16 30  1  0
 17 31  1  0
 19 32  1  0
 20 33  1  0
 21 34  1  0
 21 35  1  0
M  END
>  <score>  (2) 
-8.831

$$$$
=
     RDKit          3D

 35 36  0  0  0  0  0  0  0  0999 V2000
    1.9740   66.9370   65.9540 N   0  0  0  0  0  0  0  0  0  0  0  0
    3.9520   66.7160   62.9100 C   0  0  0  0  0  0  0  0  0  0  0  0
    4.2780   65.4120   62.9320 N   0  0  0  0  0  0  0  0  0  0  0  0
    3.7910   64.7070   63.9640 C   0  0  0  0  0  0  0  0  0  0  0  0
    3.0270   65.1940   64.9470 N   0  0  0  0  0  0  0  0  0  0  0  0
    2.7600   66.4990   64.8680 C   0  0  0  0  0  0  0  0  0  0  0  0
    3.1830   67.3280   63.8640 C   0  0  0  0  0  0  0  0  0  0  0  0
    3.4630   68.5130   61.4850 C   0  0  0  0  0  0  0  0  0  0  0  0
    4.4050   67.5220   61.8840 O   0  0  0  0  0  0  0  0  0  0  0  0
    4.0620   63.3610   64.0650 O   0  0  0  0  0  0  0  0  0  0  0  0
    5.3020   62.9940   63.4750 C   0  0  0  0  0  0  0  0  0  0  0  0
    1.5750   68.5710   66.0080 S   0  0  0  0  0  6  0  0  0  0  0  0
    1.5520   69.0900   64.6560 O   0  0  0  0  0  0  0  0  0  0  0  0
    0.4200   68.6900   66.8730 O   0  0  0  0  0  0  0  0  0  0  0  0
    2.9510   69.3090   66.8580 C   0  0  0  0  0  0  0  0  0  0  0  0
    4.1770   69.4590   66.2070 C   0  0  0  0  0  0  0  0  0  0  0  0
    5.2500   70.0400   66.8890 C   0  0  0  0  0  0  0  0  0  0  0  0
    5.0940   70.5190   68.1930 C   0  0  0  0  0  0  0  0  0  0  0  0
    3.8710   70.3230   68.8440 C   0  0  0  0  0  0  0  0  0  0  0  0
    2.7890   69.7450   68.1750 C   0  0  0  0  0  0  0  0  0  0  0  0
    6.2020   70.9860   68.9070 N   0  0  0  0  0  0  0  0  0  0  0  0
    1.6571   66.2834   66.6843 H   0  0  0  0  0  0  0  0  0  0  0  0
    2.9265   68.3970   63.8266 H   0  0  0  0  0  0  0  0  0  0  0  0
    3.0203   68.9787   62.3779 H   0  0  0  0  0  0  0  0  0  0  0  0
    3.9715   69.2816   60.8845 H   0  0  0  0  0  0  0  0  0  0  0  0
    2.6696   68.0440   60.8845 H   0  0  0  0  0  0  0  0  0  0  0  0
    6.0346   62.7772   64.2663 H   0  0  0  0  0  0  0  0  0  0  0  0
    5.1606   62.0992   62.8510 H   0  0  0  0  0  0  0  0  0  0  0  0
    5.6704   63.8216   62.8510 H   0  0  0  0  0  0  0  0  0  0  0  0
    4.2975   69.1229   65.1666 H   0  0  0  0  0  0  0  0  0  0  0  0
    6.2288   70.1213   66.3937 H   0  0  0  0  0  0  0  0  0  0  0  0
    3.7600   70.6276   69.8951 H   0  0  0  0  0  0  0  0  0  0  0  0
    1.8185   69.6344   68.6809 H   0  0  0  0  0  0  0  0  0  0  0  0
    6.0844   71.3384   69.8677 H   0  0  0  0  0  0  0  0  0  0  0  0
    7.1357   70.9775   68.4722 H   0  0  0  0  0  0  0  0  0  0  0  0
  3  2  2  0
  4  3  1  0
  5  4  2  0
  6  5  1  0
  6  1  1  0
  7  2  1  0
  7  6  2  0
  9  2  1  0
  9  8  1  0
 10  4  1  0
 11 10  1  0
 12  1  1  0
 13 12  2  0
 14 12  2  0
 15 12  1  0
 16 15  2  0
 17 16  1  0
 18 17  2  0
 19 18  1  0
 20 19  2  0
 20 15  1  0
 21 18  1  0
  1 22  1  0
  7 23  1  0
  8 24  1  0
  8 25  1  0
  8 26  1  0
 11 27  1  0
 11 28  1  0
 11 29  1  0
 16 30  1  0
 17 31  1  0
 19 32  1  0
 20 33  1  0
 21 34  1  0
 21 35  1  0
M  END
>  <score>  (3) 
-8.456

$$$$
=
     RDKit          3D

 35 36  0  0  0  0  0  0  0  0999 V2000
    1.1500   69.3350   66.5710 N   0  0  0  0  0  0  0  0  0  0  0  0
   -0.3860   66.7440   68.6100 C   0  0  0  0  0  0  0  0  0  0  0  0
   -1.6390   66.7740   68.1280 N   0  0  0  0  0  0  0  0  0  0  0  0
   -1.8640   67.6550   67.1430 C   0  0  0  0  0  0  0  0  0  0  0  0
   -0.9560   68.4850   66.6190 N   0  0  0  0  0  0  0  0  0  0  0  0
    0.2620   68.4110   67.1600 C   0  0  0  0  0  0  0  0  0  0  0  0
    0.6260   67.5500   68.1590 C   0  0  0  0  0  0  0  0  0  0  0  0
    1.2900   65.9900   70.0670 C   0  0  0  0  0  0  0  0  0  0  0  0
   -0.0580   65.8660   69.6250 O   0  0  0  0  0  0  0  0  0  0  0  0
   -3.1160   67.7500   66.5770 O   0  0  0  0  0  0  0  0  0  0  0  0
   -3.2440   68.8490   65.6850 C   0  0  0  0  0  0  0  0  0  0  0  0
    2.5060   68.7130   65.7920 S   0  0  0  0  0  6  0  0  0  0  0  0
    2.5630   67.2850   66.0250 O   0  0  0  0  0  0  0  0  0  0  0  0
    2.4980   69.2500   64.4480 O   0  0  0  0  0  0  0  0  0  0  0  0
    3.8660   69.4660   66.6550 C   0  0  0  0  0  0  0  0  0  0  0  0
    5.1140   69.5700   66.0380 C   0  0  0  0  0  0  0  0  0  0  0  0
    6.1740   70.1620   66.7290 C   0  0  0  0  0  0  0  0  0  0  0  0
    5.9850   70.6980   68.0070 C   0  0  0  0  0  0  0  0  0  0  0  0
    4.7390   70.5470   68.6260 C   0  0  0  0  0  0  0  0  0  0  0  0
    3.6700   69.9580   67.9470 C   0  0  0  0  0  0  0  0  0  0  0  0
    7.0780   71.1780   68.7360 N   0  0  0  0  0  0  0  0  0  0  0  0
    0.9757   70.3492   66.6158 H   0  0  0  0  0  0  0  0  0  0  0  0
    1.6469   67.5083   68.5665 H   0  0  0  0  0  0  0  0  0  0  0  0
    1.3165   65.9924   71.1667 H   0  0  0  0  0  0  0  0  0  0  0  0
    1.8796   65.1423   69.6879 H   0  0  0  0  0  0  0  0  0  0  0  0
    1.7151   66.9310   69.6879 H   0  0  0  0  0  0  0  0  0  0  0  0
   -3.3523   69.7791   66.2623 H   0  0  0  0  0  0  0  0  0  0  0  0
   -2.3473   68.9132   65.0512 H   0  0  0  0  0  0  0  0  0  0  0  0
   -4.1315   68.7054   65.0512 H   0  0  0  0  0  0  0  0  0  0  0  0
    5.2614   69.1891   65.0166 H   0  0  0  0  0  0  0  0  0  0  0  0
    7.1691   70.2071   66.2625 H   0  0  0  0  0  0  0  0  0  0  0  0
    4.5999   70.8964   69.6597 H   0  0  0  0  0  0  0  0  0  0  0  0
    2.6825   69.8824   68.4257 H   0  0  0  0  0  0  0  0  0  0  0  0
    6.9363   71.5723   69.6769 H   0  0  0  0  0  0  0  0  0  0  0  0
    8.0245   71.1372   68.3319 H   0  0  0  0  0  0  0  0  0  0  0  0
  3  2  2  0
  4  3  1  0
  5  4  2  0
  6  5  1  0
  6  1  1  0
  7  2  1  0
  7  6  2  0
  9  2  1  0
  9  8  1  0
 10  4  1  0
 11 10  1  0
 12  1  1  0
 13 12  2  0
 14 12  2  0
 15 12  1  0
 16 15  2  0
 17 16  1  0
 18 17  2  0
 19 18  1  0
 20 19  2  0
 20 15  1  0
 21 18  1  0
  1 22  1  0
  7 23  1  0
  8 24  1  0
  8 25  1  0
  8 26  1  0
 11 27  1  0
 11 28  1  0
 11 29  1  0
 16 30  1  0
 17 31  1  0
 19 32  1  0
 20 33  1  0
 21 34  1  0
 21 35  1  0
M  END
>  <score>  (4) 
-8.445

$$$$
=
     RDKit          3D

 35 36  0  0  0  0  0  0  0  0999 V2000
    1.7380   67.7690   66.1680 N   0  0  0  0  0  0  0  0  0  0  0  0
    1.0730   68.8570   62.7620 C   0  0  0  0  0  0  0  0  0  0  0  0
   -0.2660   68.9520   62.8000 N   0  0  0  0  0  0  0  0  0  0  0  0
   -0.8390   68.6570   63.9760 C   0  0  0  0  0  0  0  0  0  0  0  0
   -0.1910   68.2830   65.0850 N   0  0  0  0  0  0  0  0  0  0  0  0
    1.1350   68.1940   64.9670 C   0  0  0  0  0  0  0  0  0  0  0  0
    1.8430   68.4780   63.8300 C   0  0  0  0  0  0  0  0  0  0  0  0
    3.0960   68.6750   61.5900 C   0  0  0  0  0  0  0  0  0  0  0  0
    1.7520   69.1450   61.5950 O   0  0  0  0  0  0  0  0  0  0  0  0
   -2.2070   68.7370   64.1150 O   0  0  0  0  0  0  0  0  0  0  0  0
   -2.6290   68.7710   65.4710 C   0  0  0  0  0  0  0  0  0  0  0  0
    1.4850   68.7180   67.5350 S   0  0  0  0  0  6  0  0  0  0  0  0
    0.4900   69.7240   67.2270 O   0  0  0  0  0  0  0  0  0  0  0  0
    1.3080   67.8090   68.6480 O   0  0  0  0  0  0  0  0  0  0  0  0
    3.0440   69.5410   67.7680 C   0  0  0  0  0  0  0  0  0  0  0  0
    4.0090   69.5090   66.7600 C   0  0  0  0  0  0  0  0  0  0  0  0
    5.2300   70.1590   66.9580 C   0  0  0  0  0  0  0  0  0  0  0  0
    5.4740   70.8820   68.1300 C   0  0  0  0  0  0  0  0  0  0  0  0
    4.5130   70.8680   69.1460 C   0  0  0  0  0  0  0  0  0  0  0  0
    3.2870   70.2240   68.9610 C   0  0  0  0  0  0  0  0  0  0  0  0
    6.7410   71.4250   68.3690 N   0  0  0  0  0  0  0  0  0  0  0  0
    2.3098   66.9132   66.2075 H   0  0  0  0  0  0  0  0  0  0  0  0
    2.9395   68.4077   63.7783 H   0  0  0  0  0  0  0  0  0  0  0  0
    3.4455   68.5528   62.6258 H   0  0  0  0  0  0  0  0  0  0  0  0
    3.1439   67.7068   61.0702 H   0  0  0  0  0  0  0  0  0  0  0  0
    3.7369   69.4024   61.0702 H   0  0  0  0  0  0  0  0  0  0  0  0
   -1.7512   68.7003   66.1301 H   0  0  0  0  0  0  0  0  0  0  0  0
   -3.1592   69.7148   65.6665 H   0  0  0  0  0  0  0  0  0  0  0  0
   -3.3034   67.9243   65.6665 H   0  0  0  0  0  0  0  0  0  0  0  0
    3.8101   68.9768   65.8181 H   0  0  0  0  0  0  0  0  0  0  0  0
    6.0084   70.1013   66.1829 H   0  0  0  0  0  0  0  0  0  0  0  0
    4.7248   71.3698   70.1017 H   0  0  0  0  0  0  0  0  0  0  0  0
    2.5198   70.2549   69.7487 H   0  0  0  0  0  0  0  0  0  0  0  0
    6.9187   71.9572   69.2328 H   0  0  0  0  0  0  0  0  0  0  0  0
    7.4962   71.2926   67.6812 H   0  0  0  0  0  0  0  0  0  0  0  0
  3  2  2  0
  4  3  1  0
  5  4  2  0
  6  5  1  0
  6  1  1  0
  7  2  1  0
  7  6  2  0
  9  2  1  0
  9  8  1  0
 10  4  1  0
 11 10  1  0
 12  1  1  0
 13 12  2  0
 14 12  2  0
 15 12  1  0
 16 15  2  0
 17 16  1  0
 18 17  2  0
 19 18  1  0
 20 19  2  0
 20 15  1  0
 21 18  1  0
  1 22  1  0
  7 23  1  0
  8 24  1  0
  8 25  1  0
  8 26  1  0
 11 27  1  0
 11 28  1  0
 11 29  1  0
 16 30  1  0
 17 31  1  0
 19 32  1  0
 20 33  1  0
 21 34  1  0
 21 35  1  0
M  END
>  <score>  (5) 
-8.427

$$$$
=
     RDKit          3D

 35 36  0  0  0  0  0  0  0  0999 V2000
    2.2250   68.9250   65.7010 N   0  0  0  0  0  0  0  0  0  0  0  0
    3.8940   67.1340   63.0110 C   0  0  0  0  0  0  0  0  0  0  0  0
    3.2960   67.6940   61.9470 N   0  0  0  0  0  0  0  0  0  0  0  0
    2.3880   68.6420   62.2190 C   0  0  0  0  0  0  0  0  0  0  0  0
    2.0420   69.0600   63.4410 N   0  0  0  0  0  0  0  0  0  0  0  0
    2.6650   68.4470   64.4500 C   0  0  0  0  0  0  0  0  0  0  0  0
    3.6180   67.4750   64.3090 C   0  0  0  0  0  0  0  0  0  0  0  0
    4.5770   64.9600   63.5640 C   0  0  0  0  0  0  0  0  0  0  0  0
    4.8460   66.1500   62.8300 O   0  0  0  0  0  0  0  0  0  0  0  0
    1.7310   69.2810   61.1900 O   0  0  0  0  0  0  0  0  0  0  0  0
    0.4120   69.6840   61.5350 C   0  0  0  0  0  0  0  0  0  0  0  0
    1.5600   67.8040   66.7650 S   0  0  0  0  0  6  0  0  0  0  0  0
    1.9120   66.4720   66.3190 O   0  0  0  0  0  0  0  0  0  0  0  0
    1.8850   68.2540   68.1020 O   0  0  0  0  0  0  0  0  0  0  0  0
   -0.1930   68.0110   66.5490 C   0  0  0  0  0  0  0  0  0  0  0  0
   -0.6800   68.8660   65.5590 C   0  0  0  0  0  0  0  0  0  0  0  0
   -2.0600   69.0190   65.4020 C   0  0  0  0  0  0  0  0  0  0  0  0
   -2.9550   68.2870   66.1890 C   0  0  0  0  0  0  0  0  0  0  0  0
   -2.4500   67.4670   67.2030 C   0  0  0  0  0  0  0  0  0  0  0  0
   -1.0720   67.3030   67.3710 C   0  0  0  0  0  0  0  0  0  0  0  0
   -4.3290   68.5380   66.1070 N   0  0  0  0  0  0  0  0  0  0  0  0
    2.3073   69.9202   65.9535 H   0  0  0  0  0  0  0  0  0  0  0  0
    4.1212   67.0059   65.1674 H   0  0  0  0  0  0  0  0  0  0  0  0
    4.6256   65.1750   64.6417 H   0  0  0  0  0  0  0  0  0  0  0  0
    3.5727   64.5908   63.3087 H   0  0  0  0  0  0  0  0  0  0  0  0
    5.3248   64.1948   63.3087 H   0  0  0  0  0  0  0  0  0  0  0  0
    0.3125   69.7144   62.6301 H   0  0  0  0  0  0  0  0  0  0  0  0
    0.2139   70.6837   61.1209 H   0  0  0  0  0  0  0  0  0  0  0  0
   -0.3110   68.9658   61.1209 H   0  0  0  0  0  0  0  0  0  0  0  0
    0.0166   69.4146   64.9080 H   0  0  0  0  0  0  0  0  0  0  0  0
   -2.4469   69.7233   64.6508 H   0  0  0  0  0  0  0  0  0  0  0  0
   -3.1455   66.9448   67.8765 H   0  0  0  0  0  0  0  0  0  0  0  0
   -0.6838   66.6227   68.1434 H   0  0  0  0  0  0  0  0  0  0  0  0
   -4.9867   67.9980   66.6873 H   0  0  0  0  0  0  0  0  0  0  0  0
   -4.6828   69.2628   65.4663 H   0  0  0  0  0  0  0  0  0  0  0  0
  3  2  2  0
  4  3  1  0
  5  4  2  0
  6  5  1  0
  6  1  1  0
  7  2  1  0
  7  6  2  0
  9  2  1  0
  9  8  1  0
 10  4  1  0
 11 10  1  0
 12  1  1  0
 13 12  2  0
 14 12  2  0
 15 12  1  0
 16 15  2  0
 17 16  1  0
 18 17  2  0
 19 18  1  0
 20 19  2  0
 20 15  1  0
 21 18  1  0
  1 22  1  0
  7 23  1  0
  8 24  1  0
  8 25  1  0
  8 26  1  0
 11 27  1  0
 11 28  1  0
 11 29  1  0
 16 30  1  0
 17 31  1  0
 19 32  1  0
 20 33  1  0
 21 34  1  0
 21 35  1  0
M  END
>  <score>  (6) 
-8.395

$$$$
=
     RDKit          3D

 35 36  0  0  0  0  0  0  0  0999 V2000
    1.7700   68.8650   66.8420 N   0  0  0  0  0  0  0  0  0  0  0  0
    4.9840   69.8510   65.4560 C   0  0  0  0  0  0  0  0  0  0  0  0
    5.6010   70.2810   66.5690 N   0  0  0  0  0  0  0  0  0  0  0  0
    4.8900   70.1910   67.7020 C   0  0  0  0  0  0  0  0  0  0  0  0
    3.6440   69.7170   67.8020 N   0  0  0  0  0  0  0  0  0  0  0  0
    3.0890   69.3240   66.6530 C   0  0  0  0  0  0  0  0  0  0  0  0
    3.7080   69.3520   65.4330 C   0  0  0  0  0  0  0  0  0  0  0  0
    5.6550   68.6540   63.5530 C   0  0  0  0  0  0  0  0  0  0  0  0
    5.6390   69.9010   64.2410 O   0  0  0  0  0  0  0  0  0  0  0  0
    5.4430   70.5970   68.8950 O   0  0  0  0  0  0  0  0  0  0  0  0
    6.7610   71.1120   68.7540 C   0  0  0  0  0  0  0  0  0  0  0  0
    1.2800   67.5330   65.9380 S   0  0  0  0  0  6  0  0  0  0  0  0
    2.3820   66.5980   65.8500 O   0  0  0  0  0  0  0  0  0  0  0  0
   -0.0060   67.1230   66.4610 O   0  0  0  0  0  0  0  0  0  0  0  0
    1.0000   68.2080   64.3160 C   0  0  0  0  0  0  0  0  0  0  0  0
    1.9900   68.1090   63.3370 C   0  0  0  0  0  0  0  0  0  0  0  0
    1.7560   68.6450   62.0680 C   0  0  0  0  0  0  0  0  0  0  0  0
    0.5260   69.2330   61.7550 C   0  0  0  0  0  0  0  0  0  0  0  0
   -0.4370   69.3620   62.7610 C   0  0  0  0  0  0  0  0  0  0  0  0
   -0.2190   68.8280   64.0340 C   0  0  0  0  0  0  0  0  0  0  0  0
    0.3460   69.8730   60.5250 N   0  0  0  0  0  0  0  0  0  0  0  0
    1.1320   69.3260   67.5063 H   0  0  0  0  0  0  0  0  0  0  0  0
    3.2216   69.0029   64.5102 H   0  0  0  0  0  0  0  0  0  0  0  0
    5.6655   67.8321   64.2840 H   0  0  0  0  0  0  0  0  0  0  0  0
    4.7578   68.5719   62.9218 H   0  0  0  0  0  0  0  0  0  0  0  0
    6.5540   68.5950   62.9218 H   0  0  0  0  0  0  0  0  0  0  0  0
    7.1966   71.2822   69.7496 H   0  0  0  0  0  0  0  0  0  0  0  0
    7.3798   70.3895   68.2017 H   0  0  0  0  0  0  0  0  0  0  0  0
    6.7261   72.0626   68.2017 H   0  0  0  0  0  0  0  0  0  0  0  0
    2.9458   67.6135   63.5625 H   0  0  0  0  0  0  0  0  0  0  0  0
    2.5484   68.6041   61.3061 H   0  0  0  0  0  0  0  0  0  0  0  0
   -1.3779   69.8904   62.5476 H   0  0  0  0  0  0  0  0  0  0  0  0
   -0.9997   68.8954   64.8059 H   0  0  0  0  0  0  0  0  0  0  0  0
   -0.5608   70.3051   60.2971 H   0  0  0  0  0  0  0  0  0  0  0  0
    1.1202   69.9123   59.8468 H   0  0  0  0  0  0  0  0  0  0  0  0
  3  2  2  0
  4  3  1  0
  5  4  2  0
  6  5  1  0
  6  1  1  0
  7  2  1  0
  7  6  2  0
  9  2  1  0
  9  8  1  0
 10  4  1  0
 11 10  1  0
 12  1  1  0
 13 12  2  0
 14 12  2  0
 15 12  1  0
 16 15  2  0
 17 16  1  0
 18 17  2  0
 19 18  1  0
 20 19  2  0
 20 15  1  0
 21 18  1  0
  1 22  1  0
  7 23  1  0
  8 24  1  0
  8 25  1  0
  8 26  1  0
 11 27  1  0
 11 28  1  0
 11 29  1  0
 16 30  1  0
 17 31  1  0
 19 32  1  0
 20 33  1  0
 21 34  1  0
 21 35  1  0
M  END
>  <score>  (7) 
-8.284

$$$$
=
     RDKit          3D

 35 36  0  0  0  0  0  0  0  0999 V2000
    1.8940   66.5050   66.0970 N   0  0  0  0  0  0  0  0  0  0  0  0
    2.8860   67.7350   62.8210 C   0  0  0  0  0  0  0  0  0  0  0  0
    3.8490   66.8490   62.5170 N   0  0  0  0  0  0  0  0  0  0  0  0
    4.0780   65.8980   63.4330 C   0  0  0  0  0  0  0  0  0  0  0  0
    3.4350   65.7700   64.5990 N   0  0  0  0  0  0  0  0  0  0  0  0
    2.5040   66.6950   64.8400 C   0  0  0  0  0  0  0  0  0  0  0  0
    2.1650   67.7100   63.9860 C   0  0  0  0  0  0  0  0  0  0  0  0
    1.1940   69.0880   61.9230 C   0  0  0  0  0  0  0  0  0  0  0  0
    2.5780   68.7500   61.9370 O   0  0  0  0  0  0  0  0  0  0  0  0
    5.0390   64.9380   63.2040 O   0  0  0  0  0  0  0  0  0  0  0  0
    4.8150   63.7390   63.9330 C   0  0  0  0  0  0  0  0  0  0  0  0
    1.5050   67.8830   66.9820 S   0  0  0  0  0  6  0  0  0  0  0  0
    1.7120   67.6080   68.3880 O   0  0  0  0  0  0  0  0  0  0  0  0
    2.1650   68.9960   66.3330 O   0  0  0  0  0  0  0  0  0  0  0  0
   -0.2430   68.0740   66.7110 C   0  0  0  0  0  0  0  0  0  0  0  0
   -1.1520   67.3110   67.4460 C   0  0  0  0  0  0  0  0  0  0  0  0
   -2.5220   67.4720   67.2210 C   0  0  0  0  0  0  0  0  0  0  0  0
   -2.9910   68.4220   66.3080 C   0  0  0  0  0  0  0  0  0  0  0  0
   -2.0650   69.1460   65.5500 C   0  0  0  0  0  0  0  0  0  0  0  0
   -0.6920   68.9980   65.7650 C   0  0  0  0  0  0  0  0  0  0  0  0
   -4.3540   68.4890   66.0020 N   0  0  0  0  0  0  0  0  0  0  0  0
    1.6946   65.5615   66.4589 H   0  0  0  0  0  0  0  0  0  0  0  0
    1.3791   68.4445   64.2160 H   0  0  0  0  0  0  0  0  0  0  0  0
    0.8279   69.1774   62.9564 H   0  0  0  0  0  0  0  0  0  0  0  0
    1.0558   70.0463   61.4009 H   0  0  0  0  0  0  0  0  0  0  0  0
    0.6297   68.3013   61.4009 H   0  0  0  0  0  0  0  0  0  0  0  0
    4.8549   63.9526   65.0113 H   0  0  0  0  0  0  0  0  0  0  0  0
    3.8255   63.3331   63.6760 H   0  0  0  0  0  0  0  0  0  0  0  0
    5.5912   63.0032   63.6760 H   0  0  0  0  0  0  0  0  0  0  0  0
   -0.7934   66.5898   68.1952 H   0  0  0  0  0  0  0  0  0  0  0  0
   -3.2401   66.8439   67.7686 H   0  0  0  0  0  0  0  0  0  0  0  0
   -2.4218   69.8404   64.7751 H   0  0  0  0  0  0  0  0  0  0  0  0
    0.0279   69.6034   65.1947 H   0  0  0  0  0  0  0  0  0  0  0  0
   -4.6970   69.1895   65.3293 H   0  0  0  0  0  0  0  0  0  0  0  0
   -5.0149   67.8378   66.4494 H   0  0  0  0  0  0  0  0  0  0  0  0
  3  2  2  0
  4  3  1  0
  5  4  2  0
  6  5  1  0
  6  1  1  0
  7  2  1  0
  7  6  2  0
  9  2  1  0
  9  8  1  0
 10  4  1  0
 11 10  1  0
 12  1  1  0
 13 12  2  0
 14 12  2  0
 15 12  1  0
 16 15  2  0
 17 16  1  0
 18 17  2  0
 19 18  1  0
 20 19  2  0
 20 15  1  0
 21 18  1  0
  1 22  1  0
  7 23  1  0
  8 24  1  0
  8 25  1  0
  8 26  1  0
 11 27  1  0
 11 28  1  0
 11 29  1  0
 16 30  1  0
 17 31  1  0
 19 32  1  0
 20 33  1  0
 21 34  1  0
 21 35  1  0
M  END
>  <score>  (8) 
-8.103

$$$$
=
     RDKit          3D

 35 36  0  0  0  0  0  0  0  0999 V2000
    1.8410   66.7620   66.1590 N   0  0  0  0  0  0  0  0  0  0  0  0
    4.1040   68.9460   64.3330 C   0  0  0  0  0  0  0  0  0  0  0  0
    3.4080   69.1130   63.1960 N   0  0  0  0  0  0  0  0  0  0  0  0
    2.2230   68.4870   63.1410 C   0  0  0  0  0  0  0  0  0  0  0  0
    1.6970   67.7290   64.1090 N   0  0  0  0  0  0  0  0  0  0  0  0
    2.4530   67.5950   65.2010 C   0  0  0  0  0  0  0  0  0  0  0  0
    3.6730   68.1880   65.3890 C   0  0  0  0  0  0  0  0  0  0  0  0
    5.5880   69.9990   65.8120 C   0  0  0  0  0  0  0  0  0  0  0  0
    5.3340   69.5550   64.4830 O   0  0  0  0  0  0  0  0  0  0  0  0
    1.4320   68.6090   62.0200 O   0  0  0  0  0  0  0  0  0  0  0  0
    0.0420   68.6340   62.3160 C   0  0  0  0  0  0  0  0  0  0  0  0
    1.2000   67.5010   67.5280 S   0  0  0  0  0  6  0  0  0  0  0  0
    1.2020   66.5470   68.6170 O   0  0  0  0  0  0  0  0  0  0  0  0
    1.8590   68.7830   67.6570 O   0  0  0  0  0  0  0  0  0  0  0  0
   -0.4910   67.8190   67.0780 C   0  0  0  0  0  0  0  0  0  0  0  0
   -1.5200   67.0660   67.6460 C   0  0  0  0  0  0  0  0  0  0  0  0
   -2.8430   67.3270   67.2820 C   0  0  0  0  0  0  0  0  0  0  0  0
   -3.1510   68.3650   66.3960 C   0  0  0  0  0  0  0  0  0  0  0  0
   -2.1040   69.0800   65.8040 C   0  0  0  0  0  0  0  0  0  0  0  0
   -0.7760   68.8320   66.1600 C   0  0  0  0  0  0  0  0  0  0  0  0
   -4.4630   68.5370   65.9450 N   0  0  0  0  0  0  0  0  0  0  0  0
    1.7882   65.7419   66.0265 H   0  0  0  0  0  0  0  0  0  0  0  0
    4.2585   68.0656   66.3121 H   0  0  0  0  0  0  0  0  0  0  0  0
    5.1728   69.2732   66.5267 H   0  0  0  0  0  0  0  0  0  0  0  0
    6.6733   70.0874   65.9679 H   0  0  0  0  0  0  0  0  0  0  0  0
    5.1141   70.9794   65.9679 H   0  0  0  0  0  0  0  0  0  0  0  0
   -0.1006   68.6366   63.4067 H   0  0  0  0  0  0  0  0  0  0  0  0
   -0.4084   69.5404   61.8852 H   0  0  0  0  0  0  0  0  0  0  0  0
   -0.4407   67.7444   61.8852 H   0  0  0  0  0  0  0  0  0  0  0  0
   -1.2909   66.2738   68.3740 H   0  0  0  0  0  0  0  0  0  0  0  0
   -3.6527   66.7088   67.6971 H   0  0  0  0  0  0  0  0  0  0  0  0
   -2.3294   69.8472   65.0486 H   0  0  0  0  0  0  0  0  0  0  0  0
    0.0372   69.4289   65.7214 H   0  0  0  0  0  0  0  0  0  0  0  0
   -4.6872   69.3020   65.2927 H   0  0  0  0  0  0  0  0  0  0  0  0
   -5.2054   67.8988   66.2650 H   0  0  0  0  0  0  0  0  0  0  0  0
  3  2  2  0
  4  3  1  0
  5  4  2  0
  6  5  1  0
  6  1  1  0
  7  2  1  0
  7  6  2  0
  9  2  1  0
  9  8  1  0
 10  4  1  0
 11 10  1  0
 12  1  1  0
 13 12  2  0
 14 12  2  0
 15 12  1  0
 16 15  2  0
 17 16  1  0
 18 17  2  0
 19 18  1  0
 20 19  2  0
 20 15  1  0
 21 18  1  0
  1 22  1  0
  7 23  1  0
  8 24  1  0
  8 25  1  0
  8 26  1  0
 11 27  1  0
 11 28  1  0
 11 29  1  0
 16 30  1  0
 17 31  1  0
 19 32  1  0
 20 33  1  0
 21 34  1  0
 21 35  1  0
M  END
>  <score>  (9) 
-8.033

$$$$
