=
     RDKit          3D

 51 54  0  0  0  0  0  0  0  0999 V2000
    1.7710   68.5380   67.4270 N   0  0  0  0  0  0  0  0  0  0  0  0
    0.6480   68.6880   66.5600 C   0  0  0  0  0  0  0  0  0  0  0  0
   -0.6530   68.9330   67.0310 C   0  0  0  0  0  0  0  0  0  0  0  0
   -1.7360   69.0480   66.1520 C   0  0  0  0  0  0  0  0  0  0  0  0
   -1.5400   68.9260   64.7810 C   0  0  0  0  0  0  0  0  0  0  0  0
   -0.2610   68.7040   64.2830 C   0  0  0  0  0  0  0  0  0  0  0  0
    0.8260   68.5950   65.1590 C   0  0  0  0  0  0  0  0  0  0  0  0
    2.4420   68.2820   64.4590 S   0  0  0  0  0  0  0  0  0  0  0  0
    3.4540   69.0590   65.7100 C   0  0  0  0  0  0  0  0  0  0  0  0
    3.0320   69.1050   67.0620 C   0  0  0  0  0  0  0  0  0  0  0  0
    3.8870   69.7310   67.9850 C   0  0  0  0  0  0  0  0  0  0  0  0
    5.1210   70.2530   67.5850 C   0  0  0  0  0  0  0  0  0  0  0  0
    6.1460   70.9840   68.7570 Cl  0  0  0  0  0  0  0  0  0  0  0  0
    5.5300   70.1800   66.2610 C   0  0  0  0  0  0  0  0  0  0  0  0
    4.6940   69.5860   65.3200 C   0  0  0  0  0  0  0  0  0  0  0  0
    1.5290   68.2440   68.8540 C   0  0  0  0  0  0  0  0  0  0  0  0
    0.9200   66.8490   69.1060 C   0  0  0  0  0  0  0  0  0  0  0  0
    1.5420   65.9400   70.1720 C   0  0  0  0  0  0  0  0  0  0  0  0
    2.3110   62.2980   73.5820 C   0  0  0  0  0  0  0  0  0  0  0  0
    1.9250   62.6300   72.1550 N   0  0  0  0  0  4  0  0  0  0  0  0
    3.0800   63.2870   71.4020 C   0  0  0  0  0  0  0  0  0  0  0  0
    2.6820   63.6370   69.9460 C   0  0  0  0  0  0  0  0  0  0  0  0
    1.4050   64.4590   69.8850 N   0  0  0  0  0  4  0  0  0  0  0  0
    0.2560   63.7950   70.6440 C   0  0  0  0  0  0  0  0  0  0  0  0
    0.6440   63.4620   72.1040 C   0  0  0  0  0  0  0  0  0  0  0  0
   -0.8238   69.0365   68.1127 H   0  0  0  0  0  0  0  0  0  0  0  0
   -2.7453   69.2355   66.5471 H   0  0  0  0  0  0  0  0  0  0  0  0
   -2.3942   69.0049   64.0924 H   0  0  0  0  0  0  0  0  0  0  0  0
   -0.1026   68.6138   63.1982 H   0  0  0  0  0  0  0  0  0  0  0  0
    3.5808   69.8116   69.0384 H   0  0  0  0  0  0  0  0  0  0  0  0
    6.5057   70.5877   65.9580 H   0  0  0  0  0  0  0  0  0  0  0  0
    5.0068   69.5296   64.2669 H   0  0  0  0  0  0  0  0  0  0  0  0
    2.4883   68.3057   69.3887 H   0  0  0  0  0  0  0  0  0  0  0  0
    0.7986   68.9832   69.2148 H   0  0  0  0  0  0  0  0  0  0  0  0
   -0.1311   67.0045   69.3906 H   0  0  0  0  0  0  0  0  0  0  0  0
    1.1046   66.3105   68.1648 H   0  0  0  0  0  0  0  0  0  0  0  0
    2.6132   66.1789   70.2462 H   0  0  0  0  0  0  0  0  0  0  0  0
    0.9956   66.1316   71.1073 H   0  0  0  0  0  0  0  0  0  0  0  0
    1.6639   62.8546   74.2758 H   0  0  0  0  0  0  0  0  0  0  0  0
    2.1890   61.2183   73.7531 H   0  0  0  0  0  0  0  0  0  0  0  0
    3.3604   62.5801   73.7531 H   0  0  0  0  0  0  0  0  0  0  0  0
    1.7225   61.7451   71.6683 H   0  0  0  0  0  0  0  0  0  0  0  0
    3.3688   64.2103   71.9255 H   0  0  0  0  0  0  0  0  0  0  0  0
    3.9193   62.5767   71.3693 H   0  0  0  0  0  0  0  0  0  0  0  0
    3.4973   64.2131   69.4840 H   0  0  0  0  0  0  0  0  0  0  0  0
    2.5047   62.6946   69.4071 H   0  0  0  0  0  0  0  0  0  0  0  0
    1.1584   64.4555   68.8850 H   0  0  0  0  0  0  0  0  0  0  0  0
   -0.6062   64.4781   70.6523 H   0  0  0  0  0  0  0  0  0  0  0  0
    0.0106   62.8521   70.1334 H   0  0  0  0  0  0  0  0  0  0  0  0
    0.8021   64.3997   72.6569 H   0  0  0  0  0  0  0  0  0  0  0  0
   -0.1705   62.8789   72.5584 H   0  0  0  0  0  0  0  0  0  0  0  0
  2  1  1  0
  3  2  2  0
  4  3  1  0
  5  4  2  0
  6  5  1  0
  7  6  2  0
  7  2  1  0
  8  7  1  0
  9  8  1  0
 10  9  2  0
 10  1  1  0
 11 10  1  0
 12 11  2  0
 13 12  1  0
 14 12  1  0
 15  9  1  0
 15 14  2  0
 16  1  1  0
 17 16  1  0
 18 17  1  0
 20 19  1  0
 21 20  1  0
 22 21  1  0
 23 22  1  0
 23 18  1  0
 24 23  1  0
 25 24  1  0
 25 20  1  0
  3 26  1  0
  4 27  1  0
  5 28  1  0
  6 29  1  0
 11 30  1  0
 14 31  1  0
 15 32  1  0
 16 33  1  0
 16 34  1  0
 17 35  1  0
 17 36  1  0
 18 37  1  0
 18 38  1  0
 19 39  1  0
 19 40  1  0
 19 41  1  0
 20 42  1  0
 21 43  1  0
 21 44  1  0
 22 45  1  0
 22 46  1  0
 23 47  1  0
 24 48  1  0
 24 49  1  0
 25 50  1  0
 25 51  1  0
M  CHG  2  20   1  23   1
M  END
>  <score>  (1) 
-9.509

$$$$
=
     RDKit          3D

 51 54  0  0  0  0  0  0  0  0999 V2000
    1.4680   68.5670   66.2430 N   0  0  0  0  0  0  0  0  0  0  0  0
    1.0270   68.6950   64.8920 C   0  0  0  0  0  0  0  0  0  0  0  0
   -0.3110   68.9520   64.5470 C   0  0  0  0  0  0  0  0  0  0  0  0
   -0.7120   69.0450   63.2090 C   0  0  0  0  0  0  0  0  0  0  0  0
    0.2170   68.8890   62.1870 C   0  0  0  0  0  0  0  0  0  0  0  0
    1.5520   68.6540   62.4970 C   0  0  0  0  0  0  0  0  0  0  0  0
    1.9590   68.5670   63.8340 C   0  0  0  0  0  0  0  0  0  0  0  0
    3.6850   68.2370   64.1690 S   0  0  0  0  0  0  0  0  0  0  0  0
    3.8320   69.0460   65.7560 C   0  0  0  0  0  0  0  0  0  0  0  0
    2.7250   69.1250   66.6360 C   0  0  0  0  0  0  0  0  0  0  0  0
    2.9230   69.7740   67.8670 C   0  0  0  0  0  0  0  0  0  0  0  0
    4.1760   70.2860   68.2180 C   0  0  0  0  0  0  0  0  0  0  0  0
    4.3780   71.0470   69.7470 Cl  0  0  0  0  0  0  0  0  0  0  0  0
    5.2570   70.1800   67.3530 C   0  0  0  0  0  0  0  0  0  0  0  0
    5.0840   69.5620   66.1170 C   0  0  0  0  0  0  0  0  0  0  0  0
    0.4630   68.3090   67.2940 C   0  0  0  0  0  0  0  0  0  0  0  0
    0.2890   66.8140   67.6330 C   0  0  0  0  0  0  0  0  0  0  0  0
   -0.4150   66.4170   68.9350 C   0  0  0  0  0  0  0  0  0  0  0  0
    1.5830   62.4480   71.3300 C   0  0  0  0  0  0  0  0  0  0  0  0
    1.4530   63.9570   71.2790 N   0  0  0  0  0  4  0  0  0  0  0  0
    0.0120   64.4020   71.5190 C   0  0  0  0  0  0  0  0  0  0  0  0
   -0.1240   65.9440   71.4540 C   0  0  0  0  0  0  0  0  0  0  0  0
    0.4560   66.5150   70.1710 N   0  0  0  0  0  4  0  0  0  0  0  0
    1.8980   66.0610   69.9370 C   0  0  0  0  0  0  0  0  0  0  0  0
    2.0320   64.5210   69.9820 C   0  0  0  0  0  0  0  0  0  0  0  0
   -1.0578   69.0826   65.3440 H   0  0  0  0  0  0  0  0  0  0  0  0
   -1.7664   69.2423   62.9655 H   0  0  0  0  0  0  0  0  0  0  0  0
   -0.1028   68.9512   61.1364 H   0  0  0  0  0  0  0  0  0  0  0  0
    2.2901   68.5362   61.6900 H   0  0  0  0  0  0  0  0  0  0  0  0
    2.0794   69.8808   68.5649 H   0  0  0  0  0  0  0  0  0  0  0  0
    6.2403   70.5802   67.6411 H   0  0  0  0  0  0  0  0  0  0  0  0
    5.9326   69.4786   65.4220 H   0  0  0  0  0  0  0  0  0  0  0  0
    0.7721   68.8384   68.2074 H   0  0  0  0  0  0  0  0  0  0  0  0
   -0.5036   68.6656   66.9086 H   0  0  0  0  0  0  0  0  0  0  0  0
   -0.2825   66.3625   66.8087 H   0  0  0  0  0  0  0  0  0  0  0  0
    1.3199   66.4576   67.7752 H   0  0  0  0  0  0  0  0  0  0  0  0
   -1.2833   67.0782   69.0724 H   0  0  0  0  0  0  0  0  0  0  0  0
   -0.6953   65.3584   68.8309 H   0  0  0  0  0  0  0  0  0  0  0  0
    1.6115   62.1177   72.3788 H   0  0  0  0  0  0  0  0  0  0  0  0
    0.7211   61.9884   70.8241 H   0  0  0  0  0  0  0  0  0  0  0  0
    2.5108   62.1426   70.8241 H   0  0  0  0  0  0  0  0  0  0  0  0
    2.0135   64.3494   72.0489 H   0  0  0  0  0  0  0  0  0  0  0  0
   -0.6335   63.9534   70.7496 H   0  0  0  0  0  0  0  0  0  0  0  0
   -0.2888   64.0709   72.5239 H   0  0  0  0  0  0  0  0  0  0  0  0
   -1.1902   66.2088   71.5100 H   0  0  0  0  0  0  0  0  0  0  0  0
    0.4376   66.3696   72.2986 H   0  0  0  0  0  0  0  0  0  0  0  0
    0.4752   67.5305   70.3422 H   0  0  0  0  0  0  0  0  0  0  0  0
    2.2276   66.4180   68.9501 H   0  0  0  0  0  0  0  0  0  0  0  0
    2.5222   66.4812   70.7393 H   0  0  0  0  0  0  0  0  0  0  0  0
    1.4901   64.0880   69.1283 H   0  0  0  0  0  0  0  0  0  0  0  0
    3.0998   64.2612   69.9336 H   0  0  0  0  0  0  0  0  0  0  0  0
  2  1  1  0
  3  2  2  0
  4  3  1  0
  5  4  2  0
  6  5  1  0
  7  6  2  0
  7  2  1  0
  8  7  1  0
  9  8  1  0
 10  9  2  0
 10  1  1  0
 11 10  1  0
 12 11  2  0
 13 12  1  0
 14 12  1  0
 15  9  1  0
 15 14  2  0
 16  1  1  0
 17 16  1  0
 18 17  1  0
 20 19  1  0
 21 20  1  0
 22 21  1  0
 23 22  1  0
 23 18  1  0
 24 23  1  0
 25 24  1  0
 25 20  1  0
  3 26  1  0
  4 27  1  0
  5 28  1  0
  6 29  1  0
 11 30  1  0
 14 31  1  0
 15 32  1  0
 16 33  1  0
 16 34  1  0
 17 35  1  0
 17 36  1  0
 18 37  1  0
 18 38  1  0
 19 39  1  0
 19 40  1  0
 19 41  1  0
 20 42  1  0
 21 43  1  0
 21 44  1  0
 22 45  1  0
 22 46  1  0
 23 47  1  0
 24 48  1  0
 24 49  1  0
 25 50  1  0
 25 51  1  0
M  CHG  2  20   1  23   1
M  END
>  <score>  (2) 
-9.044

$$$$
=
     RDKit          3D

 51 54  0  0  0  0  0  0  0  0999 V2000
    3.0920   68.3880   64.9150 N   0  0  0  0  0  0  0  0  0  0  0  0
    3.2710   68.6300   63.5200 C   0  0  0  0  0  0  0  0  0  0  0  0
    2.2000   68.6890   62.6130 C   0  0  0  0  0  0  0  0  0  0  0  0
    2.4150   68.9020   61.2460 C   0  0  0  0  0  0  0  0  0  0  0  0
    3.7060   69.0670   60.7580 C   0  0  0  0  0  0  0  0  0  0  0  0
    4.7850   69.0340   61.6350 C   0  0  0  0  0  0  0  0  0  0  0  0
    4.5740   68.8280   63.0040 C   0  0  0  0  0  0  0  0  0  0  0  0
    6.0040   68.7700   64.0770 S   0  0  0  0  0  0  0  0  0  0  0  0
    5.2530   69.3510   65.5910 C   0  0  0  0  0  0  0  0  0  0  0  0
    3.8860   69.1000   65.8680 C   0  0  0  0  0  0  0  0  0  0  0  0
    3.3730   69.5870   67.0820 C   0  0  0  0  0  0  0  0  0  0  0  0
    4.1930   70.2600   67.9930 C   0  0  0  0  0  0  0  0  0  0  0  0
    3.5260   70.8130   69.4790 Cl  0  0  0  0  0  0  0  0  0  0  0  0
    5.5360   70.4780   67.7160 C   0  0  0  0  0  0  0  0  0  0  0  0
    6.0670   70.0270   66.5110 C   0  0  0  0  0  0  0  0  0  0  0  0
    1.8170   67.8020   65.3740 C   0  0  0  0  0  0  0  0  0  0  0  0
    0.5960   68.7200   65.1560 C   0  0  0  0  0  0  0  0  0  0  0  0
   -0.8080   68.1860   65.4570 C   0  0  0  0  0  0  0  0  0  0  0  0
    0.8670   66.2550   69.8100 C   0  0  0  0  0  0  0  0  0  0  0  0
   -0.0890   67.2250   69.1440 N   0  0  0  0  0  4  0  0  0  0  0  0
   -1.1120   66.4920   68.2780 C   0  0  0  0  0  0  0  0  0  0  0  0
   -2.0820   67.4830   67.5870 C   0  0  0  0  0  0  0  0  0  0  0  0
   -1.3420   68.5680   66.8220 N   0  0  0  0  0  4  0  0  0  0  0  0
   -0.3180   69.2920   67.6960 C   0  0  0  0  0  0  0  0  0  0  0  0
    0.6640   68.3070   68.3720 C   0  0  0  0  0  0  0  0  0  0  0  0
    1.1719   68.5654   62.9841 H   0  0  0  0  0  0  0  0  0  0  0  0
    1.5593   68.9389   60.5558 H   0  0  0  0  0  0  0  0  0  0  0  0
    3.8737   69.2231   59.6821 H   0  0  0  0  0  0  0  0  0  0  0  0
    5.8072   69.1701   61.2521 H   0  0  0  0  0  0  0  0  0  0  0  0
    2.3096   69.4365   67.3195 H   0  0  0  0  0  0  0  0  0  0  0  0
    6.1745   71.0023   68.4422 H   0  0  0  0  0  0  0  0  0  0  0  0
    7.1282   70.2014   66.2798 H   0  0  0  0  0  0  0  0  0  0  0  0
    1.6485   66.8642   64.8243 H   0  0  0  0  0  0  0  0  0  0  0  0
    1.9092   67.6433   66.4586 H   0  0  0  0  0  0  0  0  0  0  0  0
    0.7444   69.6069   65.7895 H   0  0  0  0  0  0  0  0  0  0  0  0
    0.5844   68.8833   64.0683 H   0  0  0  0  0  0  0  0  0  0  0  0
   -1.4968   68.5800   64.6952 H   0  0  0  0  0  0  0  0  0  0  0  0
   -0.7367   67.0884   65.4431 H   0  0  0  0  0  0  0  0  0  0  0  0
    0.7784   66.3449   70.9027 H   0  0  0  0  0  0  0  0  0  0  0  0
    0.6184   65.2277   69.5052 H   0  0  0  0  0  0  0  0  0  0  0  0
    1.8978   66.4886   69.5052 H   0  0  0  0  0  0  0  0  0  0  0  0
   -0.6197   67.7060   69.8841 H   0  0  0  0  0  0  0  0  0  0  0  0
   -0.5803   65.9153   67.5068 H   0  0  0  0  0  0  0  0  0  0  0  0
   -1.7010   65.8267   68.9265 H   0  0  0  0  0  0  0  0  0  0  0  0
   -2.7183   66.9248   66.8845 H   0  0  0  0  0  0  0  0  0  0  0  0
   -2.6828   67.9699   68.3693 H   0  0  0  0  0  0  0  0  0  0  0  0
   -2.0794   69.2460   66.5825 H   0  0  0  0  0  0  0  0  0  0  0  0
    0.2549   69.9902   67.0680 H   0  0  0  0  0  0  0  0  0  0  0  0
   -0.8634   69.8262   68.4879 H   0  0  0  0  0  0  0  0  0  0  0  0
    1.2849   67.8309   67.5988 H   0  0  0  0  0  0  0  0  0  0  0  0
    1.2919   68.8688   69.0792 H   0  0  0  0  0  0  0  0  0  0  0  0
  2  1  1  0
  3  2  2  0
  4  3  1  0
  5  4  2  0
  6  5  1  0
  7  6  2  0
  7  2  1  0
  8  7  1  0
  9  8  1  0
 10  9  2  0
 10  1  1  0
 11 10  1  0
 12 11  2  0
 13 12  1  0
 14 12  1  0
 15  9  1  0
 15 14  2  0
 16  1  1  0
 17 16  1  0
 18 17  1  0
 20 19  1  0
 21 20  1  0
 22 21  1  0
 23 22  1  0
 23 18  1  0
 24 23  1  0
 25 24  1  0
 25 20  1  0
  3 26  1  0
  4 27  1  0
  5 28  1  0
  6 29  1  0
 11 30  1  0
 14 31  1  0
 15 32  1  0
 16 33  1  0
 16 34  1  0
 17 35  1  0
 17 36  1  0
 18 37  1  0
 18 38  1  0
 19 39  1  0
 19 40  1  0
 19 41  1  0
 20 42  1  0
 21 43  1  0
 21 44  1  0
 22 45  1  0
 22 46  1  0
 23 47  1  0
 24 48  1  0
 24 49  1  0
 25 50  1  0
 25 51  1  0
M  CHG  2  20   1  23   1
M  END
>  <score>  (3) 
-8.142

$$$$
=
     RDKit          3D

 51 54  0  0  0  0  0  0  0  0999 V2000
    2.9120   68.5480   65.0800 N   0  0  0  0  0  0  0  0  0  0  0  0
    3.0380   68.7290   63.6700 C   0  0  0  0  0  0  0  0  0  0  0  0
    1.9310   68.8740   62.8180 C   0  0  0  0  0  0  0  0  0  0  0  0
    2.0920   69.0220   61.4350 C   0  0  0  0  0  0  0  0  0  0  0  0
    3.3640   69.0350   60.8760 C   0  0  0  0  0  0  0  0  0  0  0  0
    4.4810   68.9140   61.6970 C   0  0  0  0  0  0  0  0  0  0  0  0
    4.3240   68.7720   63.0810 C   0  0  0  0  0  0  0  0  0  0  0  0
    5.7970   68.5940   64.0800 S   0  0  0  0  0  0  0  0  0  0  0  0
    5.1950   69.2960   65.6100 C   0  0  0  0  0  0  0  0  0  0  0  0
    3.8270   69.1990   65.9650 C   0  0  0  0  0  0  0  0  0  0  0  0
    3.4350   69.7740   67.1860 C   0  0  0  0  0  0  0  0  0  0  0  0
    4.3690   70.3830   68.0300 C   0  0  0  0  0  0  0  0  0  0  0  0
    3.8460   71.0470   69.5280 Cl  0  0  0  0  0  0  0  0  0  0  0  0
    5.7100   70.4490   67.6770 C   0  0  0  0  0  0  0  0  0  0  0  0
    6.1240   69.9080   66.4630 C   0  0  0  0  0  0  0  0  0  0  0  0
    1.6100   68.1140   65.6250 C   0  0  0  0  0  0  0  0  0  0  0  0
    1.7030   67.4750   67.0260 C   0  0  0  0  0  0  0  0  0  0  0  0
    0.4870   66.7370   67.5970 C   0  0  0  0  0  0  0  0  0  0  0  0
   -3.4750   68.8950   65.3330 C   0  0  0  0  0  0  0  0  0  0  0  0
   -2.7150   68.6990   66.6290 N   0  0  0  0  0  4  0  0  0  0  0  0
   -1.3140   69.3030   66.5520 C   0  0  0  0  0  0  0  0  0  0  0  0
   -0.5310   69.0910   67.8720 C   0  0  0  0  0  0  0  0  0  0  0  0
   -0.5140   67.6320   68.2980 N   0  0  0  0  0  4  0  0  0  0  0  0
   -1.9200   67.0360   68.3690 C   0  0  0  0  0  0  0  0  0  0  0  0
   -2.6970   67.2290   67.0460 C   0  0  0  0  0  0  0  0  0  0  0  0
    0.9175   68.8712   63.2456 H   0  0  0  0  0  0  0  0  0  0  0  0
    1.2083   69.1284   60.7887 H   0  0  0  0  0  0  0  0  0  0  0  0
    3.4876   69.1406   59.7881 H   0  0  0  0  0  0  0  0  0  0  0  0
    5.4894   68.9299   61.2578 H   0  0  0  0  0  0  0  0  0  0  0  0
    2.3762   69.7445   67.4826 H   0  0  0  0  0  0  0  0  0  0  0  0
    6.4386   70.9243   68.3502 H   0  0  0  0  0  0  0  0  0  0  0  0
    7.1835   69.9609   66.1721 H   0  0  0  0  0  0  0  0  0  0  0  0
    0.9502   68.9919   65.6874 H   0  0  0  0  0  0  0  0  0  0  0  0
    1.2200   67.3415   64.9459 H   0  0  0  0  0  0  0  0  0  0  0  0
    2.5313   66.7519   66.9943 H   0  0  0  0  0  0  0  0  0  0  0  0
    1.8228   68.3377   67.6979 H   0  0  0  0  0  0  0  0  0  0  0  0
   -0.0273   66.2281   66.7684 H   0  0  0  0  0  0  0  0  0  0  0  0
    0.8704   66.0391   68.3559 H   0  0  0  0  0  0  0  0  0  0  0  0
   -4.5179   69.1640   65.5566 H   0  0  0  0  0  0  0  0  0  0  0  0
   -3.0051   69.7014   64.7507 H   0  0  0  0  0  0  0  0  0  0  0  0
   -3.4537   67.9620   64.7507 H   0  0  0  0  0  0  0  0  0  0  0  0
   -3.2152   69.2108   67.3698 H   0  0  0  0  0  0  0  0  0  0  0  0
   -0.7632   68.8244   65.7289 H   0  0  0  0  0  0  0  0  0  0  0  0
   -1.4135   70.3848   66.3797 H   0  0  0  0  0  0  0  0  0  0  0  0
    0.5053   69.4308   67.7283 H   0  0  0  0  0  0  0  0  0  0  0  0
   -1.0343   69.6688   68.6612 H   0  0  0  0  0  0  0  0  0  0  0  0
   -0.1419   67.6608   69.2580 H   0  0  0  0  0  0  0  0  0  0  0  0
   -1.8394   65.9594   68.5800 H   0  0  0  0  0  0  0  0  0  0  0  0
   -2.4706   67.5569   69.1662 H   0  0  0  0  0  0  0  0  0  0  0  0
   -2.2130   66.6370   66.2553 H   0  0  0  0  0  0  0  0  0  0  0  0
   -3.7343   66.8958   67.1978 H   0  0  0  0  0  0  0  0  0  0  0  0
  2  1  1  0
  3  2  2  0
  4  3  1  0
  5  4  2  0
  6  5  1  0
  7  6  2  0
  7  2  1  0
  8  7  1  0
  9  8  1  0
 10  9  2  0
 10  1  1  0
 11 10  1  0
 12 11  2  0
 13 12  1  0
 14 12  1  0
 15  9  1  0
 15 14  2  0
 16  1  1  0
 17 16  1  0
 18 17  1  0
 20 19  1  0
 21 20  1  0
 22 21  1  0
 23 22  1  0
 23 18  1  0
 24 23  1  0
 25 24  1  0
 25 20  1  0
  3 26  1  0
  4 27  1  0
  5 28  1  0
  6 29  1  0
 11 30  1  0
 14 31  1  0
 15 32  1  0
 16 33  1  0
 16 34  1  0
 17 35  1  0
 17 36  1  0
 18 37  1  0
 18 38  1  0
 19 39  1  0
 19 40  1  0
 19 41  1  0
 20 42  1  0
 21 43  1  0
 21 44  1  0
 22 45  1  0
 22 46  1  0
 23 47  1  0
 24 48  1  0
 24 49  1  0
 25 50  1  0
 25 51  1  0
M  CHG  2  20   1  23   1
M  END
>  <score>  (4) 
-8.092

$$$$
=
     RDKit          3D

 51 54  0  0  0  0  0  0  0  0999 V2000
    2.5330   67.2440   64.6790 N   0  0  0  0  0  0  0  0  0  0  0  0
    3.2660   66.0260   64.5520 C   0  0  0  0  0  0  0  0  0  0  0  0
    3.0150   64.8980   65.3510 C   0  0  0  0  0  0  0  0  0  0  0  0
    3.7720   63.7290   65.2160 C   0  0  0  0  0  0  0  0  0  0  0  0
    4.7930   63.6590   64.2750 C   0  0  0  0  0  0  0  0  0  0  0  0
    5.0520   64.7530   63.4560 C   0  0  0  0  0  0  0  0  0  0  0  0
    4.2920   65.9230   63.5830 C   0  0  0  0  0  0  0  0  0  0  0  0
    4.6910   67.3040   62.5180 S   0  0  0  0  0  0  0  0  0  0  0  0
    3.0800   68.0730   62.4280 C   0  0  0  0  0  0  0  0  0  0  0  0
    2.1680   67.9800   63.5080 C   0  0  0  0  0  0  0  0  0  0  0  0
    0.9240   68.6150   63.3600 C   0  0  0  0  0  0  0  0  0  0  0  0
    0.6190   69.3420   62.2040 C   0  0  0  0  0  0  0  0  0  0  0  0
   -0.9070   70.1270   62.0800 Cl  0  0  0  0  0  0  0  0  0  0  0  0
    1.5330   69.4430   61.1640 C   0  0  0  0  0  0  0  0  0  0  0  0
    2.7650   68.8040   61.2740 C   0  0  0  0  0  0  0  0  0  0  0  0
    1.7630   67.4810   65.9160 C   0  0  0  0  0  0  0  0  0  0  0  0
    2.3420   68.6010   66.8050 C   0  0  0  0  0  0  0  0  0  0  0  0
    3.8540   68.8500   66.8080 C   0  0  0  0  0  0  0  0  0  0  0  0
    7.4410   70.5690   69.9160 C   0  0  0  0  0  0  0  0  0  0  0  0
    6.4110   70.9200   68.8610 N   0  0  0  0  0  4  0  0  0  0  0  0
    4.9920   70.6300   69.3490 C   0  0  0  0  0  0  0  0  0  0  0  0
    3.9390   70.9760   68.2670 C   0  0  0  0  0  0  0  0  0  0  0  0
    4.2460   70.3080   66.9370 N   0  0  0  0  0  4  0  0  0  0  0  0
    5.6690   70.6010   66.4590 C   0  0  0  0  0  0  0  0  0  0  0  0
    6.7240   70.2380   67.5300 C   0  0  0  0  0  0  0  0  0  0  0  0
    2.2077   64.9345   66.0972 H   0  0  0  0  0  0  0  0  0  0  0  0
    3.5583   62.8613   65.8574 H   0  0  0  0  0  0  0  0  0  0  0  0
    5.3934   62.7424   64.1786 H   0  0  0  0  0  0  0  0  0  0  0  0
    5.8556   64.6994   62.7067 H   0  0  0  0  0  0  0  0  0  0  0  0
    0.1782   68.5397   64.1650 H   0  0  0  0  0  0  0  0  0  0  0  0
    1.2863   70.0222   60.2620 H   0  0  0  0  0  0  0  0  0  0  0  0
    3.4936   68.8729   60.4528 H   0  0  0  0  0  0  0  0  0  0  0  0
    0.7350   67.7560   65.6373 H   0  0  0  0  0  0  0  0  0  0  0  0
    1.8058   66.5517   66.5030 H   0  0  0  0  0  0  0  0  0  0  0  0
    1.8628   69.5400   66.4910 H   0  0  0  0  0  0  0  0  0  0  0  0
    2.1329   68.2557   67.8282 H   0  0  0  0  0  0  0  0  0  0  0  0
    4.2920   68.2995   67.6536 H   0  0  0  0  0  0  0  0  0  0  0  0
    4.2314   68.5076   65.8331 H   0  0  0  0  0  0  0  0  0  0  0  0
    7.0069   70.7169   70.9158 H   0  0  0  0  0  0  0  0  0  0  0  0
    7.7421   69.5175   69.7989 H   0  0  0  0  0  0  0  0  0  0  0  0
    8.3215   71.2178   69.7989 H   0  0  0  0  0  0  0  0  0  0  0  0
    6.4625   71.9348   68.6923 H   0  0  0  0  0  0  0  0  0  0  0  0
    4.9109   69.5617   69.5983 H   0  0  0  0  0  0  0  0  0  0  0  0
    4.7965   71.2539   70.2336 H   0  0  0  0  0  0  0  0  0  0  0  0
    2.9507   70.6394   68.6133 H   0  0  0  0  0  0  0  0  0  0  0  0
    3.9577   72.0648   68.1117 H   0  0  0  0  0  0  0  0  0  0  0  0
    3.5985   70.7644   66.2787 H   0  0  0  0  0  0  0  0  0  0  0  0
    5.8672   70.0127   65.5510 H   0  0  0  0  0  0  0  0  0  0  0  0
    5.7453   71.6797   66.2575 H   0  0  0  0  0  0  0  0  0  0  0  0
    6.7273   69.1478   67.6766 H   0  0  0  0  0  0  0  0  0  0  0  0
    7.7089   70.5834   67.1826 H   0  0  0  0  0  0  0  0  0  0  0  0
  2  1  1  0
  3  2  2  0
  4  3  1  0
  5  4  2  0
  6  5  1  0
  7  6  2  0
  7  2  1  0
  8  7  1  0
  9  8  1  0
 10  9  2  0
 10  1  1  0
 11 10  1  0
 12 11  2  0
 13 12  1  0
 14 12  1  0
 15  9  1  0
 15 14  2  0
 16  1  1  0
 17 16  1  0
 18 17  1  0
 20 19  1  0
 21 20  1  0
 22 21  1  0
 23 22  1  0
 23 18  1  0
 24 23  1  0
 25 24  1  0
 25 20  1  0
  3 26  1  0
  4 27  1  0
  5 28  1  0
  6 29  1  0
 11 30  1  0
 14 31  1  0
 15 32  1  0
 16 33  1  0
 16 34  1  0
 17 35  1  0
 17 36  1  0
 18 37  1  0
 18 38  1  0
 19 39  1  0
 19 40  1  0
 19 41  1  0
 20 42  1  0
 21 43  1  0
 21 44  1  0
 22 45  1  0
 22 46  1  0
 23 47  1  0
 24 48  1  0
 24 49  1  0
 25 50  1  0
 25 51  1  0
M  CHG  2  20   1  23   1
M  END
>  <score>  (5) 
-7.97

$$$$
=
     RDKit          3D

 51 54  0  0  0  0  0  0  0  0999 V2000
    2.3800   60.0360   72.4090 N   0  0  0  0  0  0  0  0  0  0  0  0
    2.6650   60.7550   71.2090 C   0  0  0  0  0  0  0  0  0  0  0  0
    3.5560   60.2830   70.2310 C   0  0  0  0  0  0  0  0  0  0  0  0
    3.8320   61.0280   69.0780 C   0  0  0  0  0  0  0  0  0  0  0  0
    3.2170   62.2580   68.8760 C   0  0  0  0  0  0  0  0  0  0  0  0
    2.3140   62.7420   69.8160 C   0  0  0  0  0  0  0  0  0  0  0  0
    2.0300   61.9960   70.9670 C   0  0  0  0  0  0  0  0  0  0  0  0
    0.8800   62.6840   72.1520 S   0  0  0  0  0  0  0  0  0  0  0  0
    0.2390   61.1670   72.8470 C   0  0  0  0  0  0  0  0  0  0  0  0
    1.0440   60.0030   72.9170 C   0  0  0  0  0  0  0  0  0  0  0  0
    0.4670   58.8530   73.4810 C   0  0  0  0  0  0  0  0  0  0  0  0
   -0.8370   58.8730   73.9850 C   0  0  0  0  0  0  0  0  0  0  0  0
   -1.4910   57.4470   74.6920 Cl  0  0  0  0  0  0  0  0  0  0  0  0
   -1.6050   60.0290   73.9290 C   0  0  0  0  0  0  0  0  0  0  0  0
   -1.0670   61.1780   73.3550 C   0  0  0  0  0  0  0  0  0  0  0  0
    3.3120   58.9730   72.8350 C   0  0  0  0  0  0  0  0  0  0  0  0
    4.1530   59.3450   74.0740 C   0  0  0  0  0  0  0  0  0  0  0  0
    3.7630   58.7780   75.4440 C   0  0  0  0  0  0  0  0  0  0  0  0
    2.4400   56.0780   79.4990 C   0  0  0  0  0  0  0  0  0  0  0  0
    3.0700   56.0590   78.1200 N   0  0  0  0  0  4  0  0  0  0  0  0
    4.3570   56.8820   78.0840 C   0  0  0  0  0  0  0  0  0  0  0  0
    4.9950   56.8740   76.6730 C   0  0  0  0  0  0  0  0  0  0  0  0
    4.0070   57.2910   75.5960 N   0  0  0  0  0  4  0  0  0  0  0  0
    2.7210   56.4640   75.6430 C   0  0  0  0  0  0  0  0  0  0  0  0
    2.0720   56.4860   77.0460 C   0  0  0  0  0  0  0  0  0  0  0  0
    4.0466   59.3089   70.3737 H   0  0  0  0  0  0  0  0  0  0  0  0
    4.5379   60.6386   68.3296 H   0  0  0  0  0  0  0  0  0  0  0  0
    3.4440   62.8468   67.9750 H   0  0  0  0  0  0  0  0  0  0  0  0
    1.8217   63.7125   69.6555 H   0  0  0  0  0  0  0  0  0  0  0  0
    1.0506   57.9217   73.5268 H   0  0  0  0  0  0  0  0  0  0  0  0
   -2.6277   60.0368   74.3339 H   0  0  0  0  0  0  0  0  0  0  0  0
   -1.6690   62.0970   73.3002 H   0  0  0  0  0  0  0  0  0  0  0  0
    2.7267   58.0719   73.0704 H   0  0  0  0  0  0  0  0  0  0  0  0
    4.0161   58.8115   72.0054 H   0  0  0  0  0  0  0  0  0  0  0  0
    5.1834   59.0169   73.8726 H   0  0  0  0  0  0  0  0  0  0  0  0
    3.9895   60.4272   74.1841 H   0  0  0  0  0  0  0  0  0  0  0  0
    4.3478   59.3034   76.2134 H   0  0  0  0  0  0  0  0  0  0  0  0
    2.6791   58.9317   75.5514 H   0  0  0  0  0  0  0  0  0  0  0  0
    3.2305   56.0542   80.2636 H   0  0  0  0  0  0  0  0  0  0  0  0
    1.8433   56.9945   79.6169 H   0  0  0  0  0  0  0  0  0  0  0  0
    1.7892   55.1991   79.6169 H   0  0  0  0  0  0  0  0  0  0  0  0
    3.3354   55.0870   77.9063 H   0  0  0  0  0  0  0  0  0  0  0  0
    4.1259   57.9198   78.3662 H   0  0  0  0  0  0  0  0  0  0  0  0
    5.0729   56.4352   78.7896 H   0  0  0  0  0  0  0  0  0  0  0  0
    5.8449   57.5723   76.6641 H   0  0  0  0  0  0  0  0  0  0  0  0
    5.3203   55.8462   76.4544 H   0  0  0  0  0  0  0  0  0  0  0  0
    4.4912   57.0614   74.7164 H   0  0  0  0  0  0  0  0  0  0  0  0
    2.0069   56.8754   74.9144 H   0  0  0  0  0  0  0  0  0  0  0  0
    2.9772   55.4217   75.4024 H   0  0  0  0  0  0  0  0  0  0  0  0
    1.7234   57.5061   77.2647 H   0  0  0  0  0  0  0  0  0  0  0  0
    1.2287   55.7797   77.0520 H   0  0  0  0  0  0  0  0  0  0  0  0
  2  1  1  0
  3  2  2  0
  4  3  1  0
  5  4  2  0
  6  5  1  0
  7  6  2  0
  7  2  1  0
  8  7  1  0
  9  8  1  0
 10  9  2  0
 10  1  1  0
 11 10  1  0
 12 11  2  0
 13 12  1  0
 14 12  1  0
 15  9  1  0
 15 14  2  0
 16  1  1  0
 17 16  1  0
 18 17  1  0
 20 19  1  0
 21 20  1  0
 22 21  1  0
 23 22  1  0
 23 18  1  0
 24 23  1  0
 25 24  1  0
 25 20  1  0
  3 26  1  0
  4 27  1  0
  5 28  1  0
  6 29  1  0
 11 30  1  0
 14 31  1  0
 15 32  1  0
 16 33  1  0
 16 34  1  0
 17 35  1  0
 17 36  1  0
 18 37  1  0
 18 38  1  0
 19 39  1  0
 19 40  1  0
 19 41  1  0
 20 42  1  0
 21 43  1  0
 21 44  1  0
 22 45  1  0
 22 46  1  0
 23 47  1  0
 24 48  1  0
 24 49  1  0
 25 50  1  0
 25 51  1  0
M  CHG  2  20   1  23   1
M  END
>  <score>  (6) 
-7.873

$$$$
=
     RDKit          3D

 51 54  0  0  0  0  0  0  0  0999 V2000
    3.9920   70.1640   67.4690 N   0  0  0  0  0  0  0  0  0  0  0  0
    5.1520   70.3780   68.2730 C   0  0  0  0  0  0  0  0  0  0  0  0
    5.1370   70.2840   69.6750 C   0  0  0  0  0  0  0  0  0  0  0  0
    6.2880   70.5270   70.4320 C   0  0  0  0  0  0  0  0  0  0  0  0
    7.4810   70.8640   69.8050 C   0  0  0  0  0  0  0  0  0  0  0  0
    7.5330   70.9450   68.4170 C   0  0  0  0  0  0  0  0  0  0  0  0
    6.3850   70.6960   67.6550 C   0  0  0  0  0  0  0  0  0  0  0  0
    6.5080   70.8420   65.8760 S   0  0  0  0  0  0  0  0  0  0  0  0
    5.2360   69.6800   65.4020 C   0  0  0  0  0  0  0  0  0  0  0  0
    4.1070   69.4610   66.2290 C   0  0  0  0  0  0  0  0  0  0  0  0
    3.1490   68.5340   65.7830 C   0  0  0  0  0  0  0  0  0  0  0  0
    3.2930   67.8850   64.5520 C   0  0  0  0  0  0  0  0  0  0  0  0
    2.0800   66.7800   64.0350 Cl  0  0  0  0  0  0  0  0  0  0  0  0
    4.3940   68.1290   63.7430 C   0  0  0  0  0  0  0  0  0  0  0  0
    5.3700   69.0250   64.1700 C   0  0  0  0  0  0  0  0  0  0  0  0
    2.6640   70.2280   68.1110 C   0  0  0  0  0  0  0  0  0  0  0  0
    1.9340   68.8690   68.1660 C   0  0  0  0  0  0  0  0  0  0  0  0
    0.4090   68.8300   68.0190 C   0  0  0  0  0  0  0  0  0  0  0  0
   -4.3070   68.6840   66.2260 C   0  0  0  0  0  0  0  0  0  0  0  0
   -2.9280   68.0570   66.2020 N   0  0  0  0  0  4  0  0  0  0  0  0
   -2.5620   67.4600   67.5600 C   0  0  0  0  0  0  0  0  0  0  0  0
   -1.1470   66.8300   67.5400 C   0  0  0  0  0  0  0  0  0  0  0  0
   -0.0970   67.8020   67.0290 N   0  0  0  0  0  4  0  0  0  0  0  0
   -0.4730   68.3960   65.6710 C   0  0  0  0  0  0  0  0  0  0  0  0
   -1.8770   69.0430   65.6940 C   0  0  0  0  0  0  0  0  0  0  0  0
    4.2018   70.0140   70.1873 H   0  0  0  0  0  0  0  0  0  0  0  0
    6.2483   70.4509   71.5286 H   0  0  0  0  0  0  0  0  0  0  0  0
    8.3813   71.0661   70.4038 H   0  0  0  0  0  0  0  0  0  0  0  0
    8.4778   71.2052   67.9173 H   0  0  0  0  0  0  0  0  0  0  0  0
    2.2729   68.3156   66.4113 H   0  0  0  0  0  0  0  0  0  0  0  0
    4.4944   67.6191   62.7735 H   0  0  0  0  0  0  0  0  0  0  0  0
    6.2494   69.2197   63.5385 H   0  0  0  0  0  0  0  0  0  0  0  0
    2.7933   70.5944   69.1401 H   0  0  0  0  0  0  0  0  0  0  0  0
    2.0442   70.9008   67.5001 H   0  0  0  0  0  0  0  0  0  0  0  0
    2.3501   68.2484   67.3587 H   0  0  0  0  0  0  0  0  0  0  0  0
    2.1052   68.5230   69.1960 H   0  0  0  0  0  0  0  0  0  0  0  0
   -0.0260   68.6030   69.0035 H   0  0  0  0  0  0  0  0  0  0  0  0
    0.1051   69.8142   67.6331 H   0  0  0  0  0  0  0  0  0  0  0  0
   -4.6258   68.8289   67.2688 H   0  0  0  0  0  0  0  0  0  0  0  0
   -4.2765   69.6567   65.7133 H   0  0  0  0  0  0  0  0  0  0  0  0
   -5.0200   68.0215   65.7133 H   0  0  0  0  0  0  0  0  0  0  0  0
   -2.9481   67.2747   65.5323 H   0  0  0  0  0  0  0  0  0  0  0  0
   -2.5884   68.2556   68.3191 H   0  0  0  0  0  0  0  0  0  0  0  0
   -3.2888   66.6690   67.7966 H   0  0  0  0  0  0  0  0  0  0  0  0
   -0.8801   66.5244   68.5624 H   0  0  0  0  0  0  0  0  0  0  0  0
   -1.1698   65.9664   66.8591 H   0  0  0  0  0  0  0  0  0  0  0  0
    0.7352   67.2117   66.8881 H   0  0  0  0  0  0  0  0  0  0  0  0
    0.2677   69.1630   65.4009 H   0  0  0  0  0  0  0  0  0  0  0  0
   -0.4855   67.5800   64.9335 H   0  0  0  0  0  0  0  0  0  0  0  0
   -1.8575   69.9206   66.3568 H   0  0  0  0  0  0  0  0  0  0  0  0
   -2.1423   69.3394   64.6684 H   0  0  0  0  0  0  0  0  0  0  0  0
  2  1  1  0
  3  2  2  0
  4  3  1  0
  5  4  2  0
  6  5  1  0
  7  6  2  0
  7  2  1  0
  8  7  1  0
  9  8  1  0
 10  9  2  0
 10  1  1  0
 11 10  1  0
 12 11  2  0
 13 12  1  0
 14 12  1  0
 15  9  1  0
 15 14  2  0
 16  1  1  0
 17 16  1  0
 18 17  1  0
 20 19  1  0
 21 20  1  0
 22 21  1  0
 23 22  1  0
 23 18  1  0
 24 23  1  0
 25 24  1  0
 25 20  1  0
  3 26  1  0
  4 27  1  0
  5 28  1  0
  6 29  1  0
 11 30  1  0
 14 31  1  0
 15 32  1  0
 16 33  1  0
 16 34  1  0
 17 35  1  0
 17 36  1  0
 18 37  1  0
 18 38  1  0
 19 39  1  0
 19 40  1  0
 19 41  1  0
 20 42  1  0
 21 43  1  0
 21 44  1  0
 22 45  1  0
 22 46  1  0
 23 47  1  0
 24 48  1  0
 24 49  1  0
 25 50  1  0
 25 51  1  0
M  CHG  2  20   1  23   1
M  END
>  <score>  (7) 
-7.865

$$$$
=
     RDKit          3D

 51 54  0  0  0  0  0  0  0  0999 V2000
    1.3330   61.4330   72.6000 N   0  0  0  0  0  0  0  0  0  0  0  0
    0.4840   60.4140   73.1270 C   0  0  0  0  0  0  0  0  0  0  0  0
   -0.8480   60.6510   73.5060 C   0  0  0  0  0  0  0  0  0  0  0  0
   -1.6430   59.6320   74.0440 C   0  0  0  0  0  0  0  0  0  0  0  0
   -1.1260   58.3530   74.2090 C   0  0  0  0  0  0  0  0  0  0  0  0
    0.1830   58.0830   73.8250 C   0  0  0  0  0  0  0  0  0  0  0  0
    0.9800   59.0970   73.2800 C   0  0  0  0  0  0  0  0  0  0  0  0
    2.6640   58.6940   72.8290 S   0  0  0  0  0  0  0  0  0  0  0  0
    2.9040   59.8810   71.5150 C   0  0  0  0  0  0  0  0  0  0  0  0
    2.2310   61.1280   71.5300 C   0  0  0  0  0  0  0  0  0  0  0  0
    2.4760   62.0070   70.4620 C   0  0  0  0  0  0  0  0  0  0  0  0
    3.3790   61.6740   69.4470 C   0  0  0  0  0  0  0  0  0  0  0  0
    3.6690   62.7950   68.1750 Cl  0  0  0  0  0  0  0  0  0  0  0  0
    4.0480   60.4580   69.4590 C   0  0  0  0  0  0  0  0  0  0  0  0
    3.8070   59.5570   70.4930 C   0  0  0  0  0  0  0  0  0  0  0  0
    0.9570   62.8450   72.8100 C   0  0  0  0  0  0  0  0  0  0  0  0
    1.5160   63.4510   74.1150 C   0  0  0  0  0  0  0  0  0  0  0  0
    0.6650   63.4040   75.3880 C   0  0  0  0  0  0  0  0  0  0  0  0
   -1.7870   61.4380   79.3390 C   0  0  0  0  0  0  0  0  0  0  0  0
   -0.4430   61.6890   78.6850 N   0  0  0  0  0  4  0  0  0  0  0  0
   -0.1420   63.1840   78.5850 C   0  0  0  0  0  0  0  0  0  0  0  0
    1.2260   63.4420   77.9060 C   0  0  0  0  0  0  0  0  0  0  0  0
    1.3420   62.7340   76.5670 N   0  0  0  0  0  4  0  0  0  0  0  0
    1.0350   61.2390   76.6760 C   0  0  0  0  0  0  0  0  0  0  0  0
   -0.3390   60.9790   77.3370 C   0  0  0  0  0  0  0  0  0  0  0  0
   -1.2745   61.6568   73.3775 H   0  0  0  0  0  0  0  0  0  0  0  0
   -2.6816   59.8449   74.3374 H   0  0  0  0  0  0  0  0  0  0  0  0
   -1.7498   57.5570   74.6417 H   0  0  0  0  0  0  0  0  0  0  0  0
    0.5934   57.0701   73.9498 H   0  0  0  0  0  0  0  0  0  0  0  0
    1.9496   62.9721   70.4233 H   0  0  0  0  0  0  0  0  0  0  0  0
    4.7614   60.2085   68.6597 H   0  0  0  0  0  0  0  0  0  0  0  0
    4.3270   58.5878   70.5079 H   0  0  0  0  0  0  0  0  0  0  0  0
    1.3373   63.4348   71.9630 H   0  0  0  0  0  0  0  0  0  0  0  0
   -0.1399   62.8766   72.8862 H   0  0  0  0  0  0  0  0  0  0  0  0
    2.4553   62.9234   74.3372 H   0  0  0  0  0  0  0  0  0  0  0  0
    1.5918   64.5254   73.8918 H   0  0  0  0  0  0  0  0  0  0  0  0
    0.4167   64.4366   75.6746 H   0  0  0  0  0  0  0  0  0  0  0  0
   -0.2235   62.8005   75.1506 H   0  0  0  0  0  0  0  0  0  0  0  0
   -1.6722   61.4594   80.4328 H   0  0  0  0  0  0  0  0  0  0  0  0
   -2.4970   62.2191   79.0294 H   0  0  0  0  0  0  0  0  0  0  0  0
   -2.1672   60.4533   79.0294 H   0  0  0  0  0  0  0  0  0  0  0  0
    0.2847   61.2820   79.2897 H   0  0  0  0  0  0  0  0  0  0  0  0
   -0.9322   63.6692   77.9932 H   0  0  0  0  0  0  0  0  0  0  0  0
   -0.1061   63.5983   79.6034 H   0  0  0  0  0  0  0  0  0  0  0  0
    1.3444   64.5239   77.7466 H   0  0  0  0  0  0  0  0  0  0  0  0
    2.0119   63.0476   78.5669 H   0  0  0  0  0  0  0  0  0  0  0  0
    2.3389   62.8290   76.3262 H   0  0  0  0  0  0  0  0  0  0  0  0
    1.0324   60.8020   75.6665 H   0  0  0  0  0  0  0  0  0  0  0  0
    1.8093   60.7771   77.3061 H   0  0  0  0  0  0  0  0  0  0  0  0
   -1.1333   61.3505   76.6729 H   0  0  0  0  0  0  0  0  0  0  0  0
   -0.4483   59.8970   77.5023 H   0  0  0  0  0  0  0  0  0  0  0  0
  2  1  1  0
  3  2  2  0
  4  3  1  0
  5  4  2  0
  6  5  1  0
  7  6  2  0
  7  2  1  0
  8  7  1  0
  9  8  1  0
 10  9  2  0
 10  1  1  0
 11 10  1  0
 12 11  2  0
 13 12  1  0
 14 12  1  0
 15  9  1  0
 15 14  2  0
 16  1  1  0
 17 16  1  0
 18 17  1  0
 20 19  1  0
 21 20  1  0
 22 21  1  0
 23 22  1  0
 23 18  1  0
 24 23  1  0
 25 24  1  0
 25 20  1  0
  3 26  1  0
  4 27  1  0
  5 28  1  0
  6 29  1  0
 11 30  1  0
 14 31  1  0
 15 32  1  0
 16 33  1  0
 16 34  1  0
 17 35  1  0
 17 36  1  0
 18 37  1  0
 18 38  1  0
 19 39  1  0
 19 40  1  0
 19 41  1  0
 20 42  1  0
 21 43  1  0
 21 44  1  0
 22 45  1  0
 22 46  1  0
 23 47  1  0
 24 48  1  0
 24 49  1  0
 25 50  1  0
 25 51  1  0
M  CHG  2  20   1  23   1
M  END
>  <score>  (8) 
-7.581

$$$$
=
     RDKit          3D

 51 54  0  0  0  0  0  0  0  0999 V2000
    2.1430   60.2450   72.6890 N   0  0  0  0  0  0  0  0  0  0  0  0
    2.6900   60.6790   71.4440 C   0  0  0  0  0  0  0  0  0  0  0  0
    3.6170   59.9180   70.7120 C   0  0  0  0  0  0  0  0  0  0  0  0
    4.1530   60.3880   69.5070 C   0  0  0  0  0  0  0  0  0  0  0  0
    3.7680   61.6250   69.0050 C   0  0  0  0  0  0  0  0  0  0  0  0
    2.8370   62.3920   69.6970 C   0  0  0  0  0  0  0  0  0  0  0  0
    2.2930   61.9230   70.9000 C   0  0  0  0  0  0  0  0  0  0  0  0
    1.1200   62.9670   71.7560 S   0  0  0  0  0  0  0  0  0  0  0  0
    0.1660   61.7060   72.5900 C   0  0  0  0  0  0  0  0  0  0  0  0
    0.7640   60.4830   72.9810 C   0  0  0  0  0  0  0  0  0  0  0  0
   -0.0530   59.5450   73.6350 C   0  0  0  0  0  0  0  0  0  0  0  0
   -1.3930   59.8290   73.9180 C   0  0  0  0  0  0  0  0  0  0  0  0
   -2.3460   58.6610   74.7460 Cl  0  0  0  0  0  0  0  0  0  0  0  0
   -1.9570   61.0430   73.5480 C   0  0  0  0  0  0  0  0  0  0  0  0
   -1.1780   61.9820   72.8790 C   0  0  0  0  0  0  0  0  0  0  0  0
    2.8350   59.1720   73.4310 C   0  0  0  0  0  0  0  0  0  0  0  0
    2.3790   57.7510   73.0370 C   0  0  0  0  0  0  0  0  0  0  0  0
    2.0530   56.7360   74.1380 C   0  0  0  0  0  0  0  0  0  0  0  0
   -0.4020   53.5670   77.2070 C   0  0  0  0  0  0  0  0  0  0  0  0
   -0.0610   53.9270   75.7740 N   0  0  0  0  0  4  0  0  0  0  0  0
    1.4370   53.7920   75.5070 C   0  0  0  0  0  0  0  0  0  0  0  0
    1.7890   54.1720   74.0470 C   0  0  0  0  0  0  0  0  0  0  0  0
    1.2500   55.5410   73.6670 N   0  0  0  0  0  4  0  0  0  0  0  0
   -0.2490   55.6670   73.9410 C   0  0  0  0  0  0  0  0  0  0  0  0
   -0.6000   55.3070   75.4040 C   0  0  0  0  0  0  0  0  0  0  0  0
    3.9276   58.9340   71.0930 H   0  0  0  0  0  0  0  0  0  0  0  0
    4.8817   59.7756   68.9556 H   0  0  0  0  0  0  0  0  0  0  0  0
    4.1982   61.9965   68.0632 H   0  0  0  0  0  0  0  0  0  0  0  0
    2.5269   63.3694   69.2989 H   0  0  0  0  0  0  0  0  0  0  0  0
    0.3680   58.5722   73.9289 H   0  0  0  0  0  0  0  0  0  0  0  0
   -3.0097   61.2602   73.7816 H   0  0  0  0  0  0  0  0  0  0  0  0
   -1.6178   62.9436   72.5760 H   0  0  0  0  0  0  0  0  0  0  0  0
    3.9145   59.2564   73.2373 H   0  0  0  0  0  0  0  0  0  0  0  0
    2.5875   59.3056   74.4944 H   0  0  0  0  0  0  0  0  0  0  0  0
    1.4719   57.8632   72.4250 H   0  0  0  0  0  0  0  0  0  0  0  0
    3.2619   57.3223   72.5404 H   0  0  0  0  0  0  0  0  0  0  0  0
    3.0004   56.3696   74.5601 H   0  0  0  0  0  0  0  0  0  0  0  0
    1.4306   57.2621   74.8768 H   0  0  0  0  0  0  0  0  0  0  0  0
    0.1895   54.1915   77.8926 H   0  0  0  0  0  0  0  0  0  0  0  0
   -1.4735   53.7418   77.3839 H   0  0  0  0  0  0  0  0  0  0  0  0
   -0.1694   52.5065   77.3839 H   0  0  0  0  0  0  0  0  0  0  0  0
   -0.5323   53.2508   75.1563 H   0  0  0  0  0  0  0  0  0  0  0  0
    1.9836   54.4574   76.1914 H   0  0  0  0  0  0  0  0  0  0  0  0
    1.7238   52.7426   75.6696 H   0  0  0  0  0  0  0  0  0  0  0  0
    2.8834   54.1784   73.9361 H   0  0  0  0  0  0  0  0  0  0  0  0
    1.3249   53.4287   73.3821 H   0  0  0  0  0  0  0  0  0  0  0  0
    1.3818   55.5819   72.6463 H   0  0  0  0  0  0  0  0  0  0  0  0
   -0.5604   56.7037   73.7453 H   0  0  0  0  0  0  0  0  0  0  0  0
   -0.7767   54.9632   73.2806 H   0  0  0  0  0  0  0  0  0  0  0  0
   -0.1571   56.0577   76.0751 H   0  0  0  0  0  0  0  0  0  0  0  0
   -1.6950   55.2943   75.5080 H   0  0  0  0  0  0  0  0  0  0  0  0
  2  1  1  0
  3  2  2  0
  4  3  1  0
  5  4  2  0
  6  5  1  0
  7  6  2  0
  7  2  1  0
  8  7  1  0
  9  8  1  0
 10  9  2  0
 10  1  1  0
 11 10  1  0
 12 11  2  0
 13 12  1  0
 14 12  1  0
 15  9  1  0
 15 14  2  0
 16  1  1  0
 17 16  1  0
 18 17  1  0
 20 19  1  0
 21 20  1  0
 22 21  1  0
 23 22  1  0
 23 18  1  0
 24 23  1  0
 25 24  1  0
 25 20  1  0
  3 26  1  0
  4 27  1  0
  5 28  1  0
  6 29  1  0
 11 30  1  0
 14 31  1  0
 15 32  1  0
 16 33  1  0
 16 34  1  0
 17 35  1  0
 17 36  1  0
 18 37  1  0
 18 38  1  0
 19 39  1  0
 19 40  1  0
 19 41  1  0
 20 42  1  0
 21 43  1  0
 21 44  1  0
 22 45  1  0
 22 46  1  0
 23 47  1  0
 24 48  1  0
 24 49  1  0
 25 50  1  0
 25 51  1  0
M  CHG  2  20   1  23   1
M  END
>  <score>  (9) 
-7.334

$$$$
