=
     RDKit          3D

 57 60  0  0  0  0  0  0  0  0999 V2000
   -0.7420   68.7390   67.0790 C   0  0  1  0  0  0  0  0  0  0  0  0
   -2.0340   69.0880   66.5450 O   0  0  0  0  0  0  0  0  0  0  0  0
   -0.9050   67.4080   67.8300 C   0  0  0  0  0  0  0  0  0  0  0  0
    0.4650   66.7950   67.9660 N   0  0  0  0  0  4  0  0  0  0  0  0
    1.0900   66.9830   69.3090 C   0  0  0  0  0  0  0  0  0  0  0  0
    0.4040   66.1050   70.3560 C   0  0  0  0  0  0  0  0  0  0  0  0
    0.3230   64.7540   69.8980 O   0  0  0  0  0  0  0  0  0  0  0  0
    2.1740   63.3070   70.4300 C   0  0  0  0  0  0  0  0  0  0  0  0
    2.7910   62.4570   71.3510 C   0  0  0  0  0  0  0  0  0  0  0  0
    2.2060   62.2330   72.6020 C   0  0  0  0  0  0  0  0  0  0  0  0
    1.0050   62.8550   72.9410 C   0  0  0  0  0  0  0  0  0  0  0  0
    0.3750   63.6930   72.0250 C   0  0  0  0  0  0  0  0  0  0  0  0
    0.9470   63.8950   70.7680 C   0  0  0  0  0  0  0  0  0  0  0  0
    3.6640   62.6700   68.7100 C   0  0  0  0  0  0  0  0  0  0  0  0
    2.6670   63.5770   69.1780 O   0  0  0  0  0  0  0  0  0  0  0  0
    0.3140   68.6390   65.9670 C   0  0  0  0  0  0  0  0  0  0  0  0
    1.6150   69.0600   66.3860 O   0  0  0  0  0  0  0  0  0  0  0  0
    2.5860   69.0070   65.4160 C   0  0  0  0  0  0  0  0  0  0  0  0
    2.3290   68.5270   64.1240 C   0  0  0  0  0  0  0  0  0  0  0  0
    3.3260   68.5430   63.1490 C   0  0  0  0  0  0  0  0  0  0  0  0
    4.6050   69.0290   63.4320 C   0  0  0  0  0  0  0  0  0  0  0  0
    4.8580   69.4650   64.7360 C   0  0  0  0  0  0  0  0  0  0  0  0
    3.8920   69.4430   65.7440 C   0  0  0  0  0  0  0  0  0  0  0  0
    4.5220   69.9150   66.9440 C   0  0  0  0  0  0  0  0  0  0  0  0
    4.1000   70.0740   68.2820 C   0  0  0  0  0  0  0  0  0  0  0  0
    4.9860   70.5990   69.2300 C   0  0  0  0  0  0  0  0  0  0  0  0
    6.2810   70.9570   68.8660 C   0  0  0  0  0  0  0  0  0  0  0  0
    6.7330   70.7910   67.5530 C   0  0  0  0  0  0  0  0  0  0  0  0
    5.8340   70.2630   66.6190 C   0  0  0  0  0  0  0  0  0  0  0  0
    6.0150   69.9600   65.2910 N   0  0  0  0  0  0  0  0  0  0  0  0
   -0.3841   69.5202   67.7657 H   0  0  0  0  0  0  0  0  0  0  0  0
   -2.6638   69.2581   67.2896 H   0  0  0  0  0  0  0  0  0  0  0  0
   -1.3363   67.5887   68.8257 H   0  0  0  0  0  0  0  0  0  0  0  0
   -1.5790   66.7334   67.2818 H   0  0  0  0  0  0  0  0  0  0  0  0
    0.3857   65.7841   67.7854 H   0  0  0  0  0  0  0  0  0  0  0  0
    1.0726   67.2756   67.2873 H   0  0  0  0  0  0  0  0  0  0  0  0
    2.1545   66.7115   69.2524 H   0  0  0  0  0  0  0  0  0  0  0  0
    0.9783   68.0365   69.6050 H   0  0  0  0  0  0  0  0  0  0  0  0
    0.9828   66.1366   71.2909 H   0  0  0  0  0  0  0  0  0  0  0  0
   -0.6139   66.4848   70.5283 H   0  0  0  0  0  0  0  0  0  0  0  0
    3.7389   61.9627   71.0921 H   0  0  0  0  0  0  0  0  0  0  0  0
    2.6965   61.5621   73.3226 H   0  0  0  0  0  0  0  0  0  0  0  0
    0.5561   62.6839   73.9305 H   0  0  0  0  0  0  0  0  0  0  0  0
   -0.5681   64.1930   72.2904 H   0  0  0  0  0  0  0  0  0  0  0  0
    4.1718   62.2080   69.5694 H   0  0  0  0  0  0  0  0  0  0  0  0
    3.1900   61.8870   68.0999 H   0  0  0  0  0  0  0  0  0  0  0  0
    4.3988   63.2157   68.0999 H   0  0  0  0  0  0  0  0  0  0  0  0
    0.3751   67.5917   65.6361 H   0  0  0  0  0  0  0  0  0  0  0  0
   -0.0014   69.3111   65.1553 H   0  0  0  0  0  0  0  0  0  0  0  0
    1.3317   68.1341   63.8771 H   0  0  0  0  0  0  0  0  0  0  0  0
    3.1016   68.1666   62.1400 H   0  0  0  0  0  0  0  0  0  0  0  0
    5.3846   69.0672   62.6569 H   0  0  0  0  0  0  0  0  0  0  0  0
    3.0802   69.7868   68.5779 H   0  0  0  0  0  0  0  0  0  0  0  0
    4.6562   70.7297   70.2712 H   0  0  0  0  0  0  0  0  0  0  0  0
    6.9595   71.3771   69.6230 H   0  0  0  0  0  0  0  0  0  0  0  0
    7.7584   71.0656   67.2645 H   0  0  0  0  0  0  0  0  0  0  0  0
    6.8998   70.0868   64.7791 H   0  0  0  0  0  0  0  0  0  0  0  0
  2  1  1  0
  3  1  1  0
  4  3  1  0
  5  4  1  0
  6  5  1  0
  7  6  1  0
  9  8  2  0
 10  9  1  0
 11 10  2  0
 12 11  1  0
 13  8  1  0
 13  7  1  0
 13 12  2  0
 15 14  1  0
 15  8  1  0
 16  1  1  0
 17 16  1  0
 18 17  1  0
 19 18  2  0
 20 19  1  0
 21 20  2  0
 22 21  1  0
 23 22  2  0
 23 18  1  0
 24 23  1  0
 25 24  2  0
 26 25  1  0
 27 26  2  0
 28 27  1  0
 29 24  1  0
 29 28  2  0
 30 22  1  0
 30 29  1  0
  1 31  1  1
  2 32  1  0
  3 33  1  0
  3 34  1  0
  4 35  1  0
  4 36  1  0
  5 37  1  0
  5 38  1  0
  6 39  1  0
  6 40  1  0
  9 41  1  0
 10 42  1  0
 11 43  1  0
 12 44  1  0
 14 45  1  0
 14 46  1  0
 14 47  1  0
 16 48  1  0
 16 49  1  0
 19 50  1  0
 20 51  1  0
 21 52  1  0
 25 53  1  0
 26 54  1  0
 27 55  1  0
 28 56  1  0
 30 57  1  0
M  CHG  1   4   1
M  END
>  <score>  (1) 
-10.828

$$$$
=
     RDKit          3D

 57 60  0  0  0  0  0  0  0  0999 V2000
   -0.8290   69.0240   67.4210 C   0  0  1  0  0  0  0  0  0  0  0  0
   -1.6680   69.7530   66.5050 O   0  0  0  0  0  0  0  0  0  0  0  0
   -0.7030   67.5900   66.8810 C   0  0  0  0  0  0  0  0  0  0  0  0
    0.1590   66.8170   67.8450 N   0  0  0  0  0  4  0  0  0  0  0  0
   -0.5250   66.4500   69.1200 C   0  0  0  0  0  0  0  0  0  0  0  0
    0.4970   66.1640   70.2220 C   0  0  0  0  0  0  0  0  0  0  0  0
    1.3770   65.1110   69.8230 O   0  0  0  0  0  0  0  0  0  0  0  0
    1.8590   62.8030   70.3150 C   0  0  0  0  0  0  0  0  0  0  0  0
    1.7460   61.7280   71.2000 C   0  0  0  0  0  0  0  0  0  0  0  0
    1.0840   61.8900   72.4220 C   0  0  0  0  0  0  0  0  0  0  0  0
    0.5330   63.1230   72.7670 C   0  0  0  0  0  0  0  0  0  0  0  0
    0.6280   64.1980   71.8860 C   0  0  0  0  0  0  0  0  0  0  0  0
    1.2660   64.0260   70.6570 C   0  0  0  0  0  0  0  0  0  0  0  0
    3.8080   62.2170   69.1140 C   0  0  0  0  0  0  0  0  0  0  0  0
    2.4790   62.7340   69.0920 O   0  0  0  0  0  0  0  0  0  0  0  0
    0.5450   69.6950   67.5790 C   0  0  0  0  0  0  0  0  0  0  0  0
    1.5850   69.0250   66.8630 O   0  0  0  0  0  0  0  0  0  0  0  0
    2.8540   69.4870   67.1100 C   0  0  0  0  0  0  0  0  0  0  0  0
    3.2510   69.9510   68.3720 C   0  0  0  0  0  0  0  0  0  0  0  0
    4.5650   70.3580   68.5990 C   0  0  0  0  0  0  0  0  0  0  0  0
    5.5180   70.3240   67.5780 C   0  0  0  0  0  0  0  0  0  0  0  0
    5.0970   69.9000   66.3140 C   0  0  0  0  0  0  0  0  0  0  0  0
    3.7860   69.5060   66.0440 C   0  0  0  0  0  0  0  0  0  0  0  0
    3.7190   69.1880   64.6460 C   0  0  0  0  0  0  0  0  0  0  0  0
    2.6820   68.7860   63.7740 C   0  0  0  0  0  0  0  0  0  0  0  0
    2.9700   68.5270   62.4300 C   0  0  0  0  0  0  0  0  0  0  0  0
    4.2670   68.6690   61.9430 C   0  0  0  0  0  0  0  0  0  0  0  0
    5.3080   69.0850   62.7780 C   0  0  0  0  0  0  0  0  0  0  0  0
    5.0020   69.3420   64.1190 C   0  0  0  0  0  0  0  0  0  0  0  0
    5.8050   69.7930   65.1390 N   0  0  0  0  0  0  0  0  0  0  0  0
   -1.2759   69.0127   68.4261 H   0  0  0  0  0  0  0  0  0  0  0  0
   -2.3083   70.3094   67.0154 H   0  0  0  0  0  0  0  0  0  0  0  0
   -1.6980   67.1260   66.8117 H   0  0  0  0  0  0  0  0  0  0  0  0
   -0.2546   67.5923   65.8765 H   0  0  0  0  0  0  0  0  0  0  0  0
    0.4642   65.9495   67.3811 H   0  0  0  0  0  0  0  0  0  0  0  0
    0.9450   67.4327   68.0978 H   0  0  0  0  0  0  0  0  0  0  0  0
   -1.1715   67.2823   69.4349 H   0  0  0  0  0  0  0  0  0  0  0  0
   -1.1238   65.5430   68.9505 H   0  0  0  0  0  0  0  0  0  0  0  0
    1.0845   67.0734   70.4166 H   0  0  0  0  0  0  0  0  0  0  0  0
   -0.0369   65.8572   71.1335 H   0  0  0  0  0  0  0  0  0  0  0  0
    2.1785   60.7518   70.9355 H   0  0  0  0  0  0  0  0  0  0  0  0
    0.9979   61.0395   73.1143 H   0  0  0  0  0  0  0  0  0  0  0  0
    0.0236   63.2471   73.7340 H   0  0  0  0  0  0  0  0  0  0  0  0
    0.2030   65.1756   72.1573 H   0  0  0  0  0  0  0  0  0  0  0  0
    4.1348   62.0899   70.1566 H   0  0  0  0  0  0  0  0  0  0  0  0
    3.8315   61.2441   68.6012 H   0  0  0  0  0  0  0  0  0  0  0  0
    4.4828   62.9182   68.6012 H   0  0  0  0  0  0  0  0  0  0  0  0
    0.4743   70.7280   67.2075 H   0  0  0  0  0  0  0  0  0  0  0  0
    0.8064   69.6566   68.6468 H   0  0  0  0  0  0  0  0  0  0  0  0
    2.5184   69.9944   69.1914 H   0  0  0  0  0  0  0  0  0  0  0  0
    4.8563   70.7119   69.5990 H   0  0  0  0  0  0  0  0  0  0  0  0
    6.5614   70.6200   67.7619 H   0  0  0  0  0  0  0  0  0  0  0  0
    1.6541   68.6774   64.1502 H   0  0  0  0  0  0  0  0  0  0  0  0
    2.1649   68.2083   61.7516 H   0  0  0  0  0  0  0  0  0  0  0  0
    4.4754   68.4505   60.8853 H   0  0  0  0  0  0  0  0  0  0  0  0
    6.3318   69.2061   62.3944 H   0  0  0  0  0  0  0  0  0  0  0  0
    6.8044   70.0207   65.0374 H   0  0  0  0  0  0  0  0  0  0  0  0
  2  1  1  0
  3  1  1  0
  4  3  1  0
  5  4  1  0
  6  5  1  0
  7  6  1  0
  9  8  2  0
 10  9  1  0
 11 10  2  0
 12 11  1  0
 13  8  1  0
 13  7  1  0
 13 12  2  0
 15 14  1  0
 15  8  1  0
 16  1  1  0
 17 16  1  0
 18 17  1  0
 19 18  2  0
 20 19  1  0
 21 20  2  0
 22 21  1  0
 23 22  2  0
 23 18  1  0
 24 23  1  0
 25 24  2  0
 26 25  1  0
 27 26  2  0
 28 27  1  0
 29 24  1  0
 29 28  2  0
 30 22  1  0
 30 29  1  0
  1 31  1  1
  2 32  1  0
  3 33  1  0
  3 34  1  0
  4 35  1  0
  4 36  1  0
  5 37  1  0
  5 38  1  0
  6 39  1  0
  6 40  1  0
  9 41  1  0
 10 42  1  0
 11 43  1  0
 12 44  1  0
 14 45  1  0
 14 46  1  0
 14 47  1  0
 16 48  1  0
 16 49  1  0
 19 50  1  0
 20 51  1  0
 21 52  1  0
 25 53  1  0
 26 54  1  0
 27 55  1  0
 28 56  1  0
 30 57  1  0
M  CHG  1   4   1
M  END
>  <score>  (2) 
-10.538

$$$$
=
     RDKit          3D

 57 60  0  0  0  0  0  0  0  0999 V2000
   -0.4260   67.8190   67.2650 C   0  0  1  0  0  0  0  0  0  0  0  0
   -0.9370   66.5960   66.7010 O   0  0  0  0  0  0  0  0  0  0  0  0
    0.5280   67.4300   68.4050 C   0  0  0  0  0  0  0  0  0  0  0  0
   -0.1160   66.3040   69.1710 N   0  0  0  0  0  4  0  0  0  0  0  0
    0.5490   65.9870   70.4700 C   0  0  0  0  0  0  0  0  0  0  0  0
    1.6430   64.9350   70.2780 C   0  0  0  0  0  0  0  0  0  0  0  0
    1.0640   63.6620   69.9850 O   0  0  0  0  0  0  0  0  0  0  0  0
    1.9200   61.8990   71.3860 C   0  0  0  0  0  0  0  0  0  0  0  0
    2.8340   60.8560   71.5580 C   0  0  0  0  0  0  0  0  0  0  0  0
    3.7440   60.5440   70.5430 C   0  0  0  0  0  0  0  0  0  0  0  0
    3.7480   61.2690   69.3510 C   0  0  0  0  0  0  0  0  0  0  0  0
    2.8510   62.3190   69.1750 C   0  0  0  0  0  0  0  0  0  0  0  0
    1.9610   62.6460   70.2000 C   0  0  0  0  0  0  0  0  0  0  0  0
    1.5420   62.9540   73.4660 C   0  0  0  0  0  0  0  0  0  0  0  0
    1.0010   62.2840   72.3290 O   0  0  0  0  0  0  0  0  0  0  0  0
    0.2790   68.6740   66.2000 C   0  0  0  0  0  0  0  0  0  0  0  0
    1.6020   69.0630   66.5750 O   0  0  0  0  0  0  0  0  0  0  0  0
    2.5380   68.9910   65.5720 C   0  0  0  0  0  0  0  0  0  0  0  0
    2.2330   68.4950   64.2970 C   0  0  0  0  0  0  0  0  0  0  0  0
    3.1940   68.4910   63.2870 C   0  0  0  0  0  0  0  0  0  0  0  0
    4.4860   68.9720   63.5170 C   0  0  0  0  0  0  0  0  0  0  0  0
    4.7870   69.4250   64.8060 C   0  0  0  0  0  0  0  0  0  0  0  0
    3.8580   69.4230   65.8470 C   0  0  0  0  0  0  0  0  0  0  0  0
    4.5330   69.9070   67.0180 C   0  0  0  0  0  0  0  0  0  0  0  0
    4.1590   70.0880   68.3680 C   0  0  0  0  0  0  0  0  0  0  0  0
    5.0820   70.6190   69.2760 C   0  0  0  0  0  0  0  0  0  0  0  0
    6.3650   70.9640   68.8610 C   0  0  0  0  0  0  0  0  0  0  0  0
    6.7690   70.7770   67.5360 C   0  0  0  0  0  0  0  0  0  0  0  0
    5.8340   70.2420   66.6420 C   0  0  0  0  0  0  0  0  0  0  0  0
    5.9660   69.9200   65.3120 N   0  0  0  0  0  0  0  0  0  0  0  0
   -1.2480   68.4381   67.6535 H   0  0  0  0  0  0  0  0  0  0  0  0
   -1.1950   65.9786   67.4307 H   0  0  0  0  0  0  0  0  0  0  0  0
    1.4922   67.0995   67.9914 H   0  0  0  0  0  0  0  0  0  0  0  0
    0.7140   68.2903   69.0647 H   0  0  0  0  0  0  0  0  0  0  0  0
   -1.0942   66.5627   69.3638 H   0  0  0  0  0  0  0  0  0  0  0  0
   -0.0337   65.4619   68.5836 H   0  0  0  0  0  0  0  0  0  0  0  0
    0.9984   66.9042   70.8783 H   0  0  0  0  0  0  0  0  0  0  0  0
   -0.2054   65.5883   71.1642 H   0  0  0  0  0  0  0  0  0  0  0  0
    2.2943   65.2374   69.4447 H   0  0  0  0  0  0  0  0  0  0  0  0
    2.2285   64.8556   71.2059 H   0  0  0  0  0  0  0  0  0  0  0  0
    2.8377   60.2788   72.4944 H   0  0  0  0  0  0  0  0  0  0  0  0
    4.4610   59.7220   70.6853 H   0  0  0  0  0  0  0  0  0  0  0  0
    4.4586   61.0115   68.5518 H   0  0  0  0  0  0  0  0  0  0  0  0
    2.8434   62.8879   68.2336 H   0  0  0  0  0  0  0  0  0  0  0  0
    1.1617   62.4830   74.3844 H   0  0  0  0  0  0  0  0  0  0  0  0
    2.6395   62.8836   73.4452 H   0  0  0  0  0  0  0  0  0  0  0  0
    1.2420   64.0121   73.4452 H   0  0  0  0  0  0  0  0  0  0  0  0
    0.3365   68.0934   65.2675 H   0  0  0  0  0  0  0  0  0  0  0  0
   -0.3101   69.5949   66.0780 H   0  0  0  0  0  0  0  0  0  0  0  0
    1.2253   68.1050   64.0912 H   0  0  0  0  0  0  0  0  0  0  0  0
    2.9309   68.1026   62.2920 H   0  0  0  0  0  0  0  0  0  0  0  0
    5.2381   68.9936   62.7145 H   0  0  0  0  0  0  0  0  0  0  0  0
    3.1481   69.8132   68.7036 H   0  0  0  0  0  0  0  0  0  0  0  0
    4.7911   70.7650   70.3267 H   0  0  0  0  0  0  0  0  0  0  0  0
    7.0723   71.3906   69.5874 H   0  0  0  0  0  0  0  0  0  0  0  0
    7.7851   71.0408   67.2076 H   0  0  0  0  0  0  0  0  0  0  0  0
    6.8326   70.0343   64.7671 H   0  0  0  0  0  0  0  0  0  0  0  0
  2  1  1  0
  3  1  1  0
  4  3  1  0
  5  4  1  0
  6  5  1  0
  7  6  1  0
  9  8  2  0
 10  9  1  0
 11 10  2  0
 12 11  1  0
 13  8  1  0
 13  7  1  0
 13 12  2  0
 15 14  1  0
 15  8  1  0
 16  1  1  0
 17 16  1  0
 18 17  1  0
 19 18  2  0
 20 19  1  0
 21 20  2  0
 22 21  1  0
 23 22  2  0
 23 18  1  0
 24 23  1  0
 25 24  2  0
 26 25  1  0
 27 26  2  0
 28 27  1  0
 29 24  1  0
 29 28  2  0
 30 22  1  0
 30 29  1  0
  1 31  1  1
  2 32  1  0
  3 33  1  0
  3 34  1  0
  4 35  1  0
  4 36  1  0
  5 37  1  0
  5 38  1  0
  6 39  1  0
  6 40  1  0
  9 41  1  0
 10 42  1  0
 11 43  1  0
 12 44  1  0
 14 45  1  0
 14 46  1  0
 14 47  1  0
 16 48  1  0
 16 49  1  0
 19 50  1  0
 20 51  1  0
 21 52  1  0
 25 53  1  0
 26 54  1  0
 27 55  1  0
 28 56  1  0
 30 57  1  0
M  CHG  1   4   1
M  END
>  <score>  (3) 
-10.528

$$$$
=
     RDKit          3D

 57 60  0  0  0  0  0  0  0  0999 V2000
   -0.3900   67.7030   67.4840 C   0  0  1  0  0  0  0  0  0  0  0  0
   -0.0140   66.8250   66.4060 O   0  0  0  0  0  0  0  0  0  0  0  0
   -0.7800   66.8170   68.6780 C   0  0  0  0  0  0  0  0  0  0  0  0
    0.4680   66.1150   69.1470 N   0  0  0  0  0  4  0  0  0  0  0  0
    0.4220   65.6710   70.5720 C   0  0  0  0  0  0  0  0  0  0  0  0
    0.5350   64.1480   70.6710 C   0  0  0  0  0  0  0  0  0  0  0  0
    1.6760   63.7830   71.4490 O   0  0  0  0  0  0  0  0  0  0  0  0
    2.4290   61.4990   71.3050 C   0  0  0  0  0  0  0  0  0  0  0  0
    3.1760   60.5350   70.6230 C   0  0  0  0  0  0  0  0  0  0  0  0
    3.8670   60.8770   69.4560 C   0  0  0  0  0  0  0  0  0  0  0  0
    3.8160   62.1800   68.9620 C   0  0  0  0  0  0  0  0  0  0  0  0
    3.0850   63.1520   69.6410 C   0  0  0  0  0  0  0  0  0  0  0  0
    2.4180   62.8150   70.8190 C   0  0  0  0  0  0  0  0  0  0  0  0
    1.4580   59.8850   72.7320 C   0  0  0  0  0  0  0  0  0  0  0  0
    1.7310   61.2590   72.4610 O   0  0  0  0  0  0  0  0  0  0  0  0
    0.7490   68.6710   67.8420 C   0  0  0  0  0  0  0  0  0  0  0  0
    1.5920   68.9850   66.7320 O   0  0  0  0  0  0  0  0  0  0  0  0
    2.8370   69.4610   67.0600 C   0  0  0  0  0  0  0  0  0  0  0  0
    3.1450   69.9310   68.3450 C   0  0  0  0  0  0  0  0  0  0  0  0
    4.4370   70.3530   68.6580 C   0  0  0  0  0  0  0  0  0  0  0  0
    5.4560   70.3270   67.7020 C   0  0  0  0  0  0  0  0  0  0  0  0
    5.1240   69.8950   66.4140 C   0  0  0  0  0  0  0  0  0  0  0  0
    3.8370   69.4880   66.0590 C   0  0  0  0  0  0  0  0  0  0  0  0
    3.8660   69.1660   64.6600 C   0  0  0  0  0  0  0  0  0  0  0  0
    2.8940   68.7510   63.7230 C   0  0  0  0  0  0  0  0  0  0  0  0
    3.2730   68.4930   62.4010 C   0  0  0  0  0  0  0  0  0  0  0  0
    4.5980   68.6480   62.0010 C   0  0  0  0  0  0  0  0  0  0  0  0
    5.5760   69.0760   62.9020 C   0  0  0  0  0  0  0  0  0  0  0  0
    5.1800   69.3320   64.2200 C   0  0  0  0  0  0  0  0  0  0  0  0
    5.9090   69.7940   65.2890 N   0  0  0  0  0  0  0  0  0  0  0  0
   -1.2401   68.3349   67.1873 H   0  0  0  0  0  0  0  0  0  0  0  0
    0.3472   65.9816   66.7780 H   0  0  0  0  0  0  0  0  0  0  0  0
   -1.1890   67.4378   69.4887 H   0  0  0  0  0  0  0  0  0  0  0  0
   -1.5484   66.0868   68.3842 H   0  0  0  0  0  0  0  0  0  0  0  0
    0.6137   65.2851   68.5547 H   0  0  0  0  0  0  0  0  0  0  0  0
    1.2363   66.7972   69.0743 H   0  0  0  0  0  0  0  0  0  0  0  0
    1.2575   66.1309   71.1201 H   0  0  0  0  0  0  0  0  0  0  0  0
   -0.5391   65.9821   71.0072 H   0  0  0  0  0  0  0  0  0  0  0  0
   -0.3719   63.7475   71.1476 H   0  0  0  0  0  0  0  0  0  0  0  0
    0.6453   63.7318   69.6588 H   0  0  0  0  0  0  0  0  0  0  0  0
    3.2207   59.5044   71.0049 H   0  0  0  0  0  0  0  0  0  0  0  0
    4.4542   60.1135   68.9247 H   0  0  0  0  0  0  0  0  0  0  0  0
    4.3523   62.4399   68.0374 H   0  0  0  0  0  0  0  0  0  0  0  0
    3.0340   64.1792   69.2507 H   0  0  0  0  0  0  0  0  0  0  0  0
    1.4262   59.7251   73.8199 H   0  0  0  0  0  0  0  0  0  0  0  0
    0.4877   59.6103   72.2925 H   0  0  0  0  0  0  0  0  0  0  0  0
    2.2496   59.2603   72.2925 H   0  0  0  0  0  0  0  0  0  0  0  0
    0.3079   69.6047   68.2208 H   0  0  0  0  0  0  0  0  0  0  0  0
    1.3753   68.1731   68.5969 H   0  0  0  0  0  0  0  0  0  0  0  0
    2.3594   69.9672   69.1141 H   0  0  0  0  0  0  0  0  0  0  0  0
    4.6575   70.7122   69.6741 H   0  0  0  0  0  0  0  0  0  0  0  0
    6.4816   70.6350   67.9534 H   0  0  0  0  0  0  0  0  0  0  0  0
    1.8448   68.6313   64.0309 H   0  0  0  0  0  0  0  0  0  0  0  0
    2.5180   68.1649   61.6714 H   0  0  0  0  0  0  0  0  0  0  0  0
    4.8786   68.4301   60.9600 H   0  0  0  0  0  0  0  0  0  0  0  0
    6.6216   69.2074   62.5865 H   0  0  0  0  0  0  0  0  0  0  0  0
    6.9102   70.0330   65.2528 H   0  0  0  0  0  0  0  0  0  0  0  0
  2  1  1  0
  3  1  1  0
  4  3  1  0
  5  4  1  0
  6  5  1  0
  7  6  1  0
  9  8  2  0
 10  9  1  0
 11 10  2  0
 12 11  1  0
 13  8  1  0
 13  7  1  0
 13 12  2  0
 15 14  1  0
 15  8  1  0
 16  1  1  0
 17 16  1  0
 18 17  1  0
 19 18  2  0
 20 19  1  0
 21 20  2  0
 22 21  1  0
 23 22  2  0
 23 18  1  0
 24 23  1  0
 25 24  2  0
 26 25  1  0
 27 26  2  0
 28 27  1  0
 29 24  1  0
 29 28  2  0
 30 22  1  0
 30 29  1  0
  1 31  1  6
  2 32  1  0
  3 33  1  0
  3 34  1  0
  4 35  1  0
  4 36  1  0
  5 37  1  0
  5 38  1  0
  6 39  1  0
  6 40  1  0
  9 41  1  0
 10 42  1  0
 11 43  1  0
 12 44  1  0
 14 45  1  0
 14 46  1  0
 14 47  1  0
 16 48  1  0
 16 49  1  0
 19 50  1  0
 20 51  1  0
 21 52  1  0
 25 53  1  0
 26 54  1  0
 27 55  1  0
 28 56  1  0
 30 57  1  0
M  CHG  1   4   1
M  END
>  <score>  (4) 
-10.373

$$$$
=
     RDKit          3D

 57 60  0  0  0  0  0  0  0  0999 V2000
    0.9250   67.3430   68.4890 C   0  0  1  0  0  0  0  0  0  0  0  0
    1.6980   67.9190   69.5600 O   0  0  0  0  0  0  0  0  0  0  0  0
   -0.2690   66.6180   69.1290 C   0  0  0  0  0  0  0  0  0  0  0  0
    0.2350   65.3040   69.6690 N   0  0  0  0  0  4  0  0  0  0  0  0
    0.3090   65.2420   71.1590 C   0  0  0  0  0  0  0  0  0  0  0  0
    1.1920   64.0770   71.6100 C   0  0  0  0  0  0  0  0  0  0  0  0
    0.9180   62.9130   70.8280 O   0  0  0  0  0  0  0  0  0  0  0  0
    1.9620   60.9040   71.6530 C   0  0  0  0  0  0  0  0  0  0  0  0
    1.8890   59.7810   72.4820 C   0  0  0  0  0  0  0  0  0  0  0  0
    0.7600   59.5710   73.2820 C   0  0  0  0  0  0  0  0  0  0  0  0
   -0.2990   60.4770   73.2610 C   0  0  0  0  0  0  0  0  0  0  0  0
   -0.2420   61.5920   72.4290 C   0  0  0  0  0  0  0  0  0  0  0  0
    0.8730   61.7860   71.6120 C   0  0  0  0  0  0  0  0  0  0  0  0
    3.3390   60.1680   69.8810 C   0  0  0  0  0  0  0  0  0  0  0  0
    3.0200   61.1860   70.8270 O   0  0  0  0  0  0  0  0  0  0  0  0
    0.4680   68.4160   67.4880 C   0  0  0  0  0  0  0  0  0  0  0  0
    1.4680   69.4020   67.2230 O   0  0  0  0  0  0  0  0  0  0  0  0
    2.2420   69.1650   66.1130 C   0  0  0  0  0  0  0  0  0  0  0  0
    1.7090   68.6460   64.9240 C   0  0  0  0  0  0  0  0  0  0  0  0
    2.5150   68.4730   63.8000 C   0  0  0  0  0  0  0  0  0  0  0  0
    3.8720   68.8020   63.8270 C   0  0  0  0  0  0  0  0  0  0  0  0
    4.3990   69.2790   65.0320 C   0  0  0  0  0  0  0  0  0  0  0  0
    3.6280   69.4430   66.1830 C   0  0  0  0  0  0  0  0  0  0  0  0
    4.5100   69.8990   67.2210 C   0  0  0  0  0  0  0  0  0  0  0  0
    4.3500   70.1920   68.5930 C   0  0  0  0  0  0  0  0  0  0  0  0
    5.4430   70.6500   69.3350 C   0  0  0  0  0  0  0  0  0  0  0  0
    6.6890   70.8130   68.7340 C   0  0  0  0  0  0  0  0  0  0  0  0
    6.8810   70.5110   67.3830 C   0  0  0  0  0  0  0  0  0  0  0  0
    5.7760   70.0520   66.6560 C   0  0  0  0  0  0  0  0  0  0  0  0
    5.6860   69.6490   65.3450 N   0  0  0  0  0  0  0  0  0  0  0  0
    1.5354   66.6327   67.9121 H   0  0  0  0  0  0  0  0  0  0  0  0
    1.3187   67.6364   70.4297 H   0  0  0  0  0  0  0  0  0  0  0  0
   -0.6831   67.2260   69.9468 H   0  0  0  0  0  0  0  0  0  0  0  0
   -1.0644   66.4525   68.3875 H   0  0  0  0  0  0  0  0  0  0  0  0
   -0.3975   64.5581   69.3458 H   0  0  0  0  0  0  0  0  0  0  0  0
    1.1974   65.1905   69.3201 H   0  0  0  0  0  0  0  0  0  0  0  0
    0.7323   66.1836   71.5387 H   0  0  0  0  0  0  0  0  0  0  0  0
   -0.7053   65.0908   71.5569 H   0  0  0  0  0  0  0  0  0  0  0  0
    2.2493   64.3551   71.4880 H   0  0  0  0  0  0  0  0  0  0  0  0
    0.9790   63.8557   72.6663 H   0  0  0  0  0  0  0  0  0  0  0  0
    2.7203   59.0610   72.5057 H   0  0  0  0  0  0  0  0  0  0  0  0
    0.7080   58.6849   73.9318 H   0  0  0  0  0  0  0  0  0  0  0  0
   -1.1784   60.3114   73.9007 H   0  0  0  0  0  0  0  0  0  0  0  0
   -1.0705   62.3155   72.4156 H   0  0  0  0  0  0  0  0  0  0  0  0
    3.6268   59.2496   70.4137 H   0  0  0  0  0  0  0  0  0  0  0  0
    2.4611   59.9659   69.2497 H   0  0  0  0  0  0  0  0  0  0  0  0
    4.1752   60.5031   69.2497 H   0  0  0  0  0  0  0  0  0  0  0  0
    0.2053   67.9214   66.5412 H   0  0  0  0  0  0  0  0  0  0  0  0
   -0.3921   68.9353   67.9359 H   0  0  0  0  0  0  0  0  0  0  0  0
    0.6445   68.3728   64.8780 H   0  0  0  0  0  0  0  0  0  0  0  0
    2.0747   68.0704   62.8759 H   0  0  0  0  0  0  0  0  0  0  0  0
    4.5035   68.6902   62.9333 H   0  0  0  0  0  0  0  0  0  0  0  0
    3.3703   70.0606   69.0757 H   0  0  0  0  0  0  0  0  0  0  0  0
    5.3178   70.8836   70.4026 H   0  0  0  0  0  0  0  0  0  0  0  0
    7.5343   71.1849   69.3316 H   0  0  0  0  0  0  0  0  0  0  0  0
    7.8658   70.6298   66.9075 H   0  0  0  0  0  0  0  0  0  0  0  0
    6.4767   69.6271   64.6853 H   0  0  0  0  0  0  0  0  0  0  0  0
  2  1  1  0
  3  1  1  0
  4  3  1  0
  5  4  1  0
  6  5  1  0
  7  6  1  0
  9  8  2  0
 10  9  1  0
 11 10  2  0
 12 11  1  0
 13  8  1  0
 13  7  1  0
 13 12  2  0
 15 14  1  0
 15  8  1  0
 16  1  1  0
 17 16  1  0
 18 17  1  0
 19 18  2  0
 20 19  1  0
 21 20  2  0
 22 21  1  0
 23 22  2  0
 23 18  1  0
 24 23  1  0
 25 24  2  0
 26 25  1  0
 27 26  2  0
 28 27  1  0
 29 24  1  0
 29 28  2  0
 30 22  1  0
 30 29  1  0
  1 31  1  6
  2 32  1  0
  3 33  1  0
  3 34  1  0
  4 35  1  0
  4 36  1  0
  5 37  1  0
  5 38  1  0
  6 39  1  0
  6 40  1  0
  9 41  1  0
 10 42  1  0
 11 43  1  0
 12 44  1  0
 14 45  1  0
 14 46  1  0
 14 47  1  0
 16 48  1  0
 16 49  1  0
 19 50  1  0
 20 51  1  0
 21 52  1  0
 25 53  1  0
 26 54  1  0
 27 55  1  0
 28 56  1  0
 30 57  1  0
M  CHG  1   4   1
M  END
>  <score>  (5) 
-9.781

$$$$
=
     RDKit          3D

 57 60  0  0  0  0  0  0  0  0999 V2000
    0.7820   66.4370   70.0770 C   0  0  1  0  0  0  0  0  0  0  0  0
    1.5060   67.6490   69.7910 O   0  0  0  0  0  0  0  0  0  0  0  0
   -0.4100   66.3800   69.1080 C   0  0  0  0  0  0  0  0  0  0  0  0
    0.1010   66.7430   67.7380 N   0  0  0  0  0  4  0  0  0  0  0  0
   -0.8710   67.5100   66.9040 C   0  0  0  0  0  0  0  0  0  0  0  0
   -0.1530   68.5710   66.0690 C   0  0  0  0  0  0  0  0  0  0  0  0
    0.6730   67.9520   65.0800 O   0  0  0  0  0  0  0  0  0  0  0  0
    2.7560   68.4590   63.9820 C   0  0  0  0  0  0  0  0  0  0  0  0
    4.0510   68.9750   64.0720 C   0  0  0  0  0  0  0  0  0  0  0  0
    4.5220   69.4860   65.2860 C   0  0  0  0  0  0  0  0  0  0  0  0
    3.7050   69.4870   66.4160 C   0  0  0  0  0  0  0  0  0  0  0  0
    2.4160   68.9630   66.3410 C   0  0  0  0  0  0  0  0  0  0  0  0
    1.9590   68.4290   65.1360 C   0  0  0  0  0  0  0  0  0  0  0  0
    1.8120   68.8790   61.8570 C   0  0  0  0  0  0  0  0  0  0  0  0
    2.2140   67.9260   62.8400 O   0  0  0  0  0  0  0  0  0  0  0  0
    1.6850   65.2010   69.9410 C   0  0  0  0  0  0  0  0  0  0  0  0
    1.5510   64.2830   71.0280 O   0  0  0  0  0  0  0  0  0  0  0  0
    2.5020   63.2930   71.0770 C   0  0  0  0  0  0  0  0  0  0  0  0
    3.7810   63.4550   70.5250 C   0  0  0  0  0  0  0  0  0  0  0  0
    4.7390   62.4490   70.6460 C   0  0  0  0  0  0  0  0  0  0  0  0
    4.4520   61.2540   71.3100 C   0  0  0  0  0  0  0  0  0  0  0  0
    3.1600   61.0900   71.8190 C   0  0  0  0  0  0  0  0  0  0  0  0
    2.1680   62.0650   71.6970 C   0  0  0  0  0  0  0  0  0  0  0  0
    0.9750   61.5300   72.2890 C   0  0  0  0  0  0  0  0  0  0  0  0
   -0.3500   61.9980   72.4320 C   0  0  0  0  0  0  0  0  0  0  0  0
   -1.2930   61.2120   73.1020 C   0  0  0  0  0  0  0  0  0  0  0  0
   -0.9380   59.9700   73.6220 C   0  0  0  0  0  0  0  0  0  0  0  0
    0.3600   59.4720   73.4770 C   0  0  0  0  0  0  0  0  0  0  0  0
    1.2900   60.2720   72.8020 C   0  0  0  0  0  0  0  0  0  0  0  0
    2.6040   60.0230   72.4840 N   0  0  0  0  0  0  0  0  0  0  0  0
    0.4250   66.4370   71.1174 H   0  0  0  0  0  0  0  0  0  0  0  0
    1.7669   68.0858   70.6403 H   0  0  0  0  0  0  0  0  0  0  0  0
   -0.8340   65.3651   69.0937 H   0  0  0  0  0  0  0  0  0  0  0  0
   -1.1994   67.0779   69.4241 H   0  0  0  0  0  0  0  0  0  0  0  0
    0.9504   67.3145   67.8513 H   0  0  0  0  0  0  0  0  0  0  0  0
    0.2784   65.8565   67.2445 H   0  0  0  0  0  0  0  0  0  0  0  0
   -1.3951   66.8155   66.2310 H   0  0  0  0  0  0  0  0  0  0  0  0
   -1.5876   68.0121   67.5706 H   0  0  0  0  0  0  0  0  0  0  0  0
   -0.8998   69.2069   65.5711 H   0  0  0  0  0  0  0  0  0  0  0  0
    0.4795   69.1792   66.7323 H   0  0  0  0  0  0  0  0  0  0  0  0
    4.7023   68.9795   63.1856 H   0  0  0  0  0  0  0  0  0  0  0  0
    5.5433   69.8896   65.3496 H   0  0  0  0  0  0  0  0  0  0  0  0
    4.0773   69.9007   67.3648 H   0  0  0  0  0  0  0  0  0  0  0  0
    1.7631   68.9704   67.2262 H   0  0  0  0  0  0  0  0  0  0  0  0
    1.4310   69.7822   62.3562 H   0  0  0  0  0  0  0  0  0  0  0  0
    2.6751   69.1438   61.2285 H   0  0  0  0  0  0  0  0  0  0  0  0
    1.0200   68.4457   61.2285 H   0  0  0  0  0  0  0  0  0  0  0  0
    1.4247   64.6789   69.0085 H   0  0  0  0  0  0  0  0  0  0  0  0
    2.7262   65.5557   69.9394 H   0  0  0  0  0  0  0  0  0  0  0  0
    4.0307   64.3841   69.9917 H   0  0  0  0  0  0  0  0  0  0  0  0
    5.7381   62.5991   70.2110 H   0  0  0  0  0  0  0  0  0  0  0  0
    5.2148   60.4703   71.4282 H   0  0  0  0  0  0  0  0  0  0  0  0
   -0.6387   62.9756   72.0185 H   0  0  0  0  0  0  0  0  0  0  0  0
   -2.3237   61.5780   73.2192 H   0  0  0  0  0  0  0  0  0  0  0  0
   -1.6910   59.3713   74.1554 H   0  0  0  0  0  0  0  0  0  0  0  0
    0.6407   58.4872   73.8787 H   0  0  0  0  0  0  0  0  0  0  0  0
    3.1052   59.1529   72.7134 H   0  0  0  0  0  0  0  0  0  0  0  0
  2  1  1  0
  3  1  1  0
  4  3  1  0
  5  4  1  0
  6  5  1  0
  7  6  1  0
  9  8  2  0
 10  9  1  0
 11 10  2  0
 12 11  1  0
 13  8  1  0
 13  7  1  0
 13 12  2  0
 15 14  1  0
 15  8  1  0
 16  1  1  0
 17 16  1  0
 18 17  1  0
 19 18  2  0
 20 19  1  0
 21 20  2  0
 22 21  1  0
 23 22  2  0
 23 18  1  0
 24 23  1  0
 25 24  2  0
 26 25  1  0
 27 26  2  0
 28 27  1  0
 29 24  1  0
 29 28  2  0
 30 22  1  0
 30 29  1  0
  1 31  1  1
  2 32  1  0
  3 33  1  0
  3 34  1  0
  4 35  1  0
  4 36  1  0
  5 37  1  0
  5 38  1  0
  6 39  1  0
  6 40  1  0
  9 41  1  0
 10 42  1  0
 11 43  1  0
 12 44  1  0
 14 45  1  0
 14 46  1  0
 14 47  1  0
 16 48  1  0
 16 49  1  0
 19 50  1  0
 20 51  1  0
 21 52  1  0
 25 53  1  0
 26 54  1  0
 27 55  1  0
 28 56  1  0
 30 57  1  0
M  CHG  1   4   1
M  END
>  <score>  (6) 
-9.288

$$$$
=
     RDKit          3D

 57 60  0  0  0  0  0  0  0  0999 V2000
    0.6170   65.1310   70.6030 C   0  0  1  0  0  0  0  0  0  0  0  0
    0.0380   65.2800   71.9140 O   0  0  0  0  0  0  0  0  0  0  0  0
    0.9680   66.5390   70.0980 C   0  0  0  0  0  0  0  0  0  0  0  0
    0.9000   66.5100   68.5930 N   0  0  0  0  0  4  0  0  0  0  0  0
   -0.2920   67.2020   68.0190 C   0  0  0  0  0  0  0  0  0  0  0  0
    0.1250   68.1910   66.9300 C   0  0  0  0  0  0  0  0  0  0  0  0
    0.9390   69.2270   67.4840 O   0  0  0  0  0  0  0  0  0  0  0  0
    3.2900   69.7500   67.5490 C   0  0  0  0  0  0  0  0  0  0  0  0
    4.5200   69.7760   66.8870 C   0  0  0  0  0  0  0  0  0  0  0  0
    4.6200   69.3100   65.5710 C   0  0  0  0  0  0  0  0  0  0  0  0
    3.4960   68.8170   64.9100 C   0  0  0  0  0  0  0  0  0  0  0  0
    2.2620   68.8000   65.5560 C   0  0  0  0  0  0  0  0  0  0  0  0
    2.1600   69.2890   66.8590 C   0  0  0  0  0  0  0  0  0  0  0  0
    4.2290   70.8090   69.4410 C   0  0  0  0  0  0  0  0  0  0  0  0
    3.0940   70.1960   68.8320 O   0  0  0  0  0  0  0  0  0  0  0  0
    1.8510   64.2150   70.6370 C   0  0  0  0  0  0  0  0  0  0  0  0
    1.6780   63.0080   69.8920 O   0  0  0  0  0  0  0  0  0  0  0  0
    2.4830   61.9640   70.2770 C   0  0  0  0  0  0  0  0  0  0  0  0
    3.7020   61.6840   69.6440 C   0  0  0  0  0  0  0  0  0  0  0  0
    4.5200   60.6510   70.1000 C   0  0  0  0  0  0  0  0  0  0  0  0
    4.1460   59.8630   71.1910 C   0  0  0  0  0  0  0  0  0  0  0  0
    2.9080   60.1260   71.7860 C   0  0  0  0  0  0  0  0  0  0  0  0
    2.0530   61.1360   71.3420 C   0  0  0  0  0  0  0  0  0  0  0  0
    0.8710   61.0760   72.1530 C   0  0  0  0  0  0  0  0  0  0  0  0
   -0.3530   61.7820   72.1670 C   0  0  0  0  0  0  0  0  0  0  0  0
   -1.3160   61.4800   73.1360 C   0  0  0  0  0  0  0  0  0  0  0  0
   -1.0800   60.4850   74.0820 C   0  0  0  0  0  0  0  0  0  0  0  0
    0.1120   59.7560   74.0790 C   0  0  0  0  0  0  0  0  0  0  0  0
    1.0640   60.0710   73.1010 C   0  0  0  0  0  0  0  0  0  0  0  0
    2.2870   59.5010   72.8410 N   0  0  0  0  0  0  0  0  0  0  0  0
   -0.0971   64.6500   69.9184 H   0  0  0  0  0  0  0  0  0  0  0  0
    0.7278   65.1025   72.6015 H   0  0  0  0  0  0  0  0  0  0  0  0
    0.2471   67.2701   70.4926 H   0  0  0  0  0  0  0  0  0  0  0  0
    1.9732   66.8322   70.4350 H   0  0  0  0  0  0  0  0  0  0  0  0
    1.7466   66.9651   68.2229 H   0  0  0  0  0  0  0  0  0  0  0  0
    0.8264   65.5196   68.3198 H   0  0  0  0  0  0  0  0  0  0  0  0
   -0.9696   66.4522   67.5846 H   0  0  0  0  0  0  0  0  0  0  0  0
   -0.7983   67.7564   68.8229 H   0  0  0  0  0  0  0  0  0  0  0  0
    0.6947   67.6577   66.1547 H   0  0  0  0  0  0  0  0  0  0  0  0
   -0.7779   68.6418   66.4922 H   0  0  0  0  0  0  0  0  0  0  0  0
    5.4119   70.1636   67.4012 H   0  0  0  0  0  0  0  0  0  0  0  0
    5.5913   69.3329   65.0552 H   0  0  0  0  0  0  0  0  0  0  0  0
    3.5834   68.4419   63.8796 H   0  0  0  0  0  0  0  0  0  0  0  0
    1.3737   68.4037   65.0424 H   0  0  0  0  0  0  0  0  0  0  0  0
    4.1312   70.7562   70.5354 H   0  0  0  0  0  0  0  0  0  0  0  0
    5.1423   70.2815   69.1286 H   0  0  0  0  0  0  0  0  0  0  0  0
    4.2887   71.8620   69.1286 H   0  0  0  0  0  0  0  0  0  0  0  0
    2.7062   64.7651   70.2174 H   0  0  0  0  0  0  0  0  0  0  0  0
    2.0171   63.9299   71.6864 H   0  0  0  0  0  0  0  0  0  0  0  0
    4.0165   62.2856   68.7784 H   0  0  0  0  0  0  0  0  0  0  0  0
    5.4756   60.4534   69.5922 H   0  0  0  0  0  0  0  0  0  0  0  0
    4.8015   59.0644   71.5685 H   0  0  0  0  0  0  0  0  0  0  0  0
   -0.5478   62.5653   71.4196 H   0  0  0  0  0  0  0  0  0  0  0  0
   -2.2670   62.0326   73.1510 H   0  0  0  0  0  0  0  0  0  0  0  0
   -1.8442   60.2698   74.8434 H   0  0  0  0  0  0  0  0  0  0  0  0
    0.2963   58.9628   74.8185 H   0  0  0  0  0  0  0  0  0  0  0  0
    2.6856   58.7102   73.3670 H   0  0  0  0  0  0  0  0  0  0  0  0
  2  1  1  0
  3  1  1  0
  4  3  1  0
  5  4  1  0
  6  5  1  0
  7  6  1  0
  9  8  2  0
 10  9  1  0
 11 10  2  0
 12 11  1  0
 13  8  1  0
 13  7  1  0
 13 12  2  0
 15 14  1  0
 15  8  1  0
 16  1  1  0
 17 16  1  0
 18 17  1  0
 19 18  2  0
 20 19  1  0
 21 20  2  0
 22 21  1  0
 23 22  2  0
 23 18  1  0
 24 23  1  0
 25 24  2  0
 26 25  1  0
 27 26  2  0
 28 27  1  0
 29 24  1  0
 29 28  2  0
 30 22  1  0
 30 29  1  0
  1 31  1  6
  2 32  1  0
  3 33  1  0
  3 34  1  0
  4 35  1  0
  4 36  1  0
  5 37  1  0
  5 38  1  0
  6 39  1  0
  6 40  1  0
  9 41  1  0
 10 42  1  0
 11 43  1  0
 12 44  1  0
 14 45  1  0
 14 46  1  0
 14 47  1  0
 16 48  1  0
 16 49  1  0
 19 50  1  0
 20 51  1  0
 21 52  1  0
 25 53  1  0
 26 54  1  0
 27 55  1  0
 28 56  1  0
 30 57  1  0
M  CHG  1   4   1
M  END
>  <score>  (7) 
-9.066

$$$$
=
     RDKit          3D

 57 60  0  0  0  0  0  0  0  0999 V2000
    1.6690   67.4920   68.7270 C   0  0  1  0  0  0  0  0  0  0  0  0
    1.9270   68.7010   69.4660 O   0  0  0  0  0  0  0  0  0  0  0  0
    0.7190   66.6330   69.5770 C   0  0  0  0  0  0  0  0  0  0  0  0
    1.2250   65.2150   69.5300 N   0  0  0  0  0  4  0  0  0  0  0  0
    2.0070   64.8030   70.7330 C   0  0  0  0  0  0  0  0  0  0  0  0
    1.7620   63.3300   71.0630 C   0  0  0  0  0  0  0  0  0  0  0  0
    2.0420   63.0740   72.4410 O   0  0  0  0  0  0  0  0  0  0  0  0
    0.2620   62.9440   74.0590 C   0  0  0  0  0  0  0  0  0  0  0  0
   -0.7810   62.2040   74.6200 C   0  0  0  0  0  0  0  0  0  0  0  0
   -1.0770   60.9260   74.1340 C   0  0  0  0  0  0  0  0  0  0  0  0
   -0.3360   60.3800   73.0870 C   0  0  0  0  0  0  0  0  0  0  0  0
    0.7150   61.1040   72.5290 C   0  0  0  0  0  0  0  0  0  0  0  0
    1.0250   62.3680   73.0330 C   0  0  0  0  0  0  0  0  0  0  0  0
    1.0900   64.2770   75.8260 C   0  0  0  0  0  0  0  0  0  0  0  0
    0.6320   64.1970   74.4770 O   0  0  0  0  0  0  0  0  0  0  0  0
    1.0730   67.7970   67.3430 C   0  0  0  0  0  0  0  0  0  0  0  0
    1.5250   69.0370   66.7960 O   0  0  0  0  0  0  0  0  0  0  0  0
    2.3480   68.9280   65.7020 C   0  0  0  0  0  0  0  0  0  0  0  0
    1.9080   68.3930   64.4840 C   0  0  0  0  0  0  0  0  0  0  0  0
    2.7560   68.3510   63.3780 C   0  0  0  0  0  0  0  0  0  0  0  0
    4.0650   68.8330   63.4530 C   0  0  0  0  0  0  0  0  0  0  0  0
    4.5030   69.3260   64.6860 C   0  0  0  0  0  0  0  0  0  0  0  0
    3.6900   69.3620   65.8200 C   0  0  0  0  0  0  0  0  0  0  0  0
    4.4880   69.8810   66.8950 C   0  0  0  0  0  0  0  0  0  0  0  0
    4.2610   70.1070   68.2710 C   0  0  0  0  0  0  0  0  0  0  0  0
    5.2760   70.6630   69.0580 C   0  0  0  0  0  0  0  0  0  0  0  0
    6.5080   70.9880   68.4970 C   0  0  0  0  0  0  0  0  0  0  0  0
    6.7670   70.7560   67.1440 C   0  0  0  0  0  0  0  0  0  0  0  0
    5.7410   70.1970   66.3720 C   0  0  0  0  0  0  0  0  0  0  0  0
    5.7300   69.8310   65.0470 N   0  0  0  0  0  0  0  0  0  0  0  0
    2.6067   66.9486   68.5388 H   0  0  0  0  0  0  0  0  0  0  0  0
    1.8862   68.5096   70.4365 H   0  0  0  0  0  0  0  0  0  0  0  0
    0.7133   66.9953   70.6156 H   0  0  0  0  0  0  0  0  0  0  0  0
   -0.3080   66.6906   69.1873 H   0  0  0  0  0  0  0  0  0  0  0  0
    0.4144   64.5858   69.4408 H   0  0  0  0  0  0  0  0  0  0  0  0
    1.8665   65.1566   68.7263 H   0  0  0  0  0  0  0  0  0  0  0  0
    3.0785   64.9548   70.5358 H   0  0  0  0  0  0  0  0  0  0  0  0
    1.6844   65.4140   71.5889 H   0  0  0  0  0  0  0  0  0  0  0  0
    0.7107   63.0821   70.8548 H   0  0  0  0  0  0  0  0  0  0  0  0
    2.4268   62.7105   70.4431 H   0  0  0  0  0  0  0  0  0  0  0  0
   -1.3713   62.6271   75.4461 H   0  0  0  0  0  0  0  0  0  0  0  0
   -1.8996   60.3483   74.5808 H   0  0  0  0  0  0  0  0  0  0  0  0
   -0.5809   59.3790   72.7021 H   0  0  0  0  0  0  0  0  0  0  0  0
    1.2970   60.6822   71.6963 H   0  0  0  0  0  0  0  0  0  0  0  0
    0.2418   64.1288   76.5106 H   0  0  0  0  0  0  0  0  0  0  0  0
    1.8452   63.4972   76.0037 H   0  0  0  0  0  0  0  0  0  0  0  0
    1.5361   65.2667   76.0037 H   0  0  0  0  0  0  0  0  0  0  0  0
    1.3561   66.9873   66.6544 H   0  0  0  0  0  0  0  0  0  0  0  0
   -0.0175   67.8725   67.4663 H   0  0  0  0  0  0  0  0  0  0  0  0
    0.8832   68.0022   64.3995 H   0  0  0  0  0  0  0  0  0  0  0  0
    2.3880   67.9312   62.4302 H   0  0  0  0  0  0  0  0  0  0  0  0
    4.7268   68.8250   62.5744 H   0  0  0  0  0  0  0  0  0  0  0  0
    3.2916   69.8473   68.7214 H   0  0  0  0  0  0  0  0  0  0  0  0
    5.0989   70.8447   70.1283 H   0  0  0  0  0  0  0  0  0  0  0  0
    7.2898   71.4345   69.1290 H   0  0  0  0  0  0  0  0  0  0  0  0
    7.7427   71.0037   66.7005 H   0  0  0  0  0  0  0  0  0  0  0  0
    6.5338   69.9228   64.4095 H   0  0  0  0  0  0  0  0  0  0  0  0
  2  1  1  0
  3  1  1  0
  4  3  1  0
  5  4  1  0
  6  5  1  0
  7  6  1  0
  9  8  2  0
 10  9  1  0
 11 10  2  0
 12 11  1  0
 13  8  1  0
 13  7  1  0
 13 12  2  0
 15 14  1  0
 15  8  1  0
 16  1  1  0
 17 16  1  0
 18 17  1  0
 19 18  2  0
 20 19  1  0
 21 20  2  0
 22 21  1  0
 23 22  2  0
 23 18  1  0
 24 23  1  0
 25 24  2  0
 26 25  1  0
 27 26  2  0
 28 27  1  0
 29 24  1  0
 29 28  2  0
 30 22  1  0
 30 29  1  0
  1 31  1  6
  2 32  1  0
  3 33  1  0
  3 34  1  0
  4 35  1  0
  4 36  1  0
  5 37  1  0
  5 38  1  0
  6 39  1  0
  6 40  1  0
  9 41  1  0
 10 42  1  0
 11 43  1  0
 12 44  1  0
 14 45  1  0
 14 46  1  0
 14 47  1  0
 16 48  1  0
 16 49  1  0
 19 50  1  0
 20 51  1  0
 21 52  1  0
 25 53  1  0
 26 54  1  0
 27 55  1  0
 28 56  1  0
 30 57  1  0
M  CHG  1   4   1
M  END
>  <score>  (8) 
-8.721

$$$$
=
     RDKit          3D

 57 60  0  0  0  0  0  0  0  0999 V2000
    0.8770   66.5640   69.9780 C   0  0  1  0  0  0  0  0  0  0  0  0
    1.5630   67.4420   69.0650 O   0  0  0  0  0  0  0  0  0  0  0  0
   -0.4950   66.2480   69.3620 C   0  0  0  0  0  0  0  0  0  0  0  0
   -0.4410   66.6410   67.9080 N   0  0  0  0  0  4  0  0  0  0  0  0
   -1.3480   67.7680   67.5430 C   0  0  0  0  0  0  0  0  0  0  0  0
   -0.6560   68.7330   66.5790 C   0  0  0  0  0  0  0  0  0  0  0  0
   -0.3380   68.0690   65.3540 O   0  0  0  0  0  0  0  0  0  0  0  0
    1.2270   68.6400   63.6130 C   0  0  0  0  0  0  0  0  0  0  0  0
    2.5420   68.9430   63.2500 C   0  0  0  0  0  0  0  0  0  0  0  0
    3.5470   68.9890   64.2230 C   0  0  0  0  0  0  0  0  0  0  0  0
    3.2470   68.7350   65.5610 C   0  0  0  0  0  0  0  0  0  0  0  0
    1.9420   68.4190   65.9310 C   0  0  0  0  0  0  0  0  0  0  0  0
    0.9460   68.3470   64.9560 C   0  0  0  0  0  0  0  0  0  0  0  0
    0.2380   69.4750   61.6370 C   0  0  0  0  0  0  0  0  0  0  0  0
    0.1810   68.5600   62.7300 O   0  0  0  0  0  0  0  0  0  0  0  0
    1.6890   65.2850   70.2410 C   0  0  0  0  0  0  0  0  0  0  0  0
    0.8850   64.1840   70.6670 O   0  0  0  0  0  0  0  0  0  0  0  0
    0.9490   63.8980   72.0090 C   0  0  0  0  0  0  0  0  0  0  0  0
    0.0670   64.4650   72.9390 C   0  0  0  0  0  0  0  0  0  0  0  0
    0.1260   64.1060   74.2850 C   0  0  0  0  0  0  0  0  0  0  0  0
    1.0670   63.1810   74.7450 C   0  0  0  0  0  0  0  0  0  0  0  0
    1.9670   62.6560   73.8130 C   0  0  0  0  0  0  0  0  0  0  0  0
    1.9530   63.0090   72.4630 C   0  0  0  0  0  0  0  0  0  0  0  0
    3.0400   62.3150   71.8330 C   0  0  0  0  0  0  0  0  0  0  0  0
    3.5690   62.2930   70.5240 C   0  0  0  0  0  0  0  0  0  0  0  0
    4.6560   61.4620   70.2300 C   0  0  0  0  0  0  0  0  0  0  0  0
    5.2230   60.6630   71.2190 C   0  0  0  0  0  0  0  0  0  0  0  0
    4.7330   60.6800   72.5280 C   0  0  0  0  0  0  0  0  0  0  0  0
    3.6470   61.5180   72.8040 C   0  0  0  0  0  0  0  0  0  0  0  0
    2.9960   61.7610   73.9900 N   0  0  0  0  0  0  0  0  0  0  0  0
    0.7506   67.0491   70.9571 H   0  0  0  0  0  0  0  0  0  0  0  0
    2.0844   68.1093   69.5778 H   0  0  0  0  0  0  0  0  0  0  0  0
   -0.7085   65.1727   69.4526 H   0  0  0  0  0  0  0  0  0  0  0  0
   -1.2901   66.8013   69.8833 H   0  0  0  0  0  0  0  0  0  0  0  0
    0.5253   66.9191   67.6846 H   0  0  0  0  0  0  0  0  0  0  0  0
   -0.7563   65.8219   67.3690 H   0  0  0  0  0  0  0  0  0  0  0  0
   -2.2504   67.3630   67.0617 H   0  0  0  0  0  0  0  0  0  0  0  0
   -1.6149   68.3160   68.4587 H   0  0  0  0  0  0  0  0  0  0  0  0
   -1.3267   69.5793   66.3693 H   0  0  0  0  0  0  0  0  0  0  0  0
    0.2743   69.0944   67.0416 H   0  0  0  0  0  0  0  0  0  0  0  0
    2.7878   69.1458   62.1972 H   0  0  0  0  0  0  0  0  0  0  0  0
    4.5803   69.2271   63.9304 H   0  0  0  0  0  0  0  0  0  0  0  0
    4.0393   68.7841   66.3225 H   0  0  0  0  0  0  0  0  0  0  0  0
    1.6976   68.2272   66.9862 H   0  0  0  0  0  0  0  0  0  0  0  0
    0.3021   70.5032   62.0225 H   0  0  0  0  0  0  0  0  0  0  0  0
    1.1244   69.2578   61.0228 H   0  0  0  0  0  0  0  0  0  0  0  0
   -0.6685   69.3695   61.0228 H   0  0  0  0  0  0  0  0  0  0  0  0
    2.2052   65.0017   69.3119 H   0  0  0  0  0  0  0  0  0  0  0  0
    2.3944   65.5080   71.0550 H   0  0  0  0  0  0  0  0  0  0  0  0
   -0.6791   65.2005   72.6037 H   0  0  0  0  0  0  0  0  0  0  0  0
   -0.5801   64.5585   74.9968 H   0  0  0  0  0  0  0  0  0  0  0  0
    1.0984   62.8771   75.8017 H   0  0  0  0  0  0  0  0  0  0  0  0
    3.1289   62.9259   69.7393 H   0  0  0  0  0  0  0  0  0  0  0  0
    5.0656   61.4400   69.2093 H   0  0  0  0  0  0  0  0  0  0  0  0
    6.0699   60.0080   70.9664 H   0  0  0  0  0  0  0  0  0  0  0  0
    5.1852   60.0566   73.3134 H   0  0  0  0  0  0  0  0  0  0  0  0
    3.2457   61.3300   74.8915 H   0  0  0  0  0  0  0  0  0  0  0  0
  2  1  1  0
  3  1  1  0
  4  3  1  0
  5  4  1  0
  6  5  1  0
  7  6  1  0
  9  8  2  0
 10  9  1  0
 11 10  2  0
 12 11  1  0
 13  8  1  0
 13  7  1  0
 13 12  2  0
 15 14  1  0
 15  8  1  0
 16  1  1  0
 17 16  1  0
 18 17  1  0
 19 18  2  0
 20 19  1  0
 21 20  2  0
 22 21  1  0
 23 22  2  0
 23 18  1  0
 24 23  1  0
 25 24  2  0
 26 25  1  0
 27 26  2  0
 28 27  1  0
 29 24  1  0
 29 28  2  0
 30 22  1  0
 30 29  1  0
  1 31  1  1
  2 32  1  0
  3 33  1  0
  3 34  1  0
  4 35  1  0
  4 36  1  0
  5 37  1  0
  5 38  1  0
  6 39  1  0
  6 40  1  0
  9 41  1  0
 10 42  1  0
 11 43  1  0
 12 44  1  0
 14 45  1  0
 14 46  1  0
 14 47  1  0
 16 48  1  0
 16 49  1  0
 19 50  1  0
 20 51  1  0
 21 52  1  0
 25 53  1  0
 26 54  1  0
 27 55  1  0
 28 56  1  0
 30 57  1  0
M  CHG  1   4   1
M  END
>  <score>  (9) 
-8.658

$$$$
