=
     RDKit          3D

 70 75  0  0  0  0  0  0  0  0999 V2000
    0.6730   62.5230   72.4110 C   0  0  0  0  0  0  0  0  0  0  0  0
    0.0830   63.7580   72.6930 C   0  0  0  0  0  0  0  0  0  0  0  0
    0.1680   64.8030   71.7700 C   0  0  0  0  0  0  0  0  0  0  0  0
    0.8330   64.6250   70.5530 C   0  0  0  0  0  0  0  0  0  0  0  0
    1.4060   63.3860   70.2620 C   0  0  0  0  0  0  0  0  0  0  0  0
    1.3240   62.3360   71.1850 C   0  0  0  0  0  0  0  0  0  0  0  0
    0.5290   61.7040   74.6160 O   0  0  0  0  0  0  0  0  0  0  0  0
    0.5620   61.4360   73.4210 C   0  0  0  0  0  0  0  0  0  0  0  0
    0.5400   60.1450   72.9310 N   0  0  0  0  0  0  0  0  0  0  0  0
    0.5150   59.0040   73.8300 C   0  0  0  0  0  0  0  0  0  0  0  0
    1.8170   58.1970   73.7860 C   0  0  0  0  0  0  0  0  0  0  0  0
    2.5980   58.4540   72.5370 C   0  0  0  0  0  0  0  0  0  0  0  0
    2.5780   57.7000   71.3790 C   0  0  0  0  0  0  0  0  0  0  0  0
    3.4320   58.2760   70.4780 N   0  0  0  0  0  0  0  0  0  0  0  0
    4.0170   59.3960   71.0220 C   0  0  0  0  0  0  0  0  0  0  0  0
    3.5100   59.5360   72.3130 C   0  0  0  0  0  0  0  0  0  0  0  0
    3.9530   60.6210   73.0960 C   0  0  0  0  0  0  0  0  0  0  0  0
    4.8810   61.5210   72.5620 C   0  0  0  0  0  0  0  0  0  0  0  0
    5.3680   61.3550   71.2680 C   0  0  0  0  0  0  0  0  0  0  0  0
    4.9450   60.2880   70.4710 C   0  0  0  0  0  0  0  0  0  0  0  0
    0.8440   65.7270   69.7460 O   0  0  0  0  0  0  0  0  0  0  0  0
   -0.3910   66.4070   69.5440 C   0  0  0  0  0  0  0  0  0  0  0  0
   -0.6750   66.5190   68.0460 C   0  0  0  0  0  0  0  0  0  0  0  0
   -1.7570   67.5470   67.6850 C   0  0  0  0  0  0  0  0  0  0  0  0
   -1.3510   68.5840   66.6340 C   0  0  0  0  0  0  0  0  0  0  0  0
   -0.3730   68.0740   65.7320 O   0  0  0  0  0  0  0  0  0  0  0  0
    0.9340   68.4510   65.8670 C   0  0  0  0  0  0  0  0  0  0  0  0
    1.9470   68.3000   64.9000 C   0  0  0  0  0  0  0  0  0  0  0  0
    3.2630   68.7290   65.1460 C   0  0  0  0  0  0  0  0  0  0  0  0
    3.5500   69.3110   66.3660 C   0  0  0  0  0  0  0  0  0  0  0  0
    4.7820   69.8430   66.9070 C   0  0  0  0  0  0  0  0  0  0  0  0
    4.5420   70.3280   68.2040 C   0  0  0  0  0  0  0  0  0  0  0  0
    3.1120   70.1030   68.5100 C   0  0  0  0  0  0  0  0  0  0  0  0
    2.5370   70.3930   69.5380 O   0  0  0  0  0  0  0  0  0  0  0  0
    2.5280   69.4550   67.3150 C   0  0  0  0  0  0  0  0  0  0  0  0
    1.2290   69.0410   67.0990 C   0  0  0  0  0  0  0  0  0  0  0  0
    5.5190   70.9010   68.9940 C   0  0  0  0  0  0  0  0  0  0  0  0
    6.8010   70.9910   68.4500 C   0  0  0  0  0  0  0  0  0  0  0  0
    7.0660   70.5110   67.1520 C   0  0  0  0  0  0  0  0  0  0  0  0
    6.0550   69.9330   66.3710 C   0  0  0  0  0  0  0  0  0  0  0  0
   -0.4495   63.9075   73.6438 H   0  0  0  0  0  0  0  0  0  0  0  0
   -0.2923   65.7746   72.0027 H   0  0  0  0  0  0  0  0  0  0  0  0
    1.9241   63.2337   69.3037 H   0  0  0  0  0  0  0  0  0  0  0  0
    1.7727   61.3605   70.9462 H   0  0  0  0  0  0  0  0  0  0  0  0
    0.5413   59.9887   71.9129 H   0  0  0  0  0  0  0  0  0  0  0  0
    0.3586   59.3666   74.8567 H   0  0  0  0  0  0  0  0  0  0  0  0
   -0.3016   58.3411   73.5079 H   0  0  0  0  0  0  0  0  0  0  0  0
    2.4346   58.4732   74.6533 H   0  0  0  0  0  0  0  0  0  0  0  0
    1.5537   57.1292   73.8063 H   0  0  0  0  0  0  0  0  0  0  0  0
    1.9788   56.7930   71.2105 H   0  0  0  0  0  0  0  0  0  0  0  0
    3.6113   57.9214   69.5277 H   0  0  0  0  0  0  0  0  0  0  0  0
    3.5720   60.7588   74.1187 H   0  0  0  0  0  0  0  0  0  0  0  0
    5.2297   62.3685   73.1704 H   0  0  0  0  0  0  0  0  0  0  0  0
    6.0968   62.0748   70.8671 H   0  0  0  0  0  0  0  0  0  0  0  0
    5.3271   60.1538   69.4483 H   0  0  0  0  0  0  0  0  0  0  0  0
   -1.2023   65.8448   70.0295 H   0  0  0  0  0  0  0  0  0  0  0  0
   -0.3292   67.4147   69.9807 H   0  0  0  0  0  0  0  0  0  0  0  0
    0.2575   66.8073   67.5388 H   0  0  0  0  0  0  0  0  0  0  0  0
   -1.0511   65.5375   67.7216 H   0  0  0  0  0  0  0  0  0  0  0  0
   -2.6312   66.9999   67.3023 H   0  0  0  0  0  0  0  0  0  0  0  0
   -1.9590   68.1119   68.6070 H   0  0  0  0  0  0  0  0  0  0  0  0
   -2.2432   68.8779   66.0617 H   0  0  0  0  0  0  0  0  0  0  0  0
   -0.9133   69.4463   67.1583 H   0  0  0  0  0  0  0  0  0  0  0  0
    1.7034   67.8369   63.9324 H   0  0  0  0  0  0  0  0  0  0  0  0
    4.0467   68.6042   64.3843 H   0  0  0  0  0  0  0  0  0  0  0  0
    0.4541   69.1708   67.8688 H   0  0  0  0  0  0  0  0  0  0  0  0
    5.2968   71.2698   70.0062 H   0  0  0  0  0  0  0  0  0  0  0  0
    7.6127   71.4411   69.0404 H   0  0  0  0  0  0  0  0  0  0  0  0
    8.0844   70.5912   66.7440 H   0  0  0  0  0  0  0  0  0  0  0  0
    6.2681   69.5606   65.3581 H   0  0  0  0  0  0  0  0  0  0  0  0
  2  1  2  0
  3  2  1  0
  4  3  2  0
  5  4  1  0
  6  5  2  0
  6  1  1  0
  8  7  2  0
  8  1  1  0
  9  8  1  0
 10  9  1  0
 11 10  1  0
 12 11  1  0
 13 12  2  0
 14 13  1  0
 15 14  1  0
 16 15  2  0
 16 12  1  0
 17 16  1  0
 18 17  2  0
 19 18  1  0
 20 15  1  0
 20 19  2  0
 21  4  1  0
 22 21  1  0
 23 22  1  0
 24 23  1  0
 25 24  1  0
 26 25  1  0
 27 26  1  0
 28 27  2  0
 29 28  1  0
 30 29  2  0
 31 30  1  0
 32 31  2  0
 33 32  1  0
 34 33  2  0
 35 33  1  0
 35 30  1  0
 36 35  2  0
 36 27  1  0
 37 32  1  0
 38 37  2  0
 39 38  1  0
 40 31  1  0
 40 39  2  0
  2 41  1  0
  3 42  1  0
  5 43  1  0
  6 44  1  0
  9 45  1  0
 10 46  1  0
 10 47  1  0
 11 48  1  0
 11 49  1  0
 13 50  1  0
 14 51  1  0
 17 52  1  0
 18 53  1  0
 19 54  1  0
 20 55  1  0
 22 56  1  0
 22 57  1  0
 23 58  1  0
 23 59  1  0
 24 60  1  0
 24 61  1  0
 25 62  1  0
 25 63  1  0
 28 64  1  0
 29 65  1  0
 36 66  1  0
 37 67  1  0
 38 68  1  0
 39 69  1  0
 40 70  1  0
M  END
>  <score>  (1) 
-12.513

$$$$
=
     RDKit          3D

 70 75  0  0  0  0  0  0  0  0999 V2000
    2.3440   62.7050   71.6250 C   0  0  0  0  0  0  0  0  0  0  0  0
    1.0520   62.9730   72.0860 C   0  0  0  0  0  0  0  0  0  0  0  0
    0.3780   64.1200   71.6580 C   0  0  0  0  0  0  0  0  0  0  0  0
    0.9810   65.0050   70.7590 C   0  0  0  0  0  0  0  0  0  0  0  0
    2.2630   64.7280   70.2820 C   0  0  0  0  0  0  0  0  0  0  0  0
    2.9420   63.5810   70.7100 C   0  0  0  0  0  0  0  0  0  0  0  0
    3.8220   61.5330   73.0380 O   0  0  0  0  0  0  0  0  0  0  0  0
    3.0290   61.4750   72.1060 C   0  0  0  0  0  0  0  0  0  0  0  0
    2.7450   60.3100   71.4220 N   0  0  0  0  0  0  0  0  0  0  0  0
    3.4180   59.0650   71.7530 C   0  0  0  0  0  0  0  0  0  0  0  0
    2.4340   57.9110   71.9760 C   0  0  0  0  0  0  0  0  0  0  0  0
    1.8620   57.9150   73.3570 C   0  0  0  0  0  0  0  0  0  0  0  0
    2.2750   57.1450   74.4260 C   0  0  0  0  0  0  0  0  0  0  0  0
    1.4930   57.4540   75.5060 N   0  0  0  0  0  0  0  0  0  0  0  0
    0.5680   58.4140   75.1670 C   0  0  0  0  0  0  0  0  0  0  0  0
    0.7780   58.7270   73.8240 C   0  0  0  0  0  0  0  0  0  0  0  0
   -0.0480   59.6990   73.2230 C   0  0  0  0  0  0  0  0  0  0  0  0
   -1.0460   60.3190   73.9810 C   0  0  0  0  0  0  0  0  0  0  0  0
   -1.2300   59.9850   75.3210 C   0  0  0  0  0  0  0  0  0  0  0  0
   -0.4260   59.0250   75.9410 C   0  0  0  0  0  0  0  0  0  0  0  0
    0.2130   66.0850   70.4270 O   0  0  0  0  0  0  0  0  0  0  0  0
    0.2310   66.5130   69.0690 C   0  0  0  0  0  0  0  0  0  0  0  0
   -1.1920   66.8410   68.6160 C   0  0  0  0  0  0  0  0  0  0  0  0
   -1.3700   66.9010   67.0920 C   0  0  0  0  0  0  0  0  0  0  0  0
   -1.1080   68.2690   66.4560 C   0  0  0  0  0  0  0  0  0  0  0  0
   -0.1460   68.1940   65.4070 O   0  0  0  0  0  0  0  0  0  0  0  0
    1.1460   68.5700   65.6460 C   0  0  0  0  0  0  0  0  0  0  0  0
    2.2130   68.5090   64.7280 C   0  0  0  0  0  0  0  0  0  0  0  0
    3.5070   68.9270   65.0820 C   0  0  0  0  0  0  0  0  0  0  0  0
    3.7190   69.4060   66.3610 C   0  0  0  0  0  0  0  0  0  0  0  0
    4.9120   69.9010   67.0130 C   0  0  0  0  0  0  0  0  0  0  0  0
    4.5940   70.2730   68.3310 C   0  0  0  0  0  0  0  0  0  0  0  0
    3.1530   70.0110   68.5360 C   0  0  0  0  0  0  0  0  0  0  0  0
    2.5180   70.2090   69.5500 O   0  0  0  0  0  0  0  0  0  0  0  0
    2.6440   69.4610   67.2600 C   0  0  0  0  0  0  0  0  0  0  0  0
    1.3640   69.0570   66.9370 C   0  0  0  0  0  0  0  0  0  0  0  0
    5.5190   70.7860   69.2190 C   0  0  0  0  0  0  0  0  0  0  0  0
    6.8280   70.9320   68.7570 C   0  0  0  0  0  0  0  0  0  0  0  0
    7.1700   70.5650   67.4410 C   0  0  0  0  0  0  0  0  0  0  0  0
    6.2110   70.0470   66.5590 C   0  0  0  0  0  0  0  0  0  0  0  0
    0.5647   62.2796   72.7872 H   0  0  0  0  0  0  0  0  0  0  0  0
   -0.6354   64.3283   72.0315 H   0  0  0  0  0  0  0  0  0  0  0  0
    2.7417   65.4134   69.5671 H   0  0  0  0  0  0  0  0  0  0  0  0
    3.9502   63.3666   70.3258 H   0  0  0  0  0  0  0  0  0  0  0  0
    2.0458   60.3233   70.6658 H   0  0  0  0  0  0  0  0  0  0  0  0
    4.0941   58.7984   70.9273 H   0  0  0  0  0  0  0  0  0  0  0  0
    3.9704   59.2212   72.6913 H   0  0  0  0  0  0  0  0  0  0  0  0
    1.6112   58.0021   71.2516 H   0  0  0  0  0  0  0  0  0  0  0  0
    2.9838   56.9678   71.8411 H   0  0  0  0  0  0  0  0  0  0  0  0
    3.0925   56.4092   74.4121 H   0  0  0  0  0  0  0  0  0  0  0  0
    1.5842   57.0284   76.4395 H   0  0  0  0  0  0  0  0  0  0  0  0
    0.0918   59.9676   72.1655 H   0  0  0  0  0  0  0  0  0  0  0  0
   -1.6920   61.0776   73.5149 H   0  0  0  0  0  0  0  0  0  0  0  0
   -2.0206   60.4848   75.8999 H   0  0  0  0  0  0  0  0  0  0  0  0
   -0.5688   58.7589   76.9987 H   0  0  0  0  0  0  0  0  0  0  0  0
    0.8607   67.4101   68.9762 H   0  0  0  0  0  0  0  0  0  0  0  0
    0.6393   65.7098   68.4381 H   0  0  0  0  0  0  0  0  0  0  0  0
   -1.8668   66.0677   69.0118 H   0  0  0  0  0  0  0  0  0  0  0  0
   -1.4222   67.8455   69.0006 H   0  0  0  0  0  0  0  0  0  0  0  0
   -0.6756   66.1775   66.6400 H   0  0  0  0  0  0  0  0  0  0  0  0
   -2.4292   66.6742   66.9003 H   0  0  0  0  0  0  0  0  0  0  0  0
   -2.0520   68.6565   66.0453 H   0  0  0  0  0  0  0  0  0  0  0  0
   -0.7101   68.9357   67.2352 H   0  0  0  0  0  0  0  0  0  0  0  0
    2.0293   68.1263   63.7132 H   0  0  0  0  0  0  0  0  0  0  0  0
    4.3329   68.8742   64.3573 H   0  0  0  0  0  0  0  0  0  0  0  0
    0.5456   69.1164   67.6696 H   0  0  0  0  0  0  0  0  0  0  0  0
    5.2368   71.0669   70.2444 H   0  0  0  0  0  0  0  0  0  0  0  0
    7.6001   71.3377   69.4273 H   0  0  0  0  0  0  0  0  0  0  0  0
    8.2083   70.6870   67.0989 H   0  0  0  0  0  0  0  0  0  0  0  0
    6.4844   69.7638   65.5319 H   0  0  0  0  0  0  0  0  0  0  0  0
  2  1  2  0
  3  2  1  0
  4  3  2  0
  5  4  1  0
  6  5  2  0
  6  1  1  0
  8  7  2  0
  8  1  1  0
  9  8  1  0
 10  9  1  0
 11 10  1  0
 12 11  1  0
 13 12  2  0
 14 13  1  0
 15 14  1  0
 16 15  2  0
 16 12  1  0
 17 16  1  0
 18 17  2  0
 19 18  1  0
 20 15  1  0
 20 19  2  0
 21  4  1  0
 22 21  1  0
 23 22  1  0
 24 23  1  0
 25 24  1  0
 26 25  1  0
 27 26  1  0
 28 27  2  0
 29 28  1  0
 30 29  2  0
 31 30  1  0
 32 31  2  0
 33 32  1  0
 34 33  2  0
 35 33  1  0
 35 30  1  0
 36 35  2  0
 36 27  1  0
 37 32  1  0
 38 37  2  0
 39 38  1  0
 40 31  1  0
 40 39  2  0
  2 41  1  0
  3 42  1  0
  5 43  1  0
  6 44  1  0
  9 45  1  0
 10 46  1  0
 10 47  1  0
 11 48  1  0
 11 49  1  0
 13 50  1  0
 14 51  1  0
 17 52  1  0
 18 53  1  0
 19 54  1  0
 20 55  1  0
 22 56  1  0
 22 57  1  0
 23 58  1  0
 23 59  1  0
 24 60  1  0
 24 61  1  0
 25 62  1  0
 25 63  1  0
 28 64  1  0
 29 65  1  0
 36 66  1  0
 37 67  1  0
 38 68  1  0
 39 69  1  0
 40 70  1  0
M  END
>  <score>  (2) 
-12.325

$$$$
=
     RDKit          3D

 70 75  0  0  0  0  0  0  0  0999 V2000
    2.3250   62.3620   71.3800 C   0  0  0  0  0  0  0  0  0  0  0  0
    0.9350   62.4060   71.5090 C   0  0  0  0  0  0  0  0  0  0  0  0
    0.2380   63.5750   71.1900 C   0  0  0  0  0  0  0  0  0  0  0  0
    0.9190   64.7060   70.7310 C   0  0  0  0  0  0  0  0  0  0  0  0
    2.3060   64.6570   70.5830 C   0  0  0  0  0  0  0  0  0  0  0  0
    3.0080   63.4880   70.9030 C   0  0  0  0  0  0  0  0  0  0  0  0
    4.2410   61.1010   71.9250 O   0  0  0  0  0  0  0  0  0  0  0  0
    3.0310   61.1000   71.7310 C   0  0  0  0  0  0  0  0  0  0  0  0
    2.2550   59.9590   71.7810 N   0  0  0  0  0  0  0  0  0  0  0  0
    2.8520   58.6580   72.0350 C   0  0  0  0  0  0  0  0  0  0  0  0
    2.7110   58.2270   73.4980 C   0  0  0  0  0  0  0  0  0  0  0  0
    1.3950   57.5720   73.7700 C   0  0  0  0  0  0  0  0  0  0  0  0
    0.1670   58.1960   73.8810 C   0  0  0  0  0  0  0  0  0  0  0  0
   -0.7790   57.2390   74.1300 N   0  0  0  0  0  0  0  0  0  0  0  0
   -0.1970   55.9940   74.1870 C   0  0  0  0  0  0  0  0  0  0  0  0
    1.1670   56.1700   73.9610 C   0  0  0  0  0  0  0  0  0  0  0  0
    2.0020   55.0350   73.9640 C   0  0  0  0  0  0  0  0  0  0  0  0
    1.4450   53.7720   74.1930 C   0  0  0  0  0  0  0  0  0  0  0  0
    0.0780   53.6280   74.4150 C   0  0  0  0  0  0  0  0  0  0  0  0
   -0.7720   54.7380   74.4160 C   0  0  0  0  0  0  0  0  0  0  0  0
    0.1170   65.7790   70.4590 O   0  0  0  0  0  0  0  0  0  0  0  0
    0.2590   66.4010   69.1860 C   0  0  0  0  0  0  0  0  0  0  0  0
   -1.1040   66.8970   68.7030 C   0  0  0  0  0  0  0  0  0  0  0  0
   -1.2780   66.8770   67.1780 C   0  0  0  0  0  0  0  0  0  0  0  0
   -1.1470   68.2360   66.4850 C   0  0  0  0  0  0  0  0  0  0  0  0
   -0.2030   68.2010   65.4170 O   0  0  0  0  0  0  0  0  0  0  0  0
    1.0920   68.5720   65.6460 C   0  0  0  0  0  0  0  0  0  0  0  0
    2.1560   68.4880   64.7260 C   0  0  0  0  0  0  0  0  0  0  0  0
    3.4540   68.9040   65.0700 C   0  0  0  0  0  0  0  0  0  0  0  0
    3.6730   69.4030   66.3400 C   0  0  0  0  0  0  0  0  0  0  0  0
    4.8720   69.9000   66.9800 C   0  0  0  0  0  0  0  0  0  0  0  0
    4.5600   70.2960   68.2920 C   0  0  0  0  0  0  0  0  0  0  0  0
    3.1180   70.0470   68.5060 C   0  0  0  0  0  0  0  0  0  0  0  0
    2.4880   70.2660   69.5190 O   0  0  0  0  0  0  0  0  0  0  0  0
    2.6010   69.4800   67.2410 C   0  0  0  0  0  0  0  0  0  0  0  0
    1.3180   69.0780   66.9290 C   0  0  0  0  0  0  0  0  0  0  0  0
    5.4910   70.8170   69.1690 C   0  0  0  0  0  0  0  0  0  0  0  0
    6.7990   70.9470   68.7010 C   0  0  0  0  0  0  0  0  0  0  0  0
    7.1350   70.5560   67.3890 C   0  0  0  0  0  0  0  0  0  0  0  0
    6.1700   70.0300   66.5190 C   0  0  0  0  0  0  0  0  0  0  0  0
    0.3879   61.5195   71.8621 H   0  0  0  0  0  0  0  0  0  0  0  0
   -0.8560   63.6050   71.3012 H   0  0  0  0  0  0  0  0  0  0  0  0
    2.8495   65.5392   70.2139 H   0  0  0  0  0  0  0  0  0  0  0  0
    4.1005   63.4541   70.7792 H   0  0  0  0  0  0  0  0  0  0  0  0
    1.2378   60.0307   71.6361 H   0  0  0  0  0  0  0  0  0  0  0  0
    2.3564   57.9112   71.3973 H   0  0  0  0  0  0  0  0  0  0  0  0
    3.9260   58.7317   71.8089 H   0  0  0  0  0  0  0  0  0  0  0  0
    3.5162   57.5168   73.7371 H   0  0  0  0  0  0  0  0  0  0  0  0
    2.7743   59.1298   74.1233 H   0  0  0  0  0  0  0  0  0  0  0  0
   -0.0182   59.2761   73.7856 H   0  0  0  0  0  0  0  0  0  0  0  0
   -1.7842   57.4246   74.2567 H   0  0  0  0  0  0  0  0  0  0  0  0
    3.0826   55.1410   73.7878 H   0  0  0  0  0  0  0  0  0  0  0  0
    2.0938   52.8837   74.1977 H   0  0  0  0  0  0  0  0  0  0  0  0
   -0.3394   52.6258   74.5923 H   0  0  0  0  0  0  0  0  0  0  0  0
   -1.8526   54.6287   74.5903 H   0  0  0  0  0  0  0  0  0  0  0  0
    0.9500   67.2528   69.2697 H   0  0  0  0  0  0  0  0  0  0  0  0
    0.6589   65.6721   68.4657 H   0  0  0  0  0  0  0  0  0  0  0  0
   -1.8808   66.2572   69.1470 H   0  0  0  0  0  0  0  0  0  0  0  0
   -1.1864   67.9482   69.0162 H   0  0  0  0  0  0  0  0  0  0  0  0
   -0.5138   66.2066   66.7578 H   0  0  0  0  0  0  0  0  0  0  0  0
   -2.3093   66.5410   66.9946 H   0  0  0  0  0  0  0  0  0  0  0  0
   -2.1288   68.5255   66.0821 H   0  0  0  0  0  0  0  0  0  0  0  0
   -0.7922   68.9645   67.2289 H   0  0  0  0  0  0  0  0  0  0  0  0
    1.9672   68.0889   63.7185 H   0  0  0  0  0  0  0  0  0  0  0  0
    4.2775   68.8339   64.3441 H   0  0  0  0  0  0  0  0  0  0  0  0
    0.5028   69.1532   67.6637 H   0  0  0  0  0  0  0  0  0  0  0  0
    5.2138   71.1161   70.1906 H   0  0  0  0  0  0  0  0  0  0  0  0
    7.5756   71.3586   69.3623 H   0  0  0  0  0  0  0  0  0  0  0  0
    8.1730   70.6656   67.0417 H   0  0  0  0  0  0  0  0  0  0  0  0
    6.4379   69.7282   65.4957 H   0  0  0  0  0  0  0  0  0  0  0  0
  2  1  2  0
  3  2  1  0
  4  3  2  0
  5  4  1  0
  6  5  2  0
  6  1  1  0
  8  7  2  0
  8  1  1  0
  9  8  1  0
 10  9  1  0
 11 10  1  0
 12 11  1  0
 13 12  2  0
 14 13  1  0
 15 14  1  0
 16 15  2  0
 16 12  1  0
 17 16  1  0
 18 17  2  0
 19 18  1  0
 20 15  1  0
 20 19  2  0
 21  4  1  0
 22 21  1  0
 23 22  1  0
 24 23  1  0
 25 24  1  0
 26 25  1  0
 27 26  1  0
 28 27  2  0
 29 28  1  0
 30 29  2  0
 31 30  1  0
 32 31  2  0
 33 32  1  0
 34 33  2  0
 35 33  1  0
 35 30  1  0
 36 35  2  0
 36 27  1  0
 37 32  1  0
 38 37  2  0
 39 38  1  0
 40 31  1  0
 40 39  2  0
  2 41  1  0
  3 42  1  0
  5 43  1  0
  6 44  1  0
  9 45  1  0
 10 46  1  0
 10 47  1  0
 11 48  1  0
 11 49  1  0
 13 50  1  0
 14 51  1  0
 17 52  1  0
 18 53  1  0
 19 54  1  0
 20 55  1  0
 22 56  1  0
 22 57  1  0
 23 58  1  0
 23 59  1  0
 24 60  1  0
 24 61  1  0
 25 62  1  0
 25 63  1  0
 28 64  1  0
 29 65  1  0
 36 66  1  0
 37 67  1  0
 38 68  1  0
 39 69  1  0
 40 70  1  0
M  END
>  <score>  (3) 
-12.088

$$$$
=
     RDKit          3D

 70 75  0  0  0  0  0  0  0  0999 V2000
    1.1600   65.0450   70.2990 C   0  0  0  0  0  0  0  0  0  0  0  0
    2.3760   64.4850   69.8960 C   0  0  0  0  0  0  0  0  0  0  0  0
    2.9930   63.5110   70.6860 C   0  0  0  0  0  0  0  0  0  0  0  0
    2.4020   63.0800   71.8770 C   0  0  0  0  0  0  0  0  0  0  0  0
    1.1790   63.6250   72.2690 C   0  0  0  0  0  0  0  0  0  0  0  0
    0.5570   64.6020   71.4820 C   0  0  0  0  0  0  0  0  0  0  0  0
   -0.6700   66.0590   69.2140 O   0  0  0  0  0  0  0  0  0  0  0  0
    0.5350   66.0810   69.4320 C   0  0  0  0  0  0  0  0  0  0  0  0
    1.3900   67.0120   68.8770 N   0  0  0  0  0  0  0  0  0  0  0  0
    0.9010   68.0190   67.9500 C   0  0  0  0  0  0  0  0  0  0  0  0
    1.5660   69.3820   68.1650 C   0  0  0  0  0  0  0  0  0  0  0  0
    2.8520   69.5080   67.4130 C   0  0  0  0  0  0  0  0  0  0  0  0
    3.0680   69.1950   66.0850 C   0  0  0  0  0  0  0  0  0  0  0  0
    4.3790   69.4560   65.7900 N   0  0  0  0  0  0  0  0  0  0  0  0
    5.0320   69.9360   66.9010 C   0  0  0  0  0  0  0  0  0  0  0  0
    4.0990   69.9830   67.9360 C   0  0  0  0  0  0  0  0  0  0  0  0
    4.5180   70.4470   69.1990 C   0  0  0  0  0  0  0  0  0  0  0  0
    5.8470   70.8430   69.3810 C   0  0  0  0  0  0  0  0  0  0  0  0
    6.7560   70.7850   68.3270 C   0  0  0  0  0  0  0  0  0  0  0  0
    6.3660   70.3300   67.0650 C   0  0  0  0  0  0  0  0  0  0  0  0
    3.1130   62.1270   72.5500 O   0  0  0  0  0  0  0  0  0  0  0  0
    4.4840   61.9620   72.2050 C   0  0  0  0  0  0  0  0  0  0  0  0
    4.7730   60.4830   71.9440 C   0  0  0  0  0  0  0  0  0  0  0  0
    3.9370   59.8670   70.8130 C   0  0  0  0  0  0  0  0  0  0  0  0
    2.9410   58.7890   71.2470 C   0  0  0  0  0  0  0  0  0  0  0  0
    2.7860   58.7450   72.6640 O   0  0  0  0  0  0  0  0  0  0  0  0
    1.5350   58.6390   73.2040 C   0  0  0  0  0  0  0  0  0  0  0  0
    1.0100   57.5150   73.8700 C   0  0  0  0  0  0  0  0  0  0  0  0
   -0.2950   57.5170   74.3920 C   0  0  0  0  0  0  0  0  0  0  0  0
   -1.0650   58.6550   74.2400 C   0  0  0  0  0  0  0  0  0  0  0  0
   -2.4170   58.9600   74.6570 C   0  0  0  0  0  0  0  0  0  0  0  0
   -2.7350   60.2700   74.2570 C   0  0  0  0  0  0  0  0  0  0  0  0
   -1.5550   60.8270   73.5610 C   0  0  0  0  0  0  0  0  0  0  0  0
   -1.4560   61.9340   73.0770 O   0  0  0  0  0  0  0  0  0  0  0  0
   -0.5240   59.7650   73.5750 C   0  0  0  0  0  0  0  0  0  0  0  0
    0.7540   59.7880   73.0540 C   0  0  0  0  0  0  0  0  0  0  0  0
   -3.9570   60.8640   74.5070 C   0  0  0  0  0  0  0  0  0  0  0  0
   -4.9030   60.1010   75.1930 C   0  0  0  0  0  0  0  0  0  0  0  0
   -4.6060   58.7860   75.6030 C   0  0  0  0  0  0  0  0  0  0  0  0
   -3.3580   58.2070   75.3370 C   0  0  0  0  0  0  0  0  0  0  0  0
    2.8472   64.8110   68.9570 H   0  0  0  0  0  0  0  0  0  0  0  0
    3.9533   63.0794   70.3673 H   0  0  0  0  0  0  0  0  0  0  0  0
    0.7014   63.2858   73.2001 H   0  0  0  0  0  0  0  0  0  0  0  0
   -0.4098   65.0232   71.7948 H   0  0  0  0  0  0  0  0  0  0  0  0
    2.3898   66.9927   69.1236 H   0  0  0  0  0  0  0  0  0  0  0  0
    1.1069   67.6835   66.9229 H   0  0  0  0  0  0  0  0  0  0  0  0
   -0.1781   68.1407   68.1253 H   0  0  0  0  0  0  0  0  0  0  0  0
    0.8778   70.1696   67.8243 H   0  0  0  0  0  0  0  0  0  0  0  0
    1.7905   69.4828   69.2371 H   0  0  0  0  0  0  0  0  0  0  0  0
    2.3156   68.8032   65.3847 H   0  0  0  0  0  0  0  0  0  0  0  0
    4.8143   69.3132   64.8675 H   0  0  0  0  0  0  0  0  0  0  0  0
    3.8052   70.4973   70.0353 H   0  0  0  0  0  0  0  0  0  0  0  0
    6.1777   71.2038   70.3661 H   0  0  0  0  0  0  0  0  0  0  0  0
    7.7965   71.1022   68.4908 H   0  0  0  0  0  0  0  0  0  0  0  0
    7.0808   70.2829   66.2303 H   0  0  0  0  0  0  0  0  0  0  0  0
    4.7059   62.5439   71.2983 H   0  0  0  0  0  0  0  0  0  0  0  0
    5.1145   62.3167   73.0337 H   0  0  0  0  0  0  0  0  0  0  0  0
    5.8364   60.3806   71.6817 H   0  0  0  0  0  0  0  0  0  0  0  0
    4.5062   59.9423   72.8640 H   0  0  0  0  0  0  0  0  0  0  0  0
    3.3715   60.6768   70.3289 H   0  0  0  0  0  0  0  0  0  0  0  0
    4.6528   59.3674   70.1437 H   0  0  0  0  0  0  0  0  0  0  0  0
    1.9639   59.0031   70.7892 H   0  0  0  0  0  0  0  0  0  0  0  0
    3.3297   57.8143   70.9170 H   0  0  0  0  0  0  0  0  0  0  0  0
    1.6343   56.6165   73.9842 H   0  0  0  0  0  0  0  0  0  0  0  0
   -0.6947   56.6327   74.9100 H   0  0  0  0  0  0  0  0  0  0  0  0
    1.1436   60.6787   72.5393 H   0  0  0  0  0  0  0  0  0  0  0  0
   -4.1745   61.8916   74.1802 H   0  0  0  0  0  0  0  0  0  0  0  0
   -5.8908   60.5306   75.4160 H   0  0  0  0  0  0  0  0  0  0  0  0
   -5.3678   58.2033   76.1417 H   0  0  0  0  0  0  0  0  0  0  0  0
   -3.1321   57.1802   75.6605 H   0  0  0  0  0  0  0  0  0  0  0  0
  2  1  2  0
  3  2  1  0
  4  3  2  0
  5  4  1  0
  6  5  2  0
  6  1  1  0
  8  7  2  0
  8  1  1  0
  9  8  1  0
 10  9  1  0
 11 10  1  0
 12 11  1  0
 13 12  2  0
 14 13  1  0
 15 14  1  0
 16 15  2  0
 16 12  1  0
 17 16  1  0
 18 17  2  0
 19 18  1  0
 20 15  1  0
 20 19  2  0
 21  4  1  0
 22 21  1  0
 23 22  1  0
 24 23  1  0
 25 24  1  0
 26 25  1  0
 27 26  1  0
 28 27  2  0
 29 28  1  0
 30 29  2  0
 31 30  1  0
 32 31  2  0
 33 32  1  0
 34 33  2  0
 35 33  1  0
 35 30  1  0
 36 35  2  0
 36 27  1  0
 37 32  1  0
 38 37  2  0
 39 38  1  0
 40 31  1  0
 40 39  2  0
  2 41  1  0
  3 42  1  0
  5 43  1  0
  6 44  1  0
  9 45  1  0
 10 46  1  0
 10 47  1  0
 11 48  1  0
 11 49  1  0
 13 50  1  0
 14 51  1  0
 17 52  1  0
 18 53  1  0
 19 54  1  0
 20 55  1  0
 22 56  1  0
 22 57  1  0
 23 58  1  0
 23 59  1  0
 24 60  1  0
 24 61  1  0
 25 62  1  0
 25 63  1  0
 28 64  1  0
 29 65  1  0
 36 66  1  0
 37 67  1  0
 38 68  1  0
 39 69  1  0
 40 70  1  0
M  END
>  <score>  (4) 
-11.792

$$$$
=
     RDKit          3D

 70 75  0  0  0  0  0  0  0  0999 V2000
    0.0040   63.2000   73.1230 C   0  0  0  0  0  0  0  0  0  0  0  0
    0.0050   62.1840   72.1640 C   0  0  0  0  0  0  0  0  0  0  0  0
   -0.0090   60.8450   72.5620 C   0  0  0  0  0  0  0  0  0  0  0  0
   -0.0340   60.5060   73.9180 C   0  0  0  0  0  0  0  0  0  0  0  0
   -0.0550   61.5200   74.8760 C   0  0  0  0  0  0  0  0  0  0  0  0
   -0.0400   62.8640   74.4820 C   0  0  0  0  0  0  0  0  0  0  0  0
   -0.3410   65.5150   73.4070 O   0  0  0  0  0  0  0  0  0  0  0  0
    0.0210   64.6140   72.6590 C   0  0  0  0  0  0  0  0  0  0  0  0
    0.4220   64.8250   71.3550 N   0  0  0  0  0  0  0  0  0  0  0  0
    0.4000   66.1560   70.7710 C   0  0  0  0  0  0  0  0  0  0  0  0
    1.3310   66.2780   69.5600 C   0  0  0  0  0  0  0  0  0  0  0  0
    0.9410   67.4050   68.6590 C   0  0  0  0  0  0  0  0  0  0  0  0
    1.7070   68.5070   68.3320 C   0  0  0  0  0  0  0  0  0  0  0  0
    0.9820   69.2970   67.4810 N   0  0  0  0  0  0  0  0  0  0  0  0
   -0.2510   68.7350   67.2410 C   0  0  0  0  0  0  0  0  0  0  0  0
   -0.3050   67.5450   67.9650 C   0  0  0  0  0  0  0  0  0  0  0  0
   -1.4770   66.7650   67.8910 C   0  0  0  0  0  0  0  0  0  0  0  0
   -2.5450   67.2020   67.1000 C   0  0  0  0  0  0  0  0  0  0  0  0
   -2.4600   68.3960   66.3890 C   0  0  0  0  0  0  0  0  0  0  0  0
   -1.3100   69.1880   66.4450 C   0  0  0  0  0  0  0  0  0  0  0  0
   -0.0430   59.1620   74.1660 O   0  0  0  0  0  0  0  0  0  0  0  0
   -0.1180   58.7440   75.5250 C   0  0  0  0  0  0  0  0  0  0  0  0
   -0.0240   57.2200   75.5980 C   0  0  0  0  0  0  0  0  0  0  0  0
    1.4010   56.6850   75.7960 C   0  0  0  0  0  0  0  0  0  0  0  0
    2.4520   57.7380   76.1580 C   0  0  0  0  0  0  0  0  0  0  0  0
    3.4700   57.8390   75.1660 O   0  0  0  0  0  0  0  0  0  0  0  0
    3.4820   58.9090   74.3170 C   0  0  0  0  0  0  0  0  0  0  0  0
    3.4200   60.2670   74.6890 C   0  0  0  0  0  0  0  0  0  0  0  0
    3.4440   61.2910   73.7270 C   0  0  0  0  0  0  0  0  0  0  0  0
    3.5320   60.9410   72.3930 C   0  0  0  0  0  0  0  0  0  0  0  0
    3.5760   61.7480   71.1920 C   0  0  0  0  0  0  0  0  0  0  0  0
    3.6690   60.9010   70.0740 C   0  0  0  0  0  0  0  0  0  0  0  0
    3.6850   59.5060   70.5670 C   0  0  0  0  0  0  0  0  0  0  0  0
    3.7580   58.5010   69.8920 O   0  0  0  0  0  0  0  0  0  0  0  0
    3.5950   59.5850   72.0410 C   0  0  0  0  0  0  0  0  0  0  0  0
    3.5730   58.5610   72.9670 C   0  0  0  0  0  0  0  0  0  0  0  0
    3.7300   61.3630   68.7740 C   0  0  0  0  0  0  0  0  0  0  0  0
    3.6960   62.7470   68.5920 C   0  0  0  0  0  0  0  0  0  0  0  0
    3.6030   63.6150   69.6970 C   0  0  0  0  0  0  0  0  0  0  0  0
    3.5430   63.1190   71.0070 C   0  0  0  0  0  0  0  0  0  0  0  0
    0.0168   62.4388   71.0940 H   0  0  0  0  0  0  0  0  0  0  0  0
   -0.0003   60.0502   71.8016 H   0  0  0  0  0  0  0  0  0  0  0  0
   -0.0835   61.2629   75.9452 H   0  0  0  0  0  0  0  0  0  0  0  0
   -0.0629   63.6584   75.2425 H   0  0  0  0  0  0  0  0  0  0  0  0
    0.7416   64.0272   70.7873 H   0  0  0  0  0  0  0  0  0  0  0  0
   -0.6274   66.3845   70.4512 H   0  0  0  0  0  0  0  0  0  0  0  0
    0.7508   66.8639   71.5364 H   0  0  0  0  0  0  0  0  0  0  0  0
    2.3570   66.4493   69.9178 H   0  0  0  0  0  0  0  0  0  0  0  0
    1.2588   65.3441   68.9832 H   0  0  0  0  0  0  0  0  0  0  0  0
    2.7250   68.7142   68.6935 H   0  0  0  0  0  0  0  0  0  0  0  0
    1.3123   70.1854   67.0778 H   0  0  0  0  0  0  0  0  0  0  0  0
   -1.5511   65.8208   68.4505 H   0  0  0  0  0  0  0  0  0  0  0  0
   -3.4611   66.5961   67.0392 H   0  0  0  0  0  0  0  0  0  0  0  0
   -3.3116   68.7211   65.7734 H   0  0  0  0  0  0  0  0  0  0  0  0
   -1.2394   70.1320   65.8847 H   0  0  0  0  0  0  0  0  0  0  0  0
    0.7128   59.1897   76.0916 H   0  0  0  0  0  0  0  0  0  0  0  0
   -1.0752   59.0723   75.9562 H   0  0  0  0  0  0  0  0  0  0  0  0
   -0.6414   56.8765   76.4411 H   0  0  0  0  0  0  0  0  0  0  0  0
   -0.3735   56.8355   74.6285 H   0  0  0  0  0  0  0  0  0  0  0  0
    1.3746   55.9395   76.6045 H   0  0  0  0  0  0  0  0  0  0  0  0
    1.7078   56.2713   74.8241 H   0  0  0  0  0  0  0  0  0  0  0  0
    1.9561   58.7147   76.2588 H   0  0  0  0  0  0  0  0  0  0  0  0
    2.9268   57.4336   77.1024 H   0  0  0  0  0  0  0  0  0  0  0  0
    3.3514   60.5308   75.7547 H   0  0  0  0  0  0  0  0  0  0  0  0
    3.3939   62.3475   74.0290 H   0  0  0  0  0  0  0  0  0  0  0  0
    3.6253   57.5081   72.6528 H   0  0  0  0  0  0  0  0  0  0  0  0
    3.8021   60.6723   67.9209 H   0  0  0  0  0  0  0  0  0  0  0  0
    3.7423   63.1636   67.5750 H   0  0  0  0  0  0  0  0  0  0  0  0
    3.5770   64.7018   69.5293 H   0  0  0  0  0  0  0  0  0  0  0  0
    3.4715   63.8024   71.8660 H   0  0  0  0  0  0  0  0  0  0  0  0
  2  1  2  0
  3  2  1  0
  4  3  2  0
  5  4  1  0
  6  5  2  0
  6  1  1  0
  8  7  2  0
  8  1  1  0
  9  8  1  0
 10  9  1  0
 11 10  1  0
 12 11  1  0
 13 12  2  0
 14 13  1  0
 15 14  1  0
 16 15  2  0
 16 12  1  0
 17 16  1  0
 18 17  2  0
 19 18  1  0
 20 15  1  0
 20 19  2  0
 21  4  1  0
 22 21  1  0
 23 22  1  0
 24 23  1  0
 25 24  1  0
 26 25  1  0
 27 26  1  0
 28 27  2  0
 29 28  1  0
 30 29  2  0
 31 30  1  0
 32 31  2  0
 33 32  1  0
 34 33  2  0
 35 33  1  0
 35 30  1  0
 36 35  2  0
 36 27  1  0
 37 32  1  0
 38 37  2  0
 39 38  1  0
 40 31  1  0
 40 39  2  0
  2 41  1  0
  3 42  1  0
  5 43  1  0
  6 44  1  0
  9 45  1  0
 10 46  1  0
 10 47  1  0
 11 48  1  0
 11 49  1  0
 13 50  1  0
 14 51  1  0
 17 52  1  0
 18 53  1  0
 19 54  1  0
 20 55  1  0
 22 56  1  0
 22 57  1  0
 23 58  1  0
 23 59  1  0
 24 60  1  0
 24 61  1  0
 25 62  1  0
 25 63  1  0
 28 64  1  0
 29 65  1  0
 36 66  1  0
 37 67  1  0
 38 68  1  0
 39 69  1  0
 40 70  1  0
M  END
>  <score>  (5) 
-11.337

$$$$
=
     RDKit          3D

 70 75  0  0  0  0  0  0  0  0999 V2000
    1.1010   65.1710   70.3060 C   0  0  0  0  0  0  0  0  0  0  0  0
    2.3930   64.7360   69.9980 C   0  0  0  0  0  0  0  0  0  0  0  0
    2.9730   63.6930   70.7250 C   0  0  0  0  0  0  0  0  0  0  0  0
    2.2680   63.0670   71.7570 C   0  0  0  0  0  0  0  0  0  0  0  0
    0.9710   63.4870   72.0530 C   0  0  0  0  0  0  0  0  0  0  0  0
    0.3860   64.5340   71.3280 C   0  0  0  0  0  0  0  0  0  0  0  0
   -0.6270   66.2080   69.0830 O   0  0  0  0  0  0  0  0  0  0  0  0
    0.5190   66.2860   69.5100 C   0  0  0  0  0  0  0  0  0  0  0  0
    1.3500   67.3600   69.2630 N   0  0  0  0  0  0  0  0  0  0  0  0
    0.9140   68.4670   68.4290 C   0  0  0  0  0  0  0  0  0  0  0  0
    2.0820   69.1600   67.7210 C   0  0  0  0  0  0  0  0  0  0  0  0
    2.1070   68.8680   66.2550 C   0  0  0  0  0  0  0  0  0  0  0  0
    1.0710   68.3620   65.4940 C   0  0  0  0  0  0  0  0  0  0  0  0
    1.5050   68.2460   64.2010 N   0  0  0  0  0  0  0  0  0  0  0  0
    2.8110   68.6660   64.0950 C   0  0  0  0  0  0  0  0  0  0  0  0
    3.2150   69.0660   65.3680 C   0  0  0  0  0  0  0  0  0  0  0  0
    4.5290   69.5480   65.5360 C   0  0  0  0  0  0  0  0  0  0  0  0
    5.3860   69.6110   64.4310 C   0  0  0  0  0  0  0  0  0  0  0  0
    4.9520   69.2040   63.1730 C   0  0  0  0  0  0  0  0  0  0  0  0
    3.6540   68.7230   62.9790 C   0  0  0  0  0  0  0  0  0  0  0  0
    2.9540   62.0660   72.3850 O   0  0  0  0  0  0  0  0  0  0  0  0
    4.3750   62.0900   72.3050 C   0  0  0  0  0  0  0  0  0  0  0  0
    4.8840   60.7320   71.8200 C   0  0  0  0  0  0  0  0  0  0  0  0
    4.1940   60.2170   70.5480 C   0  0  0  0  0  0  0  0  0  0  0  0
    3.3160   58.9780   70.7350 C   0  0  0  0  0  0  0  0  0  0  0  0
    3.3770   58.4760   72.0680 O   0  0  0  0  0  0  0  0  0  0  0  0
    2.2220   58.1540   72.7240 C   0  0  0  0  0  0  0  0  0  0  0  0
    1.8790   56.8840   73.2280 C   0  0  0  0  0  0  0  0  0  0  0  0
    0.6600   56.6650   73.8920 C   0  0  0  0  0  0  0  0  0  0  0  0
   -0.2080   57.7300   74.0450 C   0  0  0  0  0  0  0  0  0  0  0  0
   -1.5110   57.8210   74.6680 C   0  0  0  0  0  0  0  0  0  0  0  0
   -1.9800   59.1420   74.5580 C   0  0  0  0  0  0  0  0  0  0  0  0
   -0.9500   59.9260   73.8430 C   0  0  0  0  0  0  0  0  0  0  0  0
   -1.0030   61.1050   73.5640 O   0  0  0  0  0  0  0  0  0  0  0  0
    0.1510   58.9870   73.5380 C   0  0  0  0  0  0  0  0  0  0  0  0
    1.3420   59.2270   72.8820 C   0  0  0  0  0  0  0  0  0  0  0  0
   -3.1990   59.5580   75.0560 C   0  0  0  0  0  0  0  0  0  0  0  0
   -3.9830   58.5970   75.6970 C   0  0  0  0  0  0  0  0  0  0  0  0
   -3.5340   57.2680   75.8180 C   0  0  0  0  0  0  0  0  0  0  0  0
   -2.2920   56.8710   75.3040 C   0  0  0  0  0  0  0  0  0  0  0  0
    2.9541   65.2153   69.1822 H   0  0  0  0  0  0  0  0  0  0  0  0
    3.9936   63.3616   70.4830 H   0  0  0  0  0  0  0  0  0  0  0  0
    0.4057   62.9948   72.8581 H   0  0  0  0  0  0  0  0  0  0  0  0
   -0.6390   64.8568   71.5626 H   0  0  0  0  0  0  0  0  0  0  0  0
    2.2934   67.3770   69.6761 H   0  0  0  0  0  0  0  0  0  0  0  0
    0.2175   68.0836   67.6688 H   0  0  0  0  0  0  0  0  0  0  0  0
    0.4301   69.2084   69.0818 H   0  0  0  0  0  0  0  0  0  0  0  0
    1.9886   70.2466   67.8642 H   0  0  0  0  0  0  0  0  0  0  0  0
    3.0164   68.7775   68.1575 H   0  0  0  0  0  0  0  0  0  0  0  0
    0.0693   68.0977   65.8637 H   0  0  0  0  0  0  0  0  0  0  0  0
    0.9349   67.8943   63.4186 H   0  0  0  0  0  0  0  0  0  0  0  0
    4.8781   69.8720   66.5275 H   0  0  0  0  0  0  0  0  0  0  0  0
    6.4123   69.9858   64.5583 H   0  0  0  0  0  0  0  0  0  0  0  0
    5.6413   69.2617   62.3177 H   0  0  0  0  0  0  0  0  0  0  0  0
    3.3077   68.4011   61.9858 H   0  0  0  0  0  0  0  0  0  0  0  0
    4.6888   62.8724   71.5983 H   0  0  0  0  0  0  0  0  0  0  0  0
    4.7935   62.3032   73.2997 H   0  0  0  0  0  0  0  0  0  0  0  0
    5.9613   60.8205   71.6160 H   0  0  0  0  0  0  0  0  0  0  0  0
    4.6583   60.0077   72.6166 H   0  0  0  0  0  0  0  0  0  0  0  0
    3.5608   61.0256   70.1540 H   0  0  0  0  0  0  0  0  0  0  0  0
    5.0020   59.9163   69.8648 H   0  0  0  0  0  0  0  0  0  0  0  0
    2.2740   59.2429   70.5027 H   0  0  0  0  0  0  0  0  0  0  0  0
    3.6874   58.1935   70.0593 H   0  0  0  0  0  0  0  0  0  0  0  0
    2.5801   56.0462   73.0991 H   0  0  0  0  0  0  0  0  0  0  0  0
    0.4024   55.6689   74.2811 H   0  0  0  0  0  0  0  0  0  0  0  0
    1.5890   60.2276   72.4975 H   0  0  0  0  0  0  0  0  0  0  0  0
   -3.5370   60.5996   74.9523 H   0  0  0  0  0  0  0  0  0  0  0  0
   -4.9614   58.8810   76.1117 H   0  0  0  0  0  0  0  0  0  0  0  0
   -4.1698   56.5275   76.3254 H   0  0  0  0  0  0  0  0  0  0  0  0
   -1.9466   55.8314   75.4033 H   0  0  0  0  0  0  0  0  0  0  0  0
  2  1  2  0
  3  2  1  0
  4  3  2  0
  5  4  1  0
  6  5  2  0
  6  1  1  0
  8  7  2  0
  8  1  1  0
  9  8  1  0
 10  9  1  0
 11 10  1  0
 12 11  1  0
 13 12  2  0
 14 13  1  0
 15 14  1  0
 16 15  2  0
 16 12  1  0
 17 16  1  0
 18 17  2  0
 19 18  1  0
 20 15  1  0
 20 19  2  0
 21  4  1  0
 22 21  1  0
 23 22  1  0
 24 23  1  0
 25 24  1  0
 26 25  1  0
 27 26  1  0
 28 27  2  0
 29 28  1  0
 30 29  2  0
 31 30  1  0
 32 31  2  0
 33 32  1  0
 34 33  2  0
 35 33  1  0
 35 30  1  0
 36 35  2  0
 36 27  1  0
 37 32  1  0
 38 37  2  0
 39 38  1  0
 40 31  1  0
 40 39  2  0
  2 41  1  0
  3 42  1  0
  5 43  1  0
  6 44  1  0
  9 45  1  0
 10 46  1  0
 10 47  1  0
 11 48  1  0
 11 49  1  0
 13 50  1  0
 14 51  1  0
 17 52  1  0
 18 53  1  0
 19 54  1  0
 20 55  1  0
 22 56  1  0
 22 57  1  0
 23 58  1  0
 23 59  1  0
 24 60  1  0
 24 61  1  0
 25 62  1  0
 25 63  1  0
 28 64  1  0
 29 65  1  0
 36 66  1  0
 37 67  1  0
 38 68  1  0
 39 69  1  0
 40 70  1  0
M  END
>  <score>  (6) 
-11.179

$$$$
=
     RDKit          3D

 70 75  0  0  0  0  0  0  0  0999 V2000
    0.5490   67.1490   67.8380 C   0  0  0  0  0  0  0  0  0  0  0  0
    1.5810   67.1170   68.7800 C   0  0  0  0  0  0  0  0  0  0  0  0
    1.3450   66.6160   70.0630 C   0  0  0  0  0  0  0  0  0  0  0  0
    0.0820   66.1330   70.4160 C   0  0  0  0  0  0  0  0  0  0  0  0
   -0.9450   66.1460   69.4710 C   0  0  0  0  0  0  0  0  0  0  0  0
   -0.7130   66.6490   68.1850 C   0  0  0  0  0  0  0  0  0  0  0  0
    0.2650   68.6970   66.0840 O   0  0  0  0  0  0  0  0  0  0  0  0
    0.8400   67.6910   66.4840 C   0  0  0  0  0  0  0  0  0  0  0  0
    1.7440   66.9800   65.7210 N   0  0  0  0  0  0  0  0  0  0  0  0
    2.0430   67.3720   64.3540 C   0  0  0  0  0  0  0  0  0  0  0  0
    2.3380   68.8700   64.2280 C   0  0  0  0  0  0  0  0  0  0  0  0
    3.7420   69.2040   64.6170 C   0  0  0  0  0  0  0  0  0  0  0  0
    4.8550   69.1820   63.8000 C   0  0  0  0  0  0  0  0  0  0  0  0
    5.9420   69.5550   64.5440 N   0  0  0  0  0  0  0  0  0  0  0  0
    5.5650   69.8220   65.8400 C   0  0  0  0  0  0  0  0  0  0  0  0
    4.1880   69.6130   65.9160 C   0  0  0  0  0  0  0  0  0  0  0  0
    3.5440   69.8220   67.1520 C   0  0  0  0  0  0  0  0  0  0  0  0
    4.2950   70.2280   68.2600 C   0  0  0  0  0  0  0  0  0  0  0  0
    5.6680   70.4280   68.1520 C   0  0  0  0  0  0  0  0  0  0  0  0
    6.3320   70.2290   66.9380 C   0  0  0  0  0  0  0  0  0  0  0  0
   -0.0110   65.6760   71.7010 O   0  0  0  0  0  0  0  0  0  0  0  0
    0.4600   64.3600   71.9660 C   0  0  0  0  0  0  0  0  0  0  0  0
    0.3730   63.5170   70.6930 C   0  0  0  0  0  0  0  0  0  0  0  0
    1.6470   62.7220   70.3750 C   0  0  0  0  0  0  0  0  0  0  0  0
    2.5340   62.3960   71.5800 C   0  0  0  0  0  0  0  0  0  0  0  0
    2.7150   60.9910   71.7430 O   0  0  0  0  0  0  0  0  0  0  0  0
    1.7750   60.2620   72.4160 C   0  0  0  0  0  0  0  0  0  0  0  0
    0.5980   60.7650   73.0060 C   0  0  0  0  0  0  0  0  0  0  0  0
   -0.3050   59.9190   73.6730 C   0  0  0  0  0  0  0  0  0  0  0  0
   -0.0170   58.5690   73.7420 C   0  0  0  0  0  0  0  0  0  0  0  0
   -0.7330   57.4670   74.3470 C   0  0  0  0  0  0  0  0  0  0  0  0
   -0.0110   56.2790   74.1350 C   0  0  0  0  0  0  0  0  0  0  0  0
    1.2070   56.6250   73.3700 C   0  0  0  0  0  0  0  0  0  0  0  0
    2.0720   55.8590   73.0010 O   0  0  0  0  0  0  0  0  0  0  0  0
    1.1590   58.0870   73.1470 C   0  0  0  0  0  0  0  0  0  0  0  0
    2.0610   58.8960   72.4860 C   0  0  0  0  0  0  0  0  0  0  0  0
   -0.4290   55.0450   74.5900 C   0  0  0  0  0  0  0  0  0  0  0  0
   -1.6340   55.0040   75.2930 C   0  0  0  0  0  0  0  0  0  0  0  0
   -2.3740   56.1810   75.5190 C   0  0  0  0  0  0  0  0  0  0  0  0
   -1.9270   57.4230   75.0450 C   0  0  0  0  0  0  0  0  0  0  0  0
    2.5813   67.4870   68.5108 H   0  0  0  0  0  0  0  0  0  0  0  0
    2.1603   66.6017   70.8013 H   0  0  0  0  0  0  0  0  0  0  0  0
   -1.9400   65.7598   69.7373 H   0  0  0  0  0  0  0  0  0  0  0  0
   -1.5255   66.6516   67.4435 H   0  0  0  0  0  0  0  0  0  0  0  0
    2.2142   66.1584   66.1270 H   0  0  0  0  0  0  0  0  0  0  0  0
    2.9224   66.8084   64.0091 H   0  0  0  0  0  0  0  0  0  0  0  0
    1.1572   67.1515   63.7402 H   0  0  0  0  0  0  0  0  0  0  0  0
    2.1775   69.1760   63.1837 H   0  0  0  0  0  0  0  0  0  0  0  0
    1.6621   69.4057   64.9107 H   0  0  0  0  0  0  0  0  0  0  0  0
    4.8663   68.9112   62.7339 H   0  0  0  0  0  0  0  0  0  0  0  0
    6.9047   69.6257   64.1848 H   0  0  0  0  0  0  0  0  0  0  0  0
    2.4589   69.6670   67.2447 H   0  0  0  0  0  0  0  0  0  0  0  0
    3.7954   70.3908   69.2264 H   0  0  0  0  0  0  0  0  0  0  0  0
    6.2397   70.7477   69.0357 H   0  0  0  0  0  0  0  0  0  0  0  0
    7.4170   70.3864   66.8489 H   0  0  0  0  0  0  0  0  0  0  0  0
    1.5060   64.4067   72.3032 H   0  0  0  0  0  0  0  0  0  0  0  0
   -0.1601   63.9015   72.7504 H   0  0  0  0  0  0  0  0  0  0  0  0
   -0.4580   62.8053   70.8069 H   0  0  0  0  0  0  0  0  0  0  0  0
    0.2227   64.2188   69.8594 H   0  0  0  0  0  0  0  0  0  0  0  0
    1.3471   61.7726   69.9073 H   0  0  0  0  0  0  0  0  0  0  0  0
    2.2509   63.3658   69.7187 H   0  0  0  0  0  0  0  0  0  0  0  0
    3.5176   62.8667   71.4352 H   0  0  0  0  0  0  0  0  0  0  0  0
    2.0381   62.7826   72.4826 H   0  0  0  0  0  0  0  0  0  0  0  0
    0.3816   61.8417   72.9432 H   0  0  0  0  0  0  0  0  0  0  0  0
   -1.2206   60.3225   74.1299 H   0  0  0  0  0  0  0  0  0  0  0  0
    2.9721   58.4805   72.0308 H   0  0  0  0  0  0  0  0  0  0  0  0
    0.1609   54.1348   74.4069 H   0  0  0  0  0  0  0  0  0  0  0  0
   -2.0095   54.0430   75.6744 H   0  0  0  0  0  0  0  0  0  0  0  0
   -3.3200   56.1250   76.0776 H   0  0  0  0  0  0  0  0  0  0  0  0
   -2.5104   58.3383   75.2235 H   0  0  0  0  0  0  0  0  0  0  0  0
  2  1  2  0
  3  2  1  0
  4  3  2  0
  5  4  1  0
  6  5  2  0
  6  1  1  0
  8  7  2  0
  8  1  1  0
  9  8  1  0
 10  9  1  0
 11 10  1  0
 12 11  1  0
 13 12  2  0
 14 13  1  0
 15 14  1  0
 16 15  2  0
 16 12  1  0
 17 16  1  0
 18 17  2  0
 19 18  1  0
 20 15  1  0
 20 19  2  0
 21  4  1  0
 22 21  1  0
 23 22  1  0
 24 23  1  0
 25 24  1  0
 26 25  1  0
 27 26  1  0
 28 27  2  0
 29 28  1  0
 30 29  2  0
 31 30  1  0
 32 31  2  0
 33 32  1  0
 34 33  2  0
 35 33  1  0
 35 30  1  0
 36 35  2  0
 36 27  1  0
 37 32  1  0
 38 37  2  0
 39 38  1  0
 40 31  1  0
 40 39  2  0
  2 41  1  0
  3 42  1  0
  5 43  1  0
  6 44  1  0
  9 45  1  0
 10 46  1  0
 10 47  1  0
 11 48  1  0
 11 49  1  0
 13 50  1  0
 14 51  1  0
 17 52  1  0
 18 53  1  0
 19 54  1  0
 20 55  1  0
 22 56  1  0
 22 57  1  0
 23 58  1  0
 23 59  1  0
 24 60  1  0
 24 61  1  0
 25 62  1  0
 25 63  1  0
 28 64  1  0
 29 65  1  0
 36 66  1  0
 37 67  1  0
 38 68  1  0
 39 69  1  0
 40 70  1  0
M  END
>  <score>  (7) 
-11.113

$$$$
=
     RDKit          3D

 70 75  0  0  0  0  0  0  0  0999 V2000
   -0.2670   67.8190   67.0120 C   0  0  0  0  0  0  0  0  0  0  0  0
   -1.1770   66.9530   67.6250 C   0  0  0  0  0  0  0  0  0  0  0  0
   -0.8750   66.3810   68.8640 C   0  0  0  0  0  0  0  0  0  0  0  0
    0.3310   66.6740   69.5070 C   0  0  0  0  0  0  0  0  0  0  0  0
    1.2320   67.5540   68.9050 C   0  0  0  0  0  0  0  0  0  0  0  0
    0.9330   68.1280   67.6630 C   0  0  0  0  0  0  0  0  0  0  0  0
   -1.8010   68.5630   65.3840 O   0  0  0  0  0  0  0  0  0  0  0  0
   -0.6250   68.4060   65.6920 C   0  0  0  0  0  0  0  0  0  0  0  0
    0.4270   68.7110   64.8530 N   0  0  0  0  0  0  0  0  0  0  0  0
    0.1920   69.2130   63.5090 C   0  0  0  0  0  0  0  0  0  0  0  0
    0.8630   68.3490   62.4370 C   0  0  0  0  0  0  0  0  0  0  0  0
    2.3250   68.6370   62.3130 C   0  0  0  0  0  0  0  0  0  0  0  0
    3.0560   68.7200   61.1430 C   0  0  0  0  0  0  0  0  0  0  0  0
    4.3550   69.0020   61.4680 N   0  0  0  0  0  0  0  0  0  0  0  0
    4.4940   69.1060   62.8330 C   0  0  0  0  0  0  0  0  0  0  0  0
    3.2360   68.8850   63.3910 C   0  0  0  0  0  0  0  0  0  0  0  0
    3.1020   68.9380   64.7930 C   0  0  0  0  0  0  0  0  0  0  0  0
    4.2260   69.2080   65.5810 C   0  0  0  0  0  0  0  0  0  0  0  0
    5.4700   69.4250   64.9940 C   0  0  0  0  0  0  0  0  0  0  0  0
    5.6290   69.3780   63.6070 C   0  0  0  0  0  0  0  0  0  0  0  0
    0.5000   66.0460   70.7090 O   0  0  0  0  0  0  0  0  0  0  0  0
    0.5610   64.6240   70.7050 C   0  0  0  0  0  0  0  0  0  0  0  0
    1.9980   64.1730   70.4400 C   0  0  0  0  0  0  0  0  0  0  0  0
    2.1200   62.7370   69.9100 C   0  0  0  0  0  0  0  0  0  0  0  0
    3.5080   62.1050   70.0450 C   0  0  0  0  0  0  0  0  0  0  0  0
    3.7440   61.6120   71.3610 O   0  0  0  0  0  0  0  0  0  0  0  0
    3.1650   60.4390   71.7570 C   0  0  0  0  0  0  0  0  0  0  0  0
    3.6150   59.1420   71.4400 C   0  0  0  0  0  0  0  0  0  0  0  0
    2.9410   57.9990   71.9060 C   0  0  0  0  0  0  0  0  0  0  0  0
    1.8170   58.1710   72.6920 C   0  0  0  0  0  0  0  0  0  0  0  0
    0.9250   57.2140   73.3100 C   0  0  0  0  0  0  0  0  0  0  0  0
   -0.0750   57.9070   74.0130 C   0  0  0  0  0  0  0  0  0  0  0  0
    0.1770   59.3540   73.8440 C   0  0  0  0  0  0  0  0  0  0  0  0
   -0.4780   60.2620   74.3080 O   0  0  0  0  0  0  0  0  0  0  0  0
    1.3850   59.4700   72.9980 C   0  0  0  0  0  0  0  0  0  0  0  0
    2.0290   60.6070   72.5530 C   0  0  0  0  0  0  0  0  0  0  0  0
   -1.0840   57.2770   74.7160 C   0  0  0  0  0  0  0  0  0  0  0  0
   -1.0840   55.8810   74.7100 C   0  0  0  0  0  0  0  0  0  0  0  0
   -0.0920   55.1660   74.0110 C   0  0  0  0  0  0  0  0  0  0  0  0
    0.9220   55.8300   73.3060 C   0  0  0  0  0  0  0  0  0  0  0  0
   -2.1324   66.7213   67.1315 H   0  0  0  0  0  0  0  0  0  0  0  0
   -1.5925   65.6944   69.3371 H   0  0  0  0  0  0  0  0  0  0  0  0
    2.1797   67.7973   69.4076 H   0  0  0  0  0  0  0  0  0  0  0  0
    1.6448   68.8252   67.1968 H   0  0  0  0  0  0  0  0  0  0  0  0
    1.3937   68.5810   65.1840 H   0  0  0  0  0  0  0  0  0  0  0  0
   -0.8919   69.2288   63.3224 H   0  0  0  0  0  0  0  0  0  0  0  0
    0.6266   70.2216   63.4471 H   0  0  0  0  0  0  0  0  0  0  0  0
    0.7319   67.2896   62.7026 H   0  0  0  0  0  0  0  0  0  0  0  0
    0.3900   68.5811   61.4714 H   0  0  0  0  0  0  0  0  0  0  0  0
    2.6614   68.5829   60.1254 H   0  0  0  0  0  0  0  0  0  0  0  0
    5.1196   69.1196   60.7879 H   0  0  0  0  0  0  0  0  0  0  0  0
    2.1223   68.7686   65.2635 H   0  0  0  0  0  0  0  0  0  0  0  0
    4.1261   69.2493   66.6757 H   0  0  0  0  0  0  0  0  0  0  0  0
    6.3406   69.6366   65.6322 H   0  0  0  0  0  0  0  0  0  0  0  0
    6.6101   69.5484   63.1397 H   0  0  0  0  0  0  0  0  0  0  0  0
    0.2312   64.2407   71.6819 H   0  0  0  0  0  0  0  0  0  0  0  0
   -0.0964   64.2323   69.9148 H   0  0  0  0  0  0  0  0  0  0  0  0
    2.4417   64.8533   69.6981 H   0  0  0  0  0  0  0  0  0  0  0  0
    2.5204   64.1980   71.4077 H   0  0  0  0  0  0  0  0  0  0  0  0
    1.4056   62.1091   70.4625 H   0  0  0  0  0  0  0  0  0  0  0  0
    1.9151   62.7929   68.8307 H   0  0  0  0  0  0  0  0  0  0  0  0
    3.5890   61.2703   69.3332 H   0  0  0  0  0  0  0  0  0  0  0  0
    4.2573   62.8821   69.8337 H   0  0  0  0  0  0  0  0  0  0  0  0
    4.5121   59.0209   70.8151 H   0  0  0  0  0  0  0  0  0  0  0  0
    3.3001   56.9911   71.6508 H   0  0  0  0  0  0  0  0  0  0  0  0
    1.6609   61.6097   72.8157 H   0  0  0  0  0  0  0  0  0  0  0  0
   -1.8525   57.8496   75.2560 H   0  0  0  0  0  0  0  0  0  0  0  0
   -1.8664   55.3340   75.2565 H   0  0  0  0  0  0  0  0  0  0  0  0
   -0.1131   54.0662   74.0183 H   0  0  0  0  0  0  0  0  0  0  0  0
    1.6950   55.2656   72.7639 H   0  0  0  0  0  0  0  0  0  0  0  0
  2  1  2  0
  3  2  1  0
  4  3  2  0
  5  4  1  0
  6  5  2  0
  6  1  1  0
  8  7  2  0
  8  1  1  0
  9  8  1  0
 10  9  1  0
 11 10  1  0
 12 11  1  0
 13 12  2  0
 14 13  1  0
 15 14  1  0
 16 15  2  0
 16 12  1  0
 17 16  1  0
 18 17  2  0
 19 18  1  0
 20 15  1  0
 20 19  2  0
 21  4  1  0
 22 21  1  0
 23 22  1  0
 24 23  1  0
 25 24  1  0
 26 25  1  0
 27 26  1  0
 28 27  2  0
 29 28  1  0
 30 29  2  0
 31 30  1  0
 32 31  2  0
 33 32  1  0
 34 33  2  0
 35 33  1  0
 35 30  1  0
 36 35  2  0
 36 27  1  0
 37 32  1  0
 38 37  2  0
 39 38  1  0
 40 31  1  0
 40 39  2  0
  2 41  1  0
  3 42  1  0
  5 43  1  0
  6 44  1  0
  9 45  1  0
 10 46  1  0
 10 47  1  0
 11 48  1  0
 11 49  1  0
 13 50  1  0
 14 51  1  0
 17 52  1  0
 18 53  1  0
 19 54  1  0
 20 55  1  0
 22 56  1  0
 22 57  1  0
 23 58  1  0
 23 59  1  0
 24 60  1  0
 24 61  1  0
 25 62  1  0
 25 63  1  0
 28 64  1  0
 29 65  1  0
 36 66  1  0
 37 67  1  0
 38 68  1  0
 39 69  1  0
 40 70  1  0
M  END
>  <score>  (8) 
-11.1

$$$$
=
     RDKit          3D

 70 75  0  0  0  0  0  0  0  0999 V2000
    1.6570   64.5970   70.6330 C   0  0  0  0  0  0  0  0  0  0  0  0
    2.7550   64.2170   69.8570 C   0  0  0  0  0  0  0  0  0  0  0  0
    3.5100   63.0950   70.2110 C   0  0  0  0  0  0  0  0  0  0  0  0
    3.1720   62.3370   71.3350 C   0  0  0  0  0  0  0  0  0  0  0  0
    2.0640   62.7030   72.1000 C   0  0  0  0  0  0  0  0  0  0  0  0
    1.3060   63.8280   71.7500 C   0  0  0  0  0  0  0  0  0  0  0  0
    0.0100   66.2510   70.9580 O   0  0  0  0  0  0  0  0  0  0  0  0
    0.8810   65.7990   70.2250 C   0  0  0  0  0  0  0  0  0  0  0  0
    1.1760   66.3240   68.9830 N   0  0  0  0  0  0  0  0  0  0  0  0
    0.4240   67.4480   68.4470 C   0  0  0  0  0  0  0  0  0  0  0  0
    1.3270   68.6240   68.0630 C   0  0  0  0  0  0  0  0  0  0  0  0
    1.7380   68.5750   66.6270 C   0  0  0  0  0  0  0  0  0  0  0  0
    0.9760   68.1330   65.5630 C   0  0  0  0  0  0  0  0  0  0  0  0
    1.7220   68.2550   64.4210 N   0  0  0  0  0  0  0  0  0  0  0  0
    2.9630   68.7700   64.7140 C   0  0  0  0  0  0  0  0  0  0  0  0
    3.0030   68.9840   66.0910 C   0  0  0  0  0  0  0  0  0  0  0  0
    4.1790   69.5160   66.6560 C   0  0  0  0  0  0  0  0  0  0  0  0
    5.2680   69.8110   65.8280 C   0  0  0  0  0  0  0  0  0  0  0  0
    5.1980   69.5860   64.4560 C   0  0  0  0  0  0  0  0  0  0  0  0
    4.0430   69.0600   63.8710 C   0  0  0  0  0  0  0  0  0  0  0  0
    3.9930   61.2700   71.5670 O   0  0  0  0  0  0  0  0  0  0  0  0
    4.4530   61.0710   72.8990 C   0  0  0  0  0  0  0  0  0  0  0  0
    4.1510   59.6370   73.3370 C   0  0  0  0  0  0  0  0  0  0  0  0
    3.4000   58.8030   72.2890 C   0  0  0  0  0  0  0  0  0  0  0  0
    1.8890   58.6850   72.5060 C   0  0  0  0  0  0  0  0  0  0  0  0
    1.4540   59.4300   73.6400 O   0  0  0  0  0  0  0  0  0  0  0  0
    0.1210   59.6800   73.8140 C   0  0  0  0  0  0  0  0  0  0  0  0
   -0.5830   60.8040   73.3390 C   0  0  0  0  0  0  0  0  0  0  0  0
   -1.9600   60.9580   73.5740 C   0  0  0  0  0  0  0  0  0  0  0  0
   -2.6210   59.9750   74.2870 C   0  0  0  0  0  0  0  0  0  0  0  0
   -4.0070   59.8490   74.6840 C   0  0  0  0  0  0  0  0  0  0  0  0
   -4.1720   58.6500   75.4000 C   0  0  0  0  0  0  0  0  0  0  0  0
   -2.8530   57.9840   75.4680 C   0  0  0  0  0  0  0  0  0  0  0  0
   -2.6040   56.9260   76.0060 O   0  0  0  0  0  0  0  0  0  0  0  0
   -1.9040   58.8630   74.7500 C   0  0  0  0  0  0  0  0  0  0  0  0
   -0.5520   58.6890   74.5330 C   0  0  0  0  0  0  0  0  0  0  0  0
   -5.3830   58.2360   75.9180 C   0  0  0  0  0  0  0  0  0  0  0  0
   -6.4820   59.0680   75.7040 C   0  0  0  0  0  0  0  0  0  0  0  0
   -6.3410   60.2750   74.9890 C   0  0  0  0  0  0  0  0  0  0  0  0
   -5.1000   60.6720   74.4730 C   0  0  0  0  0  0  0  0  0  0  0  0
    3.0259   64.8019   68.9657 H   0  0  0  0  0  0  0  0  0  0  0  0
    4.3776   62.8064   69.5994 H   0  0  0  0  0  0  0  0  0  0  0  0
    1.7847   62.1062   72.9808 H   0  0  0  0  0  0  0  0  0  0  0  0
    0.4313   64.1087   72.3550 H   0  0  0  0  0  0  0  0  0  0  0  0
    1.9401   65.9137   68.4273 H   0  0  0  0  0  0  0  0  0  0  0  0
   -0.1209   67.1139   67.5518 H   0  0  0  0  0  0  0  0  0  0  0  0
   -0.2645   67.7957   69.2312 H   0  0  0  0  0  0  0  0  0  0  0  0
    0.7824   69.5625   68.2437 H   0  0  0  0  0  0  0  0  0  0  0  0
    2.2378   68.5649   68.6770 H   0  0  0  0  0  0  0  0  0  0  0  0
   -0.0531   67.7490   65.6227 H   0  0  0  0  0  0  0  0  0  0  0  0
    1.3995   67.9977   63.4772 H   0  0  0  0  0  0  0  0  0  0  0  0
    4.2406   69.6980   67.7391 H   0  0  0  0  0  0  0  0  0  0  0  0
    6.1884   70.2248   66.2657 H   0  0  0  0  0  0  0  0  0  0  0  0
    6.0649   69.8259   63.8228 H   0  0  0  0  0  0  0  0  0  0  0  0
    3.9843   68.8802   62.7874 H   0  0  0  0  0  0  0  0  0  0  0  0
    5.5382   61.2460   72.9416 H   0  0  0  0  0  0  0  0  0  0  0  0
    3.9401   61.7742   73.5716 H   0  0  0  0  0  0  0  0  0  0  0  0
    5.1049   59.1357   73.5576 H   0  0  0  0  0  0  0  0  0  0  0  0
    3.4928   59.7071   74.2156 H   0  0  0  0  0  0  0  0  0  0  0  0
    3.5668   59.2645   71.3045 H   0  0  0  0  0  0  0  0  0  0  0  0
    3.7994   57.7813   72.3706 H   0  0  0  0  0  0  0  0  0  0  0  0
    1.3710   59.0632   71.6123 H   0  0  0  0  0  0  0  0  0  0  0  0
    1.6524   57.6255   72.6837 H   0  0  0  0  0  0  0  0  0  0  0  0
   -0.0436   61.5773   72.7723 H   0  0  0  0  0  0  0  0  0  0  0  0
   -2.4995   61.8403   73.1993 H   0  0  0  0  0  0  0  0  0  0  0  0
   -0.0235   57.8021   74.9125 H   0  0  0  0  0  0  0  0  0  0  0  0
   -5.4770   57.2920   76.4747 H   0  0  0  0  0  0  0  0  0  0  0  0
   -7.4682   58.7796   76.0969 H   0  0  0  0  0  0  0  0  0  0  0  0
   -7.2209   60.9166   74.8334 H   0  0  0  0  0  0  0  0  0  0  0  0
   -4.9970   61.6139   73.9143 H   0  0  0  0  0  0  0  0  0  0  0  0
  2  1  2  0
  3  2  1  0
  4  3  2  0
  5  4  1  0
  6  5  2  0
  6  1  1  0
  8  7  2  0
  8  1  1  0
  9  8  1  0
 10  9  1  0
 11 10  1  0
 12 11  1  0
 13 12  2  0
 14 13  1  0
 15 14  1  0
 16 15  2  0
 16 12  1  0
 17 16  1  0
 18 17  2  0
 19 18  1  0
 20 15  1  0
 20 19  2  0
 21  4  1  0
 22 21  1  0
 23 22  1  0
 24 23  1  0
 25 24  1  0
 26 25  1  0
 27 26  1  0
 28 27  2  0
 29 28  1  0
 30 29  2  0
 31 30  1  0
 32 31  2  0
 33 32  1  0
 34 33  2  0
 35 33  1  0
 35 30  1  0
 36 35  2  0
 36 27  1  0
 37 32  1  0
 38 37  2  0
 39 38  1  0
 40 31  1  0
 40 39  2  0
  2 41  1  0
  3 42  1  0
  5 43  1  0
  6 44  1  0
  9 45  1  0
 10 46  1  0
 10 47  1  0
 11 48  1  0
 11 49  1  0
 13 50  1  0
 14 51  1  0
 17 52  1  0
 18 53  1  0
 19 54  1  0
 20 55  1  0
 22 56  1  0
 22 57  1  0
 23 58  1  0
 23 59  1  0
 24 60  1  0
 24 61  1  0
 25 62  1  0
 25 63  1  0
 28 64  1  0
 29 65  1  0
 36 66  1  0
 37 67  1  0
 38 68  1  0
 39 69  1  0
 40 70  1  0
M  END
>  <score>  (9) 
-11.039

$$$$
