=
     RDKit          3D

 48 51  0  0  0  0  0  0  0  0999 V2000
    2.0710   57.6020   72.6690 C   0  0  0  0  0  0  0  0  0  0  0  0
    1.8610   58.9740   72.8860 C   0  0  0  0  0  0  0  0  0  0  0  0
    2.3630   59.9700   72.0210 C   0  0  0  0  0  0  0  0  0  0  0  0
    2.1290   61.3700   72.2420 N   0  0  0  0  0  0  0  0  0  0  0  0
    2.7270   62.2560   71.3490 C   0  0  0  0  0  0  0  0  0  0  0  0
    3.5060   61.9450   70.3060 C   0  0  0  0  0  0  0  0  0  0  0  0
    3.8000   60.5380   70.0360 C   0  0  0  0  0  0  0  0  0  0  0  0
    4.5590   60.1420   69.1600 O   0  0  0  0  0  0  0  0  0  0  0  0
    3.1560   59.5460   70.9330 C   0  0  0  0  0  0  0  0  0  0  0  0
    3.3870   58.1890   70.6910 C   0  0  0  0  0  0  0  0  0  0  0  0
    2.8370   57.2440   71.5420 C   0  0  0  0  0  0  0  0  0  0  0  0
    3.0230   55.9430   71.2570 F   0  0  0  0  0  0  0  0  0  0  0  0
   -0.9790   54.9840   75.3980 C   0  0  0  0  0  0  0  0  0  0  0  0
   -0.2370   54.9630   74.0700 C   0  0  2  0  0  0  0  0  0  0  0  0
    1.0670   54.1990   74.2250 N   0  0  0  0  0  4  0  0  0  0  0  0
    2.1010   54.8650   75.1090 C   0  0  0  0  0  0  0  0  0  0  0  0
    2.1940   56.3690   74.7790 C   0  0  0  0  0  0  0  0  0  0  0  0
    1.5160   56.6190   73.4900 N   0  0  0  0  0  0  0  0  0  0  0  0
    0.0590   56.3840   73.4990 C   0  0  0  0  0  0  0  0  0  0  0  0
    1.2840   61.9220   73.2590 C   0  0  0  0  0  0  0  0  0  0  0  0
    1.8240   62.7970   74.2220 C   0  0  0  0  0  0  0  0  0  0  0  0
    1.0170   63.3630   75.2120 C   0  0  0  0  0  0  0  0  0  0  0  0
   -0.3400   63.0670   75.2430 C   0  0  0  0  0  0  0  0  0  0  0  0
   -0.9070   62.2180   74.3040 C   0  0  0  0  0  0  0  0  0  0  0  0
   -0.0970   61.6550   73.3220 C   0  0  0  0  0  0  0  0  0  0  0  0
   -0.6780   60.8390   72.4270 F   0  0  0  0  0  0  0  0  0  0  0  0
   -1.1120   63.6020   76.1970 F   0  0  0  0  0  0  0  0  0  0  0  0
    4.0160   63.0740   69.4470 C   0  0  0  0  0  0  0  0  0  0  0  0
    3.4300   63.1910   68.3300 O   0  0  0  0  0  0  0  0  0  0  0  0
    5.0280   63.6830   69.8920 O   0  0  0  0  0  1  0  0  0  0  0  0
    1.2809   59.2852   73.7672 H   0  0  0  0  0  0  0  0  0  0  0  0
    2.5388   63.3263   71.5192 H   0  0  0  0  0  0  0  0  0  0  0  0
    3.9995   57.8743   69.8332 H   0  0  0  0  0  0  0  0  0  0  0  0
   -0.2529   54.9635   76.2241 H   0  0  0  0  0  0  0  0  0  0  0  0
   -1.5849   55.8997   75.4651 H   0  0  0  0  0  0  0  0  0  0  0  0
   -1.6357   54.1041   75.4651 H   0  0  0  0  0  0  0  0  0  0  0  0
   -0.9006   54.4633   73.3490 H   0  0  0  0  0  0  0  0  0  0  0  0
    0.8501   53.2760   74.6274 H   0  0  0  0  0  0  0  0  0  0  0  0
    1.4835   54.1489   73.2843 H   0  0  0  0  0  0  0  0  0  0  0  0
    1.8118   54.7414   76.1631 H   0  0  0  0  0  0  0  0  0  0  0  0
    3.0805   54.3971   74.9312 H   0  0  0  0  0  0  0  0  0  0  0  0
    1.7045   56.9522   75.5729 H   0  0  0  0  0  0  0  0  0  0  0  0
    3.2495   56.6708   74.7096 H   0  0  0  0  0  0  0  0  0  0  0  0
   -0.4303   57.1412   74.1292 H   0  0  0  0  0  0  0  0  0  0  0  0
   -0.3292   56.4538   72.4721 H   0  0  0  0  0  0  0  0  0  0  0  0
    2.8969   63.0381   74.1940 H   0  0  0  0  0  0  0  0  0  0  0  0
    1.4533   64.0388   75.9623 H   0  0  0  0  0  0  0  0  0  0  0  0
   -1.9832   61.9925   74.3350 H   0  0  0  0  0  0  0  0  0  0  0  0
  2  1  2  0
  3  2  1  0
  4  3  1  0
  5  4  1  0
  6  5  2  0
  7  6  1  0
  8  7  2  0
  9  7  1  0
  9  3  2  0
 10  9  1  0
 11 10  2  0
 11  1  1  0
 12 11  1  0
 14 13  1  0
 15 14  1  0
 16 15  1  0
 17 16  1  0
 18 17  1  0
 18  1  1  0
 19 18  1  0
 19 14  1  0
 20  4  1  0
 21 20  2  0
 22 21  1  0
 23 22  2  0
 24 23  1  0
 25 24  2  0
 25 20  1  0
 26 25  1  0
 27 23  1  0
 28  6  1  0
 29 28  2  0
 30 28  1  0
  2 31  1  0
  5 32  1  0
 10 33  1  0
 13 34  1  0
 13 35  1  0
 13 36  1  0
 14 37  1  6
 15 38  1  0
 15 39  1  0
 16 40  1  0
 16 41  1  0
 17 42  1  0
 17 43  1  0
 19 44  1  0
 19 45  1  0
 21 46  1  0
 22 47  1  0
 24 48  1  0
M  CHG  2  15   1  30  -1
M  END
>  <score>  (1) 
-9.386

$$$$
=
     RDKit          3D

 48 51  0  0  0  0  0  0  0  0999 V2000
   -0.1150   57.9240   74.0630 C   0  0  0  0  0  0  0  0  0  0  0  0
    0.3840   59.2260   73.8900 C   0  0  0  0  0  0  0  0  0  0  0  0
    1.4510   59.5260   73.0150 C   0  0  0  0  0  0  0  0  0  0  0  0
    1.9430   60.8630   72.8320 N   0  0  0  0  0  0  0  0  0  0  0  0
    3.0390   61.0200   71.9860 C   0  0  0  0  0  0  0  0  0  0  0  0
    3.6910   60.0550   71.3270 C   0  0  0  0  0  0  0  0  0  0  0  0
    3.2530   58.6680   71.4850 C   0  0  0  0  0  0  0  0  0  0  0  0
    3.8200   57.7000   70.9940 O   0  0  0  0  0  0  0  0  0  0  0  0
    2.0640   58.4460   72.3450 C   0  0  0  0  0  0  0  0  0  0  0  0
    1.5940   57.1390   72.4980 C   0  0  0  0  0  0  0  0  0  0  0  0
    0.5150   56.8980   73.3330 C   0  0  0  0  0  0  0  0  0  0  0  0
    0.0430   55.6410   73.4190 F   0  0  0  0  0  0  0  0  0  0  0  0
   -4.0050   58.3300   76.9450 C   0  0  0  0  0  0  0  0  0  0  0  0
   -3.5880   57.9090   75.5430 C   0  0  2  0  0  0  0  0  0  0  0  0
   -3.3750   56.4060   75.5030 N   0  0  0  0  0  4  0  0  0  0  0  0
   -2.1940   55.9020   76.3060 C   0  0  0  0  0  0  0  0  0  0  0  0
   -0.9640   56.8010   76.0640 C   0  0  0  0  0  0  0  0  0  0  0  0
   -1.2140   57.6440   74.8770 N   0  0  0  0  0  0  0  0  0  0  0  0
   -2.3020   58.6290   75.0340 C   0  0  0  0  0  0  0  0  0  0  0  0
    1.3630   62.0480   73.3920 C   0  0  0  0  0  0  0  0  0  0  0  0
    1.6110   62.3820   74.7390 C   0  0  0  0  0  0  0  0  0  0  0  0
    1.0720   63.5410   75.3030 C   0  0  0  0  0  0  0  0  0  0  0  0
    0.2870   64.3820   74.5240 C   0  0  0  0  0  0  0  0  0  0  0  0
    0.0310   64.0890   73.1930 C   0  0  0  0  0  0  0  0  0  0  0  0
    0.5700   62.9310   72.6370 C   0  0  0  0  0  0  0  0  0  0  0  0
    0.3030   62.6790   71.3450 F   0  0  0  0  0  0  0  0  0  0  0  0
   -0.2360   65.4880   75.0660 F   0  0  0  0  0  0  0  0  0  0  0  0
    4.8340   60.4620   70.4320 C   0  0  0  0  0  0  0  0  0  0  0  0
    4.5810   60.3890   69.1920 O   0  0  0  0  0  0  0  0  0  0  0  0
    5.9230   60.7130   71.0180 O   0  0  0  0  0  1  0  0  0  0  0  0
   -0.0760   60.0464   74.4603 H   0  0  0  0  0  0  0  0  0  0  0  0
    3.4076   62.0468   71.8448 H   0  0  0  0  0  0  0  0  0  0  0  0
    2.0762   56.3092   71.9605 H   0  0  0  0  0  0  0  0  0  0  0  0
   -3.4332   57.7527   77.6865 H   0  0  0  0  0  0  0  0  0  0  0  0
   -3.8035   59.4028   77.0809 H   0  0  0  0  0  0  0  0  0  0  0  0
   -5.0797   58.1387   77.0809 H   0  0  0  0  0  0  0  0  0  0  0  0
   -4.4059   58.2066   74.8703 H   0  0  0  0  0  0  0  0  0  0  0  0
   -4.2253   55.9536   75.8681 H   0  0  0  0  0  0  0  0  0  0  0  0
   -3.1744   56.1712   74.5204 H   0  0  0  0  0  0  0  0  0  0  0  0
   -2.4494   55.9156   77.3758 H   0  0  0  0  0  0  0  0  0  0  0  0
   -1.9565   54.8754   75.9902 H   0  0  0  0  0  0  0  0  0  0  0  0
   -0.7957   57.4410   76.9427 H   0  0  0  0  0  0  0  0  0  0  0  0
   -0.0733   56.1773   75.8975 H   0  0  0  0  0  0  0  0  0  0  0  0
   -1.9993   59.3963   75.7618 H   0  0  0  0  0  0  0  0  0  0  0  0
   -2.5084   59.1040   74.0636 H   0  0  0  0  0  0  0  0  0  0  0  0
    2.2380   61.7205   75.3549 H   0  0  0  0  0  0  0  0  0  0  0  0
    1.2679   63.7862   76.3573 H   0  0  0  0  0  0  0  0  0  0  0  0
   -0.5898   64.7625   72.5839 H   0  0  0  0  0  0  0  0  0  0  0  0
  2  1  2  0
  3  2  1  0
  4  3  1  0
  5  4  1  0
  6  5  2  0
  7  6  1  0
  8  7  2  0
  9  7  1  0
  9  3  2  0
 10  9  1  0
 11 10  2  0
 11  1  1  0
 12 11  1  0
 14 13  1  0
 15 14  1  0
 16 15  1  0
 17 16  1  0
 18 17  1  0
 18  1  1  0
 19 18  1  0
 19 14  1  0
 20  4  1  0
 21 20  2  0
 22 21  1  0
 23 22  2  0
 24 23  1  0
 25 24  2  0
 25 20  1  0
 26 25  1  0
 27 23  1  0
 28  6  1  0
 29 28  2  0
 30 28  1  0
  2 31  1  0
  5 32  1  0
 10 33  1  0
 13 34  1  0
 13 35  1  0
 13 36  1  0
 14 37  1  6
 15 38  1  0
 15 39  1  0
 16 40  1  0
 16 41  1  0
 17 42  1  0
 17 43  1  0
 19 44  1  0
 19 45  1  0
 21 46  1  0
 22 47  1  0
 24 48  1  0
M  CHG  2  15   1  30  -1
M  END
>  <score>  (2) 
-8.484

$$$$
=
     RDKit          3D

 48 51  0  0  0  0  0  0  0  0999 V2000
    1.6050   57.6020   73.0060 C   0  0  0  0  0  0  0  0  0  0  0  0
    0.9710   58.8180   73.3110 C   0  0  0  0  0  0  0  0  0  0  0  0
    1.2460   60.0190   72.6210 C   0  0  0  0  0  0  0  0  0  0  0  0
    0.5800   61.2540   72.9300 N   0  0  0  0  0  0  0  0  0  0  0  0
    0.9830   62.3800   72.2160 C   0  0  0  0  0  0  0  0  0  0  0  0
    1.9320   62.4400   71.2740 C   0  0  0  0  0  0  0  0  0  0  0  0
    2.6630   61.2210   70.9260 C   0  0  0  0  0  0  0  0  0  0  0  0
    3.5990   61.1740   70.1390 O   0  0  0  0  0  0  0  0  0  0  0  0
    2.2480   59.9810   71.6280 C   0  0  0  0  0  0  0  0  0  0  0  0
    2.9000   58.7880   71.3020 C   0  0  0  0  0  0  0  0  0  0  0  0
    2.5650   57.6250   71.9760 C   0  0  0  0  0  0  0  0  0  0  0  0
    3.1630   56.4790   71.6060 F   0  0  0  0  0  0  0  0  0  0  0  0
   -0.7720   54.0350   75.2940 C   0  0  0  0  0  0  0  0  0  0  0  0
   -0.1240   54.3850   73.9620 C   0  0  2  0  0  0  0  0  0  0  0  0
    1.2990   53.8530   73.9310 N   0  0  0  0  0  4  0  0  0  0  0  0
    2.2580   54.5250   74.8900 C   0  0  0  0  0  0  0  0  0  0  0  0
    2.0710   56.0560   74.8450 C   0  0  0  0  0  0  0  0  0  0  0  0
    1.2800   56.4060   73.6470 N   0  0  0  0  0  0  0  0  0  0  0  0
   -0.1130   55.9140   73.6580 C   0  0  0  0  0  0  0  0  0  0  0  0
   -0.5010   61.4070   73.8570 C   0  0  0  0  0  0  0  0  0  0  0  0
   -1.8120   61.0660   73.4690 C   0  0  0  0  0  0  0  0  0  0  0  0
   -2.8810   61.1880   74.3610 C   0  0  0  0  0  0  0  0  0  0  0  0
   -2.6470   61.6450   75.6520 C   0  0  0  0  0  0  0  0  0  0  0  0
   -1.3680   61.9800   76.0710 C   0  0  0  0  0  0  0  0  0  0  0  0
   -0.3080   61.8580   75.1760 C   0  0  0  0  0  0  0  0  0  0  0  0
    0.9180   62.1890   75.6140 F   0  0  0  0  0  0  0  0  0  0  0  0
   -3.6720   61.7700   76.5050 F   0  0  0  0  0  0  0  0  0  0  0  0
    2.1760   63.7680   70.6030 C   0  0  0  0  0  0  0  0  0  0  0  0
    1.2070   64.1880   69.9030 O   0  0  0  0  0  0  0  0  0  0  0  0
    3.3410   64.2350   70.7280 O   0  0  0  0  0  1  0  0  0  0  0  0
    0.2283   58.8353   74.1223 H   0  0  0  0  0  0  0  0  0  0  0  0
    0.4655   63.3216   72.4517 H   0  0  0  0  0  0  0  0  0  0  0  0
    3.6714   58.7730   70.5180 H   0  0  0  0  0  0  0  0  0  0  0  0
   -0.1295   54.3820   76.1167 H   0  0  0  0  0  0  0  0  0  0  0  0
   -1.7542   54.5253   75.3640 H   0  0  0  0  0  0  0  0  0  0  0  0
   -0.9006   52.9448   75.3640 H   0  0  0  0  0  0  0  0  0  0  0  0
   -0.7368   53.9108   73.1812 H   0  0  0  0  0  0  0  0  0  0  0  0
    1.2693   52.8494   74.1607 H   0  0  0  0  0  0  0  0  0  0  0  0
    1.6569   54.0475   72.9849 H   0  0  0  0  0  0  0  0  0  0  0  0
    2.0629   54.1649   75.9109 H   0  0  0  0  0  0  0  0  0  0  0  0
    3.2895   54.2806   74.5964 H   0  0  0  0  0  0  0  0  0  0  0  0
    1.5401   56.3900   75.7487 H   0  0  0  0  0  0  0  0  0  0  0  0
    3.0526   56.5505   74.8013 H   0  0  0  0  0  0  0  0  0  0  0  0
   -0.6832   56.4458   74.4339 H   0  0  0  0  0  0  0  0  0  0  0  0
   -0.5726   56.0948   72.6751 H   0  0  0  0  0  0  0  0  0  0  0  0
   -1.9968   60.6983   72.4489 H   0  0  0  0  0  0  0  0  0  0  0  0
   -3.9005   60.9241   74.0432 H   0  0  0  0  0  0  0  0  0  0  0  0
   -1.1932   62.3373   77.0966 H   0  0  0  0  0  0  0  0  0  0  0  0
  2  1  2  0
  3  2  1  0
  4  3  1  0
  5  4  1  0
  6  5  2  0
  7  6  1  0
  8  7  2  0
  9  7  1  0
  9  3  2  0
 10  9  1  0
 11 10  2  0
 11  1  1  0
 12 11  1  0
 14 13  1  0
 15 14  1  0
 16 15  1  0
 17 16  1  0
 18 17  1  0
 18  1  1  0
 19 18  1  0
 19 14  1  0
 20  4  1  0
 21 20  2  0
 22 21  1  0
 23 22  2  0
 24 23  1  0
 25 24  2  0
 25 20  1  0
 26 25  1  0
 27 23  1  0
 28  6  1  0
 29 28  2  0
 30 28  1  0
  2 31  1  0
  5 32  1  0
 10 33  1  0
 13 34  1  0
 13 35  1  0
 13 36  1  0
 14 37  1  6
 15 38  1  0
 15 39  1  0
 16 40  1  0
 16 41  1  0
 17 42  1  0
 17 43  1  0
 19 44  1  0
 19 45  1  0
 21 46  1  0
 22 47  1  0
 24 48  1  0
M  CHG  2  15   1  30  -1
M  END
>  <score>  (3) 
-8.479

$$$$
=
     RDKit          3D

 48 51  0  0  0  0  0  0  0  0999 V2000
    0.8160   60.9660   72.5440 C   0  0  0  0  0  0  0  0  0  0  0  0
    0.6080   59.7930   73.2880 C   0  0  0  0  0  0  0  0  0  0  0  0
   -0.6370   59.4670   73.8690 C   0  0  0  0  0  0  0  0  0  0  0  0
   -0.8440   58.2560   74.6150 N   0  0  0  0  0  0  0  0  0  0  0  0
   -2.1020   58.0780   75.1860 C   0  0  0  0  0  0  0  0  0  0  0  0
   -3.1420   58.9180   75.1220 C   0  0  0  0  0  0  0  0  0  0  0  0
   -2.9910   60.1780   74.3940 C   0  0  0  0  0  0  0  0  0  0  0  0
   -3.8460   61.0530   74.3350 O   0  0  0  0  0  0  0  0  0  0  0  0
   -1.6830   60.4030   73.7310 C   0  0  0  0  0  0  0  0  0  0  0  0
   -1.5080   61.5810   72.9990 C   0  0  0  0  0  0  0  0  0  0  0  0
   -0.2800   61.8390   72.4100 C   0  0  0  0  0  0  0  0  0  0  0  0
   -0.1530   62.9490   71.6620 F   0  0  0  0  0  0  0  0  0  0  0  0
    5.4430   60.8380   71.0670 C   0  0  0  0  0  0  0  0  0  0  0  0
    4.0190   60.6200   70.5750 C   0  0  2  0  0  0  0  0  0  0  0  0
    3.5070   61.8890   69.9150 N   0  0  0  0  0  4  0  0  0  0  0  0
    3.3010   63.0620   70.8490 C   0  0  0  0  0  0  0  0  0  0  0  0
    2.5940   62.5980   72.1390 C   0  0  0  0  0  0  0  0  0  0  0  0
    2.0300   61.2510   71.9170 N   0  0  0  0  0  0  0  0  0  0  0  0
    3.0320   60.1870   71.7020 C   0  0  0  0  0  0  0  0  0  0  0  0
    0.1080   57.1960   74.7620 C   0  0  0  0  0  0  0  0  0  0  0  0
    1.0400   57.2300   75.8190 C   0  0  0  0  0  0  0  0  0  0  0  0
    1.9660   56.1990   75.9950 C   0  0  0  0  0  0  0  0  0  0  0  0
    1.9640   55.1190   75.1210 C   0  0  0  0  0  0  0  0  0  0  0  0
    1.0550   55.0480   74.0760 C   0  0  0  0  0  0  0  0  0  0  0  0
    0.1360   56.0800   73.9050 C   0  0  0  0  0  0  0  0  0  0  0  0
   -0.7310   55.9780   72.8840 F   0  0  0  0  0  0  0  0  0  0  0  0
    2.8570   54.1350   75.2850 F   0  0  0  0  0  0  0  0  0  0  0  0
   -4.4280   58.4990   75.7890 C   0  0  0  0  0  0  0  0  0  0  0  0
   -5.3390   58.1330   74.9880 O   0  0  0  0  0  0  0  0  0  0  0  0
   -4.4750   58.6710   77.0380 O   0  0  0  0  0  1  0  0  0  0  0  0
    1.4506   59.0990   73.4238 H   0  0  0  0  0  0  0  0  0  0  0  0
   -2.2574   57.1467   75.7503 H   0  0  0  0  0  0  0  0  0  0  0  0
   -2.3367   62.2963   72.8914 H   0  0  0  0  0  0  0  0  0  0  0  0
    5.4547   60.8398   72.1669 H   0  0  0  0  0  0  0  0  0  0  0  0
    6.0876   60.0281   70.6948 H   0  0  0  0  0  0  0  0  0  0  0  0
    5.8157   61.8037   70.6948 H   0  0  0  0  0  0  0  0  0  0  0  0
    4.0598   59.7917   69.8523 H   0  0  0  0  0  0  0  0  0  0  0  0
    4.1873   62.1706   69.1948 H   0  0  0  0  0  0  0  0  0  0  0  0
    2.5777   61.6591   69.5350 H   0  0  0  0  0  0  0  0  0  0  0  0
    4.2778   63.4974   71.1065 H   0  0  0  0  0  0  0  0  0  0  0  0
    2.6749   63.8146   70.3474 H   0  0  0  0  0  0  0  0  0  0  0  0
    3.3191   62.5632   72.9655 H   0  0  0  0  0  0  0  0  0  0  0  0
    1.7887   63.3016   72.3966 H   0  0  0  0  0  0  0  0  0  0  0  0
    3.5916   60.0171   72.6337 H   0  0  0  0  0  0  0  0  0  0  0  0
    2.5220   59.2587   71.4050 H   0  0  0  0  0  0  0  0  0  0  0  0
    1.0381   58.0812   76.5157 H   0  0  0  0  0  0  0  0  0  0  0  0
    2.6921   56.2419   76.8202 H   0  0  0  0  0  0  0  0  0  0  0  0
    1.0600   54.1874   73.3910 H   0  0  0  0  0  0  0  0  0  0  0  0
  2  1  2  0
  3  2  1  0
  4  3  1  0
  5  4  1  0
  6  5  2  0
  7  6  1  0
  8  7  2  0
  9  7  1  0
  9  3  2  0
 10  9  1  0
 11 10  2  0
 11  1  1  0
 12 11  1  0
 14 13  1  0
 15 14  1  0
 16 15  1  0
 17 16  1  0
 18 17  1  0
 18  1  1  0
 19 18  1  0
 19 14  1  0
 20  4  1  0
 21 20  2  0
 22 21  1  0
 23 22  2  0
 24 23  1  0
 25 24  2  0
 25 20  1  0
 26 25  1  0
 27 23  1  0
 28  6  1  0
 29 28  2  0
 30 28  1  0
  2 31  1  0
  5 32  1  0
 10 33  1  0
 13 34  1  0
 13 35  1  0
 13 36  1  0
 14 37  1  6
 15 38  1  0
 15 39  1  0
 16 40  1  0
 16 41  1  0
 17 42  1  0
 17 43  1  0
 19 44  1  0
 19 45  1  0
 21 46  1  0
 22 47  1  0
 24 48  1  0
M  CHG  2  15   1  30  -1
M  END
>  <score>  (4) 
-8.387

$$$$
=
     RDKit          3D

 48 51  0  0  0  0  0  0  0  0999 V2000
    2.2890   60.2070   71.6850 C   0  0  0  0  0  0  0  0  0  0  0  0
    1.2320   60.0720   72.6010 C   0  0  0  0  0  0  0  0  0  0  0  0
    0.9730   58.8730   73.2990 C   0  0  0  0  0  0  0  0  0  0  0  0
   -0.1000   58.7490   74.2460 N   0  0  0  0  0  0  0  0  0  0  0  0
   -0.2870   57.4960   74.8250 C   0  0  0  0  0  0  0  0  0  0  0  0
    0.4230   56.3870   74.5890 C   0  0  0  0  0  0  0  0  0  0  0  0
    1.5180   56.4380   73.6200 C   0  0  0  0  0  0  0  0  0  0  0  0
    2.1820   55.4710   73.2700 O   0  0  0  0  0  0  0  0  0  0  0  0
    1.7890   57.7600   73.0010 C   0  0  0  0  0  0  0  0  0  0  0  0
    2.8460   57.8590   72.0930 C   0  0  0  0  0  0  0  0  0  0  0  0
    3.0900   59.0700   71.4640 C   0  0  0  0  0  0  0  0  0  0  0  0
    4.1480   59.1580   70.6390 F   0  0  0  0  0  0  0  0  0  0  0  0
    2.2120   64.8340   70.2060 C   0  0  0  0  0  0  0  0  0  0  0  0
    3.0180   63.8560   71.0480 C   0  0  2  0  0  0  0  0  0  0  0  0
    4.1460   63.2720   70.2140 N   0  0  0  0  0  4  0  0  0  0  0  0
    3.7070   62.3660   69.0830 C   0  0  0  0  0  0  0  0  0  0  0  0
    2.6090   61.3980   69.5720 C   0  0  0  0  0  0  0  0  0  0  0  0
    2.5810   61.4150   71.0490 N   0  0  0  0  0  0  0  0  0  0  0  0
    2.1630   62.6980   71.6470 C   0  0  0  0  0  0  0  0  0  0  0  0
   -0.9450   59.8180   74.6890 C   0  0  0  0  0  0  0  0  0  0  0  0
   -2.1850   60.0410   74.0590 C   0  0  0  0  0  0  0  0  0  0  0  0
   -3.0360   61.0640   74.4850 C   0  0  0  0  0  0  0  0  0  0  0  0
   -2.6580   61.8700   75.5520 C   0  0  0  0  0  0  0  0  0  0  0  0
   -1.4490   61.6720   76.2020 C   0  0  0  0  0  0  0  0  0  0  0  0
   -0.6050   60.6520   75.7710 C   0  0  0  0  0  0  0  0  0  0  0  0
    0.5570   60.4870   76.4240 F   0  0  0  0  0  0  0  0  0  0  0  0
   -3.4690   62.8560   75.9550 F   0  0  0  0  0  0  0  0  0  0  0  0
    0.0650   55.1440   75.3630 C   0  0  0  0  0  0  0  0  0  0  0  0
    0.7180   54.9870   76.4370 O   0  0  0  0  0  0  0  0  0  0  0  0
   -0.7500   54.3640   74.7960 O   0  0  0  0  0  1  0  0  0  0  0  0
    0.5783   60.9380   72.7818 H   0  0  0  0  0  0  0  0  0  0  0  0
   -1.1060   57.4091   75.5542 H   0  0  0  0  0  0  0  0  0  0  0  0
    3.4784   56.9847   71.8793 H   0  0  0  0  0  0  0  0  0  0  0  0
    1.6528   65.5126   70.8669 H   0  0  0  0  0  0  0  0  0  0  0  0
    2.8934   65.4194   69.5712 H   0  0  0  0  0  0  0  0  0  0  0  0
    1.5072   64.2770   69.5712 H   0  0  0  0  0  0  0  0  0  0  0  0
    3.4156   64.4295   71.8983 H   0  0  0  0  0  0  0  0  0  0  0  0
    4.6799   64.0535   69.8077 H   0  0  0  0  0  0  0  0  0  0  0  0
    4.7003   62.6845   70.8531 H   0  0  0  0  0  0  0  0  0  0  0  0
    3.3112   62.9784   68.2594 H   0  0  0  0  0  0  0  0  0  0  0  0
    4.5715   61.7820   68.7344 H   0  0  0  0  0  0  0  0  0  0  0  0
    1.6324   61.7187   69.1802 H   0  0  0  0  0  0  0  0  0  0  0  0
    2.8227   60.3799   69.2144 H   0  0  0  0  0  0  0  0  0  0  0  0
    1.1000   62.8757   71.4268 H   0  0  0  0  0  0  0  0  0  0  0  0
    2.3113   62.6594   72.7363 H   0  0  0  0  0  0  0  0  0  0  0  0
   -2.4881   59.3996   73.2183 H   0  0  0  0  0  0  0  0  0  0  0  0
   -3.9986   61.2302   73.9792 H   0  0  0  0  0  0  0  0  0  0  0  0
   -1.1603   62.3131   77.0479 H   0  0  0  0  0  0  0  0  0  0  0  0
  2  1  2  0
  3  2  1  0
  4  3  1  0
  5  4  1  0
  6  5  2  0
  7  6  1  0
  8  7  2  0
  9  7  1  0
  9  3  2  0
 10  9  1  0
 11 10  2  0
 11  1  1  0
 12 11  1  0
 14 13  1  0
 15 14  1  0
 16 15  1  0
 17 16  1  0
 18 17  1  0
 18  1  1  0
 19 18  1  0
 19 14  1  0
 20  4  1  0
 21 20  2  0
 22 21  1  0
 23 22  2  0
 24 23  1  0
 25 24  2  0
 25 20  1  0
 26 25  1  0
 27 23  1  0
 28  6  1  0
 29 28  2  0
 30 28  1  0
  2 31  1  0
  5 32  1  0
 10 33  1  0
 13 34  1  0
 13 35  1  0
 13 36  1  0
 14 37  1  1
 15 38  1  0
 15 39  1  0
 16 40  1  0
 16 41  1  0
 17 42  1  0
 17 43  1  0
 19 44  1  0
 19 45  1  0
 21 46  1  0
 22 47  1  0
 24 48  1  0
M  CHG  2  15   1  30  -1
M  END
>  <score>  (5) 
-7.835

$$$$
=
     RDKit          3D

 48 51  0  0  0  0  0  0  0  0999 V2000
    2.3200   59.6430   71.9650 C   0  0  0  0  0  0  0  0  0  0  0  0
    1.3640   59.7930   72.9840 C   0  0  0  0  0  0  0  0  0  0  0  0
    0.8490   58.7000   73.7150 C   0  0  0  0  0  0  0  0  0  0  0  0
   -0.1160   58.8650   74.7670 N   0  0  0  0  0  0  0  0  0  0  0  0
   -0.5900   57.7030   75.3720 C   0  0  0  0  0  0  0  0  0  0  0  0
   -0.2480   56.4440   75.0760 C   0  0  0  0  0  0  0  0  0  0  0  0
    0.7160   56.2050   74.0020 C   0  0  0  0  0  0  0  0  0  0  0  0
    1.0430   55.0970   73.5950 O   0  0  0  0  0  0  0  0  0  0  0  0
    1.2850   57.4090   73.3470 C   0  0  0  0  0  0  0  0  0  0  0  0
    2.2320   57.2260   72.3360 C   0  0  0  0  0  0  0  0  0  0  0  0
    2.7430   58.3320   71.6750 C   0  0  0  0  0  0  0  0  0  0  0  0
    3.6960   58.1360   70.7470 F   0  0  0  0  0  0  0  0  0  0  0  0
    5.0800   63.4460   70.7300 C   0  0  0  0  0  0  0  0  0  0  0  0
    4.7880   62.0010   70.3520 C   0  0  2  0  0  0  0  0  0  0  0  0
    3.7720   61.9630   69.2240 N   0  0  0  0  0  4  0  0  0  0  0  0
    2.3820   62.4390   69.5930 C   0  0  0  0  0  0  0  0  0  0  0  0
    1.9590   61.8410   70.9510 C   0  0  0  0  0  0  0  0  0  0  0  0
    2.8750   60.7330   71.2920 N   0  0  0  0  0  0  0  0  0  0  0  0
    4.2720   61.1380   71.5440 C   0  0  0  0  0  0  0  0  0  0  0  0
   -0.5780   60.1190   75.2840 C   0  0  0  0  0  0  0  0  0  0  0  0
    0.1010   60.7280   76.3580 C   0  0  0  0  0  0  0  0  0  0  0  0
   -0.3180   61.9600   76.8670 C   0  0  0  0  0  0  0  0  0  0  0  0
   -1.4150   62.5980   76.3020 C   0  0  0  0  0  0  0  0  0  0  0  0
   -2.1000   62.0320   75.2370 C   0  0  0  0  0  0  0  0  0  0  0  0
   -1.6790   60.8030   74.7350 C   0  0  0  0  0  0  0  0  0  0  0  0
   -2.3630   60.2840   73.7030 F   0  0  0  0  0  0  0  0  0  0  0  0
   -1.8220   63.7740   76.7950 F   0  0  0  0  0  0  0  0  0  0  0  0
   -0.8630   55.3360   75.8930 C   0  0  0  0  0  0  0  0  0  0  0  0
   -0.1790   54.9850   76.9000 O   0  0  0  0  0  0  0  0  0  0  0  0
   -1.9130   54.8250   75.4160 O   0  0  0  0  0  1  0  0  0  0  0  0
    1.0017   60.8040   73.2222 H   0  0  0  0  0  0  0  0  0  0  0  0
   -1.3246   57.8350   76.1801 H   0  0  0  0  0  0  0  0  0  0  0  0
    2.5688   56.2139   72.0672 H   0  0  0  0  0  0  0  0  0  0  0  0
    5.0993   63.5417   71.8257 H   0  0  0  0  0  0  0  0  0  0  0  0
    6.0562   63.7425   70.3188 H   0  0  0  0  0  0  0  0  0  0  0  0
    4.2955   64.0983   70.3188 H   0  0  0  0  0  0  0  0  0  0  0  0
    5.7445   61.5618   70.0325 H   0  0  0  0  0  0  0  0  0  0  0  0
    4.1210   62.5595   68.4603 H   0  0  0  0  0  0  0  0  0  0  0  0
    3.6746   60.9722   68.9598 H   0  0  0  0  0  0  0  0  0  0  0  0
    2.3801   63.5368   69.6626 H   0  0  0  0  0  0  0  0  0  0  0  0
    1.6723   62.1114   68.8190 H   0  0  0  0  0  0  0  0  0  0  0  0
    2.0124   62.6169   71.7289 H   0  0  0  0  0  0  0  0  0  0  0  0
    0.9270   61.4654   70.8877 H   0  0  0  0  0  0  0  0  0  0  0  0
    4.3209   61.7276   72.4713 H   0  0  0  0  0  0  0  0  0  0  0  0
    4.9005   60.2409   71.6453 H   0  0  0  0  0  0  0  0  0  0  0  0
    0.9734   60.2264   76.8021 H   0  0  0  0  0  0  0  0  0  0  0  0
    0.2174   62.4217   77.7097 H   0  0  0  0  0  0  0  0  0  0  0  0
   -2.9651   62.5474   74.7943 H   0  0  0  0  0  0  0  0  0  0  0  0
  2  1  2  0
  3  2  1  0
  4  3  1  0
  5  4  1  0
  6  5  2  0
  7  6  1  0
  8  7  2  0
  9  7  1  0
  9  3  2  0
 10  9  1  0
 11 10  2  0
 11  1  1  0
 12 11  1  0
 14 13  1  0
 15 14  1  0
 16 15  1  0
 17 16  1  0
 18 17  1  0
 18  1  1  0
 19 18  1  0
 19 14  1  0
 20  4  1  0
 21 20  2  0
 22 21  1  0
 23 22  2  0
 24 23  1  0
 25 24  2  0
 25 20  1  0
 26 25  1  0
 27 23  1  0
 28  6  1  0
 29 28  2  0
 30 28  1  0
  2 31  1  0
  5 32  1  0
 10 33  1  0
 13 34  1  0
 13 35  1  0
 13 36  1  0
 14 37  1  6
 15 38  1  0
 15 39  1  0
 16 40  1  0
 16 41  1  0
 17 42  1  0
 17 43  1  0
 19 44  1  0
 19 45  1  0
 21 46  1  0
 22 47  1  0
 24 48  1  0
M  CHG  2  15   1  30  -1
M  END
>  <score>  (6) 
-7.758

$$$$
=
     RDKit          3D

 48 51  0  0  0  0  0  0  0  0999 V2000
   -0.1580   61.1530   75.4200 C   0  0  0  0  0  0  0  0  0  0  0  0
    0.4630   61.5650   74.2300 C   0  0  0  0  0  0  0  0  0  0  0  0
    1.1410   60.6720   73.3720 C   0  0  0  0  0  0  0  0  0  0  0  0
    1.7600   61.1010   72.1480 N   0  0  0  0  0  0  0  0  0  0  0  0
    2.4480   60.1340   71.4190 C   0  0  0  0  0  0  0  0  0  0  0  0
    2.6020   58.8440   71.7380 C   0  0  0  0  0  0  0  0  0  0  0  0
    2.0140   58.3460   72.9820 C   0  0  0  0  0  0  0  0  0  0  0  0
    2.1570   57.2080   73.4110 O   0  0  0  0  0  0  0  0  0  0  0  0
    1.2350   59.3250   73.7800 C   0  0  0  0  0  0  0  0  0  0  0  0
    0.6300   58.8820   74.9600 C   0  0  0  0  0  0  0  0  0  0  0  0
   -0.0620   59.7870   75.7490 C   0  0  0  0  0  0  0  0  0  0  0  0
   -0.6850   59.3270   76.8490 F   0  0  0  0  0  0  0  0  0  0  0  0
   -3.3840   64.3930   77.0620 C   0  0  0  0  0  0  0  0  0  0  0  0
   -2.9990   62.9240   77.1650 C   0  0  2  0  0  0  0  0  0  0  0  0
   -2.1120   62.7120   78.3790 N   0  0  0  0  0  4  0  0  0  0  0  0
   -0.7420   63.3530   78.2950 C   0  0  0  0  0  0  0  0  0  0  0  0
   -0.1190   63.0960   76.9070 C   0  0  0  0  0  0  0  0  0  0  0  0
   -0.8840   62.0280   76.2300 N   0  0  0  0  0  0  0  0  0  0  0  0
   -2.2780   62.3800   75.8940 C   0  0  0  0  0  0  0  0  0  0  0  0
    1.6710   62.4170   71.5870 C   0  0  0  0  0  0  0  0  0  0  0  0
    2.8480   63.1230   71.2650 C   0  0  0  0  0  0  0  0  0  0  0  0
    2.7880   64.4000   70.7000 C   0  0  0  0  0  0  0  0  0  0  0  0
    1.5510   64.9790   70.4440 C   0  0  0  0  0  0  0  0  0  0  0  0
    0.3740   64.3080   70.7390 C   0  0  0  0  0  0  0  0  0  0  0  0
    0.4400   63.0370   71.3040 C   0  0  0  0  0  0  0  0  0  0  0  0
   -0.7190   62.4150   71.5760 F   0  0  0  0  0  0  0  0  0  0  0  0
    1.4940   66.2060   69.9110 F   0  0  0  0  0  0  0  0  0  0  0  0
    3.3590   57.9660   70.7740 C   0  0  0  0  0  0  0  0  0  0  0  0
    3.2790   56.7250   71.0200 O   0  0  0  0  0  0  0  0  0  0  0  0
    4.0630   58.5730   69.9210 O   0  0  0  0  0  1  0  0  0  0  0  0
    0.4194   62.6290   73.9544 H   0  0  0  0  0  0  0  0  0  0  0  0
    2.9148   60.4667   70.4802 H   0  0  0  0  0  0  0  0  0  0  0  0
    0.7025   57.8259   75.2591 H   0  0  0  0  0  0  0  0  0  0  0  0
   -3.4945   64.8148   78.0719 H   0  0  0  0  0  0  0  0  0  0  0  0
   -2.5990   64.9406   76.5198 H   0  0  0  0  0  0  0  0  0  0  0  0
   -4.3367   64.4852   76.5198 H   0  0  0  0  0  0  0  0  0  0  0  0
   -3.9382   62.3600   77.2636 H   0  0  0  0  0  0  0  0  0  0  0  0
   -2.5966   63.1018   79.2000 H   0  0  0  0  0  0  0  0  0  0  0  0
   -1.9498   61.6968   78.4414 H   0  0  0  0  0  0  0  0  0  0  0  0
   -0.8373   64.4370   78.4557 H   0  0  0  0  0  0  0  0  0  0  0  0
   -0.0924   62.9152   79.0672 H   0  0  0  0  0  0  0  0  0  0  0  0
   -0.1606   64.0171   76.3072 H   0  0  0  0  0  0  0  0  0  0  0  0
    0.9309   62.7881   77.0206 H   0  0  0  0  0  0  0  0  0  0  0  0
   -2.2823   63.1529   75.1113 H   0  0  0  0  0  0  0  0  0  0  0  0
   -2.8039   61.4852   75.5296 H   0  0  0  0  0  0  0  0  0  0  0  0
    3.8274   62.6623   71.4612 H   0  0  0  0  0  0  0  0  0  0  0  0
    3.7139   64.9431   70.4596 H   0  0  0  0  0  0  0  0  0  0  0  0
   -0.6001   64.7741   70.5293 H   0  0  0  0  0  0  0  0  0  0  0  0
  2  1  2  0
  3  2  1  0
  4  3  1  0
  5  4  1  0
  6  5  2  0
  7  6  1  0
  8  7  2  0
  9  7  1  0
  9  3  2  0
 10  9  1  0
 11 10  2  0
 11  1  1  0
 12 11  1  0
 14 13  1  0
 15 14  1  0
 16 15  1  0
 17 16  1  0
 18 17  1  0
 18  1  1  0
 19 18  1  0
 19 14  1  0
 20  4  1  0
 21 20  2  0
 22 21  1  0
 23 22  2  0
 24 23  1  0
 25 24  2  0
 25 20  1  0
 26 25  1  0
 27 23  1  0
 28  6  1  0
 29 28  2  0
 30 28  1  0
  2 31  1  0
  5 32  1  0
 10 33  1  0
 13 34  1  0
 13 35  1  0
 13 36  1  0
 14 37  1  1
 15 38  1  0
 15 39  1  0
 16 40  1  0
 16 41  1  0
 17 42  1  0
 17 43  1  0
 19 44  1  0
 19 45  1  0
 21 46  1  0
 22 47  1  0
 24 48  1  0
M  CHG  2  15   1  30  -1
M  END
>  <score>  (7) 
-7.443

$$$$
=
     RDKit          3D

 48 51  0  0  0  0  0  0  0  0999 V2000
    1.4260   61.9180   72.5510 C   0  0  0  0  0  0  0  0  0  0  0  0
    1.1180   60.7290   73.2330 C   0  0  0  0  0  0  0  0  0  0  0  0
    0.0870   60.6440   74.1930 C   0  0  0  0  0  0  0  0  0  0  0  0
   -0.2320   59.4190   74.8740 N   0  0  0  0  0  0  0  0  0  0  0  0
   -1.2320   59.4780   75.8410 C   0  0  0  0  0  0  0  0  0  0  0  0
   -1.9280   60.5590   76.2130 C   0  0  0  0  0  0  0  0  0  0  0  0
   -1.6400   61.8430   75.5740 C   0  0  0  0  0  0  0  0  0  0  0  0
   -2.1580   62.9070   75.8880 O   0  0  0  0  0  0  0  0  0  0  0  0
   -0.6100   61.8300   74.5060 C   0  0  0  0  0  0  0  0  0  0  0  0
   -0.3260   63.0310   73.8480 C   0  0  0  0  0  0  0  0  0  0  0  0
    0.6660   63.0570   72.8810 C   0  0  0  0  0  0  0  0  0  0  0  0
    0.8810   64.2080   72.2200 F   0  0  0  0  0  0  0  0  0  0  0  0
    3.7610   62.6370   68.3520 C   0  0  0  0  0  0  0  0  0  0  0  0
    3.6640   63.1630   69.7770 C   0  0  2  0  0  0  0  0  0  0  0  0
    4.7380   62.5170   70.6340 N   0  0  0  0  0  4  0  0  0  0  0  0
    4.5640   61.0320   70.8740 C   0  0  0  0  0  0  0  0  0  0  0  0
    3.0940   60.7180   71.2220 C   0  0  0  0  0  0  0  0  0  0  0  0
    2.4010   61.9800   71.5550 N   0  0  0  0  0  0  0  0  0  0  0  0
    2.2680   62.9290   70.4320 C   0  0  0  0  0  0  0  0  0  0  0  0
    0.3460   58.1370   74.5940 C   0  0  0  0  0  0  0  0  0  0  0  0
   -0.3470   57.2170   73.7810 C   0  0  0  0  0  0  0  0  0  0  0  0
    0.2030   55.9700   73.4780 C   0  0  0  0  0  0  0  0  0  0  0  0
    1.4550   55.6320   73.9780 C   0  0  0  0  0  0  0  0  0  0  0  0
    2.1680   56.5170   74.7730 C   0  0  0  0  0  0  0  0  0  0  0  0
    1.6140   57.7580   75.0730 C   0  0  0  0  0  0  0  0  0  0  0  0
    2.3320   58.5920   75.8430 F   0  0  0  0  0  0  0  0  0  0  0  0
    1.9780   54.4330   73.6950 F   0  0  0  0  0  0  0  0  0  0  0  0
   -2.9970   60.3810   77.2620 C   0  0  0  0  0  0  0  0  0  0  0  0
   -4.1620   60.2030   76.7990 O   0  0  0  0  0  0  0  0  0  0  0  0
   -2.6210   60.5440   78.4560 O   0  0  0  0  0  1  0  0  0  0  0  0
    1.7052   59.8262   73.0093 H   0  0  0  0  0  0  0  0  0  0  0  0
   -1.4760   58.5359   76.3538 H   0  0  0  0  0  0  0  0  0  0  0  0
   -0.8845   63.9457   74.0957 H   0  0  0  0  0  0  0  0  0  0  0  0
    3.9605   61.5554   68.3732 H   0  0  0  0  0  0  0  0  0  0  0  0
    2.8131   62.8248   67.8265 H   0  0  0  0  0  0  0  0  0  0  0  0
    4.5796   63.1506   67.8265 H   0  0  0  0  0  0  0  0  0  0  0  0
    3.8105   64.2517   69.7200 H   0  0  0  0  0  0  0  0  0  0  0  0
    5.6459   62.6605   70.1691 H   0  0  0  0  0  0  0  0  0  0  0  0
    4.6742   62.9657   71.5590 H   0  0  0  0  0  0  0  0  0  0  0  0
    4.8481   60.4812   69.9652 H   0  0  0  0  0  0  0  0  0  0  0  0
    5.2052   60.7262   71.7138 H   0  0  0  0  0  0  0  0  0  0  0  0
    2.6034   60.2439   70.3591 H   0  0  0  0  0  0  0  0  0  0  0  0
    3.0526   60.0321   72.0810 H   0  0  0  0  0  0  0  0  0  0  0  0
    1.5768   62.5153   69.6829 H   0  0  0  0  0  0  0  0  0  0  0  0
    1.8751   63.8857   70.8066 H   0  0  0  0  0  0  0  0  0  0  0  0
   -1.3353   57.4855   73.3796 H   0  0  0  0  0  0  0  0  0  0  0  0
   -0.3512   55.2593   72.8473 H   0  0  0  0  0  0  0  0  0  0  0  0
    3.1594   56.2414   75.1617 H   0  0  0  0  0  0  0  0  0  0  0  0
  2  1  2  0
  3  2  1  0
  4  3  1  0
  5  4  1  0
  6  5  2  0
  7  6  1  0
  8  7  2  0
  9  7  1  0
  9  3  2  0
 10  9  1  0
 11 10  2  0
 11  1  1  0
 12 11  1  0
 14 13  1  0
 15 14  1  0
 16 15  1  0
 17 16  1  0
 18 17  1  0
 18  1  1  0
 19 18  1  0
 19 14  1  0
 20  4  1  0
 21 20  2  0
 22 21  1  0
 23 22  2  0
 24 23  1  0
 25 24  2  0
 25 20  1  0
 26 25  1  0
 27 23  1  0
 28  6  1  0
 29 28  2  0
 30 28  1  0
  2 31  1  0
  5 32  1  0
 10 33  1  0
 13 34  1  0
 13 35  1  0
 13 36  1  0
 14 37  1  6
 15 38  1  0
 15 39  1  0
 16 40  1  0
 16 41  1  0
 17 42  1  0
 17 43  1  0
 19 44  1  0
 19 45  1  0
 21 46  1  0
 22 47  1  0
 24 48  1  0
M  CHG  2  15   1  30  -1
M  END
>  <score>  (8) 
-7.031

$$$$
=
     RDKit          3D

 48 51  0  0  0  0  0  0  0  0999 V2000
    2.0110   62.4560   73.1100 C   0  0  0  0  0  0  0  0  0  0  0  0
    1.9770   61.8550   74.3790 C   0  0  0  0  0  0  0  0  0  0  0  0
    1.0480   62.2270   75.3760 C   0  0  0  0  0  0  0  0  0  0  0  0
    1.0100   61.5950   76.6660 N   0  0  0  0  0  0  0  0  0  0  0  0
    0.0860   62.0920   77.5830 C   0  0  0  0  0  0  0  0  0  0  0  0
   -0.7700   63.1030   77.3950 C   0  0  0  0  0  0  0  0  0  0  0  0
   -0.7700   63.8030   76.1100 C   0  0  0  0  0  0  0  0  0  0  0  0
   -1.4520   64.7870   75.8550 O   0  0  0  0  0  0  0  0  0  0  0  0
    0.1680   63.2890   75.0800 C   0  0  0  0  0  0  0  0  0  0  0  0
    0.1790   63.9100   73.8280 C   0  0  0  0  0  0  0  0  0  0  0  0
    1.0780   63.4830   72.8650 C   0  0  0  0  0  0  0  0  0  0  0  0
    1.0300   64.0550   71.6490 F   0  0  0  0  0  0  0  0  0  0  0  0
    4.0220   60.1240   69.3520 C   0  0  0  0  0  0  0  0  0  0  0  0
    3.4320   61.4680   69.7550 C   0  0  2  0  0  0  0  0  0  0  0  0
    4.5450   62.4090   70.1810 N   0  0  0  0  0  4  0  0  0  0  0  0
    5.2570   62.0240   71.4610 C   0  0  0  0  0  0  0  0  0  0  0  0
    4.2320   61.6050   72.5350 C   0  0  0  0  0  0  0  0  0  0  0  0
    2.8860   62.0380   72.1060 N   0  0  0  0  0  0  0  0  0  0  0  0
    2.3740   61.3660   70.8960 C   0  0  0  0  0  0  0  0  0  0  0  0
    1.7940   60.4620   77.0610 C   0  0  0  0  0  0  0  0  0  0  0  0
    2.8900   60.6340   77.9300 C   0  0  0  0  0  0  0  0  0  0  0  0
    3.6570   59.5430   78.3450 C   0  0  0  0  0  0  0  0  0  0  0  0
    3.3300   58.2670   77.9020 C   0  0  0  0  0  0  0  0  0  0  0  0
    2.2530   58.0600   77.0540 C   0  0  0  0  0  0  0  0  0  0  0  0
    1.4930   59.1520   76.6430 C   0  0  0  0  0  0  0  0  0  0  0  0
    0.4550   58.9160   75.8240 F   0  0  0  0  0  0  0  0  0  0  0  0
    4.0710   57.2220   78.2920 F   0  0  0  0  0  0  0  0  0  0  0  0
   -1.7110   63.4470   78.5210 C   0  0  0  0  0  0  0  0  0  0  0  0
   -2.9170   63.1180   78.3160 O   0  0  0  0  0  0  0  0  0  0  0  0
   -1.2080   64.1130   79.4670 O   0  0  0  0  0  1  0  0  0  0  0  0
    2.7042   61.0615   74.6060 H   0  0  0  0  0  0  0  0  0  0  0  0
    0.0573   61.6006   78.5667 H   0  0  0  0  0  0  0  0  0  0  0  0
   -0.5202   64.7306   73.6094 H   0  0  0  0  0  0  0  0  0  0  0  0
    4.2745   59.5488   70.2550 H   0  0  0  0  0  0  0  0  0  0  0  0
    3.2865   59.5649   68.7549 H   0  0  0  0  0  0  0  0  0  0  0  0
    4.9313   60.2870   68.7549 H   0  0  0  0  0  0  0  0  0  0  0  0
    2.9083   61.8574   68.8695 H   0  0  0  0  0  0  0  0  0  0  0  0
    5.2433   62.4404   69.4245 H   0  0  0  0  0  0  0  0  0  0  0  0
    4.0974   63.3184   70.3641 H   0  0  0  0  0  0  0  0  0  0  0  0
    5.9369   61.1830   71.2598 H   0  0  0  0  0  0  0  0  0  0  0  0
    5.8285   62.8892   71.8282 H   0  0  0  0  0  0  0  0  0  0  0  0
    4.2478   60.5116   72.6540 H   0  0  0  0  0  0  0  0  0  0  0  0
    4.4861   62.0750   73.4965 H   0  0  0  0  0  0  0  0  0  0  0  0
    2.1781   60.3071   71.1203 H   0  0  0  0  0  0  0  0  0  0  0  0
    1.4413   61.8524   70.5745 H   0  0  0  0  0  0  0  0  0  0  0  0
    3.1453   61.6427   78.2869 H   0  0  0  0  0  0  0  0  0  0  0  0
    4.5141   59.6927   79.0180 H   0  0  0  0  0  0  0  0  0  0  0  0
    2.0019   57.0458   76.7101 H   0  0  0  0  0  0  0  0  0  0  0  0
  2  1  2  0
  3  2  1  0
  4  3  1  0
  5  4  1  0
  6  5  2  0
  7  6  1  0
  8  7  2  0
  9  7  1  0
  9  3  2  0
 10  9  1  0
 11 10  2  0
 11  1  1  0
 12 11  1  0
 14 13  1  0
 15 14  1  0
 16 15  1  0
 17 16  1  0
 18 17  1  0
 18  1  1  0
 19 18  1  0
 19 14  1  0
 20  4  1  0
 21 20  2  0
 22 21  1  0
 23 22  2  0
 24 23  1  0
 25 24  2  0
 25 20  1  0
 26 25  1  0
 27 23  1  0
 28  6  1  0
 29 28  2  0
 30 28  1  0
  2 31  1  0
  5 32  1  0
 10 33  1  0
 13 34  1  0
 13 35  1  0
 13 36  1  0
 14 37  1  6
 15 38  1  0
 15 39  1  0
 16 40  1  0
 16 41  1  0
 17 42  1  0
 17 43  1  0
 19 44  1  0
 19 45  1  0
 21 46  1  0
 22 47  1  0
 24 48  1  0
M  CHG  2  15   1  30  -1
M  END
>  <score>  (9) 
-6.917

$$$$
