=
     RDKit          3D

 36 37  0  0  0  0  0  0  0  0999 V2000
    3.7380   67.8450   65.0260 C   0  0  1  0  0  0  0  0  0  0  0  0
    2.2710   67.9740   65.4000 C   0  0  0  0  0  0  0  0  0  0  0  0
    1.7990   67.4400   66.6020 C   0  0  0  0  0  0  0  0  0  0  0  0
    0.4440   67.5400   66.9560 C   0  0  0  0  0  0  0  0  0  0  0  0
   -0.5080   68.1530   66.1250 C   0  0  0  0  0  0  0  0  0  0  0  0
   -0.0120   68.6800   64.9210 C   0  0  0  0  0  0  0  0  0  0  0  0
    1.3400   68.5860   64.5570 C   0  0  0  0  0  0  0  0  0  0  0  0
   -1.8550   68.2680   66.4910 N   0  0  0  0  0  0  0  0  0  0  0  0
   -2.8020   68.8300   65.5290 C   0  0  0  0  0  0  0  0  0  0  0  0
   -2.4170   67.3120   67.4430 C   0  0  0  0  0  0  0  0  0  0  0  0
    3.9210   67.2400   63.7480 O   0  0  0  0  0  0  0  0  0  0  0  0
    4.5210   69.1640   65.1180 C   0  0  0  0  0  0  0  0  0  0  0  0
    4.8360   69.7730   64.0920 O   0  0  0  0  0  0  0  0  0  0  0  0
    4.9020   69.7420   66.4450 C   0  0  0  0  0  0  0  0  0  0  0  0
    3.9780   69.9780   67.4690 C   0  0  0  0  0  0  0  0  0  0  0  0
    4.4000   70.5190   68.6880 C   0  0  0  0  0  0  0  0  0  0  0  0
    5.7420   70.8320   68.8900 C   0  0  0  0  0  0  0  0  0  0  0  0
    6.6690   70.6090   67.8750 C   0  0  0  0  0  0  0  0  0  0  0  0
    6.2500   70.0680   66.6570 C   0  0  0  0  0  0  0  0  0  0  0  0
    4.1612   67.1747   65.7886 H   0  0  0  0  0  0  0  0  0  0  0  0
    2.5001   66.9333   67.2815 H   0  0  0  0  0  0  0  0  0  0  0  0
    0.1160   67.1229   67.9196 H   0  0  0  0  0  0  0  0  0  0  0  0
   -0.7100   69.1856   64.2375 H   0  0  0  0  0  0  0  0  0  0  0  0
    1.6717   69.0004   63.5935 H   0  0  0  0  0  0  0  0  0  0  0  0
   -3.6262   69.3191   66.0688 H   0  0  0  0  0  0  0  0  0  0  0  0
   -2.2877   69.5692   64.8972 H   0  0  0  0  0  0  0  0  0  0  0  0
   -3.2045   68.0244   64.8972 H   0  0  0  0  0  0  0  0  0  0  0  0
   -2.2156   67.6545   68.4687 H   0  0  0  0  0  0  0  0  0  0  0  0
   -3.5034   67.2361   67.2884 H   0  0  0  0  0  0  0  0  0  0  0  0
   -1.9549   66.3258   67.2884 H   0  0  0  0  0  0  0  0  0  0  0  0
    4.2056   66.2992   63.8660 H   0  0  0  0  0  0  0  0  0  0  0  0
    2.9158   69.7372   67.3148 H   0  0  0  0  0  0  0  0  0  0  0  0
    3.6690   70.6979   69.4903 H   0  0  0  0  0  0  0  0  0  0  0  0
    6.0696   71.2552   69.8510 H   0  0  0  0  0  0  0  0  0  0  0  0
    7.7288   70.8583   68.0319 H   0  0  0  0  0  0  0  0  0  0  0  0
    6.9843   69.8959   65.8562 H   0  0  0  0  0  0  0  0  0  0  0  0
  2  1  1  0
  3  2  2  0
  4  3  1  0
  5  4  2  0
  6  5  1  0
  7  6  2  0
  7  2  1  0
  8  5  1  0
  9  8  1  0
 10  8  1  0
 11  1  1  0
 12  1  1  0
 13 12  2  0
 14 12  1  0
 15 14  2  0
 16 15  1  0
 17 16  2  0
 18 17  1  0
 19 14  1  0
 19 18  2  0
  1 20  1  1
  3 21  1  0
  4 22  1  0
  6 23  1  0
  7 24  1  0
  9 25  1  0
  9 26  1  0
  9 27  1  0
 10 28  1  0
 10 29  1  0
 10 30  1  0
 11 31  1  0
 15 32  1  0
 16 33  1  0
 17 34  1  0
 18 35  1  0
 19 36  1  0
M  END
>  <score>  (1) 
-9.019

$$$$
=
     RDKit          3D

 36 37  0  0  0  0  0  0  0  0999 V2000
    4.5200   69.0530   63.1560 C   0  0  1  0  0  0  0  0  0  0  0  0
    4.6960   69.4180   64.6190 C   0  0  0  0  0  0  0  0  0  0  0  0
    5.9570   69.7620   65.1140 C   0  0  0  0  0  0  0  0  0  0  0  0
    6.1380   70.0900   66.4670 C   0  0  0  0  0  0  0  0  0  0  0  0
    5.0850   70.0690   67.3950 C   0  0  0  0  0  0  0  0  0  0  0  0
    3.8280   69.7160   66.8770 C   0  0  0  0  0  0  0  0  0  0  0  0
    3.6340   69.3870   65.5260 C   0  0  0  0  0  0  0  0  0  0  0  0
    5.2670   70.4140   68.7400 N   0  0  0  0  0  0  0  0  0  0  0  0
    6.5590   70.9510   69.1630 C   0  0  0  0  0  0  0  0  0  0  0  0
    4.1140   70.8600   69.5200 C   0  0  0  0  0  0  0  0  0  0  0  0
    5.7560   68.7250   62.5240 O   0  0  0  0  0  0  0  0  0  0  0  0
    3.4790   67.9480   62.9120 C   0  0  0  0  0  0  0  0  0  0  0  0
    2.5230   68.1500   62.1580 O   0  0  0  0  0  0  0  0  0  0  0  0
    3.6110   66.6090   63.5670 C   0  0  0  0  0  0  0  0  0  0  0  0
    2.8480   66.2200   64.6730 C   0  0  0  0  0  0  0  0  0  0  0  0
    3.0190   64.9520   65.2370 C   0  0  0  0  0  0  0  0  0  0  0  0
    3.9550   64.0680   64.7060 C   0  0  0  0  0  0  0  0  0  0  0  0
    4.7260   64.4470   63.6100 C   0  0  0  0  0  0  0  0  0  0  0  0
    4.5570   65.7130   63.0440 C   0  0  0  0  0  0  0  0  0  0  0  0
    4.1257   69.9674   62.6886 H   0  0  0  0  0  0  0  0  0  0  0  0
    6.8208   69.7760   64.4331 H   0  0  0  0  0  0  0  0  0  0  0  0
    7.1428   70.3741   66.8129 H   0  0  0  0  0  0  0  0  0  0  0  0
    2.9626   69.6966   67.5557 H   0  0  0  0  0  0  0  0  0  0  0  0
    2.6311   69.1006   65.1766 H   0  0  0  0  0  0  0  0  0  0  0  0
    6.6060   70.9705   70.2618 H   0  0  0  0  0  0  0  0  0  0  0  0
    7.3664   70.3139   68.7728 H   0  0  0  0  0  0  0  0  0  0  0  0
    6.6770   71.9727   68.7728 H   0  0  0  0  0  0  0  0  0  0  0  0
    4.3409   70.7722   70.5928 H   0  0  0  0  0  0  0  0  0  0  0  0
    3.8907   71.9094   69.2771 H   0  0  0  0  0  0  0  0  0  0  0  0
    3.2427   70.2340   69.2771 H   0  0  0  0  0  0  0  0  0  0  0  0
    6.4417   68.5430   63.2146 H   0  0  0  0  0  0  0  0  0  0  0  0
    2.1102   66.9147   65.1009 H   0  0  0  0  0  0  0  0  0  0  0  0
    2.4118   64.6515   66.1036 H   0  0  0  0  0  0  0  0  0  0  0  0
    4.0852   63.0710   65.1521 H   0  0  0  0  0  0  0  0  0  0  0  0
    5.4670   63.7506   63.1906 H   0  0  0  0  0  0  0  0  0  0  0  0
    5.1706   66.0105   62.1809 H   0  0  0  0  0  0  0  0  0  0  0  0
  2  1  1  0
  3  2  2  0
  4  3  1  0
  5  4  2  0
  6  5  1  0
  7  6  2  0
  7  2  1  0
  8  5  1  0
  9  8  1  0
 10  8  1  0
 11  1  1  0
 12  1  1  0
 13 12  2  0
 14 12  1  0
 15 14  2  0
 16 15  1  0
 17 16  2  0
 18 17  1  0
 19 14  1  0
 19 18  2  0
  1 20  1  6
  3 21  1  0
  4 22  1  0
  6 23  1  0
  7 24  1  0
  9 25  1  0
  9 26  1  0
  9 27  1  0
 10 28  1  0
 10 29  1  0
 10 30  1  0
 11 31  1  0
 15 32  1  0
 16 33  1  0
 17 34  1  0
 18 35  1  0
 19 36  1  0
M  END
>  <score>  (2) 
-8.609

$$$$
=
     RDKit          3D

 36 37  0  0  0  0  0  0  0  0999 V2000
    4.6690   68.9140   63.1560 C   0  0  1  0  0  0  0  0  0  0  0  0
    4.8550   69.4090   64.5790 C   0  0  0  0  0  0  0  0  0  0  0  0
    6.0580   70.0060   64.9680 C   0  0  0  0  0  0  0  0  0  0  0  0
    6.2490   70.4580   66.2840 C   0  0  0  0  0  0  0  0  0  0  0  0
    5.2680   70.3170   67.2790 C   0  0  0  0  0  0  0  0  0  0  0  0
    4.0700   69.7120   66.8670 C   0  0  0  0  0  0  0  0  0  0  0  0
    3.8660   69.2570   65.5540 C   0  0  0  0  0  0  0  0  0  0  0  0
    5.4560   70.7860   68.5850 N   0  0  0  0  0  0  0  0  0  0  0  0
    4.3940   70.5820   69.5680 C   0  0  0  0  0  0  0  0  0  0  0  0
    6.8120   70.8530   69.1270 C   0  0  0  0  0  0  0  0  0  0  0  0
    5.8550   68.3260   62.6260 O   0  0  0  0  0  0  0  0  0  0  0  0
    3.4710   67.9680   62.9780 C   0  0  0  0  0  0  0  0  0  0  0  0
    3.6360   66.7450   63.0020 O   0  0  0  0  0  0  0  0  0  0  0  0
    2.0870   68.5060   62.7910 C   0  0  0  0  0  0  0  0  0  0  0  0
    1.0890   68.4040   63.7660 C   0  0  0  0  0  0  0  0  0  0  0  0
   -0.1850   68.9310   63.5280 C   0  0  0  0  0  0  0  0  0  0  0  0
   -0.4720   69.5550   62.3170 C   0  0  0  0  0  0  0  0  0  0  0  0
    0.5120   69.6550   61.3360 C   0  0  0  0  0  0  0  0  0  0  0  0
    1.7850   69.1310   61.5710 C   0  0  0  0  0  0  0  0  0  0  0  0
    4.4433   69.8204   62.5750 H   0  0  0  0  0  0  0  0  0  0  0  0
    6.8672   70.1235   64.2322 H   0  0  0  0  0  0  0  0  0  0  0  0
    7.2025   70.9404   66.5451 H   0  0  0  0  0  0  0  0  0  0  0  0
    3.2598   69.5896   67.6009 H   0  0  0  0  0  0  0  0  0  0  0  0
    2.9138   68.7740   65.2895 H   0  0  0  0  0  0  0  0  0  0  0  0
    4.8126   70.6624   70.5821 H   0  0  0  0  0  0  0  0  0  0  0  0
    3.6156   71.3470   69.4309 H   0  0  0  0  0  0  0  0  0  0  0  0
    3.9544   69.5830   69.4309 H   0  0  0  0  0  0  0  0  0  0  0  0
    6.7681   70.8508   70.2261 H   0  0  0  0  0  0  0  0  0  0  0  0
    7.3885   69.9822   68.7814 H   0  0  0  0  0  0  0  0  0  0  0  0
    7.2998   71.7763   68.7814 H   0  0  0  0  0  0  0  0  0  0  0  0
    6.4403   68.0358   63.3699 H   0  0  0  0  0  0  0  0  0  0  0  0
    1.3067   67.9077   64.7232 H   0  0  0  0  0  0  0  0  0  0  0  0
   -0.9634   68.8520   64.3012 H   0  0  0  0  0  0  0  0  0  0  0  0
   -1.4749   69.9687   62.1350 H   0  0  0  0  0  0  0  0  0  0  0  0
    0.2867   70.1459   60.3778 H   0  0  0  0  0  0  0  0  0  0  0  0
    2.5584   69.2088   60.7926 H   0  0  0  0  0  0  0  0  0  0  0  0
  2  1  1  0
  3  2  2  0
  4  3  1  0
  5  4  2  0
  6  5  1  0
  7  6  2  0
  7  2  1  0
  8  5  1  0
  9  8  1  0
 10  8  1  0
 11  1  1  0
 12  1  1  0
 13 12  2  0
 14 12  1  0
 15 14  2  0
 16 15  1  0
 17 16  2  0
 18 17  1  0
 19 14  1  0
 19 18  2  0
  1 20  1  6
  3 21  1  0
  4 22  1  0
  6 23  1  0
  7 24  1  0
  9 25  1  0
  9 26  1  0
  9 27  1  0
 10 28  1  0
 10 29  1  0
 10 30  1  0
 11 31  1  0
 15 32  1  0
 16 33  1  0
 17 34  1  0
 18 35  1  0
 19 36  1  0
M  END
>  <score>  (3) 
-8.5

$$$$
=
     RDKit          3D

 36 37  0  0  0  0  0  0  0  0999 V2000
    2.1490   69.2450   68.0790 C   0  0  1  0  0  0  0  0  0  0  0  0
    2.7310   69.1560   66.6790 C   0  0  0  0  0  0  0  0  0  0  0  0
    4.0470   69.5610   66.4340 C   0  0  0  0  0  0  0  0  0  0  0  0
    4.5950   69.4960   65.1430 C   0  0  0  0  0  0  0  0  0  0  0  0
    3.8590   69.0500   64.0330 C   0  0  0  0  0  0  0  0  0  0  0  0
    2.5400   68.6520   64.3020 C   0  0  0  0  0  0  0  0  0  0  0  0
    1.9800   68.7110   65.5880 C   0  0  0  0  0  0  0  0  0  0  0  0
    4.4160   68.9690   62.7510 N   0  0  0  0  0  0  0  0  0  0  0  0
    5.8680   68.8620   62.6170 C   0  0  0  0  0  0  0  0  0  0  0  0
    3.6380   68.3580   61.6760 C   0  0  0  0  0  0  0  0  0  0  0  0
    1.6030   70.5320   68.3590 O   0  0  0  0  0  0  0  0  0  0  0  0
    1.1250   68.1430   68.3970 C   0  0  0  0  0  0  0  0  0  0  0  0
    1.3990   67.2570   69.2110 O   0  0  0  0  0  0  0  0  0  0  0  0
   -0.2200   68.1300   67.7420 C   0  0  0  0  0  0  0  0  0  0  0  0
   -0.7270   69.2140   67.0160 C   0  0  0  0  0  0  0  0  0  0  0  0
   -1.9930   69.1360   66.4260 C   0  0  0  0  0  0  0  0  0  0  0  0
   -2.7620   67.9830   66.5620 C   0  0  0  0  0  0  0  0  0  0  0  0
   -2.2710   66.9020   67.2890 C   0  0  0  0  0  0  0  0  0  0  0  0
   -1.0070   66.9760   67.8790 C   0  0  0  0  0  0  0  0  0  0  0  0
    3.0071   69.0809   68.7474 H   0  0  0  0  0  0  0  0  0  0  0  0
    4.6620   69.9361   67.2653 H   0  0  0  0  0  0  0  0  0  0  0  0
    5.6400   69.8060   64.9953 H   0  0  0  0  0  0  0  0  0  0  0  0
    1.9209   68.2793   63.4726 H   0  0  0  0  0  0  0  0  0  0  0  0
    0.9350   68.4025   65.7389 H   0  0  0  0  0  0  0  0  0  0  0  0
    6.3269   68.8282   63.6161 H   0  0  0  0  0  0  0  0  0  0  0  0
    6.1187   67.9429   62.0670 H   0  0  0  0  0  0  0  0  0  0  0  0
    6.2507   69.7344   62.0670 H   0  0  0  0  0  0  0  0  0  0  0  0
    2.8426   67.7333   62.1085 H   0  0  0  0  0  0  0  0  0  0  0  0
    3.1881   69.1467   61.0551 H   0  0  0  0  0  0  0  0  0  0  0  0
    4.2976   67.7340   61.0551 H   0  0  0  0  0  0  0  0  0  0  0  0
    1.5482   70.6611   69.3390 H   0  0  0  0  0  0  0  0  0  0  0  0
   -0.1279   70.1303   66.9090 H   0  0  0  0  0  0  0  0  0  0  0  0
   -2.3829   69.9895   65.8519 H   0  0  0  0  0  0  0  0  0  0  0  0
   -3.7565   67.9264   66.0954 H   0  0  0  0  0  0  0  0  0  0  0  0
   -2.8775   65.9909   67.3987 H   0  0  0  0  0  0  0  0  0  0  0  0
   -0.6247   66.1215   68.4566 H   0  0  0  0  0  0  0  0  0  0  0  0
  2  1  1  0
  3  2  2  0
  4  3  1  0
  5  4  2  0
  6  5  1  0
  7  6  2  0
  7  2  1  0
  8  5  1  0
  9  8  1  0
 10  8  1  0
 11  1  1  0
 12  1  1  0
 13 12  2  0
 14 12  1  0
 15 14  2  0
 16 15  1  0
 17 16  2  0
 18 17  1  0
 19 14  1  0
 19 18  2  0
  1 20  1  1
  3 21  1  0
  4 22  1  0
  6 23  1  0
  7 24  1  0
  9 25  1  0
  9 26  1  0
  9 27  1  0
 10 28  1  0
 10 29  1  0
 10 30  1  0
 11 31  1  0
 15 32  1  0
 16 33  1  0
 17 34  1  0
 18 35  1  0
 19 36  1  0
M  END
>  <score>  (4) 
-8.237

$$$$
=
     RDKit          3D

 36 37  0  0  0  0  0  0  0  0999 V2000
    0.8220   68.5420   66.7850 C   0  0  1  0  0  0  0  0  0  0  0  0
    2.1830   69.1140   67.1430 C   0  0  0  0  0  0  0  0  0  0  0  0
    2.4030   69.6760   68.4040 C   0  0  0  0  0  0  0  0  0  0  0  0
    3.6520   70.2190   68.7460 C   0  0  0  0  0  0  0  0  0  0  0  0
    4.7300   70.2530   67.8480 C   0  0  0  0  0  0  0  0  0  0  0  0
    4.4860   69.6860   66.5860 C   0  0  0  0  0  0  0  0  0  0  0  0
    3.2420   69.1390   66.2320 C   0  0  0  0  0  0  0  0  0  0  0  0
    5.9800   70.7790   68.1990 N   0  0  0  0  0  0  0  0  0  0  0  0
    6.3640   70.8040   69.6090 C   0  0  0  0  0  0  0  0  0  0  0  0
    7.0840   70.6810   67.2470 C   0  0  0  0  0  0  0  0  0  0  0  0
   -0.1870   69.5470   66.7100 O   0  0  0  0  0  0  0  0  0  0  0  0
    0.8250   67.6840   65.5100 C   0  0  0  0  0  0  0  0  0  0  0  0
    0.8160   66.4520   65.5900 O   0  0  0  0  0  0  0  0  0  0  0  0
    0.8250   68.3190   64.1550 C   0  0  0  0  0  0  0  0  0  0  0  0
   -0.2680   69.0270   63.6430 C   0  0  0  0  0  0  0  0  0  0  0  0
   -0.2030   69.5980   62.3680 C   0  0  0  0  0  0  0  0  0  0  0  0
    0.9470   69.4620   61.5950 C   0  0  0  0  0  0  0  0  0  0  0  0
    2.0380   68.7520   62.0910 C   0  0  0  0  0  0  0  0  0  0  0  0
    1.9760   68.1810   63.3640 C   0  0  0  0  0  0  0  0  0  0  0  0
    0.5766   67.8677   67.6187 H   0  0  0  0  0  0  0  0  0  0  0  0
    1.5852   69.6931   69.1395 H   0  0  0  0  0  0  0  0  0  0  0  0
    3.7907   70.6332   69.7555 H   0  0  0  0  0  0  0  0  0  0  0  0
    5.3005   69.6699   65.8469 H   0  0  0  0  0  0  0  0  0  0  0  0
    3.0993   68.7243   65.2232 H   0  0  0  0  0  0  0  0  0  0  0  0
    5.4619   70.7453   70.2358 H   0  0  0  0  0  0  0  0  0  0  0  0
    7.0179   69.9465   69.8262 H   0  0  0  0  0  0  0  0  0  0  0  0
    6.9012   71.7390   69.8262 H   0  0  0  0  0  0  0  0  0  0  0  0
    8.0342   70.5967   67.7948 H   0  0  0  0  0  0  0  0  0  0  0  0
    6.9451   69.7917   66.6147 H   0  0  0  0  0  0  0  0  0  0  0  0
    7.1039   71.5809   66.6147 H   0  0  0  0  0  0  0  0  0  0  0  0
   -0.4553   69.8142   67.6247 H   0  0  0  0  0  0  0  0  0  0  0  0
   -1.1819   69.1349   64.2457 H   0  0  0  0  0  0  0  0  0  0  0  0
   -1.0645   70.1572   61.9740 H   0  0  0  0  0  0  0  0  0  0  0  0
    0.9940   69.9148   60.5936 H   0  0  0  0  0  0  0  0  0  0  0  0
    2.9467   68.6413   61.4811 H   0  0  0  0  0  0  0  0  0  0  0  0
    2.8380   67.6174   63.7505 H   0  0  0  0  0  0  0  0  0  0  0  0
  2  1  1  0
  3  2  2  0
  4  3  1  0
  5  4  2  0
  6  5  1  0
  7  6  2  0
  7  2  1  0
  8  5  1  0
  9  8  1  0
 10  8  1  0
 11  1  1  0
 12  1  1  0
 13 12  2  0
 14 12  1  0
 15 14  2  0
 16 15  1  0
 17 16  2  0
 18 17  1  0
 19 14  1  0
 19 18  2  0
  1 20  1  1
  3 21  1  0
  4 22  1  0
  6 23  1  0
  7 24  1  0
  9 25  1  0
  9 26  1  0
  9 27  1  0
 10 28  1  0
 10 29  1  0
 10 30  1  0
 11 31  1  0
 15 32  1  0
 16 33  1  0
 17 34  1  0
 18 35  1  0
 19 36  1  0
M  END
>  <score>  (5) 
-7.995

$$$$
=
     RDKit          3D

 36 37  0  0  0  0  0  0  0  0999 V2000
    1.9520   69.0900   68.0020 C   0  0  1  0  0  0  0  0  0  0  0  0
    2.6330   69.1040   66.6440 C   0  0  0  0  0  0  0  0  0  0  0  0
    1.9370   68.6980   65.5020 C   0  0  0  0  0  0  0  0  0  0  0  0
    2.5560   68.6940   64.2420 C   0  0  0  0  0  0  0  0  0  0  0  0
    3.8980   69.0670   64.0590 C   0  0  0  0  0  0  0  0  0  0  0  0
    4.5780   69.4670   65.2210 C   0  0  0  0  0  0  0  0  0  0  0  0
    3.9700   69.4770   66.4870 C   0  0  0  0  0  0  0  0  0  0  0  0
    4.5060   69.0790   62.7980 N   0  0  0  0  0  0  0  0  0  0  0  0
    5.9230   68.7350   62.6940 C   0  0  0  0  0  0  0  0  0  0  0  0
    3.6970   68.7810   61.6170 C   0  0  0  0  0  0  0  0  0  0  0  0
    1.2930   70.3210   68.2920 O   0  0  0  0  0  0  0  0  0  0  0  0
    0.9960   67.9040   68.2050 C   0  0  0  0  0  0  0  0  0  0  0  0
    1.3580   66.9180   68.8540 O   0  0  0  0  0  0  0  0  0  0  0  0
   -0.3880   67.9250   67.6380 C   0  0  0  0  0  0  0  0  0  0  0  0
   -1.3230   66.9100   67.8660 C   0  0  0  0  0  0  0  0  0  0  0  0
   -2.6030   66.9920   67.3080 C   0  0  0  0  0  0  0  0  0  0  0  0
   -2.9550   68.0820   66.5160 C   0  0  0  0  0  0  0  0  0  0  0  0
   -2.0290   69.0940   66.2750 C   0  0  0  0  0  0  0  0  0  0  0  0
   -0.7510   69.0150   66.8320 C   0  0  0  0  0  0  0  0  0  0  0  0
    2.7728   68.9601   68.7227 H   0  0  0  0  0  0  0  0  0  0  0  0
    0.8888   68.3769   65.5918 H   0  0  0  0  0  0  0  0  0  0  0  0
    1.9678   68.3871   63.3646 H   0  0  0  0  0  0  0  0  0  0  0  0
    5.6277   69.7848   65.1362 H   0  0  0  0  0  0  0  0  0  0  0  0
    4.5547   69.7828   67.3671 H   0  0  0  0  0  0  0  0  0  0  0  0
    6.3501   68.6313   63.7024 H   0  0  0  0  0  0  0  0  0  0  0  0
    6.0307   67.7846   62.1507 H   0  0  0  0  0  0  0  0  0  0  0  0
    6.4545   69.5302   62.1507 H   0  0  0  0  0  0  0  0  0  0  0  0
    2.7081   68.4167   61.9323 H   0  0  0  0  0  0  0  0  0  0  0  0
    3.5767   69.6938   61.0151 H   0  0  0  0  0  0  0  0  0  0  0  0
    4.1976   68.0083   61.0151 H   0  0  0  0  0  0  0  0  0  0  0  0
    1.2301   70.4385   69.2730 H   0  0  0  0  0  0  0  0  0  0  0  0
   -1.0506   66.0437   68.4867 H   0  0  0  0  0  0  0  0  0  0  0  0
   -3.3346   66.1922   67.4955 H   0  0  0  0  0  0  0  0  0  0  0  0
   -3.9635   68.1436   66.0811 H   0  0  0  0  0  0  0  0  0  0  0  0
   -2.3040   69.9541   65.6469 H   0  0  0  0  0  0  0  0  0  0  0  0
   -0.0216   69.8150   66.6371 H   0  0  0  0  0  0  0  0  0  0  0  0
  2  1  1  0
  3  2  2  0
  4  3  1  0
  5  4  2  0
  6  5  1  0
  7  6  2  0
  7  2  1  0
  8  5  1  0
  9  8  1  0
 10  8  1  0
 11  1  1  0
 12  1  1  0
 13 12  2  0
 14 12  1  0
 15 14  2  0
 16 15  1  0
 17 16  2  0
 18 17  1  0
 19 14  1  0
 19 18  2  0
  1 20  1  1
  3 21  1  0
  4 22  1  0
  6 23  1  0
  7 24  1  0
  9 25  1  0
  9 26  1  0
  9 27  1  0
 10 28  1  0
 10 29  1  0
 10 30  1  0
 11 31  1  0
 15 32  1  0
 16 33  1  0
 17 34  1  0
 18 35  1  0
 19 36  1  0
M  END
>  <score>  (6) 
-7.979

$$$$
=
     RDKit          3D

 36 37  0  0  0  0  0  0  0  0999 V2000
    1.1890   68.0260   65.9530 C   0  0  1  0  0  0  0  0  0  0  0  0
    2.3380   68.7720   66.6110 C   0  0  0  0  0  0  0  0  0  0  0  0
    2.2230   69.2230   67.9290 C   0  0  0  0  0  0  0  0  0  0  0  0
    3.2710   69.9250   68.5460 C   0  0  0  0  0  0  0  0  0  0  0  0
    4.4690   70.2300   67.8800 C   0  0  0  0  0  0  0  0  0  0  0  0
    4.5600   69.7700   66.5560 C   0  0  0  0  0  0  0  0  0  0  0  0
    3.5200   69.0670   65.9280 C   0  0  0  0  0  0  0  0  0  0  0  0
    5.5190   70.9130   68.5060 N   0  0  0  0  0  0  0  0  0  0  0  0
    5.8010   70.6380   69.9140 C   0  0  0  0  0  0  0  0  0  0  0  0
    6.6650   71.3400   67.7050 C   0  0  0  0  0  0  0  0  0  0  0  0
   -0.0260   68.7730   65.9730 O   0  0  0  0  0  0  0  0  0  0  0  0
    1.5000   67.5380   64.5290 C   0  0  0  0  0  0  0  0  0  0  0  0
    0.8430   67.9570   63.5720 O   0  0  0  0  0  0  0  0  0  0  0  0
    2.6070   66.5640   64.2740 C   0  0  0  0  0  0  0  0  0  0  0  0
    3.6090   66.7780   63.3210 C   0  0  0  0  0  0  0  0  0  0  0  0
    4.6180   65.8280   63.1340 C   0  0  0  0  0  0  0  0  0  0  0  0
    4.6300   64.6580   63.8890 C   0  0  0  0  0  0  0  0  0  0  0  0
    3.6330   64.4310   64.8340 C   0  0  0  0  0  0  0  0  0  0  0  0
    2.6240   65.3780   65.0240 C   0  0  0  0  0  0  0  0  0  0  0  0
    1.0515   67.1268   66.5715 H   0  0  0  0  0  0  0  0  0  0  0  0
    1.2983   69.0252   68.4909 H   0  0  0  0  0  0  0  0  0  0  0  0
    3.1489   70.2482   69.5903 H   0  0  0  0  0  0  0  0  0  0  0  0
    5.4818   69.9683   65.9894 H   0  0  0  0  0  0  0  0  0  0  0  0
    3.6376   68.7438   64.8831 H   0  0  0  0  0  0  0  0  0  0  0  0
    5.1567   71.2663   70.5465 H   0  0  0  0  0  0  0  0  0  0  0  0
    5.6022   69.5774   70.1274 H   0  0  0  0  0  0  0  0  0  0  0  0
    6.8563   70.8634   70.1274 H   0  0  0  0  0  0  0  0  0  0  0  0
    7.4849   71.6455   68.3717 H   0  0  0  0  0  0  0  0  0  0  0  0
    6.9998   70.5063   67.0703 H   0  0  0  0  0  0  0  0  0  0  0  0
    6.3726   72.1895   67.0703 H   0  0  0  0  0  0  0  0  0  0  0  0
   -0.2959   68.9390   66.9109 H   0  0  0  0  0  0  0  0  0  0  0  0
    3.6030   67.6971   62.7166 H   0  0  0  0  0  0  0  0  0  0  0  0
    5.4058   66.0058   62.3871 H   0  0  0  0  0  0  0  0  0  0  0  0
    5.4262   63.9140   63.7390 H   0  0  0  0  0  0  0  0  0  0  0  0
    3.6399   63.5067   65.4304 H   0  0  0  0  0  0  0  0  0  0  0  0
    1.8356   65.1925   65.7683 H   0  0  0  0  0  0  0  0  0  0  0  0
  2  1  1  0
  3  2  2  0
  4  3  1  0
  5  4  2  0
  6  5  1  0
  7  6  2  0
  7  2  1  0
  8  5  1  0
  9  8  1  0
 10  8  1  0
 11  1  1  0
 12  1  1  0
 13 12  2  0
 14 12  1  0
 15 14  2  0
 16 15  1  0
 17 16  2  0
 18 17  1  0
 19 14  1  0
 19 18  2  0
  1 20  1  1
  3 21  1  0
  4 22  1  0
  6 23  1  0
  7 24  1  0
  9 25  1  0
  9 26  1  0
  9 27  1  0
 10 28  1  0
 10 29  1  0
 10 30  1  0
 11 31  1  0
 15 32  1  0
 16 33  1  0
 17 34  1  0
 18 35  1  0
 19 36  1  0
M  END
>  <score>  (7) 
-7.944

$$$$
=
     RDKit          3D

 36 37  0  0  0  0  0  0  0  0999 V2000
    0.6230   65.3860   71.1680 C   0  0  1  0  0  0  0  0  0  0  0  0
    0.4050   66.1970   69.9020 C   0  0  0  0  0  0  0  0  0  0  0  0
    1.3910   67.0790   69.4500 C   0  0  0  0  0  0  0  0  0  0  0  0
    1.1990   67.8440   68.2890 C   0  0  0  0  0  0  0  0  0  0  0  0
    0.0150   67.7890   67.5370 C   0  0  0  0  0  0  0  0  0  0  0  0
   -0.9630   66.8990   68.0110 C   0  0  0  0  0  0  0  0  0  0  0  0
   -0.7830   66.1280   69.1700 C   0  0  0  0  0  0  0  0  0  0  0  0
   -0.1640   68.5400   66.3690 N   0  0  0  0  0  0  0  0  0  0  0  0
    0.7950   68.3870   65.2760 C   0  0  0  0  0  0  0  0  0  0  0  0
   -1.5180   68.9190   65.9690 C   0  0  0  0  0  0  0  0  0  0  0  0
   -0.3540   65.6660   72.1680 O   0  0  0  0  0  0  0  0  0  0  0  0
    0.7280   63.8720   70.9250 C   0  0  0  0  0  0  0  0  0  0  0  0
   -0.2650   63.1510   71.0570 O   0  0  0  0  0  0  0  0  0  0  0  0
    2.0240   63.2470   70.5110 C   0  0  0  0  0  0  0  0  0  0  0  0
    2.1050   61.9950   69.8920 C   0  0  0  0  0  0  0  0  0  0  0  0
    3.3490   61.4690   69.5280 C   0  0  0  0  0  0  0  0  0  0  0  0
    4.5160   62.1830   69.7840 C   0  0  0  0  0  0  0  0  0  0  0  0
    4.4470   63.4270   70.4070 C   0  0  0  0  0  0  0  0  0  0  0  0
    3.2070   63.9560   70.7710 C   0  0  0  0  0  0  0  0  0  0  0  0
    1.6038   65.7147   71.5421 H   0  0  0  0  0  0  0  0  0  0  0  0
    2.3313   67.1749   70.0126 H   0  0  0  0  0  0  0  0  0  0  0  0
    2.0070   68.5119   67.9558 H   0  0  0  0  0  0  0  0  0  0  0  0
   -1.9058   66.8026   67.4526 H   0  0  0  0  0  0  0  0  0  0  0  0
   -1.5891   65.4597   69.5069 H   0  0  0  0  0  0  0  0  0  0  0  0
    1.8011   68.2265   65.6907 H   0  0  0  0  0  0  0  0  0  0  0  0
    0.5112   67.5228   64.6575 H   0  0  0  0  0  0  0  0  0  0  0  0
    0.7942   69.2966   64.6575 H   0  0  0  0  0  0  0  0  0  0  0  0
   -2.1309   69.0906   66.8662 H   0  0  0  0  0  0  0  0  0  0  0  0
   -1.4789   69.8407   65.3699 H   0  0  0  0  0  0  0  0  0  0  0  0
   -1.9631   68.1109   65.3699 H   0  0  0  0  0  0  0  0  0  0  0  0
    0.0492   65.5505   73.0648 H   0  0  0  0  0  0  0  0  0  0  0  0
    1.1876   61.4224   69.6909 H   0  0  0  0  0  0  0  0  0  0  0  0
    3.4052   60.4863   69.0370 H   0  0  0  0  0  0  0  0  0  0  0  0
    5.4917   61.7654   69.4947 H   0  0  0  0  0  0  0  0  0  0  0  0
    5.3683   63.9920   70.6120 H   0  0  0  0  0  0  0  0  0  0  0  0
    3.1570   64.9371   71.2659 H   0  0  0  0  0  0  0  0  0  0  0  0
  2  1  1  0
  3  2  2  0
  4  3  1  0
  5  4  2  0
  6  5  1  0
  7  6  2  0
  7  2  1  0
  8  5  1  0
  9  8  1  0
 10  8  1  0
 11  1  1  0
 12  1  1  0
 13 12  2  0
 14 12  1  0
 15 14  2  0
 16 15  1  0
 17 16  2  0
 18 17  1  0
 19 14  1  0
 19 18  2  0
  1 20  1  1
  3 21  1  0
  4 22  1  0
  6 23  1  0
  7 24  1  0
  9 25  1  0
  9 26  1  0
  9 27  1  0
 10 28  1  0
 10 29  1  0
 10 30  1  0
 11 31  1  0
 15 32  1  0
 16 33  1  0
 17 34  1  0
 18 35  1  0
 19 36  1  0
M  END
>  <score>  (8) 
-7.928

$$$$
=
     RDKit          3D

 36 37  0  0  0  0  0  0  0  0999 V2000
    0.4670   68.9140   67.4060 C   0  0  1  0  0  0  0  0  0  0  0  0
    0.4550   67.7220   68.3460 C   0  0  0  0  0  0  0  0  0  0  0  0
   -0.6510   66.8680   68.3890 C   0  0  0  0  0  0  0  0  0  0  0  0
   -0.6820   65.7690   69.2620 C   0  0  0  0  0  0  0  0  0  0  0  0
    0.3690   65.4790   70.1470 C   0  0  0  0  0  0  0  0  0  0  0  0
    1.4680   66.3510   70.0890 C   0  0  0  0  0  0  0  0  0  0  0  0
    1.5110   67.4530   69.2200 C   0  0  0  0  0  0  0  0  0  0  0  0
    0.3410   64.3700   71.0020 N   0  0  0  0  0  0  0  0  0  0  0  0
    1.0750   63.1650   70.6200 C   0  0  0  0  0  0  0  0  0  0  0  0
    0.1910   64.5860   72.4400 C   0  0  0  0  0  0  0  0  0  0  0  0
    0.8020   70.1290   68.0730 O   0  0  0  0  0  0  0  0  0  0  0  0
    1.3520   68.7170   66.1650 C   0  0  0  0  0  0  0  0  0  0  0  0
    0.8830   68.2130   65.1410 O   0  0  0  0  0  0  0  0  0  0  0  0
    2.7870   69.1450   66.1670 C   0  0  0  0  0  0  0  0  0  0  0  0
    3.4410   69.6180   67.3090 C   0  0  0  0  0  0  0  0  0  0  0  0
    4.7850   70.0000   67.2430 C   0  0  0  0  0  0  0  0  0  0  0  0
    5.4810   69.9190   66.0400 C   0  0  0  0  0  0  0  0  0  0  0  0
    4.8370   69.4570   64.8950 C   0  0  0  0  0  0  0  0  0  0  0  0
    3.4950   69.0740   64.9570 C   0  0  0  0  0  0  0  0  0  0  0  0
   -0.5692   68.9931   67.0453 H   0  0  0  0  0  0  0  0  0  0  0  0
   -1.5098   67.0600   67.7290 H   0  0  0  0  0  0  0  0  0  0  0  0
   -1.5628   65.1102   69.2524 H   0  0  0  0  0  0  0  0  0  0  0  0
    2.3277   66.1637   70.7492 H   0  0  0  0  0  0  0  0  0  0  0  0
    2.3897   68.1147   69.2275 H   0  0  0  0  0  0  0  0  0  0  0  0
    1.4001   62.6313   71.5252 H   0  0  0  0  0  0  0  0  0  0  0  0
    0.4216   62.5112   70.0237 H   0  0  0  0  0  0  0  0  0  0  0  0
    1.9557   63.4457   70.0237 H   0  0  0  0  0  0  0  0  0  0  0  0
    0.7353   63.8022   72.9872 H   0  0  0  0  0  0  0  0  0  0  0  0
    0.6001   65.5714   72.7074 H   0  0  0  0  0  0  0  0  0  0  0  0
   -0.8753   64.5468   72.7074 H   0  0  0  0  0  0  0  0  0  0  0  0
    0.7635   69.9893   69.0523 H   0  0  0  0  0  0  0  0  0  0  0  0
    2.8968   69.6899   68.2622 H   0  0  0  0  0  0  0  0  0  0  0  0
    5.2947   70.3663   68.1464 H   0  0  0  0  0  0  0  0  0  0  0  0
    6.5382   70.2195   65.9940 H   0  0  0  0  0  0  0  0  0  0  0  0
    5.3843   69.3937   63.9429 H   0  0  0  0  0  0  0  0  0  0  0  0
    2.9886   68.7135   64.0495 H   0  0  0  0  0  0  0  0  0  0  0  0
  2  1  1  0
  3  2  2  0
  4  3  1  0
  5  4  2  0
  6  5  1  0
  7  6  2  0
  7  2  1  0
  8  5  1  0
  9  8  1  0
 10  8  1  0
 11  1  1  0
 12  1  1  0
 13 12  2  0
 14 12  1  0
 15 14  2  0
 16 15  1  0
 17 16  2  0
 18 17  1  0
 19 14  1  0
 19 18  2  0
  1 20  1  6
  3 21  1  0
  4 22  1  0
  6 23  1  0
  7 24  1  0
  9 25  1  0
  9 26  1  0
  9 27  1  0
 10 28  1  0
 10 29  1  0
 10 30  1  0
 11 31  1  0
 15 32  1  0
 16 33  1  0
 17 34  1  0
 18 35  1  0
 19 36  1  0
M  END
>  <score>  (9) 
-7.791

$$$$
