=
     RDKit          3D

 28 29  0  0  0  0  0  0  0  0999 V2000
    1.9940   68.3740   64.9500 S   0  0  0  0  0  6  0  0  0  0  0  0
    0.6980   68.7410   65.4770 O   0  0  0  0  0  0  0  0  0  0  0  0
    2.3280   68.6550   63.5670 O   0  0  0  0  0  0  0  0  0  0  0  0
    2.2440   66.7370   65.1350 N   0  0  0  0  0  0  0  0  0  0  0  0
    3.2020   65.9990   64.4650 C   0  0  0  0  0  0  0  0  0  0  0  0
    3.9970   66.4690   63.5030 N   0  0  0  0  0  0  0  0  0  0  0  0
    4.7850   65.4050   63.1040 O   0  0  0  0  0  0  0  0  0  0  0  0
    4.4530   64.3040   63.8260 C   0  0  0  0  0  0  0  0  0  0  0  0
    3.4480   64.6290   64.7020 C   0  0  0  0  0  0  0  0  0  0  0  0
    5.2040   63.0730   63.5260 C   0  0  0  0  0  0  0  0  0  0  0  0
    5.2680   70.3010   67.5040 C   0  0  0  0  0  0  0  0  0  0  0  0
    3.9890   70.0930   68.0300 C   0  0  0  0  0  0  0  0  0  0  0  0
    2.9900   69.4850   67.2640 C   0  0  0  0  0  0  0  0  0  0  0  0
    3.2660   69.1090   65.9490 C   0  0  0  0  0  0  0  0  0  0  0  0
    4.5140   69.3790   65.3840 C   0  0  0  0  0  0  0  0  0  0  0  0
    5.5040   69.9890   66.1610 C   0  0  0  0  0  0  0  0  0  0  0  0
    6.2200   71.0170   68.2370 N   0  0  0  0  0  0  0  0  0  0  0  0
    1.6378   66.2361   65.8001 H   0  0  0  0  0  0  0  0  0  0  0  0
    2.9466   63.9701   65.4262 H   0  0  0  0  0  0  0  0  0  0  0  0
    5.5010   62.5862   64.4667 H   0  0  0  0  0  0  0  0  0  0  0  0
    4.5692   62.3890   62.9436 H   0  0  0  0  0  0  0  0  0  0  0  0
    6.1027   63.3245   62.9436 H   0  0  0  0  0  0  0  0  0  0  0  0
    3.7663   70.4117   69.0590 H   0  0  0  0  0  0  0  0  0  0  0  0
    1.9941   69.3044   67.6947 H   0  0  0  0  0  0  0  0  0  0  0  0
    4.7169   69.1140   64.3359 H   0  0  0  0  0  0  0  0  0  0  0  0
    6.4793   70.2261   65.7109 H   0  0  0  0  0  0  0  0  0  0  0  0
    7.1615   71.1693   67.8481 H   0  0  0  0  0  0  0  0  0  0  0  0
    5.9795   71.3920   69.1657 H   0  0  0  0  0  0  0  0  0  0  0  0
  2  1  2  0
  3  1  2  0
  4  1  1  0
  5  4  1  0
  6  5  2  0
  7  6  1  0
  8  7  1  0
  9  8  2  0
  9  5  1  0
 10  8  1  0
 12 11  2  0
 13 12  1  0
 14  1  1  0
 14 13  2  0
 15 14  1  0
 16 15  2  0
 16 11  1  0
 17 11  1  0
  4 18  1  0
  9 19  1  0
 10 20  1  0
 10 21  1  0
 10 22  1  0
 12 23  1  0
 13 24  1  0
 15 25  1  0
 16 26  1  0
 17 27  1  0
 17 28  1  0
M  END
>  <score>  (1) 
-8.88

$$$$
=
     RDKit          3D

 28 29  0  0  0  0  0  0  0  0999 V2000
    2.5780   68.5450   65.4560 S   0  0  0  0  0  6  0  0  0  0  0  0
    2.4300   69.1830   64.1660 O   0  0  0  0  0  0  0  0  0  0  0  0
    2.8880   67.1310   65.5430 O   0  0  0  0  0  0  0  0  0  0  0  0
    1.1870   68.7430   66.3530 N   0  0  0  0  0  0  0  0  0  0  0  0
   -0.0980   68.7190   65.8420 C   0  0  0  0  0  0  0  0  0  0  0  0
   -0.4060   68.6340   64.5480 N   0  0  0  0  0  0  0  0  0  0  0  0
   -1.7870   68.6540   64.4810 O   0  0  0  0  0  0  0  0  0  0  0  0
   -2.2960   68.7560   65.7370 C   0  0  0  0  0  0  0  0  0  0  0  0
   -1.2610   68.8050   66.6370 C   0  0  0  0  0  0  0  0  0  0  0  0
   -3.7640   68.7880   65.8470 C   0  0  0  0  0  0  0  0  0  0  0  0
    5.7630   70.7290   67.9140 C   0  0  0  0  0  0  0  0  0  0  0  0
    6.0790   70.1900   66.6620 C   0  0  0  0  0  0  0  0  0  0  0  0
    5.1060   69.5420   65.8960 C   0  0  0  0  0  0  0  0  0  0  0  0
    3.8120   69.4050   66.4000 C   0  0  0  0  0  0  0  0  0  0  0  0
    3.5000   69.8690   67.6800 C   0  0  0  0  0  0  0  0  0  0  0  0
    4.4830   70.5150   68.4370 C   0  0  0  0  0  0  0  0  0  0  0  0
    6.7700   71.2680   68.7210 N   0  0  0  0  0  0  0  0  0  0  0  0
    1.2926   68.8950   67.3662 H   0  0  0  0  0  0  0  0  0  0  0  0
   -1.3238   68.8918   67.7318 H   0  0  0  0  0  0  0  0  0  0  0  0
   -4.0521   68.7943   66.9086 H   0  0  0  0  0  0  0  0  0  0  0  0
   -4.1487   69.6947   65.3573 H   0  0  0  0  0  0  0  0  0  0  0  0
   -4.1879   67.8989   65.3573 H   0  0  0  0  0  0  0  0  0  0  0  0
    7.1054   70.2773   66.2761 H   0  0  0  0  0  0  0  0  0  0  0  0
    5.3585   69.1427   64.9026 H   0  0  0  0  0  0  0  0  0  0  0  0
    2.4890   69.7275   68.0896 H   0  0  0  0  0  0  0  0  0  0  0  0
    4.2471   70.8586   69.4550 H   0  0  0  0  0  0  0  0  0  0  0  0
    6.5349   71.6642   69.6422 H   0  0  0  0  0  0  0  0  0  0  0  0
    7.7468   71.2688   68.3941 H   0  0  0  0  0  0  0  0  0  0  0  0
  2  1  2  0
  3  1  2  0
  4  1  1  0
  5  4  1  0
  6  5  2  0
  7  6  1  0
  8  7  1  0
  9  8  2  0
  9  5  1  0
 10  8  1  0
 12 11  2  0
 13 12  1  0
 14  1  1  0
 14 13  2  0
 15 14  1  0
 16 15  2  0
 16 11  1  0
 17 11  1  0
  4 18  1  0
  9 19  1  0
 10 20  1  0
 10 21  1  0
 10 22  1  0
 12 23  1  0
 13 24  1  0
 15 25  1  0
 16 26  1  0
 17 27  1  0
 17 28  1  0
M  END
>  <score>  (2) 
-8.786

$$$$
=
     RDKit          3D

 28 29  0  0  0  0  0  0  0  0999 V2000
    2.5870   68.5110   65.3810 S   0  0  0  0  0  6  0  0  0  0  0  0
    2.9760   67.1200   65.4450 O   0  0  0  0  0  0  0  0  0  0  0  0
    3.0380   69.3480   64.2850 O   0  0  0  0  0  0  0  0  0  0  0  0
    3.0730   69.3050   66.7640 N   0  0  0  0  0  0  0  0  0  0  0  0
    4.3710   69.6970   67.0400 C   0  0  0  0  0  0  0  0  0  0  0  0
    5.4340   69.4120   66.2880 N   0  0  0  0  0  0  0  0  0  0  0  0
    6.5190   69.9790   66.9290 O   0  0  0  0  0  0  0  0  0  0  0  0
    6.0990   70.5960   68.0640 C   0  0  0  0  0  0  0  0  0  0  0  0
    4.7400   70.4410   68.1810 C   0  0  0  0  0  0  0  0  0  0  0  0
    7.1370   71.2600   68.8710 C   0  0  0  0  0  0  0  0  0  0  0  0
   -1.9750   68.8600   65.5170 C   0  0  0  0  0  0  0  0  0  0  0  0
   -1.2960   68.9130   64.2950 C   0  0  0  0  0  0  0  0  0  0  0  0
    0.0950   68.7850   64.2440 C   0  0  0  0  0  0  0  0  0  0  0  0
    0.8160   68.6320   65.4290 C   0  0  0  0  0  0  0  0  0  0  0  0
    0.1610   68.6540   66.6610 C   0  0  0  0  0  0  0  0  0  0  0  0
   -1.2310   68.7840   66.6990 C   0  0  0  0  0  0  0  0  0  0  0  0
   -3.3500   69.1090   65.5670 N   0  0  0  0  0  0  0  0  0  0  0  0
    2.3517   69.5203   67.4670 H   0  0  0  0  0  0  0  0  0  0  0  0
    4.0860   70.8130   68.9834 H   0  0  0  0  0  0  0  0  0  0  0  0
    6.9167   71.1191   69.9395 H   0  0  0  0  0  0  0  0  0  0  0  0
    8.1187   70.8218   68.6381 H   0  0  0  0  0  0  0  0  0  0  0  0
    7.1507   72.3350   68.6381 H   0  0  0  0  0  0  0  0  0  0  0  0
   -1.8633   69.0571   63.3636 H   0  0  0  0  0  0  0  0  0  0  0  0
    0.6178   68.8047   63.2764 H   0  0  0  0  0  0  0  0  0  0  0  0
    0.7353   68.5697   67.5954 H   0  0  0  0  0  0  0  0  0  0  0  0
   -1.7467   68.8270   67.6697 H   0  0  0  0  0  0  0  0  0  0  0  0
   -3.8481   69.0695   66.4677 H   0  0  0  0  0  0  0  0  0  0  0  0
   -3.8648   69.3319   64.7032 H   0  0  0  0  0  0  0  0  0  0  0  0
  2  1  2  0
  3  1  2  0
  4  1  1  0
  5  4  1  0
  6  5  2  0
  7  6  1  0
  8  7  1  0
  9  8  2  0
  9  5  1  0
 10  8  1  0
 12 11  2  0
 13 12  1  0
 14  1  1  0
 14 13  2  0
 15 14  1  0
 16 15  2  0
 16 11  1  0
 17 11  1  0
  4 18  1  0
  9 19  1  0
 10 20  1  0
 10 21  1  0
 10 22  1  0
 12 23  1  0
 13 24  1  0
 15 25  1  0
 16 26  1  0
 17 27  1  0
 17 28  1  0
M  END
>  <score>  (3) 
-8.309

$$$$
=
     RDKit          3D

 28 29  0  0  0  0  0  0  0  0999 V2000
    2.8850   69.9940   68.6630 S   0  0  0  0  0  6  0  0  0  0  0  0
    3.8060   70.0610   69.7770 O   0  0  0  0  0  0  0  0  0  0  0  0
    1.9400   71.0690   68.4280 O   0  0  0  0  0  0  0  0  0  0  0  0
    1.9580   68.6140   68.7700 N   0  0  0  0  0  0  0  0  0  0  0  0
    0.7120   68.4470   68.1940 C   0  0  0  0  0  0  0  0  0  0  0  0
    0.0300   69.3980   67.5550 N   0  0  0  0  0  0  0  0  0  0  0  0
   -1.1570   68.8140   67.1540 O   0  0  0  0  0  0  0  0  0  0  0  0
   -1.1810   67.5180   67.5610 C   0  0  0  0  0  0  0  0  0  0  0  0
   -0.0160   67.2380   68.2310 C   0  0  0  0  0  0  0  0  0  0  0  0
   -2.3830   66.7430   67.2110 C   0  0  0  0  0  0  0  0  0  0  0  0
    5.2570   69.3860   64.7960 C   0  0  0  0  0  0  0  0  0  0  0  0
    3.9170   68.9950   64.8740 C   0  0  0  0  0  0  0  0  0  0  0  0
    3.1800   69.1980   66.0440 C   0  0  0  0  0  0  0  0  0  0  0  0
    3.7980   69.7700   67.1560 C   0  0  0  0  0  0  0  0  0  0  0  0
    5.1560   70.0960   67.1190 C   0  0  0  0  0  0  0  0  0  0  0  0
    5.8820   69.8870   65.9430 C   0  0  0  0  0  0  0  0  0  0  0  0
    6.0160   69.0690   63.6640 N   0  0  0  0  0  0  0  0  0  0  0  0
    2.3428   67.8237   69.3069 H   0  0  0  0  0  0  0  0  0  0  0  0
    0.2831   66.2856   68.6929 H   0  0  0  0  0  0  0  0  0  0  0  0
   -2.8895   66.4164   68.1312 H   0  0  0  0  0  0  0  0  0  0  0  0
   -3.0654   67.3716   66.6202 H   0  0  0  0  0  0  0  0  0  0  0  0
   -2.0920   65.8619   66.6202 H   0  0  0  0  0  0  0  0  0  0  0  0
    3.4372   68.5221   64.0044 H   0  0  0  0  0  0  0  0  0  0  0  0
    2.1196   68.9086   66.0876 H   0  0  0  0  0  0  0  0  0  0  0  0
    5.6501   70.5139   68.0085 H   0  0  0  0  0  0  0  0  0  0  0  0
    6.9570   70.1191   65.9191 H   0  0  0  0  0  0  0  0  0  0  0  0
    7.0031   69.3579   63.6083 H   0  0  0  0  0  0  0  0  0  0  0  0
    5.5876   68.5468   62.8864 H   0  0  0  0  0  0  0  0  0  0  0  0
  2  1  2  0
  3  1  2  0
  4  1  1  0
  5  4  1  0
  6  5  2  0
  7  6  1  0
  8  7  1  0
  9  8  2  0
  9  5  1  0
 10  8  1  0
 12 11  2  0
 13 12  1  0
 14  1  1  0
 14 13  2  0
 15 14  1  0
 16 15  2  0
 16 11  1  0
 17 11  1  0
  4 18  1  0
  9 19  1  0
 10 20  1  0
 10 21  1  0
 10 22  1  0
 12 23  1  0
 13 24  1  0
 15 25  1  0
 16 26  1  0
 17 27  1  0
 17 28  1  0
M  END
>  <score>  (4) 
-8.002

$$$$
=
     RDKit          3D

 28 29  0  0  0  0  0  0  0  0999 V2000
    0.8700   64.2770   70.7530 S   0  0  0  0  0  6  0  0  0  0  0  0
    0.0300   63.4650   69.9000 O   0  0  0  0  0  0  0  0  0  0  0  0
    0.3660   64.7700   72.0210 O   0  0  0  0  0  0  0  0  0  0  0  0
    1.3810   65.6320   69.9290 N   0  0  0  0  0  0  0  0  0  0  0  0
    0.5790   66.4230   69.1270 C   0  0  0  0  0  0  0  0  0  0  0  0
   -0.6910   66.1610   68.8170 N   0  0  0  0  0  0  0  0  0  0  0  0
   -1.1040   67.1910   67.9930 O   0  0  0  0  0  0  0  0  0  0  0  0
   -0.0760   68.0610   67.8100 C   0  0  0  0  0  0  0  0  0  0  0  0
    1.0180   67.6140   68.5080 C   0  0  0  0  0  0  0  0  0  0  0  0
   -0.3500   69.2270   66.9520 C   0  0  0  0  0  0  0  0  0  0  0  0
    4.7410   61.9950   71.6260 C   0  0  0  0  0  0  0  0  0  0  0  0
    4.7210   63.0210   70.6750 C   0  0  0  0  0  0  0  0  0  0  0  0
    3.5490   63.7370   70.4200 C   0  0  0  0  0  0  0  0  0  0  0  0
    2.3770   63.4040   71.1000 C   0  0  0  0  0  0  0  0  0  0  0  0
    2.3610   62.3330   71.9960 C   0  0  0  0  0  0  0  0  0  0  0  0
    3.5410   61.6230   72.2420 C   0  0  0  0  0  0  0  0  0  0  0  0
    5.8860   61.2070   71.7870 N   0  0  0  0  0  0  0  0  0  0  0  0
    2.3706   65.9012   70.0244 H   0  0  0  0  0  0  0  0  0  0  0  0
    2.0129   68.0789   68.5711 H   0  0  0  0  0  0  0  0  0  0  0  0
   -0.5563   70.1051   67.5816 H   0  0  0  0  0  0  0  0  0  0  0  0
    0.5252   69.4287   66.3169 H   0  0  0  0  0  0  0  0  0  0  0  0
   -1.2234   69.0178   66.3169 H   0  0  0  0  0  0  0  0  0  0  0  0
    5.6392   63.2668   70.1214 H   0  0  0  0  0  0  0  0  0  0  0  0
    3.5500   64.5580   69.6879 H   0  0  0  0  0  0  0  0  0  0  0  0
    1.4276   62.0498   72.5045 H   0  0  0  0  0  0  0  0  0  0  0  0
    3.5253   60.7627   72.9273 H   0  0  0  0  0  0  0  0  0  0  0  0
    5.8975   60.4524   72.4880 H   0  0  0  0  0  0  0  0  0  0  0  0
    6.7174   61.3815   71.2045 H   0  0  0  0  0  0  0  0  0  0  0  0
  2  1  2  0
  3  1  2  0
  4  1  1  0
  5  4  1  0
  6  5  2  0
  7  6  1  0
  8  7  1  0
  9  8  2  0
  9  5  1  0
 10  8  1  0
 12 11  2  0
 13 12  1  0
 14  1  1  0
 14 13  2  0
 15 14  1  0
 16 15  2  0
 16 11  1  0
 17 11  1  0
  4 18  1  0
  9 19  1  0
 10 20  1  0
 10 21  1  0
 10 22  1  0
 12 23  1  0
 13 24  1  0
 15 25  1  0
 16 26  1  0
 17 27  1  0
 17 28  1  0
M  END
>  <score>  (5) 
-7.898

$$$$
=
     RDKit          3D

 28 29  0  0  0  0  0  0  0  0999 V2000
    2.8830   68.6090   63.9020 S   0  0  0  0  0  6  0  0  0  0  0  0
    3.8130   69.3730   63.1000 O   0  0  0  0  0  0  0  0  0  0  0  0
    1.4700   68.5990   63.5750 O   0  0  0  0  0  0  0  0  0  0  0  0
    2.9590   69.1030   65.4920 N   0  0  0  0  0  0  0  0  0  0  0  0
    4.1140   69.4840   66.1510 C   0  0  0  0  0  0  0  0  0  0  0  0
    5.3450   69.4160   65.6420 N   0  0  0  0  0  0  0  0  0  0  0  0
    6.1940   69.8780   66.6300 O   0  0  0  0  0  0  0  0  0  0  0  0
    5.4660   70.2150   67.7260 C   0  0  0  0  0  0  0  0  0  0  0  0
    4.1390   69.9780   67.4730 C   0  0  0  0  0  0  0  0  0  0  0  0
    6.2220   70.7330   68.8800 C   0  0  0  0  0  0  0  0  0  0  0  0
    4.2090   64.2300   64.0480 C   0  0  0  0  0  0  0  0  0  0  0  0
    4.6550   65.0730   63.0250 C   0  0  0  0  0  0  0  0  0  0  0  0
    4.2730   66.4160   62.9860 C   0  0  0  0  0  0  0  0  0  0  0  0
    3.4110   66.9150   63.9640 C   0  0  0  0  0  0  0  0  0  0  0  0
    2.8960   66.0680   64.9490 C   0  0  0  0  0  0  0  0  0  0  0  0
    3.2860   64.7260   64.9750 C   0  0  0  0  0  0  0  0  0  0  0  0
    4.5000   62.8630   64.0090 N   0  0  0  0  0  0  0  0  0  0  0  0
    2.0780   69.1264   66.0250 H   0  0  0  0  0  0  0  0  0  0  0  0
    3.2857   70.1372   68.1487 H   0  0  0  0  0  0  0  0  0  0  0  0
    5.7401   70.4028   69.8121 H   0  0  0  0  0  0  0  0  0  0  0  0
    7.2528   70.3505   68.8447 H   0  0  0  0  0  0  0  0  0  0  0  0
    6.2374   71.8323   68.8447 H   0  0  0  0  0  0  0  0  0  0  0  0
    5.3151   64.6733   62.2411 H   0  0  0  0  0  0  0  0  0  0  0  0
    4.6488   67.0758   62.1901 H   0  0  0  0  0  0  0  0  0  0  0  0
    2.1892   66.4544   65.6981 H   0  0  0  0  0  0  0  0  0  0  0  0
    2.8620   64.0516   65.7336 H   0  0  0  0  0  0  0  0  0  0  0  0
    4.1703   62.2445   64.7638 H   0  0  0  0  0  0  0  0  0  0  0  0
    5.0441   62.4744   63.2255 H   0  0  0  0  0  0  0  0  0  0  0  0
  2  1  2  0
  3  1  2  0
  4  1  1  0
  5  4  1  0
  6  5  2  0
  7  6  1  0
  8  7  1  0
  9  8  2  0
  9  5  1  0
 10  8  1  0
 12 11  2  0
 13 12  1  0
 14  1  1  0
 14 13  2  0
 15 14  1  0
 16 15  2  0
 16 11  1  0
 17 11  1  0
  4 18  1  0
  9 19  1  0
 10 20  1  0
 10 21  1  0
 10 22  1  0
 12 23  1  0
 13 24  1  0
 15 25  1  0
 16 26  1  0
 17 27  1  0
 17 28  1  0
M  END
>  <score>  (6) 
-7.446

$$$$
=
     RDKit          3D

 28 29  0  0  0  0  0  0  0  0999 V2000
    0.3310   65.2100   70.3280 S   0  0  0  0  0  6  0  0  0  0  0  0
    0.0570   65.7690   71.6340 O   0  0  0  0  0  0  0  0  0  0  0  0
   -0.3110   63.9780   69.9090 O   0  0  0  0  0  0  0  0  0  0  0  0
    1.9650   64.9310   70.1560 N   0  0  0  0  0  0  0  0  0  0  0  0
    2.6420   63.8400   70.6700 C   0  0  0  0  0  0  0  0  0  0  0  0
    2.1070   62.9070   71.4580 N   0  0  0  0  0  0  0  0  0  0  0  0
    3.1260   62.0190   71.7460 O   0  0  0  0  0  0  0  0  0  0  0  0
    4.2660   62.4280   71.1330 C   0  0  0  0  0  0  0  0  0  0  0  0
    4.0110   63.5850   70.4390 C   0  0  0  0  0  0  0  0  0  0  0  0
    5.4580   61.5860   71.3350 C   0  0  0  0  0  0  0  0  0  0  0  0
   -0.5510   68.3230   67.0890 C   0  0  0  0  0  0  0  0  0  0  0  0
   -1.5160   67.3730   67.4420 C   0  0  0  0  0  0  0  0  0  0  0  0
   -1.2620   66.4340   68.4450 C   0  0  0  0  0  0  0  0  0  0  0  0
   -0.0200   66.4250   69.0810 C   0  0  0  0  0  0  0  0  0  0  0  0
    0.9800   67.3170   68.6890 C   0  0  0  0  0  0  0  0  0  0  0  0
    0.7140   68.2510   67.6820 C   0  0  0  0  0  0  0  0  0  0  0  0
   -0.7710   69.1780   66.0040 N   0  0  0  0  0  0  0  0  0  0  0  0
    2.5126   65.6242   69.6263 H   0  0  0  0  0  0  0  0  0  0  0  0
    4.7151   64.1794   69.8382 H   0  0  0  0  0  0  0  0  0  0  0  0
    5.6385   61.4585   72.4126 H   0  0  0  0  0  0  0  0  0  0  0  0
    5.2945   60.6018   70.8716 H   0  0  0  0  0  0  0  0  0  0  0  0
    6.3309   62.0690   70.8716 H   0  0  0  0  0  0  0  0  0  0  0  0
   -2.4862   67.3654   66.9236 H   0  0  0  0  0  0  0  0  0  0  0  0
   -2.0360   65.7067   68.7314 H   0  0  0  0  0  0  0  0  0  0  0  0
    1.9696   67.2856   69.1683 H   0  0  0  0  0  0  0  0  0  0  0  0
    1.5086   68.9366   67.3527 H   0  0  0  0  0  0  0  0  0  0  0  0
   -0.0592   69.8764   65.7461 H   0  0  0  0  0  0  0  0  0  0  0  0
   -1.6447   69.1092   65.4630 H   0  0  0  0  0  0  0  0  0  0  0  0
  2  1  2  0
  3  1  2  0
  4  1  1  0
  5  4  1  0
  6  5  2  0
  7  6  1  0
  8  7  1  0
  9  8  2  0
  9  5  1  0
 10  8  1  0
 12 11  2  0
 13 12  1  0
 14  1  1  0
 14 13  2  0
 15 14  1  0
 16 15  2  0
 16 11  1  0
 17 11  1  0
  4 18  1  0
  9 19  1  0
 10 20  1  0
 10 21  1  0
 10 22  1  0
 12 23  1  0
 13 24  1  0
 15 25  1  0
 16 26  1  0
 17 27  1  0
 17 28  1  0
M  END
>  <score>  (7) 
-7.426

$$$$
=
     RDKit          3D

 28 29  0  0  0  0  0  0  0  0999 V2000
    2.4940   67.2960   65.0960 S   0  0  0  0  0  6  0  0  0  0  0  0
    1.5730   66.2740   65.5420 O   0  0  0  0  0  0  0  0  0  0  0  0
    3.8340   66.9390   64.6720 O   0  0  0  0  0  0  0  0  0  0  0  0
    2.7050   68.4370   66.2930 N   0  0  0  0  0  0  0  0  0  0  0  0
    3.8710   69.1450   66.5180 C   0  0  0  0  0  0  0  0  0  0  0  0
    5.0230   68.9490   65.8770 N   0  0  0  0  0  0  0  0  0  0  0  0
    5.9200   69.8530   66.4150 O   0  0  0  0  0  0  0  0  0  0  0  0
    5.3000   70.5810   67.3800 C   0  0  0  0  0  0  0  0  0  0  0  0
    3.9960   70.1660   67.4860 C   0  0  0  0  0  0  0  0  0  0  0  0
    6.1180   71.6000   68.0580 C   0  0  0  0  0  0  0  0  0  0  0  0
    0.5910   69.6290   61.6480 C   0  0  0  0  0  0  0  0  0  0  0  0
   -0.1330   69.3740   62.8170 C   0  0  0  0  0  0  0  0  0  0  0  0
    0.4490   68.6820   63.8830 C   0  0  0  0  0  0  0  0  0  0  0  0
    1.7580   68.2140   63.7660 C   0  0  0  0  0  0  0  0  0  0  0  0
    2.4680   68.3940   62.5770 C   0  0  0  0  0  0  0  0  0  0  0  0
    1.8740   69.0870   61.5180 C   0  0  0  0  0  0  0  0  0  0  0  0
   -0.0390   70.2150   60.5450 N   0  0  0  0  0  0  0  0  0  0  0  0
    1.9051   68.6293   66.9127 H   0  0  0  0  0  0  0  0  0  0  0  0
    3.2223   70.5436   68.1707 H   0  0  0  0  0  0  0  0  0  0  0  0
    6.0227   71.4813   69.1474 H   0  0  0  0  0  0  0  0  0  0  0  0
    7.1716   71.4778   67.7666 H   0  0  0  0  0  0  0  0  0  0  0  0
    5.7708   72.6023   67.7666 H   0  0  0  0  0  0  0  0  0  0  0  0
   -1.1732   69.7223   62.8986 H   0  0  0  0  0  0  0  0  0  0  0  0
   -0.1211   68.5077   64.8075 H   0  0  0  0  0  0  0  0  0  0  0  0
    3.4873   67.9934   62.4744 H   0  0  0  0  0  0  0  0  0  0  0  0
    2.4218   69.2074   60.5717 H   0  0  0  0  0  0  0  0  0  0  0  0
    0.4965   70.4018   59.6852 H   0  0  0  0  0  0  0  0  0  0  0  0
   -1.0384   70.4597   60.5927 H   0  0  0  0  0  0  0  0  0  0  0  0
  2  1  2  0
  3  1  2  0
  4  1  1  0
  5  4  1  0
  6  5  2  0
  7  6  1  0
  8  7  1  0
  9  8  2  0
  9  5  1  0
 10  8  1  0
 12 11  2  0
 13 12  1  0
 14  1  1  0
 14 13  2  0
 15 14  1  0
 16 15  2  0
 16 11  1  0
 17 11  1  0
  4 18  1  0
  9 19  1  0
 10 20  1  0
 10 21  1  0
 10 22  1  0
 12 23  1  0
 13 24  1  0
 15 25  1  0
 16 26  1  0
 17 27  1  0
 17 28  1  0
M  END
>  <score>  (8) 
-7.156

$$$$
=
     RDKit          3D

 28 29  0  0  0  0  0  0  0  0999 V2000
    2.8020   68.6740   65.0690 S   0  0  0  0  0  6  0  0  0  0  0  0
    3.9060   69.5220   65.4610 O   0  0  0  0  0  0  0  0  0  0  0  0
    1.8790   69.1050   64.0360 O   0  0  0  0  0  0  0  0  0  0  0  0
    1.8480   68.3300   66.3910 N   0  0  0  0  0  0  0  0  0  0  0  0
    0.4770   68.1520   66.3560 C   0  0  0  0  0  0  0  0  0  0  0  0
   -0.2910   68.3250   65.2800 N   0  0  0  0  0  0  0  0  0  0  0  0
   -1.5850   68.0560   65.6860 O   0  0  0  0  0  0  0  0  0  0  0  0
   -1.5830   67.7280   67.0050 C   0  0  0  0  0  0  0  0  0  0  0  0
   -0.2960   67.7790   67.4770 C   0  0  0  0  0  0  0  0  0  0  0  0
   -2.8910   67.4070   67.6010 C   0  0  0  0  0  0  0  0  0  0  0  0
    4.3730   64.5730   63.7790 C   0  0  0  0  0  0  0  0  0  0  0  0
    4.8290   65.7360   63.1510 C   0  0  0  0  0  0  0  0  0  0  0  0
    4.3710   66.9940   63.5550 C   0  0  0  0  0  0  0  0  0  0  0  0
    3.4250   67.0860   64.5760 C   0  0  0  0  0  0  0  0  0  0  0  0
    2.9030   65.9300   65.1610 C   0  0  0  0  0  0  0  0  0  0  0  0
    3.3690   64.6780   64.7470 C   0  0  0  0  0  0  0  0  0  0  0  0
    4.7460   63.3170   63.2890 N   0  0  0  0  0  0  0  0  0  0  0  0
    2.3154   68.2432   67.3047 H   0  0  0  0  0  0  0  0  0  0  0  0
    0.0550   67.5751   68.4994 H   0  0  0  0  0  0  0  0  0  0  0  0
   -2.8090   67.4271   68.6978 H   0  0  0  0  0  0  0  0  0  0  0  0
   -3.6345   68.1493   67.2752 H   0  0  0  0  0  0  0  0  0  0  0  0
   -3.2064   66.4048   67.2752 H   0  0  0  0  0  0  0  0  0  0  0  0
    5.5566   65.6605   62.3295 H   0  0  0  0  0  0  0  0  0  0  0  0
    4.7540   67.9046   63.0711 H   0  0  0  0  0  0  0  0  0  0  0  0
    2.1313   66.0038   65.9414 H   0  0  0  0  0  0  0  0  0  0  0  0
    2.9410   63.7655   65.1877 H   0  0  0  0  0  0  0  0  0  0  0  0
    4.4086   62.4619   63.7537 H   0  0  0  0  0  0  0  0  0  0  0  0
    5.3581   63.2472   62.4635 H   0  0  0  0  0  0  0  0  0  0  0  0
  2  1  2  0
  3  1  2  0
  4  1  1  0
  5  4  1  0
  6  5  2  0
  7  6  1  0
  8  7  1  0
  9  8  2  0
  9  5  1  0
 10  8  1  0
 12 11  2  0
 13 12  1  0
 14  1  1  0
 14 13  2  0
 15 14  1  0
 16 15  2  0
 16 11  1  0
 17 11  1  0
  4 18  1  0
  9 19  1  0
 10 20  1  0
 10 21  1  0
 10 22  1  0
 12 23  1  0
 13 24  1  0
 15 25  1  0
 16 26  1  0
 17 27  1  0
 17 28  1  0
M  END
>  <score>  (9) 
-7.112

$$$$
