=
     RDKit          3D

 42 45  0  0  0  0  0  0  0  0999 V2000
    0.6590   69.0090   67.6640 C   0  0  0  0  0  0  0  0  0  0  0  0
    1.5720   68.9520   66.5140 N   0  0  0  0  0  0  0  0  0  0  0  0
    1.0030   68.8850   65.2190 C   0  0  0  0  0  0  0  0  0  0  0  0
   -0.3700   69.0040   64.9570 C   0  0  0  0  0  0  0  0  0  0  0  0
   -0.8710   68.9430   63.6520 C   0  0  0  0  0  0  0  0  0  0  0  0
   -0.0090   68.7680   62.5770 C   0  0  0  0  0  0  0  0  0  0  0  0
    1.3570   68.6510   62.8040 C   0  0  0  0  0  0  0  0  0  0  0  0
    1.8650   68.7090   64.1170 C   0  0  0  0  0  0  0  0  0  0  0  0
    3.3470   68.5120   64.3710 C   0  0  0  0  0  0  0  0  0  0  0  0
    3.8350   69.1570   65.6520 C   0  0  0  0  0  0  0  0  0  0  0  0
    2.9230   69.3230   66.7180 C   0  0  0  0  0  0  0  0  0  0  0  0
    3.4090   69.8760   67.9140 C   0  0  0  0  0  0  0  0  0  0  0  0
    4.7470   70.2600   68.0480 C   0  0  0  0  0  0  0  0  0  0  0  0
    5.6280   70.1110   66.9860 C   0  0  0  0  0  0  0  0  0  0  0  0
    5.1760   69.5660   65.7890 C   0  0  0  0  0  0  0  0  0  0  0  0
    3.7220   67.0300   64.2340 N   0  0  0  0  0  4  0  0  0  0  0  0
    2.6540   66.0620   64.6770 C   0  0  0  0  0  0  0  0  0  0  0  0
    3.2850   64.7420   65.1510 C   0  0  0  0  0  0  0  0  0  0  0  0
    4.8600   64.3300   64.3190 S   0  0  0  0  0  0  0  0  0  0  0  0
    4.5410   65.1520   62.7260 C   0  0  0  0  0  0  0  0  0  0  0  0
    4.3170   66.6640   62.8770 C   0  0  0  0  0  0  0  0  0  0  0  0
    1.2412   68.9727   68.5966 H   0  0  0  0  0  0  0  0  0  0  0  0
    0.0821   69.9449   67.6281 H   0  0  0  0  0  0  0  0  0  0  0  0
   -0.0298   68.1521   67.6281 H   0  0  0  0  0  0  0  0  0  0  0  0
   -1.0675   69.1483   65.7952 H   0  0  0  0  0  0  0  0  0  0  0  0
   -1.9531   69.0341   63.4765 H   0  0  0  0  0  0  0  0  0  0  0  0
   -0.4053   68.7223   61.5519 H   0  0  0  0  0  0  0  0  0  0  0  0
    2.0438   68.5127   61.9560 H   0  0  0  0  0  0  0  0  0  0  0  0
    3.8936   69.0574   63.5876 H   0  0  0  0  0  0  0  0  0  0  0  0
    2.7228   70.0099   68.7632 H   0  0  0  0  0  0  0  0  0  0  0  0
    5.1028   70.6821   68.9995 H   0  0  0  0  0  0  0  0  0  0  0  0
    6.6779   70.4222   67.0905 H   0  0  0  0  0  0  0  0  0  0  0  0
    5.8705   69.4535   64.9434 H   0  0  0  0  0  0  0  0  0  0  0  0
    4.4832   66.9166   64.9186 H   0  0  0  0  0  0  0  0  0  0  0  0
    2.0826   66.5076   65.5046 H   0  0  0  0  0  0  0  0  0  0  0  0
    1.9892   65.8526   63.8260 H   0  0  0  0  0  0  0  0  0  0  0  0
    3.4742   64.8176   66.2320 H   0  0  0  0  0  0  0  0  0  0  0  0
    2.5737   63.9412   64.9006 H   0  0  0  0  0  0  0  0  0  0  0  0
    5.4051   64.9879   62.0654 H   0  0  0  0  0  0  0  0  0  0  0  0
    3.6214   64.7189   62.3054 H   0  0  0  0  0  0  0  0  0  0  0  0
    5.2833   67.1775   62.7646 H   0  0  0  0  0  0  0  0  0  0  0  0
    3.6024   66.9769   62.1014 H   0  0  0  0  0  0  0  0  0  0  0  0
  2  1  1  0
  3  2  1  0
  4  3  2  0
  5  4  1  0
  6  5  2  0
  7  6  1  0
  8  7  2  0
  8  3  1  0
  9  8  1  0
 10  9  1  0
 11 10  2  0
 11  2  1  0
 12 11  1  0
 13 12  2  0
 14 13  1  0
 15 10  1  0
 15 14  2  0
 16  9  1  0
 17 16  1  0
 18 17  1  0
 19 18  1  0
 20 19  1  0
 21 20  1  0
 21 16  1  0
  1 22  1  0
  1 23  1  0
  1 24  1  0
  4 25  1  0
  5 26  1  0
  6 27  1  0
  7 28  1  0
  9 29  1  0
 12 30  1  0
 13 31  1  0
 14 32  1  0
 15 33  1  0
 16 34  1  0
 17 35  1  0
 17 36  1  0
 18 37  1  0
 18 38  1  0
 20 39  1  0
 20 40  1  0
 21 41  1  0
 21 42  1  0
M  CHG  1  16   1
M  END
>  <score>  (1) 
-10.238

$$$$
=
     RDKit          3D

 42 45  0  0  0  0  0  0  0  0999 V2000
    0.1860   69.7520   62.7860 C   0  0  0  0  0  0  0  0  0  0  0  0
    0.8510   68.9670   63.8360 N   0  0  0  0  0  0  0  0  0  0  0  0
    0.0800   68.5710   64.9550 C   0  0  0  0  0  0  0  0  0  0  0  0
   -1.3050   68.7650   65.0640 C   0  0  0  0  0  0  0  0  0  0  0  0
   -2.0150   68.3380   66.1920 C   0  0  0  0  0  0  0  0  0  0  0  0
   -1.3560   67.7020   67.2360 C   0  0  0  0  0  0  0  0  0  0  0  0
    0.0160   67.4930   67.1570 C   0  0  0  0  0  0  0  0  0  0  0  0
    0.7350   67.9240   66.0240 C   0  0  0  0  0  0  0  0  0  0  0  0
    2.2410   67.7580   65.9670 C   0  0  0  0  0  0  0  0  0  0  0  0
    2.7930   67.6960   64.5570 C   0  0  0  0  0  0  0  0  0  0  0  0
    2.0870   68.3500   63.5230 C   0  0  0  0  0  0  0  0  0  0  0  0
    2.6420   68.3240   62.2350 C   0  0  0  0  0  0  0  0  0  0  0  0
    3.8500   67.6670   61.9740 C   0  0  0  0  0  0  0  0  0  0  0  0
    4.5220   67.0100   62.9960 C   0  0  0  0  0  0  0  0  0  0  0  0
    3.9970   67.0190   64.2830 C   0  0  0  0  0  0  0  0  0  0  0  0
    2.9280   68.7960   66.8640 N   0  0  0  0  0  4  0  0  0  0  0  0
    3.9760   69.6350   66.1770 C   0  0  0  0  0  0  0  0  0  0  0  0
    5.0340   70.1110   67.1860 C   0  0  0  0  0  0  0  0  0  0  0  0
    4.3950   70.3320   68.8850 S   0  0  0  0  0  0  0  0  0  0  0  0
    2.6740   70.7550   68.4670 C   0  0  0  0  0  0  0  0  0  0  0  0
    1.9610   69.6330   67.6960 C   0  0  0  0  0  0  0  0  0  0  0  0
   -0.4587   70.5130   63.2499 H   0  0  0  0  0  0  0  0  0  0  0  0
    0.9448   70.2457   62.1612 H   0  0  0  0  0  0  0  0  0  0  0  0
   -0.4258   69.0847   62.1612 H   0  0  0  0  0  0  0  0  0  0  0  0
   -1.8447   69.2635   64.2453 H   0  0  0  0  0  0  0  0  0  0  0  0
   -3.1003   68.5070   66.2519 H   0  0  0  0  0  0  0  0  0  0  0  0
   -1.9166   67.3655   68.1206 H   0  0  0  0  0  0  0  0  0  0  0  0
    0.5422   66.9896   67.9814 H   0  0  0  0  0  0  0  0  0  0  0  0
    2.4823   66.7663   66.3772 H   0  0  0  0  0  0  0  0  0  0  0  0
    2.1165   68.8309   61.4123 H   0  0  0  0  0  0  0  0  0  0  0  0
    4.2681   67.6712   60.9565 H   0  0  0  0  0  0  0  0  0  0  0  0
    5.4658   66.4846   62.7881 H   0  0  0  0  0  0  0  0  0  0  0  0
    4.5253   66.4940   65.0925 H   0  0  0  0  0  0  0  0  0  0  0  0
    3.4518   68.2156   67.5345 H   0  0  0  0  0  0  0  0  0  0  0  0
    4.4654   69.0344   65.3961 H   0  0  0  0  0  0  0  0  0  0  0  0
    3.4897   70.5151   65.7308 H   0  0  0  0  0  0  0  0  0  0  0  0
    5.8437   69.3670   67.2150 H   0  0  0  0  0  0  0  0  0  0  0  0
    5.3781   71.0984   66.8444 H   0  0  0  0  0  0  0  0  0  0  0  0
    2.1222   70.9480   69.3988 H   0  0  0  0  0  0  0  0  0  0  0  0
    2.6970   71.6430   67.8182 H   0  0  0  0  0  0  0  0  0  0  0  0
    1.4542   68.9751   68.4173 H   0  0  0  0  0  0  0  0  0  0  0  0
    1.2436   70.1022   67.0066 H   0  0  0  0  0  0  0  0  0  0  0  0
  2  1  1  0
  3  2  1  0
  4  3  2  0
  5  4  1  0
  6  5  2  0
  7  6  1  0
  8  7  2  0
  8  3  1  0
  9  8  1  0
 10  9  1  0
 11 10  2  0
 11  2  1  0
 12 11  1  0
 13 12  2  0
 14 13  1  0
 15 10  1  0
 15 14  2  0
 16  9  1  0
 17 16  1  0
 18 17  1  0
 19 18  1  0
 20 19  1  0
 21 20  1  0
 21 16  1  0
  1 22  1  0
  1 23  1  0
  1 24  1  0
  4 25  1  0
  5 26  1  0
  6 27  1  0
  7 28  1  0
  9 29  1  0
 12 30  1  0
 13 31  1  0
 14 32  1  0
 15 33  1  0
 16 34  1  0
 17 35  1  0
 17 36  1  0
 18 37  1  0
 18 38  1  0
 20 39  1  0
 20 40  1  0
 21 41  1  0
 21 42  1  0
M  CHG  1  16   1
M  END
>  <score>  (2) 
-8.5

$$$$
=
     RDKit          3D

 42 45  0  0  0  0  0  0  0  0999 V2000
    4.4700   68.2350   64.8880 C   0  0  0  0  0  0  0  0  0  0  0  0
    3.3130   68.7040   65.6630 N   0  0  0  0  0  0  0  0  0  0  0  0
    3.5630   69.4540   66.8380 C   0  0  0  0  0  0  0  0  0  0  0  0
    4.8360   69.8900   67.2350 C   0  0  0  0  0  0  0  0  0  0  0  0
    5.0170   70.6420   68.4010 C   0  0  0  0  0  0  0  0  0  0  0  0
    3.9280   70.9800   69.1950 C   0  0  0  0  0  0  0  0  0  0  0  0
    2.6540   70.5650   68.8260 C   0  0  0  0  0  0  0  0  0  0  0  0
    2.4670   69.8060   67.6540 C   0  0  0  0  0  0  0  0  0  0  0  0
    1.0880   69.2940   67.2870 C   0  0  0  0  0  0  0  0  0  0  0  0
    0.9100   69.0350   65.8050 C   0  0  0  0  0  0  0  0  0  0  0  0
    2.0450   68.7020   65.0330 C   0  0  0  0  0  0  0  0  0  0  0  0
    1.8490   68.4160   63.6730 C   0  0  0  0  0  0  0  0  0  0  0  0
    0.5770   68.4660   63.0930 C   0  0  0  0  0  0  0  0  0  0  0  0
   -0.5270   68.8150   63.8580 C   0  0  0  0  0  0  0  0  0  0  0  0
   -0.3650   69.1040   65.2090 C   0  0  0  0  0  0  0  0  0  0  0  0
    0.7010   68.1090   68.1810 N   0  0  0  0  0  4  0  0  0  0  0  0
   -0.2650   67.1320   67.5590 C   0  0  0  0  0  0  0  0  0  0  0  0
   -1.0960   66.4280   68.6450 C   0  0  0  0  0  0  0  0  0  0  0  0
   -0.2260   66.2410   70.2420 S   0  0  0  0  0  0  0  0  0  0  0  0
    1.4780   66.1500   69.6070 C   0  0  0  0  0  0  0  0  0  0  0  0
    1.8910   67.4150   68.8410 C   0  0  0  0  0  0  0  0  0  0  0  0
    5.2656   67.9125   65.5757 H   0  0  0  0  0  0  0  0  0  0  0  0
    4.1678   67.3884   64.2541 H   0  0  0  0  0  0  0  0  0  0  0  0
    4.8427   69.0531   64.2541 H   0  0  0  0  0  0  0  0  0  0  0  0
    5.7097   69.6355   66.6170 H   0  0  0  0  0  0  0  0  0  0  0  0
    6.0270   70.9674   68.6907 H   0  0  0  0  0  0  0  0  0  0  0  0
    4.0734   71.5726   70.1103 H   0  0  0  0  0  0  0  0  0  0  0  0
    1.7887   70.8301   69.4512 H   0  0  0  0  0  0  0  0  0  0  0  0
    0.3689   70.1009   67.4913 H   0  0  0  0  0  0  0  0  0  0  0  0
    2.7144   68.1467   63.0496 H   0  0  0  0  0  0  0  0  0  0  0  0
    0.4514   68.2278   62.0265 H   0  0  0  0  0  0  0  0  0  0  0  0
   -1.5252   68.8629   63.3983 H   0  0  0  0  0  0  0  0  0  0  0  0
   -1.2374   69.3881   65.8157 H   0  0  0  0  0  0  0  0  0  0  0  0
    0.1718   68.5554   68.9436 H   0  0  0  0  0  0  0  0  0  0  0  0
   -0.9408   67.6736   66.8808 H   0  0  0  0  0  0  0  0  0  0  0  0
    0.3057   66.3745   67.0018 H   0  0  0  0  0  0  0  0  0  0  0  0
   -2.0104   67.0151   68.8158 H   0  0  0  0  0  0  0  0  0  0  0  0
   -1.3070   65.4132   68.2766 H   0  0  0  0  0  0  0  0  0  0  0  0
    2.1636   66.0128   70.4562 H   0  0  0  0  0  0  0  0  0  0  0  0
    1.5273   65.3045   68.9051 H   0  0  0  0  0  0  0  0  0  0  0  0
    2.3633   68.1161   69.5449 H   0  0  0  0  0  0  0  0  0  0  0  0
    2.5878   67.1134   68.0451 H   0  0  0  0  0  0  0  0  0  0  0  0
  2  1  1  0
  3  2  1  0
  4  3  2  0
  5  4  1  0
  6  5  2  0
  7  6  1  0
  8  7  2  0
  8  3  1  0
  9  8  1  0
 10  9  1  0
 11 10  2  0
 11  2  1  0
 12 11  1  0
 13 12  2  0
 14 13  1  0
 15 10  1  0
 15 14  2  0
 16  9  1  0
 17 16  1  0
 18 17  1  0
 19 18  1  0
 20 19  1  0
 21 20  1  0
 21 16  1  0
  1 22  1  0
  1 23  1  0
  1 24  1  0
  4 25  1  0
  5 26  1  0
  6 27  1  0
  7 28  1  0
  9 29  1  0
 12 30  1  0
 13 31  1  0
 14 32  1  0
 15 33  1  0
 16 34  1  0
 17 35  1  0
 17 36  1  0
 18 37  1  0
 18 38  1  0
 20 39  1  0
 20 40  1  0
 21 41  1  0
 21 42  1  0
M  CHG  1  16   1
M  END
>  <score>  (3) 
-7.818

$$$$
=
     RDKit          3D

 42 45  0  0  0  0  0  0  0  0999 V2000
    4.8070   62.0760   71.3860 C   0  0  0  0  0  0  0  0  0  0  0  0
    3.3900   61.9210   71.7470 N   0  0  0  0  0  0  0  0  0  0  0  0
    2.5010   62.9680   71.4020 C   0  0  0  0  0  0  0  0  0  0  0  0
    2.8600   64.0790   70.6250 C   0  0  0  0  0  0  0  0  0  0  0  0
    1.9300   65.0760   70.3060 C   0  0  0  0  0  0  0  0  0  0  0  0
    0.6180   64.9810   70.7530 C   0  0  0  0  0  0  0  0  0  0  0  0
    0.2320   63.8900   71.5230 C   0  0  0  0  0  0  0  0  0  0  0  0
    1.1650   62.8860   71.8490 C   0  0  0  0  0  0  0  0  0  0  0  0
    0.7630   61.7310   72.7450 C   0  0  0  0  0  0  0  0  0  0  0  0
    1.6000   60.4840   72.5430 C   0  0  0  0  0  0  0  0  0  0  0  0
    2.9270   60.6250   72.0790 C   0  0  0  0  0  0  0  0  0  0  0  0
    3.7000   59.4620   71.9480 C   0  0  0  0  0  0  0  0  0  0  0  0
    3.1790   58.2010   72.2560 C   0  0  0  0  0  0  0  0  0  0  0  0
    1.8670   58.0740   72.6910 C   0  0  0  0  0  0  0  0  0  0  0  0
    1.0750   59.2090   72.8310 C   0  0  0  0  0  0  0  0  0  0  0  0
    0.6710   62.1940   74.2050 N   0  0  0  0  0  4  0  0  0  0  0  0
   -0.7320   62.3360   74.7390 C   0  0  0  0  0  0  0  0  0  0  0  0
   -0.7800   63.3890   75.8580 C   0  0  0  0  0  0  0  0  0  0  0  0
    0.7730   63.5330   76.8110 S   0  0  0  0  0  0  0  0  0  0  0  0
    1.3570   61.8190   76.6260 C   0  0  0  0  0  0  0  0  0  0  0  0
    1.5850   61.4280   75.1580 C   0  0  0  0  0  0  0  0  0  0  0  0
    5.4134   62.1423   72.3013 H   0  0  0  0  0  0  0  0  0  0  0  0
    5.1315   61.2080   70.7933 H   0  0  0  0  0  0  0  0  0  0  0  0
    4.9361   62.9936   70.7933 H   0  0  0  0  0  0  0  0  0  0  0  0
    3.8933   64.1690   70.2587 H   0  0  0  0  0  0  0  0  0  0  0  0
    2.2398   65.9390   69.6983 H   0  0  0  0  0  0  0  0  0  0  0  0
   -0.1111   65.7646   70.4991 H   0  0  0  0  0  0  0  0  0  0  0  0
   -0.8057   63.8103   71.8791 H   0  0  0  0  0  0  0  0  0  0  0  0
   -0.2450   61.4107   72.4427 H   0  0  0  0  0  0  0  0  0  0  0  0
    4.7387   59.5434   71.5953 H   0  0  0  0  0  0  0  0  0  0  0  0
    3.8113   57.3068   72.1531 H   0  0  0  0  0  0  0  0  0  0  0  0
    1.4556   57.0808   72.9239 H   0  0  0  0  0  0  0  0  0  0  0  0
    0.0327   59.1103   73.1686 H   0  0  0  0  0  0  0  0  0  0  0  0
    1.0392   63.1552   74.1685 H   0  0  0  0  0  0  0  0  0  0  0  0
   -1.4003   62.6457   73.9220 H   0  0  0  0  0  0  0  0  0  0  0  0
   -1.0557   61.3677   75.1485 H   0  0  0  0  0  0  0  0  0  0  0  0
   -0.9989   64.3666   75.4038 H   0  0  0  0  0  0  0  0  0  0  0  0
   -1.5584   63.0664   76.5651 H   0  0  0  0  0  0  0  0  0  0  0  0
    2.3060   61.7093   77.1713 H   0  0  0  0  0  0  0  0  0  0  0  0
    0.5779   61.1560   77.0303 H   0  0  0  0  0  0  0  0  0  0  0  0
    2.6310   61.6422   74.8934 H   0  0  0  0  0  0  0  0  0  0  0  0
    1.3556   60.3571   75.0558 H   0  0  0  0  0  0  0  0  0  0  0  0
  2  1  1  0
  3  2  1  0
  4  3  2  0
  5  4  1  0
  6  5  2  0
  7  6  1  0
  8  7  2  0
  8  3  1  0
  9  8  1  0
 10  9  1  0
 11 10  2  0
 11  2  1  0
 12 11  1  0
 13 12  2  0
 14 13  1  0
 15 10  1  0
 15 14  2  0
 16  9  1  0
 17 16  1  0
 18 17  1  0
 19 18  1  0
 20 19  1  0
 21 20  1  0
 21 16  1  0
  1 22  1  0
  1 23  1  0
  1 24  1  0
  4 25  1  0
  5 26  1  0
  6 27  1  0
  7 28  1  0
  9 29  1  0
 12 30  1  0
 13 31  1  0
 14 32  1  0
 15 33  1  0
 16 34  1  0
 17 35  1  0
 17 36  1  0
 18 37  1  0
 18 38  1  0
 20 39  1  0
 20 40  1  0
 21 41  1  0
 21 42  1  0
M  CHG  1  16   1
M  END
>  <score>  (4) 
-7.686

$$$$
=
     RDKit          3D

 42 45  0  0  0  0  0  0  0  0999 V2000
    0.1760   63.6040   70.3100 C   0  0  0  0  0  0  0  0  0  0  0  0
    1.0400   62.9650   71.3130 N   0  0  0  0  0  0  0  0  0  0  0  0
    2.1840   62.2670   70.8550 C   0  0  0  0  0  0  0  0  0  0  0  0
    2.6150   62.2580   69.5200 C   0  0  0  0  0  0  0  0  0  0  0  0
    3.7640   61.5590   69.1300 C   0  0  0  0  0  0  0  0  0  0  0  0
    4.5100   60.8570   70.0690 C   0  0  0  0  0  0  0  0  0  0  0  0
    4.1090   60.8500   71.4000 C   0  0  0  0  0  0  0  0  0  0  0  0
    2.9530   61.5500   71.7960 C   0  0  0  0  0  0  0  0  0  0  0  0
    2.4760   61.4870   73.2340 C   0  0  0  0  0  0  0  0  0  0  0  0
    1.6410   62.6800   73.6510 C   0  0  0  0  0  0  0  0  0  0  0  0
    0.9030   63.3700   72.6640 C   0  0  0  0  0  0  0  0  0  0  0  0
    0.0960   64.4400   73.0800 C   0  0  0  0  0  0  0  0  0  0  0  0
    0.0270   64.8220   74.4240 C   0  0  0  0  0  0  0  0  0  0  0  0
    0.7730   64.1490   75.3810 C   0  0  0  0  0  0  0  0  0  0  0  0
    1.5830   63.0830   74.9990 C   0  0  0  0  0  0  0  0  0  0  0  0
    1.8190   60.1310   73.5210 N   0  0  0  0  0  4  0  0  0  0  0  0
    2.2800   59.4570   74.7890 C   0  0  0  0  0  0  0  0  0  0  0  0
    2.1440   57.9300   74.6700 C   0  0  0  0  0  0  0  0  0  0  0  0
    0.7850   57.3880   73.5730 S   0  0  0  0  0  0  0  0  0  0  0  0
   -0.3320   58.8050   73.8160 C   0  0  0  0  0  0  0  0  0  0  0  0
    0.2990   60.1360   73.3800 C   0  0  0  0  0  0  0  0  0  0  0  0
   -0.6084   64.1842   70.8180 H   0  0  0  0  0  0  0  0  0  0  0  0
    0.7790   64.2751   69.6807 H   0  0  0  0  0  0  0  0  0  0  0  0
   -0.2891   62.8309   69.6807 H   0  0  0  0  0  0  0  0  0  0  0  0
    2.0385   62.8114   68.7641 H   0  0  0  0  0  0  0  0  0  0  0  0
    4.0775   61.5656   68.0756 H   0  0  0  0  0  0  0  0  0  0  0  0
    5.4130   60.3098   69.7607 H   0  0  0  0  0  0  0  0  0  0  0  0
    4.6967   60.2957   72.1465 H   0  0  0  0  0  0  0  0  0  0  0  0
    3.3622   61.5601   73.8815 H   0  0  0  0  0  0  0  0  0  0  0  0
   -0.4951   64.9903   72.3331 H   0  0  0  0  0  0  0  0  0  0  0  0
   -0.6210   65.6590   74.7232 H   0  0  0  0  0  0  0  0  0  0  0  0
    0.7247   64.4561   76.4361 H   0  0  0  0  0  0  0  0  0  0  0  0
    2.1811   62.5525   75.7546 H   0  0  0  0  0  0  0  0  0  0  0  0
    2.1737   59.5341   72.7603 H   0  0  0  0  0  0  0  0  0  0  0  0
    3.3340   59.7130   74.9719 H   0  0  0  0  0  0  0  0  0  0  0  0
    1.6537   59.8050   75.6237 H   0  0  0  0  0  0  0  0  0  0  0  0
    3.0887   57.5283   74.2749 H   0  0  0  0  0  0  0  0  0  0  0  0
    1.9110   57.5517   75.6763 H   0  0  0  0  0  0  0  0  0  0  0  0
   -1.2457   58.6385   73.2266 H   0  0  0  0  0  0  0  0  0  0  0  0
   -0.5505   58.8764   74.8917 H   0  0  0  0  0  0  0  0  0  0  0  0
    0.0422   60.3208   72.3265 H   0  0  0  0  0  0  0  0  0  0  0  0
   -0.0968   60.9262   74.0349 H   0  0  0  0  0  0  0  0  0  0  0  0
  2  1  1  0
  3  2  1  0
  4  3  2  0
  5  4  1  0
  6  5  2  0
  7  6  1  0
  8  7  2  0
  8  3  1  0
  9  8  1  0
 10  9  1  0
 11 10  2  0
 11  2  1  0
 12 11  1  0
 13 12  2  0
 14 13  1  0
 15 10  1  0
 15 14  2  0
 16  9  1  0
 17 16  1  0
 18 17  1  0
 19 18  1  0
 20 19  1  0
 21 20  1  0
 21 16  1  0
  1 22  1  0
  1 23  1  0
  1 24  1  0
  4 25  1  0
  5 26  1  0
  6 27  1  0
  7 28  1  0
  9 29  1  0
 12 30  1  0
 13 31  1  0
 14 32  1  0
 15 33  1  0
 16 34  1  0
 17 35  1  0
 17 36  1  0
 18 37  1  0
 18 38  1  0
 20 39  1  0
 20 40  1  0
 21 41  1  0
 21 42  1  0
M  CHG  1  16   1
M  END
>  <score>  (5) 
-7.572

$$$$
=
     RDKit          3D

 42 45  0  0  0  0  0  0  0  0999 V2000
    1.4140   62.7420   72.3900 C   0  0  0  0  0  0  0  0  0  0  0  0
    1.2890   61.2900   72.5770 N   0  0  0  0  0  0  0  0  0  0  0  0
    0.1070   60.7990   73.1830 C   0  0  0  0  0  0  0  0  0  0  0  0
   -1.0050   61.5960   73.4940 C   0  0  0  0  0  0  0  0  0  0  0  0
   -2.1520   61.0490   74.0810 C   0  0  0  0  0  0  0  0  0  0  0  0
   -2.2150   59.6910   74.3650 C   0  0  0  0  0  0  0  0  0  0  0  0
   -1.1300   58.8750   74.0660 C   0  0  0  0  0  0  0  0  0  0  0  0
    0.0270   59.4220   73.4770 C   0  0  0  0  0  0  0  0  0  0  0  0
    1.2370   58.5460   73.2130 C   0  0  0  0  0  0  0  0  0  0  0  0
    2.1280   59.0590   72.1010 C   0  0  0  0  0  0  0  0  0  0  0  0
    2.1570   60.4470   71.8400 C   0  0  0  0  0  0  0  0  0  0  0  0
    3.0280   60.9060   70.8400 C   0  0  0  0  0  0  0  0  0  0  0  0
    3.8360   60.0230   70.1150 C   0  0  0  0  0  0  0  0  0  0  0  0
    3.7830   58.6600   70.3680 C   0  0  0  0  0  0  0  0  0  0  0  0
    2.9300   58.1740   71.3530 C   0  0  0  0  0  0  0  0  0  0  0  0
    1.9780   58.2480   74.5230 N   0  0  0  0  0  4  0  0  0  0  0  0
    1.9170   56.8100   74.9750 C   0  0  0  0  0  0  0  0  0  0  0  0
    2.0450   56.7190   76.5040 C   0  0  0  0  0  0  0  0  0  0  0  0
    3.0420   58.0590   77.2480 S   0  0  0  0  0  0  0  0  0  0  0  0
    4.1510   58.3770   75.8400 C   0  0  0  0  0  0  0  0  0  0  0  0
    3.3920   58.8190   74.5800 C   0  0  0  0  0  0  0  0  0  0  0  0
    1.4565   63.2358   73.3720 H   0  0  0  0  0  0  0  0  0  0  0  0
    2.3344   62.9616   71.8290 H   0  0  0  0  0  0  0  0  0  0  0  0
    0.5447   63.1156   71.8290 H   0  0  0  0  0  0  0  0  0  0  0  0
   -0.9749   62.6729   73.2720 H   0  0  0  0  0  0  0  0  0  0  0  0
   -3.0078   61.6980   74.3185 H   0  0  0  0  0  0  0  0  0  0  0  0
   -3.1186   59.2634   74.8241 H   0  0  0  0  0  0  0  0  0  0  0  0
   -1.1750   57.7990   74.2900 H   0  0  0  0  0  0  0  0  0  0  0  0
    0.8726   57.5846   72.8220 H   0  0  0  0  0  0  0  0  0  0  0  0
    3.0766   61.9830   70.6214 H   0  0  0  0  0  0  0  0  0  0  0  0
    4.5155   60.4110   69.3418 H   0  0  0  0  0  0  0  0  0  0  0  0
    4.4131   57.9665   69.7918 H   0  0  0  0  0  0  0  0  0  0  0  0
    2.8810   57.0928   71.5493 H   0  0  0  0  0  0  0  0  0  0  0  0
    1.4316   58.7694   75.2234 H   0  0  0  0  0  0  0  0  0  0  0  0
    0.9555   56.3741   74.6659 H   0  0  0  0  0  0  0  0  0  0  0  0
    2.7498   56.2576   74.5154 H   0  0  0  0  0  0  0  0  0  0  0  0
    1.0352   56.7571   76.9385 H   0  0  0  0  0  0  0  0  0  0  0  0
    2.5655   55.7753   76.7241 H   0  0  0  0  0  0  0  0  0  0  0  0
    4.8593   59.1702   76.1213 H   0  0  0  0  0  0  0  0  0  0  0  0
    4.6694   57.4359   75.6043 H   0  0  0  0  0  0  0  0  0  0  0  0
    3.3302   59.9172   74.5717 H   0  0  0  0  0  0  0  0  0  0  0  0
    3.9425   58.4400   73.7063 H   0  0  0  0  0  0  0  0  0  0  0  0
  2  1  1  0
  3  2  1  0
  4  3  2  0
  5  4  1  0
  6  5  2  0
  7  6  1  0
  8  7  2  0
  8  3  1  0
  9  8  1  0
 10  9  1  0
 11 10  2  0
 11  2  1  0
 12 11  1  0
 13 12  2  0
 14 13  1  0
 15 10  1  0
 15 14  2  0
 16  9  1  0
 17 16  1  0
 18 17  1  0
 19 18  1  0
 20 19  1  0
 21 20  1  0
 21 16  1  0
  1 22  1  0
  1 23  1  0
  1 24  1  0
  4 25  1  0
  5 26  1  0
  6 27  1  0
  7 28  1  0
  9 29  1  0
 12 30  1  0
 13 31  1  0
 14 32  1  0
 15 33  1  0
 16 34  1  0
 17 35  1  0
 17 36  1  0
 18 37  1  0
 18 38  1  0
 20 39  1  0
 20 40  1  0
 21 41  1  0
 21 42  1  0
M  CHG  1  16   1
M  END
>  <score>  (6) 
-7.272

$$$$
