=
     RDKit          3D

 23 23  0  0  0  0  0  0  0  0999 V2000
    3.0420   65.6930   64.8500 C   0  0  0  0  0  0  0  0  0  0  0  0
    3.3500   64.4010   65.2020 N   0  0  0  0  0  0  0  0  0  0  0  0
    4.1000   63.8380   64.2150 C   0  0  0  0  0  0  0  0  0  0  0  0
    4.3220   64.6890   63.2420 N   0  0  0  0  0  0  0  0  0  0  0  0
    3.6760   65.8700   63.6260 C   0  0  0  0  0  0  0  0  0  0  0  0
    3.7370   67.0680   62.7890 C   0  0  0  0  0  0  0  0  0  0  0  0
    4.0950   67.1180   61.6180 O   0  0  0  0  0  0  0  0  0  0  0  0
    3.3160   68.1960   63.4410 N   0  0  0  0  0  0  0  0  0  0  0  0
    1.1250   66.6510   65.3130 N   0  0  0  0  0  0  0  0  0  0  0  0
    2.2810   66.4180   65.7030 N   0  0  0  0  0  0  0  0  0  0  0  0
    1.0280   67.5420   67.4940 C   0  0  0  0  0  0  0  0  0  0  0  0
    0.3810   67.3870   66.2030 N   0  0  0  0  0  0  0  0  0  0  0  0
   -0.4060   68.5120   65.7240 C   0  0  0  0  0  0  0  0  0  0  0  0
    3.0600   63.9335   66.0728 H   0  0  0  0  0  0  0  0  0  0  0  0
    4.4718   62.8029   64.2315 H   0  0  0  0  0  0  0  0  0  0  0  0
    3.3140   69.1028   62.9525 H   0  0  0  0  0  0  0  0  0  0  0  0
    3.0013   68.1378   64.4200 H   0  0  0  0  0  0  0  0  0  0  0  0
    0.2948   67.3664   68.2950 H   0  0  0  0  0  0  0  0  0  0  0  0
    1.8488   66.8151   67.5824 H   0  0  0  0  0  0  0  0  0  0  0  0
    1.4304   68.5619   67.5824 H   0  0  0  0  0  0  0  0  0  0  0  0
   -0.8003   69.0756   66.5824 H   0  0  0  0  0  0  0  0  0  0  0  0
    0.2294   69.1705   65.1136 H   0  0  0  0  0  0  0  0  0  0  0  0
   -1.2425   68.1409   65.1136 H   0  0  0  0  0  0  0  0  0  0  0  0
  2  1  1  0
  3  2  1  0
  4  3  2  0
  5  4  1  0
  5  1  2  0
  6  5  1  0
  7  6  2  0
  8  6  1  0
 10  9  2  0
 10  1  1  0
 12  9  1  0
 12 11  1  0
 13 12  1  0
  2 14  1  0
  3 15  1  0
  8 16  1  0
  8 17  1  0
 11 18  1  0
 11 19  1  0
 11 20  1  0
 13 21  1  0
 13 22  1  0
 13 23  1  0
M  END
>  <score>  (1) 
-6.212

$$$$
=
     RDKit          3D

 23 23  0  0  0  0  0  0  0  0999 V2000
    4.6660   69.8130   66.5210 C   0  0  0  0  0  0  0  0  0  0  0  0
    5.9940   69.8730   66.1750 N   0  0  0  0  0  0  0  0  0  0  0  0
    6.7100   70.3240   67.2400 C   0  0  0  0  0  0  0  0  0  0  0  0
    5.9370   70.5460   68.2760 N   0  0  0  0  0  0  0  0  0  0  0  0
    4.6430   70.2180   67.8500 C   0  0  0  0  0  0  0  0  0  0  0  0
    3.5050   70.3100   68.7630 C   0  0  0  0  0  0  0  0  0  0  0  0
    3.5000   70.8430   69.8670 O   0  0  0  0  0  0  0  0  0  0  0  0
    2.3670   69.7440   68.2550 N   0  0  0  0  0  0  0  0  0  0  0  0
    3.3200   68.2600   65.7560 N   0  0  0  0  0  0  0  0  0  0  0  0
    3.7840   69.3990   65.5810 N   0  0  0  0  0  0  0  0  0  0  0  0
    2.1580   66.4460   64.7990 C   0  0  0  0  0  0  0  0  0  0  0  0
    2.4290   67.8730   64.7850 N   0  0  0  0  0  0  0  0  0  0  0  0
    1.3210   68.7480   64.4350 C   0  0  0  0  0  0  0  0  0  0  0  0
    6.3847   69.6176   65.2569 H   0  0  0  0  0  0  0  0  0  0  0  0
    7.7985   70.4823   67.2332 H   0  0  0  0  0  0  0  0  0  0  0  0
    1.4985   69.7479   68.8087 H   0  0  0  0  0  0  0  0  0  0  0  0
    2.3792   69.3141   67.3191 H   0  0  0  0  0  0  0  0  0  0  0  0
    2.0915   66.0956   65.8396 H   0  0  0  0  0  0  0  0  0  0  0  0
    1.2063   66.2484   64.2840 H   0  0  0  0  0  0  0  0  0  0  0  0
    2.9710   65.9133   64.2840 H   0  0  0  0  0  0  0  0  0  0  0  0
    0.8459   69.1232   65.3534 H   0  0  0  0  0  0  0  0  0  0  0  0
    1.6962   69.5961   63.8435 H   0  0  0  0  0  0  0  0  0  0  0  0
    0.5830   68.1864   63.8435 H   0  0  0  0  0  0  0  0  0  0  0  0
  2  1  1  0
  3  2  1  0
  4  3  2  0
  5  4  1  0
  5  1  2  0
  6  5  1  0
  7  6  2  0
  8  6  1  0
 10  9  2  0
 10  1  1  0
 12  9  1  0
 12 11  1  0
 13 12  1  0
  2 14  1  0
  3 15  1  0
  8 16  1  0
  8 17  1  0
 11 18  1  0
 11 19  1  0
 11 20  1  0
 13 21  1  0
 13 22  1  0
 13 23  1  0
M  END
>  <score>  (2) 
-5.889

$$$$
=
     RDKit          3D

 23 23  0  0  0  0  0  0  0  0999 V2000
   -1.3260   68.5880   65.7920 C   0  0  0  0  0  0  0  0  0  0  0  0
   -2.5920   69.0780   65.5760 N   0  0  0  0  0  0  0  0  0  0  0  0
   -3.4340   68.5580   66.5100 C   0  0  0  0  0  0  0  0  0  0  0  0
   -2.7960   67.7710   67.3430 N   0  0  0  0  0  0  0  0  0  0  0  0
   -1.4610   67.7840   66.9170 C   0  0  0  0  0  0  0  0  0  0  0  0
   -0.4340   67.0350   67.6400 C   0  0  0  0  0  0  0  0  0  0  0  0
   -0.6060   66.3390   68.6330 O   0  0  0  0  0  0  0  0  0  0  0  0
    0.8080   67.1560   67.0760 N   0  0  0  0  0  0  0  0  0  0  0  0
   -0.5830   68.8070   63.7410 N   0  0  0  0  0  0  0  0  0  0  0  0
   -0.3430   68.9790   64.9470 N   0  0  0  0  0  0  0  0  0  0  0  0
    1.6250   68.3920   63.0260 C   0  0  0  0  0  0  0  0  0  0  0  0
    0.4340   69.2150   62.9130 N   0  0  0  0  0  0  0  0  0  0  0  0
    0.1190   69.7380   61.5920 C   0  0  0  0  0  0  0  0  0  0  0  0
   -2.8601   69.7332   64.8278 H   0  0  0  0  0  0  0  0  0  0  0  0
   -4.5121   68.7706   66.5600 H   0  0  0  0  0  0  0  0  0  0  0  0
    1.6142   66.6726   67.4971 H   0  0  0  0  0  0  0  0  0  0  0  0
    0.9360   67.7304   66.2307 H   0  0  0  0  0  0  0  0  0  0  0  0
    1.8593   68.2301   64.0885 H   0  0  0  0  0  0  0  0  0  0  0  0
    1.4483   67.4223   62.5376 H   0  0  0  0  0  0  0  0  0  0  0  0
    2.4695   68.9001   62.5376 H   0  0  0  0  0  0  0  0  0  0  0  0
   -0.4461   70.6762   61.6943 H   0  0  0  0  0  0  0  0  0  0  0  0
    1.0519   69.9299   61.0416 H   0  0  0  0  0  0  0  0  0  0  0  0
   -0.4869   69.0032   61.0416 H   0  0  0  0  0  0  0  0  0  0  0  0
  2  1  1  0
  3  2  1  0
  4  3  2  0
  5  4  1  0
  5  1  2  0
  6  5  1  0
  7  6  2  0
  8  6  1  0
 10  9  2  0
 10  1  1  0
 12  9  1  0
 12 11  1  0
 13 12  1  0
  2 14  1  0
  3 15  1  0
  8 16  1  0
  8 17  1  0
 11 18  1  0
 11 19  1  0
 11 20  1  0
 13 21  1  0
 13 22  1  0
 13 23  1  0
M  END
>  <score>  (3) 
-5.776

$$$$
=
     RDKit          3D

 23 23  0  0  0  0  0  0  0  0999 V2000
   -0.2260   67.9530   65.6740 C   0  0  0  0  0  0  0  0  0  0  0  0
   -1.1610   68.7140   65.0130 N   0  0  0  0  0  0  0  0  0  0  0  0
   -2.2620   68.8470   65.8030 C   0  0  0  0  0  0  0  0  0  0  0  0
   -2.1010   68.2380   66.9530 N   0  0  0  0  0  0  0  0  0  0  0  0
   -0.8180   67.6770   66.9000 C   0  0  0  0  0  0  0  0  0  0  0  0
   -0.2720   66.9380   68.0380 C   0  0  0  0  0  0  0  0  0  0  0  0
   -0.8890   66.1740   68.7710 O   0  0  0  0  0  0  0  0  0  0  0  0
    1.0660   67.1580   68.2220 N   0  0  0  0  0  0  0  0  0  0  0  0
    1.3080   66.5070   65.0730 N   0  0  0  0  0  0  0  0  0  0  0  0
    0.9410   67.6930   65.0380 N   0  0  0  0  0  0  0  0  0  0  0  0
    3.3300   67.4620   64.3250 C   0  0  0  0  0  0  0  0  0  0  0  0
    2.4940   66.2770   64.4190 N   0  0  0  0  0  0  0  0  0  0  0  0
    3.1760   65.0040   64.5920 C   0  0  0  0  0  0  0  0  0  0  0  0
   -1.0471   69.1181   64.0725 H   0  0  0  0  0  0  0  0  0  0  0  0
   -3.1705   69.3953   65.5134 H   0  0  0  0  0  0  0  0  0  0  0  0
    1.5633   66.6913   68.9939 H   0  0  0  0  0  0  0  0  0  0  0  0
    1.5758   67.7903   67.5886 H   0  0  0  0  0  0  0  0  0  0  0  0
    3.5796   67.8158   65.3362 H   0  0  0  0  0  0  0  0  0  0  0  0
    4.2555   67.2158   63.7838 H   0  0  0  0  0  0  0  0  0  0  0  0
    2.7877   68.2513   63.7838 H   0  0  0  0  0  0  0  0  0  0  0  0
    3.2897   64.7918   65.6653 H   0  0  0  0  0  0  0  0  0  0  0  0
    2.5854   64.2046   64.1207 H   0  0  0  0  0  0  0  0  0  0  0  0
    4.1687   65.0529   64.1207 H   0  0  0  0  0  0  0  0  0  0  0  0
  2  1  1  0
  3  2  1  0
  4  3  2  0
  5  4  1  0
  5  1  2  0
  6  5  1  0
  7  6  2  0
  8  6  1  0
 10  9  2  0
 10  1  1  0
 12  9  1  0
 12 11  1  0
 13 12  1  0
  2 14  1  0
  3 15  1  0
  8 16  1  0
  8 17  1  0
 11 18  1  0
 11 19  1  0
 11 20  1  0
 13 21  1  0
 13 22  1  0
 13 23  1  0
M  END
>  <score>  (4) 
-5.765

$$$$
=
     RDKit          3D

 23 23  0  0  0  0  0  0  0  0999 V2000
    0.3200   68.6230   64.4040 C   0  0  0  0  0  0  0  0  0  0  0  0
   -0.6240   68.7740   63.4180 N   0  0  0  0  0  0  0  0  0  0  0  0
    0.0040   69.0310   62.2380 C   0  0  0  0  0  0  0  0  0  0  0  0
    1.3070   69.0380   62.3830 N   0  0  0  0  0  0  0  0  0  0  0  0
    1.5320   68.7700   63.7390 C   0  0  0  0  0  0  0  0  0  0  0  0
    2.8900   68.6660   64.2710 C   0  0  0  0  0  0  0  0  0  0  0  0
    3.9050   69.1330   63.7680 O   0  0  0  0  0  0  0  0  0  0  0  0
    2.9460   67.9860   65.4580 N   0  0  0  0  0  0  0  0  0  0  0  0
   -0.0610   67.1870   66.0160 N   0  0  0  0  0  0  0  0  0  0  0  0
   -0.1130   68.3770   65.6630 N   0  0  0  0  0  0  0  0  0  0  0  0
    0.4010   67.4860   68.3080 C   0  0  0  0  0  0  0  0  0  0  0  0
   -0.5070   66.9720   67.2980 N   0  0  0  0  0  0  0  0  0  0  0  0
   -1.9300   67.0570   67.5880 C   0  0  0  0  0  0  0  0  0  0  0  0
   -1.6431   68.7040   63.5501 H   0  0  0  0  0  0  0  0  0  0  0  0
   -0.5152   69.2099   61.2849 H   0  0  0  0  0  0  0  0  0  0  0  0
    3.8508   67.8483   65.9304 H   0  0  0  0  0  0  0  0  0  0  0  0
    2.0833   67.6121   65.8785 H   0  0  0  0  0  0  0  0  0  0  0  0
    0.0025   67.2604   69.3082 H   0  0  0  0  0  0  0  0  0  0  0  0
    1.3866   67.0119   68.1904 H   0  0  0  0  0  0  0  0  0  0  0  0
    0.5017   68.5751   68.1904 H   0  0  0  0  0  0  0  0  0  0  0  0
   -2.0823   67.0661   68.6774 H   0  0  0  0  0  0  0  0  0  0  0  0
   -2.3383   67.9811   67.1530 H   0  0  0  0  0  0  0  0  0  0  0  0
   -2.4454   66.1880   67.1530 H   0  0  0  0  0  0  0  0  0  0  0  0
  2  1  1  0
  3  2  1  0
  4  3  2  0
  5  4  1  0
  5  1  2  0
  6  5  1  0
  7  6  2  0
  8  6  1  0
 10  9  2  0
 10  1  1  0
 12  9  1  0
 12 11  1  0
 13 12  1  0
  2 14  1  0
  3 15  1  0
  8 16  1  0
  8 17  1  0
 11 18  1  0
 11 19  1  0
 11 20  1  0
 13 21  1  0
 13 22  1  0
 13 23  1  0
M  END
>  <score>  (5) 
-5.752

$$$$
=
     RDKit          3D

 23 23  0  0  0  0  0  0  0  0999 V2000
    1.4690   68.8010   64.0980 C   0  0  0  0  0  0  0  0  0  0  0  0
    1.0520   69.0500   62.8130 N   0  0  0  0  0  0  0  0  0  0  0  0
   -0.3010   68.9180   62.7520 C   0  0  0  0  0  0  0  0  0  0  0  0
   -0.8040   68.6180   63.9250 N   0  0  0  0  0  0  0  0  0  0  0  0
    0.2930   68.5510   64.7940 C   0  0  0  0  0  0  0  0  0  0  0  0
    0.1090   68.2670   66.2170 C   0  0  0  0  0  0  0  0  0  0  0  0
   -0.6650   68.8370   66.9770 O   0  0  0  0  0  0  0  0  0  0  0  0
    0.8970   67.2400   66.6610 N   0  0  0  0  0  0  0  0  0  0  0  0
    3.0930   69.2280   65.5080 N   0  0  0  0  0  0  0  0  0  0  0  0
    2.7960   68.8660   64.3570 N   0  0  0  0  0  0  0  0  0  0  0  0
    5.2190   69.5090   64.5280 C   0  0  0  0  0  0  0  0  0  0  0  0
    4.4460   69.2830   65.7370 N   0  0  0  0  0  0  0  0  0  0  0  0
    4.9440   69.8950   66.9600 C   0  0  0  0  0  0  0  0  0  0  0  0
    1.6648   69.2969   62.0228 H   0  0  0  0  0  0  0  0  0  0  0  0
   -0.8963   69.0465   61.8360 H   0  0  0  0  0  0  0  0  0  0  0  0
    0.8549   66.9481   67.6479 H   0  0  0  0  0  0  0  0  0  0  0  0
    1.5322   66.7589   66.0083 H   0  0  0  0  0  0  0  0  0  0  0  0
    6.2426   69.8083   64.7978 H   0  0  0  0  0  0  0  0  0  0  0  0
    5.2519   68.5829   63.9354 H   0  0  0  0  0  0  0  0  0  0  0  0
    4.7479   70.3070   63.9354 H   0  0  0  0  0  0  0  0  0  0  0  0
    4.5194   69.3732   67.8303 H   0  0  0  0  0  0  0  0  0  0  0  0
    6.0411   69.8203   66.9870 H   0  0  0  0  0  0  0  0  0  0  0  0
    4.6478   70.9540   66.9870 H   0  0  0  0  0  0  0  0  0  0  0  0
  2  1  1  0
  3  2  1  0
  4  3  2  0
  5  4  1  0
  5  1  2  0
  6  5  1  0
  7  6  2  0
  8  6  1  0
 10  9  2  0
 10  1  1  0
 12  9  1  0
 12 11  1  0
 13 12  1  0
  2 14  1  0
  3 15  1  0
  8 16  1  0
  8 17  1  0
 11 18  1  0
 11 19  1  0
 11 20  1  0
 13 21  1  0
 13 22  1  0
 13 23  1  0
M  END
>  <score>  (6) 
-5.501

$$$$
=
     RDKit          3D

 23 23  0  0  0  0  0  0  0  0999 V2000
    1.0650   67.3760   66.3970 C   0  0  0  0  0  0  0  0  0  0  0  0
   -0.2670   67.0480   66.3130 N   0  0  0  0  0  0  0  0  0  0  0  0
   -1.0000   68.0070   66.9400 C   0  0  0  0  0  0  0  0  0  0  0  0
   -0.2340   68.9590   67.4150 N   0  0  0  0  0  0  0  0  0  0  0  0
    1.0730   68.5900   67.0730 C   0  0  0  0  0  0  0  0  0  0  0  0
    2.2100   69.4440   67.4150 C   0  0  0  0  0  0  0  0  0  0  0  0
    3.2750   69.5100   66.8130 O   0  0  0  0  0  0  0  0  0  0  0  0
    1.9750   70.2300   68.5110 N   0  0  0  0  0  0  0  0  0  0  0  0
    2.3880   66.8670   64.7240 N   0  0  0  0  0  0  0  0  0  0  0  0
    1.9630   66.5280   65.8410 N   0  0  0  0  0  0  0  0  0  0  0  0
    4.5350   66.6250   63.7800 C   0  0  0  0  0  0  0  0  0  0  0  0
    3.2970   65.9860   64.1900 N   0  0  0  0  0  0  0  0  0  0  0  0
    3.4010   64.6410   64.7360 C   0  0  0  0  0  0  0  0  0  0  0  0
   -0.6487   66.2109   65.8499 H   0  0  0  0  0  0  0  0  0  0  0  0
   -2.0956   67.9864   67.0362 H   0  0  0  0  0  0  0  0  0  0  0  0
    2.7040   70.8748   68.8482 H   0  0  0  0  0  0  0  0  0  0  0  0
    1.0692   70.1765   68.9984 H   0  0  0  0  0  0  0  0  0  0  0  0
    5.1077   66.9206   64.6714 H   0  0  0  0  0  0  0  0  0  0  0  0
    5.1294   65.9211   63.1790 H   0  0  0  0  0  0  0  0  0  0  0  0
    4.3055   67.5173   63.1790 H   0  0  0  0  0  0  0  0  0  0  0  0
    3.3972   64.6901   65.8349 H   0  0  0  0  0  0  0  0  0  0  0  0
    2.5467   64.0389   64.3929 H   0  0  0  0  0  0  0  0  0  0  0  0
    4.3377   64.1774   64.3929 H   0  0  0  0  0  0  0  0  0  0  0  0
  2  1  1  0
  3  2  1  0
  4  3  2  0
  5  4  1  0
  5  1  2  0
  6  5  1  0
  7  6  2  0
  8  6  1  0
 10  9  2  0
 10  1  1  0
 12  9  1  0
 12 11  1  0
 13 12  1  0
  2 14  1  0
  3 15  1  0
  8 16  1  0
  8 17  1  0
 11 18  1  0
 11 19  1  0
 11 20  1  0
 13 21  1  0
 13 22  1  0
 13 23  1  0
M  END
>  <score>  (7) 
-5.48

$$$$
=
     RDKit          3D

 23 23  0  0  0  0  0  0  0  0999 V2000
    3.4780   68.2870   64.9700 C   0  0  0  0  0  0  0  0  0  0  0  0
    4.1730   69.4470   64.7230 N   0  0  0  0  0  0  0  0  0  0  0  0
    5.1660   69.1870   63.8300 C   0  0  0  0  0  0  0  0  0  0  0  0
    5.1540   67.9300   63.4560 N   0  0  0  0  0  0  0  0  0  0  0  0
    4.0890   67.3450   64.1520 C   0  0  0  0  0  0  0  0  0  0  0  0
    3.7470   65.9370   63.9580 C   0  0  0  0  0  0  0  0  0  0  0  0
    4.2600   65.1690   63.1530 O   0  0  0  0  0  0  0  0  0  0  0  0
    2.7670   65.5040   64.8110 N   0  0  0  0  0  0  0  0  0  0  0  0
    1.3210   68.4000   65.3460 N   0  0  0  0  0  0  0  0  0  0  0  0
    2.4530   68.3390   65.8530 N   0  0  0  0  0  0  0  0  0  0  0  0
   -0.9720   68.8260   65.6900 C   0  0  0  0  0  0  0  0  0  0  0  0
    0.3050   68.4500   66.2700 N   0  0  0  0  0  0  0  0  0  0  0  0
    0.2740   67.4850   67.3580 C   0  0  0  0  0  0  0  0  0  0  0  0
    3.9741   70.3649   65.1458 H   0  0  0  0  0  0  0  0  0  0  0  0
    5.8866   69.9352   63.4681 H   0  0  0  0  0  0  0  0  0  0  0  0
    2.4417   64.5277   64.7685 H   0  0  0  0  0  0  0  0  0  0  0  0
    2.3553   66.1547   65.4951 H   0  0  0  0  0  0  0  0  0  0  0  0
   -1.6918   69.0379   66.4943 H   0  0  0  0  0  0  0  0  0  0  0  0
   -0.8421   69.7240   65.0682 H   0  0  0  0  0  0  0  0  0  0  0  0
   -1.3495   68.0009   65.0682 H   0  0  0  0  0  0  0  0  0  0  0  0
    0.2911   68.0171   68.3206 H   0  0  0  0  0  0  0  0  0  0  0  0
   -0.6439   66.8829   67.2881 H   0  0  0  0  0  0  0  0  0  0  0  0
    1.1514   66.8253   67.2881 H   0  0  0  0  0  0  0  0  0  0  0  0
  2  1  1  0
  3  2  1  0
  4  3  2  0
  5  4  1  0
  5  1  2  0
  6  5  1  0
  7  6  2  0
  8  6  1  0
 10  9  2  0
 10  1  1  0
 12  9  1  0
 12 11  1  0
 13 12  1  0
  2 14  1  0
  3 15  1  0
  8 16  1  0
  8 17  1  0
 11 18  1  0
 11 19  1  0
 11 20  1  0
 13 21  1  0
 13 22  1  0
 13 23  1  0
M  END
>  <score>  (8) 
-5.248

$$$$
=
     RDKit          3D

 23 23  0  0  0  0  0  0  0  0999 V2000
    0.1650   68.7430   64.8510 C   0  0  0  0  0  0  0  0  0  0  0  0
   -1.1430   69.0220   64.5350 N   0  0  0  0  0  0  0  0  0  0  0  0
   -1.9330   68.7090   65.5980 C   0  0  0  0  0  0  0  0  0  0  0  0
   -1.2220   68.2600   66.6040 N   0  0  0  0  0  0  0  0  0  0  0  0
    0.1070   68.2840   66.1610 C   0  0  0  0  0  0  0  0  0  0  0  0
    1.2010   67.8790   67.0410 C   0  0  0  0  0  0  0  0  0  0  0  0
    1.1670   66.9830   67.8770 O   0  0  0  0  0  0  0  0  0  0  0  0
    2.3460   68.6000   66.8350 N   0  0  0  0  0  0  0  0  0  0  0  0
    1.9430   68.0670   63.7610 N   0  0  0  0  0  0  0  0  0  0  0  0
    1.1070   68.9740   63.9070 N   0  0  0  0  0  0  0  0  0  0  0  0
    2.3040   68.8320   61.5600 C   0  0  0  0  0  0  0  0  0  0  0  0
    2.8830   68.3330   62.7950 N   0  0  0  0  0  0  0  0  0  0  0  0
    4.1760   68.8760   63.1810 C   0  0  0  0  0  0  0  0  0  0  0  0
   -1.4724   69.4062   63.6379 H   0  0  0  0  0  0  0  0  0  0  0  0
   -3.0274   68.8186   65.6115 H   0  0  0  0  0  0  0  0  0  0  0  0
    3.1862   68.4040   67.3976 H   0  0  0  0  0  0  0  0  0  0  0  0
    2.3674   69.3386   66.1174 H   0  0  0  0  0  0  0  0  0  0  0  0
    1.4898   69.5337   61.7940 H   0  0  0  0  0  0  0  0  0  0  0  0
    3.0782   69.3505   60.9753 H   0  0  0  0  0  0  0  0  0  0  0  0
    1.9055   67.9898   60.9753 H   0  0  0  0  0  0  0  0  0  0  0  0
    4.2482   68.9063   64.2782 H   0  0  0  0  0  0  0  0  0  0  0  0
    4.9766   68.2381   62.7784 H   0  0  0  0  0  0  0  0  0  0  0  0
    4.2811   69.8943   62.7784 H   0  0  0  0  0  0  0  0  0  0  0  0
  2  1  1  0
  3  2  1  0
  4  3  2  0
  5  4  1  0
  5  1  2  0
  6  5  1  0
  7  6  2  0
  8  6  1  0
 10  9  2  0
 10  1  1  0
 12  9  1  0
 12 11  1  0
 13 12  1  0
  2 14  1  0
  3 15  1  0
  8 16  1  0
  8 17  1  0
 11 18  1  0
 11 19  1  0
 11 20  1  0
 13 21  1  0
 13 22  1  0
 13 23  1  0
M  END
>  <score>  (9) 
-5.247

$$$$
