=
     RDKit          3D

 43 45  0  0  0  0  0  0  0  0999 V2000
    1.7220   69.0370   65.8090 C   0  0  0  0  0  0  0  0  0  0  0  0
    2.9980   68.5820   65.7980 C   0  0  0  0  0  0  0  0  0  0  0  0
    3.3780   67.4480   64.9350 C   0  0  0  0  0  0  0  0  0  0  0  0
    3.0150   66.1290   65.2170 C   0  0  0  0  0  0  0  0  0  0  0  0
    3.3850   65.1050   64.3420 C   0  0  0  0  0  0  0  0  0  0  0  0
    4.1190   65.3920   63.1870 C   0  0  0  0  0  0  0  0  0  0  0  0
    4.4990   66.7040   62.9060 C   0  0  0  0  0  0  0  0  0  0  0  0
    4.1440   67.7150   63.7940 C   0  0  0  0  0  0  0  0  0  0  0  0
    4.4860   69.0140   63.5100 O   0  0  0  0  0  0  0  0  0  0  0  0
    5.5660   69.4190   64.3770 C   0  0  0  0  0  0  0  0  0  0  0  0
    5.1930   69.8370   65.7920 C   0  0  0  0  0  0  0  0  0  0  0  0
    4.0250   69.4220   66.4690 C   0  0  0  0  0  0  0  0  0  0  0  0
    3.8410   69.7950   67.8160 C   0  0  0  0  0  0  0  0  0  0  0  0
    4.7780   70.5880   68.4770 C   0  0  0  0  0  0  0  0  0  0  0  0
    5.9200   71.0100   67.8090 C   0  0  0  0  0  0  0  0  0  0  0  0
    6.1300   70.6320   66.4840 C   0  0  0  0  0  0  0  0  0  0  0  0
    0.5340   68.5090   65.0450 C   0  0  0  0  0  0  0  0  0  0  0  0
   -0.7770   68.7360   65.8130 C   0  0  0  0  0  0  0  0  0  0  0  0
   -0.2910   67.2500   67.7900 C   0  0  0  0  0  0  0  0  0  0  0  0
   -1.1810   67.5060   66.6070 N   0  0  0  0  0  4  0  0  0  0  0  0
   -2.6280   67.5300   67.0010 C   0  0  0  0  0  0  0  0  0  0  0  0
    1.5276   69.9030   66.4588 H   0  0  0  0  0  0  0  0  0  0  0  0
    2.4395   65.8974   66.1254 H   0  0  0  0  0  0  0  0  0  0  0  0
    3.0972   64.0665   64.5629 H   0  0  0  0  0  0  0  0  0  0  0  0
    4.3974   64.5808   62.4982 H   0  0  0  0  0  0  0  0  0  0  0  0
    5.0711   66.9364   61.9956 H   0  0  0  0  0  0  0  0  0  0  0  0
    6.2655   68.5735   64.4537 H   0  0  0  0  0  0  0  0  0  0  0  0
    5.9837   70.3238   63.9113 H   0  0  0  0  0  0  0  0  0  0  0  0
    2.9439   69.4550   68.3541 H   0  0  0  0  0  0  0  0  0  0  0  0
    4.6131   70.8787   69.5250 H   0  0  0  0  0  0  0  0  0  0  0  0
    6.6580   71.6418   68.3250 H   0  0  0  0  0  0  0  0  0  0  0  0
    7.0444   70.9601   65.9680 H   0  0  0  0  0  0  0  0  0  0  0  0
    0.4743   69.0257   64.0758 H   0  0  0  0  0  0  0  0  0  0  0  0
    0.6681   67.4263   64.9046 H   0  0  0  0  0  0  0  0  0  0  0  0
   -0.6431   69.5798   66.5058 H   0  0  0  0  0  0  0  0  0  0  0  0
   -1.5709   68.9493   65.0821 H   0  0  0  0  0  0  0  0  0  0  0  0
   -0.8586   67.4133   68.7180 H   0  0  0  0  0  0  0  0  0  0  0  0
    0.0703   66.2115   67.7591 H   0  0  0  0  0  0  0  0  0  0  0  0
    0.5669   67.9378   67.7591 H   0  0  0  0  0  0  0  0  0  0  0  0
   -1.0518   66.7098   65.9665 H   0  0  0  0  0  0  0  0  0  0  0  0
   -2.7093   67.5313   68.0980 H   0  0  0  0  0  0  0  0  0  0  0  0
   -3.1030   68.4361   66.5970 H   0  0  0  0  0  0  0  0  0  0  0  0
   -3.1328   66.6401   66.5970 H   0  0  0  0  0  0  0  0  0  0  0  0
  2  1  2  0
  3  2  1  0
  4  3  2  0
  5  4  1  0
  6  5  2  0
  7  6  1  0
  8  7  2  0
  8  3  1  0
  9  8  1  0
 10  9  1  0
 11 10  1  0
 12 11  2  0
 12  2  1  0
 13 12  1  0
 14 13  2  0
 15 14  1  0
 16 11  1  0
 16 15  2  0
 17  1  1  0
 18 17  1  0
 20 19  1  0
 20 18  1  0
 21 20  1  0
  1 22  1  0
  4 23  1  0
  5 24  1  0
  6 25  1  0
  7 26  1  0
 10 27  1  0
 10 28  1  0
 13 29  1  0
 14 30  1  0
 15 31  1  0
 16 32  1  0
 17 33  1  0
 17 34  1  0
 18 35  1  0
 18 36  1  0
 19 37  1  0
 19 38  1  0
 19 39  1  0
 20 40  1  0
 21 41  1  0
 21 42  1  0
 21 43  1  0
M  CHG  1  20   1
M  END
>  <score>  (1) 
-10.365

$$$$
=
     RDKit          3D

 43 45  0  0  0  0  0  0  0  0999 V2000
    1.3060   68.8500   65.2920 C   0  0  0  0  0  0  0  0  0  0  0  0
    2.5130   68.3710   65.6740 C   0  0  0  0  0  0  0  0  0  0  0  0
    3.1140   67.2190   64.9750 C   0  0  0  0  0  0  0  0  0  0  0  0
    2.6530   65.9110   65.1390 C   0  0  0  0  0  0  0  0  0  0  0  0
    3.2510   64.8700   64.4250 C   0  0  0  0  0  0  0  0  0  0  0  0
    4.3090   65.1290   63.5500 C   0  0  0  0  0  0  0  0  0  0  0  0
    4.7860   66.4300   63.3920 C   0  0  0  0  0  0  0  0  0  0  0  0
    4.1990   67.4580   64.1230 C   0  0  0  0  0  0  0  0  0  0  0  0
    4.6410   68.7460   63.9510 O   0  0  0  0  0  0  0  0  0  0  0  0
    5.4110   69.1400   65.1050 C   0  0  0  0  0  0  0  0  0  0  0  0
    4.6310   69.5820   66.3350 C   0  0  0  0  0  0  0  0  0  0  0  0
    3.3030   69.1980   66.6240 C   0  0  0  0  0  0  0  0  0  0  0  0
    2.7240   69.5900   67.8470 C   0  0  0  0  0  0  0  0  0  0  0  0
    3.4310   70.3730   68.7600 C   0  0  0  0  0  0  0  0  0  0  0  0
    4.7310   70.7650   68.4730 C   0  0  0  0  0  0  0  0  0  0  0  0
    5.3290   70.3660   67.2770 C   0  0  0  0  0  0  0  0  0  0  0  0
    0.3980   68.3370   64.2020 C   0  0  0  0  0  0  0  0  0  0  0  0
    0.0560   69.4370   63.1870 C   0  0  0  0  0  0  0  0  0  0  0  0
   -0.0540   69.9790   60.7270 C   0  0  0  0  0  0  0  0  0  0  0  0
    0.4910   69.0570   61.7820 N   0  0  0  0  0  4  0  0  0  0  0  0
    1.9780   68.9060   61.6650 C   0  0  0  0  0  0  0  0  0  0  0  0
    0.9402   69.7259   65.8478 H   0  0  0  0  0  0  0  0  0  0  0  0
    1.8217   65.7012   65.8282 H   0  0  0  0  0  0  0  0  0  0  0  0
    2.8867   63.8399   64.5524 H   0  0  0  0  0  0  0  0  0  0  0  0
    4.7671   64.3044   62.9841 H   0  0  0  0  0  0  0  0  0  0  0  0
    5.6143   66.6403   62.6995 H   0  0  0  0  0  0  0  0  0  0  0  0
    6.0343   68.2821   65.3973 H   0  0  0  0  0  0  0  0  0  0  0  0
    5.9714   70.0309   64.7853 H   0  0  0  0  0  0  0  0  0  0  0  0
    1.6979   69.2736   68.0860 H   0  0  0  0  0  0  0  0  0  0  0  0
    2.9590   70.6790   69.7053 H   0  0  0  0  0  0  0  0  0  0  0  0
    5.2888   71.3889   69.1868 H   0  0  0  0  0  0  0  0  0  0  0  0
    6.3650   70.6688   67.0648 H   0  0  0  0  0  0  0  0  0  0  0  0
    0.9010   67.5112   63.6775 H   0  0  0  0  0  0  0  0  0  0  0  0
   -0.5383   67.9947   64.6669 H   0  0  0  0  0  0  0  0  0  0  0  0
   -1.0317   69.6013   63.1917 H   0  0  0  0  0  0  0  0  0  0  0  0
    0.5930   70.3520   63.4776 H   0  0  0  0  0  0  0  0  0  0  0  0
   -0.5573   70.8304   61.2085 H   0  0  0  0  0  0  0  0  0  0  0  0
    0.7714   70.3476   60.1003 H   0  0  0  0  0  0  0  0  0  0  0  0
   -0.7749   69.4336   60.1003 H   0  0  0  0  0  0  0  0  0  0  0  0
    0.0748   68.1314   61.6059 H   0  0  0  0  0  0  0  0  0  0  0  0
    2.4222   68.8609   62.6703 H   0  0  0  0  0  0  0  0  0  0  0  0
    2.2107   67.9796   61.1194 H   0  0  0  0  0  0  0  0  0  0  0  0
    2.3922   69.7667   61.1194 H   0  0  0  0  0  0  0  0  0  0  0  0
  2  1  2  0
  3  2  1  0
  4  3  2  0
  5  4  1  0
  6  5  2  0
  7  6  1  0
  8  7  2  0
  8  3  1  0
  9  8  1  0
 10  9  1  0
 11 10  1  0
 12 11  2  0
 12  2  1  0
 13 12  1  0
 14 13  2  0
 15 14  1  0
 16 11  1  0
 16 15  2  0
 17  1  1  0
 18 17  1  0
 20 19  1  0
 20 18  1  0
 21 20  1  0
  1 22  1  0
  4 23  1  0
  5 24  1  0
  6 25  1  0
  7 26  1  0
 10 27  1  0
 10 28  1  0
 13 29  1  0
 14 30  1  0
 15 31  1  0
 16 32  1  0
 17 33  1  0
 17 34  1  0
 18 35  1  0
 18 36  1  0
 19 37  1  0
 19 38  1  0
 19 39  1  0
 20 40  1  0
 21 41  1  0
 21 42  1  0
 21 43  1  0
M  CHG  1  20   1
M  END
>  <score>  (2) 
-10.338

$$$$
=
     RDKit          3D

 43 45  0  0  0  0  0  0  0  0999 V2000
    1.5010   67.5290   65.9120 C   0  0  0  0  0  0  0  0  0  0  0  0
    2.1610   68.5020   65.2410 C   0  0  0  0  0  0  0  0  0  0  0  0
    3.4560   69.0050   65.7380 C   0  0  0  0  0  0  0  0  0  0  0  0
    3.5650   69.8380   66.8540 C   0  0  0  0  0  0  0  0  0  0  0  0
    4.8250   70.2560   67.2870 C   0  0  0  0  0  0  0  0  0  0  0  0
    5.9770   69.8470   66.6110 C   0  0  0  0  0  0  0  0  0  0  0  0
    5.8770   69.0280   65.4870 C   0  0  0  0  0  0  0  0  0  0  0  0
    4.6160   68.6340   65.0490 C   0  0  0  0  0  0  0  0  0  0  0  0
    4.5090   67.8010   63.9620 O   0  0  0  0  0  0  0  0  0  0  0  0
    4.0340   68.5590   62.8310 C   0  0  0  0  0  0  0  0  0  0  0  0
    2.5370   68.8270   62.7620 C   0  0  0  0  0  0  0  0  0  0  0  0
    1.6720   68.8400   63.8780 C   0  0  0  0  0  0  0  0  0  0  0  0
    0.3220   69.2020   63.6980 C   0  0  0  0  0  0  0  0  0  0  0  0
   -0.1760   69.5180   62.4350 C   0  0  0  0  0  0  0  0  0  0  0  0
    0.6680   69.4920   61.3330 C   0  0  0  0  0  0  0  0  0  0  0  0
    2.0120   69.1580   61.4950 C   0  0  0  0  0  0  0  0  0  0  0  0
    1.8940   66.8490   67.2000 C   0  0  0  0  0  0  0  0  0  0  0  0
    1.0720   67.3720   68.3880 C   0  0  0  0  0  0  0  0  0  0  0  0
    0.0090   66.0850   70.2770 C   0  0  0  0  0  0  0  0  0  0  0  0
   -0.0020   66.3810   68.8040 N   0  0  0  0  0  4  0  0  0  0  0  0
   -1.3670   66.7880   68.3350 C   0  0  0  0  0  0  0  0  0  0  0  0
    0.5569   67.1908   65.4600 H   0  0  0  0  0  0  0  0  0  0  0  0
    2.6613   70.1636   67.3899 H   0  0  0  0  0  0  0  0  0  0  0  0
    4.9110   70.9116   68.1661 H   0  0  0  0  0  0  0  0  0  0  0  0
    6.9659   70.1720   66.9665 H   0  0  0  0  0  0  0  0  0  0  0  0
    6.7812   68.6982   64.9544 H   0  0  0  0  0  0  0  0  0  0  0  0
    4.5457   69.5326   62.8448 H   0  0  0  0  0  0  0  0  0  0  0  0
    4.2544   67.9336   61.9533 H   0  0  0  0  0  0  0  0  0  0  0  0
   -0.3498   69.2357   64.5684 H   0  0  0  0  0  0  0  0  0  0  0  0
   -1.2354   69.7874   62.3117 H   0  0  0  0  0  0  0  0  0  0  0  0
    0.2771   69.7345   60.3338 H   0  0  0  0  0  0  0  0  0  0  0  0
    2.6759   69.1525   60.6179 H   0  0  0  0  0  0  0  0  0  0  0  0
    1.7259   65.7667   67.0982 H   0  0  0  0  0  0  0  0  0  0  0  0
    2.9551   67.0647   67.3937 H   0  0  0  0  0  0  0  0  0  0  0  0
    1.7462   67.5462   69.2395 H   0  0  0  0  0  0  0  0  0  0  0  0
    0.5784   68.3057   68.0806 H   0  0  0  0  0  0  0  0  0  0  0  0
   -0.0261   67.0288   70.8409 H   0  0  0  0  0  0  0  0  0  0  0  0
   -0.8670   65.4714   70.5342 H   0  0  0  0  0  0  0  0  0  0  0  0
    0.9281   65.5381   70.5342 H   0  0  0  0  0  0  0  0  0  0  0  0
    0.2357   65.4999   68.3264 H   0  0  0  0  0  0  0  0  0  0  0  0
   -2.0116   66.9802   69.2054 H   0  0  0  0  0  0  0  0  0  0  0  0
   -1.2887   67.7019   67.7278 H   0  0  0  0  0  0  0  0  0  0  0  0
   -1.8020   65.9805   67.7278 H   0  0  0  0  0  0  0  0  0  0  0  0
  2  1  2  0
  3  2  1  0
  4  3  2  0
  5  4  1  0
  6  5  2  0
  7  6  1  0
  8  7  2  0
  8  3  1  0
  9  8  1  0
 10  9  1  0
 11 10  1  0
 12 11  2  0
 12  2  1  0
 13 12  1  0
 14 13  2  0
 15 14  1  0
 16 11  1  0
 16 15  2  0
 17  1  1  0
 18 17  1  0
 20 19  1  0
 20 18  1  0
 21 20  1  0
  1 22  1  0
  4 23  1  0
  5 24  1  0
  6 25  1  0
  7 26  1  0
 10 27  1  0
 10 28  1  0
 13 29  1  0
 14 30  1  0
 15 31  1  0
 16 32  1  0
 17 33  1  0
 17 34  1  0
 18 35  1  0
 18 36  1  0
 19 37  1  0
 19 38  1  0
 19 39  1  0
 20 40  1  0
 21 41  1  0
 21 42  1  0
 21 43  1  0
M  CHG  1  20   1
M  END
>  <score>  (3) 
-9.306

$$$$
=
     RDKit          3D

 43 45  0  0  0  0  0  0  0  0999 V2000
    2.5190   67.8240   66.1030 C   0  0  0  0  0  0  0  0  0  0  0  0
    2.3630   67.2800   64.8730 C   0  0  0  0  0  0  0  0  0  0  0  0
    1.6270   68.0100   63.8230 C   0  0  0  0  0  0  0  0  0  0  0  0
    0.2380   68.1470   63.8310 C   0  0  0  0  0  0  0  0  0  0  0  0
   -0.3930   68.8740   62.8190 C   0  0  0  0  0  0  0  0  0  0  0  0
    0.3570   69.4640   61.7980 C   0  0  0  0  0  0  0  0  0  0  0  0
    1.7440   69.3200   61.7740 C   0  0  0  0  0  0  0  0  0  0  0  0
    2.3620   68.5750   62.7740 C   0  0  0  0  0  0  0  0  0  0  0  0
    3.7300   68.4540   62.7770 O   0  0  0  0  0  0  0  0  0  0  0  0
    4.0870   67.1200   62.3600 C   0  0  0  0  0  0  0  0  0  0  0  0
    3.9970   66.0220   63.4100 C   0  0  0  0  0  0  0  0  0  0  0  0
    3.1720   66.0740   64.5550 C   0  0  0  0  0  0  0  0  0  0  0  0
    3.0980   64.9490   65.4020 C   0  0  0  0  0  0  0  0  0  0  0  0
    3.8480   63.8020   65.1410 C   0  0  0  0  0  0  0  0  0  0  0  0
    4.6710   63.7540   64.0250 C   0  0  0  0  0  0  0  0  0  0  0  0
    4.7390   64.8490   63.1640 C   0  0  0  0  0  0  0  0  0  0  0  0
    1.9950   69.1410   66.6170 C   0  0  0  0  0  0  0  0  0  0  0  0
    0.8070   68.9430   67.5710 C   0  0  0  0  0  0  0  0  0  0  0  0
    0.8490   66.9990   69.1740 C   0  0  0  0  0  0  0  0  0  0  0  0
    0.5050   67.4710   67.7900 N   0  0  0  0  0  4  0  0  0  0  0  0
   -0.9050   67.1160   67.4220 C   0  0  0  0  0  0  0  0  0  0  0  0
    3.1034   67.2283   66.8197 H   0  0  0  0  0  0  0  0  0  0  0  0
   -0.3577   67.6840   64.6315 H   0  0  0  0  0  0  0  0  0  0  0  0
   -1.4876   68.9829   62.8257 H   0  0  0  0  0  0  0  0  0  0  0  0
   -0.1480   70.0435   61.0112 H   0  0  0  0  0  0  0  0  0  0  0  0
    2.3403   69.7881   60.9769 H   0  0  0  0  0  0  0  0  0  0  0  0
    3.4203   66.8417   61.5305 H   0  0  0  0  0  0  0  0  0  0  0  0
    5.1536   67.1780   62.0972 H   0  0  0  0  0  0  0  0  0  0  0  0
    2.4387   64.9762   66.2821 H   0  0  0  0  0  0  0  0  0  0  0  0
    3.7870   62.9375   65.8185 H   0  0  0  0  0  0  0  0  0  0  0  0
    5.2689   62.8538   63.8197 H   0  0  0  0  0  0  0  0  0  0  0  0
    5.3847   64.7963   62.2750 H   0  0  0  0  0  0  0  0  0  0  0  0
    2.8017   69.6610   67.1544 H   0  0  0  0  0  0  0  0  0  0  0  0
    1.6506   69.7338   65.7568 H   0  0  0  0  0  0  0  0  0  0  0  0
    1.0460   69.4063   68.5396 H   0  0  0  0  0  0  0  0  0  0  0  0
   -0.0792   69.4124   67.1189 H   0  0  0  0  0  0  0  0  0  0  0  0
    0.3702   67.6560   69.9150 H   0  0  0  0  0  0  0  0  0  0  0  0
    0.4885   65.9687   69.3102 H   0  0  0  0  0  0  0  0  0  0  0  0
    1.9402   67.0267   69.3102 H   0  0  0  0  0  0  0  0  0  0  0  0
    1.1267   66.9631   67.1446 H   0  0  0  0  0  0  0  0  0  0  0  0
   -1.4965   66.9671   68.3374 H   0  0  0  0  0  0  0  0  0  0  0  0
   -1.3456   67.9312   66.8293 H   0  0  0  0  0  0  0  0  0  0  0  0
   -0.9070   66.1893   66.8293 H   0  0  0  0  0  0  0  0  0  0  0  0
  2  1  2  0
  3  2  1  0
  4  3  2  0
  5  4  1  0
  6  5  2  0
  7  6  1  0
  8  7  2  0
  8  3  1  0
  9  8  1  0
 10  9  1  0
 11 10  1  0
 12 11  2  0
 12  2  1  0
 13 12  1  0
 14 13  2  0
 15 14  1  0
 16 11  1  0
 16 15  2  0
 17  1  1  0
 18 17  1  0
 20 19  1  0
 20 18  1  0
 21 20  1  0
  1 22  1  0
  4 23  1  0
  5 24  1  0
  6 25  1  0
  7 26  1  0
 10 27  1  0
 10 28  1  0
 13 29  1  0
 14 30  1  0
 15 31  1  0
 16 32  1  0
 17 33  1  0
 17 34  1  0
 18 35  1  0
 18 36  1  0
 19 37  1  0
 19 38  1  0
 19 39  1  0
 20 40  1  0
 21 41  1  0
 21 42  1  0
 21 43  1  0
M  CHG  1  20   1
M  END
>  <score>  (4) 
-9.031

$$$$
=
     RDKit          3D

 43 45  0  0  0  0  0  0  0  0999 V2000
    2.7280   67.8860   65.9440 C   0  0  0  0  0  0  0  0  0  0  0  0
    2.5590   67.2840   64.7430 C   0  0  0  0  0  0  0  0  0  0  0  0
    1.9100   68.0040   63.6310 C   0  0  0  0  0  0  0  0  0  0  0  0
    0.5360   68.2510   63.5910 C   0  0  0  0  0  0  0  0  0  0  0  0
   -0.0100   68.9630   62.5200 C   0  0  0  0  0  0  0  0  0  0  0  0
    0.8110   69.4290   61.4890 C   0  0  0  0  0  0  0  0  0  0  0  0
    2.1820   69.1750   61.5140 C   0  0  0  0  0  0  0  0  0  0  0  0
    2.7130   68.4450   62.5730 C   0  0  0  0  0  0  0  0  0  0  0  0
    4.0670   68.2160   62.6230 O   0  0  0  0  0  0  0  0  0  0  0  0
    4.3250   66.8360   62.2940 C   0  0  0  0  0  0  0  0  0  0  0  0
    4.1210   65.8140   63.4040 C   0  0  0  0  0  0  0  0  0  0  0  0
    3.2750   66.0000   64.5200 C   0  0  0  0  0  0  0  0  0  0  0  0
    3.0910   64.9380   65.4280 C   0  0  0  0  0  0  0  0  0  0  0  0
    3.7520   63.7220   65.2560 C   0  0  0  0  0  0  0  0  0  0  0  0
    4.5960   63.5410   64.1690 C   0  0  0  0  0  0  0  0  0  0  0  0
    4.7720   64.5730   63.2470 C   0  0  0  0  0  0  0  0  0  0  0  0
    2.3000   69.2700   66.3650 C   0  0  0  0  0  0  0  0  0  0  0  0
    2.5340   69.5010   67.8650 C   0  0  0  0  0  0  0  0  0  0  0  0
    4.8000   70.0680   66.9190 C   0  0  0  0  0  0  0  0  0  0  0  0
    3.9840   69.8440   68.1600 N   0  0  0  0  0  4  0  0  0  0  0  0
    4.1160   70.9870   69.1210 C   0  0  0  0  0  0  0  0  0  0  0  0
    3.2435   67.2894   66.7111 H   0  0  0  0  0  0  0  0  0  0  0  0
   -0.1141   67.8862   64.3999 H   0  0  0  0  0  0  0  0  0  0  0  0
   -1.0921   69.1580   62.4879 H   0  0  0  0  0  0  0  0  0  0  0  0
    0.3741   69.9980   60.6551 H   0  0  0  0  0  0  0  0  0  0  0  0
    2.8335   69.5460   60.7091 H   0  0  0  0  0  0  0  0  0  0  0  0
    3.6581   66.5620   61.4632 H   0  0  0  0  0  0  0  0  0  0  0  0
    5.3986   66.7931   62.0581 H   0  0  0  0  0  0  0  0  0  0  0  0
    2.4154   65.0702   66.2859 H   0  0  0  0  0  0  0  0  0  0  0  0
    3.6047   62.9076   65.9806 H   0  0  0  0  0  0  0  0  0  0  0  0
    5.1249   62.5859   64.0349 H   0  0  0  0  0  0  0  0  0  0  0  0
    5.4314   64.4156   62.3807 H   0  0  0  0  0  0  0  0  0  0  0  0
    2.8786   70.0117   65.7948 H   0  0  0  0  0  0  0  0  0  0  0  0
    1.2235   69.3737   66.1642 H   0  0  0  0  0  0  0  0  0  0  0  0
    1.8955   70.3309   68.2020 H   0  0  0  0  0  0  0  0  0  0  0  0
    2.2856   68.5716   68.3984 H   0  0  0  0  0  0  0  0  0  0  0  0
    5.8255   70.3495   67.2003 H   0  0  0  0  0  0  0  0  0  0  0  0
    4.8238   69.1432   66.3239 H   0  0  0  0  0  0  0  0  0  0  0  0
    4.3483   70.8754   66.3239 H   0  0  0  0  0  0  0  0  0  0  0  0
    4.3768   69.0108   68.6209 H   0  0  0  0  0  0  0  0  0  0  0  0
    4.0720   70.6061   70.1520 H   0  0  0  0  0  0  0  0  0  0  0  0
    5.0786   71.4937   68.9581 H   0  0  0  0  0  0  0  0  0  0  0  0
    3.2942   71.6998   68.9581 H   0  0  0  0  0  0  0  0  0  0  0  0
  2  1  2  0
  3  2  1  0
  4  3  2  0
  5  4  1  0
  6  5  2  0
  7  6  1  0
  8  7  2  0
  8  3  1  0
  9  8  1  0
 10  9  1  0
 11 10  1  0
 12 11  2  0
 12  2  1  0
 13 12  1  0
 14 13  2  0
 15 14  1  0
 16 11  1  0
 16 15  2  0
 17  1  1  0
 18 17  1  0
 20 19  1  0
 20 18  1  0
 21 20  1  0
  1 22  1  0
  4 23  1  0
  5 24  1  0
  6 25  1  0
  7 26  1  0
 10 27  1  0
 10 28  1  0
 13 29  1  0
 14 30  1  0
 15 31  1  0
 16 32  1  0
 17 33  1  0
 17 34  1  0
 18 35  1  0
 18 36  1  0
 19 37  1  0
 19 38  1  0
 19 39  1  0
 20 40  1  0
 21 41  1  0
 21 42  1  0
 21 43  1  0
M  CHG  1  20   1
M  END
>  <score>  (5) 
-8.74

$$$$
=
     RDKit          3D

 43 45  0  0  0  0  0  0  0  0999 V2000
    0.4810   63.8720   71.4820 C   0  0  0  0  0  0  0  0  0  0  0  0
    0.9120   62.6040   71.6780 C   0  0  0  0  0  0  0  0  0  0  0  0
    2.1850   62.1480   71.0860 C   0  0  0  0  0  0  0  0  0  0  0  0
    2.3320   61.8830   69.7230 C   0  0  0  0  0  0  0  0  0  0  0  0
    3.5730   61.4800   69.2250 C   0  0  0  0  0  0  0  0  0  0  0  0
    4.6680   61.3400   70.0830 C   0  0  0  0  0  0  0  0  0  0  0  0
    4.5260   61.5880   71.4480 C   0  0  0  0  0  0  0  0  0  0  0  0
    3.2800   61.9670   71.9390 C   0  0  0  0  0  0  0  0  0  0  0  0
    3.1380   62.2440   73.2760 O   0  0  0  0  0  0  0  0  0  0  0  0
    2.4190   61.1650   73.9080 C   0  0  0  0  0  0  0  0  0  0  0  0
    0.9040   61.1650   73.7570 C   0  0  0  0  0  0  0  0  0  0  0  0
    0.2030   61.7960   72.7050 C   0  0  0  0  0  0  0  0  0  0  0  0
   -1.1940   61.6380   72.6180 C   0  0  0  0  0  0  0  0  0  0  0  0
   -1.8950   60.8950   73.5670 C   0  0  0  0  0  0  0  0  0  0  0  0
   -1.2110   60.2860   74.6110 C   0  0  0  0  0  0  0  0  0  0  0  0
    0.1750   60.4120   74.7000 C   0  0  0  0  0  0  0  0  0  0  0  0
    1.1300   64.9660   70.6700 C   0  0  0  0  0  0  0  0  0  0  0  0
    0.1160   66.0480   70.2700 C   0  0  0  0  0  0  0  0  0  0  0  0
   -1.0010   66.8480   68.1570 C   0  0  0  0  0  0  0  0  0  0  0  0
    0.2930   66.4740   68.8220 N   0  0  0  0  0  4  0  0  0  0  0  0
    1.3250   67.5500   68.6650 C   0  0  0  0  0  0  0  0  0  0  0  0
   -0.4636   64.1394   71.9783 H   0  0  0  0  0  0  0  0  0  0  0  0
    1.4735   61.9913   69.0439 H   0  0  0  0  0  0  0  0  0  0  0  0
    3.6896   61.2715   68.1513 H   0  0  0  0  0  0  0  0  0  0  0  0
    5.6445   61.0333   69.6801 H   0  0  0  0  0  0  0  0  0  0  0  0
    5.3858   61.4856   72.1264 H   0  0  0  0  0  0  0  0  0  0  0  0
    2.7951   60.2221   73.4844 H   0  0  0  0  0  0  0  0  0  0  0  0
    2.5997   61.2925   74.9855 H   0  0  0  0  0  0  0  0  0  0  0  0
   -1.7409   62.1086   71.7877 H   0  0  0  0  0  0  0  0  0  0  0  0
   -2.9873   60.7914   73.4890 H   0  0  0  0  0  0  0  0  0  0  0  0
   -1.7613   59.7055   75.3661 H   0  0  0  0  0  0  0  0  0  0  0  0
    0.7100   59.9141   75.5221 H   0  0  0  0  0  0  0  0  0  0  0  0
    1.9290   65.4287   71.2679 H   0  0  0  0  0  0  0  0  0  0  0  0
    1.5371   64.5184   69.7513 H   0  0  0  0  0  0  0  0  0  0  0  0
   -0.9010   65.6506   70.4032 H   0  0  0  0  0  0  0  0  0  0  0  0
    0.2816   66.9275   70.9096 H   0  0  0  0  0  0  0  0  0  0  0  0
   -1.7579   67.0668   68.9246 H   0  0  0  0  0  0  0  0  0  0  0  0
   -0.8469   67.7384   67.5297 H   0  0  0  0  0  0  0  0  0  0  0  0
   -1.3457   66.0127   67.5297 H   0  0  0  0  0  0  0  0  0  0  0  0
    0.6446   65.6404   68.3297 H   0  0  0  0  0  0  0  0  0  0  0  0
    1.6526   67.8916   69.6580 H   0  0  0  0  0  0  0  0  0  0  0  0
    2.1880   67.1523   68.1109 H   0  0  0  0  0  0  0  0  0  0  0  0
    0.8916   68.3957   68.1109 H   0  0  0  0  0  0  0  0  0  0  0  0
  2  1  2  0
  3  2  1  0
  4  3  2  0
  5  4  1  0
  6  5  2  0
  7  6  1  0
  8  7  2  0
  8  3  1  0
  9  8  1  0
 10  9  1  0
 11 10  1  0
 12 11  2  0
 12  2  1  0
 13 12  1  0
 14 13  2  0
 15 14  1  0
 16 11  1  0
 16 15  2  0
 17  1  1  0
 18 17  1  0
 20 19  1  0
 20 18  1  0
 21 20  1  0
  1 22  1  0
  4 23  1  0
  5 24  1  0
  6 25  1  0
  7 26  1  0
 10 27  1  0
 10 28  1  0
 13 29  1  0
 14 30  1  0
 15 31  1  0
 16 32  1  0
 17 33  1  0
 17 34  1  0
 18 35  1  0
 18 36  1  0
 19 37  1  0
 19 38  1  0
 19 39  1  0
 20 40  1  0
 21 41  1  0
 21 42  1  0
 21 43  1  0
M  CHG  1  20   1
M  END
>  <score>  (6) 
-8.197

$$$$
=
     RDKit          3D

 43 45  0  0  0  0  0  0  0  0999 V2000
    1.8460   61.6130   74.0630 C   0  0  0  0  0  0  0  0  0  0  0  0
    1.8420   61.5290   72.7120 C   0  0  0  0  0  0  0  0  0  0  0  0
    1.5770   62.7250   71.8900 C   0  0  0  0  0  0  0  0  0  0  0  0
    0.3050   63.2870   71.7620 C   0  0  0  0  0  0  0  0  0  0  0  0
    0.1300   64.4380   70.9890 C   0  0  0  0  0  0  0  0  0  0  0  0
    1.2190   65.0290   70.3440 C   0  0  0  0  0  0  0  0  0  0  0  0
    2.4910   64.4660   70.4550 C   0  0  0  0  0  0  0  0  0  0  0  0
    2.6520   63.3070   71.2080 C   0  0  0  0  0  0  0  0  0  0  0  0
    3.9050   62.7630   71.3490 O   0  0  0  0  0  0  0  0  0  0  0  0
    3.9940   61.5670   70.5480 C   0  0  0  0  0  0  0  0  0  0  0  0
    3.3880   60.3000   71.1340 C   0  0  0  0  0  0  0  0  0  0  0  0
    2.3640   60.2750   72.1060 C   0  0  0  0  0  0  0  0  0  0  0  0
    1.8140   59.0380   72.4950 C   0  0  0  0  0  0  0  0  0  0  0  0
    2.2830   57.8400   71.9560 C   0  0  0  0  0  0  0  0  0  0  0  0
    3.3000   57.8600   71.0100 C   0  0  0  0  0  0  0  0  0  0  0  0
    3.8400   59.0770   70.5970 C   0  0  0  0  0  0  0  0  0  0  0  0
    1.5740   62.8190   74.9260 C   0  0  0  0  0  0  0  0  0  0  0  0
    0.2450   62.6830   75.6840 C   0  0  0  0  0  0  0  0  0  0  0  0
   -1.7180   64.0720   76.4390 C   0  0  0  0  0  0  0  0  0  0  0  0
   -0.7050   63.8220   75.3570 N   0  0  0  0  0  4  0  0  0  0  0  0
    0.0180   65.0790   74.9790 C   0  0  0  0  0  0  0  0  0  0  0  0
    2.0775   60.6815   74.6004 H   0  0  0  0  0  0  0  0  0  0  0  0
   -0.5559   62.8254   72.2677 H   0  0  0  0  0  0  0  0  0  0  0  0
   -0.8716   64.8814   70.8878 H   0  0  0  0  0  0  0  0  0  0  0  0
    1.0734   65.9411   69.7467 H   0  0  0  0  0  0  0  0  0  0  0  0
    3.3532   64.9313   69.9549 H   0  0  0  0  0  0  0  0  0  0  0  0
    3.4859   61.7677   69.5933 H   0  0  0  0  0  0  0  0  0  0  0  0
    5.0706   61.3577   70.4633 H   0  0  0  0  0  0  0  0  0  0  0  0
    1.0013   59.0164   73.2360 H   0  0  0  0  0  0  0  0  0  0  0  0
    1.8488   56.8823   72.2791 H   0  0  0  0  0  0  0  0  0  0  0  0
    3.6785   56.9175   70.5876 H   0  0  0  0  0  0  0  0  0  0  0  0
    4.6349   59.0834   69.8367 H   0  0  0  0  0  0  0  0  0  0  0  0
    2.3910   62.9284   75.6544 H   0  0  0  0  0  0  0  0  0  0  0  0
    1.5092   63.7020   74.2732 H   0  0  0  0  0  0  0  0  0  0  0  0
   -0.2296   61.7309   75.4041 H   0  0  0  0  0  0  0  0  0  0  0  0
    0.4597   62.7133   76.7624 H   0  0  0  0  0  0  0  0  0  0  0  0
   -1.2403   63.9541   77.4228 H   0  0  0  0  0  0  0  0  0  0  0  0
   -2.1123   65.0944   76.3430 H   0  0  0  0  0  0  0  0  0  0  0  0
   -2.5427   63.3504   76.3430 H   0  0  0  0  0  0  0  0  0  0  0  0
   -1.2319   63.5122   74.5280 H   0  0  0  0  0  0  0  0  0  0  0  0
    0.3253   65.6133   75.8901 H   0  0  0  0  0  0  0  0  0  0  0  0
    0.9082   64.8254   74.3847 H   0  0  0  0  0  0  0  0  0  0  0  0
   -0.6489   65.7210   74.3847 H   0  0  0  0  0  0  0  0  0  0  0  0
  2  1  2  0
  3  2  1  0
  4  3  2  0
  5  4  1  0
  6  5  2  0
  7  6  1  0
  8  7  2  0
  8  3  1  0
  9  8  1  0
 10  9  1  0
 11 10  1  0
 12 11  2  0
 12  2  1  0
 13 12  1  0
 14 13  2  0
 15 14  1  0
 16 11  1  0
 16 15  2  0
 17  1  1  0
 18 17  1  0
 20 19  1  0
 20 18  1  0
 21 20  1  0
  1 22  1  0
  4 23  1  0
  5 24  1  0
  6 25  1  0
  7 26  1  0
 10 27  1  0
 10 28  1  0
 13 29  1  0
 14 30  1  0
 15 31  1  0
 16 32  1  0
 17 33  1  0
 17 34  1  0
 18 35  1  0
 18 36  1  0
 19 37  1  0
 19 38  1  0
 19 39  1  0
 20 40  1  0
 21 41  1  0
 21 42  1  0
 21 43  1  0
M  CHG  1  20   1
M  END
>  <score>  (7) 
-7.966

$$$$
=
     RDKit          3D

 43 45  0  0  0  0  0  0  0  0999 V2000
    1.3550   63.6450   70.8360 C   0  0  0  0  0  0  0  0  0  0  0  0
    1.5910   62.8690   71.9200 C   0  0  0  0  0  0  0  0  0  0  0  0
    0.8480   63.0940   73.1750 C   0  0  0  0  0  0  0  0  0  0  0  0
    1.0990   64.1790   74.0170 C   0  0  0  0  0  0  0  0  0  0  0  0
    0.3390   64.3470   75.1770 C   0  0  0  0  0  0  0  0  0  0  0  0
   -0.6700   63.4350   75.5000 C   0  0  0  0  0  0  0  0  0  0  0  0
   -0.9170   62.3410   74.6710 C   0  0  0  0  0  0  0  0  0  0  0  0
   -0.1410   62.1690   73.5300 C   0  0  0  0  0  0  0  0  0  0  0  0
   -0.3970   61.1120   72.6910 O   0  0  0  0  0  0  0  0  0  0  0  0
    0.6390   60.1220   72.8480 C   0  0  0  0  0  0  0  0  0  0  0  0
    1.9490   60.3740   72.1140 C   0  0  0  0  0  0  0  0  0  0  0  0
    2.4140   61.6470   71.7160 C   0  0  0  0  0  0  0  0  0  0  0  0
    3.6910   61.7620   71.1330 C   0  0  0  0  0  0  0  0  0  0  0  0
    4.4880   60.6380   70.9190 C   0  0  0  0  0  0  0  0  0  0  0  0
    4.0280   59.3830   71.2950 C   0  0  0  0  0  0  0  0  0  0  0  0
    2.7760   59.2530   71.8940 C   0  0  0  0  0  0  0  0  0  0  0  0
    0.4030   64.8070   70.7060 C   0  0  0  0  0  0  0  0  0  0  0  0
    1.1200   66.0720   70.2110 C   0  0  0  0  0  0  0  0  0  0  0  0
   -0.8670   66.5080   68.7230 C   0  0  0  0  0  0  0  0  0  0  0  0
    0.6310   66.4900   68.8350 N   0  0  0  0  0  4  0  0  0  0  0  0
    1.2330   67.7880   68.3850 C   0  0  0  0  0  0  0  0  0  0  0  0
    1.9323   63.3955   69.9335 H   0  0  0  0  0  0  0  0  0  0  0  0
    1.8924   64.8990   73.7679 H   0  0  0  0  0  0  0  0  0  0  0  0
    0.5357   65.2022   75.8403 H   0  0  0  0  0  0  0  0  0  0  0  0
   -1.2705   63.5805   76.4101 H   0  0  0  0  0  0  0  0  0  0  0  0
   -1.7145   61.6242   74.9163 H   0  0  0  0  0  0  0  0  0  0  0  0
    0.8683   60.0481   73.9213 H   0  0  0  0  0  0  0  0  0  0  0  0
    0.2301   59.2050   72.3986 H   0  0  0  0  0  0  0  0  0  0  0  0
    4.0656   62.7544   70.8418 H   0  0  0  0  0  0  0  0  0  0  0  0
    5.4788   60.7453   70.4534 H   0  0  0  0  0  0  0  0  0  0  0  0
    4.6504   58.4930   71.1205 H   0  0  0  0  0  0  0  0  0  0  0  0
    2.4262   58.2564   72.2012 H   0  0  0  0  0  0  0  0  0  0  0  0
   -0.3885   64.5417   69.9897 H   0  0  0  0  0  0  0  0  0  0  0  0
   -0.0207   65.0177   71.6990 H   0  0  0  0  0  0  0  0  0  0  0  0
    0.9306   66.8906   70.9210 H   0  0  0  0  0  0  0  0  0  0  0  0
    2.1957   65.8528   70.1418 H   0  0  0  0  0  0  0  0  0  0  0  0
   -1.3099   66.5133   69.7299 H   0  0  0  0  0  0  0  0  0  0  0  0
   -1.1832   67.4100   68.1786 H   0  0  0  0  0  0  0  0  0  0  0  0
   -1.2048   65.6138   68.1786 H   0  0  0  0  0  0  0  0  0  0  0  0
    0.9634   65.7590   68.1900 H   0  0  0  0  0  0  0  0  0  0  0  0
    1.5111   68.3876   69.2643 H   0  0  0  0  0  0  0  0  0  0  0  0
    2.1295   67.5863   67.7803 H   0  0  0  0  0  0  0  0  0  0  0  0
    0.4999   68.3421   67.7803 H   0  0  0  0  0  0  0  0  0  0  0  0
  2  1  2  0
  3  2  1  0
  4  3  2  0
  5  4  1  0
  6  5  2  0
  7  6  1  0
  8  7  2  0
  8  3  1  0
  9  8  1  0
 10  9  1  0
 11 10  1  0
 12 11  2  0
 12  2  1  0
 13 12  1  0
 14 13  2  0
 15 14  1  0
 16 11  1  0
 16 15  2  0
 17  1  1  0
 18 17  1  0
 20 19  1  0
 20 18  1  0
 21 20  1  0
  1 22  1  0
  4 23  1  0
  5 24  1  0
  6 25  1  0
  7 26  1  0
 10 27  1  0
 10 28  1  0
 13 29  1  0
 14 30  1  0
 15 31  1  0
 16 32  1  0
 17 33  1  0
 17 34  1  0
 18 35  1  0
 18 36  1  0
 19 37  1  0
 19 38  1  0
 19 39  1  0
 20 40  1  0
 21 41  1  0
 21 42  1  0
 21 43  1  0
M  CHG  1  20   1
M  END
>  <score>  (8) 
-7.614

$$$$
=
     RDKit          3D

 43 45  0  0  0  0  0  0  0  0999 V2000
    1.3440   62.0850   74.1860 C   0  0  0  0  0  0  0  0  0  0  0  0
    1.8040   61.4160   73.1030 C   0  0  0  0  0  0  0  0  0  0  0  0
    2.6370   62.1050   72.0980 C   0  0  0  0  0  0  0  0  0  0  0  0
    2.1150   63.0240   71.1860 C   0  0  0  0  0  0  0  0  0  0  0  0
    2.9650   63.6610   70.2790 C   0  0  0  0  0  0  0  0  0  0  0  0
    4.3340   63.3830   70.2780 C   0  0  0  0  0  0  0  0  0  0  0  0
    4.8620   62.4550   71.1760 C   0  0  0  0  0  0  0  0  0  0  0  0
    4.0040   61.8090   72.0610 C   0  0  0  0  0  0  0  0  0  0  0  0
    4.5190   60.9170   72.9700 O   0  0  0  0  0  0  0  0  0  0  0  0
    4.1790   59.5770   72.5610 C   0  0  0  0  0  0  0  0  0  0  0  0
    2.7750   59.0910   72.8940 C   0  0  0  0  0  0  0  0  0  0  0  0
    1.6630   59.9360   73.1070 C   0  0  0  0  0  0  0  0  0  0  0  0
    0.3920   59.3630   73.3080 C   0  0  0  0  0  0  0  0  0  0  0  0
    0.2210   57.9790   73.3270 C   0  0  0  0  0  0  0  0  0  0  0  0
    1.3140   57.1450   73.1320 C   0  0  0  0  0  0  0  0  0  0  0  0
    2.5760   57.6950   72.9100 C   0  0  0  0  0  0  0  0  0  0  0  0
    1.5370   63.5390   74.5400 C   0  0  0  0  0  0  0  0  0  0  0  0
    0.1930   64.2460   74.7730 C   0  0  0  0  0  0  0  0  0  0  0  0
   -1.3860   63.5520   76.6100 C   0  0  0  0  0  0  0  0  0  0  0  0
   -0.1490   64.3250   76.2510 N   0  0  0  0  0  4  0  0  0  0  0  0
    1.0090   63.9500   77.1260 C   0  0  0  0  0  0  0  0  0  0  0  0
    0.7534   61.4923   74.9001 H   0  0  0  0  0  0  0  0  0  0  0  0
    1.0376   63.2458   71.1817 H   0  0  0  0  0  0  0  0  0  0  0  0
    2.5539   64.3860   69.5611 H   0  0  0  0  0  0  0  0  0  0  0  0
    4.9976   63.8972   69.5672 H   0  0  0  0  0  0  0  0  0  0  0  0
    5.9402   62.2372   71.1844 H   0  0  0  0  0  0  0  0  0  0  0  0
    4.2995   59.5221   71.4690 H   0  0  0  0  0  0  0  0  0  0  0  0
    4.8526   58.9225   73.1337 H   0  0  0  0  0  0  0  0  0  0  0  0
   -0.4800   60.0179   73.4523 H   0  0  0  0  0  0  0  0  0  0  0  0
   -0.7773   57.5491   73.4961 H   0  0  0  0  0  0  0  0  0  0  0  0
    1.1846   56.0528   73.1526 H   0  0  0  0  0  0  0  0  0  0  0  0
    3.4336   57.0265   72.7440 H   0  0  0  0  0  0  0  0  0  0  0  0
    2.1399   63.6063   75.4576 H   0  0  0  0  0  0  0  0  0  0  0  0
    2.0456   64.0338   73.6995 H   0  0  0  0  0  0  0  0  0  0  0  0
    0.2508   65.2659   74.3651 H   0  0  0  0  0  0  0  0  0  0  0  0
   -0.5932   63.6649   74.2687 H   0  0  0  0  0  0  0  0  0  0  0  0
   -1.4777   63.4947   77.7047 H   0  0  0  0  0  0  0  0  0  0  0  0
   -2.2690   64.0593   76.1941 H   0  0  0  0  0  0  0  0  0  0  0  0
   -1.3171   62.5360   76.1941 H   0  0  0  0  0  0  0  0  0  0  0  0
   -0.3604   65.3164   76.4334 H   0  0  0  0  0  0  0  0  0  0  0  0
    0.7163   64.0448   78.1821 H   0  0  0  0  0  0  0  0  0  0  0  0
    1.3035   62.9106   76.9190 H   0  0  0  0  0  0  0  0  0  0  0  0
    1.8569   64.6195   76.9190 H   0  0  0  0  0  0  0  0  0  0  0  0
  2  1  2  0
  3  2  1  0
  4  3  2  0
  5  4  1  0
  6  5  2  0
  7  6  1  0
  8  7  2  0
  8  3  1  0
  9  8  1  0
 10  9  1  0
 11 10  1  0
 12 11  2  0
 12  2  1  0
 13 12  1  0
 14 13  2  0
 15 14  1  0
 16 11  1  0
 16 15  2  0
 17  1  1  0
 18 17  1  0
 20 19  1  0
 20 18  1  0
 21 20  1  0
  1 22  1  0
  4 23  1  0
  5 24  1  0
  6 25  1  0
  7 26  1  0
 10 27  1  0
 10 28  1  0
 13 29  1  0
 14 30  1  0
 15 31  1  0
 16 32  1  0
 17 33  1  0
 17 34  1  0
 18 35  1  0
 18 36  1  0
 19 37  1  0
 19 38  1  0
 19 39  1  0
 20 40  1  0
 21 41  1  0
 21 42  1  0
 21 43  1  0
M  CHG  1  20   1
M  END
>  <score>  (9) 
-7.545

$$$$
