=
     RDKit          3D

 54 57  0  0  0  0  0  0  0  0999 V2000
    2.3230   68.7580   64.5200 C   0  0  1  0  0  0  0  0  0  0  0  0
    0.8110   68.6430   64.3230 C   0  0  0  0  0  0  0  0  0  0  0  0
    0.3490   68.6290   65.7530 C   0  0  0  0  0  0  0  0  0  0  0  0
    1.2720   68.8740   66.6340 N   0  0  0  0  0  0  0  0  0  0  0  0
    2.4560   68.9990   65.9630 N   0  0  0  0  0  0  0  0  0  0  0  0
   -1.0590   68.3760   66.1270 C   0  0  0  0  0  0  0  0  0  0  0  0
   -2.0700   69.0580   65.4390 C   0  0  0  0  0  0  0  0  0  0  0  0
   -3.4020   68.8420   65.7770 C   0  0  0  0  0  0  0  0  0  0  0  0
   -4.3650   69.4990   65.1170 F   0  0  0  0  0  0  0  0  0  0  0  0
   -3.7520   67.9570   66.7900 C   0  0  0  0  0  0  0  0  0  0  0  0
   -2.7510   67.2710   67.4770 C   0  0  0  0  0  0  0  0  0  0  0  0
   -1.4120   67.4840   67.1430 C   0  0  0  0  0  0  0  0  0  0  0  0
   -0.4850   66.7920   67.8190 F   0  0  0  0  0  0  0  0  0  0  0  0
    4.4690   65.1910   63.2300 C   0  0  0  0  0  0  0  0  0  0  0  0
    3.5880   65.1610   64.3090 C   0  0  0  0  0  0  0  0  0  0  0  0
    2.9080   66.3140   64.7110 C   0  0  0  0  0  0  0  0  0  0  0  0
    3.0810   67.5330   64.0300 C   0  0  0  0  0  0  0  0  0  0  0  0
    3.9660   67.5440   62.9390 C   0  0  0  0  0  0  0  0  0  0  0  0
    4.6660   66.3910   62.5510 C   0  0  0  0  0  0  0  0  0  0  0  0
    4.8880   62.9470   63.8910 C   0  0  0  0  0  0  0  0  0  0  0  0
    5.0770   63.9990   62.9530 O   0  0  0  0  0  0  0  0  0  0  0  0
    4.2340   68.7200   62.2860 O   0  0  0  0  0  0  0  0  0  0  0  0
    5.6020   69.0970   62.4620 C   0  0  0  0  0  0  0  0  0  0  0  0
    3.5910   69.4550   66.6300 C   0  0  0  0  0  0  0  0  0  0  0  0
    3.5040   69.8930   67.9670 C   0  0  0  0  0  0  0  0  0  0  0  0
    4.6190   70.3540   68.6750 C   0  0  0  0  0  0  0  0  0  0  0  0
    5.8570   70.3960   68.0400 C   0  0  0  0  0  0  0  0  0  0  0  0
    5.9870   69.9640   66.7220 C   0  0  0  0  0  0  0  0  0  0  0  0
    4.8590   69.5030   66.0310 C   0  0  0  0  0  0  0  0  0  0  0  0
    7.2800   70.9820   68.9160 S   0  0  0  0  0  6  0  0  0  0  0  0
    8.4010   70.1260   68.6010 O   0  0  0  0  0  0  0  0  0  0  0  0
    7.3400   72.4180   68.7930 O   0  0  0  0  0  0  0  0  0  0  0  0
    6.8630   70.6170   70.5080 N   0  0  0  0  0  0  0  0  0  0  0  0
    2.7733   69.5640   63.9220 H   0  0  0  0  0  0  0  0  0  0  0  0
    0.4062   69.5059   63.7738 H   0  0  0  0  0  0  0  0  0  0  0  0
    0.4908   67.7742   63.7292 H   0  0  0  0  0  0  0  0  0  0  0  0
   -1.8119   69.7620   64.6342 H   0  0  0  0  0  0  0  0  0  0  0  0
   -4.8097   67.7991   67.0476 H   0  0  0  0  0  0  0  0  0  0  0  0
   -3.0150   66.5653   68.2784 H   0  0  0  0  0  0  0  0  0  0  0  0
    3.4256   64.2179   64.8514 H   0  0  0  0  0  0  0  0  0  0  0  0
    2.2268   66.2677   65.5734 H   0  0  0  0  0  0  0  0  0  0  0  0
    5.3719   66.4352   61.7086 H   0  0  0  0  0  0  0  0  0  0  0  0
    4.9602   63.3490   64.9123 H   0  0  0  0  0  0  0  0  0  0  0  0
    3.8948   62.4979   63.7431 H   0  0  0  0  0  0  0  0  0  0  0  0
    5.6628   62.1803   63.7431 H   0  0  0  0  0  0  0  0  0  0  0  0
    5.8297   69.1598   63.5363 H   0  0  0  0  0  0  0  0  0  0  0  0
    6.2530   68.3448   61.9925 H   0  0  0  0  0  0  0  0  0  0  0  0
    5.7757   70.0765   61.9925 H   0  0  0  0  0  0  0  0  0  0  0  0
    2.5263   69.8716   68.4707 H   0  0  0  0  0  0  0  0  0  0  0  0
    4.5186   70.6794   69.7210 H   0  0  0  0  0  0  0  0  0  0  0  0
    6.9691   69.9847   66.2270 H   0  0  0  0  0  0  0  0  0  0  0  0
    4.9705   69.1690   64.9889 H   0  0  0  0  0  0  0  0  0  0  0  0
    7.4682   71.1467   71.1515 H   0  0  0  0  0  0  0  0  0  0  0  0
    5.8791   70.8735   70.6726 H   0  0  0  0  0  0  0  0  0  0  0  0
  2  1  1  0
  3  2  1  0
  4  3  2  0
  5  1  1  0
  5  4  1  0
  6  3  1  0
  7  6  2  0
  8  7  1  0
  9  8  1  0
 10  8  2  0
 11 10  1  0
 12 11  2  0
 12  6  1  0
 13 12  1  0
 15 14  2  0
 16 15  1  0
 17 16  2  0
 17  1  1  0
 18 17  1  0
 19 14  1  0
 19 18  2  0
 21 20  1  0
 21 14  1  0
 22 18  1  0
 23 22  1  0
 24  5  1  0
 25 24  2  0
 26 25  1  0
 27 26  2  0
 28 27  1  0
 29 24  1  0
 29 28  2  0
 30 27  1  0
 31 30  2  0
 32 30  2  0
 33 30  1  0
  1 34  1  6
  2 35  1  0
  2 36  1  0
  7 37  1  0
 10 38  1  0
 11 39  1  0
 15 40  1  0
 16 41  1  0
 19 42  1  0
 20 43  1  0
 20 44  1  0
 20 45  1  0
 23 46  1  0
 23 47  1  0
 23 48  1  0
 25 49  1  0
 26 50  1  0
 28 51  1  0
 29 52  1  0
 33 53  1  0
 33 54  1  0
M  END
>  <score>  (1) 
-9.777

$$$$
=
     RDKit          3D

 54 57  0  0  0  0  0  0  0  0999 V2000
    1.2720   59.7210   74.4660 C   0  0  1  0  0  0  0  0  0  0  0  0
    2.3500   60.5130   73.7240 C   0  0  0  0  0  0  0  0  0  0  0  0
    1.5700   60.9840   72.5290 C   0  0  0  0  0  0  0  0  0  0  0  0
    0.2930   60.7460   72.5740 N   0  0  0  0  0  0  0  0  0  0  0  0
    0.0490   60.0360   73.7160 N   0  0  0  0  0  0  0  0  0  0  0  0
    2.2060   61.6860   71.3950 C   0  0  0  0  0  0  0  0  0  0  0  0
    2.0920   63.0800   71.3180 C   0  0  0  0  0  0  0  0  0  0  0  0
    2.6760   63.7630   70.2570 C   0  0  0  0  0  0  0  0  0  0  0  0
    2.5620   65.0960   70.1870 F   0  0  0  0  0  0  0  0  0  0  0  0
    3.3770   63.0870   69.2640 C   0  0  0  0  0  0  0  0  0  0  0  0
    3.4990   61.7000   69.3370 C   0  0  0  0  0  0  0  0  0  0  0  0
    2.9140   61.0080   70.3990 C   0  0  0  0  0  0  0  0  0  0  0  0
    3.0690   59.6770   70.4360 F   0  0  0  0  0  0  0  0  0  0  0  0
    2.0870   55.4420   74.5790 C   0  0  0  0  0  0  0  0  0  0  0  0
    1.7200   56.0830   73.3970 C   0  0  0  0  0  0  0  0  0  0  0  0
    1.4600   57.4560   73.3780 C   0  0  0  0  0  0  0  0  0  0  0  0
    1.5780   58.2320   74.5450 C   0  0  0  0  0  0  0  0  0  0  0  0
    1.9570   57.5720   75.7250 C   0  0  0  0  0  0  0  0  0  0  0  0
    2.1940   56.1900   75.7490 C   0  0  0  0  0  0  0  0  0  0  0  0
    1.2110   53.2440   74.8050 C   0  0  0  0  0  0  0  0  0  0  0  0
    2.2960   54.0960   74.4610 O   0  0  0  0  0  0  0  0  0  0  0  0
    2.0110   58.2630   76.9090 O   0  0  0  0  0  0  0  0  0  0  0  0
    3.3680   58.4980   77.2970 C   0  0  0  0  0  0  0  0  0  0  0  0
   -1.2620   59.8060   74.1280 C   0  0  0  0  0  0  0  0  0  0  0  0
   -2.2590   60.7780   73.9060 C   0  0  0  0  0  0  0  0  0  0  0  0
   -3.5880   60.5860   74.2980 C   0  0  0  0  0  0  0  0  0  0  0  0
   -3.9430   59.4030   74.9410 C   0  0  0  0  0  0  0  0  0  0  0  0
   -2.9890   58.4140   75.1700 C   0  0  0  0  0  0  0  0  0  0  0  0
   -1.6640   58.6240   74.7680 C   0  0  0  0  0  0  0  0  0  0  0  0
   -5.6180   59.1420   75.4510 S   0  0  0  0  0  6  0  0  0  0  0  0
   -5.7150   59.4000   76.8690 O   0  0  0  0  0  0  0  0  0  0  0  0
   -6.4960   59.7610   74.4870 O   0  0  0  0  0  0  0  0  0  0  0  0
   -5.7610   57.4720   75.2810 N   0  0  0  0  0  0  0  0  0  0  0  0
    1.1898   59.9977   75.5275 H   0  0  0  0  0  0  0  0  0  0  0  0
    2.7205   61.3563   74.3252 H   0  0  0  0  0  0  0  0  0  0  0  0
    3.2563   59.9384   73.4824 H   0  0  0  0  0  0  0  0  0  0  0  0
    1.5423   63.6325   72.0943 H   0  0  0  0  0  0  0  0  0  0  0  0
    3.8307   63.6412   68.4292 H   0  0  0  0  0  0  0  0  0  0  0  0
    4.0541   61.1530   68.5607 H   0  0  0  0  0  0  0  0  0  0  0  0
    1.6339   55.5010   72.4676 H   0  0  0  0  0  0  0  0  0  0  0  0
    1.1584   57.9371   72.4359 H   0  0  0  0  0  0  0  0  0  0  0  0
    2.4649   55.6958   76.6937 H   0  0  0  0  0  0  0  0  0  0  0  0
    1.1285   53.1792   75.9000 H   0  0  0  0  0  0  0  0  0  0  0  0
    0.2778   53.6532   74.3906 H   0  0  0  0  0  0  0  0  0  0  0  0
    1.3872   52.2404   74.3906 H   0  0  0  0  0  0  0  0  0  0  0  0
    3.4386   58.5102   78.3947 H   0  0  0  0  0  0  0  0  0  0  0  0
    4.0076   57.6972   76.8973 H   0  0  0  0  0  0  0  0  0  0  0  0
    3.7011   59.4672   76.8973 H   0  0  0  0  0  0  0  0  0  0  0  0
   -1.9824   61.7189   73.4078 H   0  0  0  0  0  0  0  0  0  0  0  0
   -4.3438   61.3605   74.1006 H   0  0  0  0  0  0  0  0  0  0  0  0
   -3.2748   57.4735   75.6637 H   0  0  0  0  0  0  0  0  0  0  0  0
   -0.9170   57.8396   74.9596 H   0  0  0  0  0  0  0  0  0  0  0  0
   -5.7985   57.0340   76.2125 H   0  0  0  0  0  0  0  0  0  0  0  0
   -6.6239   57.2522   74.7633 H   0  0  0  0  0  0  0  0  0  0  0  0
  2  1  1  0
  3  2  1  0
  4  3  2  0
  5  1  1  0
  5  4  1  0
  6  3  1  0
  7  6  2  0
  8  7  1  0
  9  8  1  0
 10  8  2  0
 11 10  1  0
 12 11  2  0
 12  6  1  0
 13 12  1  0
 15 14  2  0
 16 15  1  0
 17 16  2  0
 17  1  1  0
 18 17  1  0
 19 14  1  0
 19 18  2  0
 21 20  1  0
 21 14  1  0
 22 18  1  0
 23 22  1  0
 24  5  1  0
 25 24  2  0
 26 25  1  0
 27 26  2  0
 28 27  1  0
 29 24  1  0
 29 28  2  0
 30 27  1  0
 31 30  2  0
 32 30  2  0
 33 30  1  0
  1 34  1  1
  2 35  1  0
  2 36  1  0
  7 37  1  0
 10 38  1  0
 11 39  1  0
 15 40  1  0
 16 41  1  0
 19 42  1  0
 20 43  1  0
 20 44  1  0
 20 45  1  0
 23 46  1  0
 23 47  1  0
 23 48  1  0
 25 49  1  0
 26 50  1  0
 28 51  1  0
 29 52  1  0
 33 53  1  0
 33 54  1  0
M  END
>  <score>  (2) 
-8.468

$$$$
=
     RDKit          3D

 54 57  0  0  0  0  0  0  0  0999 V2000
    1.3200   59.7480   74.5330 C   0  0  1  0  0  0  0  0  0  0  0  0
    2.4250   60.5240   73.8160 C   0  0  0  0  0  0  0  0  0  0  0  0
    1.6810   61.0000   72.6000 C   0  0  0  0  0  0  0  0  0  0  0  0
    0.4000   60.7770   72.6140 N   0  0  0  0  0  0  0  0  0  0  0  0
    0.1190   60.0740   73.7510 N   0  0  0  0  0  0  0  0  0  0  0  0
    2.3540   61.6910   71.4800 C   0  0  0  0  0  0  0  0  0  0  0  0
    3.1220   60.9320   70.5870 C   0  0  0  0  0  0  0  0  0  0  0  0
    3.7700   61.5580   69.5290 C   0  0  0  0  0  0  0  0  0  0  0  0
    4.5050   60.8290   68.6800 F   0  0  0  0  0  0  0  0  0  0  0  0
    3.6710   62.9320   69.3360 C   0  0  0  0  0  0  0  0  0  0  0  0
    2.9050   63.6930   70.2180 C   0  0  0  0  0  0  0  0  0  0  0  0
    2.2520   63.0700   71.2830 C   0  0  0  0  0  0  0  0  0  0  0  0
    1.5150   63.8390   72.0960 F   0  0  0  0  0  0  0  0  0  0  0  0
    2.0760   55.4590   74.6820 C   0  0  0  0  0  0  0  0  0  0  0  0
    1.7150   56.0940   73.4950 C   0  0  0  0  0  0  0  0  0  0  0  0
    1.4740   57.4710   73.4650 C   0  0  0  0  0  0  0  0  0  0  0  0
    1.6050   58.2560   74.6250 C   0  0  0  0  0  0  0  0  0  0  0  0
    1.9780   57.6010   75.8100 C   0  0  0  0  0  0  0  0  0  0  0  0
    2.1970   56.2160   75.8440 C   0  0  0  0  0  0  0  0  0  0  0  0
    1.1070   53.2890   74.6400 C   0  0  0  0  0  0  0  0  0  0  0  0
    2.2670   54.1100   74.5750 O   0  0  0  0  0  0  0  0  0  0  0  0
    2.0460   58.3020   76.9870 O   0  0  0  0  0  0  0  0  0  0  0  0
    3.4060   58.5100   77.3760 C   0  0  0  0  0  0  0  0  0  0  0  0
   -1.2040   59.8620   74.1310 C   0  0  0  0  0  0  0  0  0  0  0  0
   -2.1880   60.8340   73.8590 C   0  0  0  0  0  0  0  0  0  0  0  0
   -3.5290   60.6590   74.2170 C   0  0  0  0  0  0  0  0  0  0  0  0
   -3.9090   59.4930   74.8760 C   0  0  0  0  0  0  0  0  0  0  0  0
   -2.9690   58.5040   75.1550 C   0  0  0  0  0  0  0  0  0  0  0  0
   -1.6320   58.6970   74.7850 C   0  0  0  0  0  0  0  0  0  0  0  0
   -5.6000   59.2540   75.3430 S   0  0  0  0  0  6  0  0  0  0  0  0
   -5.6910   59.2890   76.7850 O   0  0  0  0  0  0  0  0  0  0  0  0
   -6.4340   60.0680   74.4920 O   0  0  0  0  0  0  0  0  0  0  0  0
   -5.8400   57.6420   74.9120 N   0  0  0  0  0  0  0  0  0  0  0  0
    1.2155   60.0304   75.5910 H   0  0  0  0  0  0  0  0  0  0  0  0
    2.7904   61.3651   74.4235 H   0  0  0  0  0  0  0  0  0  0  0  0
    3.3301   59.9377   73.5991 H   0  0  0  0  0  0  0  0  0  0  0  0
    3.2117   59.8441   70.7230 H   0  0  0  0  0  0  0  0  0  0  0  0
    4.1921   63.4136   68.4955 H   0  0  0  0  0  0  0  0  0  0  0  0
    2.8155   64.7800   70.0753 H   0  0  0  0  0  0  0  0  0  0  0  0
    1.6186   55.5050   72.5710 H   0  0  0  0  0  0  0  0  0  0  0  0
    1.1772   57.9481   72.5193 H   0  0  0  0  0  0  0  0  0  0  0  0
    2.4652   55.7264   76.7918 H   0  0  0  0  0  0  0  0  0  0  0  0
    0.8467   53.1048   75.6928 H   0  0  0  0  0  0  0  0  0  0  0  0
    0.2698   53.7968   74.1387 H   0  0  0  0  0  0  0  0  0  0  0  0
    1.3075   52.3306   74.1387 H   0  0  0  0  0  0  0  0  0  0  0  0
    3.4759   58.5207   78.4737 H   0  0  0  0  0  0  0  0  0  0  0  0
    4.0300   57.6969   76.9768 H   0  0  0  0  0  0  0  0  0  0  0  0
    3.7585   59.4725   76.9768 H   0  0  0  0  0  0  0  0  0  0  0  0
   -1.8913   61.7617   73.3478 H   0  0  0  0  0  0  0  0  0  0  0  0
   -4.2740   61.4331   73.9807 H   0  0  0  0  0  0  0  0  0  0  0  0
   -3.2746   57.5773   75.6627 H   0  0  0  0  0  0  0  0  0  0  0  0
   -0.8960   57.9122   75.0139 H   0  0  0  0  0  0  0  0  0  0  0  0
   -5.9254   57.0681   75.7630 H   0  0  0  0  0  0  0  0  0  0  0  0
   -6.7024   57.5603   74.3548 H   0  0  0  0  0  0  0  0  0  0  0  0
  2  1  1  0
  3  2  1  0
  4  3  2  0
  5  1  1  0
  5  4  1  0
  6  3  1  0
  7  6  2  0
  8  7  1  0
  9  8  1  0
 10  8  2  0
 11 10  1  0
 12 11  2  0
 12  6  1  0
 13 12  1  0
 15 14  2  0
 16 15  1  0
 17 16  2  0
 17  1  1  0
 18 17  1  0
 19 14  1  0
 19 18  2  0
 21 20  1  0
 21 14  1  0
 22 18  1  0
 23 22  1  0
 24  5  1  0
 25 24  2  0
 26 25  1  0
 27 26  2  0
 28 27  1  0
 29 24  1  0
 29 28  2  0
 30 27  1  0
 31 30  2  0
 32 30  2  0
 33 30  1  0
  1 34  1  1
  2 35  1  0
  2 36  1  0
  7 37  1  0
 10 38  1  0
 11 39  1  0
 15 40  1  0
 16 41  1  0
 19 42  1  0
 20 43  1  0
 20 44  1  0
 20 45  1  0
 23 46  1  0
 23 47  1  0
 23 48  1  0
 25 49  1  0
 26 50  1  0
 28 51  1  0
 29 52  1  0
 33 53  1  0
 33 54  1  0
M  END
>  <score>  (3) 
-8.392

$$$$
=
     RDKit          3D

 54 57  0  0  0  0  0  0  0  0999 V2000
   -0.2750   60.5860   73.0130 C   0  0  1  0  0  0  0  0  0  0  0  0
    0.3790   61.6160   72.0920 C   0  0  0  0  0  0  0  0  0  0  0  0
    1.7370   60.9980   71.9110 C   0  0  0  0  0  0  0  0  0  0  0  0
    1.8690   59.8010   72.4020 N   0  0  0  0  0  0  0  0  0  0  0  0
    0.6980   59.4860   73.0330 N   0  0  0  0  0  0  0  0  0  0  0  0
    2.8360   61.6920   71.2070 C   0  0  0  0  0  0  0  0  0  0  0  0
    2.6790   61.9920   69.8480 C   0  0  0  0  0  0  0  0  0  0  0  0
    3.7010   62.6390   69.1610 C   0  0  0  0  0  0  0  0  0  0  0  0
    3.5470   62.9210   67.8610 F   0  0  0  0  0  0  0  0  0  0  0  0
    4.8830   62.9970   69.8000 C   0  0  0  0  0  0  0  0  0  0  0  0
    5.0440   62.7050   71.1540 C   0  0  0  0  0  0  0  0  0  0  0  0
    4.0220   62.0550   71.8490 C   0  0  0  0  0  0  0  0  0  0  0  0
    4.2150   61.8090   73.1520 F   0  0  0  0  0  0  0  0  0  0  0  0
   -1.0840   62.1510   76.9990 C   0  0  0  0  0  0  0  0  0  0  0  0
    0.2180   61.9390   76.5490 C   0  0  0  0  0  0  0  0  0  0  0  0
    0.4600   61.4350   75.2680 C   0  0  0  0  0  0  0  0  0  0  0  0
   -0.6000   61.1430   74.3920 C   0  0  0  0  0  0  0  0  0  0  0  0
   -1.9050   61.3700   74.8570 C   0  0  0  0  0  0  0  0  0  0  0  0
   -2.1480   61.8540   76.1510 C   0  0  0  0  0  0  0  0  0  0  0  0
   -0.0650   63.3630   78.7710 C   0  0  0  0  0  0  0  0  0  0  0  0
   -1.1790   62.6330   78.2740 O   0  0  0  0  0  0  0  0  0  0  0  0
   -2.9800   61.0300   74.0750 O   0  0  0  0  0  0  0  0  0  0  0  0
   -3.8220   60.0920   74.7510 C   0  0  0  0  0  0  0  0  0  0  0  0
    0.4780   58.1870   73.4860 C   0  0  0  0  0  0  0  0  0  0  0  0
    1.4530   57.1890   73.2880 C   0  0  0  0  0  0  0  0  0  0  0  0
    1.2750   55.8740   73.7330 C   0  0  0  0  0  0  0  0  0  0  0  0
    0.0930   55.5310   74.3820 C   0  0  0  0  0  0  0  0  0  0  0  0
   -0.8910   56.4910   74.6060 C   0  0  0  0  0  0  0  0  0  0  0  0
   -0.6930   57.8030   74.1560 C   0  0  0  0  0  0  0  0  0  0  0  0
   -0.1550   53.8720   74.9480 S   0  0  0  0  0  6  0  0  0  0  0  0
    0.3810   52.9620   73.9610 O   0  0  0  0  0  0  0  0  0  0  0  0
    0.2020   53.8010   76.3450 O   0  0  0  0  0  0  0  0  0  0  0  0
   -1.8310   53.7280   74.8350 N   0  0  0  0  0  0  0  0  0  0  0  0
   -1.2626   60.2586   72.6560 H   0  0  0  0  0  0  0  0  0  0  0  0
   -0.1576   61.7046   71.1359 H   0  0  0  0  0  0  0  0  0  0  0  0
    0.3914   62.6423   72.4876 H   0  0  0  0  0  0  0  0  0  0  0  0
    1.7508   61.7170   69.3257 H   0  0  0  0  0  0  0  0  0  0  0  0
    5.6834   63.5057   69.2427 H   0  0  0  0  0  0  0  0  0  0  0  0
    5.9726   62.9856   71.6727 H   0  0  0  0  0  0  0  0  0  0  0  0
    1.0658   62.1713   77.2103 H   0  0  0  0  0  0  0  0  0  0  0  0
    1.4960   61.2642   74.9402 H   0  0  0  0  0  0  0  0  0  0  0  0
   -3.1820   61.9994   76.4969 H   0  0  0  0  0  0  0  0  0  0  0  0
   -0.0809   63.3526   79.8708 H   0  0  0  0  0  0  0  0  0  0  0  0
    0.8662   62.8994   78.4134 H   0  0  0  0  0  0  0  0  0  0  0  0
   -0.1183   64.4019   78.4134 H   0  0  0  0  0  0  0  0  0  0  0  0
   -3.7104   60.2163   75.8382 H   0  0  0  0  0  0  0  0  0  0  0  0
   -4.8699   60.2691   74.4673 H   0  0  0  0  0  0  0  0  0  0  0  0
   -3.5332   59.0692   74.4673 H   0  0  0  0  0  0  0  0  0  0  0  0
    2.3850   57.4522   72.7663 H   0  0  0  0  0  0  0  0  0  0  0  0
    2.0602   55.1207   73.5716 H   0  0  0  0  0  0  0  0  0  0  0  0
   -1.8179   56.2207   75.1330 H   0  0  0  0  0  0  0  0  0  0  0  0
   -1.4779   58.5530   74.3331 H   0  0  0  0  0  0  0  0  0  0  0  0
   -2.2371   53.6931   75.7809 H   0  0  0  0  0  0  0  0  0  0  0  0
   -2.2119   54.5394   74.3275 H   0  0  0  0  0  0  0  0  0  0  0  0
  2  1  1  0
  3  2  1  0
  4  3  2  0
  5  1  1  0
  5  4  1  0
  6  3  1  0
  7  6  2  0
  8  7  1  0
  9  8  1  0
 10  8  2  0
 11 10  1  0
 12 11  2  0
 12  6  1  0
 13 12  1  0
 15 14  2  0
 16 15  1  0
 17 16  2  0
 17  1  1  0
 18 17  1  0
 19 14  1  0
 19 18  2  0
 21 20  1  0
 21 14  1  0
 22 18  1  0
 23 22  1  0
 24  5  1  0
 25 24  2  0
 26 25  1  0
 27 26  2  0
 28 27  1  0
 29 24  1  0
 29 28  2  0
 30 27  1  0
 31 30  2  0
 32 30  2  0
 33 30  1  0
  1 34  1  6
  2 35  1  0
  2 36  1  0
  7 37  1  0
 10 38  1  0
 11 39  1  0
 15 40  1  0
 16 41  1  0
 19 42  1  0
 20 43  1  0
 20 44  1  0
 20 45  1  0
 23 46  1  0
 23 47  1  0
 23 48  1  0
 25 49  1  0
 26 50  1  0
 28 51  1  0
 29 52  1  0
 33 53  1  0
 33 54  1  0
M  END
>  <score>  (4) 
-8.241

$$$$
=
     RDKit          3D

 54 57  0  0  0  0  0  0  0  0999 V2000
    0.3810   59.3580   75.0250 C   0  0  1  0  0  0  0  0  0  0  0  0
    0.2070   57.9700   75.6420 C   0  0  0  0  0  0  0  0  0  0  0  0
    0.3230   57.1080   74.4160 C   0  0  0  0  0  0  0  0  0  0  0  0
    0.6780   57.7330   73.3330 N   0  0  0  0  0  0  0  0  0  0  0  0
    0.7660   59.0630   73.6380 N   0  0  0  0  0  0  0  0  0  0  0  0
    0.0720   55.6520   74.4450 C   0  0  0  0  0  0  0  0  0  0  0  0
   -1.1810   55.1940   74.8740 C   0  0  0  0  0  0  0  0  0  0  0  0
   -1.4390   53.8290   74.9170 C   0  0  0  0  0  0  0  0  0  0  0  0
   -2.6370   53.3970   75.3300 F   0  0  0  0  0  0  0  0  0  0  0  0
   -0.4740   52.9010   74.5390 C   0  0  0  0  0  0  0  0  0  0  0  0
    0.7730   53.3500   74.1070 C   0  0  0  0  0  0  0  0  0  0  0  0
    1.0400   54.7190   74.0630 C   0  0  0  0  0  0  0  0  0  0  0  0
    2.2470   55.1050   73.6260 F   0  0  0  0  0  0  0  0  0  0  0  0
   -3.2430   61.7670   75.2640 C   0  0  0  0  0  0  0  0  0  0  0  0
   -3.2070   60.5740   74.5440 C   0  0  0  0  0  0  0  0  0  0  0  0
   -2.0360   59.8140   74.4760 C   0  0  0  0  0  0  0  0  0  0  0  0
   -0.8670   60.2210   75.1440 C   0  0  0  0  0  0  0  0  0  0  0  0
   -0.9230   61.4210   75.8710 C   0  0  0  0  0  0  0  0  0  0  0  0
   -2.0920   62.1950   75.9200 C   0  0  0  0  0  0  0  0  0  0  0  0
   -5.6150   61.6110   75.2640 C   0  0  0  0  0  0  0  0  0  0  0  0
   -4.4440   62.4180   75.2360 O   0  0  0  0  0  0  0  0  0  0  0  0
    0.2070   61.9070   76.4780 O   0  0  0  0  0  0  0  0  0  0  0  0
    0.7150   63.0410   75.7690 C   0  0  0  0  0  0  0  0  0  0  0  0
    1.3160   59.9540   72.7190 C   0  0  0  0  0  0  0  0  0  0  0  0
    2.4740   59.6060   71.9950 C   0  0  0  0  0  0  0  0  0  0  0  0
    3.0550   60.4690   71.0590 C   0  0  0  0  0  0  0  0  0  0  0  0
    2.4830   61.7180   70.8400 C   0  0  0  0  0  0  0  0  0  0  0  0
    1.3330   62.0960   71.5280 C   0  0  0  0  0  0  0  0  0  0  0  0
    0.7640   61.2180   72.4590 C   0  0  0  0  0  0  0  0  0  0  0  0
    3.2060   62.8270   69.6640 S   0  0  0  0  0  6  0  0  0  0  0  0
    4.5330   63.1790   70.1150 O   0  0  0  0  0  0  0  0  0  0  0  0
    2.9440   62.3270   68.3360 O   0  0  0  0  0  0  0  0  0  0  0  0
    2.2690   64.2090   69.8890 N   0  0  0  0  0  0  0  0  0  0  0  0
    1.1359   59.9666   75.5444 H   0  0  0  0  0  0  0  0  0  0  0  0
    0.9999   57.7475   76.3712 H   0  0  0  0  0  0  0  0  0  0  0  0
   -0.7250   57.8349   76.2105 H   0  0  0  0  0  0  0  0  0  0  0  0
   -1.9576   55.9123   75.1756 H   0  0  0  0  0  0  0  0  0  0  0  0
   -0.6928   51.8238   74.5806 H   0  0  0  0  0  0  0  0  0  0  0  0
    1.5442   52.6274   73.8017 H   0  0  0  0  0  0  0  0  0  0  0  0
   -4.1113   60.2264   74.0229 H   0  0  0  0  0  0  0  0  0  0  0  0
   -2.0285   58.8827   73.8907 H   0  0  0  0  0  0  0  0  0  0  0  0
   -2.0992   63.1428   76.4783 H   0  0  0  0  0  0  0  0  0  0  0  0
   -5.9000   61.4146   76.3081 H   0  0  0  0  0  0  0  0  0  0  0  0
   -6.4349   62.1367   74.7528 H   0  0  0  0  0  0  0  0  0  0  0  0
   -5.4156   60.6576   74.7528 H   0  0  0  0  0  0  0  0  0  0  0  0
    1.0553   63.8007   76.4881 H   0  0  0  0  0  0  0  0  0  0  0  0
    1.5598   62.7299   75.1369 H   0  0  0  0  0  0  0  0  0  0  0  0
   -0.0795   63.4643   75.1369 H   0  0  0  0  0  0  0  0  0  0  0  0
    2.9364   58.6236   72.1715 H   0  0  0  0  0  0  0  0  0  0  0  0
    3.9535   60.1633   70.5029 H   0  0  0  0  0  0  0  0  0  0  0  0
    0.8742   63.0782   71.3414 H   0  0  0  0  0  0  0  0  0  0  0  0
   -0.1412   61.5278   73.0019 H   0  0  0  0  0  0  0  0  0  0  0  0
    2.1508   64.3833   70.8972 H   0  0  0  0  0  0  0  0  0  0  0  0
    2.7377   65.0162   69.4537 H   0  0  0  0  0  0  0  0  0  0  0  0
  2  1  1  0
  3  2  1  0
  4  3  2  0
  5  1  1  0
  5  4  1  0
  6  3  1  0
  7  6  2  0
  8  7  1  0
  9  8  1  0
 10  8  2  0
 11 10  1  0
 12 11  2  0
 12  6  1  0
 13 12  1  0
 15 14  2  0
 16 15  1  0
 17 16  2  0
 17  1  1  0
 18 17  1  0
 19 14  1  0
 19 18  2  0
 21 20  1  0
 21 14  1  0
 22 18  1  0
 23 22  1  0
 24  5  1  0
 25 24  2  0
 26 25  1  0
 27 26  2  0
 28 27  1  0
 29 24  1  0
 29 28  2  0
 30 27  1  0
 31 30  2  0
 32 30  2  0
 33 30  1  0
  1 34  1  1
  2 35  1  0
  2 36  1  0
  7 37  1  0
 10 38  1  0
 11 39  1  0
 15 40  1  0
 16 41  1  0
 19 42  1  0
 20 43  1  0
 20 44  1  0
 20 45  1  0
 23 46  1  0
 23 47  1  0
 23 48  1  0
 25 49  1  0
 26 50  1  0
 28 51  1  0
 29 52  1  0
 33 53  1  0
 33 54  1  0
M  END
>  <score>  (5) 
-7.762

$$$$
=
     RDKit          3D

 54 57  0  0  0  0  0  0  0  0999 V2000
   -0.5900   61.1720   75.0730 C   0  0  1  0  0  0  0  0  0  0  0  0
   -1.8650   61.9790   75.3200 C   0  0  0  0  0  0  0  0  0  0  0  0
   -2.9090   60.9420   75.0180 C   0  0  0  0  0  0  0  0  0  0  0  0
   -2.4540   59.7390   74.8280 N   0  0  0  0  0  0  0  0  0  0  0  0
   -1.0910   59.8030   74.8880 N   0  0  0  0  0  0  0  0  0  0  0  0
   -4.3510   61.2630   74.9620 C   0  0  0  0  0  0  0  0  0  0  0  0
   -5.1770   60.4990   74.1270 C   0  0  0  0  0  0  0  0  0  0  0  0
   -6.5360   60.7850   74.0520 C   0  0  0  0  0  0  0  0  0  0  0  0
   -7.3210   60.0540   73.2500 F   0  0  0  0  0  0  0  0  0  0  0  0
   -7.0950   61.8200   74.7930 C   0  0  0  0  0  0  0  0  0  0  0  0
   -6.2800   62.5820   75.6290 C   0  0  0  0  0  0  0  0  0  0  0  0
   -4.9150   62.3000   75.7090 C   0  0  0  0  0  0  0  0  0  0  0  0
   -4.1720   63.0480   76.5370 F   0  0  0  0  0  0  0  0  0  0  0  0
    1.6340   62.6550   71.6320 C   0  0  0  0  0  0  0  0  0  0  0  0
    0.2410   62.6860   71.6670 C   0  0  0  0  0  0  0  0  0  0  0  0
   -0.4570   62.2050   72.7790 C   0  0  0  0  0  0  0  0  0  0  0  0
    0.2240   61.6910   73.8970 C   0  0  0  0  0  0  0  0  0  0  0  0
    1.6280   61.6750   73.8480 C   0  0  0  0  0  0  0  0  0  0  0  0
    2.3270   62.1370   72.7230 C   0  0  0  0  0  0  0  0  0  0  0  0
    2.2010   64.5550   70.3200 C   0  0  0  0  0  0  0  0  0  0  0  0
    2.1890   63.1420   70.4810 O   0  0  0  0  0  0  0  0  0  0  0  0
    2.3430   61.1150   74.8760 O   0  0  0  0  0  0  0  0  0  0  0  0
    3.1790   60.0590   74.3950 C   0  0  0  0  0  0  0  0  0  0  0  0
   -0.3380   58.6310   74.9130 C   0  0  0  0  0  0  0  0  0  0  0  0
    0.1070   58.0440   73.7120 C   0  0  0  0  0  0  0  0  0  0  0  0
    0.8700   56.8710   73.6920 C   0  0  0  0  0  0  0  0  0  0  0  0
    1.1920   56.2500   74.8960 C   0  0  0  0  0  0  0  0  0  0  0  0
    0.7790   56.8040   76.1050 C   0  0  0  0  0  0  0  0  0  0  0  0
    0.0190   57.9800   76.1040 C   0  0  0  0  0  0  0  0  0  0  0  0
    2.1510   54.7620   74.8930 S   0  0  0  0  0  6  0  0  0  0  0  0
    1.6510   53.8880   75.9290 O   0  0  0  0  0  0  0  0  0  0  0  0
    2.3270   54.3280   73.5280 O   0  0  0  0  0  0  0  0  0  0  0  0
    3.6390   55.3240   75.4510 N   0  0  0  0  0  0  0  0  0  0  0  0
    0.1295   61.2425   75.9021 H   0  0  0  0  0  0  0  0  0  0  0  0
   -1.9290   62.3284   76.3611 H   0  0  0  0  0  0  0  0  0  0  0  0
   -1.9474   62.8994   74.7233 H   0  0  0  0  0  0  0  0  0  0  0  0
   -4.7523   59.6762   73.5331 H   0  0  0  0  0  0  0  0  0  0  0  0
   -8.1712   62.0359   74.7203 H   0  0  0  0  0  0  0  0  0  0  0  0
   -6.7105   63.4017   76.2229 H   0  0  0  0  0  0  0  0  0  0  0  0
   -0.3156   63.0935   70.8101 H   0  0  0  0  0  0  0  0  0  0  0  0
   -1.5567   62.2290   72.7794 H   0  0  0  0  0  0  0  0  0  0  0  0
    3.4258   62.0899   72.7026 H   0  0  0  0  0  0  0  0  0  0  0  0
    2.2051   65.0367   71.3089 H   0  0  0  0  0  0  0  0  0  0  0  0
    3.1017   64.8530   69.7633 H   0  0  0  0  0  0  0  0  0  0  0  0
    1.3055   64.8682   69.7633 H   0  0  0  0  0  0  0  0  0  0  0  0
    3.6098   59.5148   75.2484 H   0  0  0  0  0  0  0  0  0  0  0  0
    2.5809   59.3675   73.7833 H   0  0  0  0  0  0  0  0  0  0  0  0
    3.9893   60.4825   73.7833 H   0  0  0  0  0  0  0  0  0  0  0  0
   -0.1542   58.5241   72.7574 H   0  0  0  0  0  0  0  0  0  0  0  0
    1.2111   56.4449   72.7370 H   0  0  0  0  0  0  0  0  0  0  0  0
    1.0483   56.3204   77.0556 H   0  0  0  0  0  0  0  0  0  0  0  0
   -0.3076   58.4058   77.0642 H   0  0  0  0  0  0  0  0  0  0  0  0
    3.6413   55.3249   76.4810 H   0  0  0  0  0  0  0  0  0  0  0  0
    4.3896   54.7085   75.1065 H   0  0  0  0  0  0  0  0  0  0  0  0
  2  1  1  0
  3  2  1  0
  4  3  2  0
  5  1  1  0
  5  4  1  0
  6  3  1  0
  7  6  2  0
  8  7  1  0
  9  8  1  0
 10  8  2  0
 11 10  1  0
 12 11  2  0
 12  6  1  0
 13 12  1  0
 15 14  2  0
 16 15  1  0
 17 16  2  0
 17  1  1  0
 18 17  1  0
 19 14  1  0
 19 18  2  0
 21 20  1  0
 21 14  1  0
 22 18  1  0
 23 22  1  0
 24  5  1  0
 25 24  2  0
 26 25  1  0
 27 26  2  0
 28 27  1  0
 29 24  1  0
 29 28  2  0
 30 27  1  0
 31 30  2  0
 32 30  2  0
 33 30  1  0
  1 34  1  1
  2 35  1  0
  2 36  1  0
  7 37  1  0
 10 38  1  0
 11 39  1  0
 15 40  1  0
 16 41  1  0
 19 42  1  0
 20 43  1  0
 20 44  1  0
 20 45  1  0
 23 46  1  0
 23 47  1  0
 23 48  1  0
 25 49  1  0
 26 50  1  0
 28 51  1  0
 29 52  1  0
 33 53  1  0
 33 54  1  0
M  END
>  <score>  (6) 
-7.433

$$$$
=
     RDKit          3D

 54 57  0  0  0  0  0  0  0  0999 V2000
    1.5960   61.4550   74.7910 C   0  0  1  0  0  0  0  0  0  0  0  0
    0.9250   62.6150   75.5280 C   0  0  0  0  0  0  0  0  0  0  0  0
   -0.3920   61.9860   75.8880 C   0  0  0  0  0  0  0  0  0  0  0  0
   -0.4820   60.7130   75.6410 N   0  0  0  0  0  0  0  0  0  0  0  0
    0.6790   60.3310   75.0280 N   0  0  0  0  0  0  0  0  0  0  0  0
   -1.4960   62.7560   76.4970 C   0  0  0  0  0  0  0  0  0  0  0  0
   -2.7610   62.7070   75.8960 C   0  0  0  0  0  0  0  0  0  0  0  0
   -3.8150   63.4280   76.4470 C   0  0  0  0  0  0  0  0  0  0  0  0
   -5.0210   63.3800   75.8670 F   0  0  0  0  0  0  0  0  0  0  0  0
   -3.6390   64.2010   77.5900 C   0  0  0  0  0  0  0  0  0  0  0  0
   -2.3850   64.2510   78.1950 C   0  0  0  0  0  0  0  0  0  0  0  0
   -1.3220   63.5300   77.6470 C   0  0  0  0  0  0  0  0  0  0  0  0
   -0.1380   63.5950   78.2720 F   0  0  0  0  0  0  0  0  0  0  0  0
    2.1640   62.3110   70.5560 C   0  0  0  0  0  0  0  0  0  0  0  0
    0.9830   62.6480   71.2160 C   0  0  0  0  0  0  0  0  0  0  0  0
    0.8170   62.3650   72.5750 C   0  0  0  0  0  0  0  0  0  0  0  0
    1.8390   61.7480   73.3180 C   0  0  0  0  0  0  0  0  0  0  0  0
    3.0250   61.4230   72.6400 C   0  0  0  0  0  0  0  0  0  0  0  0
    3.1830   61.6860   71.2710 C   0  0  0  0  0  0  0  0  0  0  0  0
    3.4690   62.7690   68.6230 C   0  0  0  0  0  0  0  0  0  0  0  0
    2.1890   62.6300   69.2280 O   0  0  0  0  0  0  0  0  0  0  0  0
    4.0260   60.7500   73.2940 O   0  0  0  0  0  0  0  0  0  0  0  0
    5.2550   60.8410   72.5700 C   0  0  0  0  0  0  0  0  0  0  0  0
    0.9460   58.9800   74.8210 C   0  0  0  0  0  0  0  0  0  0  0  0
    0.4550   58.3240   73.6750 C   0  0  0  0  0  0  0  0  0  0  0  0
    0.7050   56.9700   73.4260 C   0  0  0  0  0  0  0  0  0  0  0  0
    1.4530   56.2370   74.3430 C   0  0  0  0  0  0  0  0  0  0  0  0
    1.9650   56.8510   75.4830 C   0  0  0  0  0  0  0  0  0  0  0  0
    1.7060   58.2090   75.7140 C   0  0  0  0  0  0  0  0  0  0  0  0
    1.7760   54.5220   74.0490 S   0  0  0  0  0  6  0  0  0  0  0  0
    0.5220   53.8050   74.0680 O   0  0  0  0  0  0  0  0  0  0  0  0
    2.7200   54.4080   72.9630 O   0  0  0  0  0  0  0  0  0  0  0  0
    2.5710   54.0850   75.4710 N   0  0  0  0  0  0  0  0  0  0  0  0
    2.6120   61.2453   75.1568 H   0  0  0  0  0  0  0  0  0  0  0  0
    1.4923   62.9098   76.4231 H   0  0  0  0  0  0  0  0  0  0  0  0
    0.8449   63.5438   74.9441 H   0  0  0  0  0  0  0  0  0  0  0  0
   -2.9197   62.1007   74.9920 H   0  0  0  0  0  0  0  0  0  0  0  0
   -4.4821   64.7675   78.0123 H   0  0  0  0  0  0  0  0  0  0  0  0
   -2.2328   64.8561   79.1009 H   0  0  0  0  0  0  0  0  0  0  0  0
    0.1722   63.1424   70.6608 H   0  0  0  0  0  0  0  0  0  0  0  0
   -0.1285   62.6293   73.0711 H   0  0  0  0  0  0  0  0  0  0  0  0
    4.1140   61.3979   70.7609 H   0  0  0  0  0  0  0  0  0  0  0  0
    4.2374   62.8524   69.4057 H   0  0  0  0  0  0  0  0  0  0  0  0
    3.6766   61.8881   67.9977 H   0  0  0  0  0  0  0  0  0  0  0  0
    3.4827   63.6739   67.9977 H   0  0  0  0  0  0  0  0  0  0  0  0
    6.0942   60.9031   73.2785 H   0  0  0  0  0  0  0  0  0  0  0  0
    5.3747   59.9493   71.9372 H   0  0  0  0  0  0  0  0  0  0  0  0
    5.2420   61.7406   71.9372 H   0  0  0  0  0  0  0  0  0  0  0  0
   -0.1451   58.8955   72.9516 H   0  0  0  0  0  0  0  0  0  0  0  0
    0.3150   56.4903   72.5162 H   0  0  0  0  0  0  0  0  0  0  0  0
    2.5693   56.2736   76.1982 H   0  0  0  0  0  0  0  0  0  0  0  0
    2.1097   58.6837   76.6205 H   0  0  0  0  0  0  0  0  0  0  0  0
    2.0154   54.3904   76.2827 H   0  0  0  0  0  0  0  0  0  0  0  0
    2.6864   53.0619   75.4993 H   0  0  0  0  0  0  0  0  0  0  0  0
  2  1  1  0
  3  2  1  0
  4  3  2  0
  5  1  1  0
  5  4  1  0
  6  3  1  0
  7  6  2  0
  8  7  1  0
  9  8  1  0
 10  8  2  0
 11 10  1  0
 12 11  2  0
 12  6  1  0
 13 12  1  0
 15 14  2  0
 16 15  1  0
 17 16  2  0
 17  1  1  0
 18 17  1  0
 19 14  1  0
 19 18  2  0
 21 20  1  0
 21 14  1  0
 22 18  1  0
 23 22  1  0
 24  5  1  0
 25 24  2  0
 26 25  1  0
 27 26  2  0
 28 27  1  0
 29 24  1  0
 29 28  2  0
 30 27  1  0
 31 30  2  0
 32 30  2  0
 33 30  1  0
  1 34  1  1
  2 35  1  0
  2 36  1  0
  7 37  1  0
 10 38  1  0
 11 39  1  0
 15 40  1  0
 16 41  1  0
 19 42  1  0
 20 43  1  0
 20 44  1  0
 20 45  1  0
 23 46  1  0
 23 47  1  0
 23 48  1  0
 25 49  1  0
 26 50  1  0
 28 51  1  0
 29 52  1  0
 33 53  1  0
 33 54  1  0
M  END
>  <score>  (7) 
-7.362

$$$$
=
     RDKit          3D

 54 57  0  0  0  0  0  0  0  0999 V2000
   -1.0840   59.2530   74.3600 C   0  0  1  0  0  0  0  0  0  0  0  0
   -2.5560   59.2460   74.7740 C   0  0  0  0  0  0  0  0  0  0  0  0
   -2.9630   60.6330   74.3630 C   0  0  0  0  0  0  0  0  0  0  0  0
   -2.0710   61.2920   73.6840 N   0  0  0  0  0  0  0  0  0  0  0  0
   -0.9510   60.5130   73.6140 N   0  0  0  0  0  0  0  0  0  0  0  0
   -4.2890   61.1990   74.6890 C   0  0  0  0  0  0  0  0  0  0  0  0
   -5.4280   60.6020   74.1350 C   0  0  0  0  0  0  0  0  0  0  0  0
   -6.6870   61.1200   74.4210 C   0  0  0  0  0  0  0  0  0  0  0  0
   -7.7730   60.5480   73.8860 F   0  0  0  0  0  0  0  0  0  0  0  0
   -6.8390   62.2240   75.2530 C   0  0  0  0  0  0  0  0  0  0  0  0
   -5.7090   62.8200   75.8120 C   0  0  0  0  0  0  0  0  0  0  0  0
   -4.4430   62.3060   75.5280 C   0  0  0  0  0  0  0  0  0  0  0  0
   -3.3870   62.9010   76.1000 F   0  0  0  0  0  0  0  0  0  0  0  0
    1.6340   59.0490   77.7600 C   0  0  0  0  0  0  0  0  0  0  0  0
    0.8550   60.1800   77.5160 C   0  0  0  0  0  0  0  0  0  0  0  0
   -0.0100   60.2290   76.4200 C   0  0  0  0  0  0  0  0  0  0  0  0
   -0.1330   59.1370   75.5420 C   0  0  0  0  0  0  0  0  0  0  0  0
    0.6520   58.0040   75.8070 C   0  0  0  0  0  0  0  0  0  0  0  0
    1.5390   57.9630   76.8940 C   0  0  0  0  0  0  0  0  0  0  0  0
    3.8130   59.4570   78.6180 C   0  0  0  0  0  0  0  0  0  0  0  0
    2.4470   59.1390   78.8550 O   0  0  0  0  0  0  0  0  0  0  0  0
    0.6330   56.9390   74.9420 O   0  0  0  0  0  0  0  0  0  0  0  0
    1.9150   56.7550   74.3360 C   0  0  0  0  0  0  0  0  0  0  0  0
    0.1030   60.8790   72.7810 C   0  0  0  0  0  0  0  0  0  0  0  0
    1.1900   60.0040   72.5790 C   0  0  0  0  0  0  0  0  0  0  0  0
    2.2650   60.3300   71.7460 C   0  0  0  0  0  0  0  0  0  0  0  0
    2.2750   61.5640   71.1010 C   0  0  0  0  0  0  0  0  0  0  0  0
    1.2160   62.4520   71.2660 C   0  0  0  0  0  0  0  0  0  0  0  0
    0.1470   62.1070   72.1030 C   0  0  0  0  0  0  0  0  0  0  0  0
    3.6300   61.9980   70.0470 S   0  0  0  0  0  6  0  0  0  0  0  0
    3.1020   62.4920   68.7960 O   0  0  0  0  0  0  0  0  0  0  0  0
    4.6030   62.7300   70.8220 O   0  0  0  0  0  0  0  0  0  0  0  0
    4.2810   60.4830   69.6990 N   0  0  0  0  0  0  0  0  0  0  0  0
   -0.8059   58.3795   73.7520 H   0  0  0  0  0  0  0  0  0  0  0  0
   -3.1267   58.4779   74.2316 H   0  0  0  0  0  0  0  0  0  0  0  0
   -2.7328   59.0117   75.8341 H   0  0  0  0  0  0  0  0  0  0  0  0
   -5.3276   59.7268   73.4762 H   0  0  0  0  0  0  0  0  0  0  0  0
   -7.8411   62.6233   75.4681 H   0  0  0  0  0  0  0  0  0  0  0  0
   -5.8151   63.6919   76.4742 H   0  0  0  0  0  0  0  0  0  0  0  0
    0.9225   61.0433   78.1943 H   0  0  0  0  0  0  0  0  0  0  0  0
   -0.6048   61.1368   76.2407 H   0  0  0  0  0  0  0  0  0  0  0  0
    2.1604   57.0710   77.0620 H   0  0  0  0  0  0  0  0  0  0  0  0
    4.3334   59.5782   79.5795 H   0  0  0  0  0  0  0  0  0  0  0  0
    4.2846   58.6446   78.0456 H   0  0  0  0  0  0  0  0  0  0  0  0
    3.8773   60.3941   78.0456 H   0  0  0  0  0  0  0  0  0  0  0  0
    2.6788   56.6454   75.1200 H   0  0  0  0  0  0  0  0  0  0  0  0
    1.8986   55.8500   73.7109 H   0  0  0  0  0  0  0  0  0  0  0  0
    2.1538   57.6281   73.7109 H   0  0  0  0  0  0  0  0  0  0  0  0
    1.1926   59.0320   73.0940 H   0  0  0  0  0  0  0  0  0  0  0  0
    3.0928   59.6200   71.6020 H   0  0  0  0  0  0  0  0  0  0  0  0
    1.2185   63.4192   70.7421 H   0  0  0  0  0  0  0  0  0  0  0  0
   -0.6815   62.8189   72.2325 H   0  0  0  0  0  0  0  0  0  0  0  0
    4.4928   59.9901   70.5783 H   0  0  0  0  0  0  0  0  0  0  0  0
    3.6014   59.9345   69.1530 H   0  0  0  0  0  0  0  0  0  0  0  0
  2  1  1  0
  3  2  1  0
  4  3  2  0
  5  1  1  0
  5  4  1  0
  6  3  1  0
  7  6  2  0
  8  7  1  0
  9  8  1  0
 10  8  2  0
 11 10  1  0
 12 11  2  0
 12  6  1  0
 13 12  1  0
 15 14  2  0
 16 15  1  0
 17 16  2  0
 17  1  1  0
 18 17  1  0
 19 14  1  0
 19 18  2  0
 21 20  1  0
 21 14  1  0
 22 18  1  0
 23 22  1  0
 24  5  1  0
 25 24  2  0
 26 25  1  0
 27 26  2  0
 28 27  1  0
 29 24  1  0
 29 28  2  0
 30 27  1  0
 31 30  2  0
 32 30  2  0
 33 30  1  0
  1 34  1  6
  2 35  1  0
  2 36  1  0
  7 37  1  0
 10 38  1  0
 11 39  1  0
 15 40  1  0
 16 41  1  0
 19 42  1  0
 20 43  1  0
 20 44  1  0
 20 45  1  0
 23 46  1  0
 23 47  1  0
 23 48  1  0
 25 49  1  0
 26 50  1  0
 28 51  1  0
 29 52  1  0
 33 53  1  0
 33 54  1  0
M  END
>  <score>  (8) 
-7.296

$$$$
=
     RDKit          3D

 54 57  0  0  0  0  0  0  0  0999 V2000
   -0.5520   60.3500   73.6110 C   0  0  1  0  0  0  0  0  0  0  0  0
   -0.1600   61.4670   72.6440 C   0  0  0  0  0  0  0  0  0  0  0  0
    1.1520   60.9400   72.1340 C   0  0  0  0  0  0  0  0  0  0  0  0
    1.4410   59.7280   72.5030 N   0  0  0  0  0  0  0  0  0  0  0  0
    0.4510   59.3090   73.3470 N   0  0  0  0  0  0  0  0  0  0  0  0
    2.0390   61.7360   71.2600 C   0  0  0  0  0  0  0  0  0  0  0  0
    1.9690   63.1340   71.3250 C   0  0  0  0  0  0  0  0  0  0  0  0
    2.7880   63.9050   70.5080 C   0  0  0  0  0  0  0  0  0  0  0  0
    2.7150   65.2410   70.5720 F   0  0  0  0  0  0  0  0  0  0  0  0
    3.6830   63.3130   69.6230 C   0  0  0  0  0  0  0  0  0  0  0  0
    3.7620   61.9230   69.5560 C   0  0  0  0  0  0  0  0  0  0  0  0
    2.9410   61.1430   70.3730 C   0  0  0  0  0  0  0  0  0  0  0  0
    3.0630   59.8110   70.2870 F   0  0  0  0  0  0  0  0  0  0  0  0
   -0.7960   61.6930   77.7500 C   0  0  0  0  0  0  0  0  0  0  0  0
   -1.9410   61.4310   77.0000 C   0  0  0  0  0  0  0  0  0  0  0  0
   -1.8450   61.0020   75.6730 C   0  0  0  0  0  0  0  0  0  0  0  0
   -0.5940   60.8080   75.0620 C   0  0  0  0  0  0  0  0  0  0  0  0
    0.5500   61.0680   75.8340 C   0  0  0  0  0  0  0  0  0  0  0  0
    0.4530   61.5210   77.1590 C   0  0  0  0  0  0  0  0  0  0  0  0
   -0.1400   63.0930   79.5550 C   0  0  0  0  0  0  0  0  0  0  0  0
   -1.0320   62.1200   79.0260 O   0  0  0  0  0  0  0  0  0  0  0  0
    1.7960   60.9710   75.2680 O   0  0  0  0  0  0  0  0  0  0  0  0
    2.6440   60.1270   76.0500 C   0  0  0  0  0  0  0  0  0  0  0  0
    0.3930   57.9760   73.7480 C   0  0  0  0  0  0  0  0  0  0  0  0
   -0.8160   57.4260   74.2180 C   0  0  0  0  0  0  0  0  0  0  0  0
   -0.9200   56.0910   74.6240 C   0  0  0  0  0  0  0  0  0  0  0  0
    0.2090   55.2770   74.5780 C   0  0  0  0  0  0  0  0  0  0  0  0
    1.4200   55.7810   74.1110 C   0  0  0  0  0  0  0  0  0  0  0  0
    1.5030   57.1190   73.7050 C   0  0  0  0  0  0  0  0  0  0  0  0
    0.1010   53.5870   75.0930 S   0  0  0  0  0  6  0  0  0  0  0  0
    1.4130   52.9890   74.9960 O   0  0  0  0  0  0  0  0  0  0  0  0
   -0.6970   53.5200   76.2940 O   0  0  0  0  0  0  0  0  0  0  0  0
   -0.7990   52.9130   73.8380 N   0  0  0  0  0  0  0  0  0  0  0  0
   -1.5779   59.9862   73.4523 H   0  0  0  0  0  0  0  0  0  0  0  0
   -0.8952   61.5791   71.8335 H   0  0  0  0  0  0  0  0  0  0  0  0
   -0.1069   62.4679   73.0972 H   0  0  0  0  0  0  0  0  0  0  0  0
    1.2684   63.6197   72.0201 H   0  0  0  0  0  0  0  0  0  0  0  0
    4.3230   63.9365   68.9814 H   0  0  0  0  0  0  0  0  0  0  0  0
    4.4680   61.4426   68.8626 H   0  0  0  0  0  0  0  0  0  0  0  0
   -2.9324   61.5634   77.4578 H   0  0  0  0  0  0  0  0  0  0  0  0
   -2.7633   60.8132   75.0976 H   0  0  0  0  0  0  0  0  0  0  0  0
    1.3660   61.7407   77.7319 H   0  0  0  0  0  0  0  0  0  0  0  0
   -0.1707   63.0595   80.6541 H   0  0  0  0  0  0  0  0  0  0  0  0
    0.8824   62.8791   79.2101 H   0  0  0  0  0  0  0  0  0  0  0  0
   -0.4417   64.0930   79.2101 H   0  0  0  0  0  0  0  0  0  0  0  0
    2.4594   60.3108   77.1187 H   0  0  0  0  0  0  0  0  0  0  0  0
    2.4290   59.0738   75.8166 H   0  0  0  0  0  0  0  0  0  0  0  0
    3.6962   60.3469   75.8166 H   0  0  0  0  0  0  0  0  0  0  0  0
   -1.7081   58.0676   74.2674 H   0  0  0  0  0  0  0  0  0  0  0  0
   -1.8819   55.6893   74.9753 H   0  0  0  0  0  0  0  0  0  0  0  0
    2.3067   55.1320   74.0612 H   0  0  0  0  0  0  0  0  0  0  0  0
    2.4655   57.5088   73.3422 H   0  0  0  0  0  0  0  0  0  0  0  0
   -1.5613   52.3421   74.2303 H   0  0  0  0  0  0  0  0  0  0  0  0
   -1.1970   53.6656   73.2583 H   0  0  0  0  0  0  0  0  0  0  0  0
  2  1  1  0
  3  2  1  0
  4  3  2  0
  5  1  1  0
  5  4  1  0
  6  3  1  0
  7  6  2  0
  8  7  1  0
  9  8  1  0
 10  8  2  0
 11 10  1  0
 12 11  2  0
 12  6  1  0
 13 12  1  0
 15 14  2  0
 16 15  1  0
 17 16  2  0
 17  1  1  0
 18 17  1  0
 19 14  1  0
 19 18  2  0
 21 20  1  0
 21 14  1  0
 22 18  1  0
 23 22  1  0
 24  5  1  0
 25 24  2  0
 26 25  1  0
 27 26  2  0
 28 27  1  0
 29 24  1  0
 29 28  2  0
 30 27  1  0
 31 30  2  0
 32 30  2  0
 33 30  1  0
  1 34  1  6
  2 35  1  0
  2 36  1  0
  7 37  1  0
 10 38  1  0
 11 39  1  0
 15 40  1  0
 16 41  1  0
 19 42  1  0
 20 43  1  0
 20 44  1  0
 20 45  1  0
 23 46  1  0
 23 47  1  0
 23 48  1  0
 25 49  1  0
 26 50  1  0
 28 51  1  0
 29 52  1  0
 33 53  1  0
 33 54  1  0
M  END
>  <score>  (9) 
-7.219

$$$$
