=
     RDKit          3D

 57 61  0  0  0  0  0  0  0  0999 V2000
    0.8240   66.3490   70.2670 C   0  0  0  0  0  0  0  0  0  0  0  0
    3.8230   58.0900   70.8920 O   0  0  0  0  0  0  0  0  0  0  0  0
    3.4350   59.2250   70.6330 C   0  0  0  0  0  0  0  0  0  0  0  0
    3.6940   59.8820   69.2980 C   0  0  0  0  0  0  0  0  0  0  0  0
    3.8580   61.3870   69.4300 C   0  0  0  0  0  0  0  0  0  0  0  0
    2.7550   61.9880   70.2620 C   0  0  0  0  0  0  0  0  0  0  0  0
    2.2140   61.2350   71.3170 C   0  0  0  0  0  0  0  0  0  0  0  0
    2.6460   59.9190   71.5110 N   0  0  0  0  0  0  0  0  0  0  0  0
    1.2710   61.7710   72.1970 C   0  0  0  0  0  0  0  0  0  0  0  0
    0.8890   63.0870   71.9460 C   0  0  0  0  0  0  0  0  0  0  0  0
    1.3860   63.8690   70.9190 C   0  0  0  0  0  0  0  0  0  0  0  0
    2.3500   63.3200   70.0550 C   0  0  0  0  0  0  0  0  0  0  0  0
    0.7090   65.1050   71.0780 C   0  0  0  0  0  0  0  0  0  0  0  0
   -0.1370   65.0740   72.1180 N   0  0  0  0  0  0  0  0  0  0  0  0
   -0.0190   63.8050   72.6600 O   0  0  0  0  0  0  0  0  0  0  0  0
   -0.2980   66.4580   69.2260 C   0  0  0  0  0  0  0  0  0  0  0  0
   -0.0810   67.5690   68.1800 C   0  0  0  0  0  0  0  0  0  0  0  0
   -0.8370   67.2910   66.8690 C   0  0  0  0  0  0  0  0  0  0  0  0
   -0.5190   68.3190   65.7890 C   0  0  0  0  0  0  0  0  0  0  0  0
    0.9690   68.3560   65.5620 N   0  0  0  0  0  4  0  0  0  0  0  0
    1.7100   68.7480   66.8120 C   0  0  0  0  0  0  0  0  0  0  0  0
    1.4250   67.7220   67.9010 C   0  0  0  0  0  0  0  0  0  0  0  0
    1.3740   69.1590   64.3390 C   0  0  0  0  0  0  0  0  0  0  0  0
    2.7100   68.8120   63.7400 C   0  0  0  0  0  0  0  0  0  0  0  0
    2.7900   68.0740   62.5470 C   0  0  0  0  0  0  0  0  0  0  0  0
    4.0300   67.7360   62.0040 C   0  0  0  0  0  0  0  0  0  0  0  0
    5.2030   68.1350   62.6400 C   0  0  0  0  0  0  0  0  0  0  0  0
    5.1400   68.8760   63.8160 C   0  0  0  0  0  0  0  0  0  0  0  0
    3.9020   69.2160   64.3640 C   0  0  0  0  0  0  0  0  0  0  0  0
    0.7713   67.2181   70.9392 H   0  0  0  0  0  0  0  0  0  0  0  0
    1.7846   66.3199   69.7317 H   0  0  0  0  0  0  0  0  0  0  0  0
    4.6139   59.4604   68.8666 H   0  0  0  0  0  0  0  0  0  0  0  0
    2.8272   59.6889   68.6489 H   0  0  0  0  0  0  0  0  0  0  0  0
    4.8250   61.6013   69.9086 H   0  0  0  0  0  0  0  0  0  0  0  0
    3.8144   61.8301   68.4241 H   0  0  0  0  0  0  0  0  0  0  0  0
    2.3505   59.4391   72.3731 H   0  0  0  0  0  0  0  0  0  0  0  0
    0.8564   61.1910   73.0347 H   0  0  0  0  0  0  0  0  0  0  0  0
    2.7776   63.9176   69.2364 H   0  0  0  0  0  0  0  0  0  0  0  0
   -0.3734   65.4962   68.6976 H   0  0  0  0  0  0  0  0  0  0  0  0
   -1.2160   66.7146   69.7751 H   0  0  0  0  0  0  0  0  0  0  0  0
   -0.4850   68.5048   68.5937 H   0  0  0  0  0  0  0  0  0  0  0  0
   -0.5540   66.2933   66.5021 H   0  0  0  0  0  0  0  0  0  0  0  0
   -1.9144   67.3495   67.0828 H   0  0  0  0  0  0  0  0  0  0  0  0
   -1.0267   68.0393   64.8541 H   0  0  0  0  0  0  0  0  0  0  0  0
   -0.8682   69.3115   66.1098 H   0  0  0  0  0  0  0  0  0  0  0  0
    1.2577   67.3924   65.3407 H   0  0  0  0  0  0  0  0  0  0  0  0
    2.7902   68.7769   66.6064 H   0  0  0  0  0  0  0  0  0  0  0  0
    1.3783   69.7430   67.1435 H   0  0  0  0  0  0  0  0  0  0  0  0
    1.8266   66.7484   67.5835 H   0  0  0  0  0  0  0  0  0  0  0  0
    1.9048   68.0720   68.8269 H   0  0  0  0  0  0  0  0  0  0  0  0
    0.6073   69.0053   63.5654 H   0  0  0  0  0  0  0  0  0  0  0  0
    1.4620   70.2006   64.6815 H   0  0  0  0  0  0  0  0  0  0  0  0
    1.8674   67.7601   62.0369 H   0  0  0  0  0  0  0  0  0  0  0  0
    4.0812   67.1536   61.0723 H   0  0  0  0  0  0  0  0  0  0  0  0
    6.1797   67.8642   62.2125 H   0  0  0  0  0  0  0  0  0  0  0  0
    6.0673   69.1944   64.3147 H   0  0  0  0  0  0  0  0  0  0  0  0
    3.8595   69.8051   65.2920 H   0  0  0  0  0  0  0  0  0  0  0  0
  3  2  2  0
  4  3  1  0
  5  4  1  0
  6  5  1  0
  7  6  2  0
  8  3  1  0
  8  7  1  0
  9  7  1  0
 10  9  2  0
 11 10  1  0
 12  6  1  0
 12 11  2  0
 13 11  1  0
 13  1  1  0
 14 13  2  0
 15 14  1  0
 15 10  1  0
 16  1  1  0
 17 16  1  0
 18 17  1  0
 19 18  1  0
 20 19  1  0
 21 20  1  0
 22 21  1  0
 22 17  1  0
 23 20  1  0
 24 23  1  0
 25 24  2  0
 26 25  1  0
 27 26  2  0
 28 27  1  0
 29 28  2  0
 29 24  1  0
  1 30  1  0
  1 31  1  0
  4 32  1  0
  4 33  1  0
  5 34  1  0
  5 35  1  0
  8 36  1  0
  9 37  1  0
 12 38  1  0
 16 39  1  0
 16 40  1  0
 17 41  1  0
 18 42  1  0
 18 43  1  0
 19 44  1  0
 19 45  1  0
 20 46  1  0
 21 47  1  0
 21 48  1  0
 22 49  1  0
 22 50  1  0
 23 51  1  0
 23 52  1  0
 25 53  1  0
 26 54  1  0
 27 55  1  0
 28 56  1  0
 29 57  1  0
M  CHG  1  20   1
M  END
>  <score>  (1) 
-11.35

$$$$
=
     RDKit          3D

 57 61  0  0  0  0  0  0  0  0999 V2000
    1.1010   67.5700   68.7520 C   0  0  0  0  0  0  0  0  0  0  0  0
    3.2240   68.9780   60.3190 O   0  0  0  0  0  0  0  0  0  0  0  0
    3.0940   68.8290   61.5310 C   0  0  0  0  0  0  0  0  0  0  0  0
    4.2740   68.7960   62.4730 C   0  0  0  0  0  0  0  0  0  0  0  0
    4.0220   67.8850   63.6630 C   0  0  0  0  0  0  0  0  0  0  0  0
    2.6800   68.1610   64.2910 C   0  0  0  0  0  0  0  0  0  0  0  0
    1.6180   68.5680   63.4680 C   0  0  0  0  0  0  0  0  0  0  0  0
    1.8520   68.7940   62.1070 N   0  0  0  0  0  0  0  0  0  0  0  0
    0.3220   68.7300   63.9640 C   0  0  0  0  0  0  0  0  0  0  0  0
    0.1610   68.4860   65.3260 C   0  0  0  0  0  0  0  0  0  0  0  0
    1.1740   68.0900   66.1800 C   0  0  0  0  0  0  0  0  0  0  0  0
    2.4680   67.9110   65.6590 C   0  0  0  0  0  0  0  0  0  0  0  0
    0.5270   67.9670   67.4360 C   0  0  0  0  0  0  0  0  0  0  0  0
   -0.7760   68.2690   67.3520 N   0  0  0  0  0  0  0  0  0  0  0  0
   -1.0010   68.5930   66.0240 O   0  0  0  0  0  0  0  0  0  0  0  0
    0.3020   66.4330   69.4040 C   0  0  0  0  0  0  0  0  0  0  0  0
    1.0780   65.6560   70.4850 C   0  0  0  0  0  0  0  0  0  0  0  0
    2.1660   64.7500   69.8850 C   0  0  0  0  0  0  0  0  0  0  0  0
    2.8440   63.8830   70.9390 C   0  0  0  0  0  0  0  0  0  0  0  0
    1.8010   63.0740   71.6620 N   0  0  0  0  0  4  0  0  0  0  0  0
    0.8000   63.9570   72.3580 C   0  0  0  0  0  0  0  0  0  0  0  0
    0.0920   64.8180   71.3200 C   0  0  0  0  0  0  0  0  0  0  0  0
    2.3850   61.9970   72.5580 C   0  0  0  0  0  0  0  0  0  0  0  0
    2.7290   60.6970   71.8830 C   0  0  0  0  0  0  0  0  0  0  0  0
    2.6360   59.4810   72.5810 C   0  0  0  0  0  0  0  0  0  0  0  0
    2.9750   58.2790   71.9590 C   0  0  0  0  0  0  0  0  0  0  0  0
    3.4040   58.2740   70.6340 C   0  0  0  0  0  0  0  0  0  0  0  0
    3.4890   59.4700   69.9260 C   0  0  0  0  0  0  0  0  0  0  0  0
    3.1520   60.6750   70.5440 C   0  0  0  0  0  0  0  0  0  0  0  0
    2.1380   67.2354   68.6015 H   0  0  0  0  0  0  0  0  0  0  0  0
    1.0596   68.4430   69.4199 H   0  0  0  0  0  0  0  0  0  0  0  0
    5.1559   68.4313   61.9260 H   0  0  0  0  0  0  0  0  0  0  0  0
    4.4371   69.8157   62.8520 H   0  0  0  0  0  0  0  0  0  0  0  0
    4.0509   66.8385   63.3253 H   0  0  0  0  0  0  0  0  0  0  0  0
    4.8021   68.0735   64.4152 H   0  0  0  0  0  0  0  0  0  0  0  0
    1.0353   68.9441   61.4975 H   0  0  0  0  0  0  0  0  0  0  0  0
   -0.5176   69.0310   63.3202 H   0  0  0  0  0  0  0  0  0  0  0  0
    3.2950   67.5832   66.3061 H   0  0  0  0  0  0  0  0  0  0  0  0
   -0.5971   66.8648   69.8678 H   0  0  0  0  0  0  0  0  0  0  0  0
    0.0657   65.7140   68.6057 H   0  0  0  0  0  0  0  0  0  0  0  0
    1.5873   66.3903   71.1264 H   0  0  0  0  0  0  0  0  0  0  0  0
    1.7045   64.0947   69.1316 H   0  0  0  0  0  0  0  0  0  0  0  0
    2.9342   65.3981   69.4380 H   0  0  0  0  0  0  0  0  0  0  0  0
    3.5619   63.2064   70.4523 H   0  0  0  0  0  0  0  0  0  0  0  0
    3.3769   64.5239   71.6568 H   0  0  0  0  0  0  0  0  0  0  0  0
    1.2814   62.5523   70.9418 H   0  0  0  0  0  0  0  0  0  0  0  0
    0.0626   63.3341   72.8854 H   0  0  0  0  0  0  0  0  0  0  0  0
    1.3153   64.6009   73.0860 H   0  0  0  0  0  0  0  0  0  0  0  0
   -0.4755   64.1618   70.6437 H   0  0  0  0  0  0  0  0  0  0  0  0
   -0.5713   65.5134   71.8553 H   0  0  0  0  0  0  0  0  0  0  0  0
    3.3052   62.3963   73.0095 H   0  0  0  0  0  0  0  0  0  0  0  0
    1.5967   61.7553   73.2862 H   0  0  0  0  0  0  0  0  0  0  0  0
    2.2932   59.4767   73.6262 H   0  0  0  0  0  0  0  0  0  0  0  0
    2.9033   57.3333   72.5163 H   0  0  0  0  0  0  0  0  0  0  0  0
    3.6755   57.3258   70.1471 H   0  0  0  0  0  0  0  0  0  0  0  0
    3.8224   59.4650   68.8777 H   0  0  0  0  0  0  0  0  0  0  0  0
    3.2182   61.6156   69.9775 H   0  0  0  0  0  0  0  0  0  0  0  0
  3  2  2  0
  4  3  1  0
  5  4  1  0
  6  5  1  0
  7  6  2  0
  8  3  1  0
  8  7  1  0
  9  7  1  0
 10  9  2  0
 11 10  1  0
 12  6  1  0
 12 11  2  0
 13 11  1  0
 13  1  1  0
 14 13  2  0
 15 14  1  0
 15 10  1  0
 16  1  1  0
 17 16  1  0
 18 17  1  0
 19 18  1  0
 20 19  1  0
 21 20  1  0
 22 21  1  0
 22 17  1  0
 23 20  1  0
 24 23  1  0
 25 24  2  0
 26 25  1  0
 27 26  2  0
 28 27  1  0
 29 28  2  0
 29 24  1  0
  1 30  1  0
  1 31  1  0
  4 32  1  0
  4 33  1  0
  5 34  1  0
  5 35  1  0
  8 36  1  0
  9 37  1  0
 12 38  1  0
 16 39  1  0
 16 40  1  0
 17 41  1  0
 18 42  1  0
 18 43  1  0
 19 44  1  0
 19 45  1  0
 20 46  1  0
 21 47  1  0
 21 48  1  0
 22 49  1  0
 22 50  1  0
 23 51  1  0
 23 52  1  0
 25 53  1  0
 26 54  1  0
 27 55  1  0
 28 56  1  0
 29 57  1  0
M  CHG  1  20   1
M  END
>  <score>  (2) 
-10.997

$$$$
=
     RDKit          3D

 57 61  0  0  0  0  0  0  0  0999 V2000
   -1.5870   68.7570   66.0930 C   0  0  0  0  0  0  0  0  0  0  0  0
    6.3860   68.9360   62.3510 O   0  0  0  0  0  0  0  0  0  0  0  0
    5.3460   69.0080   63.0000 C   0  0  0  0  0  0  0  0  0  0  0  0
    5.3180   69.4960   64.4290 C   0  0  0  0  0  0  0  0  0  0  0  0
    4.2260   68.8150   65.2370 C   0  0  0  0  0  0  0  0  0  0  0  0
    2.9090   68.8330   64.5050 C   0  0  0  0  0  0  0  0  0  0  0  0
    2.9130   68.7540   63.1030 C   0  0  0  0  0  0  0  0  0  0  0  0
    4.1330   68.7510   62.4190 N   0  0  0  0  0  0  0  0  0  0  0  0
    1.7280   68.6510   62.3680 C   0  0  0  0  0  0  0  0  0  0  0  0
    0.5520   68.6570   63.1130 C   0  0  0  0  0  0  0  0  0  0  0  0
    0.4940   68.7390   64.4930 C   0  0  0  0  0  0  0  0  0  0  0  0
    1.6960   68.8200   65.2180 C   0  0  0  0  0  0  0  0  0  0  0  0
   -0.8950   68.7030   64.7740 C   0  0  0  0  0  0  0  0  0  0  0  0
   -1.6250   68.6100   63.6530 N   0  0  0  0  0  0  0  0  0  0  0  0
   -0.7110   68.5800   62.6130 O   0  0  0  0  0  0  0  0  0  0  0  0
   -0.5940   68.9130   67.2520 C   0  0  0  0  0  0  0  0  0  0  0  0
   -0.0960   67.5780   67.8390 C   0  0  0  0  0  0  0  0  0  0  0  0
   -1.2070   66.8170   68.5820 C   0  0  0  0  0  0  0  0  0  0  0  0
   -0.6860   65.5630   69.2750 C   0  0  0  0  0  0  0  0  0  0  0  0
    0.4320   65.9410   70.2090 N   0  0  0  0  0  4  0  0  0  0  0  0
    1.5800   66.5760   69.4700 C   0  0  0  0  0  0  0  0  0  0  0  0
    1.0880   67.8460   68.7870 C   0  0  0  0  0  0  0  0  0  0  0  0
    0.8570   64.8130   71.1320 C   0  0  0  0  0  0  0  0  0  0  0  0
    1.9230   63.8940   70.5990 C   0  0  0  0  0  0  0  0  0  0  0  0
    1.5770   62.7250   69.9020 C   0  0  0  0  0  0  0  0  0  0  0  0
    2.5670   61.8640   69.4260 C   0  0  0  0  0  0  0  0  0  0  0  0
    3.9110   62.1630   69.6350 C   0  0  0  0  0  0  0  0  0  0  0  0
    4.2690   63.3240   70.3130 C   0  0  0  0  0  0  0  0  0  0  0  0
    3.2830   64.1870   70.7920 C   0  0  0  0  0  0  0  0  0  0  0  0
   -2.2773   69.6134   66.0980 H   0  0  0  0  0  0  0  0  0  0  0  0
   -2.1297   67.8105   66.2331 H   0  0  0  0  0  0  0  0  0  0  0  0
    6.2910   69.2847   64.8965 H   0  0  0  0  0  0  0  0  0  0  0  0
    5.1111   70.5763   64.4172 H   0  0  0  0  0  0  0  0  0  0  0  0
    4.5174   67.7709   65.4241 H   0  0  0  0  0  0  0  0  0  0  0  0
    4.1037   69.3614   66.1838 H   0  0  0  0  0  0  0  0  0  0  0  0
    4.1180   68.5414   61.4107 H   0  0  0  0  0  0  0  0  0  0  0  0
    1.7252   68.5704   61.2710 H   0  0  0  0  0  0  0  0  0  0  0  0
    1.6883   68.8720   66.3167 H   0  0  0  0  0  0  0  0  0  0  0  0
    0.2775   69.4760   66.8866 H   0  0  0  0  0  0  0  0  0  0  0  0
   -1.1290   69.4342   68.0595 H   0  0  0  0  0  0  0  0  0  0  0  0
    0.2269   66.9417   67.0019 H   0  0  0  0  0  0  0  0  0  0  0  0
   -1.6463   67.4830   69.3393 H   0  0  0  0  0  0  0  0  0  0  0  0
   -1.9554   66.5044   67.8390 H   0  0  0  0  0  0  0  0  0  0  0  0
   -1.5001   65.0937   69.8468 H   0  0  0  0  0  0  0  0  0  0  0  0
   -0.3138   64.8527   68.5221 H   0  0  0  0  0  0  0  0  0  0  0  0
    0.0553   66.6609   70.8421 H   0  0  0  0  0  0  0  0  0  0  0  0
    2.3824   66.8260   70.1797 H   0  0  0  0  0  0  0  0  0  0  0  0
    1.9699   65.8758   68.7165 H   0  0  0  0  0  0  0  0  0  0  0  0
    0.7684   68.5618   69.5587 H   0  0  0  0  0  0  0  0  0  0  0  0
    1.9168   68.2477   68.1855 H   0  0  0  0  0  0  0  0  0  0  0  0
    1.2340   65.2627   72.0624 H   0  0  0  0  0  0  0  0  0  0  0  0
   -0.0366   64.1859   71.2668 H   0  0  0  0  0  0  0  0  0  0  0  0
    0.5172   62.4860   69.7298 H   0  0  0  0  0  0  0  0  0  0  0  0
    2.2854   60.9484   68.8853 H   0  0  0  0  0  0  0  0  0  0  0  0
    4.6900   61.4808   69.2638 H   0  0  0  0  0  0  0  0  0  0  0  0
    5.3312   63.5619   70.4716 H   0  0  0  0  0  0  0  0  0  0  0  0
    3.5731   65.1044   71.3252 H   0  0  0  0  0  0  0  0  0  0  0  0
  3  2  2  0
  4  3  1  0
  5  4  1  0
  6  5  1  0
  7  6  2  0
  8  3  1  0
  8  7  1  0
  9  7  1  0
 10  9  2  0
 11 10  1  0
 12  6  1  0
 12 11  2  0
 13 11  1  0
 13  1  1  0
 14 13  2  0
 15 14  1  0
 15 10  1  0
 16  1  1  0
 17 16  1  0
 18 17  1  0
 19 18  1  0
 20 19  1  0
 21 20  1  0
 22 21  1  0
 22 17  1  0
 23 20  1  0
 24 23  1  0
 25 24  2  0
 26 25  1  0
 27 26  2  0
 28 27  1  0
 29 28  2  0
 29 24  1  0
  1 30  1  0
  1 31  1  0
  4 32  1  0
  4 33  1  0
  5 34  1  0
  5 35  1  0
  8 36  1  0
  9 37  1  0
 12 38  1  0
 16 39  1  0
 16 40  1  0
 17 41  1  0
 18 42  1  0
 18 43  1  0
 19 44  1  0
 19 45  1  0
 20 46  1  0
 21 47  1  0
 21 48  1  0
 22 49  1  0
 22 50  1  0
 23 51  1  0
 23 52  1  0
 25 53  1  0
 26 54  1  0
 27 55  1  0
 28 56  1  0
 29 57  1  0
M  CHG  1  20   1
M  END
>  <score>  (3) 
-10.848

$$$$
=
     RDKit          3D

 57 61  0  0  0  0  0  0  0  0999 V2000
    0.9130   64.0370   71.6740 C   0  0  0  0  0  0  0  0  0  0  0  0
    2.0700   55.5110   73.5610 O   0  0  0  0  0  0  0  0  0  0  0  0
    1.8370   56.7120   73.4580 C   0  0  0  0  0  0  0  0  0  0  0  0
    0.9250   57.4430   74.4150 C   0  0  0  0  0  0  0  0  0  0  0  0
    0.1860   58.5820   73.7330 C   0  0  0  0  0  0  0  0  0  0  0  0
    1.1250   59.4400   72.9250 C   0  0  0  0  0  0  0  0  0  0  0  0
    2.2310   58.8360   72.3050 C   0  0  0  0  0  0  0  0  0  0  0  0
    2.4840   57.4780   72.5250 N   0  0  0  0  0  0  0  0  0  0  0  0
    3.0770   59.5490   71.4510 C   0  0  0  0  0  0  0  0  0  0  0  0
    2.7640   60.8950   71.2750 C   0  0  0  0  0  0  0  0  0  0  0  0
    1.6920   61.5380   71.8670 C   0  0  0  0  0  0  0  0  0  0  0  0
    0.8390   60.8010   72.7060 C   0  0  0  0  0  0  0  0  0  0  0  0
    1.7910   62.8690   71.3870 C   0  0  0  0  0  0  0  0  0  0  0  0
    2.8440   63.0230   70.5710 N   0  0  0  0  0  0  0  0  0  0  0  0
    3.4510   61.7800   70.5040 O   0  0  0  0  0  0  0  0  0  0  0  0
    0.0160   64.3850   70.4790 C   0  0  0  0  0  0  0  0  0  0  0  0
    0.0810   65.8640   70.0510 C   0  0  0  0  0  0  0  0  0  0  0  0
   -0.6190   66.1130   68.7050 C   0  0  0  0  0  0  0  0  0  0  0  0
   -0.4420   67.5460   68.2160 C   0  0  0  0  0  0  0  0  0  0  0  0
    1.0270   67.8630   68.1310 N   0  0  0  0  0  4  0  0  0  0  0  0
    1.6980   67.7420   69.4740 C   0  0  0  0  0  0  0  0  0  0  0  0
    1.5530   66.3100   69.9730 C   0  0  0  0  0  0  0  0  0  0  0  0
    1.3240   69.1720   67.4220 C   0  0  0  0  0  0  0  0  0  0  0  0
    2.7500   69.3720   66.9850 C   0  0  0  0  0  0  0  0  0  0  0  0
    3.6950   69.9330   67.8600 C   0  0  0  0  0  0  0  0  0  0  0  0
    5.0120   70.1370   67.4460 C   0  0  0  0  0  0  0  0  0  0  0  0
    5.4020   69.7790   66.1580 C   0  0  0  0  0  0  0  0  0  0  0  0
    4.4800   69.2110   65.2840 C   0  0  0  0  0  0  0  0  0  0  0  0
    3.1610   69.0060   65.6930 C   0  0  0  0  0  0  0  0  0  0  0  0
    0.2766   63.7995   72.5392 H   0  0  0  0  0  0  0  0  0  0  0  0
    1.5565   64.9046   71.8816 H   0  0  0  0  0  0  0  0  0  0  0  0
    0.1888   56.7321   74.8182 H   0  0  0  0  0  0  0  0  0  0  0  0
    1.5440   57.8699   75.2179 H   0  0  0  0  0  0  0  0  0  0  0  0
   -0.5802   58.1622   73.0646 H   0  0  0  0  0  0  0  0  0  0  0  0
   -0.2754   59.2098   74.5095 H   0  0  0  0  0  0  0  0  0  0  0  0
    3.2051   57.0237   71.9467 H   0  0  0  0  0  0  0  0  0  0  0  0
    3.9352   59.0774   70.9498 H   0  0  0  0  0  0  0  0  0  0  0  0
   -0.0320   61.2765   73.1807 H   0  0  0  0  0  0  0  0  0  0  0  0
    0.3236   63.7646   69.6243 H   0  0  0  0  0  0  0  0  0  0  0  0
   -1.0201   64.1920   70.7942 H   0  0  0  0  0  0  0  0  0  0  0  0
   -0.4538   66.4570   70.8076 H   0  0  0  0  0  0  0  0  0  0  0  0
   -0.1962   65.4286   67.9547 H   0  0  0  0  0  0  0  0  0  0  0  0
   -1.6954   65.9374   68.8484 H   0  0  0  0  0  0  0  0  0  0  0  0
   -0.8998   67.6544   67.2217 H   0  0  0  0  0  0  0  0  0  0  0  0
   -0.9291   68.2385   68.9182 H   0  0  0  0  0  0  0  0  0  0  0  0
    1.4483   67.1440   67.5256 H   0  0  0  0  0  0  0  0  0  0  0  0
    2.7647   67.9928   69.3774 H   0  0  0  0  0  0  0  0  0  0  0  0
    1.2280   68.4341   70.1882 H   0  0  0  0  0  0  0  0  0  0  0  0
    2.0896   65.6398   69.2853 H   0  0  0  0  0  0  0  0  0  0  0  0
    1.9727   66.2637   70.9887 H   0  0  0  0  0  0  0  0  0  0  0  0
    0.6866   69.2231   66.5270 H   0  0  0  0  0  0  0  0  0  0  0  0
    1.1242   69.9630   68.1598 H   0  0  0  0  0  0  0  0  0  0  0  0
    3.3943   70.2139   68.8802 H   0  0  0  0  0  0  0  0  0  0  0  0
    5.7428   70.5811   68.1379 H   0  0  0  0  0  0  0  0  0  0  0  0
    6.4391   69.9452   65.8314 H   0  0  0  0  0  0  0  0  0  0  0  0
    4.7911   68.9230   64.2690 H   0  0  0  0  0  0  0  0  0  0  0  0
    2.4380   68.5543   64.9978 H   0  0  0  0  0  0  0  0  0  0  0  0
  3  2  2  0
  4  3  1  0
  5  4  1  0
  6  5  1  0
  7  6  2  0
  8  3  1  0
  8  7  1  0
  9  7  1  0
 10  9  2  0
 11 10  1  0
 12  6  1  0
 12 11  2  0
 13 11  1  0
 13  1  1  0
 14 13  2  0
 15 14  1  0
 15 10  1  0
 16  1  1  0
 17 16  1  0
 18 17  1  0
 19 18  1  0
 20 19  1  0
 21 20  1  0
 22 21  1  0
 22 17  1  0
 23 20  1  0
 24 23  1  0
 25 24  2  0
 26 25  1  0
 27 26  2  0
 28 27  1  0
 29 28  2  0
 29 24  1  0
  1 30  1  0
  1 31  1  0
  4 32  1  0
  4 33  1  0
  5 34  1  0
  5 35  1  0
  8 36  1  0
  9 37  1  0
 12 38  1  0
 16 39  1  0
 16 40  1  0
 17 41  1  0
 18 42  1  0
 18 43  1  0
 19 44  1  0
 19 45  1  0
 20 46  1  0
 21 47  1  0
 21 48  1  0
 22 49  1  0
 22 50  1  0
 23 51  1  0
 23 52  1  0
 25 53  1  0
 26 54  1  0
 27 55  1  0
 28 56  1  0
 29 57  1  0
M  CHG  1  20   1
M  END
>  <score>  (4) 
-10.812

$$$$
=
     RDKit          3D

 57 61  0  0  0  0  0  0  0  0999 V2000
    0.7650   68.2720   64.6390 C   0  0  0  0  0  0  0  0  0  0  0  0
    7.8860   71.3920   68.7820 O   0  0  0  0  0  0  0  0  0  0  0  0
    6.8010   71.0560   68.3160 C   0  0  0  0  0  0  0  0  0  0  0  0
    5.4960   71.3370   69.0230 C   0  0  0  0  0  0  0  0  0  0  0  0
    4.4620   70.2560   68.7520 C   0  0  0  0  0  0  0  0  0  0  0  0
    4.3650   69.9460   67.2810 C   0  0  0  0  0  0  0  0  0  0  0  0
    5.5220   70.0390   66.4910 C   0  0  0  0  0  0  0  0  0  0  0  0
    6.7100   70.5020   67.0670 N   0  0  0  0  0  0  0  0  0  0  0  0
    5.5290   69.6580   65.1470 C   0  0  0  0  0  0  0  0  0  0  0  0
    4.3130   69.2040   64.6410 C   0  0  0  0  0  0  0  0  0  0  0  0
    3.1450   69.1000   65.3740 C   0  0  0  0  0  0  0  0  0  0  0  0
    3.1610   69.4670   66.7300 C   0  0  0  0  0  0  0  0  0  0  0  0
    2.2050   68.5950   64.4390 C   0  0  0  0  0  0  0  0  0  0  0  0
    2.7580   68.4120   63.2320 N   0  0  0  0  0  0  0  0  0  0  0  0
    4.0830   68.7950   63.3640 O   0  0  0  0  0  0  0  0  0  0  0  0
    0.2760   68.6810   66.0350 C   0  0  0  0  0  0  0  0  0  0  0  0
    0.4150   67.5750   67.1000 C   0  0  0  0  0  0  0  0  0  0  0  0
   -0.9490   67.0880   67.6160 C   0  0  0  0  0  0  0  0  0  0  0  0
   -0.8130   66.0910   68.7610 C   0  0  0  0  0  0  0  0  0  0  0  0
   -0.0040   66.7140   69.8670 N   0  0  0  0  0  4  0  0  0  0  0  0
    1.3800   67.0810   69.4020 C   0  0  0  0  0  0  0  0  0  0  0  0
    1.2690   68.0960   68.2710 C   0  0  0  0  0  0  0  0  0  0  0  0
   -0.0160   65.9080   71.1530 C   0  0  0  0  0  0  0  0  0  0  0  0
    0.7040   64.5870   71.1070 C   0  0  0  0  0  0  0  0  0  0  0  0
    0.0890   63.4200   71.5910 C   0  0  0  0  0  0  0  0  0  0  0  0
    0.7660   62.1990   71.5660 C   0  0  0  0  0  0  0  0  0  0  0  0
    2.0590   62.1280   71.0520 C   0  0  0  0  0  0  0  0  0  0  0  0
    2.6750   63.2740   70.5580 C   0  0  0  0  0  0  0  0  0  0  0  0
    2.0030   64.4970   70.5820 C   0  0  0  0  0  0  0  0  0  0  0  0
    0.1719   68.8078   63.8832 H   0  0  0  0  0  0  0  0  0  0  0  0
    0.6426   67.1833   64.5400 H   0  0  0  0  0  0  0  0  0  0  0  0
    5.6818   71.3883   70.1060 H   0  0  0  0  0  0  0  0  0  0  0  0
    5.1005   72.2908   68.6437 H   0  0  0  0  0  0  0  0  0  0  0  0
    4.7494   69.3420   69.2924 H   0  0  0  0  0  0  0  0  0  0  0  0
    3.4822   70.6198   69.0949 H   0  0  0  0  0  0  0  0  0  0  0  0
    7.5751   70.4206   66.5139 H   0  0  0  0  0  0  0  0  0  0  0  0
    6.4366   69.7130   64.5279 H   0  0  0  0  0  0  0  0  0  0  0  0
    2.2542   69.3821   67.3468 H   0  0  0  0  0  0  0  0  0  0  0  0
    0.8606   69.5528   66.3641 H   0  0  0  0  0  0  0  0  0  0  0  0
   -0.7981   68.8996   65.9433 H   0  0  0  0  0  0  0  0  0  0  0  0
    0.9083   66.7129   66.6273 H   0  0  0  0  0  0  0  0  0  0  0  0
   -1.5238   67.9566   67.9699 H   0  0  0  0  0  0  0  0  0  0  0  0
   -1.4601   66.5787   66.7857 H   0  0  0  0  0  0  0  0  0  0  0  0
   -1.8116   65.8271   69.1395 H   0  0  0  0  0  0  0  0  0  0  0  0
   -0.3085   65.1821   68.4013 H   0  0  0  0  0  0  0  0  0  0  0  0
   -0.4746   67.5963   70.1140 H   0  0  0  0  0  0  0  0  0  0  0  0
    1.9457   67.5196   70.2372 H   0  0  0  0  0  0  0  0  0  0  0  0
    1.9034   66.1817   69.0450 H   0  0  0  0  0  0  0  0  0  0  0  0
    0.8082   69.0143   68.6638 H   0  0  0  0  0  0  0  0  0  0  0  0
    2.2829   68.2869   67.8894 H   0  0  0  0  0  0  0  0  0  0  0  0
    0.4516   66.5197   71.9386 H   0  0  0  0  0  0  0  0  0  0  0  0
   -1.0720   65.6653   71.3426 H   0  0  0  0  0  0  0  0  0  0  0  0
   -0.9338   63.4687   71.9928 H   0  0  0  0  0  0  0  0  0  0  0  0
    0.2779   61.2922   71.9526 H   0  0  0  0  0  0  0  0  0  0  0  0
    2.5929   61.1664   71.0366 H   0  0  0  0  0  0  0  0  0  0  0  0
    3.6939   63.2158   70.1477 H   0  0  0  0  0  0  0  0  0  0  0  0
    2.4951   65.3977   70.1864 H   0  0  0  0  0  0  0  0  0  0  0  0
  3  2  2  0
  4  3  1  0
  5  4  1  0
  6  5  1  0
  7  6  2  0
  8  3  1  0
  8  7  1  0
  9  7  1  0
 10  9  2  0
 11 10  1  0
 12  6  1  0
 12 11  2  0
 13 11  1  0
 13  1  1  0
 14 13  2  0
 15 14  1  0
 15 10  1  0
 16  1  1  0
 17 16  1  0
 18 17  1  0
 19 18  1  0
 20 19  1  0
 21 20  1  0
 22 21  1  0
 22 17  1  0
 23 20  1  0
 24 23  1  0
 25 24  2  0
 26 25  1  0
 27 26  2  0
 28 27  1  0
 29 28  2  0
 29 24  1  0
  1 30  1  0
  1 31  1  0
  4 32  1  0
  4 33  1  0
  5 34  1  0
  5 35  1  0
  8 36  1  0
  9 37  1  0
 12 38  1  0
 16 39  1  0
 16 40  1  0
 17 41  1  0
 18 42  1  0
 18 43  1  0
 19 44  1  0
 19 45  1  0
 20 46  1  0
 21 47  1  0
 21 48  1  0
 22 49  1  0
 22 50  1  0
 23 51  1  0
 23 52  1  0
 25 53  1  0
 26 54  1  0
 27 55  1  0
 28 56  1  0
 29 57  1  0
M  CHG  1  20   1
M  END
>  <score>  (5) 
-10.649

$$$$
=
     RDKit          3D

 57 61  0  0  0  0  0  0  0  0999 V2000
    2.1210   65.0760   70.4970 C   0  0  0  0  0  0  0  0  0  0  0  0
    1.9600   56.7370   73.3340 O   0  0  0  0  0  0  0  0  0  0  0  0
    1.9660   57.9440   73.1080 C   0  0  0  0  0  0  0  0  0  0  0  0
    1.5580   58.9620   74.1450 C   0  0  0  0  0  0  0  0  0  0  0  0
    0.9070   60.1820   73.5150 C   0  0  0  0  0  0  0  0  0  0  0  0
    1.7200   60.7030   72.3580 C   0  0  0  0  0  0  0  0  0  0  0  0
    2.4370   59.7900   71.5690 C   0  0  0  0  0  0  0  0  0  0  0  0
    2.4510   58.4380   71.9260 N   0  0  0  0  0  0  0  0  0  0  0  0
    3.1190   60.1900   70.4170 C   0  0  0  0  0  0  0  0  0  0  0  0
    3.0610   61.5490   70.1200 C   0  0  0  0  0  0  0  0  0  0  0  0
    2.3750   62.4890   70.8680 C   0  0  0  0  0  0  0  0  0  0  0  0
    1.6760   62.0660   72.0120 C   0  0  0  0  0  0  0  0  0  0  0  0
    2.6050   63.7040   70.1730 C   0  0  0  0  0  0  0  0  0  0  0  0
    3.3740   63.5170   69.0910 N   0  0  0  0  0  0  0  0  0  0  0  0
    3.6560   62.1610   69.0610 O   0  0  0  0  0  0  0  0  0  0  0  0
    0.5920   65.1790   70.4000 C   0  0  0  0  0  0  0  0  0  0  0  0
    0.0920   66.4110   69.6210 C   0  0  0  0  0  0  0  0  0  0  0  0
   -1.0330   66.0580   68.6330 C   0  0  0  0  0  0  0  0  0  0  0  0
   -1.4370   67.2460   67.7680 C   0  0  0  0  0  0  0  0  0  0  0  0
   -0.2240   67.7710   67.0470 N   0  0  0  0  0  4  0  0  0  0  0  0
    0.8360   68.2340   68.0100 C   0  0  0  0  0  0  0  0  0  0  0  0
    1.2730   67.0560   68.8710 C   0  0  0  0  0  0  0  0  0  0  0  0
   -0.5530   68.7900   65.9710 C   0  0  0  0  0  0  0  0  0  0  0  0
    0.2920   68.7280   64.7280 C   0  0  0  0  0  0  0  0  0  0  0  0
    1.6510   68.3810   64.8030 C   0  0  0  0  0  0  0  0  0  0  0  0
    2.4380   68.3440   63.6500 C   0  0  0  0  0  0  0  0  0  0  0  0
    1.8770   68.6460   62.4120 C   0  0  0  0  0  0  0  0  0  0  0  0
    0.5290   68.9800   62.3210 C   0  0  0  0  0  0  0  0  0  0  0  0
   -0.2610   69.0200   63.4710 C   0  0  0  0  0  0  0  0  0  0  0  0
    2.4307   65.3301   71.5214 H   0  0  0  0  0  0  0  0  0  0  0  0
    2.5577   65.7738   69.7674 H   0  0  0  0  0  0  0  0  0  0  0  0
    0.8432   58.4959   74.8391 H   0  0  0  0  0  0  0  0  0  0  0  0
    2.4644   59.2933   74.6730 H   0  0  0  0  0  0  0  0  0  0  0  0
   -0.0947   59.9066   73.1533 H   0  0  0  0  0  0  0  0  0  0  0  0
    0.8430   60.9727   74.2771 H   0  0  0  0  0  0  0  0  0  0  0  0
    2.8532   57.7683   71.2547 H   0  0  0  0  0  0  0  0  0  0  0  0
    3.6672   59.4762   69.7846 H   0  0  0  0  0  0  0  0  0  0  0  0
    1.1081   62.7837   72.6222 H   0  0  0  0  0  0  0  0  0  0  0  0
    0.2163   64.2761   69.8963 H   0  0  0  0  0  0  0  0  0  0  0  0
    0.2152   65.2800   71.4285 H   0  0  0  0  0  0  0  0  0  0  0  0
   -0.3273   67.1223   70.3478 H   0  0  0  0  0  0  0  0  0  0  0  0
   -0.6864   65.2451   67.9780 H   0  0  0  0  0  0  0  0  0  0  0  0
   -1.9127   65.7540   69.2193 H   0  0  0  0  0  0  0  0  0  0  0  0
   -2.1913   66.9265   67.0339 H   0  0  0  0  0  0  0  0  0  0  0  0
   -1.8598   68.0381   68.4035 H   0  0  0  0  0  0  0  0  0  0  0  0
    0.1774   66.9758   66.5298 H   0  0  0  0  0  0  0  0  0  0  0  0
    1.6996   68.6214   67.4495 H   0  0  0  0  0  0  0  0  0  0  0  0
    0.4331   69.0327   68.6501 H   0  0  0  0  0  0  0  0  0  0  0  0
    1.7377   66.2977   68.2237 H   0  0  0  0  0  0  0  0  0  0  0  0
    1.9833   67.4327   69.6217 H   0  0  0  0  0  0  0  0  0  0  0  0
   -1.6014   68.6400   65.6738 H   0  0  0  0  0  0  0  0  0  0  0  0
   -0.3506   69.7735   66.4201 H   0  0  0  0  0  0  0  0  0  0  0  0
    2.0988   68.1365   65.7775 H   0  0  0  0  0  0  0  0  0  0  0  0
    3.5025   68.0759   63.7200 H   0  0  0  0  0  0  0  0  0  0  0  0
    2.4995   68.6206   61.5054 H   0  0  0  0  0  0  0  0  0  0  0  0
    0.0856   69.2127   61.3416 H   0  0  0  0  0  0  0  0  0  0  0  0
   -1.3262   69.2826   63.3918 H   0  0  0  0  0  0  0  0  0  0  0  0
  3  2  2  0
  4  3  1  0
  5  4  1  0
  6  5  1  0
  7  6  2  0
  8  3  1  0
  8  7  1  0
  9  7  1  0
 10  9  2  0
 11 10  1  0
 12  6  1  0
 12 11  2  0
 13 11  1  0
 13  1  1  0
 14 13  2  0
 15 14  1  0
 15 10  1  0
 16  1  1  0
 17 16  1  0
 18 17  1  0
 19 18  1  0
 20 19  1  0
 21 20  1  0
 22 21  1  0
 22 17  1  0
 23 20  1  0
 24 23  1  0
 25 24  2  0
 26 25  1  0
 27 26  2  0
 28 27  1  0
 29 28  2  0
 29 24  1  0
  1 30  1  0
  1 31  1  0
  4 32  1  0
  4 33  1  0
  5 34  1  0
  5 35  1  0
  8 36  1  0
  9 37  1  0
 12 38  1  0
 16 39  1  0
 16 40  1  0
 17 41  1  0
 18 42  1  0
 18 43  1  0
 19 44  1  0
 19 45  1  0
 20 46  1  0
 21 47  1  0
 21 48  1  0
 22 49  1  0
 22 50  1  0
 23 51  1  0
 23 52  1  0
 25 53  1  0
 26 54  1  0
 27 55  1  0
 28 56  1  0
 29 57  1  0
M  CHG  1  20   1
M  END
>  <score>  (6) 
-10.309

$$$$
=
     RDKit          3D

 57 61  0  0  0  0  0  0  0  0999 V2000
    0.2800   65.1200   71.8860 C   0  0  0  0  0  0  0  0  0  0  0  0
    4.0390   57.2610   70.5810 O   0  0  0  0  0  0  0  0  0  0  0  0
    3.5200   58.3740   70.5880 C   0  0  0  0  0  0  0  0  0  0  0  0
    3.5200   59.2730   69.3740 C   0  0  0  0  0  0  0  0  0  0  0  0
    3.5720   60.7420   69.7590 C   0  0  0  0  0  0  0  0  0  0  0  0
    2.5570   61.0670   70.8250 C   0  0  0  0  0  0  0  0  0  0  0  0
    2.2460   60.0890   71.7840 C   0  0  0  0  0  0  0  0  0  0  0  0
    2.8140   58.8150   71.6750 N   0  0  0  0  0  0  0  0  0  0  0  0
    1.4010   60.3600   72.8640 C   0  0  0  0  0  0  0  0  0  0  0  0
    0.8740   61.6480   72.9120 C   0  0  0  0  0  0  0  0  0  0  0  0
    1.1440   62.6430   71.9900 C   0  0  0  0  0  0  0  0  0  0  0  0
    2.0130   62.3610   70.9220 C   0  0  0  0  0  0  0  0  0  0  0  0
    0.3940   63.7510   72.4620 C   0  0  0  0  0  0  0  0  0  0  0  0
   -0.2820   63.4500   73.5800 N   0  0  0  0  0  0  0  0  0  0  0  0
    0.0250   62.1280   73.8590 O   0  0  0  0  0  0  0  0  0  0  0  0
   -0.3590   65.1010   70.4910 C   0  0  0  0  0  0  0  0  0  0  0  0
    0.3630   65.9840   69.4540 C   0  0  0  0  0  0  0  0  0  0  0  0
    1.3820   66.9340   70.1070 C   0  0  0  0  0  0  0  0  0  0  0  0
    2.0000   67.8990   69.1020 C   0  0  0  0  0  0  0  0  0  0  0  0
    0.9050   68.6670   68.4120 N   0  0  0  0  0  4  0  0  0  0  0  0
   -0.0290   67.7510   67.6660 C   0  0  0  0  0  0  0  0  0  0  0  0
   -0.6770   66.7910   68.6550 C   0  0  0  0  0  0  0  0  0  0  0  0
    1.4130   69.8260   67.5750 C   0  0  0  0  0  0  0  0  0  0  0  0
    2.8200   69.6940   67.0560 C   0  0  0  0  0  0  0  0  0  0  0  0
    3.0690   69.0990   65.8080 C   0  0  0  0  0  0  0  0  0  0  0  0
    4.3760   68.9600   65.3380 C   0  0  0  0  0  0  0  0  0  0  0  0
    5.4460   69.4170   66.1040 C   0  0  0  0  0  0  0  0  0  0  0  0
    5.2130   70.0190   67.3370 C   0  0  0  0  0  0  0  0  0  0  0  0
    3.9080   70.1600   67.8110 C   0  0  0  0  0  0  0  0  0  0  0  0
   -0.3404   65.7363   72.5533 H   0  0  0  0  0  0  0  0  0  0  0  0
    1.2938   65.5363   71.7916 H   0  0  0  0  0  0  0  0  0  0  0  0
    4.3981   59.0358   68.7554 H   0  0  0  0  0  0  0  0  0  0  0  0
    2.5864   59.0980   68.8193 H   0  0  0  0  0  0  0  0  0  0  0  0
    4.5774   60.9773   70.1383 H   0  0  0  0  0  0  0  0  0  0  0  0
    3.3414   61.3423   68.8666 H   0  0  0  0  0  0  0  0  0  0  0  0
    2.6929   58.1656   72.4652 H   0  0  0  0  0  0  0  0  0  0  0  0
    1.1671   59.6036   73.6277 H   0  0  0  0  0  0  0  0  0  0  0  0
    2.2619   63.1336   70.1796 H   0  0  0  0  0  0  0  0  0  0  0  0
   -0.3552   64.0641   70.1238 H   0  0  0  0  0  0  0  0  0  0  0  0
   -1.3742   65.5095   70.6024 H   0  0  0  0  0  0  0  0  0  0  0  0
    0.9245   65.3207   68.7796 H   0  0  0  0  0  0  0  0  0  0  0  0
    0.8723   67.5161   70.8889 H   0  0  0  0  0  0  0  0  0  0  0  0
    2.1928   66.3206   70.5269 H   0  0  0  0  0  0  0  0  0  0  0  0
    2.6658   68.5998   69.6270 H   0  0  0  0  0  0  0  0  0  0  0  0
    2.5797   67.3341   68.3571 H   0  0  0  0  0  0  0  0  0  0  0  0
    0.3476   69.1140   69.1539 H   0  0  0  0  0  0  0  0  0  0  0  0
   -0.8073   68.3458   67.1655 H   0  0  0  0  0  0  0  0  0  0  0  0
    0.5329   67.1826   66.9102 H   0  0  0  0  0  0  0  0  0  0  0  0
   -1.2919   67.3706   69.3592 H   0  0  0  0  0  0  0  0  0  0  0  0
   -1.2871   66.0780   68.0810 H   0  0  0  0  0  0  0  0  0  0  0  0
    0.7432   69.9359   66.7094 H   0  0  0  0  0  0  0  0  0  0  0  0
    1.4236   70.6969   68.2469 H   0  0  0  0  0  0  0  0  0  0  0  0
    2.2279   68.7400   65.1967 H   0  0  0  0  0  0  0  0  0  0  0  0
    4.5613   68.4889   64.3614 H   0  0  0  0  0  0  0  0  0  0  0  0
    6.4756   69.3020   65.7342 H   0  0  0  0  0  0  0  0  0  0  0  0
    6.0584   70.3841   67.9386 H   0  0  0  0  0  0  0  0  0  0  0  0
    3.7303   70.6404   68.7845 H   0  0  0  0  0  0  0  0  0  0  0  0
  3  2  2  0
  4  3  1  0
  5  4  1  0
  6  5  1  0
  7  6  2  0
  8  3  1  0
  8  7  1  0
  9  7  1  0
 10  9  2  0
 11 10  1  0
 12  6  1  0
 12 11  2  0
 13 11  1  0
 13  1  1  0
 14 13  2  0
 15 14  1  0
 15 10  1  0
 16  1  1  0
 17 16  1  0
 18 17  1  0
 19 18  1  0
 20 19  1  0
 21 20  1  0
 22 21  1  0
 22 17  1  0
 23 20  1  0
 24 23  1  0
 25 24  2  0
 26 25  1  0
 27 26  2  0
 28 27  1  0
 29 28  2  0
 29 24  1  0
  1 30  1  0
  1 31  1  0
  4 32  1  0
  4 33  1  0
  5 34  1  0
  5 35  1  0
  8 36  1  0
  9 37  1  0
 12 38  1  0
 16 39  1  0
 16 40  1  0
 17 41  1  0
 18 42  1  0
 18 43  1  0
 19 44  1  0
 19 45  1  0
 20 46  1  0
 21 47  1  0
 21 48  1  0
 22 49  1  0
 22 50  1  0
 23 51  1  0
 23 52  1  0
 25 53  1  0
 26 54  1  0
 27 55  1  0
 28 56  1  0
 29 57  1  0
M  CHG  1  20   1
M  END
>  <score>  (7) 
-10.178

$$$$
=
     RDKit          3D

 57 61  0  0  0  0  0  0  0  0999 V2000
    3.0640   57.8310   72.5440 C   0  0  0  0  0  0  0  0  0  0  0  0
    1.3630   65.9960   69.7070 O   0  0  0  0  0  0  0  0  0  0  0  0
    1.4550   64.8750   70.2000 C   0  0  0  0  0  0  0  0  0  0  0  0
    0.6450   64.4530   71.4030 C   0  0  0  0  0  0  0  0  0  0  0  0
    1.3990   63.4600   72.2720 C   0  0  0  0  0  0  0  0  0  0  0  0
    1.9910   62.3460   71.4470 C   0  0  0  0  0  0  0  0  0  0  0  0
    2.4280   62.6290   70.1430 C   0  0  0  0  0  0  0  0  0  0  0  0
    2.2240   63.9070   69.6120 N   0  0  0  0  0  0  0  0  0  0  0  0
    3.0880   61.6740   69.3650 C   0  0  0  0  0  0  0  0  0  0  0  0
    3.2600   60.4250   69.9560 C   0  0  0  0  0  0  0  0  0  0  0  0
    2.8420   60.0950   71.2330 C   0  0  0  0  0  0  0  0  0  0  0  0
    2.1990   61.0740   72.0100 C   0  0  0  0  0  0  0  0  0  0  0  0
    3.2400   58.7410   71.3780 C   0  0  0  0  0  0  0  0  0  0  0  0
    3.8480   58.2840   70.2740 N   0  0  0  0  0  0  0  0  0  0  0  0
    3.8590   59.3460   69.3850 O   0  0  0  0  0  0  0  0  0  0  0  0
    1.7300   57.0740   72.4810 C   0  0  0  0  0  0  0  0  0  0  0  0
    0.8500   57.2420   73.7350 C   0  0  0  0  0  0  0  0  0  0  0  0
   -0.3340   56.2610   73.7520 C   0  0  0  0  0  0  0  0  0  0  0  0
   -1.2780   56.5130   74.9220 C   0  0  0  0  0  0  0  0  0  0  0  0
   -1.7550   57.9400   74.8760 N   0  0  0  0  0  4  0  0  0  0  0  0
   -0.6090   58.9100   74.9840 C   0  0  0  0  0  0  0  0  0  0  0  0
    0.3380   58.6920   73.8100 C   0  0  0  0  0  0  0  0  0  0  0  0
   -2.8880   58.2320   75.8430 C   0  0  0  0  0  0  0  0  0  0  0  0
   -4.1470   58.7840   75.2310 C   0  0  0  0  0  0  0  0  0  0  0  0
   -4.2300   60.1380   74.8650 C   0  0  0  0  0  0  0  0  0  0  0  0
   -5.4050   60.6530   74.3160 C   0  0  0  0  0  0  0  0  0  0  0  0
   -6.5070   59.8240   74.1220 C   0  0  0  0  0  0  0  0  0  0  0  0
   -6.4360   58.4780   74.4700 C   0  0  0  0  0  0  0  0  0  0  0  0
   -5.2630   57.9590   75.0190 C   0  0  0  0  0  0  0  0  0  0  0  0
    3.8872   57.1014   72.5535 H   0  0  0  0  0  0  0  0  0  0  0  0
    3.0668   58.4427   73.4582 H   0  0  0  0  0  0  0  0  0  0  0  0
    0.4089   65.3439   72.0034 H   0  0  0  0  0  0  0  0  0  0  0  0
   -0.2722   63.9641   71.0428 H   0  0  0  0  0  0  0  0  0  0  0  0
    2.2098   63.9868   72.7964 H   0  0  0  0  0  0  0  0  0  0  0  0
    0.6908   63.0205   72.9899 H   0  0  0  0  0  0  0  0  0  0  0  0
    2.6832   64.1350   68.7187 H   0  0  0  0  0  0  0  0  0  0  0  0
    3.4489   61.8951   68.3497 H   0  0  0  0  0  0  0  0  0  0  0  0
    1.8663   60.8506   73.0344 H   0  0  0  0  0  0  0  0  0  0  0  0
    1.1654   57.4413   71.6113 H   0  0  0  0  0  0  0  0  0  0  0  0
    1.9760   56.0044   72.4078 H   0  0  0  0  0  0  0  0  0  0  0  0
    1.4702   57.0147   74.6146 H   0  0  0  0  0  0  0  0  0  0  0  0
   -0.8971   56.3701   72.8134 H   0  0  0  0  0  0  0  0  0  0  0  0
    0.0728   55.2448   73.8610 H   0  0  0  0  0  0  0  0  0  0  0  0
   -2.1408   55.8344   74.8511 H   0  0  0  0  0  0  0  0  0  0  0  0
   -0.7488   56.3310   75.8690 H   0  0  0  0  0  0  0  0  0  0  0  0
   -2.1728   58.0800   73.9450 H   0  0  0  0  0  0  0  0  0  0  0  0
   -0.9943   59.9401   74.9607 H   0  0  0  0  0  0  0  0  0  0  0  0
   -0.0719   58.7468   75.9300 H   0  0  0  0  0  0  0  0  0  0  0  0
   -0.1948   58.9279   72.8770 H   0  0  0  0  0  0  0  0  0  0  0  0
    1.2082   59.3496   73.9524 H   0  0  0  0  0  0  0  0  0  0  0  0
   -3.1453   57.2928   76.3545 H   0  0  0  0  0  0  0  0  0  0  0  0
   -2.5124   59.0190   76.5135 H   0  0  0  0  0  0  0  0  0  0  0  0
   -3.3619   60.7973   75.0124 H   0  0  0  0  0  0  0  0  0  0  0  0
   -5.4608   61.7153   74.0361 H   0  0  0  0  0  0  0  0  0  0  0  0
   -7.4340   60.2329   73.6936 H   0  0  0  0  0  0  0  0  0  0  0  0
   -7.3055   57.8230   74.3120 H   0  0  0  0  0  0  0  0  0  0  0  0
   -5.2121   56.8937   75.2882 H   0  0  0  0  0  0  0  0  0  0  0  0
  3  2  2  0
  4  3  1  0
  5  4  1  0
  6  5  1  0
  7  6  2  0
  8  3  1  0
  8  7  1  0
  9  7  1  0
 10  9  2  0
 11 10  1  0
 12  6  1  0
 12 11  2  0
 13 11  1  0
 13  1  1  0
 14 13  2  0
 15 14  1  0
 15 10  1  0
 16  1  1  0
 17 16  1  0
 18 17  1  0
 19 18  1  0
 20 19  1  0
 21 20  1  0
 22 21  1  0
 22 17  1  0
 23 20  1  0
 24 23  1  0
 25 24  2  0
 26 25  1  0
 27 26  2  0
 28 27  1  0
 29 28  2  0
 29 24  1  0
  1 30  1  0
  1 31  1  0
  4 32  1  0
  4 33  1  0
  5 34  1  0
  5 35  1  0
  8 36  1  0
  9 37  1  0
 12 38  1  0
 16 39  1  0
 16 40  1  0
 17 41  1  0
 18 42  1  0
 18 43  1  0
 19 44  1  0
 19 45  1  0
 20 46  1  0
 21 47  1  0
 21 48  1  0
 22 49  1  0
 22 50  1  0
 23 51  1  0
 23 52  1  0
 25 53  1  0
 26 54  1  0
 27 55  1  0
 28 56  1  0
 29 57  1  0
M  CHG  1  20   1
M  END
>  <score>  (8) 
-9.767

$$$$
=
     RDKit          3D

 57 61  0  0  0  0  0  0  0  0999 V2000
    0.0180   58.7790   75.6950 C   0  0  0  0  0  0  0  0  0  0  0  0
    0.1390   66.2200   70.9810 O   0  0  0  0  0  0  0  0  0  0  0  0
    0.2150   65.1130   71.5060 C   0  0  0  0  0  0  0  0  0  0  0  0
    0.6650   63.8880   70.7460 C   0  0  0  0  0  0  0  0  0  0  0  0
   -0.0150   62.6270   71.2530 C   0  0  0  0  0  0  0  0  0  0  0  0
    0.0480   62.5360   72.7570 C   0  0  0  0  0  0  0  0  0  0  0  0
    0.0050   63.7200   73.5090 C   0  0  0  0  0  0  0  0  0  0  0  0
   -0.0030   64.9530   72.8480 N   0  0  0  0  0  0  0  0  0  0  0  0
   -0.0550   63.7040   74.9050 C   0  0  0  0  0  0  0  0  0  0  0  0
   -0.0460   62.4430   75.4960 C   0  0  0  0  0  0  0  0  0  0  0  0
    0.0010   61.2480   74.8010 C   0  0  0  0  0  0  0  0  0  0  0  0
    0.0400   61.2820   73.3960 C   0  0  0  0  0  0  0  0  0  0  0  0
   -0.0150   60.2630   75.8220 C   0  0  0  0  0  0  0  0  0  0  0  0
   -0.0640   60.8170   77.0420 N   0  0  0  0  0  0  0  0  0  0  0  0
   -0.0850   62.1860   76.8310 O   0  0  0  0  0  0  0  0  0  0  0  0
    1.4060   58.2100   76.0190 C   0  0  0  0  0  0  0  0  0  0  0  0
    2.3410   58.0970   74.7980 C   0  0  0  0  0  0  0  0  0  0  0  0
    3.2440   59.3320   74.6390 C   0  0  0  0  0  0  0  0  0  0  0  0
    4.0730   59.2830   73.3620 C   0  0  0  0  0  0  0  0  0  0  0  0
    3.1550   59.1250   72.1800 N   0  0  0  0  0  4  0  0  0  0  0  0
    2.3550   57.8520   72.2660 C   0  0  0  0  0  0  0  0  0  0  0  0
    1.4990   57.8890   73.5260 C   0  0  0  0  0  0  0  0  0  0  0  0
    3.8500   59.3130   70.8440 C   0  0  0  0  0  0  0  0  0  0  0  0
    3.9700   60.7340   70.3610 C   0  0  0  0  0  0  0  0  0  0  0  0
    4.7720   61.6580   71.0500 C   0  0  0  0  0  0  0  0  0  0  0  0
    4.8660   62.9800   70.6120 C   0  0  0  0  0  0  0  0  0  0  0  0
    4.1660   63.3920   69.4800 C   0  0  0  0  0  0  0  0  0  0  0  0
    3.3770   62.4840   68.7810 C   0  0  0  0  0  0  0  0  0  0  0  0
    3.2790   61.1610   69.2150 C   0  0  0  0  0  0  0  0  0  0  0  0
   -0.7157   58.3457   76.3907 H   0  0  0  0  0  0  0  0  0  0  0  0
   -0.2234   58.5195   74.6537 H   0  0  0  0  0  0  0  0  0  0  0  0
    0.4215   64.0202   69.6815 H   0  0  0  0  0  0  0  0  0  0  0  0
    1.7492   63.7741   70.8928 H   0  0  0  0  0  0  0  0  0  0  0  0
   -1.0691   62.6375   70.9387 H   0  0  0  0  0  0  0  0  0  0  0  0
    0.5090   61.7568   70.8308 H   0  0  0  0  0  0  0  0  0  0  0  0
   -0.1852   65.7974   73.4089 H   0  0  0  0  0  0  0  0  0  0  0  0
   -0.1061   64.6283   75.4991 H   0  0  0  0  0  0  0  0  0  0  0  0
    0.0637   60.3511   72.8104 H   0  0  0  0  0  0  0  0  0  0  0  0
    1.8841   58.8669   76.7605 H   0  0  0  0  0  0  0  0  0  0  0  0
    1.2500   57.1880   76.3946 H   0  0  0  0  0  0  0  0  0  0  0  0
    3.0016   57.2323   74.9588 H   0  0  0  0  0  0  0  0  0  0  0  0
    2.6116   60.2317   74.6156 H   0  0  0  0  0  0  0  0  0  0  0  0
    3.9398   59.3513   75.4907 H   0  0  0  0  0  0  0  0  0  0  0  0
    4.6465   60.2161   73.2600 H   0  0  0  0  0  0  0  0  0  0  0  0
    4.7680   58.4315   73.4058 H   0  0  0  0  0  0  0  0  0  0  0  0
    2.4794   59.9010   72.2276 H   0  0  0  0  0  0  0  0  0  0  0  0
    1.7065   57.7634   71.3819 H   0  0  0  0  0  0  0  0  0  0  0  0
    3.0343   56.9876   72.3031 H   0  0  0  0  0  0  0  0  0  0  0  0
    0.7781   58.7154   73.4398 H   0  0  0  0  0  0  0  0  0  0  0  0
    0.9887   56.9186   73.6150 H   0  0  0  0  0  0  0  0  0  0  0  0
    4.8656   58.8994   70.9309 H   0  0  0  0  0  0  0  0  0  0  0  0
    3.2187   58.7988   70.1044 H   0  0  0  0  0  0  0  0  0  0  0  0
    5.3305   61.3375   71.9418 H   0  0  0  0  0  0  0  0  0  0  0  0
    5.4935   63.6974   71.1612 H   0  0  0  0  0  0  0  0  0  0  0  0
    4.2372   64.4353   69.1389 H   0  0  0  0  0  0  0  0  0  0  0  0
    2.8292   62.8094   67.8843 H   0  0  0  0  0  0  0  0  0  0  0  0
    2.6561   60.4476   68.6555 H   0  0  0  0  0  0  0  0  0  0  0  0
  3  2  2  0
  4  3  1  0
  5  4  1  0
  6  5  1  0
  7  6  2  0
  8  3  1  0
  8  7  1  0
  9  7  1  0
 10  9  2  0
 11 10  1  0
 12  6  1  0
 12 11  2  0
 13 11  1  0
 13  1  1  0
 14 13  2  0
 15 14  1  0
 15 10  1  0
 16  1  1  0
 17 16  1  0
 18 17  1  0
 19 18  1  0
 20 19  1  0
 21 20  1  0
 22 21  1  0
 22 17  1  0
 23 20  1  0
 24 23  1  0
 25 24  2  0
 26 25  1  0
 27 26  2  0
 28 27  1  0
 29 28  2  0
 29 24  1  0
  1 30  1  0
  1 31  1  0
  4 32  1  0
  4 33  1  0
  5 34  1  0
  5 35  1  0
  8 36  1  0
  9 37  1  0
 12 38  1  0
 16 39  1  0
 16 40  1  0
 17 41  1  0
 18 42  1  0
 18 43  1  0
 19 44  1  0
 19 45  1  0
 20 46  1  0
 21 47  1  0
 21 48  1  0
 22 49  1  0
 22 50  1  0
 23 51  1  0
 23 52  1  0
 25 53  1  0
 26 54  1  0
 27 55  1  0
 28 56  1  0
 29 57  1  0
M  CHG  1  20   1
M  END
>  <score>  (9) 
-9.525

$$$$
