=
     RDKit          3D

 41 44  0  0  0  0  0  0  0  0999 V2000
    1.3480   69.6580   67.6850 O   0  0  0  0  0  0  0  0  0  0  0  0
    1.8370   69.2410   66.6380 C   0  0  0  0  0  0  0  0  0  0  0  0
    0.9870   68.5120   65.5840 C   0  0  2  0  0  0  0  0  0  0  0  0
    1.5360   68.7540   64.1580 C   0  0  0  0  0  0  0  0  0  0  0  0
    3.0100   68.3380   64.0190 C   0  0  0  0  0  0  0  0  0  0  0  0
    3.7890   68.9220   65.1450 C   0  0  0  0  0  0  0  0  0  0  0  0
    3.2620   69.3480   66.3500 C   0  0  0  0  0  0  0  0  0  0  0  0
    4.3320   69.8690   67.1290 C   0  0  0  0  0  0  0  0  0  0  0  0
    4.4190   70.4500   68.4100 C   0  0  0  0  0  0  0  0  0  0  0  0
    5.6590   70.8770   68.8960 C   0  0  0  0  0  0  0  0  0  0  0  0
    6.8070   70.7300   68.1250 C   0  0  0  0  0  0  0  0  0  0  0  0
    6.7500   70.1550   66.8510 C   0  0  0  0  0  0  0  0  0  0  0  0
    5.5010   69.7260   66.3700 C   0  0  0  0  0  0  0  0  0  0  0  0
    5.1450   69.1250   65.1750 N   0  0  0  0  0  0  0  0  0  0  0  0
    6.0780   68.7790   64.1250 C   0  0  0  0  0  0  0  0  0  0  0  0
   -0.4710   68.9660   65.7290 C   0  0  0  0  0  0  0  0  0  0  0  0
   -1.2570   68.1270   66.6160 N   0  0  0  0  0  0  0  0  0  0  0  0
   -0.7430   67.2130   67.4960 C   0  0  0  0  0  0  0  0  0  0  0  0
   -1.8350   66.6620   68.1200 C   0  0  0  0  0  0  0  0  0  0  0  0
   -2.9930   67.2040   67.6320 N   0  0  0  0  0  0  0  0  0  0  0  0
   -2.6290   68.0700   66.7060 C   0  0  0  0  0  0  0  0  0  0  0  0
   -3.5570   68.8740   65.8690 C   0  0  0  0  0  0  0  0  0  0  0  0
    1.0373   67.4258   65.7503 H   0  0  0  0  0  0  0  0  0  0  0  0
    0.9355   68.1706   63.4445 H   0  0  0  0  0  0  0  0  0  0  0  0
    1.4710   69.8326   63.9521 H   0  0  0  0  0  0  0  0  0  0  0  0
    3.0874   67.2411   64.0473 H   0  0  0  0  0  0  0  0  0  0  0  0
    3.4100   68.7046   63.0621 H   0  0  0  0  0  0  0  0  0  0  0  0
    3.5149   70.5672   69.0255 H   0  0  0  0  0  0  0  0  0  0  0  0
    5.7267   71.3323   69.8951 H   0  0  0  0  0  0  0  0  0  0  0  0
    7.7742   71.0709   68.5228 H   0  0  0  0  0  0  0  0  0  0  0  0
    7.6588   70.0416   66.2417 H   0  0  0  0  0  0  0  0  0  0  0  0
    7.0203   68.4296   64.5723 H   0  0  0  0  0  0  0  0  0  0  0  0
    5.6493   67.9801   63.5022 H   0  0  0  0  0  0  0  0  0  0  0  0
    6.2739   69.6643   63.5022 H   0  0  0  0  0  0  0  0  0  0  0  0
   -0.4777   69.9922   66.1250 H   0  0  0  0  0  0  0  0  0  0  0  0
   -0.9299   68.8986   64.7316 H   0  0  0  0  0  0  0  0  0  0  0  0
    0.3166   66.9719   67.6665 H   0  0  0  0  0  0  0  0  0  0  0  0
   -1.7858   65.8916   68.9036 H   0  0  0  0  0  0  0  0  0  0  0  0
   -4.2275   69.4549   66.5194 H   0  0  0  0  0  0  0  0  0  0  0  0
   -2.9771   69.5599   65.2340 H   0  0  0  0  0  0  0  0  0  0  0  0
   -4.1533   68.2023   65.2340 H   0  0  0  0  0  0  0  0  0  0  0  0
  2  1  2  0
  3  2  1  0
  4  3  1  0
  5  4  1  0
  6  5  1  0
  7  6  2  0
  7  2  1  0
  8  7  1  0
  9  8  2  0
 10  9  1  0
 11 10  2  0
 12 11  1  0
 13  8  1  0
 13 12  2  0
 14  6  1  0
 14 13  1  0
 15 14  1  0
 16  3  1  0
 17 16  1  0
 18 17  1  0
 19 18  2  0
 20 19  1  0
 21 20  2  0
 21 17  1  0
 22 21  1  0
  3 23  1  1
  4 24  1  0
  4 25  1  0
  5 26  1  0
  5 27  1  0
  9 28  1  0
 10 29  1  0
 11 30  1  0
 12 31  1  0
 15 32  1  0
 15 33  1  0
 15 34  1  0
 16 35  1  0
 16 36  1  0
 18 37  1  0
 19 38  1  0
 22 39  1  0
 22 40  1  0
 22 41  1  0
M  END
>  <score>  (1) 
-10.671

$$$$
=
     RDKit          3D

 41 44  0  0  0  0  0  0  0  0999 V2000
    4.6210   69.1120   64.5350 O   0  0  0  0  0  0  0  0  0  0  0  0
    3.7790   69.2790   65.4140 C   0  0  0  0  0  0  0  0  0  0  0  0
    2.2780   69.0840   65.1420 C   0  0  2  0  0  0  0  0  0  0  0  0
    1.5380   68.6040   66.4130 C   0  0  0  0  0  0  0  0  0  0  0  0
    1.7330   69.5590   67.6020 C   0  0  0  0  0  0  0  0  0  0  0  0
    3.1830   69.8660   67.7470 C   0  0  0  0  0  0  0  0  0  0  0  0
    4.1340   69.7330   66.7530 C   0  0  0  0  0  0  0  0  0  0  0  0
    5.3920   70.0930   67.3100 C   0  0  0  0  0  0  0  0  0  0  0  0
    6.7080   70.1450   66.8080 C   0  0  0  0  0  0  0  0  0  0  0  0
    7.7550   70.5480   67.6420 C   0  0  0  0  0  0  0  0  0  0  0  0
    7.5070   70.9000   68.9640 C   0  0  0  0  0  0  0  0  0  0  0  0
    6.2110   70.8610   69.4880 C   0  0  0  0  0  0  0  0  0  0  0  0
    5.1630   70.4570   68.6430 C   0  0  0  0  0  0  0  0  0  0  0  0
    3.8050   70.3310   68.8760 N   0  0  0  0  0  0  0  0  0  0  0  0
    3.1590   70.6420   70.1340 C   0  0  0  0  0  0  0  0  0  0  0  0
    2.1140   68.1080   63.9700 C   0  0  0  0  0  0  0  0  0  0  0  0
    1.4520   68.6880   62.8160 N   0  0  0  0  0  0  0  0  0  0  0  0
    0.1280   69.0280   62.7560 C   0  0  0  0  0  0  0  0  0  0  0  0
   -0.0560   69.5370   61.4950 C   0  0  0  0  0  0  0  0  0  0  0  0
    1.1140   69.5000   60.7850 N   0  0  0  0  0  0  0  0  0  0  0  0
    2.0110   68.9610   61.5880 C   0  0  0  0  0  0  0  0  0  0  0  0
    3.4260   68.6810   61.2310 C   0  0  0  0  0  0  0  0  0  0  0  0
    1.8196   70.0454   64.8671 H   0  0  0  0  0  0  0  0  0  0  0  0
    0.4632   68.5327   66.1900 H   0  0  0  0  0  0  0  0  0  0  0  0
    1.9573   67.6271   66.6958 H   0  0  0  0  0  0  0  0  0  0  0  0
    1.1755   70.4900   67.4221 H   0  0  0  0  0  0  0  0  0  0  0  0
    1.3602   69.0860   68.5225 H   0  0  0  0  0  0  0  0  0  0  0  0
    6.9107   69.8692   65.7626 H   0  0  0  0  0  0  0  0  0  0  0  0
    8.7819   70.5869   67.2497 H   0  0  0  0  0  0  0  0  0  0  0  0
    8.3424   71.2138   69.6072 H   0  0  0  0  0  0  0  0  0  0  0  0
    6.0168   71.1393   70.5344 H   0  0  0  0  0  0  0  0  0  0  0  0
    3.8073   70.3299   70.9661 H   0  0  0  0  0  0  0  0  0  0  0  0
    2.9791   71.7254   70.1958 H   0  0  0  0  0  0  0  0  0  0  0  0
    2.1999   70.1069   70.1958 H   0  0  0  0  0  0  0  0  0  0  0  0
    3.1125   67.7649   63.6615 H   0  0  0  0  0  0  0  0  0  0  0  0
    1.4780   67.2836   64.3248 H   0  0  0  0  0  0  0  0  0  0  0  0
   -0.6268   68.9171   63.5484 H   0  0  0  0  0  0  0  0  0  0  0  0
   -1.0113   69.9215   61.1082 H   0  0  0  0  0  0  0  0  0  0  0  0
    4.0196   68.5635   62.1496 H   0  0  0  0  0  0  0  0  0  0  0  0
    3.4786   67.7550   60.6396 H   0  0  0  0  0  0  0  0  0  0  0  0
    3.8273   69.5172   60.6396 H   0  0  0  0  0  0  0  0  0  0  0  0
  2  1  2  0
  3  2  1  0
  4  3  1  0
  5  4  1  0
  6  5  1  0
  7  6  2  0
  7  2  1  0
  8  7  1  0
  9  8  2  0
 10  9  1  0
 11 10  2  0
 12 11  1  0
 13  8  1  0
 13 12  2  0
 14  6  1  0
 14 13  1  0
 15 14  1  0
 16  3  1  0
 17 16  1  0
 18 17  1  0
 19 18  2  0
 20 19  1  0
 21 20  2  0
 21 17  1  0
 22 21  1  0
  3 23  1  6
  4 24  1  0
  4 25  1  0
  5 26  1  0
  5 27  1  0
  9 28  1  0
 10 29  1  0
 11 30  1  0
 12 31  1  0
 15 32  1  0
 15 33  1  0
 15 34  1  0
 16 35  1  0
 16 36  1  0
 18 37  1  0
 19 38  1  0
 22 39  1  0
 22 40  1  0
 22 41  1  0
M  END
>  <score>  (2) 
-9.193

$$$$
=
     RDKit          3D

 41 44  0  0  0  0  0  0  0  0999 V2000
    4.6680   69.0440   64.2100 O   0  0  0  0  0  0  0  0  0  0  0  0
    3.7320   69.1090   65.0040 C   0  0  0  0  0  0  0  0  0  0  0  0
    2.2890   68.7960   64.5760 C   0  0  2  0  0  0  0  0  0  0  0  0
    1.4720   68.2110   65.7530 C   0  0  0  0  0  0  0  0  0  0  0  0
    1.4640   69.1390   66.9790 C   0  0  0  0  0  0  0  0  0  0  0  0
    2.8590   69.5650   67.2780 C   0  0  0  0  0  0  0  0  0  0  0  0
    3.9120   69.5480   66.3820 C   0  0  0  0  0  0  0  0  0  0  0  0
    5.0720   69.9960   67.0720 C   0  0  0  0  0  0  0  0  0  0  0  0
    6.4210   70.1760   66.7070 C   0  0  0  0  0  0  0  0  0  0  0  0
    7.3410   70.6400   67.6530 C   0  0  0  0  0  0  0  0  0  0  0  0
    6.9330   70.9260   68.9510 C   0  0  0  0  0  0  0  0  0  0  0  0
    5.6000   70.7580   69.3400 C   0  0  0  0  0  0  0  0  0  0  0  0
    4.6810   70.2940   68.3840 C   0  0  0  0  0  0  0  0  0  0  0  0
    3.3230   70.0440   68.4750 N   0  0  0  0  0  0  0  0  0  0  0  0
    2.5310   70.2560   69.6680 C   0  0  0  0  0  0  0  0  0  0  0  0
    2.3280   67.8480   63.3710 C   0  0  0  0  0  0  0  0  0  0  0  0
    3.0270   66.6020   63.6310 N   0  0  0  0  0  0  0  0  0  0  0  0
    2.6560   65.6710   64.5640 C   0  0  0  0  0  0  0  0  0  0  0  0
    3.5880   64.6690   64.4610 C   0  0  0  0  0  0  0  0  0  0  0  0
    4.5200   64.9740   63.5070 N   0  0  0  0  0  0  0  0  0  0  0  0
    4.1820   66.1560   63.0310 C   0  0  0  0  0  0  0  0  0  0  0  0
    4.9340   66.9120   61.9960 C   0  0  0  0  0  0  0  0  0  0  0  0
    1.7783   69.7240   64.2794 H   0  0  0  0  0  0  0  0  0  0  0  0
    0.4350   68.0558   65.4206 H   0  0  0  0  0  0  0  0  0  0  0  0
    1.9452   67.2641   66.0520 H   0  0  0  0  0  0  0  0  0  0  0  0
    0.8463   70.0241   66.7668 H   0  0  0  0  0  0  0  0  0  0  0  0
    1.0465   68.6045   67.8451 H   0  0  0  0  0  0  0  0  0  0  0  0
    6.7496   69.9523   65.6813 H   0  0  0  0  0  0  0  0  0  0  0  0
    8.3943   70.7795   67.3681 H   0  0  0  0  0  0  0  0  0  0  0  0
    7.6693   71.2897   69.6828 H   0  0  0  0  0  0  0  0  0  0  0  0
    5.2795   70.9834   70.3679 H   0  0  0  0  0  0  0  0  0  0  0  0
    3.1560   70.0887   70.5576 H   0  0  0  0  0  0  0  0  0  0  0  0
    2.1498   71.2878   69.6765 H   0  0  0  0  0  0  0  0  0  0  0  0
    1.6853   69.5526   69.6765 H   0  0  0  0  0  0  0  0  0  0  0  0
    1.2935   67.6119   63.0812 H   0  0  0  0  0  0  0  0  0  0  0  0
    2.8798   68.3656   62.5725 H   0  0  0  0  0  0  0  0  0  0  0  0
    1.7962   65.7165   65.2486 H   0  0  0  0  0  0  0  0  0  0  0  0
    3.5860   63.7479   65.0623 H   0  0  0  0  0  0  0  0  0  0  0  0
    5.6290   67.6106   62.4848 H   0  0  0  0  0  0  0  0  0  0  0  0
    5.5016   66.2091   61.3685 H   0  0  0  0  0  0  0  0  0  0  0  0
    4.2281   67.4759   61.3685 H   0  0  0  0  0  0  0  0  0  0  0  0
  2  1  2  0
  3  2  1  0
  4  3  1  0
  5  4  1  0
  6  5  1  0
  7  6  2  0
  7  2  1  0
  8  7  1  0
  9  8  2  0
 10  9  1  0
 11 10  2  0
 12 11  1  0
 13  8  1  0
 13 12  2  0
 14  6  1  0
 14 13  1  0
 15 14  1  0
 16  3  1  0
 17 16  1  0
 18 17  1  0
 19 18  2  0
 20 19  1  0
 21 20  2  0
 21 17  1  0
 22 21  1  0
  3 23  1  6
  4 24  1  0
  4 25  1  0
  5 26  1  0
  5 27  1  0
  9 28  1  0
 10 29  1  0
 11 30  1  0
 12 31  1  0
 15 32  1  0
 15 33  1  0
 15 34  1  0
 16 35  1  0
 16 36  1  0
 18 37  1  0
 19 38  1  0
 22 39  1  0
 22 40  1  0
 22 41  1  0
M  END
>  <score>  (3) 
-9.179

$$$$
=
     RDKit          3D

 41 44  0  0  0  0  0  0  0  0999 V2000
    0.8590   67.8470   65.1240 O   0  0  0  0  0  0  0  0  0  0  0  0
    1.5630   68.4690   65.9170 C   0  0  0  0  0  0  0  0  0  0  0  0
    1.0300   68.9200   67.2870 C   0  0  2  0  0  0  0  0  0  0  0  0
    2.1630   68.9660   68.3400 C   0  0  0  0  0  0  0  0  0  0  0  0
    3.3280   69.8730   67.9080 C   0  0  0  0  0  0  0  0  0  0  0  0
    3.7210   69.5290   66.5140 C   0  0  0  0  0  0  0  0  0  0  0  0
    2.9240   68.8770   65.5920 C   0  0  0  0  0  0  0  0  0  0  0  0
    3.6860   68.7140   64.4030 C   0  0  0  0  0  0  0  0  0  0  0  0
    3.4300   68.1250   63.1480 C   0  0  0  0  0  0  0  0  0  0  0  0
    4.4230   68.1250   62.1640 C   0  0  0  0  0  0  0  0  0  0  0  0
    5.6630   68.7050   62.4150 C   0  0  0  0  0  0  0  0  0  0  0  0
    5.9430   69.2990   63.6490 C   0  0  0  0  0  0  0  0  0  0  0  0
    4.9380   69.2960   64.6320 C   0  0  0  0  0  0  0  0  0  0  0  0
    4.9250   69.8060   65.9190 N   0  0  0  0  0  0  0  0  0  0  0  0
    6.0300   70.5150   66.5290 C   0  0  0  0  0  0  0  0  0  0  0  0
   -0.1100   67.9820   67.7030 C   0  0  0  0  0  0  0  0  0  0  0  0
   -1.3620   68.2440   67.0150 N   0  0  0  0  0  0  0  0  0  0  0  0
   -1.6380   69.3700   66.2860 C   0  0  0  0  0  0  0  0  0  0  0  0
   -2.9160   69.1900   65.8200 C   0  0  0  0  0  0  0  0  0  0  0  0
   -3.4260   67.9980   66.2590 N   0  0  0  0  0  0  0  0  0  0  0  0
   -2.4840   67.4490   67.0000 C   0  0  0  0  0  0  0  0  0  0  0  0
   -2.6050   66.1580   67.7250 C   0  0  0  0  0  0  0  0  0  0  0  0
    0.6370   69.9449   67.2159 H   0  0  0  0  0  0  0  0  0  0  0  0
    1.7508   69.3468   69.2861 H   0  0  0  0  0  0  0  0  0  0  0  0
    2.5568   67.9453   68.4540 H   0  0  0  0  0  0  0  0  0  0  0  0
    3.0116   70.9256   67.9526 H   0  0  0  0  0  0  0  0  0  0  0  0
    4.1841   69.7237   68.5823 H   0  0  0  0  0  0  0  0  0  0  0  0
    2.4512   67.6665   62.9435 H   0  0  0  0  0  0  0  0  0  0  0  0
    4.2231   67.6638   61.1855 H   0  0  0  0  0  0  0  0  0  0  0  0
    6.4342   68.6958   61.6307 H   0  0  0  0  0  0  0  0  0  0  0  0
    6.9237   69.7567   63.8457 H   0  0  0  0  0  0  0  0  0  0  0  0
    5.9421   70.4586   67.6240 H   0  0  0  0  0  0  0  0  0  0  0  0
    6.9788   70.0566   66.2132 H   0  0  0  0  0  0  0  0  0  0  0  0
    6.0087   71.5685   66.2132 H   0  0  0  0  0  0  0  0  0  0  0  0
    0.1951   66.9475   67.4870 H   0  0  0  0  0  0  0  0  0  0  0  0
   -0.2906   68.1511   68.7748 H   0  0  0  0  0  0  0  0  0  0  0  0
   -0.9778   70.2324   66.1117 H   0  0  0  0  0  0  0  0  0  0  0  0
   -3.4561   69.9049   65.1818 H   0  0  0  0  0  0  0  0  0  0  0  0
   -2.5876   66.3433   68.8091 H   0  0  0  0  0  0  0  0  0  0  0  0
   -3.5527   65.6712   67.4513 H   0  0  0  0  0  0  0  0  0  0  0  0
   -1.7643   65.5036   67.4513 H   0  0  0  0  0  0  0  0  0  0  0  0
  2  1  2  0
  3  2  1  0
  4  3  1  0
  5  4  1  0
  6  5  1  0
  7  6  2  0
  7  2  1  0
  8  7  1  0
  9  8  2  0
 10  9  1  0
 11 10  2  0
 12 11  1  0
 13  8  1  0
 13 12  2  0
 14  6  1  0
 14 13  1  0
 15 14  1  0
 16  3  1  0
 17 16  1  0
 18 17  1  0
 19 18  2  0
 20 19  1  0
 21 20  2  0
 21 17  1  0
 22 21  1  0
  3 23  1  6
  4 24  1  0
  4 25  1  0
  5 26  1  0
  5 27  1  0
  9 28  1  0
 10 29  1  0
 11 30  1  0
 12 31  1  0
 15 32  1  0
 15 33  1  0
 15 34  1  0
 16 35  1  0
 16 36  1  0
 18 37  1  0
 19 38  1  0
 22 39  1  0
 22 40  1  0
 22 41  1  0
M  END
>  <score>  (4) 
-8.511

$$$$
=
     RDKit          3D

 41 44  0  0  0  0  0  0  0  0999 V2000
    0.5050   60.0550   72.7350 O   0  0  0  0  0  0  0  0  0  0  0  0
    1.6800   60.1590   72.3890 C   0  0  0  0  0  0  0  0  0  0  0  0
    2.7000   59.0380   72.6480 C   0  0  2  0  0  0  0  0  0  0  0  0
    3.7940   59.0130   71.5540 C   0  0  0  0  0  0  0  0  0  0  0  0
    4.5220   60.3610   71.4230 C   0  0  0  0  0  0  0  0  0  0  0  0
    3.5140   61.4530   71.3380 C   0  0  0  0  0  0  0  0  0  0  0  0
    2.2030   61.3710   71.7700 C   0  0  0  0  0  0  0  0  0  0  0  0
    1.5740   62.6110   71.4750 C   0  0  0  0  0  0  0  0  0  0  0  0
    0.2710   63.1170   71.6580 C   0  0  0  0  0  0  0  0  0  0  0  0
   -0.0360   64.4150   71.2390 C   0  0  0  0  0  0  0  0  0  0  0  0
    0.9370   65.2120   70.6450 C   0  0  0  0  0  0  0  0  0  0  0  0
    2.2380   64.7370   70.4530 C   0  0  0  0  0  0  0  0  0  0  0  0
    2.5390   63.4320   70.8790 C   0  0  0  0  0  0  0  0  0  0  0  0
    3.7190   62.7090   70.8280 N   0  0  0  0  0  0  0  0  0  0  0  0
    4.9680   63.2190   70.3050 C   0  0  0  0  0  0  0  0  0  0  0  0
    1.9490   57.7040   72.7480 C   0  0  0  0  0  0  0  0  0  0  0  0
    1.7850   57.2270   74.1090 N   0  0  0  0  0  0  0  0  0  0  0  0
    2.6460   57.4840   75.1420 C   0  0  0  0  0  0  0  0  0  0  0  0
    2.1010   56.8480   76.2300 C   0  0  0  0  0  0  0  0  0  0  0  0
    0.9480   56.2000   75.8810 N   0  0  0  0  0  0  0  0  0  0  0  0
    0.7830   56.4170   74.5910 C   0  0  0  0  0  0  0  0  0  0  0  0
   -0.3220   55.8700   73.7620 C   0  0  0  0  0  0  0  0  0  0  0  0
    3.2229   59.2217   73.5982 H   0  0  0  0  0  0  0  0  0  0  0  0
    4.5307   58.2368   71.8086 H   0  0  0  0  0  0  0  0  0  0  0  0
    3.3026   58.8021   70.5927 H   0  0  0  0  0  0  0  0  0  0  0  0
    5.1639   60.5199   72.3021 H   0  0  0  0  0  0  0  0  0  0  0  0
    5.1440   60.3595   70.5157 H   0  0  0  0  0  0  0  0  0  0  0  0
   -0.5021   62.4923   72.1292 H   0  0  0  0  0  0  0  0  0  0  0  0
   -1.0535   64.8085   71.3800 H   0  0  0  0  0  0  0  0  0  0  0  0
    0.6791   66.2312   70.3215 H   0  0  0  0  0  0  0  0  0  0  0  0
    3.0055   65.3680   69.9810 H   0  0  0  0  0  0  0  0  0  0  0  0
    5.6315   63.4899   71.1394 H   0  0  0  0  0  0  0  0  0  0  0  0
    5.4505   62.4459   69.6890 H   0  0  0  0  0  0  0  0  0  0  0  0
    4.7715   64.1089   69.6890 H   0  0  0  0  0  0  0  0  0  0  0  0
    0.9515   57.8329   72.3027 H   0  0  0  0  0  0  0  0  0  0  0  0
    2.5529   56.9546   72.2154 H   0  0  0  0  0  0  0  0  0  0  0  0
    3.5743   58.0731   75.1077 H   0  0  0  0  0  0  0  0  0  0  0  0
    2.5319   56.8582   77.2421 H   0  0  0  0  0  0  0  0  0  0  0  0
   -1.1133   55.4783   74.4181 H   0  0  0  0  0  0  0  0  0  0  0  0
   -0.7339   56.6683   73.1271 H   0  0  0  0  0  0  0  0  0  0  0  0
    0.0631   55.0584   73.1271 H   0  0  0  0  0  0  0  0  0  0  0  0
  2  1  2  0
  3  2  1  0
  4  3  1  0
  5  4  1  0
  6  5  1  0
  7  6  2  0
  7  2  1  0
  8  7  1  0
  9  8  2  0
 10  9  1  0
 11 10  2  0
 12 11  1  0
 13  8  1  0
 13 12  2  0
 14  6  1  0
 14 13  1  0
 15 14  1  0
 16  3  1  0
 17 16  1  0
 18 17  1  0
 19 18  2  0
 20 19  1  0
 21 20  2  0
 21 17  1  0
 22 21  1  0
  3 23  1  1
  4 24  1  0
  4 25  1  0
  5 26  1  0
  5 27  1  0
  9 28  1  0
 10 29  1  0
 11 30  1  0
 12 31  1  0
 15 32  1  0
 15 33  1  0
 15 34  1  0
 16 35  1  0
 16 36  1  0
 18 37  1  0
 19 38  1  0
 22 39  1  0
 22 40  1  0
 22 41  1  0
M  END
>  <score>  (5) 
-8.378

$$$$
=
     RDKit          3D

 41 44  0  0  0  0  0  0  0  0999 V2000
    0.6940   68.6190   65.3450 O   0  0  0  0  0  0  0  0  0  0  0  0
    1.5870   69.0610   66.0650 C   0  0  0  0  0  0  0  0  0  0  0  0
    1.2830   69.6790   67.4400 C   0  0  2  0  0  0  0  0  0  0  0  0
    2.4590   69.4620   68.4220 C   0  0  0  0  0  0  0  0  0  0  0  0
    3.7860   70.0200   67.8800 C   0  0  0  0  0  0  0  0  0  0  0  0
    3.9810   69.5410   66.4840 C   0  0  0  0  0  0  0  0  0  0  0  0
    2.9810   69.0900   65.6420 C   0  0  0  0  0  0  0  0  0  0  0  0
    3.5920   68.6960   64.4200 C   0  0  0  0  0  0  0  0  0  0  0  0
    3.1080   68.1540   63.2130 C   0  0  0  0  0  0  0  0  0  0  0  0
    3.9980   67.8640   62.1750 C   0  0  0  0  0  0  0  0  0  0  0  0
    5.3590   68.1080   62.3250 C   0  0  0  0  0  0  0  0  0  0  0  0
    5.8670   68.6480   63.5110 C   0  0  0  0  0  0  0  0  0  0  0  0
    4.9650   68.9390   64.5490 C   0  0  0  0  0  0  0  0  0  0  0  0
    5.1720   69.4750   65.8080 N   0  0  0  0  0  0  0  0  0  0  0  0
    6.4610   69.8910   66.3180 C   0  0  0  0  0  0  0  0  0  0  0  0
   -0.0290   69.0840   67.9660 C   0  0  0  0  0  0  0  0  0  0  0  0
    0.1230   67.7670   68.5570 N   0  0  0  0  0  0  0  0  0  0  0  0
    1.2060   67.3490   69.2810 C   0  0  0  0  0  0  0  0  0  0  0  0
    0.9210   66.0550   69.6410 C   0  0  0  0  0  0  0  0  0  0  0  0
   -0.2950   65.6740   69.1410 N   0  0  0  0  0  0  0  0  0  0  0  0
   -0.7540   66.7100   68.4670 C   0  0  0  0  0  0  0  0  0  0  0  0
   -2.0330   66.7450   67.7120 C   0  0  0  0  0  0  0  0  0  0  0  0
    1.1633   70.7681   67.3422 H   0  0  0  0  0  0  0  0  0  0  0  0
    2.2247   69.9669   69.3708 H   0  0  0  0  0  0  0  0  0  0  0  0
    2.5833   68.3781   68.5622 H   0  0  0  0  0  0  0  0  0  0  0  0
    3.7555   71.1195   67.8914 H   0  0  0  0  0  0  0  0  0  0  0  0
    4.6187   69.6746   68.5104 H   0  0  0  0  0  0  0  0  0  0  0  0
    2.0326   67.9596   63.0878 H   0  0  0  0  0  0  0  0  0  0  0  0
    3.6195   67.4400   61.2332 H   0  0  0  0  0  0  0  0  0  0  0  0
    6.0460   67.8728   61.4987 H   0  0  0  0  0  0  0  0  0  0  0  0
    6.9438   68.8399   63.6283 H   0  0  0  0  0  0  0  0  0  0  0  0
    6.4398   69.8841   67.4178 H   0  0  0  0  0  0  0  0  0  0  0  0
    7.2373   69.1978   65.9619 H   0  0  0  0  0  0  0  0  0  0  0  0
    6.6856   70.9072   65.9619 H   0  0  0  0  0  0  0  0  0  0  0  0
   -0.4363   69.7625   68.7300 H   0  0  0  0  0  0  0  0  0  0  0  0
   -0.7007   68.9730   67.1020 H   0  0  0  0  0  0  0  0  0  0  0  0
    2.1109   67.9258   69.5228 H   0  0  0  0  0  0  0  0  0  0  0  0
    1.5782   65.4138   70.2468 H   0  0  0  0  0  0  0  0  0  0  0  0
   -2.8755   66.7681   68.4188 H   0  0  0  0  0  0  0  0  0  0  0  0
   -2.0607   67.6442   67.0791 H   0  0  0  0  0  0  0  0  0  0  0  0
   -2.1098   65.8486   67.0791 H   0  0  0  0  0  0  0  0  0  0  0  0
  2  1  2  0
  3  2  1  0
  4  3  1  0
  5  4  1  0
  6  5  1  0
  7  6  2  0
  7  2  1  0
  8  7  1  0
  9  8  2  0
 10  9  1  0
 11 10  2  0
 12 11  1  0
 13  8  1  0
 13 12  2  0
 14  6  1  0
 14 13  1  0
 15 14  1  0
 16  3  1  0
 17 16  1  0
 18 17  1  0
 19 18  2  0
 20 19  1  0
 21 20  2  0
 21 17  1  0
 22 21  1  0
  3 23  1  6
  4 24  1  0
  4 25  1  0
  5 26  1  0
  5 27  1  0
  9 28  1  0
 10 29  1  0
 11 30  1  0
 12 31  1  0
 15 32  1  0
 15 33  1  0
 15 34  1  0
 16 35  1  0
 16 36  1  0
 18 37  1  0
 19 38  1  0
 22 39  1  0
 22 40  1  0
 22 41  1  0
M  END
>  <score>  (6) 
-8.294

$$$$
=
     RDKit          3D

 41 44  0  0  0  0  0  0  0  0999 V2000
    3.2390   58.5970   73.4350 O   0  0  0  0  0  0  0  0  0  0  0  0
    2.1720   59.1800   73.2540 C   0  0  0  0  0  0  0  0  0  0  0  0
    0.8340   58.5720   73.7060 C   0  0  2  0  0  0  0  0  0  0  0  0
   -0.1830   59.6760   74.0810 C   0  0  0  0  0  0  0  0  0  0  0  0
   -0.4220   60.6690   72.9320 C   0  0  0  0  0  0  0  0  0  0  0  0
    0.8920   61.1220   72.3980 C   0  0  0  0  0  0  0  0  0  0  0  0
    2.0920   60.4520   72.5460 C   0  0  0  0  0  0  0  0  0  0  0  0
    3.1020   61.2350   71.9230 C   0  0  0  0  0  0  0  0  0  0  0  0
    4.4950   61.0890   71.7620 C   0  0  0  0  0  0  0  0  0  0  0  0
    5.2220   62.0720   71.0830 C   0  0  0  0  0  0  0  0  0  0  0  0
    4.5810   63.1920   70.5650 C   0  0  0  0  0  0  0  0  0  0  0  0
    3.2000   63.3610   70.7090 C   0  0  0  0  0  0  0  0  0  0  0  0
    2.4750   62.3680   71.3900 C   0  0  0  0  0  0  0  0  0  0  0  0
    1.1250   62.2620   71.6740 N   0  0  0  0  0  0  0  0  0  0  0  0
    0.1260   63.2260   71.2650 C   0  0  0  0  0  0  0  0  0  0  0  0
    1.1000   57.6090   74.8690 C   0  0  0  0  0  0  0  0  0  0  0  0
    0.9260   56.2100   74.5190 N   0  0  0  0  0  0  0  0  0  0  0  0
    1.9250   55.3750   74.0960 C   0  0  0  0  0  0  0  0  0  0  0  0
    1.3140   54.1630   73.8870 C   0  0  0  0  0  0  0  0  0  0  0  0
   -0.0250   54.2460   74.1550 N   0  0  0  0  0  0  0  0  0  0  0  0
   -0.2490   55.4950   74.5120 C   0  0  0  0  0  0  0  0  0  0  0  0
   -1.5770   56.0640   74.8580 C   0  0  0  0  0  0  0  0  0  0  0  0
    0.3810   58.0082   72.8772 H   0  0  0  0  0  0  0  0  0  0  0  0
   -1.1401   59.2006   74.3416 H   0  0  0  0  0  0  0  0  0  0  0  0
    0.2321   60.2394   74.9297 H   0  0  0  0  0  0  0  0  0  0  0  0
   -0.9944   60.1761   72.1323 H   0  0  0  0  0  0  0  0  0  0  0  0
   -0.9897   61.5351   73.3029 H   0  0  0  0  0  0  0  0  0  0  0  0
    5.0081   60.2052   72.1689 H   0  0  0  0  0  0  0  0  0  0  0  0
    6.3089   61.9583   70.9578 H   0  0  0  0  0  0  0  0  0  0  0  0
    5.1683   63.9559   70.0345 H   0  0  0  0  0  0  0  0  0  0  0  0
    2.6944   64.2481   70.2998 H   0  0  0  0  0  0  0  0  0  0  0  0
   -0.3380   63.6737   72.1562 H   0  0  0  0  0  0  0  0  0  0  0  0
    0.6020   64.0148   70.6640 H   0  0  0  0  0  0  0  0  0  0  0  0
   -0.6453   62.7222   70.6640 H   0  0  0  0  0  0  0  0  0  0  0  0
    2.1350   57.7553   75.2115 H   0  0  0  0  0  0  0  0  0  0  0  0
    0.3628   57.8389   75.6523 H   0  0  0  0  0  0  0  0  0  0  0  0
    2.9876   55.6216   73.9542 H   0  0  0  0  0  0  0  0  0  0  0  0
    1.8299   53.2515   73.5506 H   0  0  0  0  0  0  0  0  0  0  0  0
   -1.6827   56.1093   75.9520 H   0  0  0  0  0  0  0  0  0  0  0  0
   -1.6621   57.0776   74.4391 H   0  0  0  0  0  0  0  0  0  0  0  0
   -2.3695   55.4264   74.4391 H   0  0  0  0  0  0  0  0  0  0  0  0
  2  1  2  0
  3  2  1  0
  4  3  1  0
  5  4  1  0
  6  5  1  0
  7  6  2  0
  7  2  1  0
  8  7  1  0
  9  8  2  0
 10  9  1  0
 11 10  2  0
 12 11  1  0
 13  8  1  0
 13 12  2  0
 14  6  1  0
 14 13  1  0
 15 14  1  0
 16  3  1  0
 17 16  1  0
 18 17  1  0
 19 18  2  0
 20 19  1  0
 21 20  2  0
 21 17  1  0
 22 21  1  0
  3 23  1  6
  4 24  1  0
  4 25  1  0
  5 26  1  0
  5 27  1  0
  9 28  1  0
 10 29  1  0
 11 30  1  0
 12 31  1  0
 15 32  1  0
 15 33  1  0
 15 34  1  0
 16 35  1  0
 16 36  1  0
 18 37  1  0
 19 38  1  0
 22 39  1  0
 22 40  1  0
 22 41  1  0
M  END
>  <score>  (7) 
-8.27

$$$$
=
     RDKit          3D

 41 44  0  0  0  0  0  0  0  0999 V2000
    2.8230   68.3810   66.6990 O   0  0  0  0  0  0  0  0  0  0  0  0
    1.8880   68.4670   65.9060 C   0  0  0  0  0  0  0  0  0  0  0  0
    0.4300   68.2690   66.3520 C   0  0  2  0  0  0  0  0  0  0  0  0
   -0.5390   69.1140   65.4910 C   0  0  0  0  0  0  0  0  0  0  0  0
   -0.4070   68.8090   63.9900 C   0  0  0  0  0  0  0  0  0  0  0  0
    1.0330   68.8450   63.6110 C   0  0  0  0  0  0  0  0  0  0  0  0
    2.0960   68.6970   64.4820 C   0  0  0  0  0  0  0  0  0  0  0  0
    3.2930   68.8300   63.7260 C   0  0  0  0  0  0  0  0  0  0  0  0
    4.6650   68.7920   64.0480 C   0  0  0  0  0  0  0  0  0  0  0  0
    5.6200   68.9690   63.0420 C   0  0  0  0  0  0  0  0  0  0  0  0
    5.2260   69.1810   61.7260 C   0  0  0  0  0  0  0  0  0  0  0  0
    3.8720   69.2210   61.3770 C   0  0  0  0  0  0  0  0  0  0  0  0
    2.9180   69.0400   62.3930 C   0  0  0  0  0  0  0  0  0  0  0  0
    1.5350   69.0210   62.3470 N   0  0  0  0  0  0  0  0  0  0  0  0
    0.7550   69.1750   61.1380 C   0  0  0  0  0  0  0  0  0  0  0  0
    0.3230   68.6060   67.8450 C   0  0  0  0  0  0  0  0  0  0  0  0
    0.3070   67.4370   68.7070 N   0  0  0  0  0  0  0  0  0  0  0  0
    1.3180   67.0690   69.5530 C   0  0  0  0  0  0  0  0  0  0  0  0
    0.8760   65.9220   70.1640 C   0  0  0  0  0  0  0  0  0  0  0  0
   -0.3640   65.5770   69.6990 N   0  0  0  0  0  0  0  0  0  0  0  0
   -0.6850   66.4880   68.8010 C   0  0  0  0  0  0  0  0  0  0  0  0
   -1.9330   66.4990   67.9970 C   0  0  0  0  0  0  0  0  0  0  0  0
    0.1341   67.2200   66.2036 H   0  0  0  0  0  0  0  0  0  0  0  0
   -1.5707   68.8986   65.8059 H   0  0  0  0  0  0  0  0  0  0  0  0
   -0.2845   70.1735   65.6416 H   0  0  0  0  0  0  0  0  0  0  0  0
   -0.8187   67.8110   63.7792 H   0  0  0  0  0  0  0  0  0  0  0  0
   -0.9625   69.5597   63.4087 H   0  0  0  0  0  0  0  0  0  0  0  0
    4.9833   68.6236   65.0874 H   0  0  0  0  0  0  0  0  0  0  0  0
    6.6904   68.9403   63.2938 H   0  0  0  0  0  0  0  0  0  0  0  0
    5.9905   69.3194   60.9473 H   0  0  0  0  0  0  0  0  0  0  0  0
    3.5622   69.3896   60.3351 H   0  0  0  0  0  0  0  0  0  0  0  0
   -0.2928   69.3819   61.4015 H   0  0  0  0  0  0  0  0  0  0  0  0
    1.1564   70.0112   60.5467 H   0  0  0  0  0  0  0  0  0  0  0  0
    0.8084   68.2490   60.5467 H   0  0  0  0  0  0  0  0  0  0  0  0
    1.1847   69.2307   68.1228 H   0  0  0  0  0  0  0  0  0  0  0  0
   -0.6356   69.1257   67.9897 H   0  0  0  0  0  0  0  0  0  0  0  0
    2.2783   67.5821   69.7096 H   0  0  0  0  0  0  0  0  0  0  0  0
    1.4400   65.3586   70.9219 H   0  0  0  0  0  0  0  0  0  0  0  0
   -2.8029   66.5067   68.6703 H   0  0  0  0  0  0  0  0  0  0  0  0
   -1.9525   67.3974   67.3625 H   0  0  0  0  0  0  0  0  0  0  0  0
   -1.9683   65.6011   67.3625 H   0  0  0  0  0  0  0  0  0  0  0  0
  2  1  2  0
  3  2  1  0
  4  3  1  0
  5  4  1  0
  6  5  1  0
  7  6  2  0
  7  2  1  0
  8  7  1  0
  9  8  2  0
 10  9  1  0
 11 10  2  0
 12 11  1  0
 13  8  1  0
 13 12  2  0
 14  6  1  0
 14 13  1  0
 15 14  1  0
 16  3  1  0
 17 16  1  0
 18 17  1  0
 19 18  2  0
 20 19  1  0
 21 20  2  0
 21 17  1  0
 22 21  1  0
  3 23  1  1
  4 24  1  0
  4 25  1  0
  5 26  1  0
  5 27  1  0
  9 28  1  0
 10 29  1  0
 11 30  1  0
 12 31  1  0
 15 32  1  0
 15 33  1  0
 15 34  1  0
 16 35  1  0
 16 36  1  0
 18 37  1  0
 19 38  1  0
 22 39  1  0
 22 40  1  0
 22 41  1  0
M  END
>  <score>  (8) 
-8.243

$$$$
=
     RDKit          3D

 41 44  0  0  0  0  0  0  0  0999 V2000
    1.7370   67.9290   66.1130 O   0  0  0  0  0  0  0  0  0  0  0  0
    2.7550   68.2460   65.5020 C   0  0  0  0  0  0  0  0  0  0  0  0
    3.0700   67.6770   64.1080 C   0  0  2  0  0  0  0  0  0  0  0  0
    3.8780   68.6890   63.2610 C   0  0  0  0  0  0  0  0  0  0  0  0
    5.1800   69.1250   63.9530 C   0  0  0  0  0  0  0  0  0  0  0  0
    4.8770   69.5170   65.3570 C   0  0  0  0  0  0  0  0  0  0  0  0
    3.7630   69.1280   66.0770 C   0  0  0  0  0  0  0  0  0  0  0  0
    3.8390   69.7460   67.3550 C   0  0  0  0  0  0  0  0  0  0  0  0
    3.0090   69.7440   68.4950 C   0  0  0  0  0  0  0  0  0  0  0  0
    3.3770   70.4840   69.6230 C   0  0  0  0  0  0  0  0  0  0  0  0
    4.5560   71.2220   69.6280 C   0  0  0  0  0  0  0  0  0  0  0  0
    5.3980   71.2400   68.5120 C   0  0  0  0  0  0  0  0  0  0  0  0
    5.0230   70.4920   67.3830 C   0  0  0  0  0  0  0  0  0  0  0  0
    5.6490   70.3160   66.1610 N   0  0  0  0  0  0  0  0  0  0  0  0
    6.9220   70.9040   65.8020 C   0  0  0  0  0  0  0  0  0  0  0  0
    1.7530   67.2760   63.4320 C   0  0  0  0  0  0  0  0  0  0  0  0
    1.1050   68.3660   62.7240 N   0  0  0  0  0  0  0  0  0  0  0  0
    1.5350   68.9010   61.5400 C   0  0  0  0  0  0  0  0  0  0  0  0
    0.6300   69.8900   61.2440 C   0  0  0  0  0  0  0  0  0  0  0  0
   -0.3230   69.9800   62.2210 N   0  0  0  0  0  0  0  0  0  0  0  0
   -0.0090   69.0690   63.1220 C   0  0  0  0  0  0  0  0  0  0  0  0
   -0.7430   68.8270   64.3910 C   0  0  0  0  0  0  0  0  0  0  0  0
    3.7044   66.7835   64.2040 H   0  0  0  0  0  0  0  0  0  0  0  0
    4.1294   68.2219   62.2974 H   0  0  0  0  0  0  0  0  0  0  0  0
    3.2547   69.5850   63.1242 H   0  0  0  0  0  0  0  0  0  0  0  0
    5.8963   68.2902   63.9499 H   0  0  0  0  0  0  0  0  0  0  0  0
    5.6175   69.9793   63.4156 H   0  0  0  0  0  0  0  0  0  0  0  0
    2.0753   69.1624   68.4969 H   0  0  0  0  0  0  0  0  0  0  0  0
    2.7297   70.4825   70.5124 H   0  0  0  0  0  0  0  0  0  0  0  0
    4.8299   71.7999   70.5230 H   0  0  0  0  0  0  0  0  0  0  0  0
    6.3298   71.8245   68.5176 H   0  0  0  0  0  0  0  0  0  0  0  0
    7.4780   71.1608   66.7157 H   0  0  0  0  0  0  0  0  0  0  0  0
    7.5043   70.1837   65.2087 H   0  0  0  0  0  0  0  0  0  0  0  0
    6.7511   71.8144   65.2087 H   0  0  0  0  0  0  0  0  0  0  0  0
    1.9629   66.4707   62.7126 H   0  0  0  0  0  0  0  0  0  0  0  0
    1.0660   66.9573   64.2298 H   0  0  0  0  0  0  0  0  0  0  0  0
    2.4158   68.6029   60.9523 H   0  0  0  0  0  0  0  0  0  0  0  0
    0.6663   70.5228   60.3450 H   0  0  0  0  0  0  0  0  0  0  0  0
   -0.0829   69.0446   65.2436 H   0  0  0  0  0  0  0  0  0  0  0  0
   -1.6260   69.4816   64.4344 H   0  0  0  0  0  0  0  0  0  0  0  0
   -1.0635   67.7756   64.4344 H   0  0  0  0  0  0  0  0  0  0  0  0
  2  1  2  0
  3  2  1  0
  4  3  1  0
  5  4  1  0
  6  5  1  0
  7  6  2  0
  7  2  1  0
  8  7  1  0
  9  8  2  0
 10  9  1  0
 11 10  2  0
 12 11  1  0
 13  8  1  0
 13 12  2  0
 14  6  1  0
 14 13  1  0
 15 14  1  0
 16  3  1  0
 17 16  1  0
 18 17  1  0
 19 18  2  0
 20 19  1  0
 21 20  2  0
 21 17  1  0
 22 21  1  0
  3 23  1  1
  4 24  1  0
  4 25  1  0
  5 26  1  0
  5 27  1  0
  9 28  1  0
 10 29  1  0
 11 30  1  0
 12 31  1  0
 15 32  1  0
 15 33  1  0
 15 34  1  0
 16 35  1  0
 16 36  1  0
 18 37  1  0
 19 38  1  0
 22 39  1  0
 22 40  1  0
 22 41  1  0
M  END
>  <score>  (9) 
-8.208

$$$$
