=
     RDKit          3D

 26 27  0  0  0  0  0  0  0  0999 V2000
    1.8790   68.0340   65.9010 C   0  0  0  0  0  0  0  0  0  0  0  0
    2.0500   66.8570   66.1910 O   0  0  0  0  0  0  0  0  0  0  0  0
   -1.1500   68.8020   65.5650 Cl  0  0  0  0  0  0  0  0  0  0  0  0
    0.0600   68.8160   64.3370 C   0  0  0  0  0  0  0  0  0  0  0  0
   -0.3330   69.1820   63.0450 C   0  0  0  0  0  0  0  0  0  0  0  0
    0.5800   69.1360   61.9890 C   0  0  0  0  0  0  0  0  0  0  0  0
    1.8880   68.7130   62.2160 C   0  0  0  0  0  0  0  0  0  0  0  0
    2.2880   68.3470   63.5020 C   0  0  0  0  0  0  0  0  0  0  0  0
    1.3790   68.4150   64.5680 C   0  0  0  0  0  0  0  0  0  0  0  0
    2.2970   69.1330   66.8580 C   0  0  0  0  0  0  0  0  0  0  0  0
    1.4240   69.6190   67.5680 O   0  0  0  0  0  0  0  0  0  0  0  0
    3.7090   69.5900   66.9030 C   0  0  0  0  0  0  0  0  0  0  0  0
    4.5300   69.4170   65.7780 C   0  0  0  0  0  0  0  0  0  0  0  0
    5.8570   69.8520   65.7920 C   0  0  0  0  0  0  0  0  0  0  0  0
    6.3780   70.4660   66.9260 C   0  0  0  0  0  0  0  0  0  0  0  0
    5.5710   70.6460   68.0490 C   0  0  0  0  0  0  0  0  0  0  0  0
    4.2380   70.2130   68.0430 C   0  0  0  0  0  0  0  0  0  0  0  0
    3.3480   70.4420   69.5070 Cl  0  0  0  0  0  0  0  0  0  0  0  0
   -1.3672   69.5079   62.8598 H   0  0  0  0  0  0  0  0  0  0  0  0
    0.2662   69.4339   60.9776 H   0  0  0  0  0  0  0  0  0  0  0  0
    2.6045   68.6676   61.3826 H   0  0  0  0  0  0  0  0  0  0  0  0
    3.3181   68.0046   63.6799 H   0  0  0  0  0  0  0  0  0  0  0  0
    4.1244   68.9342   64.8767 H   0  0  0  0  0  0  0  0  0  0  0  0
    6.4912   69.7088   64.9047 H   0  0  0  0  0  0  0  0  0  0  0  0
    7.4233   70.8085   66.9370 H   0  0  0  0  0  0  0  0  0  0  0  0
    5.9835   71.1312   68.9459 H   0  0  0  0  0  0  0  0  0  0  0  0
  2  1  2  0
  4  3  1  0
  5  4  2  0
  6  5  1  0
  7  6  2  0
  8  7  1  0
  9  8  2  0
  9  4  1  0
  9  1  1  0
 10  1  1  0
 11 10  2  0
 12 10  1  0
 13 12  2  0
 14 13  1  0
 15 14  2  0
 16 15  1  0
 17 12  1  0
 17 16  2  0
 18 17  1  0
  5 19  1  0
  6 20  1  0
  7 21  1  0
  8 22  1  0
 13 23  1  0
 14 24  1  0
 15 25  1  0
 16 26  1  0
M  END
>  <score>  (1) 
-9.554

$$$$
=
     RDKit          3D

 26 27  0  0  0  0  0  0  0  0999 V2000
    2.2670   69.1620   66.9300 C   0  0  0  0  0  0  0  0  0  0  0  0
    1.4200   69.7190   67.6160 O   0  0  0  0  0  0  0  0  0  0  0  0
    3.3500   70.6260   69.4930 Cl  0  0  0  0  0  0  0  0  0  0  0  0
    4.2480   70.2230   68.0770 C   0  0  0  0  0  0  0  0  0  0  0  0
    5.5950   70.5980   68.0370 C   0  0  0  0  0  0  0  0  0  0  0  0
    6.3570   70.3740   66.8880 C   0  0  0  0  0  0  0  0  0  0  0  0
    5.7750   69.7840   65.7690 C   0  0  0  0  0  0  0  0  0  0  0  0
    4.4320   69.4050   65.8020 C   0  0  0  0  0  0  0  0  0  0  0  0
    3.6710   69.6080   66.9620 C   0  0  0  0  0  0  0  0  0  0  0  0
    1.8720   68.0880   65.9370 C   0  0  0  0  0  0  0  0  0  0  0  0
    1.9930   66.9220   66.2960 O   0  0  0  0  0  0  0  0  0  0  0  0
    1.3730   68.4610   64.5890 C   0  0  0  0  0  0  0  0  0  0  0  0
    2.2610   68.4790   63.5020 C   0  0  0  0  0  0  0  0  0  0  0  0
    1.8110   68.8120   62.2220 C   0  0  0  0  0  0  0  0  0  0  0  0
    0.4730   69.1270   62.0130 C   0  0  0  0  0  0  0  0  0  0  0  0
   -0.4190   69.1080   63.0850 C   0  0  0  0  0  0  0  0  0  0  0  0
    0.0230   68.7750   64.3720 C   0  0  0  0  0  0  0  0  0  0  0  0
   -1.1590   68.8350   65.6320 Cl  0  0  0  0  0  0  0  0  0  0  0  0
    6.0569   71.0721   68.9156 H   0  0  0  0  0  0  0  0  0  0  0  0
    7.4179   70.6640   66.8671 H   0  0  0  0  0  0  0  0  0  0  0  0
    6.3725   69.6169   64.8607 H   0  0  0  0  0  0  0  0  0  0  0  0
    3.9695   68.9459   64.9158 H   0  0  0  0  0  0  0  0  0  0  0  0
    3.3205   68.2287   63.6594 H   0  0  0  0  0  0  0  0  0  0  0  0
    2.5164   68.8250   61.3781 H   0  0  0  0  0  0  0  0  0  0  0  0
    0.1191   69.3904   61.0053 H   0  0  0  0  0  0  0  0  0  0  0  0
   -1.4776   69.3564   62.9187 H   0  0  0  0  0  0  0  0  0  0  0  0
  2  1  2  0
  4  3  1  0
  5  4  2  0
  6  5  1  0
  7  6  2  0
  8  7  1  0
  9  8  2  0
  9  4  1  0
  9  1  1  0
 10  1  1  0
 11 10  2  0
 12 10  1  0
 13 12  2  0
 14 13  1  0
 15 14  2  0
 16 15  1  0
 17 12  1  0
 17 16  2  0
 18 17  1  0
  5 19  1  0
  6 20  1  0
  7 21  1  0
  8 22  1  0
 13 23  1  0
 14 24  1  0
 15 25  1  0
 16 26  1  0
M  END
>  <score>  (2) 
-9.525

$$$$
=
     RDKit          3D

 26 27  0  0  0  0  0  0  0  0999 V2000
    4.2950   69.1990   65.2180 C   0  0  0  0  0  0  0  0  0  0  0  0
    5.2370   69.6220   64.5600 O   0  0  0  0  0  0  0  0  0  0  0  0
    6.7730   70.2200   66.8620 Cl  0  0  0  0  0  0  0  0  0  0  0  0
    5.1380   70.1390   67.4040 C   0  0  0  0  0  0  0  0  0  0  0  0
    4.8710   70.5430   68.7160 C   0  0  0  0  0  0  0  0  0  0  0  0
    3.5820   70.4260   69.2420 C   0  0  0  0  0  0  0  0  0  0  0  0
    2.5570   69.8940   68.4640 C   0  0  0  0  0  0  0  0  0  0  0  0
    2.8160   69.4890   67.1540 C   0  0  0  0  0  0  0  0  0  0  0  0
    4.1030   69.6280   66.6160 C   0  0  0  0  0  0  0  0  0  0  0  0
    3.3780   68.1320   64.6570 C   0  0  0  0  0  0  0  0  0  0  0  0
    3.6290   66.9690   64.9460 O   0  0  0  0  0  0  0  0  0  0  0  0
    2.2360   68.5090   63.7860 C   0  0  0  0  0  0  0  0  0  0  0  0
    0.9570   68.6580   64.3450 C   0  0  0  0  0  0  0  0  0  0  0  0
   -0.1290   69.0270   63.5470 C   0  0  0  0  0  0  0  0  0  0  0  0
    0.0490   69.2540   62.1870 C   0  0  0  0  0  0  0  0  0  0  0  0
    1.3160   69.1130   61.6210 C   0  0  0  0  0  0  0  0  0  0  0  0
    2.4110   68.7430   62.4130 C   0  0  0  0  0  0  0  0  0  0  0  0
    3.9220   68.5490   61.5970 Cl  0  0  0  0  0  0  0  0  0  0  0  0
    5.6801   70.9550   69.3370 H   0  0  0  0  0  0  0  0  0  0  0  0
    3.3767   70.7544   70.2716 H   0  0  0  0  0  0  0  0  0  0  0  0
    1.5443   69.7931   68.8816 H   0  0  0  0  0  0  0  0  0  0  0  0
    2.0087   69.0598   66.5423 H   0  0  0  0  0  0  0  0  0  0  0  0
    0.8084   68.4827   65.4207 H   0  0  0  0  0  0  0  0  0  0  0  0
   -1.1271   69.1381   63.9959 H   0  0  0  0  0  0  0  0  0  0  0  0
   -0.8066   69.5439   61.5593 H   0  0  0  0  0  0  0  0  0  0  0  0
    1.4566   69.2936   60.5451 H   0  0  0  0  0  0  0  0  0  0  0  0
  2  1  2  0
  4  3  1  0
  5  4  2  0
  6  5  1  0
  7  6  2  0
  8  7  1  0
  9  8  2  0
  9  4  1  0
  9  1  1  0
 10  1  1  0
 11 10  2  0
 12 10  1  0
 13 12  2  0
 14 13  1  0
 15 14  2  0
 16 15  1  0
 17 12  1  0
 17 16  2  0
 18 17  1  0
  5 19  1  0
  6 20  1  0
  7 21  1  0
  8 22  1  0
 13 23  1  0
 14 24  1  0
 15 25  1  0
 16 26  1  0
M  END
>  <score>  (3) 
-9.283

$$$$
=
     RDKit          3D

 26 27  0  0  0  0  0  0  0  0999 V2000
    2.2870   68.5100   64.7700 C   0  0  0  0  0  0  0  0  0  0  0  0
    1.4770   69.0750   64.0470 O   0  0  0  0  0  0  0  0  0  0  0  0
    4.1770   68.6370   62.2610 Cl  0  0  0  0  0  0  0  0  0  0  0  0
    3.8590   67.2570   63.2440 C   0  0  0  0  0  0  0  0  0  0  0  0
    4.4800   66.0540   62.8910 C   0  0  0  0  0  0  0  0  0  0  0  0
    4.2020   64.8820   63.5980 C   0  0  0  0  0  0  0  0  0  0  0  0
    3.2940   64.9020   64.6540 C   0  0  0  0  0  0  0  0  0  0  0  0
    2.6710   66.0980   65.0120 C   0  0  0  0  0  0  0  0  0  0  0  0
    2.9670   67.2810   64.3200 C   0  0  0  0  0  0  0  0  0  0  0  0
    2.5180   68.9840   66.1910 C   0  0  0  0  0  0  0  0  0  0  0  0
    1.5720   68.9130   66.9650 O   0  0  0  0  0  0  0  0  0  0  0  0
    3.8430   69.5190   66.5950 C   0  0  0  0  0  0  0  0  0  0  0  0
    4.9020   69.5160   65.6740 C   0  0  0  0  0  0  0  0  0  0  0  0
    6.1530   70.0280   66.0270 C   0  0  0  0  0  0  0  0  0  0  0  0
    6.3600   70.5490   67.3000 C   0  0  0  0  0  0  0  0  0  0  0  0
    5.3140   70.5590   68.2230 C   0  0  0  0  0  0  0  0  0  0  0  0
    4.0560   70.0490   67.8760 C   0  0  0  0  0  0  0  0  0  0  0  0
    2.8500   70.0670   69.1150 Cl  0  0  0  0  0  0  0  0  0  0  0  0
    5.1911   66.0311   62.0521 H   0  0  0  0  0  0  0  0  0  0  0  0
    4.7009   63.9418   63.3204 H   0  0  0  0  0  0  0  0  0  0  0  0
    3.0685   63.9768   65.2046 H   0  0  0  0  0  0  0  0  0  0  0  0
    1.9459   66.1129   65.8391 H   0  0  0  0  0  0  0  0  0  0  0  0
    4.7456   69.1068   64.6650 H   0  0  0  0  0  0  0  0  0  0  0  0
    6.9758   70.0191   65.2969 H   0  0  0  0  0  0  0  0  0  0  0  0
    7.3451   70.9518   67.5780 H   0  0  0  0  0  0  0  0  0  0  0  0
    5.4780   70.9701   69.2300 H   0  0  0  0  0  0  0  0  0  0  0  0
  2  1  2  0
  4  3  1  0
  5  4  2  0
  6  5  1  0
  7  6  2  0
  8  7  1  0
  9  8  2  0
  9  4  1  0
  9  1  1  0
 10  1  1  0
 11 10  2  0
 12 10  1  0
 13 12  2  0
 14 13  1  0
 15 14  2  0
 16 15  1  0
 17 12  1  0
 17 16  2  0
 18 17  1  0
  5 19  1  0
  6 20  1  0
  7 21  1  0
  8 22  1  0
 13 23  1  0
 14 24  1  0
 15 25  1  0
 16 26  1  0
M  END
>  <score>  (4) 
-9.155

$$$$
=
     RDKit          3D

 26 27  0  0  0  0  0  0  0  0999 V2000
    1.7580   67.6490   66.0310 C   0  0  0  0  0  0  0  0  0  0  0  0
    2.1600   66.4950   65.9660 O   0  0  0  0  0  0  0  0  0  0  0  0
    0.4510   66.8150   68.7650 Cl  0  0  0  0  0  0  0  0  0  0  0  0
   -0.3190   67.6420   67.4630 C   0  0  0  0  0  0  0  0  0  0  0  0
   -1.6720   67.9640   67.6120 C   0  0  0  0  0  0  0  0  0  0  0  0
   -2.3750   68.5620   66.5630 C   0  0  0  0  0  0  0  0  0  0  0  0
   -1.7330   68.8310   65.3570 C   0  0  0  0  0  0  0  0  0  0  0  0
   -0.3830   68.5140   65.2020 C   0  0  0  0  0  0  0  0  0  0  0  0
    0.3310   67.9360   66.2610 C   0  0  0  0  0  0  0  0  0  0  0  0
    2.6920   68.8090   65.7500 C   0  0  0  0  0  0  0  0  0  0  0  0
    2.8160   69.1580   64.5820 O   0  0  0  0  0  0  0  0  0  0  0  0
    3.4220   69.4680   66.8620 C   0  0  0  0  0  0  0  0  0  0  0  0
    2.7450   69.7630   68.0570 C   0  0  0  0  0  0  0  0  0  0  0  0
    3.4150   70.3690   69.1230 C   0  0  0  0  0  0  0  0  0  0  0  0
    4.7650   70.6840   69.0100 C   0  0  0  0  0  0  0  0  0  0  0  0
    5.4480   70.3930   67.8290 C   0  0  0  0  0  0  0  0  0  0  0  0
    4.7840   69.7850   66.7560 C   0  0  0  0  0  0  0  0  0  0  0  0
    5.7180   69.5170   65.3250 Cl  0  0  0  0  0  0  0  0  0  0  0  0
   -2.1853   67.7453   68.5600 H   0  0  0  0  0  0  0  0  0  0  0  0
   -3.4366   68.8205   66.6900 H   0  0  0  0  0  0  0  0  0  0  0  0
   -2.2892   69.2927   64.5278 H   0  0  0  0  0  0  0  0  0  0  0  0
    0.1223   68.7181   64.2465 H   0  0  0  0  0  0  0  0  0  0  0  0
    1.6778   69.5147   68.1544 H   0  0  0  0  0  0  0  0  0  0  0  0
    2.8739   70.5973   70.0531 H   0  0  0  0  0  0  0  0  0  0  0  0
    5.2924   71.1611   69.8492 H   0  0  0  0  0  0  0  0  0  0  0  0
    6.5155   70.6428   67.7398 H   0  0  0  0  0  0  0  0  0  0  0  0
  2  1  2  0
  4  3  1  0
  5  4  2  0
  6  5  1  0
  7  6  2  0
  8  7  1  0
  9  8  2  0
  9  4  1  0
  9  1  1  0
 10  1  1  0
 11 10  2  0
 12 10  1  0
 13 12  2  0
 14 13  1  0
 15 14  2  0
 16 15  1  0
 17 12  1  0
 17 16  2  0
 18 17  1  0
  5 19  1  0
  6 20  1  0
  7 21  1  0
  8 22  1  0
 13 23  1  0
 14 24  1  0
 15 25  1  0
 16 26  1  0
M  END
>  <score>  (5) 
-9.153

$$$$
=
     RDKit          3D

 26 27  0  0  0  0  0  0  0  0999 V2000
    2.4550   68.7550   65.3890 C   0  0  0  0  0  0  0  0  0  0  0  0
    2.3740   69.0890   64.2140 O   0  0  0  0  0  0  0  0  0  0  0  0
    5.3720   69.1670   64.2910 Cl  0  0  0  0  0  0  0  0  0  0  0  0
    4.7840   69.6110   65.8500 C   0  0  0  0  0  0  0  0  0  0  0  0
    5.6910   70.1960   66.7400 C   0  0  0  0  0  0  0  0  0  0  0  0
    5.3000   70.5050   68.0450 C   0  0  0  0  0  0  0  0  0  0  0  0
    4.0040   70.2210   68.4710 C   0  0  0  0  0  0  0  0  0  0  0  0
    3.0940   69.6380   67.5880 C   0  0  0  0  0  0  0  0  0  0  0  0
    3.4770   69.3490   66.2700 C   0  0  0  0  0  0  0  0  0  0  0  0
    1.5940   67.6340   65.9350 C   0  0  0  0  0  0  0  0  0  0  0  0
    2.1240   66.5390   66.0770 O   0  0  0  0  0  0  0  0  0  0  0  0
    0.1670   67.8800   66.2650 C   0  0  0  0  0  0  0  0  0  0  0  0
   -0.6650   68.5040   65.3210 C   0  0  0  0  0  0  0  0  0  0  0  0
   -2.0150   68.7310   65.6040 C   0  0  0  0  0  0  0  0  0  0  0  0
   -2.5480   68.3380   66.8260 C   0  0  0  0  0  0  0  0  0  0  0  0
   -1.7310   67.7150   67.7700 C   0  0  0  0  0  0  0  0  0  0  0  0
   -0.3770   67.4820   67.4950 C   0  0  0  0  0  0  0  0  0  0  0  0
    0.5500   66.7490   68.7570 Cl  0  0  0  0  0  0  0  0  0  0  0  0
    6.7176   70.4138   66.4104 H   0  0  0  0  0  0  0  0  0  0  0  0
    6.0158   70.9729   68.7369 H   0  0  0  0  0  0  0  0  0  0  0  0
    3.6988   70.4559   69.5014 H   0  0  0  0  0  0  0  0  0  0  0  0
    2.0738   69.4045   67.9265 H   0  0  0  0  0  0  0  0  0  0  0  0
   -0.2509   68.8166   64.3511 H   0  0  0  0  0  0  0  0  0  0  0  0
   -2.6570   69.2218   64.8578 H   0  0  0  0  0  0  0  0  0  0  0  0
   -3.6103   68.5175   67.0481 H   0  0  0  0  0  0  0  0  0  0  0  0
   -2.1530   67.4045   68.7372 H   0  0  0  0  0  0  0  0  0  0  0  0
  2  1  2  0
  4  3  1  0
  5  4  2  0
  6  5  1  0
  7  6  2  0
  8  7  1  0
  9  8  2  0
  9  4  1  0
  9  1  1  0
 10  1  1  0
 11 10  2  0
 12 10  1  0
 13 12  2  0
 14 13  1  0
 15 14  2  0
 16 15  1  0
 17 12  1  0
 17 16  2  0
 18 17  1  0
  5 19  1  0
  6 20  1  0
  7 21  1  0
  8 22  1  0
 13 23  1  0
 14 24  1  0
 15 25  1  0
 16 26  1  0
M  END
>  <score>  (6) 
-9.102

$$$$
=
     RDKit          3D

 26 27  0  0  0  0  0  0  0  0999 V2000
    2.6810   68.8640   66.4300 C   0  0  0  0  0  0  0  0  0  0  0  0
    1.7650   68.7280   67.2300 O   0  0  0  0  0  0  0  0  0  0  0  0
    2.7770   70.4060   69.1680 Cl  0  0  0  0  0  0  0  0  0  0  0  0
    4.0660   70.2320   68.0360 C   0  0  0  0  0  0  0  0  0  0  0  0
    5.2810   70.8540   68.3400 C   0  0  0  0  0  0  0  0  0  0  0  0
    6.3390   70.8200   67.4280 C   0  0  0  0  0  0  0  0  0  0  0  0
    6.1850   70.1740   66.2040 C   0  0  0  0  0  0  0  0  0  0  0  0
    4.9750   69.5500   65.8940 C   0  0  0  0  0  0  0  0  0  0  0  0
    3.9200   69.5630   66.8180 C   0  0  0  0  0  0  0  0  0  0  0  0
    2.5160   68.4320   64.9870 C   0  0  0  0  0  0  0  0  0  0  0  0
    1.8760   69.1720   64.2500 O   0  0  0  0  0  0  0  0  0  0  0  0
    3.1080   67.1540   64.5170 C   0  0  0  0  0  0  0  0  0  0  0  0
    2.7670   65.9530   65.1600 C   0  0  0  0  0  0  0  0  0  0  0  0
    3.3000   64.7370   64.7250 C   0  0  0  0  0  0  0  0  0  0  0  0
    4.1750   64.7050   63.6450 C   0  0  0  0  0  0  0  0  0  0  0  0
    4.5190   65.8910   62.9960 C   0  0  0  0  0  0  0  0  0  0  0  0
    3.9890   67.1150   63.4250 C   0  0  0  0  0  0  0  0  0  0  0  0
    4.5240   68.5250   62.5800 Cl  0  0  0  0  0  0  0  0  0  0  0  0
    5.4044   71.3727   69.3021 H   0  0  0  0  0  0  0  0  0  0  0  0
    7.2948   71.3041   67.6772 H   0  0  0  0  0  0  0  0  0  0  0  0
    7.0152   70.1553   65.4826 H   0  0  0  0  0  0  0  0  0  0  0  0
    4.8490   69.0475   64.9236 H   0  0  0  0  0  0  0  0  0  0  0  0
    2.0739   65.9698   66.0140 H   0  0  0  0  0  0  0  0  0  0  0  0
    3.0268   63.8031   65.2380 H   0  0  0  0  0  0  0  0  0  0  0  0
    4.5948   63.7474   63.3033 H   0  0  0  0  0  0  0  0  0  0  0  0
    5.2112   65.8650   62.1415 H   0  0  0  0  0  0  0  0  0  0  0  0
  2  1  2  0
  4  3  1  0
  5  4  2  0
  6  5  1  0
  7  6  2  0
  8  7  1  0
  9  8  2  0
  9  4  1  0
  9  1  1  0
 10  1  1  0
 11 10  2  0
 12 10  1  0
 13 12  2  0
 14 13  1  0
 15 14  2  0
 16 15  1  0
 17 12  1  0
 17 16  2  0
 18 17  1  0
  5 19  1  0
  6 20  1  0
  7 21  1  0
  8 22  1  0
 13 23  1  0
 14 24  1  0
 15 25  1  0
 16 26  1  0
M  END
>  <score>  (7) 
-8.922

$$$$
=
     RDKit          3D

 26 27  0  0  0  0  0  0  0  0999 V2000
    1.9850   67.5370   64.8680 C   0  0  0  0  0  0  0  0  0  0  0  0
    1.5550   66.4090   64.6660 O   0  0  0  0  0  0  0  0  0  0  0  0
    1.6880   68.7530   61.9850 Cl  0  0  0  0  0  0  0  0  0  0  0  0
    3.1420   68.6160   62.9020 C   0  0  0  0  0  0  0  0  0  0  0  0
    4.3260   69.0670   62.3090 C   0  0  0  0  0  0  0  0  0  0  0  0
    5.5490   68.9110   62.9660 C   0  0  0  0  0  0  0  0  0  0  0  0
    5.5970   68.2930   64.2140 C   0  0  0  0  0  0  0  0  0  0  0  0
    4.4190   67.8420   64.8120 C   0  0  0  0  0  0  0  0  0  0  0  0
    3.1880   68.0190   64.1650 C   0  0  0  0  0  0  0  0  0  0  0  0
    1.3700   68.4180   65.9370 C   0  0  0  0  0  0  0  0  0  0  0  0
    2.0920   69.2660   66.4470 O   0  0  0  0  0  0  0  0  0  0  0  0
   -0.0480   68.2320   66.3350 C   0  0  0  0  0  0  0  0  0  0  0  0
   -1.0700   68.7630   65.5320 C   0  0  0  0  0  0  0  0  0  0  0  0
   -2.4120   68.5870   65.8790 C   0  0  0  0  0  0  0  0  0  0  0  0
   -2.7480   67.8790   67.0270 C   0  0  0  0  0  0  0  0  0  0  0  0
   -1.7420   67.3430   67.8310 C   0  0  0  0  0  0  0  0  0  0  0  0
   -0.3940   67.5150   67.4900 C   0  0  0  0  0  0  0  0  0  0  0  0
    0.7680   66.8530   68.5860 Cl  0  0  0  0  0  0  0  0  0  0  0  0
    4.2939   69.5472   61.3199 H   0  0  0  0  0  0  0  0  0  0  0  0
    6.4749   69.2763   62.4977 H   0  0  0  0  0  0  0  0  0  0  0  0
    6.5611   68.1608   64.7269 H   0  0  0  0  0  0  0  0  0  0  0  0
    4.4568   67.3465   65.7933 H   0  0  0  0  0  0  0  0  0  0  0  0
   -0.8118   69.3229   64.6210 H   0  0  0  0  0  0  0  0  0  0  0  0
   -3.2037   69.0093   65.2428 H   0  0  0  0  0  0  0  0  0  0  0  0
   -3.8045   67.7417   67.3008 H   0  0  0  0  0  0  0  0  0  0  0  0
   -2.0087   66.7817   68.7386 H   0  0  0  0  0  0  0  0  0  0  0  0
  2  1  2  0
  4  3  1  0
  5  4  2  0
  6  5  1  0
  7  6  2  0
  8  7  1  0
  9  8  2  0
  9  4  1  0
  9  1  1  0
 10  1  1  0
 11 10  2  0
 12 10  1  0
 13 12  2  0
 14 13  1  0
 15 14  2  0
 16 15  1  0
 17 12  1  0
 17 16  2  0
 18 17  1  0
  5 19  1  0
  6 20  1  0
  7 21  1  0
  8 22  1  0
 13 23  1  0
 14 24  1  0
 15 25  1  0
 16 26  1  0
M  END
>  <score>  (8) 
-8.132

$$$$
=
     RDKit          3D

 26 27  0  0  0  0  0  0  0  0999 V2000
    2.0730   67.6540   65.7240 C   0  0  0  0  0  0  0  0  0  0  0  0
    2.0690   66.4690   66.0330 O   0  0  0  0  0  0  0  0  0  0  0  0
    0.4180   68.9490   68.0610 Cl  0  0  0  0  0  0  0  0  0  0  0  0
    2.0740   69.2460   67.6810 C   0  0  0  0  0  0  0  0  0  0  0  0
    2.7620   70.1730   68.4710 C   0  0  0  0  0  0  0  0  0  0  0  0
    4.0810   70.5190   68.1670 C   0  0  0  0  0  0  0  0  0  0  0  0
    4.7150   69.9480   67.0660 C   0  0  0  0  0  0  0  0  0  0  0  0
    4.0350   69.0210   66.2740 C   0  0  0  0  0  0  0  0  0  0  0  0
    2.7190   68.6550   66.5920 C   0  0  0  0  0  0  0  0  0  0  0  0
    1.3090   68.1370   64.5080 C   0  0  0  0  0  0  0  0  0  0  0  0
    0.1060   68.3250   64.6420 O   0  0  0  0  0  0  0  0  0  0  0  0
    2.0130   68.3550   63.2190 C   0  0  0  0  0  0  0  0  0  0  0  0
    3.3010   67.8280   63.0350 C   0  0  0  0  0  0  0  0  0  0  0  0
    3.9770   68.0070   61.8250 C   0  0  0  0  0  0  0  0  0  0  0  0
    3.3740   68.7100   60.7870 C   0  0  0  0  0  0  0  0  0  0  0  0
    2.0930   69.2350   60.9570 C   0  0  0  0  0  0  0  0  0  0  0  0
    1.4090   69.0600   62.1670 C   0  0  0  0  0  0  0  0  0  0  0  0
   -0.1510   69.7970   62.2830 Cl  0  0  0  0  0  0  0  0  0  0  0  0
    2.2617   70.6321   69.3364 H   0  0  0  0  0  0  0  0  0  0  0  0
    4.6189   71.2425   68.7972 H   0  0  0  0  0  0  0  0  0  0  0  0
    5.7503   70.2272   66.8208 H   0  0  0  0  0  0  0  0  0  0  0  0
    4.5322   68.5769   65.3991 H   0  0  0  0  0  0  0  0  0  0  0  0
    3.7827   67.2690   63.8508 H   0  0  0  0  0  0  0  0  0  0  0  0
    4.9870   67.5916   61.6932 H   0  0  0  0  0  0  0  0  0  0  0  0
    3.9060   68.8515   59.8347 H   0  0  0  0  0  0  0  0  0  0  0  0
    1.6166   69.7902   60.1355 H   0  0  0  0  0  0  0  0  0  0  0  0
  2  1  2  0
  4  3  1  0
  5  4  2  0
  6  5  1  0
  7  6  2  0
  8  7  1  0
  9  8  2  0
  9  4  1  0
  9  1  1  0
 10  1  1  0
 11 10  2  0
 12 10  1  0
 13 12  2  0
 14 13  1  0
 15 14  2  0
 16 15  1  0
 17 12  1  0
 17 16  2  0
 18 17  1  0
  5 19  1  0
  6 20  1  0
  7 21  1  0
  8 22  1  0
 13 23  1  0
 14 24  1  0
 15 25  1  0
 16 26  1  0
M  END
>  <score>  (9) 
-8.097

$$$$
