=
     RDKit          3D

 30 32  0  0  0  0  0  0  0  0999 V2000
    3.9010   69.5870   66.2950 C   0  0  0  0  0  0  0  0  0  0  0  0
    2.6600   69.2570   66.6790 C   0  0  0  0  0  0  0  0  0  0  0  0
    1.6870   68.8340   65.6620 C   0  0  0  0  0  0  0  0  0  0  0  0
    0.5370   68.5300   65.9580 O   0  0  0  0  0  0  0  0  0  0  0  0
    2.1510   68.7910   64.2710 C   0  0  0  0  0  0  0  0  0  0  0  0
    3.4710   69.1490   64.0040 C   0  0  0  0  0  0  0  0  0  0  0  0
    4.3500   69.5400   64.9840 O   0  0  0  0  0  0  0  0  0  0  0  0
    3.9490   69.1200   62.6950 C   0  0  0  0  0  0  0  0  0  0  0  0
    3.1000   68.7310   61.6630 C   0  0  0  0  0  0  0  0  0  0  0  0
    1.7790   68.3700   61.9160 C   0  0  0  0  0  0  0  0  0  0  0  0
    1.3060   68.4010   63.2260 C   0  0  0  0  0  0  0  0  0  0  0  0
    6.8980   70.8340   69.0820 C   0  0  0  0  0  0  0  0  0  0  0  0
    7.2530   70.5100   67.7800 C   0  0  0  0  0  0  0  0  0  0  0  0
    6.2700   70.1040   66.8740 C   0  0  0  0  0  0  0  0  0  0  0  0
    4.9270   70.0100   67.2690 C   0  0  0  0  0  0  0  0  0  0  0  0
    4.5900   70.3510   68.5880 C   0  0  0  0  0  0  0  0  0  0  0  0
    5.5730   70.7610   69.4960 C   0  0  0  0  0  0  0  0  0  0  0  0
    7.8880   71.2280   69.9320 O   0  0  0  0  0  0  0  0  0  0  0  0
    0.0010   68.0370   63.4190 O   0  0  0  0  0  0  0  0  0  0  0  0
    3.6080   68.7160   60.3970 O   0  0  0  0  0  0  0  0  0  0  0  0
    2.3739   69.3021   67.7402 H   0  0  0  0  0  0  0  0  0  0  0  0
    4.9899   69.4026   62.4791 H   0  0  0  0  0  0  0  0  0  0  0  0
    1.1175   68.0643   61.0920 H   0  0  0  0  0  0  0  0  0  0  0  0
    8.3043   70.5726   67.4626 H   0  0  0  0  0  0  0  0  0  0  0  0
    6.5519   69.8554   65.8402 H   0  0  0  0  0  0  0  0  0  0  0  0
    3.5403   70.2954   68.9122 H   0  0  0  0  0  0  0  0  0  0  0  0
    5.2994   71.0233   70.5286 H   0  0  0  0  0  0  0  0  0  0  0  0
    7.6709   71.4666   70.8680 H   0  0  0  0  0  0  0  0  0  0  0  0
   -0.3846   68.0418   64.3308 H   0  0  0  0  0  0  0  0  0  0  0  0
    3.0347   68.4450   59.6368 H   0  0  0  0  0  0  0  0  0  0  0  0
  2  1  2  0
  3  2  1  0
  4  3  2  0
  5  3  1  0
  6  5  2  0
  7  6  1  0
  7  1  1  0
  8  6  1  0
  9  8  2  0
 10  9  1  0
 11 10  2  0
 11  5  1  0
 13 12  2  0
 14 13  1  0
 15  1  1  0
 15 14  2  0
 16 15  1  0
 17 16  2  0
 17 12  1  0
 18 12  1  0
 19 11  1  0
 20  9  1  0
  2 21  1  0
  8 22  1  0
 10 23  1  0
 13 24  1  0
 14 25  1  0
 16 26  1  0
 17 27  1  0
 18 28  1  0
 19 29  1  0
 20 30  1  0
M  END
>  <score>  (1) 
-10.117

$$$$
=
     RDKit          3D

 30 32  0  0  0  0  0  0  0  0999 V2000
    4.4480   69.5800   65.5950 C   0  0  0  0  0  0  0  0  0  0  0  0
    5.0930   69.3910   64.4340 C   0  0  0  0  0  0  0  0  0  0  0  0
    4.3170   69.0370   63.2370 C   0  0  0  0  0  0  0  0  0  0  0  0
    4.8580   68.8440   62.1540 O   0  0  0  0  0  0  0  0  0  0  0  0
    2.8630   68.9220   63.3920 C   0  0  0  0  0  0  0  0  0  0  0  0
    2.3140   69.1540   64.6520 C   0  0  0  0  0  0  0  0  0  0  0  0
    3.0740   69.4830   65.7470 O   0  0  0  0  0  0  0  0  0  0  0  0
    0.9360   69.0550   64.8400 C   0  0  0  0  0  0  0  0  0  0  0  0
    0.1190   68.7260   63.7620 C   0  0  0  0  0  0  0  0  0  0  0  0
    0.6550   68.4920   62.4980 C   0  0  0  0  0  0  0  0  0  0  0  0
    2.0330   68.5910   62.3160 C   0  0  0  0  0  0  0  0  0  0  0  0
    6.5670   70.6660   69.1500 C   0  0  0  0  0  0  0  0  0  0  0  0
    7.2640   70.4180   67.9750 C   0  0  0  0  0  0  0  0  0  0  0  0
    6.5660   70.0640   66.8170 C   0  0  0  0  0  0  0  0  0  0  0  0
    5.1680   69.9470   66.8300 C   0  0  0  0  0  0  0  0  0  0  0  0
    4.4840   70.2110   68.0270 C   0  0  0  0  0  0  0  0  0  0  0  0
    5.1810   70.5680   69.1870 C   0  0  0  0  0  0  0  0  0  0  0  0
    7.2860   71.0100   70.2540 O   0  0  0  0  0  0  0  0  0  0  0  0
    2.5070   68.3520   61.0550 O   0  0  0  0  0  0  0  0  0  0  0  0
   -1.2230   68.6400   63.9880 O   0  0  0  0  0  0  0  0  0  0  0  0
    6.1863   69.4993   64.3787 H   0  0  0  0  0  0  0  0  0  0  0  0
    0.4978   69.2355   65.8327 H   0  0  0  0  0  0  0  0  0  0  0  0
   -0.0011   68.2323   61.6541 H   0  0  0  0  0  0  0  0  0  0  0  0
    8.3608   70.4998   67.9556 H   0  0  0  0  0  0  0  0  0  0  0  0
    7.1189   69.8750   65.8850 H   0  0  0  0  0  0  0  0  0  0  0  0
    3.3869   70.1364   68.0537 H   0  0  0  0  0  0  0  0  0  0  0  0
    4.6360   70.7695   70.1210 H   0  0  0  0  0  0  0  0  0  0  0  0
    6.8224   71.1940   71.1091 H   0  0  0  0  0  0  0  0  0  0  0  0
    3.4783   68.4093   60.8722 H   0  0  0  0  0  0  0  0  0  0  0  0
   -1.8361   68.4083   63.2460 H   0  0  0  0  0  0  0  0  0  0  0  0
  2  1  2  0
  3  2  1  0
  4  3  2  0
  5  3  1  0
  6  5  2  0
  7  6  1  0
  7  1  1  0
  8  6  1  0
  9  8  2  0
 10  9  1  0
 11 10  2  0
 11  5  1  0
 13 12  2  0
 14 13  1  0
 15  1  1  0
 15 14  2  0
 16 15  1  0
 17 16  2  0
 17 12  1  0
 18 12  1  0
 19 11  1  0
 20  9  1  0
  2 21  1  0
  8 22  1  0
 10 23  1  0
 13 24  1  0
 14 25  1  0
 16 26  1  0
 17 27  1  0
 18 28  1  0
 19 29  1  0
 20 30  1  0
M  END
>  <score>  (2) 
-9.996

$$$$
=
     RDKit          3D

 30 32  0  0  0  0  0  0  0  0999 V2000
    3.6120   69.5930   66.6260 C   0  0  0  0  0  0  0  0  0  0  0  0
    3.7300   69.3080   65.3210 C   0  0  0  0  0  0  0  0  0  0  0  0
    2.5340   68.9010   64.5690 C   0  0  0  0  0  0  0  0  0  0  0  0
    2.5880   68.6210   63.3770 O   0  0  0  0  0  0  0  0  0  0  0  0
    1.2680   68.8420   65.3070 C   0  0  0  0  0  0  0  0  0  0  0  0
    1.2780   69.1740   66.6610 C   0  0  0  0  0  0  0  0  0  0  0  0
    2.4170   69.5490   67.3280 O   0  0  0  0  0  0  0  0  0  0  0  0
    0.0940   69.1300   67.3960 C   0  0  0  0  0  0  0  0  0  0  0  0
   -1.0900   68.7560   66.7680 C   0  0  0  0  0  0  0  0  0  0  0  0
   -1.1140   68.4230   65.4160 C   0  0  0  0  0  0  0  0  0  0  0  0
    0.0720   68.4680   64.6860 C   0  0  0  0  0  0  0  0  0  0  0  0
    6.9930   70.8430   68.9310 C   0  0  0  0  0  0  0  0  0  0  0  0
    7.1530   70.4930   67.5960 C   0  0  0  0  0  0  0  0  0  0  0  0
    6.0450   70.0860   66.8490 C   0  0  0  0  0  0  0  0  0  0  0  0
    4.7720   70.0180   67.4340 C   0  0  0  0  0  0  0  0  0  0  0  0
    4.6320   70.3850   68.7820 C   0  0  0  0  0  0  0  0  0  0  0  0
    5.7400   70.7950   69.5310 C   0  0  0  0  0  0  0  0  0  0  0  0
    8.0990   71.2360   69.6210 O   0  0  0  0  0  0  0  0  0  0  0  0
   -0.0070   68.1310   63.3620 O   0  0  0  0  0  0  0  0  0  0  0  0
   -2.2260   68.7270   67.5240 O   0  0  0  0  0  0  0  0  0  0  0  0
    4.7071   69.3777   64.8206 H   0  0  0  0  0  0  0  0  0  0  0  0
    0.0959   69.3892   68.4650 H   0  0  0  0  0  0  0  0  0  0  0  0
   -2.0564   68.1285   64.9310 H   0  0  0  0  0  0  0  0  0  0  0  0
    8.1481   70.5362   67.1292 H   0  0  0  0  0  0  0  0  0  0  0  0
    6.1722   69.8159   65.7903 H   0  0  0  0  0  0  0  0  0  0  0  0
    3.6394   70.3497   69.2547 H   0  0  0  0  0  0  0  0  0  0  0  0
    5.6206   71.0775   70.5874 H   0  0  0  0  0  0  0  0  0  0  0  0
    8.0226   71.4926   70.5741 H   0  0  0  0  0  0  0  0  0  0  0  0
    0.8064   68.1464   62.7979 H   0  0  0  0  0  0  0  0  0  0  0  0
   -3.0878   68.4659   67.1127 H   0  0  0  0  0  0  0  0  0  0  0  0
  2  1  2  0
  3  2  1  0
  4  3  2  0
  5  3  1  0
  6  5  2  0
  7  6  1  0
  7  1  1  0
  8  6  1  0
  9  8  2  0
 10  9  1  0
 11 10  2  0
 11  5  1  0
 13 12  2  0
 14 13  1  0
 15  1  1  0
 15 14  2  0
 16 15  1  0
 17 16  2  0
 17 12  1  0
 18 12  1  0
 19 11  1  0
 20  9  1  0
  2 21  1  0
  8 22  1  0
 10 23  1  0
 13 24  1  0
 14 25  1  0
 16 26  1  0
 17 27  1  0
 18 28  1  0
 19 29  1  0
 20 30  1  0
M  END
>  <score>  (3) 
-9.828

$$$$
=
     RDKit          3D

 30 32  0  0  0  0  0  0  0  0999 V2000
    1.5570   68.4750   65.5090 C   0  0  0  0  0  0  0  0  0  0  0  0
    2.6510   68.8370   66.1960 C   0  0  0  0  0  0  0  0  0  0  0  0
    3.8820   69.1560   65.4600 C   0  0  0  0  0  0  0  0  0  0  0  0
    4.9120   69.4840   66.0390 O   0  0  0  0  0  0  0  0  0  0  0  0
    3.8300   69.0640   63.9970 C   0  0  0  0  0  0  0  0  0  0  0  0
    2.6280   68.6850   63.4030 C   0  0  0  0  0  0  0  0  0  0  0  0
    1.4980   68.3950   64.1260 O   0  0  0  0  0  0  0  0  0  0  0  0
    2.5380   68.5860   62.0150 C   0  0  0  0  0  0  0  0  0  0  0  0
    3.6540   68.8700   61.2340 C   0  0  0  0  0  0  0  0  0  0  0  0
    4.8610   69.2500   61.8150 C   0  0  0  0  0  0  0  0  0  0  0  0
    4.9460   69.3470   63.2020 C   0  0  0  0  0  0  0  0  0  0  0  0
   -2.1470   67.5440   67.4360 C   0  0  0  0  0  0  0  0  0  0  0  0
   -2.1240   68.4300   66.3670 C   0  0  0  0  0  0  0  0  0  0  0  0
   -0.9110   68.7300   65.7420 C   0  0  0  0  0  0  0  0  0  0  0  0
    0.2870   68.1530   66.1880 C   0  0  0  0  0  0  0  0  0  0  0  0
    0.2390   67.2530   67.2650 C   0  0  0  0  0  0  0  0  0  0  0  0
   -0.9750   66.9490   67.8910 C   0  0  0  0  0  0  0  0  0  0  0  0
   -3.3510   67.2780   68.0150 O   0  0  0  0  0  0  0  0  0  0  0  0
    6.1540   69.7240   63.7210 O   0  0  0  0  0  0  0  0  0  0  0  0
    3.5230   68.7620   59.8800 O   0  0  0  0  0  0  0  0  0  0  0  0
    2.6268   68.8942   67.2942 H   0  0  0  0  0  0  0  0  0  0  0  0
    1.5919   68.2856   61.5411 H   0  0  0  0  0  0  0  0  0  0  0  0
    5.7364   69.4708   61.1866 H   0  0  0  0  0  0  0  0  0  0  0  0
   -3.0569   68.8937   66.0138 H   0  0  0  0  0  0  0  0  0  0  0  0
   -0.8954   69.4265   64.8907 H   0  0  0  0  0  0  0  0  0  0  0  0
    1.1669   66.7814   67.6208 H   0  0  0  0  0  0  0  0  0  0  0  0
   -1.0022   66.2453   68.7360 H   0  0  0  0  0  0  0  0  0  0  0  0
   -3.4050   66.6512   68.7794 H   0  0  0  0  0  0  0  0  0  0  0  0
    6.2673   69.8079   64.7009 H   0  0  0  0  0  0  0  0  0  0  0  0
    4.2947   68.9559   59.2910 H   0  0  0  0  0  0  0  0  0  0  0  0
  2  1  2  0
  3  2  1  0
  4  3  2  0
  5  3  1  0
  6  5  2  0
  7  6  1  0
  7  1  1  0
  8  6  1  0
  9  8  2  0
 10  9  1  0
 11 10  2  0
 11  5  1  0
 13 12  2  0
 14 13  1  0
 15  1  1  0
 15 14  2  0
 16 15  1  0
 17 16  2  0
 17 12  1  0
 18 12  1  0
 19 11  1  0
 20  9  1  0
  2 21  1  0
  8 22  1  0
 10 23  1  0
 13 24  1  0
 14 25  1  0
 16 26  1  0
 17 27  1  0
 18 28  1  0
 19 29  1  0
 20 30  1  0
M  END
>  <score>  (4) 
-9.648

$$$$
=
     RDKit          3D

 30 32  0  0  0  0  0  0  0  0999 V2000
    1.8190   68.7990   66.3520 C   0  0  0  0  0  0  0  0  0  0  0  0
    2.2520   68.7120   65.0860 C   0  0  0  0  0  0  0  0  0  0  0  0
    3.6070   69.1780   64.7610 C   0  0  0  0  0  0  0  0  0  0  0  0
    4.0480   69.1290   63.6190 O   0  0  0  0  0  0  0  0  0  0  0  0
    4.4140   69.7080   65.8660 C   0  0  0  0  0  0  0  0  0  0  0  0
    3.8510   69.7350   67.1400 C   0  0  0  0  0  0  0  0  0  0  0  0
    2.5790   69.2900   67.4030 O   0  0  0  0  0  0  0  0  0  0  0  0
    4.5860   70.2320   68.2160 C   0  0  0  0  0  0  0  0  0  0  0  0
    5.8810   70.6960   68.0050 C   0  0  0  0  0  0  0  0  0  0  0  0
    6.4560   70.6740   66.7360 C   0  0  0  0  0  0  0  0  0  0  0  0
    5.7170   70.1780   65.6650 C   0  0  0  0  0  0  0  0  0  0  0  0
   -2.0980   67.4700   67.4450 C   0  0  0  0  0  0  0  0  0  0  0  0
   -1.9420   68.4250   66.4500 C   0  0  0  0  0  0  0  0  0  0  0  0
   -0.6600   68.8550   66.0970 C   0  0  0  0  0  0  0  0  0  0  0  0
    0.4730   68.3380   66.7440 C   0  0  0  0  0  0  0  0  0  0  0  0
    0.2910   67.3670   67.7420 C   0  0  0  0  0  0  0  0  0  0  0  0
   -0.9920   66.9330   68.0940 C   0  0  0  0  0  0  0  0  0  0  0  0
   -3.3650   67.0780   67.7560 O   0  0  0  0  0  0  0  0  0  0  0  0
    6.3280   70.1780   64.4410 O   0  0  0  0  0  0  0  0  0  0  0  0
    6.5660   71.1720   69.0840 O   0  0  0  0  0  0  0  0  0  0  0  0
    1.6018   68.2975   64.3015 H   0  0  0  0  0  0  0  0  0  0  0  0
    4.1456   70.2571   69.2237 H   0  0  0  0  0  0  0  0  0  0  0  0
    7.4805   71.0437   66.5822 H   0  0  0  0  0  0  0  0  0  0  0  0
   -2.8238   68.8417   65.9414 H   0  0  0  0  0  0  0  0  0  0  0  0
   -0.5376   69.6068   65.3034 H   0  0  0  0  0  0  0  0  0  0  0  0
    1.1675   66.9424   68.2533 H   0  0  0  0  0  0  0  0  0  0  0  0
   -1.1244   66.1729   68.8781 H   0  0  0  0  0  0  0  0  0  0  0  0
   -3.5141   66.3987   68.4606 H   0  0  0  0  0  0  0  0  0  0  0  0
    5.8457   69.8358   63.6470 H   0  0  0  0  0  0  0  0  0  0  0  0
    7.4897   71.5108   68.9738 H   0  0  0  0  0  0  0  0  0  0  0  0
  2  1  2  0
  3  2  1  0
  4  3  2  0
  5  3  1  0
  6  5  2  0
  7  6  1  0
  7  1  1  0
  8  6  1  0
  9  8  2  0
 10  9  1  0
 11 10  2  0
 11  5  1  0
 13 12  2  0
 14 13  1  0
 15  1  1  0
 15 14  2  0
 16 15  1  0
 17 16  2  0
 17 12  1  0
 18 12  1  0
 19 11  1  0
 20  9  1  0
  2 21  1  0
  8 22  1  0
 10 23  1  0
 13 24  1  0
 14 25  1  0
 16 26  1  0
 17 27  1  0
 18 28  1  0
 19 29  1  0
 20 30  1  0
M  END
>  <score>  (5) 
-9.441

$$$$
=
     RDKit          3D

 30 32  0  0  0  0  0  0  0  0999 V2000
    1.8240   68.7980   67.1170 C   0  0  0  0  0  0  0  0  0  0  0  0
    1.5060   67.9940   68.1430 C   0  0  0  0  0  0  0  0  0  0  0  0
    0.1190   67.5290   68.2800 C   0  0  0  0  0  0  0  0  0  0  0  0
   -0.2270   66.8000   69.2030 O   0  0  0  0  0  0  0  0  0  0  0  0
   -0.8400   67.9730   67.2630 C   0  0  0  0  0  0  0  0  0  0  0  0
   -0.3800   68.8010   66.2400 C   0  0  0  0  0  0  0  0  0  0  0  0
    0.9250   69.2150   66.1470 O   0  0  0  0  0  0  0  0  0  0  0  0
   -1.2610   69.2440   65.2540 C   0  0  0  0  0  0  0  0  0  0  0  0
   -2.5950   68.8530   65.3010 C   0  0  0  0  0  0  0  0  0  0  0  0
   -3.0680   68.0260   66.3180 C   0  0  0  0  0  0  0  0  0  0  0  0
   -2.1840   67.5860   67.3000 C   0  0  0  0  0  0  0  0  0  0  0  0
    5.8230   70.2200   66.5840 C   0  0  0  0  0  0  0  0  0  0  0  0
    5.1910   70.3700   67.8110 C   0  0  0  0  0  0  0  0  0  0  0  0
    3.8850   69.9030   67.9790 C   0  0  0  0  0  0  0  0  0  0  0  0
    3.2000   69.2920   66.9180 C   0  0  0  0  0  0  0  0  0  0  0  0
    3.8630   69.1430   65.6890 C   0  0  0  0  0  0  0  0  0  0  0  0
    5.1720   69.6070   65.5190 C   0  0  0  0  0  0  0  0  0  0  0  0
    7.0980   70.6870   66.4640 O   0  0  0  0  0  0  0  0  0  0  0  0
   -2.7000   66.7760   68.2750 O   0  0  0  0  0  0  0  0  0  0  0  0
   -3.4240   69.3090   64.3170 O   0  0  0  0  0  0  0  0  0  0  0  0
    2.2721   67.6876   68.8705 H   0  0  0  0  0  0  0  0  0  0  0  0
   -0.9036   69.8979   64.4449 H   0  0  0  0  0  0  0  0  0  0  0  0
   -4.1256   67.7247   66.3448 H   0  0  0  0  0  0  0  0  0  0  0  0
    5.7163   70.8545   68.6473 H   0  0  0  0  0  0  0  0  0  0  0  0
    3.3883   70.0156   68.9540 H   0  0  0  0  0  0  0  0  0  0  0  0
    3.3465   68.6552   64.8492 H   0  0  0  0  0  0  0  0  0  0  0  0
    5.6816   69.4879   64.5515 H   0  0  0  0  0  0  0  0  0  0  0  0
    7.5792   70.5969   65.6035 H   0  0  0  0  0  0  0  0  0  0  0  0
   -2.1143   66.4354   68.9968 H   0  0  0  0  0  0  0  0  0  0  0  0
   -4.3801   69.0522   64.3168 H   0  0  0  0  0  0  0  0  0  0  0  0
  2  1  2  0
  3  2  1  0
  4  3  2  0
  5  3  1  0
  6  5  2  0
  7  6  1  0
  7  1  1  0
  8  6  1  0
  9  8  2  0
 10  9  1  0
 11 10  2  0
 11  5  1  0
 13 12  2  0
 14 13  1  0
 15  1  1  0
 15 14  2  0
 16 15  1  0
 17 16  2  0
 17 12  1  0
 18 12  1  0
 19 11  1  0
 20  9  1  0
  2 21  1  0
  8 22  1  0
 10 23  1  0
 13 24  1  0
 14 25  1  0
 16 26  1  0
 17 27  1  0
 18 28  1  0
 19 29  1  0
 20 30  1  0
M  END
>  <score>  (6) 
-9.308

$$$$
=
     RDKit          3D

 30 32  0  0  0  0  0  0  0  0999 V2000
    1.2080   68.5480   64.8800 C   0  0  0  0  0  0  0  0  0  0  0  0
    1.3350   68.3120   63.5660 C   0  0  0  0  0  0  0  0  0  0  0  0
    2.6440   68.5110   62.9290 C   0  0  0  0  0  0  0  0  0  0  0  0
    2.8120   68.3190   61.7300 O   0  0  0  0  0  0  0  0  0  0  0  0
    3.7460   68.9530   63.7900 C   0  0  0  0  0  0  0  0  0  0  0  0
    3.4860   69.1540   65.1440 C   0  0  0  0  0  0  0  0  0  0  0  0
    2.2470   68.9570   65.7020 O   0  0  0  0  0  0  0  0  0  0  0  0
    4.5080   69.5740   65.9940 C   0  0  0  0  0  0  0  0  0  0  0  0
    5.7830   69.7870   65.4800 C   0  0  0  0  0  0  0  0  0  0  0  0
    6.0570   69.5900   64.1290 C   0  0  0  0  0  0  0  0  0  0  0  0
    5.0320   69.1710   63.2840 C   0  0  0  0  0  0  0  0  0  0  0  0
   -2.4930   67.9930   66.9530 C   0  0  0  0  0  0  0  0  0  0  0  0
   -1.3370   67.3830   67.4210 C   0  0  0  0  0  0  0  0  0  0  0  0
   -0.1310   67.5680   66.7400 C   0  0  0  0  0  0  0  0  0  0  0  0
   -0.0770   68.3570   65.5810 C   0  0  0  0  0  0  0  0  0  0  0  0
   -1.2570   68.9720   65.1310 C   0  0  0  0  0  0  0  0  0  0  0  0
   -2.4640   68.7900   65.8140 C   0  0  0  0  0  0  0  0  0  0  0  0
   -3.6460   67.7880   67.6490 O   0  0  0  0  0  0  0  0  0  0  0  0
    5.3550   68.9930   61.9650 O   0  0  0  0  0  0  0  0  0  0  0  0
    6.7540   70.1970   66.3470 O   0  0  0  0  0  0  0  0  0  0  0  0
    0.4718   67.9744   62.9737 H   0  0  0  0  0  0  0  0  0  0  0  0
    4.3077   69.7358   67.0634 H   0  0  0  0  0  0  0  0  0  0  0  0
    7.0691   69.7629   63.7345 H   0  0  0  0  0  0  0  0  0  0  0  0
   -1.3704   66.7564   68.3245 H   0  0  0  0  0  0  0  0  0  0  0  0
    0.7855   67.0902   67.1164 H   0  0  0  0  0  0  0  0  0  0  0  0
   -1.2315   69.6040   64.2311 H   0  0  0  0  0  0  0  0  0  0  0  0
   -3.3835   69.2738   65.4527 H   0  0  0  0  0  0  0  0  0  0  0  0
   -4.4894   68.2074   67.3442 H   0  0  0  0  0  0  0  0  0  0  0  0
    4.6635   68.6960   61.3218 H   0  0  0  0  0  0  0  0  0  0  0  0
    7.6740   70.3592   66.0192 H   0  0  0  0  0  0  0  0  0  0  0  0
  2  1  2  0
  3  2  1  0
  4  3  2  0
  5  3  1  0
  6  5  2  0
  7  6  1  0
  7  1  1  0
  8  6  1  0
  9  8  2  0
 10  9  1  0
 11 10  2  0
 11  5  1  0
 13 12  2  0
 14 13  1  0
 15  1  1  0
 15 14  2  0
 16 15  1  0
 17 16  2  0
 17 12  1  0
 18 12  1  0
 19 11  1  0
 20  9  1  0
  2 21  1  0
  8 22  1  0
 10 23  1  0
 13 24  1  0
 14 25  1  0
 16 26  1  0
 17 27  1  0
 18 28  1  0
 19 29  1  0
 20 30  1  0
M  END
>  <score>  (7) 
-9.228

$$$$
=
     RDKit          3D

 30 32  0  0  0  0  0  0  0  0999 V2000
    1.1110   68.9960   67.0670 C   0  0  0  0  0  0  0  0  0  0  0  0
    1.5320   69.4150   68.2690 C   0  0  0  0  0  0  0  0  0  0  0  0
    2.9440   69.7850   68.4400 C   0  0  0  0  0  0  0  0  0  0  0  0
    3.3830   70.1660   69.5190 O   0  0  0  0  0  0  0  0  0  0  0  0
    3.8120   69.6780   67.2620 C   0  0  0  0  0  0  0  0  0  0  0  0
    3.2480   69.2370   66.0660 C   0  0  0  0  0  0  0  0  0  0  0  0
    1.9230   68.9000   65.9460 O   0  0  0  0  0  0  0  0  0  0  0  0
    4.0400   69.1220   64.9240 C   0  0  0  0  0  0  0  0  0  0  0  0
    5.3900   69.4520   64.9910 C   0  0  0  0  0  0  0  0  0  0  0  0
    5.9660   69.8940   66.1790 C   0  0  0  0  0  0  0  0  0  0  0  0
    5.1710   70.0060   67.3170 C   0  0  0  0  0  0  0  0  0  0  0  0
   -2.9610   67.9130   66.3250 C   0  0  0  0  0  0  0  0  0  0  0  0
   -2.3540   68.8990   65.5580 C   0  0  0  0  0  0  0  0  0  0  0  0
   -1.0240   69.2480   65.8050 C   0  0  0  0  0  0  0  0  0  0  0  0
   -0.2960   68.6190   66.8260 C   0  0  0  0  0  0  0  0  0  0  0  0
   -0.9270   67.6190   67.5830 C   0  0  0  0  0  0  0  0  0  0  0  0
   -2.2580   67.2660   67.3350 C   0  0  0  0  0  0  0  0  0  0  0  0
   -4.2580   67.6020   66.0490 O   0  0  0  0  0  0  0  0  0  0  0  0
    5.7850   70.4450   68.4590 O   0  0  0  0  0  0  0  0  0  0  0  0
    6.1290   69.3260   63.8510 O   0  0  0  0  0  0  0  0  0  0  0  0
    0.8312   69.4808   69.1143 H   0  0  0  0  0  0  0  0  0  0  0  0
    3.6009   68.7731   63.9777 H   0  0  0  0  0  0  0  0  0  0  0  0
    7.0348   70.1513   66.2182 H   0  0  0  0  0  0  0  0  0  0  0  0
   -2.9181   69.4030   64.7594 H   0  0  0  0  0  0  0  0  0  0  0  0
   -0.5424   70.0243   65.1923 H   0  0  0  0  0  0  0  0  0  0  0  0
   -0.3684   67.1070   68.3804 H   0  0  0  0  0  0  0  0  0  0  0  0
   -2.7445   66.4825   67.9346 H   0  0  0  0  0  0  0  0  0  0  0  0
   -4.7225   66.9041   66.5756 H   0  0  0  0  0  0  0  0  0  0  0  0
    5.2640   70.5419   69.2952 H   0  0  0  0  0  0  0  0  0  0  0  0
    7.0930   69.5512   63.8586 H   0  0  0  0  0  0  0  0  0  0  0  0
  2  1  2  0
  3  2  1  0
  4  3  2  0
  5  3  1  0
  6  5  2  0
  7  6  1  0
  7  1  1  0
  8  6  1  0
  9  8  2  0
 10  9  1  0
 11 10  2  0
 11  5  1  0
 13 12  2  0
 14 13  1  0
 15  1  1  0
 15 14  2  0
 16 15  1  0
 17 16  2  0
 17 12  1  0
 18 12  1  0
 19 11  1  0
 20  9  1  0
  2 21  1  0
  8 22  1  0
 10 23  1  0
 13 24  1  0
 14 25  1  0
 16 26  1  0
 17 27  1  0
 18 28  1  0
 19 29  1  0
 20 30  1  0
M  END
>  <score>  (8) 
-9.16

$$$$
=
     RDKit          3D

 30 32  0  0  0  0  0  0  0  0999 V2000
    3.8450   69.4550   65.3270 C   0  0  0  0  0  0  0  0  0  0  0  0
    2.7740   69.3680   66.1290 C   0  0  0  0  0  0  0  0  0  0  0  0
    2.9230   69.6910   67.5550 C   0  0  0  0  0  0  0  0  0  0  0  0
    1.9780   69.6200   68.3330 O   0  0  0  0  0  0  0  0  0  0  0  0
    4.2540   70.1050   68.0120 C   0  0  0  0  0  0  0  0  0  0  0  0
    5.2840   70.1640   67.0740 C   0  0  0  0  0  0  0  0  0  0  0  0
    5.1040   69.8530   65.7490 O   0  0  0  0  0  0  0  0  0  0  0  0
    6.5630   70.5530   67.4700 C   0  0  0  0  0  0  0  0  0  0  0  0
    6.8000   70.8800   68.8010 C   0  0  0  0  0  0  0  0  0  0  0  0
    5.7790   70.8250   69.7480 C   0  0  0  0  0  0  0  0  0  0  0  0
    4.5030   70.4360   69.3480 C   0  0  0  0  0  0  0  0  0  0  0  0
    3.5550   68.5980   61.1460 C   0  0  0  0  0  0  0  0  0  0  0  0
    2.4210   68.5470   61.9450 C   0  0  0  0  0  0  0  0  0  0  0  0
    2.5220   68.8280   63.3100 C   0  0  0  0  0  0  0  0  0  0  0  0
    3.7600   69.1530   63.8850 C   0  0  0  0  0  0  0  0  0  0  0  0
    4.8910   69.2070   63.0550 C   0  0  0  0  0  0  0  0  0  0  0  0
    4.7910   68.9280   61.6880 C   0  0  0  0  0  0  0  0  0  0  0  0
    3.4100   68.3190   59.8200 O   0  0  0  0  0  0  0  0  0  0  0  0
    3.5380   70.3990   70.3170 O   0  0  0  0  0  0  0  0  0  0  0  0
    8.0650   71.2560   69.1460 O   0  0  0  0  0  0  0  0  0  0  0  0
    1.7983   69.0594   65.7256 H   0  0  0  0  0  0  0  0  0  0  0  0
    7.3795   70.6010   66.7344 H   0  0  0  0  0  0  0  0  0  0  0  0
    5.9784   71.0855   70.7979 H   0  0  0  0  0  0  0  0  0  0  0  0
    1.4469   68.2864   61.5054 H   0  0  0  0  0  0  0  0  0  0  0  0
    1.6213   68.7941   63.9406 H   0  0  0  0  0  0  0  0  0  0  0  0
    5.8681   69.4721   63.4851 H   0  0  0  0  0  0  0  0  0  0  0  0
    5.6840   68.9695   61.0471 H   0  0  0  0  0  0  0  0  0  0  0  0
    4.1967   68.3456   59.2196 H   0  0  0  0  0  0  0  0  0  0  0  0
    2.6141   70.1291   70.0854 H   0  0  0  0  0  0  0  0  0  0  0  0
    8.2716   71.4960   70.0840 H   0  0  0  0  0  0  0  0  0  0  0  0
  2  1  2  0
  3  2  1  0
  4  3  2  0
  5  3  1  0
  6  5  2  0
  7  6  1  0
  7  1  1  0
  8  6  1  0
  9  8  2  0
 10  9  1  0
 11 10  2  0
 11  5  1  0
 13 12  2  0
 14 13  1  0
 15  1  1  0
 15 14  2  0
 16 15  1  0
 17 16  2  0
 17 12  1  0
 18 12  1  0
 19 11  1  0
 20  9  1  0
  2 21  1  0
  8 22  1  0
 10 23  1  0
 13 24  1  0
 14 25  1  0
 16 26  1  0
 17 27  1  0
 18 28  1  0
 19 29  1  0
 20 30  1  0
M  END
>  <score>  (9) 
-9.028

$$$$
