=
     RDKit          3D

 64 68  0  0  0  0  0  0  0  0999 V2000
   -0.3540   66.5280   69.3700 C   0  0  0  0  0  0  0  0  0  0  0  0
    0.4860   66.5120   68.1770 N   0  0  0  0  0  0  0  0  0  0  0  0
    0.8550   67.6700   67.5410 C   0  0  0  0  0  0  0  0  0  0  0  0
    0.4100   68.7810   67.8310 O   0  0  0  0  0  0  0  0  0  0  0  0
    1.8540   67.5490   66.3800 C   0  0  1  0  0  0  0  0  0  0  0  0
    1.2740   66.6160   65.3380 N   0  0  0  0  0  4  0  0  0  0  0  0
    2.1520   68.9150   65.7480 C   0  0  0  0  0  0  0  0  0  0  0  0
    3.6090   69.2590   65.7710 C   0  0  0  0  0  0  0  0  0  0  0  0
    4.5000   69.0860   64.7300 C   0  0  0  0  0  0  0  0  0  0  0  0
    5.7360   69.5090   65.1460 N   0  0  0  0  0  0  0  0  0  0  0  0
    5.6760   69.9180   66.4570 C   0  0  0  0  0  0  0  0  0  0  0  0
    4.3480   69.8070   66.8680 C   0  0  0  0  0  0  0  0  0  0  0  0
    4.0160   70.2140   68.1770 C   0  0  0  0  0  0  0  0  0  0  0  0
    5.0200   70.6960   69.0250 C   0  0  0  0  0  0  0  0  0  0  0  0
    6.3380   70.7820   68.5870 C   0  0  0  0  0  0  0  0  0  0  0  0
    6.6920   70.3990   67.2910 C   0  0  0  0  0  0  0  0  0  0  0  0
    0.3740   66.0400   70.6180 C   0  0  0  0  0  0  0  0  0  0  0  0
    0.0120   63.8480   69.7060 O   0  0  0  0  0  0  0  0  0  0  0  0
    0.5180   64.5290   70.5900 C   0  0  0  0  0  0  0  0  0  0  0  0
    1.2790   64.0590   71.6510 N   0  0  0  0  0  0  0  0  0  0  0  0
    1.6010   62.6830   71.8230 C   0  0  0  0  0  0  0  0  0  0  0  0
    2.8060   62.1480   71.3460 C   0  0  0  0  0  0  0  0  0  0  0  0
    3.8050   62.8400   70.4550 C   0  0  0  0  0  0  0  0  0  0  0  0
    5.2430   62.5850   70.9150 C   0  0  0  0  0  0  0  0  0  0  0  0
    5.5090   61.1430   71.3690 C   0  0  0  0  0  0  0  0  0  0  0  0
    4.3440   60.1920   71.1010 C   0  0  0  0  0  0  0  0  0  0  0  0
    3.0520   60.7950   71.5910 C   0  0  0  0  0  0  0  0  0  0  0  0
    2.1780   59.9720   72.2020 N   0  0  0  0  0  0  0  0  0  0  0  0
    1.0070   60.4710   72.6110 C   0  0  0  0  0  0  0  0  0  0  0  0
    0.6470   61.8280   72.4550 C   0  0  0  0  0  0  0  0  0  0  0  0
   -0.6170   62.2390   72.9630 C   0  0  0  0  0  0  0  0  0  0  0  0
   -1.4910   61.3370   73.5740 C   0  0  0  0  0  0  0  0  0  0  0  0
   -1.1210   60.0090   73.7020 C   0  0  0  0  0  0  0  0  0  0  0  0
    0.1210   59.5940   73.2240 C   0  0  0  0  0  0  0  0  0  0  0  0
   -0.6958   67.5589   69.5442 H   0  0  0  0  0  0  0  0  0  0  0  0
   -1.1945   65.8416   69.1898 H   0  0  0  0  0  0  0  0  0  0  0  0
    0.8100   65.6086   67.8031 H   0  0  0  0  0  0  0  0  0  0  0  0
    2.8024   67.1502   66.7693 H   0  0  0  0  0  0  0  0  0  0  0  0
    0.7897   65.8369   65.8063 H   0  0  0  0  0  0  0  0  0  0  0  0
    0.6047   67.1322   64.7494 H   0  0  0  0  0  0  0  0  0  0  0  0
    2.0331   66.2442   64.7494 H   0  0  0  0  0  0  0  0  0  0  0  0
    1.8107   68.9006   64.7024 H   0  0  0  0  0  0  0  0  0  0  0  0
    1.6224   69.6764   66.3394 H   0  0  0  0  0  0  0  0  0  0  0  0
    4.2592   68.6785   63.7370 H   0  0  0  0  0  0  0  0  0  0  0  0
    6.5845   69.5189   64.5622 H   0  0  0  0  0  0  0  0  0  0  0  0
    2.9756   70.1531   68.5290 H   0  0  0  0  0  0  0  0  0  0  0  0
    4.7645   71.0099   70.0478 H   0  0  0  0  0  0  0  0  0  0  0  0
    7.1129   71.1573   69.2716 H   0  0  0  0  0  0  0  0  0  0  0  0
    7.7315   70.4728   66.9387 H   0  0  0  0  0  0  0  0  0  0  0  0
    1.3731   66.4986   70.6574 H   0  0  0  0  0  0  0  0  0  0  0  0
   -0.2088   66.3264   71.5059 H   0  0  0  0  0  0  0  0  0  0  0  0
    1.6264   64.7360   72.3451 H   0  0  0  0  0  0  0  0  0  0  0  0
    3.6871   62.4647   69.4277 H   0  0  0  0  0  0  0  0  0  0  0  0
    3.6158   63.9226   70.5022 H   0  0  0  0  0  0  0  0  0  0  0  0
    5.9192   62.8141   70.0782 H   0  0  0  0  0  0  0  0  0  0  0  0
    5.4156   63.2299   71.7892 H   0  0  0  0  0  0  0  0  0  0  0  0
    6.3941   60.7679   70.8343 H   0  0  0  0  0  0  0  0  0  0  0  0
    5.6585   61.1705   72.4584 H   0  0  0  0  0  0  0  0  0  0  0  0
    4.2698   60.0050   70.0196 H   0  0  0  0  0  0  0  0  0  0  0  0
    4.5232   59.2476   71.6357 H   0  0  0  0  0  0  0  0  0  0  0  0
   -0.9135   63.2944   72.8722 H   0  0  0  0  0  0  0  0  0  0  0  0
   -2.4662   61.6792   73.9507 H   0  0  0  0  0  0  0  0  0  0  0  0
   -1.8016   59.2872   74.1771 H   0  0  0  0  0  0  0  0  0  0  0  0
    0.4087   58.5382   73.3358 H   0  0  0  0  0  0  0  0  0  0  0  0
  2  1  1  0
  3  2  1  0
  4  3  2  0
  5  3  1  0
  6  5  1  0
  7  5  1  0
  8  7  1  0
  9  8  2  0
 10  9  1  0
 11 10  1  0
 12  8  1  0
 12 11  2  0
 13 12  1  0
 14 13  2  0
 15 14  1  0
 16 15  2  0
 16 11  1  0
 17  1  1  0
 19 18  2  0
 19 17  1  0
 20 19  1  0
 21 20  1  0
 22 21  1  0
 23 22  1  0
 24 23  1  0
 25 24  1  0
 26 25  1  0
 27 26  1  0
 27 22  2  0
 28 27  1  0
 29 28  2  0
 30 29  1  0
 30 21  2  0
 31 30  1  0
 32 31  2  0
 33 32  1  0
 34 33  2  0
 34 29  1  0
  1 35  1  0
  1 36  1  0
  2 37  1  0
  5 38  1  1
  6 39  1  0
  6 40  1  0
  6 41  1  0
  7 42  1  0
  7 43  1  0
  9 44  1  0
 10 45  1  0
 13 46  1  0
 14 47  1  0
 15 48  1  0
 16 49  1  0
 17 50  1  0
 17 51  1  0
 20 52  1  0
 23 53  1  0
 23 54  1  0
 24 55  1  0
 24 56  1  0
 25 57  1  0
 25 58  1  0
 26 59  1  0
 26 60  1  0
 31 61  1  0
 32 62  1  0
 33 63  1  0
 34 64  1  0
M  CHG  1   6   1
M  END
>  <score>  (1) 
-13.287

$$$$
=
     RDKit          3D

 64 68  0  0  0  0  0  0  0  0999 V2000
   -0.5910   67.6010   68.0160 C   0  0  0  0  0  0  0  0  0  0  0  0
   -0.3360   66.3820   68.7770 N   0  0  0  0  0  0  0  0  0  0  0  0
    0.6860   66.3040   69.6890 C   0  0  0  0  0  0  0  0  0  0  0  0
    1.5360   67.1810   69.8410 O   0  0  0  0  0  0  0  0  0  0  0  0
    0.7790   65.0250   70.5350 C   0  0  1  0  0  0  0  0  0  0  0  0
   -0.1220   63.9740   69.9230 N   0  0  0  0  0  4  0  0  0  0  0  0
    2.2200   64.5010   70.6060 C   0  0  0  0  0  0  0  0  0  0  0  0
    2.3280   63.2020   71.3430 C   0  0  0  0  0  0  0  0  0  0  0  0
    2.0270   62.9970   72.6760 C   0  0  0  0  0  0  0  0  0  0  0  0
    2.2670   61.6820   72.9760 N   0  0  0  0  0  0  0  0  0  0  0  0
    2.7590   61.0310   71.8690 C   0  0  0  0  0  0  0  0  0  0  0  0
    2.7770   61.9480   70.8190 C   0  0  0  0  0  0  0  0  0  0  0  0
    3.2040   61.5050   69.5490 C   0  0  0  0  0  0  0  0  0  0  0  0
    3.6120   60.1760   69.3840 C   0  0  0  0  0  0  0  0  0  0  0  0
    3.5940   59.2900   70.4560 C   0  0  0  0  0  0  0  0  0  0  0  0
    3.1610   59.6980   71.7210 C   0  0  0  0  0  0  0  0  0  0  0  0
   -0.2770   67.4510   66.5310 C   0  0  0  0  0  0  0  0  0  0  0  0
    1.9180   66.4870   66.3890 O   0  0  0  0  0  0  0  0  0  0  0  0
    1.2220   67.4920   66.2990 C   0  0  0  0  0  0  0  0  0  0  0  0
    1.6660   68.7670   65.9760 N   0  0  0  0  0  0  0  0  0  0  0  0
    3.0230   69.0590   65.6650 C   0  0  0  0  0  0  0  0  0  0  0  0
    3.5600   68.7830   64.3990 C   0  0  0  0  0  0  0  0  0  0  0  0
    2.8970   68.0010   63.2940 C   0  0  0  0  0  0  0  0  0  0  0  0
    3.0990   68.6690   61.9310 C   0  0  0  0  0  0  0  0  0  0  0  0
    4.5090   69.2360   61.7130 C   0  0  0  0  0  0  0  0  0  0  0  0
    5.4960   68.8630   62.8180 C   0  0  0  0  0  0  0  0  0  0  0  0
    4.8930   69.1350   64.1730 C   0  0  0  0  0  0  0  0  0  0  0  0
    5.6990   69.6660   65.1140 N   0  0  0  0  0  0  0  0  0  0  0  0
    5.2020   69.8810   66.3360 C   0  0  0  0  0  0  0  0  0  0  0  0
    3.8620   69.6000   66.6870 C   0  0  0  0  0  0  0  0  0  0  0  0
    3.4490   69.9050   68.0140 C   0  0  0  0  0  0  0  0  0  0  0  0
    4.3330   70.4390   68.9530 C   0  0  0  0  0  0  0  0  0  0  0  0
    5.6450   70.6910   68.5890 C   0  0  0  0  0  0  0  0  0  0  0  0
    6.0610   70.4130   67.2880 C   0  0  0  0  0  0  0  0  0  0  0  0
   -1.6528   67.8670   68.1250 H   0  0  0  0  0  0  0  0  0  0  0  0
    0.0706   68.3837   68.4156 H   0  0  0  0  0  0  0  0  0  0  0  0
   -0.9381   65.5601   68.6257 H   0  0  0  0  0  0  0  0  0  0  0  0
    0.4592   65.2547   71.5621 H   0  0  0  0  0  0  0  0  0  0  0  0
   -0.5819   63.4375   70.6724 H   0  0  0  0  0  0  0  0  0  0  0  0
   -0.8371   64.4320   69.3401 H   0  0  0  0  0  0  0  0  0  0  0  0
    0.4399   63.3373   69.3401 H   0  0  0  0  0  0  0  0  0  0  0  0
    2.5924   64.3559   69.5812 H   0  0  0  0  0  0  0  0  0  0  0  0
    2.8167   65.2445   71.1548 H   0  0  0  0  0  0  0  0  0  0  0  0
    1.6575   63.7599   73.3770 H   0  0  0  0  0  0  0  0  0  0  0  0
    2.1032   61.2456   73.8945 H   0  0  0  0  0  0  0  0  0  0  0  0
    3.2162   62.1986   68.6953 H   0  0  0  0  0  0  0  0  0  0  0  0
    3.9502   59.8290   68.3965 H   0  0  0  0  0  0  0  0  0  0  0  0
    3.9257   58.2520   70.3061 H   0  0  0  0  0  0  0  0  0  0  0  0
    3.1370   58.9976   72.5689 H   0  0  0  0  0  0  0  0  0  0  0  0
   -0.6728   66.4893   66.1725 H   0  0  0  0  0  0  0  0  0  0  0  0
   -0.7452   68.2815   65.9823 H   0  0  0  0  0  0  0  0  0  0  0  0
    0.9817   69.5366   65.9608 H   0  0  0  0  0  0  0  0  0  0  0  0
    3.3290   66.9898   63.2635 H   0  0  0  0  0  0  0  0  0  0  0  0
    1.8174   67.9609   63.5008 H   0  0  0  0  0  0  0  0  0  0  0  0
    2.9022   67.9221   61.1478 H   0  0  0  0  0  0  0  0  0  0  0  0
    2.4048   69.5213   61.8897 H   0  0  0  0  0  0  0  0  0  0  0  0
    4.8948   68.8508   60.7576 H   0  0  0  0  0  0  0  0  0  0  0  0
    4.4199   70.3324   61.7168 H   0  0  0  0  0  0  0  0  0  0  0  0
    5.7424   67.7939   62.7386 H   0  0  0  0  0  0  0  0  0  0  0  0
    6.4066   69.4694   62.7037 H   0  0  0  0  0  0  0  0  0  0  0  0
    2.4060   69.7150   68.3075 H   0  0  0  0  0  0  0  0  0  0  0  0
    3.9898   70.6581   69.9749 H   0  0  0  0  0  0  0  0  0  0  0  0
    6.3532   71.1072   69.3206 H   0  0  0  0  0  0  0  0  0  0  0  0
    7.1037   70.6219   67.0065 H   0  0  0  0  0  0  0  0  0  0  0  0
  2  1  1  0
  3  2  1  0
  4  3  2  0
  5  3  1  0
  6  5  1  0
  7  5  1  0
  8  7  1  0
  9  8  2  0
 10  9  1  0
 11 10  1  0
 12  8  1  0
 12 11  2  0
 13 12  1  0
 14 13  2  0
 15 14  1  0
 16 15  2  0
 16 11  1  0
 17  1  1  0
 19 18  2  0
 19 17  1  0
 20 19  1  0
 21 20  1  0
 22 21  1  0
 23 22  1  0
 24 23  1  0
 25 24  1  0
 26 25  1  0
 27 26  1  0
 27 22  2  0
 28 27  1  0
 29 28  2  0
 30 29  1  0
 30 21  2  0
 31 30  1  0
 32 31  2  0
 33 32  1  0
 34 33  2  0
 34 29  1  0
  1 35  1  0
  1 36  1  0
  2 37  1  0
  5 38  1  1
  6 39  1  0
  6 40  1  0
  6 41  1  0
  7 42  1  0
  7 43  1  0
  9 44  1  0
 10 45  1  0
 13 46  1  0
 14 47  1  0
 15 48  1  0
 16 49  1  0
 17 50  1  0
 17 51  1  0
 20 52  1  0
 23 53  1  0
 23 54  1  0
 24 55  1  0
 24 56  1  0
 25 57  1  0
 25 58  1  0
 26 59  1  0
 26 60  1  0
 31 61  1  0
 32 62  1  0
 33 63  1  0
 34 64  1  0
M  CHG  1   6   1
M  END
>  <score>  (2) 
-13.247

$$$$
=
     RDKit          3D

 64 68  0  0  0  0  0  0  0  0999 V2000
    0.0020   66.2720   69.3350 C   0  0  0  0  0  0  0  0  0  0  0  0
    0.6160   67.5510   68.9950 N   0  0  0  0  0  0  0  0  0  0  0  0
    0.9590   67.8630   67.7040 C   0  0  0  0  0  0  0  0  0  0  0  0
    0.9080   67.0630   66.7700 O   0  0  0  0  0  0  0  0  0  0  0  0
    1.4690   69.2880   67.4360 C   0  0  1  0  0  0  0  0  0  0  0  0
    0.4730   70.2740   68.0090 N   0  0  0  0  0  4  0  0  0  0  0  0
    2.8510   69.5180   68.0620 C   0  0  0  0  0  0  0  0  0  0  0  0
    3.9410   69.6140   67.0410 C   0  0  0  0  0  0  0  0  0  0  0  0
    5.2420   70.0160   67.2770 C   0  0  0  0  0  0  0  0  0  0  0  0
    5.9260   69.9810   66.0900 N   0  0  0  0  0  0  0  0  0  0  0  0
    5.0830   69.6000   65.0730 C   0  0  0  0  0  0  0  0  0  0  0  0
    3.8390   69.3280   65.6420 C   0  0  0  0  0  0  0  0  0  0  0  0
    2.8030   68.8700   64.8010 C   0  0  0  0  0  0  0  0  0  0  0  0
    3.0440   68.7200   63.4300 C   0  0  0  0  0  0  0  0  0  0  0  0
    4.2940   69.0120   62.8930 C   0  0  0  0  0  0  0  0  0  0  0  0
    5.3410   69.4530   63.7050 C   0  0  0  0  0  0  0  0  0  0  0  0
    0.2670   65.8480   70.7760 C   0  0  0  0  0  0  0  0  0  0  0  0
    0.1670   63.5940   69.9540 O   0  0  0  0  0  0  0  0  0  0  0  0
    0.5140   64.3530   70.8520 C   0  0  0  0  0  0  0  0  0  0  0  0
    1.1670   63.9910   72.0220 N   0  0  0  0  0  0  0  0  0  0  0  0
    1.5560   62.6520   72.3090 C   0  0  0  0  0  0  0  0  0  0  0  0
    0.7320   61.7950   73.0540 C   0  0  0  0  0  0  0  0  0  0  0  0
   -0.5220   62.1770   73.7960 C   0  0  0  0  0  0  0  0  0  0  0  0
   -1.6350   61.1440   73.5930 C   0  0  0  0  0  0  0  0  0  0  0  0
   -1.1510   59.6870   73.6280 C   0  0  0  0  0  0  0  0  0  0  0  0
    0.3120   59.5380   74.0440 C   0  0  0  0  0  0  0  0  0  0  0  0
    1.1800   60.4880   73.2580 C   0  0  0  0  0  0  0  0  0  0  0  0
    2.3730   60.0280   72.8330 N   0  0  0  0  0  0  0  0  0  0  0  0
    3.1800   60.8600   72.1680 C   0  0  0  0  0  0  0  0  0  0  0  0
    2.8350   62.1970   71.8660 C   0  0  0  0  0  0  0  0  0  0  0  0
    3.7720   62.9700   71.1240 C   0  0  0  0  0  0  0  0  0  0  0  0
    5.0020   62.4450   70.7240 C   0  0  0  0  0  0  0  0  0  0  0  0
    5.3230   61.1370   71.0450 C   0  0  0  0  0  0  0  0  0  0  0  0
    4.4100   60.3620   71.7580 C   0  0  0  0  0  0  0  0  0  0  0  0
   -1.0850   66.3550   69.1883 H   0  0  0  0  0  0  0  0  0  0  0  0
    0.4476   65.5087   68.6802 H   0  0  0  0  0  0  0  0  0  0  0  0
    0.7963   68.2363   69.7425 H   0  0  0  0  0  0  0  0  0  0  0  0
    1.5696   69.4304   66.3499 H   0  0  0  0  0  0  0  0  0  0  0  0
    0.5083   70.2390   69.0378 H   0  0  0  0  0  0  0  0  0  0  0  0
    0.7082   71.2245   67.6895 H   0  0  0  0  0  0  0  0  0  0  0  0
   -0.4751   70.0292   67.6895 H   0  0  0  0  0  0  0  0  0  0  0  0
    2.8247   70.4552   68.6374 H   0  0  0  0  0  0  0  0  0  0  0  0
    3.0727   68.6520   68.7030 H   0  0  0  0  0  0  0  0  0  0  0  0
    5.6575   70.3133   68.2512 H   0  0  0  0  0  0  0  0  0  0  0  0
    6.9245   70.2069   65.9765 H   0  0  0  0  0  0  0  0  0  0  0  0
    1.8137   68.6326   65.2191 H   0  0  0  0  0  0  0  0  0  0  0  0
    2.2370   68.3677   62.7707 H   0  0  0  0  0  0  0  0  0  0  0  0
    4.4600   68.8936   61.8121 H   0  0  0  0  0  0  0  0  0  0  0  0
    6.3327   69.6768   63.2848 H   0  0  0  0  0  0  0  0  0  0  0  0
    1.1521   66.3810   71.1534 H   0  0  0  0  0  0  0  0  0  0  0  0
   -0.6132   66.0952   71.3876 H   0  0  0  0  0  0  0  0  0  0  0  0
    1.3797   64.7240   72.7136 H   0  0  0  0  0  0  0  0  0  0  0  0
   -0.2935   62.2490   74.8696 H   0  0  0  0  0  0  0  0  0  0  0  0
   -0.8733   63.1425   73.4031 H   0  0  0  0  0  0  0  0  0  0  0  0
   -2.3816   61.2794   74.3894 H   0  0  0  0  0  0  0  0  0  0  0  0
   -2.0495   61.3169   72.5888 H   0  0  0  0  0  0  0  0  0  0  0  0
   -1.7743   59.1306   74.3434 H   0  0  0  0  0  0  0  0  0  0  0  0
   -1.2368   59.2940   72.6042 H   0  0  0  0  0  0  0  0  0  0  0  0
    0.4086   59.7616   75.1167 H   0  0  0  0  0  0  0  0  0  0  0  0
    0.6375   58.5067   73.8427 H   0  0  0  0  0  0  0  0  0  0  0  0
    3.5204   64.0075   70.8590 H   0  0  0  0  0  0  0  0  0  0  0  0
    5.7114   63.0662   70.1576 H   0  0  0  0  0  0  0  0  0  0  0  0
    6.2909   60.7128   70.7397 H   0  0  0  0  0  0  0  0  0  0  0  0
    4.6721   59.3224   72.0039 H   0  0  0  0  0  0  0  0  0  0  0  0
  2  1  1  0
  3  2  1  0
  4  3  2  0
  5  3  1  0
  6  5  1  0
  7  5  1  0
  8  7  1  0
  9  8  2  0
 10  9  1  0
 11 10  1  0
 12  8  1  0
 12 11  2  0
 13 12  1  0
 14 13  2  0
 15 14  1  0
 16 15  2  0
 16 11  1  0
 17  1  1  0
 19 18  2  0
 19 17  1  0
 20 19  1  0
 21 20  1  0
 22 21  1  0
 23 22  1  0
 24 23  1  0
 25 24  1  0
 26 25  1  0
 27 26  1  0
 27 22  2  0
 28 27  1  0
 29 28  2  0
 30 29  1  0
 30 21  2  0
 31 30  1  0
 32 31  2  0
 33 32  1  0
 34 33  2  0
 34 29  1  0
  1 35  1  0
  1 36  1  0
  2 37  1  0
  5 38  1  6
  6 39  1  0
  6 40  1  0
  6 41  1  0
  7 42  1  0
  7 43  1  0
  9 44  1  0
 10 45  1  0
 13 46  1  0
 14 47  1  0
 15 48  1  0
 16 49  1  0
 17 50  1  0
 17 51  1  0
 20 52  1  0
 23 53  1  0
 23 54  1  0
 24 55  1  0
 24 56  1  0
 25 57  1  0
 25 58  1  0
 26 59  1  0
 26 60  1  0
 31 61  1  0
 32 62  1  0
 33 63  1  0
 34 64  1  0
M  CHG  1   6   1
M  END
>  <score>  (3) 
-11.784

$$$$
=
     RDKit          3D

 64 68  0  0  0  0  0  0  0  0999 V2000
    0.4380   65.8090   70.3450 C   0  0  0  0  0  0  0  0  0  0  0  0
    0.4470   66.2280   68.9470 N   0  0  0  0  0  0  0  0  0  0  0  0
    1.2040   67.2890   68.5190 C   0  0  0  0  0  0  0  0  0  0  0  0
    1.8150   68.0430   69.2760 O   0  0  0  0  0  0  0  0  0  0  0  0
    1.2500   67.5570   67.0070 C   0  0  1  0  0  0  0  0  0  0  0  0
   -0.0880   67.1790   66.4080 N   0  0  0  0  0  4  0  0  0  0  0  0
    1.5600   69.0290   66.7050 C   0  0  0  0  0  0  0  0  0  0  0  0
    2.9890   69.2540   66.3210 C   0  0  0  0  0  0  0  0  0  0  0  0
    3.5630   68.9350   65.1050 C   0  0  0  0  0  0  0  0  0  0  0  0
    4.8880   69.2840   65.1480 N   0  0  0  0  0  0  0  0  0  0  0  0
    5.1990   69.7890   66.3890 C   0  0  0  0  0  0  0  0  0  0  0  0
    4.0230   69.8160   67.1370 C   0  0  0  0  0  0  0  0  0  0  0  0
    4.0720   70.3410   68.4450 C   0  0  0  0  0  0  0  0  0  0  0  0
    5.2910   70.7990   68.9580 C   0  0  0  0  0  0  0  0  0  0  0  0
    6.4500   70.7460   68.1900 C   0  0  0  0  0  0  0  0  0  0  0  0
    6.4260   70.2440   66.8860 C   0  0  0  0  0  0  0  0  0  0  0  0
    1.6540   64.9700   70.7230 C   0  0  0  0  0  0  0  0  0  0  0  0
    0.1010   63.1760   71.0910 O   0  0  0  0  0  0  0  0  0  0  0  0
    1.2180   63.6350   71.2980 C   0  0  0  0  0  0  0  0  0  0  0  0
    2.2230   63.0350   72.0430 N   0  0  0  0  0  0  0  0  0  0  0  0
    2.0810   61.7550   72.6480 C   0  0  0  0  0  0  0  0  0  0  0  0
    1.5510   61.6100   73.9380 C   0  0  0  0  0  0  0  0  0  0  0  0
    1.2510   62.7170   74.9150 C   0  0  0  0  0  0  0  0  0  0  0  0
   -0.0920   62.5020   75.6180 C   0  0  0  0  0  0  0  0  0  0  0  0
   -0.3610   61.0460   76.0230 C   0  0  0  0  0  0  0  0  0  0  0  0
    0.8380   60.1210   75.8170 C   0  0  0  0  0  0  0  0  0  0  0  0
    1.4160   60.3120   74.4370 C   0  0  0  0  0  0  0  0  0  0  0  0
    1.8170   59.2080   73.7770 N   0  0  0  0  0  0  0  0  0  0  0  0
    2.3700   59.3510   72.5680 C   0  0  0  0  0  0  0  0  0  0  0  0
    2.5350   60.6030   71.9350 C   0  0  0  0  0  0  0  0  0  0  0  0
    3.1090   60.6150   70.6330 C   0  0  0  0  0  0  0  0  0  0  0  0
    3.5220   59.4400   70.0030 C   0  0  0  0  0  0  0  0  0  0  0  0
    3.3640   58.2270   70.6500 C   0  0  0  0  0  0  0  0  0  0  0  0
    2.7880   58.1970   71.9200 C   0  0  0  0  0  0  0  0  0  0  0  0
    0.4205   66.7070   70.9800 H   0  0  0  0  0  0  0  0  0  0  0  0
   -0.4537   65.1827   70.4952 H   0  0  0  0  0  0  0  0  0  0  0  0
   -0.1292   65.7145   68.2650 H   0  0  0  0  0  0  0  0  0  0  0  0
    2.0547   66.9518   66.5641 H   0  0  0  0  0  0  0  0  0  0  0  0
   -0.7612   66.9888   67.1640 H   0  0  0  0  0  0  0  0  0  0  0  0
   -0.4352   67.9548   65.8262 H   0  0  0  0  0  0  0  0  0  0  0  0
    0.0221   66.3362   65.8262 H   0  0  0  0  0  0  0  0  0  0  0  0
    0.9170   69.3607   65.8764 H   0  0  0  0  0  0  0  0  0  0  0  0
    1.3698   69.6027   67.6241 H   0  0  0  0  0  0  0  0  0  0  0  0
    3.0450   68.4788   64.2486 H   0  0  0  0  0  0  0  0  0  0  0  0
    5.5520   69.1831   64.3671 H   0  0  0  0  0  0  0  0  0  0  0  0
    3.1594   70.3901   69.0572 H   0  0  0  0  0  0  0  0  0  0  0  0
    5.3332   71.2052   69.9794 H   0  0  0  0  0  0  0  0  0  0  0  0
    7.3990   71.1044   68.6154 H   0  0  0  0  0  0  0  0  0  0  0  0
    7.3382   70.2077   66.2724 H   0  0  0  0  0  0  0  0  0  0  0  0
    2.2668   64.7956   69.8263 H   0  0  0  0  0  0  0  0  0  0  0  0
    2.2389   65.5111   71.4814 H   0  0  0  0  0  0  0  0  0  0  0  0
    3.1129   63.5394   72.1637 H   0  0  0  0  0  0  0  0  0  0  0  0
    2.0485   62.7505   75.6719 H   0  0  0  0  0  0  0  0  0  0  0  0
    1.1985   63.6631   74.3563 H   0  0  0  0  0  0  0  0  0  0  0  0
   -0.1097   63.1222   76.5263 H   0  0  0  0  0  0  0  0  0  0  0  0
   -0.8754   62.7810   74.8979 H   0  0  0  0  0  0  0  0  0  0  0  0
   -0.6360   61.0266   77.0879 H   0  0  0  0  0  0  0  0  0  0  0  0
   -1.1688   60.6754   75.3749 H   0  0  0  0  0  0  0  0  0  0  0  0
    1.6078   60.3522   76.5680 H   0  0  0  0  0  0  0  0  0  0  0  0
    0.5073   59.0774   75.9250 H   0  0  0  0  0  0  0  0  0  0  0  0
    3.2303   61.5749   70.1096 H   0  0  0  0  0  0  0  0  0  0  0  0
    3.9700   59.4779   68.9991 H   0  0  0  0  0  0  0  0  0  0  0  0
    3.6900   57.2941   70.1667 H   0  0  0  0  0  0  0  0  0  0  0  0
    2.6610   57.2276   72.4242 H   0  0  0  0  0  0  0  0  0  0  0  0
  2  1  1  0
  3  2  1  0
  4  3  2  0
  5  3  1  0
  6  5  1  0
  7  5  1  0
  8  7  1  0
  9  8  2  0
 10  9  1  0
 11 10  1  0
 12  8  1  0
 12 11  2  0
 13 12  1  0
 14 13  2  0
 15 14  1  0
 16 15  2  0
 16 11  1  0
 17  1  1  0
 19 18  2  0
 19 17  1  0
 20 19  1  0
 21 20  1  0
 22 21  1  0
 23 22  1  0
 24 23  1  0
 25 24  1  0
 26 25  1  0
 27 26  1  0
 27 22  2  0
 28 27  1  0
 29 28  2  0
 30 29  1  0
 30 21  2  0
 31 30  1  0
 32 31  2  0
 33 32  1  0
 34 33  2  0
 34 29  1  0
  1 35  1  0
  1 36  1  0
  2 37  1  0
  5 38  1  6
  6 39  1  0
  6 40  1  0
  6 41  1  0
  7 42  1  0
  7 43  1  0
  9 44  1  0
 10 45  1  0
 13 46  1  0
 14 47  1  0
 15 48  1  0
 16 49  1  0
 17 50  1  0
 17 51  1  0
 20 52  1  0
 23 53  1  0
 23 54  1  0
 24 55  1  0
 24 56  1  0
 25 57  1  0
 25 58  1  0
 26 59  1  0
 26 60  1  0
 31 61  1  0
 32 62  1  0
 33 63  1  0
 34 64  1  0
M  CHG  1   6   1
M  END
>  <score>  (4) 
-11.317

$$$$
=
     RDKit          3D

 64 68  0  0  0  0  0  0  0  0999 V2000
    0.3560   65.0750   70.8420 C   0  0  0  0  0  0  0  0  0  0  0  0
    0.1210   65.8470   69.6260 N   0  0  0  0  0  0  0  0  0  0  0  0
    0.9560   66.8680   69.2500 C   0  0  0  0  0  0  0  0  0  0  0  0
    1.8690   67.3000   69.9530 O   0  0  0  0  0  0  0  0  0  0  0  0
    0.6970   67.5230   67.8840 C   0  0  1  0  0  0  0  0  0  0  0  0
   -0.7810   67.4210   67.5710 N   0  0  0  0  0  4  0  0  0  0  0  0
    1.1330   68.9940   67.8730 C   0  0  0  0  0  0  0  0  0  0  0  0
    2.4090   69.2150   67.1220 C   0  0  0  0  0  0  0  0  0  0  0  0
    2.6390   68.8920   65.7990 C   0  0  0  0  0  0  0  0  0  0  0  0
    3.9280   69.2380   65.4880 N   0  0  0  0  0  0  0  0  0  0  0  0
    4.5590   69.7460   66.5990 C   0  0  0  0  0  0  0  0  0  0  0  0
    3.6230   69.7780   67.6330 C   0  0  0  0  0  0  0  0  0  0  0  0
    4.0180   70.3060   68.8790 C   0  0  0  0  0  0  0  0  0  0  0  0
    5.3300   70.7630   69.0490 C   0  0  0  0  0  0  0  0  0  0  0  0
    6.2430   70.7050   68.0010 C   0  0  0  0  0  0  0  0  0  0  0  0
    5.8740   70.2000   66.7520 C   0  0  0  0  0  0  0  0  0  0  0  0
    0.9590   63.7010   70.5670 C   0  0  0  0  0  0  0  0  0  0  0  0
    1.4540   63.4020   72.8970 O   0  0  0  0  0  0  0  0  0  0  0  0
    1.0590   62.8990   71.8510 C   0  0  0  0  0  0  0  0  0  0  0  0
    0.6480   61.5850   71.6790 N   0  0  0  0  0  0  0  0  0  0  0  0
    0.6020   60.6430   72.7440 C   0  0  0  0  0  0  0  0  0  0  0  0
    1.7100   59.8430   73.0630 C   0  0  0  0  0  0  0  0  0  0  0  0
    2.9790   59.7090   72.2610 C   0  0  0  0  0  0  0  0  0  0  0  0
    4.2180   59.7190   73.1620 C   0  0  0  0  0  0  0  0  0  0  0  0
    4.0560   58.9150   74.4600 C   0  0  0  0  0  0  0  0  0  0  0  0
    2.7620   58.1050   74.5210 C   0  0  0  0  0  0  0  0  0  0  0  0
    1.5840   58.9700   74.1450 C   0  0  0  0  0  0  0  0  0  0  0  0
    0.4510   58.8140   74.8570 N   0  0  0  0  0  0  0  0  0  0  0  0
   -0.6210   59.5390   74.5210 C   0  0  0  0  0  0  0  0  0  0  0  0
   -0.6190   60.4810   73.4680 C   0  0  0  0  0  0  0  0  0  0  0  0
   -1.8180   61.2110   73.2330 C   0  0  0  0  0  0  0  0  0  0  0  0
   -2.9690   60.9960   73.9920 C   0  0  0  0  0  0  0  0  0  0  0  0
   -2.9500   60.0560   75.0080 C   0  0  0  0  0  0  0  0  0  0  0  0
   -1.7790   59.3440   75.2620 C   0  0  0  0  0  0  0  0  0  0  0  0
    1.0463   65.6383   71.4872 H   0  0  0  0  0  0  0  0  0  0  0  0
   -0.6193   64.9162   71.3252 H   0  0  0  0  0  0  0  0  0  0  0  0
   -0.6918   65.6195   69.0357 H   0  0  0  0  0  0  0  0  0  0  0  0
    1.2890   66.9968   67.1206 H   0  0  0  0  0  0  0  0  0  0  0  0
   -1.3164   67.3841   68.4502 H   0  0  0  0  0  0  0  0  0  0  0  0
   -1.0739   68.2438   67.0250 H   0  0  0  0  0  0  0  0  0  0  0  0
   -0.9581   66.5658   67.0250 H   0  0  0  0  0  0  0  0  0  0  0  0
    0.3395   69.5923   67.4015 H   0  0  0  0  0  0  0  0  0  0  0  0
    1.3062   69.2960   68.9165 H   0  0  0  0  0  0  0  0  0  0  0  0
    1.9115   68.4349   65.1121 H   0  0  0  0  0  0  0  0  0  0  0  0
    4.3604   69.1330   64.5591 H   0  0  0  0  0  0  0  0  0  0  0  0
    3.3006   70.3584   69.7112 H   0  0  0  0  0  0  0  0  0  0  0  0
    5.6423   71.1722   70.0211 H   0  0  0  0  0  0  0  0  0  0  0  0
    7.2714   71.0623   68.1583 H   0  0  0  0  0  0  0  0  0  0  0  0
    6.5911   70.1606   65.9188 H   0  0  0  0  0  0  0  0  0  0  0  0
    0.3203   63.1617   69.8520 H   0  0  0  0  0  0  0  0  0  0  0  0
    1.9682   63.8320   70.1494 H   0  0  0  0  0  0  0  0  0  0  0  0
    0.3634   61.2778   70.7380 H   0  0  0  0  0  0  0  0  0  0  0  0
    2.9506   58.7613   71.7032 H   0  0  0  0  0  0  0  0  0  0  0  0
    3.0451   60.5662   71.5749 H   0  0  0  0  0  0  0  0  0  0  0  0
    5.0603   59.2948   72.5958 H   0  0  0  0  0  0  0  0  0  0  0  0
    4.3877   60.7653   73.4562 H   0  0  0  0  0  0  0  0  0  0  0  0
    4.9050   58.2210   74.5473 H   0  0  0  0  0  0  0  0  0  0  0  0
    4.0215   59.6404   75.2862 H   0  0  0  0  0  0  0  0  0  0  0  0
    2.8297   57.2597   73.8203 H   0  0  0  0  0  0  0  0  0  0  0  0
    2.6203   57.7340   75.5468 H   0  0  0  0  0  0  0  0  0  0  0  0
   -1.8378   61.9646   72.4319 H   0  0  0  0  0  0  0  0  0  0  0  0
   -3.8846   61.5692   73.7845 H   0  0  0  0  0  0  0  0  0  0  0  0
   -3.8520   59.8724   75.6102 H   0  0  0  0  0  0  0  0  0  0  0  0
   -1.7720   58.6038   76.0757 H   0  0  0  0  0  0  0  0  0  0  0  0
  2  1  1  0
  3  2  1  0
  4  3  2  0
  5  3  1  0
  6  5  1  0
  7  5  1  0
  8  7  1  0
  9  8  2  0
 10  9  1  0
 11 10  1  0
 12  8  1  0
 12 11  2  0
 13 12  1  0
 14 13  2  0
 15 14  1  0
 16 15  2  0
 16 11  1  0
 17  1  1  0
 19 18  2  0
 19 17  1  0
 20 19  1  0
 21 20  1  0
 22 21  1  0
 23 22  1  0
 24 23  1  0
 25 24  1  0
 26 25  1  0
 27 26  1  0
 27 22  2  0
 28 27  1  0
 29 28  2  0
 30 29  1  0
 30 21  2  0
 31 30  1  0
 32 31  2  0
 33 32  1  0
 34 33  2  0
 34 29  1  0
  1 35  1  0
  1 36  1  0
  2 37  1  0
  5 38  1  6
  6 39  1  0
  6 40  1  0
  6 41  1  0
  7 42  1  0
  7 43  1  0
  9 44  1  0
 10 45  1  0
 13 46  1  0
 14 47  1  0
 15 48  1  0
 16 49  1  0
 17 50  1  0
 17 51  1  0
 20 52  1  0
 23 53  1  0
 23 54  1  0
 24 55  1  0
 24 56  1  0
 25 57  1  0
 25 58  1  0
 26 59  1  0
 26 60  1  0
 31 61  1  0
 32 62  1  0
 33 63  1  0
 34 64  1  0
M  CHG  1   6   1
M  END
>  <score>  (5) 
-10.667

$$$$
=
     RDKit          3D

 64 68  0  0  0  0  0  0  0  0999 V2000
    3.4130   63.8520   65.4680 C   0  0  0  0  0  0  0  0  0  0  0  0
    3.7340   65.1630   64.9110 N   0  0  0  0  0  0  0  0  0  0  0  0
    2.7770   66.1350   64.7650 C   0  0  0  0  0  0  0  0  0  0  0  0
    1.5760   65.9470   64.9550 O   0  0  0  0  0  0  0  0  0  0  0  0
    3.2480   67.5220   64.3010 C   0  0  1  0  0  0  0  0  0  0  0  0
    3.3700   67.5120   62.7920 N   0  0  0  0  0  4  0  0  0  0  0  0
    2.2730   68.6240   64.7380 C   0  0  0  0  0  0  0  0  0  0  0  0
    2.4700   69.0400   66.1620 C   0  0  0  0  0  0  0  0  0  0  0  0
    1.5180   68.9910   67.1620 C   0  0  0  0  0  0  0  0  0  0  0  0
    2.0800   69.4680   68.3180 N   0  0  0  0  0  0  0  0  0  0  0  0
    3.3750   69.8660   68.0800 C   0  0  0  0  0  0  0  0  0  0  0  0
    3.6620   69.5790   66.7460 C   0  0  0  0  0  0  0  0  0  0  0  0
    4.9580   69.8570   66.2650 C   0  0  0  0  0  0  0  0  0  0  0  0
    5.9060   70.4240   67.1250 C   0  0  0  0  0  0  0  0  0  0  0  0
    5.5830   70.7100   68.4470 C   0  0  0  0  0  0  0  0  0  0  0  0
    4.3110   70.4320   68.9540 C   0  0  0  0  0  0  0  0  0  0  0  0
    4.3200   63.4620   66.6300 C   0  0  0  0  0  0  0  0  0  0  0  0
    2.7220   62.0060   67.6760 O   0  0  0  0  0  0  0  0  0  0  0  0
    3.4950   62.9490   67.7960 C   0  0  0  0  0  0  0  0  0  0  0  0
    3.7410   63.6610   68.9620 N   0  0  0  0  0  0  0  0  0  0  0  0
    3.1280   63.3450   70.2070 C   0  0  0  0  0  0  0  0  0  0  0  0
    3.5520   62.2500   70.9740 C   0  0  0  0  0  0  0  0  0  0  0  0
    4.5220   61.1780   70.5490 C   0  0  0  0  0  0  0  0  0  0  0  0
    5.5110   60.8370   71.6670 C   0  0  0  0  0  0  0  0  0  0  0  0
    4.8800   60.7720   73.0650 C   0  0  0  0  0  0  0  0  0  0  0  0
    3.3550   60.8740   73.0530 C   0  0  0  0  0  0  0  0  0  0  0  0
    2.9140   62.0360   72.1990 C   0  0  0  0  0  0  0  0  0  0  0  0
    1.8870   62.7820   72.6510 N   0  0  0  0  0  0  0  0  0  0  0  0
    1.4500   63.7940   71.8950 C   0  0  0  0  0  0  0  0  0  0  0  0
    2.0260   64.1380   70.6520 C   0  0  0  0  0  0  0  0  0  0  0  0
    1.4870   65.2580   69.9610 C   0  0  0  0  0  0  0  0  0  0  0  0
    0.4090   65.9850   70.4700 C   0  0  0  0  0  0  0  0  0  0  0  0
   -0.1490   65.6190   71.6830 C   0  0  0  0  0  0  0  0  0  0  0  0
    0.3790   64.5330   72.3800 C   0  0  0  0  0  0  0  0  0  0  0  0
    2.3726   63.8676   65.8249 H   0  0  0  0  0  0  0  0  0  0  0  0
    3.5614   63.1094   64.6702 H   0  0  0  0  0  0  0  0  0  0  0  0
    4.7019   65.3627   64.6208 H   0  0  0  0  0  0  0  0  0  0  0  0
    4.2218   67.7384   64.7647 H   0  0  0  0  0  0  0  0  0  0  0  0
    4.3623   67.4307   62.5283 H   0  0  0  0  0  0  0  0  0  0  0  0
    2.8466   66.7111   62.4105 H   0  0  0  0  0  0  0  0  0  0  0  0
    2.9840   68.3874   62.4105 H   0  0  0  0  0  0  0  0  0  0  0  0
    2.4215   69.5015   64.0915 H   0  0  0  0  0  0  0  0  0  0  0  0
    1.2539   68.2197   64.6486 H   0  0  0  0  0  0  0  0  0  0  0  0
    0.4848   68.6306   67.0498 H   0  0  0  0  0  0  0  0  0  0  0  0
    1.6032   69.5205   69.2295 H   0  0  0  0  0  0  0  0  0  0  0  0
    5.2222   69.6300   65.2216 H   0  0  0  0  0  0  0  0  0  0  0  0
    6.9166   70.6455   66.7513 H   0  0  0  0  0  0  0  0  0  0  0  0
    6.3407   71.1621   69.1038 H   0  0  0  0  0  0  0  0  0  0  0  0
    4.0544   70.6498   70.0012 H   0  0  0  0  0  0  0  0  0  0  0  0
    5.0120   62.6729   66.3006 H   0  0  0  0  0  0  0  0  0  0  0  0
    4.8846   64.3483   66.9550 H   0  0  0  0  0  0  0  0  0  0  0  0
    4.3971   64.4541   68.9244 H   0  0  0  0  0  0  0  0  0  0  0  0
    3.9582   60.2718   70.2825 H   0  0  0  0  0  0  0  0  0  0  0  0
    5.0932   61.5531   69.6871 H   0  0  0  0  0  0  0  0  0  0  0  0
    5.9592   59.8574   71.4446 H   0  0  0  0  0  0  0  0  0  0  0  0
    6.2532   61.6485   71.6918 H   0  0  0  0  0  0  0  0  0  0  0  0
    5.1610   59.8152   73.5293 H   0  0  0  0  0  0  0  0  0  0  0  0
    5.2569   61.6375   73.6297 H   0  0  0  0  0  0  0  0  0  0  0  0
    2.9324   59.9436   72.6458 H   0  0  0  0  0  0  0  0  0  0  0  0
    2.9992   61.0313   74.0819 H   0  0  0  0  0  0  0  0  0  0  0  0
    1.9308   65.5594   69.0007 H   0  0  0  0  0  0  0  0  0  0  0  0
    0.0060   66.8425   69.9112 H   0  0  0  0  0  0  0  0  0  0  0  0
   -1.0015   66.1801   72.0933 H   0  0  0  0  0  0  0  0  0  0  0  0
   -0.0673   64.2525   73.3455 H   0  0  0  0  0  0  0  0  0  0  0  0
  2  1  1  0
  3  2  1  0
  4  3  2  0
  5  3  1  0
  6  5  1  0
  7  5  1  0
  8  7  1  0
  9  8  2  0
 10  9  1  0
 11 10  1  0
 12  8  1  0
 12 11  2  0
 13 12  1  0
 14 13  2  0
 15 14  1  0
 16 15  2  0
 16 11  1  0
 17  1  1  0
 19 18  2  0
 19 17  1  0
 20 19  1  0
 21 20  1  0
 22 21  1  0
 23 22  1  0
 24 23  1  0
 25 24  1  0
 26 25  1  0
 27 26  1  0
 27 22  2  0
 28 27  1  0
 29 28  2  0
 30 29  1  0
 30 21  2  0
 31 30  1  0
 32 31  2  0
 33 32  1  0
 34 33  2  0
 34 29  1  0
  1 35  1  0
  1 36  1  0
  2 37  1  0
  5 38  1  1
  6 39  1  0
  6 40  1  0
  6 41  1  0
  7 42  1  0
  7 43  1  0
  9 44  1  0
 10 45  1  0
 13 46  1  0
 14 47  1  0
 15 48  1  0
 16 49  1  0
 17 50  1  0
 17 51  1  0
 20 52  1  0
 23 53  1  0
 23 54  1  0
 24 55  1  0
 24 56  1  0
 25 57  1  0
 25 58  1  0
 26 59  1  0
 26 60  1  0
 31 61  1  0
 32 62  1  0
 33 63  1  0
 34 64  1  0
M  CHG  1   6   1
M  END
>  <score>  (6) 
-10.603

$$$$
