=
     RDKit          3D

 56 60  0  0  0  0  0  0  0  0999 V2000
    4.5520   60.3490   71.1730 C   0  0  0  0  0  0  0  0  0  0  0  0
    3.9440   59.1110   71.3190 C   0  0  0  0  0  0  0  0  0  0  0  0
    2.6450   59.0410   71.8350 C   0  0  0  0  0  0  0  0  0  0  0  0
    1.9240   60.1970   72.2060 C   0  0  0  0  0  0  0  0  0  0  0  0
    0.5870   60.0390   72.8530 C   0  0  0  0  0  0  0  0  0  0  0  0
    0.4700   58.7940   73.4560 O   0  0  0  0  0  0  0  0  0  0  0  0
   -0.6370   58.4710   74.1980 C   0  0  0  0  0  0  0  0  0  0  0  0
   -0.6290   57.2220   74.8520 C   0  0  0  0  0  0  0  0  0  0  0  0
    0.5070   56.3100   74.7710 C   0  0  0  0  0  0  0  0  0  0  0  0
    0.4270   55.1360   75.4020 C   0  0  0  0  0  0  0  0  0  0  0  0
   -0.7770   54.7010   76.2010 C   0  0  0  0  0  0  0  0  0  0  0  0
   -1.8460   55.6650   76.2880 O   0  0  0  0  0  0  0  0  0  0  0  0
   -1.7400   56.8460   75.6110 C   0  0  0  0  0  0  0  0  0  0  0  0
   -2.8370   57.6980   75.7230 C   0  0  0  0  0  0  0  0  0  0  0  0
   -2.8340   58.9320   75.0740 C   0  0  0  0  0  0  0  0  0  0  0  0
   -1.7320   59.3260   74.3020 C   0  0  0  0  0  0  0  0  0  0  0  0
   -1.6700   60.6130   73.5810 C   0  0  0  0  0  0  0  0  0  0  0  0
   -2.6200   61.3860   73.5360 O   0  0  0  0  0  0  0  0  0  0  0  0
   -0.3930   60.9630   72.8800 C   0  0  0  0  0  0  0  0  0  0  0  0
   -0.4200   62.3570   72.2920 C   0  0  0  0  0  0  0  0  0  0  0  0
    0.7790   62.7720   71.4370 C   0  0  2  0  0  0  0  0  0  0  0  0
    1.9610   62.6340   72.2530 O   0  0  0  0  0  0  0  0  0  0  0  0
    2.5620   61.4300   71.9980 C   0  0  0  0  0  0  0  0  0  0  0  0
    3.8720   61.5080   71.5130 C   0  0  0  0  0  0  0  0  0  0  0  0
   -0.3480   54.4040   77.6430 C   0  0  0  0  0  0  0  0  0  0  0  0
   -1.3780   53.4390   75.5700 C   0  0  0  0  0  0  0  0  0  0  0  0
    0.7190   64.2590   70.9670 C   0  0  0  0  0  0  0  0  0  0  0  0
    0.0990   65.1510   72.0540 C   0  0  0  0  0  0  0  0  0  0  0  0
    2.0970   64.8090   70.5920 C   0  0  0  0  0  0  0  0  0  0  0  0
   -0.1170   64.3720   69.8070 O   0  0  0  0  0  0  0  0  0  0  0  0
    5.8180   60.4700   70.6860 O   0  0  0  0  0  0  0  0  0  0  0  0
   -3.9240   59.7420   75.2150 O   0  0  0  0  0  0  0  0  0  0  0  0
    4.4777   58.1930   71.0320 H   0  0  0  0  0  0  0  0  0  0  0  0
    2.1713   58.0555   71.9552 H   0  0  0  0  0  0  0  0  0  0  0  0
    1.4086   56.5833   74.2032 H   0  0  0  0  0  0  0  0  0  0  0  0
    1.2840   54.4496   75.3359 H   0  0  0  0  0  0  0  0  0  0  0  0
   -3.7071   57.3964   76.3247 H   0  0  0  0  0  0  0  0  0  0  0  0
   -1.3192   62.4348   71.6632 H   0  0  0  0  0  0  0  0  0  0  0  0
   -0.4014   63.0338   73.1589 H   0  0  0  0  0  0  0  0  0  0  0  0
    0.7822   62.1341   70.5408 H   0  0  0  0  0  0  0  0  0  0  0  0
    4.3612   62.4869   71.4017 H   0  0  0  0  0  0  0  0  0  0  0  0
   -1.0472   54.8881   78.3407 H   0  0  0  0  0  0  0  0  0  0  0  0
   -0.3558   53.3170   77.8114 H   0  0  0  0  0  0  0  0  0  0  0  0
    0.6667   54.7939   77.8114 H   0  0  0  0  0  0  0  0  0  0  0  0
   -1.7052   52.7520   76.3644 H   0  0  0  0  0  0  0  0  0  0  0  0
   -2.2408   53.7161   74.9465 H   0  0  0  0  0  0  0  0  0  0  0  0
   -0.6191   52.9437   74.9465 H   0  0  0  0  0  0  0  0  0  0  0  0
    0.3697   64.7615   73.0465 H   0  0  0  0  0  0  0  0  0  0  0  0
    0.4792   66.1776   71.9468 H   0  0  0  0  0  0  0  0  0  0  0  0
   -0.9958   65.1524   71.9468 H   0  0  0  0  0  0  0  0  0  0  0  0
    2.6632   65.0350   71.5076 H   0  0  0  0  0  0  0  0  0  0  0  0
    2.6421   64.0595   69.9994 H   0  0  0  0  0  0  0  0  0  0  0  0
    1.9762   65.7278   69.9994 H   0  0  0  0  0  0  0  0  0  0  0  0
   -1.0574   64.4991   70.0891 H   0  0  0  0  0  0  0  0  0  0  0  0
    6.2286   61.3659   70.5918 H   0  0  0  0  0  0  0  0  0  0  0  0
   -3.9473   60.6234   74.7647 H   0  0  0  0  0  0  0  0  0  0  0  0
  2  1  2  0
  3  2  1  0
  4  3  2  0
  5  4  1  0
  6  5  1  0
  7  6  1  0
  8  7  2  0
  9  8  1  0
 10  9  2  0
 11 10  1  0
 12 11  1  0
 13 12  1  0
 13  8  1  0
 14 13  2  0
 15 14  1  0
 16 15  2  0
 16  7  1  0
 17 16  1  0
 18 17  2  0
 19 17  1  0
 19  5  2  0
 20 19  1  0
 21 20  1  0
 22 21  1  0
 23 22  1  0
 23  4  1  0
 24 23  2  0
 24  1  1  0
 25 11  1  0
 26 11  1  0
 27 21  1  0
 28 27  1  0
 29 27  1  0
 30 27  1  0
 31  1  1  0
 32 15  1  0
  2 33  1  0
  3 34  1  0
  9 35  1  0
 10 36  1  0
 14 37  1  0
 20 38  1  0
 20 39  1  0
 21 40  1  6
 24 41  1  0
 25 42  1  0
 25 43  1  0
 25 44  1  0
 26 45  1  0
 26 46  1  0
 26 47  1  0
 28 48  1  0
 28 49  1  0
 28 50  1  0
 29 51  1  0
 29 52  1  0
 29 53  1  0
 30 54  1  0
 31 55  1  0
 32 56  1  0
M  END
>  <score>  (1) 
-9.928

$$$$
=
     RDKit          3D

 56 60  0  0  0  0  0  0  0  0999 V2000
    0.7590   65.2610   70.8250 C   0  0  0  0  0  0  0  0  0  0  0  0
   -0.0170   65.0560   71.9550 C   0  0  0  0  0  0  0  0  0  0  0  0
   -0.0490   63.7860   72.5440 C   0  0  0  0  0  0  0  0  0  0  0  0
    0.6940   62.7030   72.0280 C   0  0  0  0  0  0  0  0  0  0  0  0
    0.5230   61.3520   72.6410 C   0  0  0  0  0  0  0  0  0  0  0  0
   -0.7030   61.2480   73.2850 O   0  0  0  0  0  0  0  0  0  0  0  0
   -1.1130   60.0600   73.8320 C   0  0  0  0  0  0  0  0  0  0  0  0
   -2.4110   60.0210   74.3820 C   0  0  0  0  0  0  0  0  0  0  0  0
   -3.2980   61.1800   74.3610 C   0  0  0  0  0  0  0  0  0  0  0  0
   -4.5040   61.0680   74.9220 C   0  0  0  0  0  0  0  0  0  0  0  0
   -5.0040   59.8030   75.5770 C   0  0  0  0  0  0  0  0  0  0  0  0
   -4.1040   58.6780   75.5210 O   0  0  0  0  0  0  0  0  0  0  0  0
   -2.8690   58.8350   74.9590 C   0  0  0  0  0  0  0  0  0  0  0  0
   -2.0550   57.7040   74.9850 C   0  0  0  0  0  0  0  0  0  0  0  0
   -0.7740   57.7510   74.4360 C   0  0  0  0  0  0  0  0  0  0  0  0
   -0.2930   58.9350   73.8570 C   0  0  0  0  0  0  0  0  0  0  0  0
    1.0570   59.0550   73.2700 C   0  0  0  0  0  0  0  0  0  0  0  0
    1.8820   58.1510   73.3300 O   0  0  0  0  0  0  0  0  0  0  0  0
    1.4120   60.3410   72.5860 C   0  0  0  0  0  0  0  0  0  0  0  0
    2.7690   60.2850   71.9190 C   0  0  0  0  0  0  0  0  0  0  0  0
    3.2940   61.5840   71.3070 C   0  0  2  0  0  0  0  0  0  0  0  0
    2.3200   62.0310   70.3410 O   0  0  0  0  0  0  0  0  0  0  0  0
    1.4990   62.9690   70.9090 C   0  0  0  0  0  0  0  0  0  0  0  0
    1.5130   64.2260   70.2950 C   0  0  0  0  0  0  0  0  0  0  0  0
   -6.2970   59.3530   74.8890 C   0  0  0  0  0  0  0  0  0  0  0  0
   -5.2740   60.0720   77.0620 C   0  0  0  0  0  0  0  0  0  0  0  0
    4.6450   61.4080   70.5450 C   0  0  0  0  0  0  0  0  0  0  0  0
    5.1050   62.7390   69.9340 C   0  0  0  0  0  0  0  0  0  0  0  0
    5.7550   60.8580   71.4450 C   0  0  0  0  0  0  0  0  0  0  0  0
    4.4770   60.4850   69.4600 O   0  0  0  0  0  0  0  0  0  0  0  0
    0.8150   66.4740   70.2080 O   0  0  0  0  0  0  0  0  0  0  0  0
   -0.0100   56.6210   74.4720 O   0  0  0  0  0  0  0  0  0  0  0  0
   -0.6018   65.8826   72.3848 H   0  0  0  0  0  0  0  0  0  0  0  0
   -0.6725   63.6277   73.4363 H   0  0  0  0  0  0  0  0  0  0  0  0
   -2.9800   62.1237   73.8938 H   0  0  0  0  0  0  0  0  0  0  0  0
   -5.1690   61.9441   74.9062 H   0  0  0  0  0  0  0  0  0  0  0  0
   -2.4237   56.7726   75.4394 H   0  0  0  0  0  0  0  0  0  0  0  0
    3.4973   59.9558   72.6748 H   0  0  0  0  0  0  0  0  0  0  0  0
    2.6421   59.5987   71.0688 H   0  0  0  0  0  0  0  0  0  0  0  0
    3.4604   62.2937   72.1308 H   0  0  0  0  0  0  0  0  0  0  0  0
    2.1211   64.3925   69.3936 H   0  0  0  0  0  0  0  0  0  0  0  0
   -7.0462   59.0923   75.6510 H   0  0  0  0  0  0  0  0  0  0  0  0
   -6.6817   60.1701   74.2610 H   0  0  0  0  0  0  0  0  0  0  0  0
   -6.0913   58.4736   74.2610 H   0  0  0  0  0  0  0  0  0  0  0  0
   -4.6269   59.4273   77.6750 H   0  0  0  0  0  0  0  0  0  0  0  0
   -5.0605   61.1271   77.2882 H   0  0  0  0  0  0  0  0  0  0  0  0
   -6.3283   59.8546   77.2882 H   0  0  0  0  0  0  0  0  0  0  0  0
    5.3497   63.4471   70.7395 H   0  0  0  0  0  0  0  0  0  0  0  0
    5.9963   62.5685   69.3124 H   0  0  0  0  0  0  0  0  0  0  0  0
    4.2986   63.1552   69.3124 H   0  0  0  0  0  0  0  0  0  0  0  0
    5.4746   60.9969   72.4995 H   0  0  0  0  0  0  0  0  0  0  0  0
    5.8951   59.7862   71.2410 H   0  0  0  0  0  0  0  0  0  0  0  0
    6.6927   61.3957   71.2410 H   0  0  0  0  0  0  0  0  0  0  0  0
    4.3119   59.5780   69.8209 H   0  0  0  0  0  0  0  0  0  0  0  0
    1.3773   66.5939   69.4020 H   0  0  0  0  0  0  0  0  0  0  0  0
    0.9029   56.6283   74.0890 H   0  0  0  0  0  0  0  0  0  0  0  0
  2  1  2  0
  3  2  1  0
  4  3  2  0
  5  4  1  0
  6  5  1  0
  7  6  1  0
  8  7  2  0
  9  8  1  0
 10  9  2  0
 11 10  1  0
 12 11  1  0
 13 12  1  0
 13  8  1  0
 14 13  2  0
 15 14  1  0
 16 15  2  0
 16  7  1  0
 17 16  1  0
 18 17  2  0
 19 17  1  0
 19  5  2  0
 20 19  1  0
 21 20  1  0
 22 21  1  0
 23 22  1  0
 23  4  1  0
 24 23  2  0
 24  1  1  0
 25 11  1  0
 26 11  1  0
 27 21  1  0
 28 27  1  0
 29 27  1  0
 30 27  1  0
 31  1  1  0
 32 15  1  0
  2 33  1  0
  3 34  1  0
  9 35  1  0
 10 36  1  0
 14 37  1  0
 20 38  1  0
 20 39  1  0
 21 40  1  1
 24 41  1  0
 25 42  1  0
 25 43  1  0
 25 44  1  0
 26 45  1  0
 26 46  1  0
 26 47  1  0
 28 48  1  0
 28 49  1  0
 28 50  1  0
 29 51  1  0
 29 52  1  0
 29 53  1  0
 30 54  1  0
 31 55  1  0
 32 56  1  0
M  END
>  <score>  (2) 
-9.688

$$$$
=
     RDKit          3D

 56 60  0  0  0  0  0  0  0  0999 V2000
    3.3060   57.7870   71.2360 C   0  0  0  0  0  0  0  0  0  0  0  0
    2.1630   57.4850   71.9590 C   0  0  0  0  0  0  0  0  0  0  0  0
    1.4510   58.5190   72.5800 C   0  0  0  0  0  0  0  0  0  0  0  0
    1.8570   59.8680   72.4850 C   0  0  0  0  0  0  0  0  0  0  0  0
    1.1130   60.9020   73.2650 C   0  0  0  0  0  0  0  0  0  0  0  0
    0.4640   60.3350   74.3540 O   0  0  0  0  0  0  0  0  0  0  0  0
   -0.1960   61.1160   75.2660 C   0  0  0  0  0  0  0  0  0  0  0  0
   -0.7440   60.4660   76.3900 C   0  0  0  0  0  0  0  0  0  0  0  0
   -0.6070   59.0280   76.5990 C   0  0  0  0  0  0  0  0  0  0  0  0
   -1.1740   58.4840   77.6780 C   0  0  0  0  0  0  0  0  0  0  0  0
   -1.9500   59.2790   78.7000 C   0  0  0  0  0  0  0  0  0  0  0  0
   -2.0070   60.7010   78.4680 O   0  0  0  0  0  0  0  0  0  0  0  0
   -1.4350   61.2190   77.3420 C   0  0  0  0  0  0  0  0  0  0  0  0
   -1.5740   62.5970   77.1830 C   0  0  0  0  0  0  0  0  0  0  0  0
   -1.0260   63.2320   76.0690 C   0  0  0  0  0  0  0  0  0  0  0  0
   -0.3340   62.4920   75.0990 C   0  0  0  0  0  0  0  0  0  0  0  0
    0.2590   63.1010   73.8920 C   0  0  0  0  0  0  0  0  0  0  0  0
    0.1080   64.2840   73.6110 O   0  0  0  0  0  0  0  0  0  0  0  0
    1.0660   62.2200   72.9870 C   0  0  0  0  0  0  0  0  0  0  0  0
    1.7210   62.9920   71.8620 C   0  0  0  0  0  0  0  0  0  0  0  0
    2.4580   62.1760   70.7990 C   0  0  2  0  0  0  0  0  0  0  0  0
    3.4650   61.3950   71.4740 O   0  0  0  0  0  0  0  0  0  0  0  0
    2.9940   60.1300   71.7060 C   0  0  0  0  0  0  0  0  0  0  0  0
    3.7290   59.1000   71.1090 C   0  0  0  0  0  0  0  0  0  0  0  0
   -1.3060   59.0950   80.0800 C   0  0  0  0  0  0  0  0  0  0  0  0
   -3.4000   58.7840   78.7360 C   0  0  0  0  0  0  0  0  0  0  0  0
    3.1950   63.0580   69.7430 C   0  0  0  0  0  0  0  0  0  0  0  0
    4.5720   63.4980   70.2640 C   0  0  0  0  0  0  0  0  0  0  0  0
    3.3720   62.3390   68.4030 C   0  0  0  0  0  0  0  0  0  0  0  0
    2.4420   64.2520   69.4920 O   0  0  0  0  0  0  0  0  0  0  0  0
    4.0400   56.8160   70.6230 O   0  0  0  0  0  0  0  0  0  0  0  0
   -1.1750   64.5840   75.9530 O   0  0  0  0  0  0  0  0  0  0  0  0
    1.8184   56.4439   72.0443 H   0  0  0  0  0  0  0  0  0  0  0  0
    0.5487   58.2728   73.1590 H   0  0  0  0  0  0  0  0  0  0  0  0
   -0.0489   58.4064   75.8833 H   0  0  0  0  0  0  0  0  0  0  0  0
   -1.0704   57.3996   77.8305 H   0  0  0  0  0  0  0  0  0  0  0  0
   -2.1171   63.1846   77.9379 H   0  0  0  0  0  0  0  0  0  0  0  0
    0.9344   63.5679   71.3524 H   0  0  0  0  0  0  0  0  0  0  0  0
    2.4991   63.5997   72.3469 H   0  0  0  0  0  0  0  0  0  0  0  0
    1.7085   61.5696   70.2694 H   0  0  0  0  0  0  0  0  0  0  0  0
    4.6411   59.3324   70.5398 H   0  0  0  0  0  0  0  0  0  0  0  0
   -2.0492   59.3073   80.8627 H   0  0  0  0  0  0  0  0  0  0  0  0
   -0.9502   58.0593   80.1835 H   0  0  0  0  0  0  0  0  0  0  0  0
   -0.4568   59.7864   80.1835 H   0  0  0  0  0  0  0  0  0  0  0  0
   -3.7238   58.6734   79.7814 H   0  0  0  0  0  0  0  0  0  0  0  0
   -4.0486   59.5116   78.2262 H   0  0  0  0  0  0  0  0  0  0  0  0
   -3.4683   57.8117   78.2262 H   0  0  0  0  0  0  0  0  0  0  0  0
    4.5656   63.4960   71.3640 H   0  0  0  0  0  0  0  0  0  0  0  0
    5.3414   62.8010   69.9005 H   0  0  0  0  0  0  0  0  0  0  0  0
    4.7947   64.5120   69.9005 H   0  0  0  0  0  0  0  0  0  0  0  0
    3.6314   61.2854   68.5837 H   0  0  0  0  0  0  0  0  0  0  0  0
    2.4338   62.3928   67.8313 H   0  0  0  0  0  0  0  0  0  0  0  0
    4.1780   62.8222   67.8313 H   0  0  0  0  0  0  0  0  0  0  0  0
    2.1815   64.6650   70.3532 H   0  0  0  0  0  0  0  0  0  0  0  0
    4.8528   57.0581   70.1123 H   0  0  0  0  0  0  0  0  0  0  0  0
   -0.7953   65.0586   75.1716 H   0  0  0  0  0  0  0  0  0  0  0  0
  2  1  2  0
  3  2  1  0
  4  3  2  0
  5  4  1  0
  6  5  1  0
  7  6  1  0
  8  7  2  0
  9  8  1  0
 10  9  2  0
 11 10  1  0
 12 11  1  0
 13 12  1  0
 13  8  1  0
 14 13  2  0
 15 14  1  0
 16 15  2  0
 16  7  1  0
 17 16  1  0
 18 17  2  0
 19 17  1  0
 19  5  2  0
 20 19  1  0
 21 20  1  0
 22 21  1  0
 23 22  1  0
 23  4  1  0
 24 23  2  0
 24  1  1  0
 25 11  1  0
 26 11  1  0
 27 21  1  0
 28 27  1  0
 29 27  1  0
 30 27  1  0
 31  1  1  0
 32 15  1  0
  2 33  1  0
  3 34  1  0
  9 35  1  0
 10 36  1  0
 14 37  1  0
 20 38  1  0
 20 39  1  0
 21 40  1  6
 24 41  1  0
 25 42  1  0
 25 43  1  0
 25 44  1  0
 26 45  1  0
 26 46  1  0
 26 47  1  0
 28 48  1  0
 28 49  1  0
 28 50  1  0
 29 51  1  0
 29 52  1  0
 29 53  1  0
 30 54  1  0
 31 55  1  0
 32 56  1  0
M  END
>  <score>  (3) 
-8.97

$$$$
=
     RDKit          3D

 56 60  0  0  0  0  0  0  0  0999 V2000
    3.4770   59.3680   70.0120 C   0  0  0  0  0  0  0  0  0  0  0  0
    3.2360   58.4710   71.0400 C   0  0  0  0  0  0  0  0  0  0  0  0
    2.8280   58.9520   72.2900 C   0  0  0  0  0  0  0  0  0  0  0  0
    2.6440   60.3300   72.5370 C   0  0  0  0  0  0  0  0  0  0  0  0
    2.3150   60.7780   73.9230 C   0  0  0  0  0  0  0  0  0  0  0  0
    2.7380   59.8460   74.8620 O   0  0  0  0  0  0  0  0  0  0  0  0
    2.6310   60.0990   76.2040 C   0  0  0  0  0  0  0  0  0  0  0  0
    3.1720   59.1380   77.0830 C   0  0  0  0  0  0  0  0  0  0  0  0
    3.8370   57.9320   76.6020 C   0  0  0  0  0  0  0  0  0  0  0  0
    4.3030   57.0610   77.4990 C   0  0  0  0  0  0  0  0  0  0  0  0
    4.1820   57.2570   78.9910 C   0  0  0  0  0  0  0  0  0  0  0  0
    3.5630   58.4910   79.4060 O   0  0  0  0  0  0  0  0  0  0  0  0
    3.0770   59.3480   78.4610 C   0  0  0  0  0  0  0  0  0  0  0  0
    2.4610   60.4960   78.9580 C   0  0  0  0  0  0  0  0  0  0  0  0
    1.9320   61.4410   78.0800 C   0  0  0  0  0  0  0  0  0  0  0  0
    2.0110   61.2460   76.6940 C   0  0  0  0  0  0  0  0  0  0  0  0
    1.4610   62.2020   75.7120 C   0  0  0  0  0  0  0  0  0  0  0  0
    0.8160   63.1890   76.0460 O   0  0  0  0  0  0  0  0  0  0  0  0
    1.7050   61.9320   74.2580 C   0  0  0  0  0  0  0  0  0  0  0  0
    1.2020   63.0490   73.3700 C   0  0  0  0  0  0  0  0  0  0  0  0
    1.2760   62.8200   71.8600 C   0  0  2  0  0  0  0  0  0  0  0  0
    2.6540   62.5490   71.5300 O   0  0  0  0  0  0  0  0  0  0  0  0
    2.8550   61.1970   71.4540 C   0  0  0  0  0  0  0  0  0  0  0  0
    3.2950   60.7280   70.2110 C   0  0  0  0  0  0  0  0  0  0  0  0
    5.5810   57.2470   79.6180 C   0  0  0  0  0  0  0  0  0  0  0  0
    3.3400   56.1230   79.5870 C   0  0  0  0  0  0  0  0  0  0  0  0
    0.8420   64.0650   71.0230 C   0  0  0  0  0  0  0  0  0  0  0  0
    0.0940   65.0790   71.9020 C   0  0  0  0  0  0  0  0  0  0  0  0
    2.0290   64.7610   70.3520 C   0  0  0  0  0  0  0  0  0  0  0  0
   -0.0630   63.6650   69.9840 O   0  0  0  0  0  0  0  0  0  0  0  0
    3.8870   58.9510   68.7810 O   0  0  0  0  0  0  0  0  0  0  0  0
    1.3440   62.5560   78.6040 O   0  0  0  0  0  0  0  0  0  0  0  0
    3.3640   57.3909   70.8757 H   0  0  0  0  0  0  0  0  0  0  0  0
    2.6453   58.2350   73.1039 H   0  0  0  0  0  0  0  0  0  0  0  0
    3.9517   57.7449   75.5241 H   0  0  0  0  0  0  0  0  0  0  0  0
    4.8018   56.1519   77.1319 H   0  0  0  0  0  0  0  0  0  0  0  0
    2.3924   60.6562   80.0441 H   0  0  0  0  0  0  0  0  0  0  0  0
    0.1478   63.2288   73.6274 H   0  0  0  0  0  0  0  0  0  0  0  0
    1.8768   63.8956   73.5647 H   0  0  0  0  0  0  0  0  0  0  0  0
    0.5915   61.9938   71.6175 H   0  0  0  0  0  0  0  0  0  0  0  0
    3.4959   61.4366   69.3940 H   0  0  0  0  0  0  0  0  0  0  0  0
    5.4915   57.2476   80.7143 H   0  0  0  0  0  0  0  0  0  0  0  0
    6.1212   56.3450   79.2948 H   0  0  0  0  0  0  0  0  0  0  0  0
    6.1341   58.1412   79.2948 H   0  0  0  0  0  0  0  0  0  0  0  0
    3.3790   56.1755   80.6851 H   0  0  0  0  0  0  0  0  0  0  0  0
    2.2973   56.2253   79.2518 H   0  0  0  0  0  0  0  0  0  0  0  0
    3.7395   55.1545   79.2518 H   0  0  0  0  0  0  0  0  0  0  0  0
    0.2677   64.8435   72.9624 H   0  0  0  0  0  0  0  0  0  0  0  0
    0.4621   66.0929   71.6865 H   0  0  0  0  0  0  0  0  0  0  0  0
   -0.9834   65.0266   71.6865 H   0  0  0  0  0  0  0  0  0  0  0  0
    2.7054   65.1576   71.1235 H   0  0  0  0  0  0  0  0  0  0  0  0
    2.5715   64.0380   69.7252 H   0  0  0  0  0  0  0  0  0  0  0  0
    1.6629   65.5875   69.7252 H   0  0  0  0  0  0  0  0  0  0  0  0
   -0.8894   63.2998   70.3887 H   0  0  0  0  0  0  0  0  0  0  0  0
    4.0522   59.6131   68.0637 H   0  0  0  0  0  0  0  0  0  0  0  0
    0.9605   63.2425   78.0025 H   0  0  0  0  0  0  0  0  0  0  0  0
  2  1  2  0
  3  2  1  0
  4  3  2  0
  5  4  1  0
  6  5  1  0
  7  6  1  0
  8  7  2  0
  9  8  1  0
 10  9  2  0
 11 10  1  0
 12 11  1  0
 13 12  1  0
 13  8  1  0
 14 13  2  0
 15 14  1  0
 16 15  2  0
 16  7  1  0
 17 16  1  0
 18 17  2  0
 19 17  1  0
 19  5  2  0
 20 19  1  0
 21 20  1  0
 22 21  1  0
 23 22  1  0
 23  4  1  0
 24 23  2  0
 24  1  1  0
 25 11  1  0
 26 11  1  0
 27 21  1  0
 28 27  1  0
 29 27  1  0
 30 27  1  0
 31  1  1  0
 32 15  1  0
  2 33  1  0
  3 34  1  0
  9 35  1  0
 10 36  1  0
 14 37  1  0
 20 38  1  0
 20 39  1  0
 21 40  1  1
 24 41  1  0
 25 42  1  0
 25 43  1  0
 25 44  1  0
 26 45  1  0
 26 46  1  0
 26 47  1  0
 28 48  1  0
 28 49  1  0
 28 50  1  0
 29 51  1  0
 29 52  1  0
 29 53  1  0
 30 54  1  0
 31 55  1  0
 32 56  1  0
M  END
>  <score>  (4) 
-8.948

$$$$
=
     RDKit          3D

 56 60  0  0  0  0  0  0  0  0999 V2000
   -3.0370   61.3610   76.2990 C   0  0  0  0  0  0  0  0  0  0  0  0
   -2.6180   61.8720   75.0800 C   0  0  0  0  0  0  0  0  0  0  0  0
   -1.7240   61.1330   74.2970 C   0  0  0  0  0  0  0  0  0  0  0  0
   -1.2380   59.8720   74.7050 C   0  0  0  0  0  0  0  0  0  0  0  0
   -0.2020   59.1920   73.8710 C   0  0  0  0  0  0  0  0  0  0  0  0
    0.5010   60.1110   73.1020 O   0  0  0  0  0  0  0  0  0  0  0  0
    1.5680   59.7190   72.3380 C   0  0  0  0  0  0  0  0  0  0  0  0
    2.2810   60.7330   71.6640 C   0  0  0  0  0  0  0  0  0  0  0  0
    1.9240   62.1430   71.7830 C   0  0  0  0  0  0  0  0  0  0  0  0
    2.6360   63.0390   71.0960 C   0  0  0  0  0  0  0  0  0  0  0  0
    3.7970   62.6740   70.2030 C   0  0  0  0  0  0  0  0  0  0  0  0
    4.1350   61.2730   70.1680 O   0  0  0  0  0  0  0  0  0  0  0  0
    3.3710   60.3810   70.8650 C   0  0  0  0  0  0  0  0  0  0  0  0
    3.7500   59.0450   70.7390 C   0  0  0  0  0  0  0  0  0  0  0  0
    3.0400   58.0510   71.4110 C   0  0  0  0  0  0  0  0  0  0  0  0
    1.9390   58.3830   72.2140 C   0  0  0  0  0  0  0  0  0  0  0  0
    1.1390   57.3770   72.9410 C   0  0  0  0  0  0  0  0  0  0  0  0
    1.3290   56.1730   72.8190 O   0  0  0  0  0  0  0  0  0  0  0  0
    0.0550   57.8700   73.8510 C   0  0  0  0  0  0  0  0  0  0  0  0
   -0.6000   56.7480   74.6290 C   0  0  0  0  0  0  0  0  0  0  0  0
   -1.8100   57.1170   75.4880 C   0  0  2  0  0  0  0  0  0  0  0  0
   -1.3890   58.1400   76.4140 O   0  0  0  0  0  0  0  0  0  0  0  0
   -1.7240   59.3740   75.9240 C   0  0  0  0  0  0  0  0  0  0  0  0
   -2.5930   60.1200   76.7280 C   0  0  0  0  0  0  0  0  0  0  0  0
    5.0550   63.4070   70.6830 C   0  0  0  0  0  0  0  0  0  0  0  0
    3.4780   63.0830   68.7610 C   0  0  0  0  0  0  0  0  0  0  0  0
   -2.3500   55.9250   76.3400 C   0  0  0  0  0  0  0  0  0  0  0  0
   -1.2280   54.9210   76.6470 C   0  0  0  0  0  0  0  0  0  0  0  0
   -2.9850   56.3860   77.6540 C   0  0  0  0  0  0  0  0  0  0  0  0
   -3.3560   55.2150   75.6050 O   0  0  0  0  0  0  0  0  0  0  0  0
   -3.8970   62.0460   77.1030 O   0  0  0  0  0  0  0  0  0  0  0  0
    3.4470   56.7550   71.2700 O   0  0  0  0  0  0  0  0  0  0  0  0
   -2.9848   62.8488   74.7318 H   0  0  0  0  0  0  0  0  0  0  0  0
   -1.3898   61.5473   73.3344 H   0  0  0  0  0  0  0  0  0  0  0  0
    1.0879   62.4599   72.4237 H   0  0  0  0  0  0  0  0  0  0  0  0
    2.3619   64.1006   71.1854 H   0  0  0  0  0  0  0  0  0  0  0  0
    4.6101   58.7750   70.1087 H   0  0  0  0  0  0  0  0  0  0  0  0
   -0.9263   55.9874   73.9044 H   0  0  0  0  0  0  0  0  0  0  0  0
    0.1655   56.4084   75.3423 H   0  0  0  0  0  0  0  0  0  0  0  0
   -2.6121   57.4385   74.8073 H   0  0  0  0  0  0  0  0  0  0  0  0
   -2.9232   59.7222   77.6989 H   0  0  0  0  0  0  0  0  0  0  0  0
    5.0753   63.4188   71.7827 H   0  0  0  0  0  0  0  0  0  0  0  0
    5.9483   62.8880   70.3053 H   0  0  0  0  0  0  0  0  0  0  0  0
    5.0440   64.4401   70.3053 H   0  0  0  0  0  0  0  0  0  0  0  0
    2.8015   63.9504   68.7670 H   0  0  0  0  0  0  0  0  0  0  0  0
    4.4100   63.3485   68.2405 H   0  0  0  0  0  0  0  0  0  0  0  0
    2.9936   62.2437   68.2405 H   0  0  0  0  0  0  0  0  0  0  0  0
   -1.1147   54.8196   77.7364 H   0  0  0  0  0  0  0  0  0  0  0  0
   -1.4820   53.9430   76.2122 H   0  0  0  0  0  0  0  0  0  0  0  0
   -0.2841   55.2816   76.2122 H   0  0  0  0  0  0  0  0  0  0  0  0
   -2.4166   55.9733   78.5005 H   0  0  0  0  0  0  0  0  0  0  0  0
   -2.9698   57.4848   77.7029 H   0  0  0  0  0  0  0  0  0  0  0  0
   -4.0251   56.0312   77.7029 H   0  0  0  0  0  0  0  0  0  0  0  0
   -3.9784   54.7758   76.2373 H   0  0  0  0  0  0  0  0  0  0  0  0
   -4.1804   61.6583   77.9687 H   0  0  0  0  0  0  0  0  0  0  0  0
    2.9604   56.0298   71.7363 H   0  0  0  0  0  0  0  0  0  0  0  0
  2  1  2  0
  3  2  1  0
  4  3  2  0
  5  4  1  0
  6  5  1  0
  7  6  1  0
  8  7  2  0
  9  8  1  0
 10  9  2  0
 11 10  1  0
 12 11  1  0
 13 12  1  0
 13  8  1  0
 14 13  2  0
 15 14  1  0
 16 15  2  0
 16  7  1  0
 17 16  1  0
 18 17  2  0
 19 17  1  0
 19  5  2  0
 20 19  1  0
 21 20  1  0
 22 21  1  0
 23 22  1  0
 23  4  1  0
 24 23  2  0
 24  1  1  0
 25 11  1  0
 26 11  1  0
 27 21  1  0
 28 27  1  0
 29 27  1  0
 30 27  1  0
 31  1  1  0
 32 15  1  0
  2 33  1  0
  3 34  1  0
  9 35  1  0
 10 36  1  0
 14 37  1  0
 20 38  1  0
 20 39  1  0
 21 40  1  6
 24 41  1  0
 25 42  1  0
 25 43  1  0
 25 44  1  0
 26 45  1  0
 26 46  1  0
 26 47  1  0
 28 48  1  0
 28 49  1  0
 28 50  1  0
 29 51  1  0
 29 52  1  0
 29 53  1  0
 30 54  1  0
 31 55  1  0
 32 56  1  0
M  END
>  <score>  (5) 
-8.94

$$$$
=
     RDKit          3D

 56 60  0  0  0  0  0  0  0  0999 V2000
    1.7240   55.1900   73.8300 C   0  0  0  0  0  0  0  0  0  0  0  0
    0.3580   54.9730   73.9260 C   0  0  0  0  0  0  0  0  0  0  0  0
   -0.5060   56.0710   74.0140 C   0  0  0  0  0  0  0  0  0  0  0  0
   -0.0310   57.4000   73.9980 C   0  0  0  0  0  0  0  0  0  0  0  0
   -1.0000   58.5170   74.2080 C   0  0  0  0  0  0  0  0  0  0  0  0
   -2.1280   58.0770   74.8890 O   0  0  0  0  0  0  0  0  0  0  0  0
   -3.1030   58.9570   75.2790 C   0  0  0  0  0  0  0  0  0  0  0  0
   -4.1650   58.4380   76.0480 C   0  0  0  0  0  0  0  0  0  0  0  0
   -4.2270   57.0330   76.4380 C   0  0  0  0  0  0  0  0  0  0  0  0
   -5.2780   56.6160   77.1480 C   0  0  0  0  0  0  0  0  0  0  0  0
   -6.4070   57.5210   77.5760 C   0  0  0  0  0  0  0  0  0  0  0  0
   -6.2640   58.9080   77.2070 O   0  0  0  0  0  0  0  0  0  0  0  0
   -5.1880   59.2950   76.4610 C   0  0  0  0  0  0  0  0  0  0  0  0
   -5.1540   60.6460   76.1200 C   0  0  0  0  0  0  0  0  0  0  0  0
   -4.0980   61.1510   75.3610 C   0  0  0  0  0  0  0  0  0  0  0  0
   -3.0650   60.3050   74.9320 C   0  0  0  0  0  0  0  0  0  0  0  0
   -1.9260   60.7730   74.1170 C   0  0  0  0  0  0  0  0  0  0  0  0
   -1.8550   61.9170   73.6840 O   0  0  0  0  0  0  0  0  0  0  0  0
   -0.8320   59.7940   73.8150 C   0  0  0  0  0  0  0  0  0  0  0  0
    0.3300   60.4340   73.0850 C   0  0  0  0  0  0  0  0  0  0  0  0
    1.4440   59.5020   72.6060 C   0  0  2  0  0  0  0  0  0  0  0  0
    1.9490   58.8010   73.7610 O   0  0  0  0  0  0  0  0  0  0  0  0
    1.3550   57.5710   73.8540 C   0  0  0  0  0  0  0  0  0  0  0  0
    2.2290   56.4800   73.7990 C   0  0  0  0  0  0  0  0  0  0  0  0
   -6.5270   57.4940   79.1040 C   0  0  0  0  0  0  0  0  0  0  0  0
   -7.7160   57.0350   76.9450 C   0  0  0  0  0  0  0  0  0  0  0  0
    2.6500   60.2580   71.9660 C   0  0  0  0  0  0  0  0  0  0  0  0
    3.4910   60.9570   73.0440 C   0  0  0  0  0  0  0  0  0  0  0  0
    3.5530   59.3310   71.1470 C   0  0  0  0  0  0  0  0  0  0  0  0
    2.1720   61.2810   71.0810 O   0  0  0  0  0  0  0  0  0  0  0  0
    2.6080   54.1550   73.7540 O   0  0  0  0  0  0  0  0  0  0  0  0
   -4.0960   62.4810   75.0550 O   0  0  0  0  0  0  0  0  0  0  0  0
   -0.0428   53.9486   73.9329 H   0  0  0  0  0  0  0  0  0  0  0  0
   -1.5882   55.8925   74.0982 H   0  0  0  0  0  0  0  0  0  0  0  0
   -3.4266   56.3340   76.1537 H   0  0  0  0  0  0  0  0  0  0  0  0
   -5.3233   55.5555   77.4365 H   0  0  0  0  0  0  0  0  0  0  0  0
   -5.9618   61.3157   76.4501 H   0  0  0  0  0  0  0  0  0  0  0  0
   -0.0755   60.9487   72.2015 H   0  0  0  0  0  0  0  0  0  0  0  0
    0.8062   61.0930   73.8259 H   0  0  0  0  0  0  0  0  0  0  0  0
    1.0144   58.8402   71.8396 H   0  0  0  0  0  0  0  0  0  0  0  0
    3.3143   56.6458   73.7313 H   0  0  0  0  0  0  0  0  0  0  0  0
   -5.5472   57.7145   79.5527 H   0  0  0  0  0  0  0  0  0  0  0  0
   -7.2571   58.2503   79.4279 H   0  0  0  0  0  0  0  0  0  0  0  0
   -6.8628   56.4978   79.4279 H   0  0  0  0  0  0  0  0  0  0  0  0
   -8.4296   56.7701   77.7391 H   0  0  0  0  0  0  0  0  0  0  0  0
   -8.1417   57.8350   76.3215 H   0  0  0  0  0  0  0  0  0  0  0  0
   -7.5164   56.1510   76.3215 H   0  0  0  0  0  0  0  0  0  0  0  0
    3.1319   60.6585   74.0400 H   0  0  0  0  0  0  0  0  0  0  0  0
    4.5459   60.6659   72.9321 H   0  0  0  0  0  0  0  0  0  0  0  0
    3.3977   62.0473   72.9321 H   0  0  0  0  0  0  0  0  0  0  0  0
    4.1562   58.7118   71.8273 H   0  0  0  0  0  0  0  0  0  0  0  0
    2.9323   58.6810   70.5127 H   0  0  0  0  0  0  0  0  0  0  0  0
    4.2191   59.9344   70.5127 H   0  0  0  0  0  0  0  0  0  0  0  0
    1.8183   62.0380   71.6121 H   0  0  0  0  0  0  0  0  0  0  0  0
    3.5787   54.3371   73.6861 H   0  0  0  0  0  0  0  0  0  0  0  0
   -3.3581   62.8642   74.5177 H   0  0  0  0  0  0  0  0  0  0  0  0
  2  1  2  0
  3  2  1  0
  4  3  2  0
  5  4  1  0
  6  5  1  0
  7  6  1  0
  8  7  2  0
  9  8  1  0
 10  9  2  0
 11 10  1  0
 12 11  1  0
 13 12  1  0
 13  8  1  0
 14 13  2  0
 15 14  1  0
 16 15  2  0
 16  7  1  0
 17 16  1  0
 18 17  2  0
 19 17  1  0
 19  5  2  0
 20 19  1  0
 21 20  1  0
 22 21  1  0
 23 22  1  0
 23  4  1  0
 24 23  2  0
 24  1  1  0
 25 11  1  0
 26 11  1  0
 27 21  1  0
 28 27  1  0
 29 27  1  0
 30 27  1  0
 31  1  1  0
 32 15  1  0
  2 33  1  0
  3 34  1  0
  9 35  1  0
 10 36  1  0
 14 37  1  0
 20 38  1  0
 20 39  1  0
 21 40  1  6
 24 41  1  0
 25 42  1  0
 25 43  1  0
 25 44  1  0
 26 45  1  0
 26 46  1  0
 26 47  1  0
 28 48  1  0
 28 49  1  0
 28 50  1  0
 29 51  1  0
 29 52  1  0
 29 53  1  0
 30 54  1  0
 31 55  1  0
 32 56  1  0
M  END
>  <score>  (6) 
-8.306

$$$$
=
     RDKit          3D

 56 60  0  0  0  0  0  0  0  0999 V2000
    0.1280   65.5200   70.1530 C   0  0  0  0  0  0  0  0  0  0  0  0
   -0.1950   66.0670   71.3850 C   0  0  0  0  0  0  0  0  0  0  0  0
    0.0150   65.3140   72.5460 C   0  0  0  0  0  0  0  0  0  0  0  0
    0.5560   64.0110   72.5050 C   0  0  0  0  0  0  0  0  0  0  0  0
    0.6480   63.2260   73.7720 C   0  0  0  0  0  0  0  0  0  0  0  0
   -0.2700   63.6820   74.7090 O   0  0  0  0  0  0  0  0  0  0  0  0
   -0.4310   63.0400   75.9090 C   0  0  0  0  0  0  0  0  0  0  0  0
   -1.4510   63.5150   76.7590 C   0  0  0  0  0  0  0  0  0  0  0  0
   -2.3190   64.6270   76.3840 C   0  0  0  0  0  0  0  0  0  0  0  0
   -3.2470   65.0310   77.2550 C   0  0  0  0  0  0  0  0  0  0  0  0
   -3.4520   64.3960   78.6090 C   0  0  0  0  0  0  0  0  0  0  0  0
   -2.6000   63.2700   78.9010 O   0  0  0  0  0  0  0  0  0  0  0  0
   -1.6470   62.8990   77.9970 C   0  0  0  0  0  0  0  0  0  0  0  0
   -0.8460   61.8240   78.3820 C   0  0  0  0  0  0  0  0  0  0  0  0
    0.1580   61.3600   77.5330 C   0  0  0  0  0  0  0  0  0  0  0  0
    0.3740   61.9700   76.2890 C   0  0  0  0  0  0  0  0  0  0  0  0
    1.4270   61.5350   75.3500 C   0  0  0  0  0  0  0  0  0  0  0  0
    2.2440   60.6670   75.6350 O   0  0  0  0  0  0  0  0  0  0  0  0
    1.4860   62.1970   74.0060 C   0  0  0  0  0  0  0  0  0  0  0  0
    2.5230   61.5720   73.0990 C   0  0  0  0  0  0  0  0  0  0  0  0
    2.7650   62.2540   71.7510 C   0  0  2  0  0  0  0  0  0  0  0  0
    1.5020   62.2950   71.0550 O   0  0  0  0  0  0  0  0  0  0  0  0
    0.9100   63.5160   71.2400 C   0  0  0  0  0  0  0  0  0  0  0  0
    0.6740   64.2490   70.0720 C   0  0  0  0  0  0  0  0  0  0  0  0
   -4.8930   63.8840   78.7150 C   0  0  0  0  0  0  0  0  0  0  0  0
   -3.1900   65.4370   79.7030 C   0  0  0  0  0  0  0  0  0  0  0  0
    3.7660   61.4800   70.8370 C   0  0  0  0  0  0  0  0  0  0  0  0
    3.7520   62.0460   69.4100 C   0  0  0  0  0  0  0  0  0  0  0  0
    5.1980   61.5160   71.3780 C   0  0  0  0  0  0  0  0  0  0  0  0
    3.3780   60.1020   70.7450 O   0  0  0  0  0  0  0  0  0  0  0  0
   -0.0680   66.2070   68.9930 O   0  0  0  0  0  0  0  0  0  0  0  0
    0.9150   60.3000   77.9420 O   0  0  0  0  0  0  0  0  0  0  0  0
   -0.6122   67.0828   71.4496 H   0  0  0  0  0  0  0  0  0  0  0  0
   -0.2497   65.7510   73.5201 H   0  0  0  0  0  0  0  0  0  0  0  0
   -2.2112   65.1206   75.4069 H   0  0  0  0  0  0  0  0  0  0  0  0
   -3.8969   65.8716   76.9706 H   0  0  0  0  0  0  0  0  0  0  0  0
   -1.0067   61.3413   79.3573 H   0  0  0  0  0  0  0  0  0  0  0  0
    3.4788   61.5635   73.6434 H   0  0  0  0  0  0  0  0  0  0  0  0
    2.1240   60.5777   72.8497 H   0  0  0  0  0  0  0  0  0  0  0  0
    3.1917   63.2473   71.9543 H   0  0  0  0  0  0  0  0  0  0  0  0
    0.9214   63.8171   69.0910 H   0  0  0  0  0  0  0  0  0  0  0  0
   -5.1701   63.7855   79.7750 H   0  0  0  0  0  0  0  0  0  0  0  0
   -5.5722   64.5958   78.2231 H   0  0  0  0  0  0  0  0  0  0  0  0
   -4.9708   62.9032   78.2231 H   0  0  0  0  0  0  0  0  0  0  0  0
   -3.3080   64.9682   80.6911 H   0  0  0  0  0  0  0  0  0  0  0  0
   -2.1660   65.8258   79.6015 H   0  0  0  0  0  0  0  0  0  0  0  0
   -3.9080   66.2642   79.6015 H   0  0  0  0  0  0  0  0  0  0  0  0
    3.7248   63.1449   69.4517 H   0  0  0  0  0  0  0  0  0  0  0  0
    4.6584   61.7215   68.8779 H   0  0  0  0  0  0  0  0  0  0  0  0
    2.8627   61.6771   68.8779 H   0  0  0  0  0  0  0  0  0  0  0  0
    5.1746   61.5154   72.4778 H   0  0  0  0  0  0  0  0  0  0  0  0
    5.7466   60.6314   71.0224 H   0  0  0  0  0  0  0  0  0  0  0  0
    5.7015   62.4271   71.0224 H   0  0  0  0  0  0  0  0  0  0  0  0
    3.2725   59.7274   71.6553 H   0  0  0  0  0  0  0  0  0  0  0  0
    0.1713   65.7931   68.1261 H   0  0  0  0  0  0  0  0  0  0  0  0
    1.6344   59.9509   77.3582 H   0  0  0  0  0  0  0  0  0  0  0  0
  2  1  2  0
  3  2  1  0
  4  3  2  0
  5  4  1  0
  6  5  1  0
  7  6  1  0
  8  7  2  0
  9  8  1  0
 10  9  2  0
 11 10  1  0
 12 11  1  0
 13 12  1  0
 13  8  1  0
 14 13  2  0
 15 14  1  0
 16 15  2  0
 16  7  1  0
 17 16  1  0
 18 17  2  0
 19 17  1  0
 19  5  2  0
 20 19  1  0
 21 20  1  0
 22 21  1  0
 23 22  1  0
 23  4  1  0
 24 23  2  0
 24  1  1  0
 25 11  1  0
 26 11  1  0
 27 21  1  0
 28 27  1  0
 29 27  1  0
 30 27  1  0
 31  1  1  0
 32 15  1  0
  2 33  1  0
  3 34  1  0
  9 35  1  0
 10 36  1  0
 14 37  1  0
 20 38  1  0
 20 39  1  0
 21 40  1  1
 24 41  1  0
 25 42  1  0
 25 43  1  0
 25 44  1  0
 26 45  1  0
 26 46  1  0
 26 47  1  0
 28 48  1  0
 28 49  1  0
 28 50  1  0
 29 51  1  0
 29 52  1  0
 29 53  1  0
 30 54  1  0
 31 55  1  0
 32 56  1  0
M  END
>  <score>  (7) 
-7.695

$$$$
=
     RDKit          3D

 56 60  0  0  0  0  0  0  0  0999 V2000
    3.5780   61.0520   72.0970 C   0  0  0  0  0  0  0  0  0  0  0  0
    3.0140   59.8300   71.7660 C   0  0  0  0  0  0  0  0  0  0  0  0
    1.9580   59.3300   72.5380 C   0  0  0  0  0  0  0  0  0  0  0  0
    1.4390   60.0390   73.6430 C   0  0  0  0  0  0  0  0  0  0  0  0
    0.3880   59.3940   74.4860 C   0  0  0  0  0  0  0  0  0  0  0  0
    0.4380   58.0100   74.3730 O   0  0  0  0  0  0  0  0  0  0  0  0
   -0.3700   57.2110   75.1390 C   0  0  0  0  0  0  0  0  0  0  0  0
   -0.1850   55.8180   75.0280 C   0  0  0  0  0  0  0  0  0  0  0  0
    0.8300   55.2360   74.1550 C   0  0  0  0  0  0  0  0  0  0  0  0
    0.9270   53.9060   74.0890 C   0  0  0  0  0  0  0  0  0  0  0  0
    0.0420   52.9670   74.8740 C   0  0  0  0  0  0  0  0  0  0  0  0
   -0.9060   53.6000   75.7570 O   0  0  0  0  0  0  0  0  0  0  0  0
   -0.9920   54.9620   75.7820 C   0  0  0  0  0  0  0  0  0  0  0  0
   -1.9620   55.4830   76.6370 C   0  0  0  0  0  0  0  0  0  0  0  0
   -2.1360   56.8620   76.7420 C   0  0  0  0  0  0  0  0  0  0  0  0
   -1.3400   57.7370   75.9890 C   0  0  0  0  0  0  0  0  0  0  0  0
   -1.4800   59.2060   76.0450 C   0  0  0  0  0  0  0  0  0  0  0  0
   -2.3660   59.7570   76.6890 O   0  0  0  0  0  0  0  0  0  0  0  0
   -0.4970   60.0340   75.2740 C   0  0  0  0  0  0  0  0  0  0  0  0
   -0.6730   61.5170   75.5190 C   0  0  0  0  0  0  0  0  0  0  0  0
    0.1860   62.4640   74.6810 C   0  0  2  0  0  0  0  0  0  0  0  0
    1.5670   62.1160   74.9120 O   0  0  0  0  0  0  0  0  0  0  0  0
    2.0110   61.2920   73.9120 C   0  0  0  0  0  0  0  0  0  0  0  0
    3.0870   61.7840   73.1670 C   0  0  0  0  0  0  0  0  0  0  0  0
    0.9160   52.0670   75.7550 C   0  0  0  0  0  0  0  0  0  0  0  0
   -0.7730   52.1060   73.9030 C   0  0  0  0  0  0  0  0  0  0  0  0
    0.0210   63.9650   75.0790 C   0  0  0  0  0  0  0  0  0  0  0  0
   -1.1640   64.1480   76.0380 C   0  0  0  0  0  0  0  0  0  0  0  0
    1.2840   64.5400   75.7250 C   0  0  0  0  0  0  0  0  0  0  0  0
   -0.2590   64.7520   73.9130 O   0  0  0  0  0  0  0  0  0  0  0  0
    4.6150   61.5770   71.3850 O   0  0  0  0  0  0  0  0  0  0  0  0
   -3.0900   57.3340   77.5970 O   0  0  0  0  0  0  0  0  0  0  0  0
    3.3921   59.2586   70.9055 H   0  0  0  0  0  0  0  0  0  0  0  0
    1.5198   58.3558   72.2756 H   0  0  0  0  0  0  0  0  0  0  0  0
    1.4998   55.8787   73.5649 H   0  0  0  0  0  0  0  0  0  0  0  0
    1.6915   53.4714   73.4283 H   0  0  0  0  0  0  0  0  0  0  0  0
   -2.5918   54.8040   77.2305 H   0  0  0  0  0  0  0  0  0  0  0  0
   -1.7270   61.7633   75.3228 H   0  0  0  0  0  0  0  0  0  0  0  0
   -0.3459   61.6766   76.5570 H   0  0  0  0  0  0  0  0  0  0  0  0
   -0.1292   62.3546   73.6328 H   0  0  0  0  0  0  0  0  0  0  0  0
    3.5430   62.7500   73.4294 H   0  0  0  0  0  0  0  0  0  0  0  0
    0.7098   52.2793   76.8144 H   0  0  0  0  0  0  0  0  0  0  0  0
    0.6883   51.0122   75.5414 H   0  0  0  0  0  0  0  0  0  0  0  0
    1.9770   52.2637   75.5414 H   0  0  0  0  0  0  0  0  0  0  0  0
   -1.4197   51.4228   74.4730 H   0  0  0  0  0  0  0  0  0  0  0  0
   -1.3944   52.7560   73.2695 H   0  0  0  0  0  0  0  0  0  0  0  0
   -0.0899   51.5212   73.2695 H   0  0  0  0  0  0  0  0  0  0  0  0
   -0.8068   64.0928   77.0769 H   0  0  0  0  0  0  0  0  0  0  0  0
   -1.6300   65.1288   75.8621 H   0  0  0  0  0  0  0  0  0  0  0  0
   -1.9042   63.3535   75.8621 H   0  0  0  0  0  0  0  0  0  0  0  0
    1.1882   64.4964   76.8200 H   0  0  0  0  0  0  0  0  0  0  0  0
    2.1579   63.9510   75.4096 H   0  0  0  0  0  0  0  0  0  0  0  0
    1.4136   65.5858   75.4096 H   0  0  0  0  0  0  0  0  0  0  0  0
   -0.5778   65.6479   74.1883 H   0  0  0  0  0  0  0  0  0  0  0  0
    4.9996   62.4521   71.6428 H   0  0  0  0  0  0  0  0  0  0  0  0
   -3.2330   58.3092   77.6895 H   0  0  0  0  0  0  0  0  0  0  0  0
  2  1  2  0
  3  2  1  0
  4  3  2  0
  5  4  1  0
  6  5  1  0
  7  6  1  0
  8  7  2  0
  9  8  1  0
 10  9  2  0
 11 10  1  0
 12 11  1  0
 13 12  1  0
 13  8  1  0
 14 13  2  0
 15 14  1  0
 16 15  2  0
 16  7  1  0
 17 16  1  0
 18 17  2  0
 19 17  1  0
 19  5  2  0
 20 19  1  0
 21 20  1  0
 22 21  1  0
 23 22  1  0
 23  4  1  0
 24 23  2  0
 24  1  1  0
 25 11  1  0
 26 11  1  0
 27 21  1  0
 28 27  1  0
 29 27  1  0
 30 27  1  0
 31  1  1  0
 32 15  1  0
  2 33  1  0
  3 34  1  0
  9 35  1  0
 10 36  1  0
 14 37  1  0
 20 38  1  0
 20 39  1  0
 21 40  1  6
 24 41  1  0
 25 42  1  0
 25 43  1  0
 25 44  1  0
 26 45  1  0
 26 46  1  0
 26 47  1  0
 28 48  1  0
 28 49  1  0
 28 50  1  0
 29 51  1  0
 29 52  1  0
 29 53  1  0
 30 54  1  0
 31 55  1  0
 32 56  1  0
M  END
>  <score>  (8) 
-7.493

$$$$
=
     RDKit          3D

 56 60  0  0  0  0  0  0  0  0999 V2000
   -4.4850   60.7100   75.6550 C   0  0  0  0  0  0  0  0  0  0  0  0
   -3.9050   60.7820   74.3980 C   0  0  0  0  0  0  0  0  0  0  0  0
   -2.5980   60.3150   74.2180 C   0  0  0  0  0  0  0  0  0  0  0  0
   -1.8490   59.7610   75.2780 C   0  0  0  0  0  0  0  0  0  0  0  0
   -0.4230   59.3860   75.0380 C   0  0  0  0  0  0  0  0  0  0  0  0
    0.1060   60.0990   73.9700 O   0  0  0  0  0  0  0  0  0  0  0  0
    1.4310   59.9890   73.6370 C   0  0  0  0  0  0  0  0  0  0  0  0
    1.9040   60.8200   72.6010 C   0  0  0  0  0  0  0  0  0  0  0  0
    1.0380   61.7750   71.9170 C   0  0  0  0  0  0  0  0  0  0  0  0
    1.5570   62.5110   70.9310 C   0  0  0  0  0  0  0  0  0  0  0  0
    2.9960   62.4110   70.4860 C   0  0  0  0  0  0  0  0  0  0  0  0
    3.8140   61.4890   71.2330 O   0  0  0  0  0  0  0  0  0  0  0  0
    3.2450   60.7360   72.2200 C   0  0  0  0  0  0  0  0  0  0  0  0
    4.1040   59.8450   72.8610 C   0  0  0  0  0  0  0  0  0  0  0  0
    3.6280   59.0290   73.8870 C   0  0  0  0  0  0  0  0  0  0  0  0
    2.2830   59.0940   74.2790 C   0  0  0  0  0  0  0  0  0  0  0  0
    1.7140   58.2500   75.3490 C   0  0  0  0  0  0  0  0  0  0  0  0
    2.3600   57.3690   75.9040 O   0  0  0  0  0  0  0  0  0  0  0  0
    0.2900   58.4910   75.7490 C   0  0  0  0  0  0  0  0  0  0  0  0
   -0.1270   57.6500   76.9360 C   0  0  0  0  0  0  0  0  0  0  0  0
   -1.5990   57.7140   77.3470 C   0  0  2  0  0  0  0  0  0  0  0  0
   -1.9130   59.0950   77.6220 O   0  0  0  0  0  0  0  0  0  0  0  0
   -2.4930   59.6670   76.5220 C   0  0  0  0  0  0  0  0  0  0  0  0
   -3.7870   60.1610   76.7180 C   0  0  0  0  0  0  0  0  0  0  0  0
    3.6640   63.7840   70.6210 C   0  0  0  0  0  0  0  0  0  0  0  0
    3.0460   61.9530   69.0240 C   0  0  0  0  0  0  0  0  0  0  0  0
   -1.9140   56.9060   78.6450 C   0  0  0  0  0  0  0  0  0  0  0  0
   -1.6340   57.7520   79.8960 C   0  0  0  0  0  0  0  0  0  0  0  0
   -3.3620   56.4110   78.6880 C   0  0  0  0  0  0  0  0  0  0  0  0
   -1.0660   55.7520   78.7210 O   0  0  0  0  0  0  0  0  0  0  0  0
   -5.7500   61.1620   75.8840 O   0  0  0  0  0  0  0  0  0  0  0  0
    4.5020   58.1760   74.4960 O   0  0  0  0  0  0  0  0  0  0  0  0
   -4.4664   61.2020   73.5504 H   0  0  0  0  0  0  0  0  0  0  0  0
   -2.1406   60.3818   73.2198 H   0  0  0  0  0  0  0  0  0  0  0  0
   -0.0173   61.8859   72.2068 H   0  0  0  0  0  0  0  0  0  0  0  0
    0.9011   63.2282   70.4157 H   0  0  0  0  0  0  0  0  0  0  0  0
    5.1595   59.7853   72.5571 H   0  0  0  0  0  0  0  0  0  0  0  0
    0.1064   56.6016   76.6987 H   0  0  0  0  0  0  0  0  0  0  0  0
    0.4274   58.0654   77.7904 H   0  0  0  0  0  0  0  0  0  0  0  0
   -2.1901   57.2809   76.5266 H   0  0  0  0  0  0  0  0  0  0  0  0
   -4.2495   60.1135   77.7149 H   0  0  0  0  0  0  0  0  0  0  0  0
    3.7838   64.0303   71.6864 H   0  0  0  0  0  0  0  0  0  0  0  0
    4.6514   63.7606   70.1368 H   0  0  0  0  0  0  0  0  0  0  0  0
    3.0361   64.5464   70.1368 H   0  0  0  0  0  0  0  0  0  0  0  0
    3.1653   60.8601   68.9860 H   0  0  0  0  0  0  0  0  0  0  0  0
    2.1114   62.2376   68.5184 H   0  0  0  0  0  0  0  0  0  0  0  0
    3.8971   62.4326   68.5184 H   0  0  0  0  0  0  0  0  0  0  0  0
   -1.8326   57.1520   80.7963 H   0  0  0  0  0  0  0  0  0  0  0  0
   -0.5818   58.0727   79.8938 H   0  0  0  0  0  0  0  0  0  0  0  0
   -2.2871   58.6371   79.8938 H   0  0  0  0  0  0  0  0  0  0  0  0
   -3.6812   56.3019   79.7350 H   0  0  0  0  0  0  0  0  0  0  0  0
   -4.0131   57.1376   78.1800 H   0  0  0  0  0  0  0  0  0  0  0  0
   -3.4321   55.4379   78.1800 H   0  0  0  0  0  0  0  0  0  0  0  0
   -0.9002   55.5263   79.6706 H   0  0  0  0  0  0  0  0  0  0  0  0
   -6.1415   61.0992   76.7911 H   0  0  0  0  0  0  0  0  0  0  0  0
    4.1897   57.5860   75.2271 H   0  0  0  0  0  0  0  0  0  0  0  0
  2  1  2  0
  3  2  1  0
  4  3  2  0
  5  4  1  0
  6  5  1  0
  7  6  1  0
  8  7  2  0
  9  8  1  0
 10  9  2  0
 11 10  1  0
 12 11  1  0
 13 12  1  0
 13  8  1  0
 14 13  2  0
 15 14  1  0
 16 15  2  0
 16  7  1  0
 17 16  1  0
 18 17  2  0
 19 17  1  0
 19  5  2  0
 20 19  1  0
 21 20  1  0
 22 21  1  0
 23 22  1  0
 23  4  1  0
 24 23  2  0
 24  1  1  0
 25 11  1  0
 26 11  1  0
 27 21  1  0
 28 27  1  0
 29 27  1  0
 30 27  1  0
 31  1  1  0
 32 15  1  0
  2 33  1  0
  3 34  1  0
  9 35  1  0
 10 36  1  0
 14 37  1  0
 20 38  1  0
 20 39  1  0
 21 40  1  6
 24 41  1  0
 25 42  1  0
 25 43  1  0
 25 44  1  0
 26 45  1  0
 26 46  1  0
 26 47  1  0
 28 48  1  0
 28 49  1  0
 28 50  1  0
 29 51  1  0
 29 52  1  0
 29 53  1  0
 30 54  1  0
 31 55  1  0
 32 56  1  0
M  END
>  <score>  (9) 
-7.281

$$$$
