=
     RDKit          3D

 62 64  0  0  0  0  0  0  0  0999 V2000
    1.5350   66.2700   69.1390 N   0  0  0  0  0  4  0  0  0  0  0  0
    1.0190   65.4090   70.2610 C   0  0  1  0  0  0  0  0  0  0  0  0
   -0.2990   64.7510   69.8840 C   0  0  0  0  0  0  0  0  0  0  0  0
    2.0600   64.2920   70.5230 C   0  0  0  0  0  0  0  0  0  0  0  0
    3.2090   64.5790   70.8580 O   0  0  0  0  0  0  0  0  0  0  0  0
    1.5500   62.9980   70.4210 N   0  0  0  0  0  0  0  0  0  0  0  0
    2.2750   61.9990   69.6230 C   0  0  1  0  0  0  0  0  0  0  0  0
    3.5430   62.4030   68.8610 C   0  0  0  0  0  0  0  0  0  0  0  0
    4.6970   61.9350   69.7390 C   0  0  0  0  0  0  0  0  0  0  0  0
    4.1870   60.6250   70.3250 C   0  0  0  0  0  0  0  0  0  0  0  0
    2.7060   60.8760   70.5900 C   0  0  1  0  0  0  0  0  0  0  0  0
    2.4060   61.4320   71.9800 C   0  0  0  0  0  0  0  0  0  0  0  0
    1.2140   62.3460   71.7290 C   0  0  1  0  0  0  0  0  0  0  0  0
    0.8400   63.2410   72.9420 C   0  0  0  0  0  0  0  0  0  0  0  0
   -0.3380   63.6620   73.0210 O   0  0  0  0  0  0  0  0  0  0  0  0
    1.7780   63.4020   73.7930 O   0  0  0  0  0  1  0  0  0  0  0  0
    0.9640   67.5860   68.7270 C   0  0  2  0  0  0  0  0  0  0  0  0
    0.3200   67.5930   67.3360 C   0  0  0  0  0  0  0  0  0  0  0  0
    0.6400   66.8440   66.4210 O   0  0  0  0  0  0  0  0  0  0  0  0
   -0.6120   68.5840   67.2490 O   0  0  0  0  0  0  0  0  0  0  0  0
   -2.5820   67.1930   67.4790 C   0  0  0  0  0  0  0  0  0  0  0  0
   -1.8590   68.2240   66.6340 C   0  0  0  0  0  0  0  0  0  0  0  0
    1.9980   68.7170   68.8230 C   0  0  0  0  0  0  0  0  0  0  0  0
    2.5150   69.2600   67.4850 C   0  0  0  0  0  0  0  0  0  0  0  0
    3.9140   69.8130   67.5670 C   0  0  0  0  0  0  0  0  0  0  0  0
    4.7910   69.6990   66.4790 C   0  0  0  0  0  0  0  0  0  0  0  0
    6.1010   70.1720   66.5770 C   0  0  0  0  0  0  0  0  0  0  0  0
    6.5430   70.7730   67.7520 C   0  0  0  0  0  0  0  0  0  0  0  0
    5.6740   70.9090   68.8320 C   0  0  0  0  0  0  0  0  0  0  0  0
    4.3650   70.4330   68.7410 C   0  0  0  0  0  0  0  0  0  0  0  0
    2.5199   66.4609   69.3723 H   0  0  0  0  0  0  0  0  0  0  0  0
    1.2662   65.6935   68.3289 H   0  0  0  0  0  0  0  0  0  0  0  0
    0.8594   66.0367   71.1501 H   0  0  0  0  0  0  0  0  0  0  0  0
   -0.8469   64.4775   70.7978 H   0  0  0  0  0  0  0  0  0  0  0  0
   -0.9030   65.4533   69.2907 H   0  0  0  0  0  0  0  0  0  0  0  0
   -0.1006   63.8462   69.2907 H   0  0  0  0  0  0  0  0  0  0  0  0
    1.5541   61.7455   68.8318 H   0  0  0  0  0  0  0  0  0  0  0  0
    3.5785   61.9077   67.8795 H   0  0  0  0  0  0  0  0  0  0  0  0
    3.5825   63.4854   68.6693 H   0  0  0  0  0  0  0  0  0  0  0  0
    5.6053   61.7712   69.1406 H   0  0  0  0  0  0  0  0  0  0  0  0
    4.9759   62.6697   70.5087 H   0  0  0  0  0  0  0  0  0  0  0  0
    4.3196   59.8009   69.6086 H   0  0  0  0  0  0  0  0  0  0  0  0
    4.7314   60.3341   71.2355 H   0  0  0  0  0  0  0  0  0  0  0  0
    2.1906   59.9110   70.4754 H   0  0  0  0  0  0  0  0  0  0  0  0
    2.1459   60.6256   72.6815 H   0  0  0  0  0  0  0  0  0  0  0  0
    3.2629   61.9498   72.4357 H   0  0  0  0  0  0  0  0  0  0  0  0
    0.2481   61.8279   71.6362 H   0  0  0  0  0  0  0  0  0  0  0  0
    0.1551   67.7648   69.4507 H   0  0  0  0  0  0  0  0  0  0  0  0
   -2.4250   67.4169   68.5445 H   0  0  0  0  0  0  0  0  0  0  0  0
   -3.6581   67.2228   67.2527 H   0  0  0  0  0  0  0  0  0  0  0  0
   -2.1874   66.1915   67.2527 H   0  0  0  0  0  0  0  0  0  0  0  0
   -1.6640   67.8038   65.6363 H   0  0  0  0  0  0  0  0  0  0  0  0
   -2.4885   69.1219   66.5472 H   0  0  0  0  0  0  0  0  0  0  0  0
    1.5362   69.5516   69.3708 H   0  0  0  0  0  0  0  0  0  0  0  0
    2.8727   68.2818   69.3284 H   0  0  0  0  0  0  0  0  0  0  0  0
    2.5053   68.4424   66.7492 H   0  0  0  0  0  0  0  0  0  0  0  0
    1.8536   70.0888   67.1923 H   0  0  0  0  0  0  0  0  0  0  0  0
    4.4453   69.2347   65.5437 H   0  0  0  0  0  0  0  0  0  0  0  0
    6.7861   70.0693   65.7226 H   0  0  0  0  0  0  0  0  0  0  0  0
    7.5772   71.1401   67.8276 H   0  0  0  0  0  0  0  0  0  0  0  0
    6.0197   71.3921   69.7578 H   0  0  0  0  0  0  0  0  0  0  0  0
    3.6824   70.5451   69.5963 H   0  0  0  0  0  0  0  0  0  0  0  0
  2  1  1  0
  3  2  1  0
  4  2  1  0
  5  4  2  0
  6  4  1  0
  7  6  1  0
  8  7  1  0
  9  8  1  0
 10  9  1  0
 11 10  1  0
 11  7  1  0
 12 11  1  0
 13  6  1  0
 13 12  1  0
 14 13  1  0
 15 14  2  0
 16 14  1  0
 17  1  1  0
 18 17  1  0
 19 18  2  0
 20 18  1  0
 22 21  1  0
 22 20  1  0
 23 17  1  0
 24 23  1  0
 25 24  1  0
 26 25  2  0
 27 26  1  0
 28 27  2  0
 29 28  1  0
 30 25  1  0
 30 29  2  0
  1 31  1  0
  1 32  1  0
  2 33  1  1
  3 34  1  0
  3 35  1  0
  3 36  1  0
  7 37  1  6
  8 38  1  0
  8 39  1  0
  9 40  1  0
  9 41  1  0
 10 42  1  0
 10 43  1  0
 11 44  1  6
 12 45  1  0
 12 46  1  0
 13 47  1  6
 17 48  1  1
 21 49  1  0
 21 50  1  0
 21 51  1  0
 22 52  1  0
 22 53  1  0
 23 54  1  0
 23 55  1  0
 24 56  1  0
 24 57  1  0
 26 58  1  0
 27 59  1  0
 28 60  1  0
 29 61  1  0
 30 62  1  0
M  CHG  2   1   1  16  -1
M  END
>  <score>  (1) 
-9.61

$$$$
=
     RDKit          3D

 62 64  0  0  0  0  0  0  0  0999 V2000
    0.1510   65.5420   69.5000 N   0  0  0  0  0  4  0  0  0  0  0  0
    0.5970   65.3000   70.9170 C   0  0  1  0  0  0  0  0  0  0  0  0
   -0.2650   66.0720   71.9030 C   0  0  0  0  0  0  0  0  0  0  0  0
    0.4380   63.7880   71.2160 C   0  0  0  0  0  0  0  0  0  0  0  0
   -0.4590   63.1390   70.6790 O   0  0  0  0  0  0  0  0  0  0  0  0
    1.4230   63.2630   72.0520 N   0  0  0  0  0  0  0  0  0  0  0  0
    1.0270   62.4320   73.1980 C   0  0  1  0  0  0  0  0  0  0  0  0
   -0.4600   62.2060   73.5010 C   0  0  0  0  0  0  0  0  0  0  0  0
   -0.7750   60.8310   72.9220 C   0  0  0  0  0  0  0  0  0  0  0  0
    0.4930   60.0340   73.1940 C   0  0  0  0  0  0  0  0  0  0  0  0
    1.6270   61.0290   72.9670 C   0  0  1  0  0  0  0  0  0  0  0  0
    2.1460   61.0670   71.5320 C   0  0  0  0  0  0  0  0  0  0  0  0
    2.5250   62.5300   71.3480 C   0  0  1  0  0  0  0  0  0  0  0  0
    2.8670   62.9130   69.8820 C   0  0  0  0  0  0  0  0  0  0  0  0
    3.7400   63.7920   69.6910 O   0  0  0  0  0  0  0  0  0  0  0  0
    2.2560   62.2240   68.9960 O   0  0  0  0  0  1  0  0  0  0  0  0
    0.0710   66.8770   68.8360 C   0  0  2  0  0  0  0  0  0  0  0  0
   -0.7550   66.8960   67.5450 C   0  0  0  0  0  0  0  0  0  0  0  0
   -0.3140   66.6210   66.4360 O   0  0  0  0  0  0  0  0  0  0  0  0
   -2.0260   67.3140   67.8020 O   0  0  0  0  0  0  0  0  0  0  0  0
   -1.8220   69.1700   66.2590 C   0  0  0  0  0  0  0  0  0  0  0  0
   -2.6860   68.0190   66.7380 C   0  0  0  0  0  0  0  0  0  0  0  0
    1.4620   67.4690   68.5680 C   0  0  0  0  0  0  0  0  0  0  0  0
    1.4930   68.9630   68.2210 C   0  0  0  0  0  0  0  0  0  0  0  0
    2.8290   69.4270   67.7020 C   0  0  0  0  0  0  0  0  0  0  0  0
    3.2180   69.1520   66.3840 C   0  0  0  0  0  0  0  0  0  0  0  0
    4.4760   69.5440   65.9230 C   0  0  0  0  0  0  0  0  0  0  0  0
    5.3500   70.2250   66.7660 C   0  0  0  0  0  0  0  0  0  0  0  0
    4.9660   70.5220   68.0720 C   0  0  0  0  0  0  0  0  0  0  0  0
    3.7120   70.1270   68.5390 C   0  0  0  0  0  0  0  0  0  0  0  0
    0.7878   64.9833   68.9141 H   0  0  0  0  0  0  0  0  0  0  0  0
   -0.8512   65.3198   69.5839 H   0  0  0  0  0  0  0  0  0  0  0  0
    1.6402   65.6318   71.0249 H   0  0  0  0  0  0  0  0  0  0  0  0
    0.0282   65.8095   72.9302 H   0  0  0  0  0  0  0  0  0  0  0  0
   -0.1242   67.1516   71.7461 H   0  0  0  0  0  0  0  0  0  0  0  0
   -1.3226   65.8135   71.7461 H   0  0  0  0  0  0  0  0  0  0  0  0
    1.3930   63.0100   74.0594 H   0  0  0  0  0  0  0  0  0  0  0  0
   -0.6400   62.2193   74.5861 H   0  0  0  0  0  0  0  0  0  0  0  0
   -1.0947   62.9928   73.0673 H   0  0  0  0  0  0  0  0  0  0  0  0
   -1.6402   60.3792   73.4293 H   0  0  0  0  0  0  0  0  0  0  0  0
   -1.0399   60.8651   71.8549 H   0  0  0  0  0  0  0  0  0  0  0  0
    0.5037   59.6621   74.2292 H   0  0  0  0  0  0  0  0  0  0  0  0
    0.5775   59.1492   72.5459 H   0  0  0  0  0  0  0  0  0  0  0  0
    2.4508   60.7359   73.6344 H   0  0  0  0  0  0  0  0  0  0  0  0
    3.0218   60.4126   71.4101 H   0  0  0  0  0  0  0  0  0  0  0  0
    1.4116   60.7116   70.7941 H   0  0  0  0  0  0  0  0  0  0  0  0
    3.4894   62.8146   71.7941 H   0  0  0  0  0  0  0  0  0  0  0  0
   -0.4632   67.5069   69.5625 H   0  0  0  0  0  0  0  0  0  0  0  0
   -1.4165   69.7102   67.1272 H   0  0  0  0  0  0  0  0  0  0  0  0
   -0.9932   68.7781   65.6512 H   0  0  0  0  0  0  0  0  0  0  0  0
   -2.4297   69.8565   65.6512 H   0  0  0  0  0  0  0  0  0  0  0  0
   -3.6461   68.4125   67.1033 H   0  0  0  0  0  0  0  0  0  0  0  0
   -2.8587   67.3266   65.9009 H   0  0  0  0  0  0  0  0  0  0  0  0
    2.0729   67.3188   69.4703 H   0  0  0  0  0  0  0  0  0  0  0  0
    1.8443   66.9464   67.6787 H   0  0  0  0  0  0  0  0  0  0  0  0
    0.7323   69.1583   67.4508 H   0  0  0  0  0  0  0  0  0  0  0  0
    1.2942   69.5173   69.1501 H   0  0  0  0  0  0  0  0  0  0  0  0
    2.5282   68.6243   65.7090 H   0  0  0  0  0  0  0  0  0  0  0  0
    4.7777   69.3141   64.8905 H   0  0  0  0  0  0  0  0  0  0  0  0
    6.3425   70.5282   66.4014 H   0  0  0  0  0  0  0  0  0  0  0  0
    5.6523   71.0685   68.7356 H   0  0  0  0  0  0  0  0  0  0  0  0
    3.4132   70.3658   69.5704 H   0  0  0  0  0  0  0  0  0  0  0  0
  2  1  1  0
  3  2  1  0
  4  2  1  0
  5  4  2  0
  6  4  1  0
  7  6  1  0
  8  7  1  0
  9  8  1  0
 10  9  1  0
 11 10  1  0
 11  7  1  0
 12 11  1  0
 13  6  1  0
 13 12  1  0
 14 13  1  0
 15 14  2  0
 16 14  1  0
 17  1  1  0
 18 17  1  0
 19 18  2  0
 20 18  1  0
 22 21  1  0
 22 20  1  0
 23 17  1  0
 24 23  1  0
 25 24  1  0
 26 25  2  0
 27 26  1  0
 28 27  2  0
 29 28  1  0
 30 25  1  0
 30 29  2  0
  1 31  1  0
  1 32  1  0
  2 33  1  6
  3 34  1  0
  3 35  1  0
  3 36  1  0
  7 37  1  1
  8 38  1  0
  8 39  1  0
  9 40  1  0
  9 41  1  0
 10 42  1  0
 10 43  1  0
 11 44  1  1
 12 45  1  0
 12 46  1  0
 13 47  1  1
 17 48  1  1
 21 49  1  0
 21 50  1  0
 21 51  1  0
 22 52  1  0
 22 53  1  0
 23 54  1  0
 23 55  1  0
 24 56  1  0
 24 57  1  0
 26 58  1  0
 27 59  1  0
 28 60  1  0
 29 61  1  0
 30 62  1  0
M  CHG  2   1   1  16  -1
M  END
>  <score>  (2) 
-9.511

$$$$
=
     RDKit          3D

 62 64  0  0  0  0  0  0  0  0999 V2000
    1.1520   63.4540   70.3340 N   0  0  0  0  0  4  0  0  0  0  0  0
    2.4350   62.6740   70.2240 C   0  0  1  0  0  0  0  0  0  0  0  0
    3.6400   63.5610   70.4960 C   0  0  0  0  0  0  0  0  0  0  0  0
    2.4070   61.5550   71.2950 C   0  0  0  0  0  0  0  0  0  0  0  0
    1.3780   60.9100   71.4920 O   0  0  0  0  0  0  0  0  0  0  0  0
    3.6340   61.3240   71.9150 N   0  0  0  0  0  0  0  0  0  0  0  0
    3.6960   61.2410   73.3810 C   0  0  1  0  0  0  0  0  0  0  0  0
    2.4290   61.4720   74.2140 C   0  0  0  0  0  0  0  0  0  0  0  0
    1.9290   60.0770   74.5680 C   0  0  0  0  0  0  0  0  0  0  0  0
    3.2120   59.2870   74.7900 C   0  0  0  0  0  0  0  0  0  0  0  0
    4.1750   59.8160   73.7320 C   0  0  1  0  0  0  0  0  0  0  0  0
    4.1240   59.0590   72.4080 C   0  0  0  0  0  0  0  0  0  0  0  0
    4.4000   60.1500   71.3820 C   0  0  1  0  0  0  0  0  0  0  0  0
    4.1710   59.7060   69.9120 C   0  0  0  0  0  0  0  0  0  0  0  0
    4.5620   60.4700   68.9990 O   0  0  0  0  0  0  0  0  0  0  0  0
    3.6560   58.5450   69.7820 O   0  0  0  0  0  1  0  0  0  0  0  0
    0.8690   64.5110   71.3500 C   0  0  2  0  0  0  0  0  0  0  0  0
    0.0250   64.0390   72.5400 C   0  0  0  0  0  0  0  0  0  0  0  0
   -0.5740   62.9720   72.5840 O   0  0  0  0  0  0  0  0  0  0  0  0
   -0.0050   64.9970   73.5090 O   0  0  0  0  0  0  0  0  0  0  0  0
    1.1400   64.6070   75.6080 C   0  0  0  0  0  0  0  0  0  0  0  0
   -0.1750   64.5260   74.8550 C   0  0  0  0  0  0  0  0  0  0  0  0
    0.2240   65.7550   70.7210 C   0  0  0  0  0  0  0  0  0  0  0  0
    1.1200   66.5590   69.7710 C   0  0  0  0  0  0  0  0  0  0  0  0
    0.3690   67.1650   68.6140 C   0  0  0  0  0  0  0  0  0  0  0  0
   -0.9450   66.7690   68.3290 C   0  0  0  0  0  0  0  0  0  0  0  0
   -1.6200   67.3000   67.2290 C   0  0  0  0  0  0  0  0  0  0  0  0
   -0.9970   68.2400   66.4120 C   0  0  0  0  0  0  0  0  0  0  0  0
    0.3010   68.6560   66.6970 C   0  0  0  0  0  0  0  0  0  0  0  0
    0.9820   68.1240   67.7930 C   0  0  0  0  0  0  0  0  0  0  0  0
    1.0331   63.9145   69.4204 H   0  0  0  0  0  0  0  0  0  0  0  0
    0.5151   62.7128   70.6595 H   0  0  0  0  0  0  0  0  0  0  0  0
    2.5191   62.2651   69.2063 H   0  0  0  0  0  0  0  0  0  0  0  0
    3.7811   63.6649   71.5819 H   0  0  0  0  0  0  0  0  0  0  0  0
    4.5377   63.1065   70.0514 H   0  0  0  0  0  0  0  0  0  0  0  0
    3.4728   64.5532   70.0514 H   0  0  0  0  0  0  0  0  0  0  0  0
    4.3520   62.0827   73.6479 H   0  0  0  0  0  0  0  0  0  0  0  0
    2.6642   62.0411   75.1255 H   0  0  0  0  0  0  0  0  0  0  0  0
    1.6743   62.0540   73.6648 H   0  0  0  0  0  0  0  0  0  0  0  0
    1.3171   60.0985   75.4818 H   0  0  0  0  0  0  0  0  0  0  0  0
    1.2861   59.6412   73.7891 H   0  0  0  0  0  0  0  0  0  0  0  0
    3.6084   59.4655   75.8004 H   0  0  0  0  0  0  0  0  0  0  0  0
    3.0543   58.2016   74.7064 H   0  0  0  0  0  0  0  0  0  0  0  0
    5.1893   59.7326   74.1495 H   0  0  0  0  0  0  0  0  0  0  0  0
    4.8953   58.2756   72.3700 H   0  0  0  0  0  0  0  0  0  0  0  0
    3.1697   58.5377   72.2420 H   0  0  0  0  0  0  0  0  0  0  0  0
    5.4594   60.4271   71.2781 H   0  0  0  0  0  0  0  0  0  0  0  0
    1.8604   64.7723   71.7485 H   0  0  0  0  0  0  0  0  0  0  0  0
    0.9441   64.5949   76.6903 H   0  0  0  0  0  0  0  0  0  0  0  0
    1.7698   63.7459   75.3397 H   0  0  0  0  0  0  0  0  0  0  0  0
    1.6593   65.5388   75.3397 H   0  0  0  0  0  0  0  0  0  0  0  0
   -0.5179   63.4810   74.8338 H   0  0  0  0  0  0  0  0  0  0  0  0
   -0.9198   65.1552   75.3643 H   0  0  0  0  0  0  0  0  0  0  0  0
   -0.6609   65.4277   70.1554 H   0  0  0  0  0  0  0  0  0  0  0  0
   -0.0071   66.4295   71.5586 H   0  0  0  0  0  0  0  0  0  0  0  0
    1.5953   67.3702   70.3421 H   0  0  0  0  0  0  0  0  0  0  0  0
    1.8584   65.8606   69.3503 H   0  0  0  0  0  0  0  0  0  0  0  0
   -1.4473   66.0351   68.9764 H   0  0  0  0  0  0  0  0  0  0  0  0
   -2.6471   66.9751   67.0067 H   0  0  0  0  0  0  0  0  0  0  0  0
   -1.5295   68.6533   65.5427 H   0  0  0  0  0  0  0  0  0  0  0  0
    0.7904   69.4051   66.0573 H   0  0  0  0  0  0  0  0  0  0  0  0
    2.0061   68.4587   68.0148 H   0  0  0  0  0  0  0  0  0  0  0  0
  2  1  1  0
  3  2  1  0
  4  2  1  0
  5  4  2  0
  6  4  1  0
  7  6  1  0
  8  7  1  0
  9  8  1  0
 10  9  1  0
 11 10  1  0
 11  7  1  0
 12 11  1  0
 13  6  1  0
 13 12  1  0
 14 13  1  0
 15 14  2  0
 16 14  1  0
 17  1  1  0
 18 17  1  0
 19 18  2  0
 20 18  1  0
 22 21  1  0
 22 20  1  0
 23 17  1  0
 24 23  1  0
 25 24  1  0
 26 25  2  0
 27 26  1  0
 28 27  2  0
 29 28  1  0
 30 25  1  0
 30 29  2  0
  1 31  1  0
  1 32  1  0
  2 33  1  6
  3 34  1  0
  3 35  1  0
  3 36  1  0
  7 37  1  1
  8 38  1  0
  8 39  1  0
  9 40  1  0
  9 41  1  0
 10 42  1  0
 10 43  1  0
 11 44  1  1
 12 45  1  0
 12 46  1  0
 13 47  1  6
 17 48  1  1
 21 49  1  0
 21 50  1  0
 21 51  1  0
 22 52  1  0
 22 53  1  0
 23 54  1  0
 23 55  1  0
 24 56  1  0
 24 57  1  0
 26 58  1  0
 27 59  1  0
 28 60  1  0
 29 61  1  0
 30 62  1  0
M  CHG  2   1   1  16  -1
M  END
>  <score>  (3) 
-8.971

$$$$
=
     RDKit          3D

 62 64  0  0  0  0  0  0  0  0999 V2000
    1.2370   67.2620   67.1350 N   0  0  0  0  0  4  0  0  0  0  0  0
    0.5040   67.5640   65.8550 C   0  0  1  0  0  0  0  0  0  0  0  0
    0.0350   69.0100   65.8200 C   0  0  0  0  0  0  0  0  0  0  0  0
    1.4880   67.3450   64.6780 C   0  0  0  0  0  0  0  0  0  0  0  0
    1.6300   66.2270   64.1860 O   0  0  0  0  0  0  0  0  0  0  0  0
    2.0970   68.5120   64.2170 N   0  0  0  0  0  0  0  0  0  0  0  0
    3.5520   68.5350   64.0190 C   0  0  1  0  0  0  0  0  0  0  0  0
    4.3930   67.3040   64.3810 C   0  0  0  0  0  0  0  0  0  0  0  0
    4.6390   66.5900   63.0570 C   0  0  0  0  0  0  0  0  0  0  0  0
    4.8090   67.7330   62.0650 C   0  0  0  0  0  0  0  0  0  0  0  0
    3.7990   68.7840   62.5160 C   0  0  1  0  0  0  0  0  0  0  0  0
    2.4220   68.6410   61.8740 C   0  0  0  0  0  0  0  0  0  0  0  0
    1.4820   69.0990   62.9810 C   0  0  1  0  0  0  0  0  0  0  0  0
   -0.0180   68.8300   62.6850 C   0  0  0  0  0  0  0  0  0  0  0  0
   -0.8140   69.7970   62.7540 O   0  0  0  0  0  0  0  0  0  0  0  0
   -0.2840   67.6340   62.3260 O   0  0  0  0  0  1  0  0  0  0  0  0
    1.3840   68.2000   68.2870 C   0  0  2  0  0  0  0  0  0  0  0  0
    2.5490   69.1870   68.1580 C   0  0  0  0  0  0  0  0  0  0  0  0
    3.1310   69.4390   67.1100 O   0  0  0  0  0  0  0  0  0  0  0  0
    2.8750   69.6980   69.3790 O   0  0  0  0  0  0  0  0  0  0  0  0
    5.1170   70.6040   69.5220 C   0  0  0  0  0  0  0  0  0  0  0  0
    3.6400   70.9140   69.3700 C   0  0  0  0  0  0  0  0  0  0  0  0
    1.4850   67.4540   69.6260 C   0  0  0  0  0  0  0  0  0  0  0  0
    0.4500   66.3440   69.8480 C   0  0  0  0  0  0  0  0  0  0  0  0
    0.9900   65.1740   70.6300 C   0  0  0  0  0  0  0  0  0  0  0  0
    0.2640   64.6370   71.7020 C   0  0  0  0  0  0  0  0  0  0  0  0
    0.7900   63.5840   72.4530 C   0  0  0  0  0  0  0  0  0  0  0  0
    2.0340   63.0490   72.1330 C   0  0  0  0  0  0  0  0  0  0  0  0
    2.7550   63.5610   71.0570 C   0  0  0  0  0  0  0  0  0  0  0  0
    2.2360   64.6180   70.3070 C   0  0  0  0  0  0  0  0  0  0  0  0
    0.7784   66.4246   67.5214 H   0  0  0  0  0  0  0  0  0  0  0  0
    2.2072   67.2435   66.7897 H   0  0  0  0  0  0  0  0  0  0  0  0
   -0.3746   66.9061   65.7820 H   0  0  0  0  0  0  0  0  0  0  0  0
   -0.0855   69.3814   66.8484 H   0  0  0  0  0  0  0  0  0  0  0  0
    0.7799   69.6244   65.2932 H   0  0  0  0  0  0  0  0  0  0  0  0
   -0.9287   69.0702   65.2932 H   0  0  0  0  0  0  0  0  0  0  0  0
    3.8843   69.3074   64.7283 H   0  0  0  0  0  0  0  0  0  0  0  0
    5.3458   67.6080   64.8390 H   0  0  0  0  0  0  0  0  0  0  0  0
    3.8846   66.6568   65.1108 H   0  0  0  0  0  0  0  0  0  0  0  0
    5.5482   65.9728   63.1058 H   0  0  0  0  0  0  0  0  0  0  0  0
    3.8260   65.9015   62.7832 H   0  0  0  0  0  0  0  0  0  0  0  0
    5.8323   68.1344   62.1060 H   0  0  0  0  0  0  0  0  0  0  0  0
    4.6435   67.4128   61.0257 H   0  0  0  0  0  0  0  0  0  0  0  0
    4.2157   69.7661   62.2480 H   0  0  0  0  0  0  0  0  0  0  0  0
    2.3306   69.2837   60.9860 H   0  0  0  0  0  0  0  0  0  0  0  0
    2.2116   67.6212   61.5194 H   0  0  0  0  0  0  0  0  0  0  0  0
    1.4051   70.1899   63.0992 H   0  0  0  0  0  0  0  0  0  0  0  0
    0.4601   68.7967   68.2669 H   0  0  0  0  0  0  0  0  0  0  0  0
    5.3723   70.5504   70.5906 H   0  0  0  0  0  0  0  0  0  0  0  0
    5.3404   69.6394   69.0428 H   0  0  0  0  0  0  0  0  0  0  0  0
    5.7094   71.3974   69.0428 H   0  0  0  0  0  0  0  0  0  0  0  0
    3.3152   71.5539   70.2037 H   0  0  0  0  0  0  0  0  0  0  0  0
    3.4784   71.4330   68.4137 H   0  0  0  0  0  0  0  0  0  0  0  0
    2.4853   67.0004   69.6857 H   0  0  0  0  0  0  0  0  0  0  0  0
    1.2897   68.2065   70.4042 H   0  0  0  0  0  0  0  0  0  0  0  0
   -0.4037   66.7673   70.3976 H   0  0  0  0  0  0  0  0  0  0  0  0
    0.1584   65.9670   68.8566 H   0  0  0  0  0  0  0  0  0  0  0  0
   -0.7253   65.0473   71.9529 H   0  0  0  0  0  0  0  0  0  0  0  0
    0.2192   63.1761   73.3002 H   0  0  0  0  0  0  0  0  0  0  0  0
    2.4476   62.2224   72.7293 H   0  0  0  0  0  0  0  0  0  0  0  0
    3.7343   63.1322   70.7979 H   0  0  0  0  0  0  0  0  0  0  0  0
    2.8085   65.0174   69.4569 H   0  0  0  0  0  0  0  0  0  0  0  0
  2  1  1  0
  3  2  1  0
  4  2  1  0
  5  4  2  0
  6  4  1  0
  7  6  1  0
  8  7  1  0
  9  8  1  0
 10  9  1  0
 11 10  1  0
 11  7  1  0
 12 11  1  0
 13  6  1  0
 13 12  1  0
 14 13  1  0
 15 14  2  0
 16 14  1  0
 17  1  1  0
 18 17  1  0
 19 18  2  0
 20 18  1  0
 22 21  1  0
 22 20  1  0
 23 17  1  0
 24 23  1  0
 25 24  1  0
 26 25  2  0
 27 26  1  0
 28 27  2  0
 29 28  1  0
 30 25  1  0
 30 29  2  0
  1 31  1  0
  1 32  1  0
  2 33  1  6
  3 34  1  0
  3 35  1  0
  3 36  1  0
  7 37  1  1
  8 38  1  0
  8 39  1  0
  9 40  1  0
  9 41  1  0
 10 42  1  0
 10 43  1  0
 11 44  1  1
 12 45  1  0
 12 46  1  0
 13 47  1  1
 17 48  1  1
 21 49  1  0
 21 50  1  0
 21 51  1  0
 22 52  1  0
 22 53  1  0
 23 54  1  0
 23 55  1  0
 24 56  1  0
 24 57  1  0
 26 58  1  0
 27 59  1  0
 28 60  1  0
 29 61  1  0
 30 62  1  0
M  CHG  2   1   1  16  -1
M  END
>  <score>  (4) 
-8.507

$$$$
=
     RDKit          3D

 62 64  0  0  0  0  0  0  0  0999 V2000
    1.8450   67.2270   67.4520 N   0  0  0  0  0  4  0  0  0  0  0  0
    2.0140   68.4230   66.5530 C   0  0  1  0  0  0  0  0  0  0  0  0
    3.0790   69.3660   67.0910 C   0  0  0  0  0  0  0  0  0  0  0  0
    2.4750   67.9140   65.1640 C   0  0  0  0  0  0  0  0  0  0  0  0
    2.5370   66.7070   64.9340 O   0  0  0  0  0  0  0  0  0  0  0  0
    2.7190   68.9250   64.2360 N   0  0  0  0  0  0  0  0  0  0  0  0
    3.9680   68.9070   63.4620 C   0  0  1  0  0  0  0  0  0  0  0  0
    5.0150   67.8180   63.7260 C   0  0  0  0  0  0  0  0  0  0  0  0
    4.8000   66.7870   62.6240 C   0  0  0  0  0  0  0  0  0  0  0  0
    4.4380   67.6350   61.4120 C   0  0  0  0  0  0  0  0  0  0  0  0
    3.5760   68.7590   61.9760 C   0  0  1  0  0  0  0  0  0  0  0  0
    2.0820   68.4450   62.0050 C   0  0  0  0  0  0  0  0  0  0  0  0
    1.6080   69.1670   63.2590 C   0  0  1  0  0  0  0  0  0  0  0  0
    0.1520   68.8210   63.6730 C   0  0  0  0  0  0  0  0  0  0  0  0
   -0.2970   69.3300   64.7270 O   0  0  0  0  0  0  0  0  0  0  0  0
   -0.4780   68.0880   62.8380 O   0  0  0  0  0  1  0  0  0  0  0  0
    0.5820   66.8420   68.1470 C   0  0  2  0  0  0  0  0  0  0  0  0
   -0.6420   67.6750   67.7500 C   0  0  0  0  0  0  0  0  0  0  0  0
   -0.8180   68.8440   68.0690 O   0  0  0  0  0  0  0  0  0  0  0  0
   -1.5240   66.9140   67.0420 O   0  0  0  0  0  0  0  0  0  0  0  0
   -3.2430   68.3380   66.1020 C   0  0  0  0  0  0  0  0  0  0  0  0
   -2.9070   67.2900   67.1460 C   0  0  0  0  0  0  0  0  0  0  0  0
    0.7390   66.8530   69.6750 C   0  0  0  0  0  0  0  0  0  0  0  0
    0.0450   65.7070   70.4220 C   0  0  0  0  0  0  0  0  0  0  0  0
    0.9580   64.5430   70.7080 C   0  0  0  0  0  0  0  0  0  0  0  0
    2.3360   64.6400   70.4710 C   0  0  0  0  0  0  0  0  0  0  0  0
    3.1700   63.5440   70.6930 C   0  0  0  0  0  0  0  0  0  0  0  0
    2.6410   62.3460   71.1680 C   0  0  0  0  0  0  0  0  0  0  0  0
    1.2770   62.2440   71.4270 C   0  0  0  0  0  0  0  0  0  0  0  0
    0.4380   63.3360   71.2000 C   0  0  0  0  0  0  0  0  0  0  0  0
    2.0978   66.4129   66.8739 H   0  0  0  0  0  0  0  0  0  0  0  0
    2.4139   67.5228   68.2581 H   0  0  0  0  0  0  0  0  0  0  0  0
    1.0588   68.9653   66.4943 H   0  0  0  0  0  0  0  0  0  0  0  0
    3.0611   69.3501   68.1907 H   0  0  0  0  0  0  0  0  0  0  0  0
    4.0685   69.0425   66.7357 H   0  0  0  0  0  0  0  0  0  0  0  0
    2.8777   70.3874   66.7357 H   0  0  0  0  0  0  0  0  0  0  0  0
    4.4627   69.8394   63.7717 H   0  0  0  0  0  0  0  0  0  0  0  0
    6.0306   68.2368   63.6705 H   0  0  0  0  0  0  0  0  0  0  0  0
    4.9094   67.3784   64.7288 H   0  0  0  0  0  0  0  0  0  0  0  0
    5.7183   66.2100   62.4404 H   0  0  0  0  0  0  0  0  0  0  0  0
    4.0274   66.0453   62.8750 H   0  0  0  0  0  0  0  0  0  0  0  0
    5.3434   68.0405   60.9368 H   0  0  0  0  0  0  0  0  0  0  0  0
    3.9149   67.0553   60.6372 H   0  0  0  0  0  0  0  0  0  0  0  0
    3.7417   69.6407   61.3394 H   0  0  0  0  0  0  0  0  0  0  0  0
    1.5779   68.8357   61.1088 H   0  0  0  0  0  0  0  0  0  0  0  0
    1.8644   67.3668   62.0156 H   0  0  0  0  0  0  0  0  0  0  0  0
    1.4632   70.2508   63.1393 H   0  0  0  0  0  0  0  0  0  0  0  0
    0.3912   65.8144   67.8039 H   0  0  0  0  0  0  0  0  0  0  0  0
   -3.5421   69.2710   66.6021 H   0  0  0  0  0  0  0  0  0  0  0  0
   -2.3600   68.5257   65.4734 H   0  0  0  0  0  0  0  0  0  0  0  0
   -4.0705   67.9773   65.4734 H   0  0  0  0  0  0  0  0  0  0  0  0
   -3.0978   67.7009   68.1484 H   0  0  0  0  0  0  0  0  0  0  0  0
   -3.5347   66.4021   66.9794 H   0  0  0  0  0  0  0  0  0  0  0  0
    1.8136   66.8048   69.9049 H   0  0  0  0  0  0  0  0  0  0  0  0
    0.2506   67.7761   70.0205 H   0  0  0  0  0  0  0  0  0  0  0  0
   -0.3371   66.0942   71.3781 H   0  0  0  0  0  0  0  0  0  0  0  0
   -0.7620   65.3364   69.7728 H   0  0  0  0  0  0  0  0  0  0  0  0
    2.7626   65.5865   70.1076 H   0  0  0  0  0  0  0  0  0  0  0  0
    4.2484   63.6260   70.4924 H   0  0  0  0  0  0  0  0  0  0  0  0
    3.3001   61.4819   71.3382 H   0  0  0  0  0  0  0  0  0  0  0  0
    0.8599   61.3014   71.8111 H   0  0  0  0  0  0  0  0  0  0  0  0
   -0.6387   63.2499   71.4083 H   0  0  0  0  0  0  0  0  0  0  0  0
  2  1  1  0
  3  2  1  0
  4  2  1  0
  5  4  2  0
  6  4  1  0
  7  6  1  0
  8  7  1  0
  9  8  1  0
 10  9  1  0
 11 10  1  0
 11  7  1  0
 12 11  1  0
 13  6  1  0
 13 12  1  0
 14 13  1  0
 15 14  2  0
 16 14  1  0
 17  1  1  0
 18 17  1  0
 19 18  2  0
 20 18  1  0
 22 21  1  0
 22 20  1  0
 23 17  1  0
 24 23  1  0
 25 24  1  0
 26 25  2  0
 27 26  1  0
 28 27  2  0
 29 28  1  0
 30 25  1  0
 30 29  2  0
  1 31  1  0
  1 32  1  0
  2 33  1  6
  3 34  1  0
  3 35  1  0
  3 36  1  0
  7 37  1  6
  8 38  1  0
  8 39  1  0
  9 40  1  0
  9 41  1  0
 10 42  1  0
 10 43  1  0
 11 44  1  6
 12 45  1  0
 12 46  1  0
 13 47  1  6
 17 48  1  6
 21 49  1  0
 21 50  1  0
 21 51  1  0
 22 52  1  0
 22 53  1  0
 23 54  1  0
 23 55  1  0
 24 56  1  0
 24 57  1  0
 26 58  1  0
 27 59  1  0
 28 60  1  0
 29 61  1  0
 30 62  1  0
M  CHG  2   1   1  16  -1
M  END
>  <score>  (5) 
-8.322

$$$$
=
     RDKit          3D

 62 64  0  0  0  0  0  0  0  0999 V2000
    1.8790   63.4910   72.0940 N   0  0  0  0  0  4  0  0  0  0  0  0
    0.8510   62.8630   72.9970 C   0  0  1  0  0  0  0  0  0  0  0  0
   -0.4130   62.5130   72.2280 C   0  0  0  0  0  0  0  0  0  0  0  0
    1.4510   61.5530   73.5660 C   0  0  0  0  0  0  0  0  0  0  0  0
    2.6440   61.4920   73.8580 O   0  0  0  0  0  0  0  0  0  0  0  0
    0.5180   60.5370   73.7710 N   0  0  0  0  0  0  0  0  0  0  0  0
    0.8040   59.1850   73.2720 C   0  0  1  0  0  0  0  0  0  0  0  0
    2.0890   58.9190   72.4790 C   0  0  0  0  0  0  0  0  0  0  0  0
    3.0550   58.3050   73.4860 C   0  0  0  0  0  0  0  0  0  0  0  0
    2.1540   57.4440   74.3610 C   0  0  0  0  0  0  0  0  0  0  0  0
    0.8700   58.2550   74.5020 C   0  0  1  0  0  0  0  0  0  0  0  0
    0.8610   59.2030   75.6990 C   0  0  0  0  0  0  0  0  0  0  0  0
    0.0490   60.3860   75.1870 C   0  0  1  0  0  0  0  0  0  0  0  0
    0.0770   61.6230   76.1260 C   0  0  0  0  0  0  0  0  0  0  0  0
    1.0780   61.7790   76.8640 O   0  0  0  0  0  0  0  0  0  0  0  0
   -0.9190   62.4120   75.9960 O   0  0  0  0  0  1  0  0  0  0  0  0
    1.7230   63.7020   70.6250 C   0  0  2  0  0  0  0  0  0  0  0  0
    2.6810   62.8750   69.7590 C   0  0  0  0  0  0  0  0  0  0  0  0
    3.1680   63.2600   68.7030 O   0  0  0  0  0  0  0  0  0  0  0  0
    2.8640   61.6390   70.3020 O   0  0  0  0  0  0  0  0  0  0  0  0
    5.0740   61.7150   71.2890 C   0  0  0  0  0  0  0  0  0  0  0  0
    4.1930   61.1030   70.2170 C   0  0  0  0  0  0  0  0  0  0  0  0
    1.8320   65.1850   70.2420 C   0  0  0  0  0  0  0  0  0  0  0  0
    0.5310   65.9930   70.3370 C   0  0  0  0  0  0  0  0  0  0  0  0
    0.2070   66.7500   69.0760 C   0  0  0  0  0  0  0  0  0  0  0  0
   -1.0430   66.6070   68.4570 C   0  0  0  0  0  0  0  0  0  0  0  0
   -1.3210   67.2750   67.2640 C   0  0  0  0  0  0  0  0  0  0  0  0
   -0.3630   68.1030   66.6850 C   0  0  0  0  0  0  0  0  0  0  0  0
    0.8760   68.2680   67.3010 C   0  0  0  0  0  0  0  0  0  0  0  0
    1.1600   67.5980   68.4910 C   0  0  0  0  0  0  0  0  0  0  0  0
    2.0529   64.4269   72.4874 H   0  0  0  0  0  0  0  0  0  0  0  0
    2.5989   62.7544   72.0971 H   0  0  0  0  0  0  0  0  0  0  0  0
    0.5930   63.5749   73.7949 H   0  0  0  0  0  0  0  0  0  0  0  0
   -1.2234   62.2886   72.9372 H   0  0  0  0  0  0  0  0  0  0  0  0
   -0.7047   63.3642   71.5952 H   0  0  0  0  0  0  0  0  0  0  0  0
   -0.2254   61.6330   71.5952 H   0  0  0  0  0  0  0  0  0  0  0  0
   -0.0028   59.0155   72.5438 H   0  0  0  0  0  0  0  0  0  0  0  0
    1.8954   58.2191   71.6528 H   0  0  0  0  0  0  0  0  0  0  0  0
    2.4924   59.8369   72.0266 H   0  0  0  0  0  0  0  0  0  0  0  0
    3.8142   57.6913   72.9791 H   0  0  0  0  0  0  0  0  0  0  0  0
    3.6151   59.0592   74.0582 H   0  0  0  0  0  0  0  0  0  0  0  0
    1.9518   56.4768   73.8776 H   0  0  0  0  0  0  0  0  0  0  0  0
    2.6123   57.2139   75.3342 H   0  0  0  0  0  0  0  0  0  0  0  0
    0.0451   57.5357   74.6117 H   0  0  0  0  0  0  0  0  0  0  0  0
    0.3765   58.7371   76.5697 H   0  0  0  0  0  0  0  0  0  0  0  0
    1.8686   59.4820   76.0410 H   0  0  0  0  0  0  0  0  0  0  0  0
   -1.0404   60.2339   75.1919 H   0  0  0  0  0  0  0  0  0  0  0  0
    0.7070   63.3400   70.4088 H   0  0  0  0  0  0  0  0  0  0  0  0
    4.6849   61.4447   72.2818 H   0  0  0  0  0  0  0  0  0  0  0  0
    6.1005   61.3345   71.1814 H   0  0  0  0  0  0  0  0  0  0  0  0
    5.0756   62.8097   71.1814 H   0  0  0  0  0  0  0  0  0  0  0  0
    4.6141   61.3310   69.2267 H   0  0  0  0  0  0  0  0  0  0  0  0
    4.1510   60.0139   70.3655 H   0  0  0  0  0  0  0  0  0  0  0  0
    2.5704   65.6533   70.9095 H   0  0  0  0  0  0  0  0  0  0  0  0
    2.1184   65.2006   69.1800 H   0  0  0  0  0  0  0  0  0  0  0  0
   -0.2959   65.2997   70.5503 H   0  0  0  0  0  0  0  0  0  0  0  0
    0.6660   66.7354   71.1373 H   0  0  0  0  0  0  0  0  0  0  0  0
   -1.8093   65.9641   68.9148 H   0  0  0  0  0  0  0  0  0  0  0  0
   -2.3002   67.1471   66.7793 H   0  0  0  0  0  0  0  0  0  0  0  0
   -0.5838   68.6260   65.7428 H   0  0  0  0  0  0  0  0  0  0  0  0
    1.6311   68.9275   66.8482 H   0  0  0  0  0  0  0  0  0  0  0  0
    2.1384   67.7354   68.9746 H   0  0  0  0  0  0  0  0  0  0  0  0
  2  1  1  0
  3  2  1  0
  4  2  1  0
  5  4  2  0
  6  4  1  0
  7  6  1  0
  8  7  1  0
  9  8  1  0
 10  9  1  0
 11 10  1  0
 11  7  1  0
 12 11  1  0
 13  6  1  0
 13 12  1  0
 14 13  1  0
 15 14  2  0
 16 14  1  0
 17  1  1  0
 18 17  1  0
 19 18  2  0
 20 18  1  0
 22 21  1  0
 22 20  1  0
 23 17  1  0
 24 23  1  0
 25 24  1  0
 26 25  2  0
 27 26  1  0
 28 27  2  0
 29 28  1  0
 30 25  1  0
 30 29  2  0
  1 31  1  0
  1 32  1  0
  2 33  1  1
  3 34  1  0
  3 35  1  0
  3 36  1  0
  7 37  1  6
  8 38  1  0
  8 39  1  0
  9 40  1  0
  9 41  1  0
 10 42  1  0
 10 43  1  0
 11 44  1  1
 12 45  1  0
 12 46  1  0
 13 47  1  6
 17 48  1  6
 21 49  1  0
 21 50  1  0
 21 51  1  0
 22 52  1  0
 22 53  1  0
 23 54  1  0
 23 55  1  0
 24 56  1  0
 24 57  1  0
 26 58  1  0
 27 59  1  0
 28 60  1  0
 29 61  1  0
 30 62  1  0
M  CHG  2   1   1  16  -1
M  END
>  <score>  (6) 
-8.211

$$$$
=
     RDKit          3D

 62 64  0  0  0  0  0  0  0  0999 V2000
    3.6240   58.4570   73.6090 N   0  0  0  0  0  4  0  0  0  0  0  0
    2.2590   58.0090   73.1570 C   0  0  1  0  0  0  0  0  0  0  0  0
    2.3260   57.3440   71.7910 C   0  0  0  0  0  0  0  0  0  0  0  0
    1.7360   56.9670   74.1780 C   0  0  0  0  0  0  0  0  0  0  0  0
    2.2600   56.8670   75.2870 O   0  0  0  0  0  0  0  0  0  0  0  0
    0.6170   56.2550   73.7480 N   0  0  0  0  0  0  0  0  0  0  0  0
    0.6030   54.7910   73.8730 C   0  0  1  0  0  0  0  0  0  0  0  0
    1.8380   54.0580   74.4130 C   0  0  0  0  0  0  0  0  0  0  0  0
    1.5200   53.7740   75.8760 C   0  0  0  0  0  0  0  0  0  0  0  0
    0.0290   53.4650   75.8610 C   0  0  0  0  0  0  0  0  0  0  0  0
   -0.5510   54.4320   74.8330 C   0  0  1  0  0  0  0  0  0  0  0  0
   -0.9940   55.7710   75.4160 C   0  0  0  0  0  0  0  0  0  0  0  0
   -0.6910   56.7480   74.2880 C   0  0  1  0  0  0  0  0  0  0  0  0
   -0.8240   58.2410   74.6950 C   0  0  0  0  0  0  0  0  0  0  0  0
   -1.0190   59.0840   73.7880 O   0  0  0  0  0  0  0  0  0  0  0  0
   -0.7880   58.4540   75.9540 O   0  0  0  0  0  1  0  0  0  0  0  0
    3.9480   59.8000   74.1730 C   0  0  2  0  0  0  0  0  0  0  0  0
    2.7330   60.5910   74.6720 C   0  0  0  0  0  0  0  0  0  0  0  0
    2.0350   60.2620   75.6230 O   0  0  0  0  0  0  0  0  0  0  0  0
    2.5130   61.6740   73.8740 O   0  0  0  0  0  0  0  0  0  0  0  0
    0.8660   61.5370   72.1040 C   0  0  0  0  0  0  0  0  0  0  0  0
    1.1420   61.9420   73.5390 C   0  0  0  0  0  0  0  0  0  0  0  0
    4.7530   60.6590   73.1860 C   0  0  0  0  0  0  0  0  0  0  0  0
    4.8000   60.1440   71.7420 C   0  0  0  0  0  0  0  0  0  0  0  0
    4.3360   61.1610   70.7320 C   0  0  0  0  0  0  0  0  0  0  0  0
    3.4620   60.7950   69.6990 C   0  0  0  0  0  0  0  0  0  0  0  0
    3.0730   61.7300   68.7390 C   0  0  0  0  0  0  0  0  0  0  0  0
    3.5400   63.0400   68.8080 C   0  0  0  0  0  0  0  0  0  0  0  0
    4.3930   63.4200   69.8410 C   0  0  0  0  0  0  0  0  0  0  0  0
    4.7890   62.4870   70.8010 C   0  0  0  0  0  0  0  0  0  0  0  0
    3.9076   57.7811   74.3327 H   0  0  0  0  0  0  0  0  0  0  0  0
    4.1057   58.5194   72.7007 H   0  0  0  0  0  0  0  0  0  0  0  0
    1.5976   58.8855   73.0915 H   0  0  0  0  0  0  0  0  0  0  0  0
    2.4355   56.2568   71.9174 H   0  0  0  0  0  0  0  0  0  0  0  0
    1.4018   57.5571   71.2337 H   0  0  0  0  0  0  0  0  0  0  0  0
    3.1891   57.7371   71.2337 H   0  0  0  0  0  0  0  0  0  0  0  0
    0.5245   54.4549   72.8285 H   0  0  0  0  0  0  0  0  0  0  0  0
    2.0013   53.1191   73.8636 H   0  0  0  0  0  0  0  0  0  0  0  0
    2.7553   54.6540   74.2978 H   0  0  0  0  0  0  0  0  0  0  0  0
    2.0966   52.9125   76.2438 H   0  0  0  0  0  0  0  0  0  0  0  0
    1.7778   54.6112   76.5413 H   0  0  0  0  0  0  0  0  0  0  0  0
   -0.1491   52.4226   75.5581 H   0  0  0  0  0  0  0  0  0  0  0  0
   -0.4325   53.5821   76.8526 H   0  0  0  0  0  0  0  0  0  0  0  0
   -1.4229   53.9362   74.3814 H   0  0  0  0  0  0  0  0  0  0  0  0
   -2.0676   55.7630   75.6553 H   0  0  0  0  0  0  0  0  0  0  0  0
   -0.4870   56.0241   76.3588 H   0  0  0  0  0  0  0  0  0  0  0  0
   -1.4338   56.7598   73.4768 H   0  0  0  0  0  0  0  0  0  0  0  0
    4.5650   59.5776   75.0561 H   0  0  0  0  0  0  0  0  0  0  0  0
    0.2466   60.6281   72.0922 H   0  0  0  0  0  0  0  0  0  0  0  0
    0.3334   62.3504   71.5894 H   0  0  0  0  0  0  0  0  0  0  0  0
    1.8178   61.3388   71.5894 H   0  0  0  0  0  0  0  0  0  0  0  0
    0.9421   63.0171   73.6582 H   0  0  0  0  0  0  0  0  0  0  0  0
    0.4887   61.3627   74.2080 H   0  0  0  0  0  0  0  0  0  0  0  0
    4.3078   61.6648   73.1719 H   0  0  0  0  0  0  0  0  0  0  0  0
    5.7920   60.6365   73.5466 H   0  0  0  0  0  0  0  0  0  0  0  0
    5.8369   59.8639   71.5046 H   0  0  0  0  0  0  0  0  0  0  0  0
    4.1146   59.2859   71.6793 H   0  0  0  0  0  0  0  0  0  0  0  0
    3.0806   59.7647   69.6448 H   0  0  0  0  0  0  0  0  0  0  0  0
    2.3955   61.4314   67.9254 H   0  0  0  0  0  0  0  0  0  0  0  0
    3.2354   63.7739   68.0473 H   0  0  0  0  0  0  0  0  0  0  0  0
    4.7553   64.4569   69.9007 H   0  0  0  0  0  0  0  0  0  0  0  0
    5.4604   62.7934   71.6166 H   0  0  0  0  0  0  0  0  0  0  0  0
  2  1  1  0
  3  2  1  0
  4  2  1  0
  5  4  2  0
  6  4  1  0
  7  6  1  0
  8  7  1  0
  9  8  1  0
 10  9  1  0
 11 10  1  0
 11  7  1  0
 12 11  1  0
 13  6  1  0
 13 12  1  0
 14 13  1  0
 15 14  2  0
 16 14  1  0
 17  1  1  0
 18 17  1  0
 19 18  2  0
 20 18  1  0
 22 21  1  0
 22 20  1  0
 23 17  1  0
 24 23  1  0
 25 24  1  0
 26 25  2  0
 27 26  1  0
 28 27  2  0
 29 28  1  0
 30 25  1  0
 30 29  2  0
  1 31  1  0
  1 32  1  0
  2 33  1  6
  3 34  1  0
  3 35  1  0
  3 36  1  0
  7 37  1  6
  8 38  1  0
  8 39  1  0
  9 40  1  0
  9 41  1  0
 10 42  1  0
 10 43  1  0
 11 44  1  6
 12 45  1  0
 12 46  1  0
 13 47  1  6
 17 48  1  1
 21 49  1  0
 21 50  1  0
 21 51  1  0
 22 52  1  0
 22 53  1  0
 23 54  1  0
 23 55  1  0
 24 56  1  0
 24 57  1  0
 26 58  1  0
 27 59  1  0
 28 60  1  0
 29 61  1  0
 30 62  1  0
M  CHG  2   1   1  16  -1
M  END
>  <score>  (7) 
-8.106

$$$$
=
     RDKit          3D

 62 64  0  0  0  0  0  0  0  0999 V2000
    0.7810   60.4380   73.5180 N   0  0  0  0  0  4  0  0  0  0  0  0
    0.1000   59.5110   74.4900 C   0  0  1  0  0  0  0  0  0  0  0  0
   -1.3690   59.3340   74.1400 C   0  0  0  0  0  0  0  0  0  0  0  0
    0.7910   58.1270   74.3940 C   0  0  0  0  0  0  0  0  0  0  0  0
    1.1770   57.7000   73.3060 O   0  0  0  0  0  0  0  0  0  0  0  0
    0.9860   57.4980   75.6220 N   0  0  0  0  0  0  0  0  0  0  0  0
    0.5930   56.0900   75.7810 C   0  0  1  0  0  0  0  0  0  0  0  0
   -0.0830   55.3500   74.6200 C   0  0  0  0  0  0  0  0  0  0  0  0
    1.0300   54.5380   73.9690 C   0  0  0  0  0  0  0  0  0  0  0  0
    1.8850   54.0980   75.1500 C   0  0  0  0  0  0  0  0  0  0  0  0
    1.8790   55.2960   76.0930 C   0  0  1  0  0  0  0  0  0  0  0  0
    3.0120   56.2900   75.8460 C   0  0  0  0  0  0  0  0  0  0  0  0
    2.3690   57.6280   76.1870 C   0  0  1  0  0  0  0  0  0  0  0  0
    3.2300   58.8590   75.7940 C   0  0  0  0  0  0  0  0  0  0  0  0
    4.0820   58.7150   74.8850 O   0  0  0  0  0  0  0  0  0  0  0  0
    2.9270   59.9370   76.4070 O   0  0  0  0  0  1  0  0  0  0  0  0
    0.8780   61.9200   73.6630 C   0  0  2  0  0  0  0  0  0  0  0  0
    0.0320   62.7140   72.6610 C   0  0  0  0  0  0  0  0  0  0  0  0
   -1.0590   62.3520   72.2360 O   0  0  0  0  0  0  0  0  0  0  0  0
    0.6900   63.8420   72.2730 O   0  0  0  0  0  0  0  0  0  0  0  0
    1.5290   65.1990   70.4500 C   0  0  0  0  0  0  0  0  0  0  0  0
    0.3990   64.3190   70.9500 C   0  0  0  0  0  0  0  0  0  0  0  0
    2.3330   62.4090   73.6100 C   0  0  0  0  0  0  0  0  0  0  0  0
    3.3090   61.5100   72.8410 C   0  0  0  0  0  0  0  0  0  0  0  0
    3.5120   61.9380   71.4110 C   0  0  0  0  0  0  0  0  0  0  0  0
    4.5200   62.8530   71.0750 C   0  0  0  0  0  0  0  0  0  0  0  0
    4.6740   63.2810   69.7560 C   0  0  0  0  0  0  0  0  0  0  0  0
    3.8350   62.7920   68.7580 C   0  0  0  0  0  0  0  0  0  0  0  0
    2.8430   61.8670   69.0760 C   0  0  0  0  0  0  0  0  0  0  0  0
    2.6820   61.4400   70.3950 C   0  0  0  0  0  0  0  0  0  0  0  0
    1.7539   60.1051   73.4589 H   0  0  0  0  0  0  0  0  0  0  0  0
    0.1323   60.3748   72.7205 H   0  0  0  0  0  0  0  0  0  0  0  0
    0.1735   59.9360   75.5019 H   0  0  0  0  0  0  0  0  0  0  0  0
   -1.9603   59.2628   75.0648 H   0  0  0  0  0  0  0  0  0  0  0  0
   -1.7122   60.1973   73.5510 H   0  0  0  0  0  0  0  0  0  0  0  0
   -1.4973   58.4139   73.5510 H   0  0  0  0  0  0  0  0  0  0  0  0
   -0.1823   56.1363   76.5599 H   0  0  0  0  0  0  0  0  0  0  0  0
   -0.8772   54.6872   74.9941 H   0  0  0  0  0  0  0  0  0  0  0  0
   -0.5592   56.0422   73.9100 H   0  0  0  0  0  0  0  0  0  0  0  0
    0.6210   53.6683   73.4338 H   0  0  0  0  0  0  0  0  0  0  0  0
    1.5961   55.1102   73.2193 H   0  0  0  0  0  0  0  0  0  0  0  0
    1.4472   53.2156   75.6396 H   0  0  0  0  0  0  0  0  0  0  0  0
    2.9022   53.8103   74.8458 H   0  0  0  0  0  0  0  0  0  0  0  0
    1.9701   54.9009   77.1156 H   0  0  0  0  0  0  0  0  0  0  0  0
    3.8698   56.0840   76.5030 H   0  0  0  0  0  0  0  0  0  0  0  0
    3.4121   56.2480   74.8222 H   0  0  0  0  0  0  0  0  0  0  0  0
    2.3004   57.8453   77.2631 H   0  0  0  0  0  0  0  0  0  0  0  0
    0.4584   62.1191   74.6601 H   0  0  0  0  0  0  0  0  0  0  0  0
    2.0718   65.6217   71.3083 H   0  0  0  0  0  0  0  0  0  0  0  0
    2.2191   64.5981   69.8396 H   0  0  0  0  0  0  0  0  0  0  0  0
    1.1154   66.0153   69.8396 H   0  0  0  0  0  0  0  0  0  0  0  0
   -0.5336   64.9020   70.9709 H   0  0  0  0  0  0  0  0  0  0  0  0
    0.2886   63.4581   70.2743 H   0  0  0  0  0  0  0  0  0  0  0  0
    2.3393   63.4003   73.1332 H   0  0  0  0  0  0  0  0  0  0  0  0
    2.6862   62.4129   74.6517 H   0  0  0  0  0  0  0  0  0  0  0  0
    4.2820   61.5320   73.3536 H   0  0  0  0  0  0  0  0  0  0  0  0
    2.8745   60.4997   72.8204 H   0  0  0  0  0  0  0  0  0  0  0  0
    5.1934   63.2357   71.8561 H   0  0  0  0  0  0  0  0  0  0  0  0
    5.4608   64.0071   69.5036 H   0  0  0  0  0  0  0  0  0  0  0  0
    3.9553   63.1356   67.7200 H   0  0  0  0  0  0  0  0  0  0  0  0
    2.1860   61.4728   68.2868 H   0  0  0  0  0  0  0  0  0  0  0  0
    1.8986   60.7076   70.6399 H   0  0  0  0  0  0  0  0  0  0  0  0
  2  1  1  0
  3  2  1  0
  4  2  1  0
  5  4  2  0
  6  4  1  0
  7  6  1  0
  8  7  1  0
  9  8  1  0
 10  9  1  0
 11 10  1  0
 11  7  1  0
 12 11  1  0
 13  6  1  0
 13 12  1  0
 14 13  1  0
 15 14  2  0
 16 14  1  0
 17  1  1  0
 18 17  1  0
 19 18  2  0
 20 18  1  0
 22 21  1  0
 22 20  1  0
 23 17  1  0
 24 23  1  0
 25 24  1  0
 26 25  2  0
 27 26  1  0
 28 27  2  0
 29 28  1  0
 30 25  1  0
 30 29  2  0
  1 31  1  0
  1 32  1  0
  2 33  1  1
  3 34  1  0
  3 35  1  0
  3 36  1  0
  7 37  1  1
  8 38  1  0
  8 39  1  0
  9 40  1  0
  9 41  1  0
 10 42  1  0
 10 43  1  0
 11 44  1  1
 12 45  1  0
 12 46  1  0
 13 47  1  1
 17 48  1  1
 21 49  1  0
 21 50  1  0
 21 51  1  0
 22 52  1  0
 22 53  1  0
 23 54  1  0
 23 55  1  0
 24 56  1  0
 24 57  1  0
 26 58  1  0
 27 59  1  0
 28 60  1  0
 29 61  1  0
 30 62  1  0
M  CHG  2   1   1  16  -1
M  END
>  <score>  (8) 
-7.986

$$$$
=
     RDKit          3D

 62 64  0  0  0  0  0  0  0  0999 V2000
    0.6700   62.0280   72.1390 N   0  0  0  0  0  4  0  0  0  0  0  0
    1.4690   60.9620   72.8420 C   0  0  1  0  0  0  0  0  0  0  0  0
    2.5930   61.5730   73.6640 C   0  0  0  0  0  0  0  0  0  0  0  0
    0.5160   60.2100   73.8060 C   0  0  0  0  0  0  0  0  0  0  0  0
   -0.6700   60.0600   73.5160 O   0  0  0  0  0  0  0  0  0  0  0  0
    1.1430   59.6850   74.9360 N   0  0  0  0  0  0  0  0  0  0  0  0
    0.5540   59.9220   76.2610 C   0  0  1  0  0  0  0  0  0  0  0  0
   -0.7010   60.7930   76.3960 C   0  0  0  0  0  0  0  0  0  0  0  0
   -1.8560   59.8060   76.5140 C   0  0  0  0  0  0  0  0  0  0  0  0
   -1.2660   58.6670   77.3340 C   0  0  0  0  0  0  0  0  0  0  0  0
    0.1700   58.5420   76.8360 C   0  0  1  0  0  0  0  0  0  0  0  0
    0.3420   57.5780   75.6650 C   0  0  0  0  0  0  0  0  0  0  0  0
    1.4620   58.2220   74.8580 C   0  0  1  0  0  0  0  0  0  0  0  0
    1.6890   57.5730   73.4650 C   0  0  0  0  0  0  0  0  0  0  0  0
    0.7720   56.8620   72.9910 O   0  0  0  0  0  0  0  0  0  0  0  0
    2.7880   57.8950   72.9020 O   0  0  0  0  0  1  0  0  0  0  0  0
    0.9940   63.4850   72.1330 C   0  0  2  0  0  0  0  0  0  0  0  0
    0.0350   64.3530   72.9580 C   0  0  0  0  0  0  0  0  0  0  0  0
   -0.3010   65.4920   72.6570 O   0  0  0  0  0  0  0  0  0  0  0  0
   -0.3400   63.6970   74.0920 O   0  0  0  0  0  0  0  0  0  0  0  0
    1.2140   64.4120   75.8070 C   0  0  0  0  0  0  0  0  0  0  0  0
   -0.2210   64.4380   75.3170 C   0  0  0  0  0  0  0  0  0  0  0  0
    1.0990   64.0450   70.7070 C   0  0  0  0  0  0  0  0  0  0  0  0
    2.5240   64.2600   70.1810 C   0  0  0  0  0  0  0  0  0  0  0  0
    3.3740   63.0180   70.2370 C   0  0  0  0  0  0  0  0  0  0  0  0
    3.0080   61.8690   69.5220 C   0  0  0  0  0  0  0  0  0  0  0  0
    3.7750   60.7060   69.6140 C   0  0  0  0  0  0  0  0  0  0  0  0
    4.9180   60.6820   70.4080 C   0  0  0  0  0  0  0  0  0  0  0  0
    5.3020   61.8240   71.1080 C   0  0  0  0  0  0  0  0  0  0  0  0
    4.5360   62.9870   71.0230 C   0  0  0  0  0  0  0  0  0  0  0  0
    0.6528   61.7478   71.1480 H   0  0  0  0  0  0  0  0  0  0  0  0
   -0.1804   62.0322   72.7202 H   0  0  0  0  0  0  0  0  0  0  0  0
    1.9072   60.2881   72.0911 H   0  0  0  0  0  0  0  0  0  0  0  0
    2.3715   61.4526   74.7347 H   0  0  0  0  0  0  0  0  0  0  0  0
    3.5392   61.0651   73.4259 H   0  0  0  0  0  0  0  0  0  0  0  0
    2.6813   62.6433   73.4259 H   0  0  0  0  0  0  0  0  0  0  0  0
    1.3369   60.4948   76.7796 H   0  0  0  0  0  0  0  0  0  0  0  0
   -0.6386   61.4242   77.2947 H   0  0  0  0  0  0  0  0  0  0  0  0
   -0.8252   61.4736   75.5408 H   0  0  0  0  0  0  0  0  0  0  0  0
   -2.7119   60.2622   77.0330 H   0  0  0  0  0  0  0  0  0  0  0  0
   -2.2406   59.4770   75.5373 H   0  0  0  0  0  0  0  0  0  0  0  0
   -1.2858   58.9094   78.4068 H   0  0  0  0  0  0  0  0  0  0  0  0
   -1.8320   57.7310   77.2178 H   0  0  0  0  0  0  0  0  0  0  0  0
    0.7740   58.1833   77.6825 H   0  0  0  0  0  0  0  0  0  0  0  0
    0.6319   56.5765   76.0158 H   0  0  0  0  0  0  0  0  0  0  0  0
   -0.5810   57.4281   75.0857 H   0  0  0  0  0  0  0  0  0  0  0  0
    2.4735   58.0515   75.2552 H   0  0  0  0  0  0  0  0  0  0  0  0
    1.9765   63.5430   72.6242 H   0  0  0  0  0  0  0  0  0  0  0  0
    1.2259   64.4118   76.9069 H   0  0  0  0  0  0  0  0  0  0  0  0
    1.7122   63.5047   75.4347 H   0  0  0  0  0  0  0  0  0  0  0  0
    1.7447   65.3007   75.4347 H   0  0  0  0  0  0  0  0  0  0  0  0
   -0.8735   63.9873   76.0793 H   0  0  0  0  0  0  0  0  0  0  0  0
   -0.5199   65.4811   75.1363 H   0  0  0  0  0  0  0  0  0  0  0  0
    0.5909   63.3428   70.0297 H   0  0  0  0  0  0  0  0  0  0  0  0
    0.6380   65.0431   70.7417 H   0  0  0  0  0  0  0  0  0  0  0  0
    2.4631   64.5944   69.1348 H   0  0  0  0  0  0  0  0  0  0  0  0
    3.0006   65.0101   70.8292 H   0  0  0  0  0  0  0  0  0  0  0  0
    2.1114   61.8838   68.8849 H   0  0  0  0  0  0  0  0  0  0  0  0
    3.4751   59.8059   69.0573 H   0  0  0  0  0  0  0  0  0  0  0  0
    5.5174   59.7627   70.4828 H   0  0  0  0  0  0  0  0  0  0  0  0
    6.2102   61.8086   71.7284 H   0  0  0  0  0  0  0  0  0  0  0  0
    4.8452   63.8861   71.5761 H   0  0  0  0  0  0  0  0  0  0  0  0
  2  1  1  0
  3  2  1  0
  4  2  1  0
  5  4  2  0
  6  4  1  0
  7  6  1  0
  8  7  1  0
  9  8  1  0
 10  9  1  0
 11 10  1  0
 11  7  1  0
 12 11  1  0
 13  6  1  0
 13 12  1  0
 14 13  1  0
 15 14  2  0
 16 14  1  0
 17  1  1  0
 18 17  1  0
 19 18  2  0
 20 18  1  0
 22 21  1  0
 22 20  1  0
 23 17  1  0
 24 23  1  0
 25 24  1  0
 26 25  2  0
 27 26  1  0
 28 27  2  0
 29 28  1  0
 30 25  1  0
 30 29  2  0
  1 31  1  0
  1 32  1  0
  2 33  1  6
  3 34  1  0
  3 35  1  0
  3 36  1  0
  7 37  1  1
  8 38  1  0
  8 39  1  0
  9 40  1  0
  9 41  1  0
 10 42  1  0
 10 43  1  0
 11 44  1  1
 12 45  1  0
 12 46  1  0
 13 47  1  1
 17 48  1  1
 21 49  1  0
 21 50  1  0
 21 51  1  0
 22 52  1  0
 22 53  1  0
 23 54  1  0
 23 55  1  0
 24 56  1  0
 24 57  1  0
 26 58  1  0
 27 59  1  0
 28 60  1  0
 29 61  1  0
 30 62  1  0
M  CHG  2   1   1  16  -1
M  END
>  <score>  (9) 
-7.799

$$$$
