=
     RDKit          3D

 33 35  0  0  0  0  0  0  0  0999 V2000
    1.8320   68.5030   64.3090 C   0  0  0  0  0  0  0  0  0  0  0  0
    2.9600   68.5920   63.5090 C   0  0  0  0  0  0  0  0  0  0  0  0
    4.1610   69.0560   64.0570 C   0  0  0  0  0  0  0  0  0  0  0  0
    4.2690   69.4410   65.3860 C   0  0  0  0  0  0  0  0  0  0  0  0
    3.1310   69.3780   66.2110 C   0  0  0  0  0  0  0  0  0  0  0  0
    1.9220   68.8930   65.6480 C   0  0  0  0  0  0  0  0  0  0  0  0
    3.2760   69.8140   67.5590 C   0  0  0  0  0  0  0  0  0  0  0  0
    4.5570   70.1460   68.0430 C   0  0  0  0  0  0  0  0  0  0  0  0
    5.6080   70.1860   67.1240 C   0  0  0  0  0  0  0  0  0  0  0  0
    5.4660   69.8510   65.8210 N   0  0  0  0  0  0  0  0  0  0  0  0
    7.0110   70.5510   67.5360 C   0  0  0  0  0  0  0  0  0  0  0  0
    7.0770   71.3020   68.8600 C   0  0  0  0  0  0  0  0  0  0  0  0
    6.2520   70.5670   69.9050 C   0  0  0  0  0  0  0  0  0  0  0  0
    4.7820   70.5210   69.4890 C   0  0  0  0  0  0  0  0  0  0  0  0
    2.1870   69.7250   68.4630 N   0  0  0  0  0  0  0  0  0  0  0  0
    0.0180   68.7000   62.7870 C   0  0  0  0  0  0  0  0  0  0  0  0
    0.5980   68.0650   63.9200 O   0  0  0  0  0  0  0  0  0  0  0  0
    2.9116   68.2997   62.4497 H   0  0  0  0  0  0  0  0  0  0  0  0
    5.0501   69.1177   63.4123 H   0  0  0  0  0  0  0  0  0  0  0  0
    1.0282   68.8218   66.2852 H   0  0  0  0  0  0  0  0  0  0  0  0
    7.5985   69.6258   67.6303 H   0  0  0  0  0  0  0  0  0  0  0  0
    7.4126   71.2216   66.7620 H   0  0  0  0  0  0  0  0  0  0  0  0
    8.1230   71.3619   69.1951 H   0  0  0  0  0  0  0  0  0  0  0  0
    6.6750   72.3169   68.7248 H   0  0  0  0  0  0  0  0  0  0  0  0
    6.6313   69.5397   70.0092 H   0  0  0  0  0  0  0  0  0  0  0  0
    6.3346   71.1000   70.8637 H   0  0  0  0  0  0  0  0  0  0  0  0
    4.3445   71.5158   69.6591 H   0  0  0  0  0  0  0  0  0  0  0  0
    4.3071   69.7359   70.0958 H   0  0  0  0  0  0  0  0  0  0  0  0
    2.2986   70.0421   69.4366 H   0  0  0  0  0  0  0  0  0  0  0  0
    1.2844   69.3432   68.1460 H   0  0  0  0  0  0  0  0  0  0  0  0
   -0.6886   69.4736   63.1220 H   0  0  0  0  0  0  0  0  0  0  0  0
    0.8102   69.1644   62.1814 H   0  0  0  0  0  0  0  0  0  0  0  0
   -0.5161   67.9530   62.1814 H   0  0  0  0  0  0  0  0  0  0  0  0
  2  1  2  0
  3  2  1  0
  4  3  2  0
  5  4  1  0
  6  1  1  0
  6  5  2  0
  7  5  1  0
  8  7  2  0
  9  8  1  0
 10  4  1  0
 10  9  2  0
 11  9  1  0
 12 11  1  0
 13 12  1  0
 14  8  1  0
 14 13  1  0
 15  7  1  0
 17 16  1  0
 17  1  1  0
  2 18  1  0
  3 19  1  0
  6 20  1  0
 11 21  1  0
 11 22  1  0
 12 23  1  0
 12 24  1  0
 13 25  1  0
 13 26  1  0
 14 27  1  0
 14 28  1  0
 15 29  1  0
 15 30  1  0
 16 31  1  0
 16 32  1  0
 16 33  1  0
M  END
>  <score>  (1) 
-9.89

$$$$
=
     RDKit          3D

 33 35  0  0  0  0  0  0  0  0999 V2000
    0.9180   68.3560   64.7270 C   0  0  0  0  0  0  0  0  0  0  0  0
    0.2420   68.4540   65.9340 C   0  0  0  0  0  0  0  0  0  0  0  0
    0.9210   68.9030   67.0710 C   0  0  0  0  0  0  0  0  0  0  0  0
    2.2640   69.2530   67.0420 C   0  0  0  0  0  0  0  0  0  0  0  0
    2.9750   69.1410   65.8320 C   0  0  0  0  0  0  0  0  0  0  0  0
    2.2710   68.6980   64.6820 C   0  0  0  0  0  0  0  0  0  0  0  0
    4.3580   69.4770   65.8530 C   0  0  0  0  0  0  0  0  0  0  0  0
    4.9150   70.0350   67.0210 C   0  0  0  0  0  0  0  0  0  0  0  0
    4.1140   70.0830   68.1640 C   0  0  0  0  0  0  0  0  0  0  0  0
    2.8200   69.6910   68.1780 N   0  0  0  0  0  0  0  0  0  0  0  0
    4.6220   70.6400   69.4690 C   0  0  0  0  0  0  0  0  0  0  0  0
    6.1430   70.6890   69.5550 C   0  0  0  0  0  0  0  0  0  0  0  0
    6.7050   71.3330   68.2970 C   0  0  0  0  0  0  0  0  0  0  0  0
    6.3520   70.5000   67.0660 C   0  0  0  0  0  0  0  0  0  0  0  0
    5.1230   69.4430   64.6600 N   0  0  0  0  0  0  0  0  0  0  0  0
    0.0190   68.9600   62.6120 C   0  0  0  0  0  0  0  0  0  0  0  0
    0.3890   67.9440   63.5360 O   0  0  0  0  0  0  0  0  0  0  0  0
   -0.8216   68.1803   65.9965 H   0  0  0  0  0  0  0  0  0  0  0  0
    0.3721   68.9816   68.0210 H   0  0  0  0  0  0  0  0  0  0  0  0
    2.8082   68.6217   63.7251 H   0  0  0  0  0  0  0  0  0  0  0  0
    4.2330   71.6621   69.5869 H   0  0  0  0  0  0  0  0  0  0  0  0
    4.2731   69.9678   70.2668 H   0  0  0  0  0  0  0  0  0  0  0  0
    6.4411   71.2803   70.4334 H   0  0  0  0  0  0  0  0  0  0  0  0
    6.5366   69.6661   69.6487 H   0  0  0  0  0  0  0  0  0  0  0  0
    6.2800   72.3414   68.1857 H   0  0  0  0  0  0  0  0  0  0  0  0
    7.7999   71.3906   68.3855 H   0  0  0  0  0  0  0  0  0  0  0  0
    7.0018   69.6126   67.0527 H   0  0  0  0  0  0  0  0  0  0  0  0
    6.4998   71.1513   66.1920 H   0  0  0  0  0  0  0  0  0  0  0  0
    6.1233   69.6874   64.6825 H   0  0  0  0  0  0  0  0  0  0  0  0
    4.6785   69.1739   63.7707 H   0  0  0  0  0  0  0  0  0  0  0  0
   -0.3069   69.8550   63.1622 H   0  0  0  0  0  0  0  0  0  0  0  0
    0.8828   69.2127   61.9796 H   0  0  0  0  0  0  0  0  0  0  0  0
   -0.8050   68.5981   61.9796 H   0  0  0  0  0  0  0  0  0  0  0  0
  2  1  2  0
  3  2  1  0
  4  3  2  0
  5  4  1  0
  6  1  1  0
  6  5  2  0
  7  5  1  0
  8  7  2  0
  9  8  1  0
 10  4  1  0
 10  9  2  0
 11  9  1  0
 12 11  1  0
 13 12  1  0
 14  8  1  0
 14 13  1  0
 15  7  1  0
 17 16  1  0
 17  1  1  0
  2 18  1  0
  3 19  1  0
  6 20  1  0
 11 21  1  0
 11 22  1  0
 12 23  1  0
 12 24  1  0
 13 25  1  0
 13 26  1  0
 14 27  1  0
 14 28  1  0
 15 29  1  0
 15 30  1  0
 16 31  1  0
 16 32  1  0
 16 33  1  0
M  END
>  <score>  (2) 
-9.821

$$$$
=
     RDKit          3D

 33 35  0  0  0  0  0  0  0  0999 V2000
    6.4890   70.9660   67.9750 C   0  0  0  0  0  0  0  0  0  0  0  0
    6.7820   70.5190   66.6960 C   0  0  0  0  0  0  0  0  0  0  0  0
    5.7870   69.8900   65.9400 C   0  0  0  0  0  0  0  0  0  0  0  0
    4.5040   69.6860   66.4270 C   0  0  0  0  0  0  0  0  0  0  0  0
    4.1900   70.1130   67.7300 C   0  0  0  0  0  0  0  0  0  0  0  0
    5.2030   70.7630   68.4830 C   0  0  0  0  0  0  0  0  0  0  0  0
    2.8730   69.8550   68.2050 C   0  0  0  0  0  0  0  0  0  0  0  0
    1.9130   69.3250   67.3200 C   0  0  0  0  0  0  0  0  0  0  0  0
    2.3470   68.9260   66.0540 C   0  0  0  0  0  0  0  0  0  0  0  0
    3.6170   69.0930   65.6200 N   0  0  0  0  0  0  0  0  0  0  0  0
    1.4040   68.3280   65.0410 C   0  0  0  0  0  0  0  0  0  0  0  0
    0.1220   67.7800   65.6580 C   0  0  0  0  0  0  0  0  0  0  0  0
   -0.4810   68.8180   66.5910 C   0  0  0  0  0  0  0  0  0  0  0  0
    0.4760   69.1230   67.7420 C   0  0  0  0  0  0  0  0  0  0  0  0
    2.4700   70.3070   69.4860 N   0  0  0  0  0  0  0  0  0  0  0  0
    7.7930   70.8650   69.9590 C   0  0  0  0  0  0  0  0  0  0  0  0
    7.3490   71.6020   68.8250 O   0  0  0  0  0  0  0  0  0  0  0  0
    7.7901   70.6579   66.2783 H   0  0  0  0  0  0  0  0  0  0  0  0
    6.0303   69.5452   64.9242 H   0  0  0  0  0  0  0  0  0  0  0  0
    4.9684   71.1177   69.4975 H   0  0  0  0  0  0  0  0  0  0  0  0
    1.1352   69.1069   64.3123 H   0  0  0  0  0  0  0  0  0  0  0  0
    1.9261   67.4817   64.5708 H   0  0  0  0  0  0  0  0  0  0  0  0
   -0.5968   67.5445   64.8593 H   0  0  0  0  0  0  0  0  0  0  0  0
    0.3525   66.8677   66.2277 H   0  0  0  0  0  0  0  0  0  0  0  0
   -0.6752   69.7423   66.0271 H   0  0  0  0  0  0  0  0  0  0  0  0
   -1.4201   68.4218   67.0046 H   0  0  0  0  0  0  0  0  0  0  0  0
    0.4402   68.2830   68.4514 H   0  0  0  0  0  0  0  0  0  0  0  0
    0.1419   70.0724   68.1858 H   0  0  0  0  0  0  0  0  0  0  0  0
    1.5154   70.1164   69.8226 H   0  0  0  0  0  0  0  0  0  0  0  0
    3.1317   70.8262   70.0806 H   0  0  0  0  0  0  0  0  0  0  0  0
    7.4810   71.3829   70.8780 H   0  0  0  0  0  0  0  0  0  0  0  0
    7.3512   69.8578   69.9377 H   0  0  0  0  0  0  0  0  0  0  0  0
    8.8899   70.7848   69.9377 H   0  0  0  0  0  0  0  0  0  0  0  0
  2  1  2  0
  3  2  1  0
  4  3  2  0
  5  4  1  0
  6  1  1  0
  6  5  2  0
  7  5  1  0
  8  7  2  0
  9  8  1  0
 10  4  1  0
 10  9  2  0
 11  9  1  0
 12 11  1  0
 13 12  1  0
 14  8  1  0
 14 13  1  0
 15  7  1  0
 17 16  1  0
 17  1  1  0
  2 18  1  0
  3 19  1  0
  6 20  1  0
 11 21  1  0
 11 22  1  0
 12 23  1  0
 12 24  1  0
 13 25  1  0
 13 26  1  0
 14 27  1  0
 14 28  1  0
 15 29  1  0
 15 30  1  0
 16 31  1  0
 16 32  1  0
 16 33  1  0
M  END
>  <score>  (3) 
-9.181

$$$$
=
     RDKit          3D

 33 35  0  0  0  0  0  0  0  0999 V2000
    6.0090   70.6500   68.6400 C   0  0  0  0  0  0  0  0  0  0  0  0
    4.8210   70.5550   69.3480 C   0  0  0  0  0  0  0  0  0  0  0  0
    3.6580   70.1360   68.6940 C   0  0  0  0  0  0  0  0  0  0  0  0
    3.6440   69.8130   67.3440 C   0  0  0  0  0  0  0  0  0  0  0  0
    4.8340   69.9210   66.6010 C   0  0  0  0  0  0  0  0  0  0  0  0
    6.0100   70.3340   67.2790 C   0  0  0  0  0  0  0  0  0  0  0  0
    4.7690   69.6130   65.2130 C   0  0  0  0  0  0  0  0  0  0  0  0
    3.5770   69.0830   64.6790 C   0  0  0  0  0  0  0  0  0  0  0  0
    2.4570   69.0360   65.5120 C   0  0  0  0  0  0  0  0  0  0  0  0
    2.4860   69.4030   66.8140 N   0  0  0  0  0  0  0  0  0  0  0  0
    1.1290   68.5080   65.0310 C   0  0  0  0  0  0  0  0  0  0  0  0
    0.9990   68.4910   63.5130 C   0  0  0  0  0  0  0  0  0  0  0  0
    2.2300   67.8390   62.9020 C   0  0  0  0  0  0  0  0  0  0  0  0
    3.4840   68.6480   63.2350 C   0  0  0  0  0  0  0  0  0  0  0  0
    5.9400   69.6450   64.4150 N   0  0  0  0  0  0  0  0  0  0  0  0
    7.5310   70.6110   70.4650 C   0  0  0  0  0  0  0  0  0  0  0  0
    7.2210   71.0340   69.1420 O   0  0  0  0  0  0  0  0  0  0  0  0
    4.7932   70.8078   70.4182 H   0  0  0  0  0  0  0  0  0  0  0  0
    2.7231   70.0598   69.2686 H   0  0  0  0  0  0  0  0  0  0  0  0
    6.9519   70.4077   66.7156 H   0  0  0  0  0  0  0  0  0  0  0  0
    1.0070   67.4800   65.4030 H   0  0  0  0  0  0  0  0  0  0  0  0
    0.3517   69.1843   65.4161 H   0  0  0  0  0  0  0  0  0  0  0  0
    0.1031   67.9196   63.2288 H   0  0  0  0  0  0  0  0  0  0  0  0
    0.9108   69.5230   63.1426 H   0  0  0  0  0  0  0  0  0  0  0  0
    2.3382   66.8210   63.3045 H   0  0  0  0  0  0  0  0  0  0  0  0
    2.1089   67.8032   61.8093 H   0  0  0  0  0  0  0  0  0  0  0  0
    3.4915   69.5481   62.6027 H   0  0  0  0  0  0  0  0  0  0  0  0
    4.3439   67.9879   63.0484 H   0  0  0  0  0  0  0  0  0  0  0  0
    5.8854   69.4209   63.4112 H   0  0  0  0  0  0  0  0  0  0  0  0
    6.8455   69.8923   64.8390 H   0  0  0  0  0  0  0  0  0  0  0  0
    7.0410   71.2797   71.1880 H   0  0  0  0  0  0  0  0  0  0  0  0
    7.1714   69.5823   70.6148 H   0  0  0  0  0  0  0  0  0  0  0  0
    8.6203   70.6441   70.6148 H   0  0  0  0  0  0  0  0  0  0  0  0
  2  1  2  0
  3  2  1  0
  4  3  2  0
  5  4  1  0
  6  1  1  0
  6  5  2  0
  7  5  1  0
  8  7  2  0
  9  8  1  0
 10  4  1  0
 10  9  2  0
 11  9  1  0
 12 11  1  0
 13 12  1  0
 14  8  1  0
 14 13  1  0
 15  7  1  0
 17 16  1  0
 17  1  1  0
  2 18  1  0
  3 19  1  0
  6 20  1  0
 11 21  1  0
 11 22  1  0
 12 23  1  0
 12 24  1  0
 13 25  1  0
 13 26  1  0
 14 27  1  0
 14 28  1  0
 15 29  1  0
 15 30  1  0
 16 31  1  0
 16 32  1  0
 16 33  1  0
M  END
>  <score>  (4) 
-9.157

$$$$
=
     RDKit          3D

 33 35  0  0  0  0  0  0  0  0999 V2000
    5.5670   70.4020   68.4400 C   0  0  0  0  0  0  0  0  0  0  0  0
    6.6810   70.5580   67.6310 C   0  0  0  0  0  0  0  0  0  0  0  0
    6.5890   70.2710   66.2650 C   0  0  0  0  0  0  0  0  0  0  0  0
    5.4120   69.8230   65.6800 C   0  0  0  0  0  0  0  0  0  0  0  0
    4.2740   69.6380   66.4870 C   0  0  0  0  0  0  0  0  0  0  0  0
    4.3760   69.9460   67.8680 C   0  0  0  0  0  0  0  0  0  0  0  0
    3.0980   69.1450   65.8550 C   0  0  0  0  0  0  0  0  0  0  0  0
    3.0750   69.0040   64.4530 C   0  0  0  0  0  0  0  0  0  0  0  0
    4.2710   69.2040   63.7610 C   0  0  0  0  0  0  0  0  0  0  0  0
    5.4180   69.5950   64.3620 N   0  0  0  0  0  0  0  0  0  0  0  0
    4.3590   69.0560   62.2630 C   0  0  0  0  0  0  0  0  0  0  0  0
    3.2160   68.2420   61.6680 C   0  0  0  0  0  0  0  0  0  0  0  0
    1.8890   68.7560   62.2050 C   0  0  0  0  0  0  0  0  0  0  0  0
    1.8230   68.5790   63.7220 C   0  0  0  0  0  0  0  0  0  0  0  0
    1.8980   68.9880   66.5940 N   0  0  0  0  0  0  0  0  0  0  0  0
    6.7160   70.5360   70.5160 C   0  0  0  0  0  0  0  0  0  0  0  0
    5.5020   70.6500   69.7820 O   0  0  0  0  0  0  0  0  0  0  0  0
    7.6322   70.9055   68.0604 H   0  0  0  0  0  0  0  0  0  0  0  0
    7.4792   70.4047   65.6328 H   0  0  0  0  0  0  0  0  0  0  0  0
    3.4903   69.8221   68.5085 H   0  0  0  0  0  0  0  0  0  0  0  0
    4.3446   70.0591   61.8119 H   0  0  0  0  0  0  0  0  0  0  0  0
    5.2916   68.5155   62.0439 H   0  0  0  0  0  0  0  0  0  0  0  0
    3.2295   68.3387   60.5723 H   0  0  0  0  0  0  0  0  0  0  0  0
    3.3374   67.1847   61.9462 H   0  0  0  0  0  0  0  0  0  0  0  0
    1.7880   69.8236   61.9600 H   0  0  0  0  0  0  0  0  0  0  0  0
    1.0714   68.1830   61.7432 H   0  0  0  0  0  0  0  0  0  0  0  0
    1.6428   67.5154   63.9371 H   0  0  0  0  0  0  0  0  0  0  0  0
    1.0127   69.2311   64.0801 H   0  0  0  0  0  0  0  0  0  0  0  0
    1.0506   68.6307   66.1302 H   0  0  0  0  0  0  0  0  0  0  0  0
    1.8738   69.2313   67.5946 H   0  0  0  0  0  0  0  0  0  0  0  0
    6.4962   70.5566   71.5936 H   0  0  0  0  0  0  0  0  0  0  0  0
    7.2111   69.5874   70.2608 H   0  0  0  0  0  0  0  0  0  0  0  0
    7.3790   71.3758   70.2608 H   0  0  0  0  0  0  0  0  0  0  0  0
  2  1  2  0
  3  2  1  0
  4  3  2  0
  5  4  1  0
  6  1  1  0
  6  5  2  0
  7  5  1  0
  8  7  2  0
  9  8  1  0
 10  4  1  0
 10  9  2  0
 11  9  1  0
 12 11  1  0
 13 12  1  0
 14  8  1  0
 14 13  1  0
 15  7  1  0
 17 16  1  0
 17  1  1  0
  2 18  1  0
  3 19  1  0
  6 20  1  0
 11 21  1  0
 11 22  1  0
 12 23  1  0
 12 24  1  0
 13 25  1  0
 13 26  1  0
 14 27  1  0
 14 28  1  0
 15 29  1  0
 15 30  1  0
 16 31  1  0
 16 32  1  0
 16 33  1  0
M  END
>  <score>  (5) 
-8.78

$$$$
=
     RDKit          3D

 33 35  0  0  0  0  0  0  0  0999 V2000
   -0.7520   68.7340   66.6790 C   0  0  0  0  0  0  0  0  0  0  0  0
    0.2280   68.9820   67.6260 C   0  0  0  0  0  0  0  0  0  0  0  0
    1.5660   69.0730   67.2280 C   0  0  0  0  0  0  0  0  0  0  0  0
    1.9570   68.9160   65.9060 C   0  0  0  0  0  0  0  0  0  0  0  0
    0.9810   68.6430   64.9310 C   0  0  0  0  0  0  0  0  0  0  0  0
   -0.3750   68.5670   65.3450 C   0  0  0  0  0  0  0  0  0  0  0  0
    1.4270   68.4540   63.5920 C   0  0  0  0  0  0  0  0  0  0  0  0
    2.7810   68.6880   63.2770 C   0  0  0  0  0  0  0  0  0  0  0  0
    3.6590   68.9400   64.3330 C   0  0  0  0  0  0  0  0  0  0  0  0
    3.2590   69.0410   65.6220 N   0  0  0  0  0  0  0  0  0  0  0  0
    5.1300   69.1810   64.1050 C   0  0  0  0  0  0  0  0  0  0  0  0
    5.6240   68.6710   62.7570 C   0  0  0  0  0  0  0  0  0  0  0  0
    4.6960   69.1580   61.6550 C   0  0  0  0  0  0  0  0  0  0  0  0
    3.2880   68.5990   61.8570 C   0  0  0  0  0  0  0  0  0  0  0  0
    0.4940   68.2320   62.5480 N   0  0  0  0  0  0  0  0  0  0  0  0
   -2.9510   68.6740   65.7790 C   0  0  0  0  0  0  0  0  0  0  0  0
   -2.0940   68.6270   66.9140 O   0  0  0  0  0  0  0  0  0  0  0  0
   -0.0442   69.1066   68.6845 H   0  0  0  0  0  0  0  0  0  0  0  0
    2.3341   69.2759   67.9888 H   0  0  0  0  0  0  0  0  0  0  0  0
   -1.1523   68.3706   64.5918 H   0  0  0  0  0  0  0  0  0  0  0  0
    5.3186   70.2634   64.1589 H   0  0  0  0  0  0  0  0  0  0  0  0
    5.6748   68.6252   64.8824 H   0  0  0  0  0  0  0  0  0  0  0  0
    6.6405   69.0489   62.5730 H   0  0  0  0  0  0  0  0  0  0  0  0
    5.6354   67.5711   62.7649 H   0  0  0  0  0  0  0  0  0  0  0  0
    4.6557   70.2571   61.6747 H   0  0  0  0  0  0  0  0  0  0  0  0
    5.0815   68.8107   60.6851 H   0  0  0  0  0  0  0  0  0  0  0  0
    3.2917   67.5403   61.5584 H   0  0  0  0  0  0  0  0  0  0  0  0
    2.6140   69.2144   61.2430 H   0  0  0  0  0  0  0  0  0  0  0  0
    0.8247   68.0962   61.5820 H   0  0  0  0  0  0  0  0  0  0  0  0
   -0.5146   68.2065   62.7554 H   0  0  0  0  0  0  0  0  0  0  0  0
   -3.9978   68.7314   66.1121 H   0  0  0  0  0  0  0  0  0  0  0  0
   -2.7097   69.5603   65.1738 H   0  0  0  0  0  0  0  0  0  0  0  0
   -2.8080   67.7667   65.1738 H   0  0  0  0  0  0  0  0  0  0  0  0
  2  1  2  0
  3  2  1  0
  4  3  2  0
  5  4  1  0
  6  1  1  0
  6  5  2  0
  7  5  1  0
  8  7  2  0
  9  8  1  0
 10  4  1  0
 10  9  2  0
 11  9  1  0
 12 11  1  0
 13 12  1  0
 14  8  1  0
 14 13  1  0
 15  7  1  0
 17 16  1  0
 17  1  1  0
  2 18  1  0
  3 19  1  0
  6 20  1  0
 11 21  1  0
 11 22  1  0
 12 23  1  0
 12 24  1  0
 13 25  1  0
 13 26  1  0
 14 27  1  0
 14 28  1  0
 15 29  1  0
 15 30  1  0
 16 31  1  0
 16 32  1  0
 16 33  1  0
M  END
>  <score>  (6) 
-8.332

$$$$
=
     RDKit          3D

 33 35  0  0  0  0  0  0  0  0999 V2000
    4.0500   68.4990   62.2630 C   0  0  0  0  0  0  0  0  0  0  0  0
    5.3570   68.9360   62.4090 C   0  0  0  0  0  0  0  0  0  0  0  0
    5.7860   69.4280   63.6460 C   0  0  0  0  0  0  0  0  0  0  0  0
    4.9430   69.5030   64.7460 C   0  0  0  0  0  0  0  0  0  0  0  0
    3.6070   69.0830   64.6140 C   0  0  0  0  0  0  0  0  0  0  0  0
    3.1870   68.5730   63.3580 C   0  0  0  0  0  0  0  0  0  0  0  0
    2.7670   69.2080   65.7570 C   0  0  0  0  0  0  0  0  0  0  0  0
    3.3300   69.6010   66.9880 C   0  0  0  0  0  0  0  0  0  0  0  0
    4.6660   70.0070   66.9900 C   0  0  0  0  0  0  0  0  0  0  0  0
    5.4540   69.9700   65.8910 N   0  0  0  0  0  0  0  0  0  0  0  0
    5.3550   70.4670   68.2500 C   0  0  0  0  0  0  0  0  0  0  0  0
    4.3880   70.8880   69.3500 C   0  0  0  0  0  0  0  0  0  0  0  0
    3.3240   69.8170   69.5320 C   0  0  0  0  0  0  0  0  0  0  0  0
    2.5040   69.6540   68.2520 C   0  0  0  0  0  0  0  0  0  0  0  0
    1.4250   68.7520   65.7140 N   0  0  0  0  0  0  0  0  0  0  0  0
    3.0160   68.9260   60.1660 C   0  0  0  0  0  0  0  0  0  0  0  0
    3.4910   67.9880   61.1250 O   0  0  0  0  0  0  0  0  0  0  0  0
    6.0524   68.8962   61.5577 H   0  0  0  0  0  0  0  0  0  0  0  0
    6.8272   69.7671   63.7506 H   0  0  0  0  0  0  0  0  0  0  0  0
    2.1497   68.2253   63.2437 H   0  0  0  0  0  0  0  0  0  0  0  0
    5.9760   69.6419   68.6288 H   0  0  0  0  0  0  0  0  0  0  0  0
    5.9536   71.3519   67.9880 H   0  0  0  0  0  0  0  0  0  0  0  0
    4.9402   71.0192   70.2923 H   0  0  0  0  0  0  0  0  0  0  0  0
    3.9069   71.8367   69.0697 H   0  0  0  0  0  0  0  0  0  0  0  0
    3.8106   68.8607   69.7744 H   0  0  0  0  0  0  0  0  0  0  0  0
    2.6520   70.1183   70.3491 H   0  0  0  0  0  0  0  0  0  0  0  0
    1.8114   70.5051   68.1757 H   0  0  0  0  0  0  0  0  0  0  0  0
    1.9854   68.6871   68.3306 H   0  0  0  0  0  0  0  0  0  0  0  0
    0.8225   68.8453   66.5442 H   0  0  0  0  0  0  0  0  0  0  0  0
    1.0527   68.3275   64.8526 H   0  0  0  0  0  0  0  0  0  0  0  0
    2.5779   69.7912   60.6851 H   0  0  0  0  0  0  0  0  0  0  0  0
    3.8527   69.2617   59.5358 H   0  0  0  0  0  0  0  0  0  0  0  0
    2.2502   68.4502   59.5358 H   0  0  0  0  0  0  0  0  0  0  0  0
  2  1  2  0
  3  2  1  0
  4  3  2  0
  5  4  1  0
  6  1  1  0
  6  5  2  0
  7  5  1  0
  8  7  2  0
  9  8  1  0
 10  4  1  0
 10  9  2  0
 11  9  1  0
 12 11  1  0
 13 12  1  0
 14  8  1  0
 14 13  1  0
 15  7  1  0
 17 16  1  0
 17  1  1  0
  2 18  1  0
  3 19  1  0
  6 20  1  0
 11 21  1  0
 11 22  1  0
 12 23  1  0
 12 24  1  0
 13 25  1  0
 13 26  1  0
 14 27  1  0
 14 28  1  0
 15 29  1  0
 15 30  1  0
 16 31  1  0
 16 32  1  0
 16 33  1  0
M  END
>  <score>  (7) 
-8.078

$$$$
=
     RDKit          3D

 33 35  0  0  0  0  0  0  0  0999 V2000
    0.5740   67.1760   68.6870 C   0  0  0  0  0  0  0  0  0  0  0  0
   -0.7670   67.2060   68.3390 C   0  0  0  0  0  0  0  0  0  0  0  0
   -1.1380   67.6050   67.0510 C   0  0  0  0  0  0  0  0  0  0  0  0
   -0.2050   67.9850   66.0970 C   0  0  0  0  0  0  0  0  0  0  0  0
    1.1610   67.9820   66.4350 C   0  0  0  0  0  0  0  0  0  0  0  0
    1.5260   67.5610   67.7400 C   0  0  0  0  0  0  0  0  0  0  0  0
    2.0830   68.4110   65.4380 C   0  0  0  0  0  0  0  0  0  0  0  0
    1.6160   68.6760   64.1350 C   0  0  0  0  0  0  0  0  0  0  0  0
    0.2360   68.6600   63.9240 C   0  0  0  0  0  0  0  0  0  0  0  0
   -0.6570   68.3320   64.8860 N   0  0  0  0  0  0  0  0  0  0  0  0
   -0.3660   68.9510   62.5730 C   0  0  0  0  0  0  0  0  0  0  0  0
    0.5780   69.6980   61.6380 C   0  0  0  0  0  0  0  0  0  0  0  0
    1.9340   69.0090   61.6230 C   0  0  0  0  0  0  0  0  0  0  0  0
    2.5640   69.0390   63.0150 C   0  0  0  0  0  0  0  0  0  0  0  0
    3.4780   68.3800   65.6890 N   0  0  0  0  0  0  0  0  0  0  0  0
    0.2550   65.9990   70.7270 C   0  0  0  0  0  0  0  0  0  0  0  0
    1.0870   66.8020   69.8980 O   0  0  0  0  0  0  0  0  0  0  0  0
   -1.5352   66.9176   69.0716 H   0  0  0  0  0  0  0  0  0  0  0  0
   -2.2054   67.6180   66.7853 H   0  0  0  0  0  0  0  0  0  0  0  0
    2.5910   67.5371   68.0143 H   0  0  0  0  0  0  0  0  0  0  0  0
   -0.6412   67.9963   62.1009 H   0  0  0  0  0  0  0  0  0  0  0  0
   -1.2389   69.5994   62.7392 H   0  0  0  0  0  0  0  0  0  0  0  0
    0.1584   69.7021   60.6212 H   0  0  0  0  0  0  0  0  0  0  0  0
    0.6984   70.7327   61.9914 H   0  0  0  0  0  0  0  0  0  0  0  0
    1.8055   67.9635   61.3061 H   0  0  0  0  0  0  0  0  0  0  0  0
    2.5950   69.5389   60.9214 H   0  0  0  0  0  0  0  0  0  0  0  0
    2.9426   70.0551   63.1999 H   0  0  0  0  0  0  0  0  0  0  0  0
    3.3595   68.2793   63.0171 H   0  0  0  0  0  0  0  0  0  0  0  0
    4.1389   68.6918   64.9632 H   0  0  0  0  0  0  0  0  0  0  0  0
    3.8306   68.0456   66.5972 H   0  0  0  0  0  0  0  0  0  0  0  0
    0.4754   66.2117   71.7835 H   0  0  0  0  0  0  0  0  0  0  0  0
   -0.8005   66.2285   70.5192 H   0  0  0  0  0  0  0  0  0  0  0  0
    0.4469   64.9360   70.5192 H   0  0  0  0  0  0  0  0  0  0  0  0
  2  1  2  0
  3  2  1  0
  4  3  2  0
  5  4  1  0
  6  1  1  0
  6  5  2  0
  7  5  1  0
  8  7  2  0
  9  8  1  0
 10  4  1  0
 10  9  2  0
 11  9  1  0
 12 11  1  0
 13 12  1  0
 14  8  1  0
 14 13  1  0
 15  7  1  0
 17 16  1  0
 17  1  1  0
  2 18  1  0
  3 19  1  0
  6 20  1  0
 11 21  1  0
 11 22  1  0
 12 23  1  0
 12 24  1  0
 13 25  1  0
 13 26  1  0
 14 27  1  0
 14 28  1  0
 15 29  1  0
 15 30  1  0
 16 31  1  0
 16 32  1  0
 16 33  1  0
M  END
>  <score>  (8) 
-7.705

$$$$
=
     RDKit          3D

 33 35  0  0  0  0  0  0  0  0999 V2000
    1.0830   57.1940   73.5730 C   0  0  0  0  0  0  0  0  0  0  0  0
    0.4690   58.2270   74.2640 C   0  0  0  0  0  0  0  0  0  0  0  0
    0.6960   59.5500   73.8730 C   0  0  0  0  0  0  0  0  0  0  0  0
    1.5270   59.8760   72.8100 C   0  0  0  0  0  0  0  0  0  0  0  0
    2.1760   58.8440   72.1070 C   0  0  0  0  0  0  0  0  0  0  0  0
    1.9270   57.5050   72.5050 C   0  0  0  0  0  0  0  0  0  0  0  0
    3.0470   59.2230   71.0460 C   0  0  0  0  0  0  0  0  0  0  0  0
    3.1100   60.5750   70.6550 C   0  0  0  0  0  0  0  0  0  0  0  0
    2.4310   61.5110   71.4390 C   0  0  0  0  0  0  0  0  0  0  0  0
    1.6650   61.1700   72.5000 N   0  0  0  0  0  0  0  0  0  0  0  0
    2.4540   62.9830   71.1180 C   0  0  0  0  0  0  0  0  0  0  0  0
    3.6090   63.3870   70.2110 C   0  0  0  0  0  0  0  0  0  0  0  0
    3.6720   62.4500   69.0150 C   0  0  0  0  0  0  0  0  0  0  0  0
    3.9410   61.0170   69.4730 C   0  0  0  0  0  0  0  0  0  0  0  0
    3.6900   58.2350   70.2580 N   0  0  0  0  0  0  0  0  0  0  0  0
   -0.3710   55.3690   74.0270 C   0  0  0  0  0  0  0  0  0  0  0  0
    0.9510   55.8580   73.8320 O   0  0  0  0  0  0  0  0  0  0  0  0
   -0.1928   58.0072   75.1147 H   0  0  0  0  0  0  0  0  0  0  0  0
    0.1991   60.3603   74.4267 H   0  0  0  0  0  0  0  0  0  0  0  0
    2.4141   56.6863   71.9550 H   0  0  0  0  0  0  0  0  0  0  0  0
    1.5100   63.2455   70.6181 H   0  0  0  0  0  0  0  0  0  0  0  0
    2.5848   63.5204   72.0688 H   0  0  0  0  0  0  0  0  0  0  0  0
    3.4553   64.4182   69.8602 H   0  0  0  0  0  0  0  0  0  0  0  0
    4.5527   63.3253   70.7728 H   0  0  0  0  0  0  0  0  0  0  0  0
    2.7132   62.4844   68.4770 H   0  0  0  0  0  0  0  0  0  0  0  0
    4.4893   62.7718   68.3529 H   0  0  0  0  0  0  0  0  0  0  0  0
    5.0027   60.9374   69.7494 H   0  0  0  0  0  0  0  0  0  0  0  0
    3.6672   60.3615   68.6331 H   0  0  0  0  0  0  0  0  0  0  0  0
    4.3188   58.5160   69.4921 H   0  0  0  0  0  0  0  0  0  0  0  0
    3.5283   57.2363   70.4515 H   0  0  0  0  0  0  0  0  0  0  0  0
   -0.5784   55.2923   75.1046 H   0  0  0  0  0  0  0  0  0  0  0  0
   -1.0899   56.0607   73.5636 H   0  0  0  0  0  0  0  0  0  0  0  0
   -0.4667   54.3760   73.5636 H   0  0  0  0  0  0  0  0  0  0  0  0
  2  1  2  0
  3  2  1  0
  4  3  2  0
  5  4  1  0
  6  1  1  0
  6  5  2  0
  7  5  1  0
  8  7  2  0
  9  8  1  0
 10  4  1  0
 10  9  2  0
 11  9  1  0
 12 11  1  0
 13 12  1  0
 14  8  1  0
 14 13  1  0
 15  7  1  0
 17 16  1  0
 17  1  1  0
  2 18  1  0
  3 19  1  0
  6 20  1  0
 11 21  1  0
 11 22  1  0
 12 23  1  0
 12 24  1  0
 13 25  1  0
 13 26  1  0
 14 27  1  0
 14 28  1  0
 15 29  1  0
 15 30  1  0
 16 31  1  0
 16 32  1  0
 16 33  1  0
M  END
>  <score>  (9) 
-7.104

$$$$
