=
     RDKit          3D

 23 23  0  0  0  0  0  0  0  0999 V2000
    5.1470   68.0020   63.2980 C   0  0  2  0  0  0  0  0  0  0  0  0
    6.0650   68.7450   62.3290 N   0  0  0  0  0  4  0  0  0  0  0  0
    4.5540   66.7750   62.5460 C   0  0  0  0  0  0  0  0  0  0  0  0
    4.8390   65.6330   62.9580 O   0  0  0  0  0  0  0  0  0  0  0  0
    3.8220   67.1940   61.5870 O   0  0  0  0  0  1  0  0  0  0  0  0
    4.0760   68.9520   63.8370 C   0  0  0  0  0  0  0  0  0  0  0  0
    4.3790   69.3970   65.2510 C   0  0  0  0  0  0  0  0  0  0  0  0
    5.6540   69.8650   65.6010 C   0  0  0  0  0  0  0  0  0  0  0  0
    5.9230   70.2570   66.9130 C   0  0  0  0  0  0  0  0  0  0  0  0
    4.9210   70.1780   67.8740 C   0  0  0  0  0  0  0  0  0  0  0  0
    3.6530   69.7160   67.5470 C   0  0  0  0  0  0  0  0  0  0  0  0
    3.3800   69.3250   66.2360 C   0  0  0  0  0  0  0  0  0  0  0  0
    5.1860   70.5520   69.1320 F   0  0  0  0  0  0  0  0  0  0  0  0
    5.6984   67.6356   64.1765 H   0  0  0  0  0  0  0  0  0  0  0  0
    6.7501   69.2995   62.8620 H   0  0  0  0  0  0  0  0  0  0  0  0
    6.5610   68.0645   61.7359 H   0  0  0  0  0  0  0  0  0  0  0  0
    5.5028   69.3719   61.7359 H   0  0  0  0  0  0  0  0  0  0  0  0
    4.0271   69.8385   63.1876 H   0  0  0  0  0  0  0  0  0  0  0  0
    3.1161   68.4148   63.8461 H   0  0  0  0  0  0  0  0  0  0  0  0
    6.4448   69.9233   64.8386 H   0  0  0  0  0  0  0  0  0  0  0  0
    6.9225   70.6266   67.1856 H   0  0  0  0  0  0  0  0  0  0  0  0
    2.8691   69.6587   68.3165 H   0  0  0  0  0  0  0  0  0  0  0  0
    2.3770   68.9583   65.9721 H   0  0  0  0  0  0  0  0  0  0  0  0
  2  1  1  0
  3  1  1  0
  4  3  2  0
  5  3  1  0
  6  1  1  0
  7  6  1  0
  8  7  2  0
  9  8  1  0
 10  9  2  0
 11 10  1  0
 12  7  1  0
 12 11  2  0
 13 10  1  0
  1 14  1  1
  2 15  1  0
  2 16  1  0
  2 17  1  0
  6 18  1  0
  6 19  1  0
  8 20  1  0
  9 21  1  0
 11 22  1  0
 12 23  1  0
M  CHG  2   2   1   5  -1
M  END
>  <score>  (1) 
-7.694

$$$$
=
     RDKit          3D

 23 23  0  0  0  0  0  0  0  0999 V2000
    1.9160   67.6600   66.4580 C   0  0  2  0  0  0  0  0  0  0  0  0
    2.1050   66.4030   65.6110 N   0  0  0  0  0  4  0  0  0  0  0  0
    0.3900   67.8440   66.7020 C   0  0  0  0  0  0  0  0  0  0  0  0
    0.0010   68.8880   67.2640 O   0  0  0  0  0  0  0  0  0  0  0  0
   -0.2280   66.8280   66.2350 O   0  0  0  0  0  1  0  0  0  0  0  0
    2.5640   68.8610   65.7680 C   0  0  0  0  0  0  0  0  0  0  0  0
    3.6520   69.4780   66.6190 C   0  0  0  0  0  0  0  0  0  0  0  0
    3.3940   69.8820   67.9370 C   0  0  0  0  0  0  0  0  0  0  0  0
    4.4040   70.4660   68.7030 C   0  0  0  0  0  0  0  0  0  0  0  0
    5.6680   70.6470   68.1520 C   0  0  0  0  0  0  0  0  0  0  0  0
    5.9430   70.2550   66.8490 C   0  0  0  0  0  0  0  0  0  0  0  0
    4.9360   69.6700   66.0800 C   0  0  0  0  0  0  0  0  0  0  0  0
    6.6330   71.2110   68.8910 F   0  0  0  0  0  0  0  0  0  0  0  0
    2.4140   67.5672   67.4344 H   0  0  0  0  0  0  0  0  0  0  0  0
    2.2275   65.5880   66.2287 H   0  0  0  0  0  0  0  0  0  0  0  0
    1.2758   66.2617   65.0166 H   0  0  0  0  0  0  0  0  0  0  0  0
    2.9391   66.5118   65.0166 H   0  0  0  0  0  0  0  0  0  0  0  0
    3.0020   68.5304   64.8147 H   0  0  0  0  0  0  0  0  0  0  0  0
    1.7863   69.6213   65.6031 H   0  0  0  0  0  0  0  0  0  0  0  0
    2.3924   69.7381   68.3684 H   0  0  0  0  0  0  0  0  0  0  0  0
    4.2013   70.7815   69.7371 H   0  0  0  0  0  0  0  0  0  0  0  0
    6.9473   70.4044   66.4257 H   0  0  0  0  0  0  0  0  0  0  0  0
    5.1481   69.3576   65.0469 H   0  0  0  0  0  0  0  0  0  0  0  0
  2  1  1  0
  3  1  1  0
  4  3  2  0
  5  3  1  0
  6  1  1  0
  7  6  1  0
  8  7  2  0
  9  8  1  0
 10  9  2  0
 11 10  1  0
 12  7  1  0
 12 11  2  0
 13 10  1  0
  1 14  1  1
  2 15  1  0
  2 16  1  0
  2 17  1  0
  6 18  1  0
  6 19  1  0
  8 20  1  0
  9 21  1  0
 11 22  1  0
 12 23  1  0
M  CHG  2   2   1   5  -1
M  END
>  <score>  (2) 
-7.5

$$$$
=
     RDKit          3D

 23 23  0  0  0  0  0  0  0  0999 V2000
    3.1760   68.1060   63.5840 C   0  0  2  0  0  0  0  0  0  0  0  0
    3.4720   66.6150   63.7370 N   0  0  0  0  0  4  0  0  0  0  0  0
    2.7460   68.3570   62.1100 C   0  0  0  0  0  0  0  0  0  0  0  0
    3.5060   67.9740   61.1970 O   0  0  0  0  0  0  0  0  0  0  0  0
    1.6070   68.9350   62.1050 O   0  0  0  0  0  1  0  0  0  0  0  0
    4.3950   68.9290   64.0030 C   0  0  0  0  0  0  0  0  0  0  0  0
    4.3120   69.3600   65.4510 C   0  0  0  0  0  0  0  0  0  0  0  0
    5.4340   69.8830   66.1110 C   0  0  0  0  0  0  0  0  0  0  0  0
    5.3460   70.2610   67.4520 C   0  0  0  0  0  0  0  0  0  0  0  0
    4.1410   70.1140   68.1310 C   0  0  0  0  0  0  0  0  0  0  0  0
    3.0210   69.5970   67.4940 C   0  0  0  0  0  0  0  0  0  0  0  0
    3.1040   69.2200   66.1540 C   0  0  0  0  0  0  0  0  0  0  0  0
    4.0640   70.4760   69.4180 F   0  0  0  0  0  0  0  0  0  0  0  0
    2.3547   68.4238   64.2431 H   0  0  0  0  0  0  0  0  0  0  0  0
    3.5196   66.3753   64.7376 H   0  0  0  0  0  0  0  0  0  0  0  0
    2.7231   66.0685   63.2883 H   0  0  0  0  0  0  0  0  0  0  0  0
    4.3729   66.3960   63.2883 H   0  0  0  0  0  0  0  0  0  0  0  0
    5.3004   68.3200   63.8642 H   0  0  0  0  0  0  0  0  0  0  0  0
    4.4273   69.8340   63.3785 H   0  0  0  0  0  0  0  0  0  0  0  0
    6.3854   69.9955   65.5706 H   0  0  0  0  0  0  0  0  0  0  0  0
    6.2252   70.6730   67.9690 H   0  0  0  0  0  0  0  0  0  0  0  0
    2.0742   69.4855   68.0428 H   0  0  0  0  0  0  0  0  0  0  0  0
    2.2189   68.8109   65.6449 H   0  0  0  0  0  0  0  0  0  0  0  0
  2  1  1  0
  3  1  1  0
  4  3  2  0
  5  3  1  0
  6  1  1  0
  7  6  1  0
  8  7  2  0
  9  8  1  0
 10  9  2  0
 11 10  1  0
 12  7  1  0
 12 11  2  0
 13 10  1  0
  1 14  1  1
  2 15  1  0
  2 16  1  0
  2 17  1  0
  6 18  1  0
  6 19  1  0
  8 20  1  0
  9 21  1  0
 11 22  1  0
 12 23  1  0
M  CHG  2   2   1   5  -1
M  END
>  <score>  (3) 
-7.095

$$$$
=
     RDKit          3D

 23 23  0  0  0  0  0  0  0  0999 V2000
    5.9540   70.6500   66.9420 C   0  0  2  0  0  0  0  0  0  0  0  0
    7.1940   69.7640   66.8340 N   0  0  0  0  0  4  0  0  0  0  0  0
    6.1230   71.5550   68.1960 C   0  0  0  0  0  0  0  0  0  0  0  0
    5.7590   72.7460   68.1220 O   0  0  0  0  0  0  0  0  0  0  0  0
    6.6260   70.8600   69.1420 O   0  0  0  0  0  1  0  0  0  0  0  0
    4.6940   69.7840   66.9920 C   0  0  0  0  0  0  0  0  0  0  0  0
    4.2060   69.4210   65.6060 C   0  0  0  0  0  0  0  0  0  0  0  0
    5.0620   69.5000   64.4980 C   0  0  0  0  0  0  0  0  0  0  0  0
    4.5920   69.1780   63.2240 C   0  0  0  0  0  0  0  0  0  0  0  0
    3.2700   68.7800   63.0580 C   0  0  0  0  0  0  0  0  0  0  0  0
    2.4080   68.6960   64.1430 C   0  0  0  0  0  0  0  0  0  0  0  0
    2.8740   69.0160   65.4180 C   0  0  0  0  0  0  0  0  0  0  0  0
    2.8240   68.4750   61.8320 F   0  0  0  0  0  0  0  0  0  0  0  0
    5.8431   71.2979   66.0600 H   0  0  0  0  0  0  0  0  0  0  0  0
    7.5285   69.5250   67.7784 H   0  0  0  0  0  0  0  0  0  0  0  0
    6.9558   68.9006   66.3254 H   0  0  0  0  0  0  0  0  0  0  0  0
    7.9336   70.2691   66.3254 H   0  0  0  0  0  0  0  0  0  0  0  0
    4.9191   68.8594   67.5437 H   0  0  0  0  0  0  0  0  0  0  0  0
    3.9025   70.3606   67.4930 H   0  0  0  0  0  0  0  0  0  0  0  0
    6.1067   69.8166   64.6334 H   0  0  0  0  0  0  0  0  0  0  0  0
    5.2641   69.2387   62.3553 H   0  0  0  0  0  0  0  0  0  0  0  0
    1.3646   68.3792   63.9981 H   0  0  0  0  0  0  0  0  0  0  0  0
    2.1950   68.9509   66.2810 H   0  0  0  0  0  0  0  0  0  0  0  0
  2  1  1  0
  3  1  1  0
  4  3  2  0
  5  3  1  0
  6  1  1  0
  7  6  1  0
  8  7  2  0
  9  8  1  0
 10  9  2  0
 11 10  1  0
 12  7  1  0
 12 11  2  0
 13 10  1  0
  1 14  1  6
  2 15  1  0
  2 16  1  0
  2 17  1  0
  6 18  1  0
  6 19  1  0
  8 20  1  0
  9 21  1  0
 11 22  1  0
 12 23  1  0
M  CHG  2   2   1   5  -1
M  END
>  <score>  (4) 
-7.072

$$$$
=
     RDKit          3D

 23 23  0  0  0  0  0  0  0  0999 V2000
    0.6000   69.2030   67.2220 C   0  0  2  0  0  0  0  0  0  0  0  0
    0.0230   70.3330   68.0720 N   0  0  0  0  0  4  0  0  0  0  0  0
   -0.3530   67.9780   67.3470 C   0  0  0  0  0  0  0  0  0  0  0  0
   -1.5840   68.1810   67.3260 O   0  0  0  0  0  0  0  0  0  0  0  0
    0.3500   66.9160   67.4390 O   0  0  0  0  0  1  0  0  0  0  0  0
    2.0330   68.8960   67.6600 C   0  0  0  0  0  0  0  0  0  0  0  0
    3.0220   69.0970   66.5330 C   0  0  0  0  0  0  0  0  0  0  0  0
    4.2960   69.6290   66.7790 C   0  0  0  0  0  0  0  0  0  0  0  0
    5.1910   69.8250   65.7260 C   0  0  0  0  0  0  0  0  0  0  0  0
    4.8120   69.4920   64.4300 C   0  0  0  0  0  0  0  0  0  0  0  0
    3.5550   68.9650   64.1660 C   0  0  0  0  0  0  0  0  0  0  0  0
    2.6580   68.7670   65.2170 C   0  0  0  0  0  0  0  0  0  0  0  0
    5.6740   69.6840   63.4230 F   0  0  0  0  0  0  0  0  0  0  0  0
    0.6609   69.4874   66.1612 H   0  0  0  0  0  0  0  0  0  0  0  0
    0.1391   70.1057   69.0699 H   0  0  0  0  0  0  0  0  0  0  0  0
    0.5194   71.2102   67.8597 H   0  0  0  0  0  0  0  0  0  0  0  0
   -0.9786   70.4453   67.8597 H   0  0  0  0  0  0  0  0  0  0  0  0
    2.3014   69.5635   68.4921 H   0  0  0  0  0  0  0  0  0  0  0  0
    2.0769   67.8410   67.9684 H   0  0  0  0  0  0  0  0  0  0  0  0
    4.5910   69.8927   67.8054 H   0  0  0  0  0  0  0  0  0  0  0  0
    6.1908   70.2406   65.9202 H   0  0  0  0  0  0  0  0  0  0  0  0
    3.2681   68.7054   63.1363 H   0  0  0  0  0  0  0  0  0  0  0  0
    1.6605   68.3502   65.0136 H   0  0  0  0  0  0  0  0  0  0  0  0
  2  1  1  0
  3  1  1  0
  4  3  2  0
  5  3  1  0
  6  1  1  0
  7  6  1  0
  8  7  2  0
  9  8  1  0
 10  9  2  0
 11 10  1  0
 12  7  1  0
 12 11  2  0
 13 10  1  0
  1 14  1  6
  2 15  1  0
  2 16  1  0
  2 17  1  0
  6 18  1  0
  6 19  1  0
  8 20  1  0
  9 21  1  0
 11 22  1  0
 12 23  1  0
M  CHG  2   2   1   5  -1
M  END
>  <score>  (5) 
-7.034

$$$$
=
     RDKit          3D

 23 23  0  0  0  0  0  0  0  0999 V2000
    0.9850   68.2730   67.4200 C   0  0  2  0  0  0  0  0  0  0  0  0
   -0.2850   68.4710   66.5940 N   0  0  0  0  0  4  0  0  0  0  0  0
    0.6790   67.2110   68.5160 C   0  0  0  0  0  0  0  0  0  0  0  0
    1.3990   67.1870   69.5350 O   0  0  0  0  0  0  0  0  0  0  0  0
   -0.3320   66.5220   68.1520 O   0  0  0  0  0  1  0  0  0  0  0  0
    1.4520   69.6120   67.9930 C   0  0  0  0  0  0  0  0  0  0  0  0
    2.9360   69.8250   67.7870 C   0  0  0  0  0  0  0  0  0  0  0  0
    3.5590   69.4420   66.5900 C   0  0  0  0  0  0  0  0  0  0  0  0
    4.9310   69.6310   66.4210 C   0  0  0  0  0  0  0  0  0  0  0  0
    5.6790   70.1970   67.4470 C   0  0  0  0  0  0  0  0  0  0  0  0
    5.0810   70.5820   68.6400 C   0  0  0  0  0  0  0  0  0  0  0  0
    3.7090   70.3960   68.8120 C   0  0  0  0  0  0  0  0  0  0  0  0
    6.9970   70.3730   67.2810 F   0  0  0  0  0  0  0  0  0  0  0  0
    1.8155   67.9020   66.8014 H   0  0  0  0  0  0  0  0  0  0  0  0
   -1.0891   68.5964   67.2253 H   0  0  0  0  0  0  0  0  0  0  0  0
   -0.1815   69.3060   65.9999 H   0  0  0  0  0  0  0  0  0  0  0  0
   -0.4406   67.6441   65.9999 H   0  0  0  0  0  0  0  0  0  0  0  0
    0.9031   70.4239   67.4934 H   0  0  0  0  0  0  0  0  0  0  0  0
    1.2543   69.6082   69.0751 H   0  0  0  0  0  0  0  0  0  0  0  0
    2.9640   68.9912   65.7820 H   0  0  0  0  0  0  0  0  0  0  0  0
    5.4183   69.3337   65.4807 H   0  0  0  0  0  0  0  0  0  0  0  0
    5.6845   71.0301   69.4431 H   0  0  0  0  0  0  0  0  0  0  0  0
    3.2299   70.6980   69.7550 H   0  0  0  0  0  0  0  0  0  0  0  0
  2  1  1  0
  3  1  1  0
  4  3  2  0
  5  3  1  0
  6  1  1  0
  7  6  1  0
  8  7  2  0
  9  8  1  0
 10  9  2  0
 11 10  1  0
 12  7  1  0
 12 11  2  0
 13 10  1  0
  1 14  1  6
  2 15  1  0
  2 16  1  0
  2 17  1  0
  6 18  1  0
  6 19  1  0
  8 20  1  0
  9 21  1  0
 11 22  1  0
 12 23  1  0
M  CHG  2   2   1   5  -1
M  END
>  <score>  (6) 
-7.03

$$$$
=
     RDKit          3D

 23 23  0  0  0  0  0  0  0  0999 V2000
    5.6570   70.5910   66.8820 C   0  0  2  0  0  0  0  0  0  0  0  0
    7.0350   69.9320   66.8600 N   0  0  0  0  0  4  0  0  0  0  0  0
    5.5220   71.3680   68.2240 C   0  0  0  0  0  0  0  0  0  0  0  0
    5.0640   70.7650   69.2150 O   0  0  0  0  0  0  0  0  0  0  0  0
    5.9500   72.5600   68.0540 O   0  0  0  0  0  1  0  0  0  0  0  0
    4.5680   69.5350   66.6870 C   0  0  0  0  0  0  0  0  0  0  0  0
    4.2730   69.2940   65.2230 C   0  0  0  0  0  0  0  0  0  0  0  0
    2.9890   68.9220   64.7990 C   0  0  0  0  0  0  0  0  0  0  0  0
    2.7370   68.6870   63.4460 C   0  0  0  0  0  0  0  0  0  0  0  0
    3.7660   68.8230   62.5210 C   0  0  0  0  0  0  0  0  0  0  0  0
    5.0430   69.1900   62.9210 C   0  0  0  0  0  0  0  0  0  0  0  0
    5.2990   69.4260   64.2730 C   0  0  0  0  0  0  0  0  0  0  0  0
    3.5190   68.5930   61.2240 F   0  0  0  0  0  0  0  0  0  0  0  0
    5.5384   71.3062   66.0547 H   0  0  0  0  0  0  0  0  0  0  0  0
    7.3573   69.7779   67.8260 H   0  0  0  0  0  0  0  0  0  0  0  0
    6.9756   69.0282   66.3696 H   0  0  0  0  0  0  0  0  0  0  0  0
    7.7012   70.5456   66.3696 H   0  0  0  0  0  0  0  0  0  0  0  0
    4.9019   68.5912   67.1427 H   0  0  0  0  0  0  0  0  0  0  0  0
    3.6475   69.9017   67.1648 H   0  0  0  0  0  0  0  0  0  0  0  0
    2.1781   68.8151   65.5345 H   0  0  0  0  0  0  0  0  0  0  0  0
    1.7297   68.3958   63.1136 H   0  0  0  0  0  0  0  0  0  0  0  0
    5.8477   69.2942   62.1783 H   0  0  0  0  0  0  0  0  0  0  0  0
    6.3095   69.7168   64.5959 H   0  0  0  0  0  0  0  0  0  0  0  0
  2  1  1  0
  3  1  1  0
  4  3  2  0
  5  3  1  0
  6  1  1  0
  7  6  1  0
  8  7  2  0
  9  8  1  0
 10  9  2  0
 11 10  1  0
 12  7  1  0
 12 11  2  0
 13 10  1  0
  1 14  1  6
  2 15  1  0
  2 16  1  0
  2 17  1  0
  6 18  1  0
  6 19  1  0
  8 20  1  0
  9 21  1  0
 11 22  1  0
 12 23  1  0
M  CHG  2   2   1   5  -1
M  END
>  <score>  (7) 
-6.979

$$$$
=
     RDKit          3D

 23 23  0  0  0  0  0  0  0  0999 V2000
    5.7480   70.6020   68.6180 C   0  0  2  0  0  0  0  0  0  0  0  0
    4.7540   71.7540   68.7580 N   0  0  0  0  0  4  0  0  0  0  0  0
    6.9370   70.8780   69.5830 C   0  0  0  0  0  0  0  0  0  0  0  0
    6.9500   70.3000   70.6890 O   0  0  0  0  0  0  0  0  0  0  0  0
    7.7440   71.6920   69.0200 O   0  0  0  0  0  1  0  0  0  0  0  0
    6.1800   70.4570   67.1580 C   0  0  0  0  0  0  0  0  0  0  0  0
    5.0740   69.8850   66.2980 C   0  0  0  0  0  0  0  0  0  0  0  0
    3.8360   69.5350   66.8560 C   0  0  0  0  0  0  0  0  0  0  0  0
    2.8320   68.9930   66.0530 C   0  0  0  0  0  0  0  0  0  0  0  0
    3.0660   68.7990   64.6960 C   0  0  0  0  0  0  0  0  0  0  0  0
    4.2850   69.1380   64.1250 C   0  0  0  0  0  0  0  0  0  0  0  0
    5.2910   69.6810   64.9250 C   0  0  0  0  0  0  0  0  0  0  0  0
    2.0990   68.2750   63.9300 F   0  0  0  0  0  0  0  0  0  0  0  0
    5.2927   69.6403   68.8971 H   0  0  0  0  0  0  0  0  0  0  0  0
    4.5888   71.9455   69.7565 H   0  0  0  0  0  0  0  0  0  0  0  0
    5.1383   72.5959   68.3060 H   0  0  0  0  0  0  0  0  0  0  0  0
    3.8649   71.4971   68.3060 H   0  0  0  0  0  0  0  0  0  0  0  0
    6.4572   71.4478   66.7688 H   0  0  0  0  0  0  0  0  0  0  0  0
    7.0338   69.7644   67.1216 H   0  0  0  0  0  0  0  0  0  0  0  0
    3.6559   69.6883   67.9303 H   0  0  0  0  0  0  0  0  0  0  0  0
    1.8604   68.7206   66.4910 H   0  0  0  0  0  0  0  0  0  0  0  0
    4.4566   68.9798   63.0500 H   0  0  0  0  0  0  0  0  0  0  0  0
    6.2593   69.9508   64.4782 H   0  0  0  0  0  0  0  0  0  0  0  0
  2  1  1  0
  3  1  1  0
  4  3  2  0
  5  3  1  0
  6  1  1  0
  7  6  1  0
  8  7  2  0
  9  8  1  0
 10  9  2  0
 11 10  1  0
 12  7  1  0
 12 11  2  0
 13 10  1  0
  1 14  1  1
  2 15  1  0
  2 16  1  0
  2 17  1  0
  6 18  1  0
  6 19  1  0
  8 20  1  0
  9 21  1  0
 11 22  1  0
 12 23  1  0
M  CHG  2   2   1   5  -1
M  END
>  <score>  (8) 
-6.745

$$$$
=
     RDKit          3D

 23 23  0  0  0  0  0  0  0  0999 V2000
    1.1520   69.5600   67.6020 C   0  0  2  0  0  0  0  0  0  0  0  0
    0.0880   70.5300   68.1120 N   0  0  0  0  0  4  0  0  0  0  0  0
    0.4380   68.2320   67.2150 C   0  0  0  0  0  0  0  0  0  0  0  0
   -0.4900   68.2780   66.3830 O   0  0  0  0  0  0  0  0  0  0  0  0
    0.9830   67.2700   67.8540 O   0  0  0  0  0  1  0  0  0  0  0  0
    2.2400   69.3710   68.6600 C   0  0  0  0  0  0  0  0  0  0  0  0
    3.5950   69.8220   68.1590 C   0  0  0  0  0  0  0  0  0  0  0  0
    4.4680   70.5380   68.9920 C   0  0  0  0  0  0  0  0  0  0  0  0
    5.7080   70.9610   68.5100 C   0  0  0  0  0  0  0  0  0  0  0  0
    6.0720   70.6720   67.2000 C   0  0  0  0  0  0  0  0  0  0  0  0
    5.2220   69.9650   66.3610 C   0  0  0  0  0  0  0  0  0  0  0  0
    3.9820   69.5390   66.8390 C   0  0  0  0  0  0  0  0  0  0  0  0
    7.2620   71.0830   66.7420 F   0  0  0  0  0  0  0  0  0  0  0  0
    1.6617   69.9523   66.7096 H   0  0  0  0  0  0  0  0  0  0  0  0
    0.0885   70.5296   69.1420 H   0  0  0  0  0  0  0  0  0  0  0  0
    0.2956   71.4787   67.7690 H   0  0  0  0  0  0  0  0  0  0  0  0
   -0.8376   70.2358   67.7690 H   0  0  0  0  0  0  0  0  0  0  0  0
    1.9760   69.9591   69.5513 H   0  0  0  0  0  0  0  0  0  0  0  0
    2.3029   68.2990   68.8983 H   0  0  0  0  0  0  0  0  0  0  0  0
    4.1747   70.7666   70.0272 H   0  0  0  0  0  0  0  0  0  0  0  0
    6.3936   71.5202   69.1636 H   0  0  0  0  0  0  0  0  0  0  0  0
    5.5235   69.7421   65.3269 H   0  0  0  0  0  0  0  0  0  0  0  0
    3.3041   68.9786   66.1784 H   0  0  0  0  0  0  0  0  0  0  0  0
  2  1  1  0
  3  1  1  0
  4  3  2  0
  5  3  1  0
  6  1  1  0
  7  6  1  0
  8  7  2  0
  9  8  1  0
 10  9  2  0
 11 10  1  0
 12  7  1  0
 12 11  2  0
 13 10  1  0
  1 14  1  6
  2 15  1  0
  2 16  1  0
  2 17  1  0
  6 18  1  0
  6 19  1  0
  8 20  1  0
  9 21  1  0
 11 22  1  0
 12 23  1  0
M  CHG  2   2   1   5  -1
M  END
>  <score>  (9) 
-6.605

$$$$
