=
     RDKit          3D

 28 29  0  0  0  0  0  0  0  0999 V2000
    7.5120   71.0540   69.7230 C   0  0  0  0  0  0  0  0  0  0  0  0
    6.5320   70.6350   68.7010 N   0  0  0  0  0  4  0  0  0  0  0  0
    5.2160   70.6150   69.0050 C   0  0  0  0  0  0  0  0  0  0  0  0
    4.2740   70.2150   68.0560 C   0  0  0  0  0  0  0  0  0  0  0  0
    4.6770   69.8180   66.7750 C   0  0  0  0  0  0  0  0  0  0  0  0
    6.0500   69.8440   66.5030 C   0  0  0  0  0  0  0  0  0  0  0  0
    6.9600   70.2540   67.4780 C   0  0  0  0  0  0  0  0  0  0  0  0
    3.6970   69.3900   65.7570 C   0  0  0  0  0  0  0  0  0  0  0  0
    2.3750   69.0780   66.0980 C   0  0  0  0  0  0  0  0  0  0  0  0
    1.4630   68.6770   65.1210 C   0  0  0  0  0  0  0  0  0  0  0  0
    1.8400   68.5860   63.8270 N   0  0  0  0  0  4  0  0  0  0  0  0
    3.1090   68.8690   63.4580 C   0  0  0  0  0  0  0  0  0  0  0  0
    4.0490   69.2760   64.4060 C   0  0  0  0  0  0  0  0  0  0  0  0
    0.8630   68.1480   62.8100 C   0  0  0  0  0  0  0  0  0  0  0  0
    7.0954   70.8759   70.7253 H   0  0  0  0  0  0  0  0  0  0  0  0
    8.4384   70.4733   69.6025 H   0  0  0  0  0  0  0  0  0  0  0  0
    7.7323   72.1250   69.6025 H   0  0  0  0  0  0  0  0  0  0  0  0
    4.8838   70.9166   70.0093 H   0  0  0  0  0  0  0  0  0  0  0  0
    3.2053   70.2116   68.3167 H   0  0  0  0  0  0  0  0  0  0  0  0
    6.4149   69.5383   65.5113 H   0  0  0  0  0  0  0  0  0  0  0  0
    8.0357   70.2670   67.2485 H   0  0  0  0  0  0  0  0  0  0  0  0
    2.0522   69.1498   67.1471 H   0  0  0  0  0  0  0  0  0  0  0  0
    0.4291   68.4331   65.4067 H   0  0  0  0  0  0  0  0  0  0  0  0
    3.4033   68.7778   62.4020 H   0  0  0  0  0  0  0  0  0  0  0  0
    5.0762   69.5095   64.0892 H   0  0  0  0  0  0  0  0  0  0  0  0
   -0.0313   67.7471   63.3094 H   0  0  0  0  0  0  0  0  0  0  0  0
    0.5789   69.0049   62.1815 H   0  0  0  0  0  0  0  0  0  0  0  0
    1.3137   67.3658   62.1815 H   0  0  0  0  0  0  0  0  0  0  0  0
  2  1  1  0
  3  2  2  0
  4  3  1  0
  5  4  2  0
  6  5  1  0
  7  6  2  0
  7  2  1  0
  8  5  1  0
  9  8  2  0
 10  9  1  0
 11 10  2  0
 12 11  1  0
 13 12  2  0
 13  8  1  0
 14 11  1  0
  1 15  1  0
  1 16  1  0
  1 17  1  0
  3 18  1  0
  4 19  1  0
  6 20  1  0
  7 21  1  0
  9 22  1  0
 10 23  1  0
 12 24  1  0
 13 25  1  0
 14 26  1  0
 14 27  1  0
 14 28  1  0
M  CHG  2   2   1  11   1
M  END
>  <score>  (1) 
-7.793

$$$$
=
     RDKit          3D

 28 29  0  0  0  0  0  0  0  0999 V2000
    0.7090   68.0640   62.7710 C   0  0  0  0  0  0  0  0  0  0  0  0
    1.6980   68.5110   63.7730 N   0  0  0  0  0  4  0  0  0  0  0  0
    2.9690   68.7600   63.3940 C   0  0  0  0  0  0  0  0  0  0  0  0
    3.9210   69.1750   64.3270 C   0  0  0  0  0  0  0  0  0  0  0  0
    3.5750   69.3320   65.6740 C   0  0  0  0  0  0  0  0  0  0  0  0
    2.2490   69.0550   66.0290 C   0  0  0  0  0  0  0  0  0  0  0  0
    1.3270   68.6450   65.0650 C   0  0  0  0  0  0  0  0  0  0  0  0
    4.5670   69.7690   66.6790 C   0  0  0  0  0  0  0  0  0  0  0  0
    4.1810   70.1520   67.9690 C   0  0  0  0  0  0  0  0  0  0  0  0
    5.1330   70.5600   68.9040 C   0  0  0  0  0  0  0  0  0  0  0  0
    6.4440   70.5910   68.5800 N   0  0  0  0  0  4  0  0  0  0  0  0
    6.8550   70.2390   67.3430 C   0  0  0  0  0  0  0  0  0  0  0  0
    5.9340   69.8220   66.3810 C   0  0  0  0  0  0  0  0  0  0  0  0
    7.4340   71.0380   69.5810 C   0  0  0  0  0  0  0  0  0  0  0  0
   -0.1776   67.6633   63.2843 H   0  0  0  0  0  0  0  0  0  0  0  0
    0.4141   68.9163   62.1413 H   0  0  0  0  0  0  0  0  0  0  0  0
    1.1539   67.2795   62.1413 H   0  0  0  0  0  0  0  0  0  0  0  0
    3.2577   68.6348   62.3400 H   0  0  0  0  0  0  0  0  0  0  0  0
    4.9513   69.3802   64.0008 H   0  0  0  0  0  0  0  0  0  0  0  0
    1.9314   69.1615   67.0768 H   0  0  0  0  0  0  0  0  0  0  0  0
    0.2894   68.4291   65.3597 H   0  0  0  0  0  0  0  0  0  0  0  0
    3.1172   70.1311   68.2482 H   0  0  0  0  0  0  0  0  0  0  0  0
    4.8133   70.8588   69.9132 H   0  0  0  0  0  0  0  0  0  0  0  0
    7.9250   70.2813   67.0913 H   0  0  0  0  0  0  0  0  0  0  0  0
    6.2852   69.5324   65.3796 H   0  0  0  0  0  0  0  0  0  0  0  0
    7.0392   70.8597   70.5921 H   0  0  0  0  0  0  0  0  0  0  0  0
    8.3696   70.4750   69.4482 H   0  0  0  0  0  0  0  0  0  0  0  0
    7.6304   72.1121   69.4482 H   0  0  0  0  0  0  0  0  0  0  0  0
  2  1  1  0
  3  2  2  0
  4  3  1  0
  5  4  2  0
  6  5  1  0
  7  6  2  0
  7  2  1  0
  8  5  1  0
  9  8  2  0
 10  9  1  0
 11 10  2  0
 12 11  1  0
 13 12  2  0
 13  8  1  0
 14 11  1  0
  1 15  1  0
  1 16  1  0
  1 17  1  0
  3 18  1  0
  4 19  1  0
  6 20  1  0
  7 21  1  0
  9 22  1  0
 10 23  1  0
 12 24  1  0
 13 25  1  0
 14 26  1  0
 14 27  1  0
 14 28  1  0
M  CHG  2   2   1  11   1
M  END
>  <score>  (2) 
-7.776

$$$$
=
     RDKit          3D

 28 29  0  0  0  0  0  0  0  0999 V2000
    7.5150   71.0290   69.0140 C   0  0  0  0  0  0  0  0  0  0  0  0
    6.1570   70.6420   68.5820 N   0  0  0  0  0  4  0  0  0  0  0  0
    5.1260   70.7370   69.4490 C   0  0  0  0  0  0  0  0  0  0  0  0
    3.8360   70.3690   69.0620 C   0  0  0  0  0  0  0  0  0  0  0  0
    3.5910   69.8880   67.7710 C   0  0  0  0  0  0  0  0  0  0  0  0
    4.6870   69.7960   66.9050 C   0  0  0  0  0  0  0  0  0  0  0  0
    5.9610   70.1770   67.3290 C   0  0  0  0  0  0  0  0  0  0  0  0
    2.2340   69.4920   67.3410 C   0  0  0  0  0  0  0  0  0  0  0  0
    2.0300   68.6580   66.2350 C   0  0  0  0  0  0  0  0  0  0  0  0
    0.7400   68.2940   65.8460 C   0  0  0  0  0  0  0  0  0  0  0  0
   -0.3340   68.7390   66.5320 N   0  0  0  0  0  4  0  0  0  0  0  0
   -0.1810   69.5530   67.6000 C   0  0  0  0  0  0  0  0  0  0  0  0
    1.0930   69.9360   68.0210 C   0  0  0  0  0  0  0  0  0  0  0  0
   -1.6920   68.3510   66.0970 C   0  0  0  0  0  0  0  0  0  0  0  0
    7.5604   71.0419   70.1130 H   0  0  0  0  0  0  0  0  0  0  0  0
    8.2442   70.3029   68.6254 H   0  0  0  0  0  0  0  0  0  0  0  0
    7.7519   72.0304   68.6254 H   0  0  0  0  0  0  0  0  0  0  0  0
    5.3041   71.1076   70.4692 H   0  0  0  0  0  0  0  0  0  0  0  0
    3.0055   70.4579   69.7778 H   0  0  0  0  0  0  0  0  0  0  0  0
    4.5429   69.4201   65.8813 H   0  0  0  0  0  0  0  0  0  0  0  0
    6.8125   70.0980   66.6371 H   0  0  0  0  0  0  0  0  0  0  0  0
    2.8953   68.2859   65.6669 H   0  0  0  0  0  0  0  0  0  0  0  0
    0.5974   67.6394   64.9736 H   0  0  0  0  0  0  0  0  0  0  0  0
   -1.0671   69.9162   68.1412 H   0  0  0  0  0  0  0  0  0  0  0  0
    1.2023   70.5935   68.8961 H   0  0  0  0  0  0  0  0  0  0  0  0
   -2.3225   68.1709   66.9802 H   0  0  0  0  0  0  0  0  0  0  0  0
   -2.1289   69.1603   65.4935 H   0  0  0  0  0  0  0  0  0  0  0  0
   -1.6354   67.4331   65.4935 H   0  0  0  0  0  0  0  0  0  0  0  0
  2  1  1  0
  3  2  2  0
  4  3  1  0
  5  4  2  0
  6  5  1  0
  7  6  2  0
  7  2  1  0
  8  5  1  0
  9  8  2  0
 10  9  1  0
 11 10  2  0
 12 11  1  0
 13 12  2  0
 13  8  1  0
 14 11  1  0
  1 15  1  0
  1 16  1  0
  1 17  1  0
  3 18  1  0
  4 19  1  0
  6 20  1  0
  7 21  1  0
  9 22  1  0
 10 23  1  0
 12 24  1  0
 13 25  1  0
 14 26  1  0
 14 27  1  0
 14 28  1  0
M  CHG  2   2   1  11   1
M  END
>  <score>  (3) 
-7.336

$$$$
=
     RDKit          3D

 28 29  0  0  0  0  0  0  0  0999 V2000
   -2.5680   67.2080   67.2930 C   0  0  0  0  0  0  0  0  0  0  0  0
   -1.2170   67.7890   67.4300 N   0  0  0  0  0  4  0  0  0  0  0  0
   -0.2580   67.1060   68.0910 C   0  0  0  0  0  0  0  0  0  0  0  0
    1.0220   67.6420   68.2380 C   0  0  0  0  0  0  0  0  0  0  0  0
    1.3320   68.9000   67.7100 C   0  0  0  0  0  0  0  0  0  0  0  0
    0.3080   69.5810   67.0400 C   0  0  0  0  0  0  0  0  0  0  0  0
   -0.9580   69.0090   66.9110 C   0  0  0  0  0  0  0  0  0  0  0  0
    2.6810   69.4860   67.8550 C   0  0  0  0  0  0  0  0  0  0  0  0
    3.6230   69.4180   66.8210 C   0  0  0  0  0  0  0  0  0  0  0  0
    4.8910   69.9800   66.9770 C   0  0  0  0  0  0  0  0  0  0  0  0
    5.2300   70.6000   68.1270 N   0  0  0  0  0  4  0  0  0  0  0  0
    4.3530   70.6790   69.1520 C   0  0  0  0  0  0  0  0  0  0  0  0
    3.0740   70.1320   69.0330 C   0  0  0  0  0  0  0  0  0  0  0  0
    6.5820   71.1780   68.2760 C   0  0  0  0  0  0  0  0  0  0  0  0
   -2.9918   67.0258   68.2916 H   0  0  0  0  0  0  0  0  0  0  0  0
   -3.2140   67.9079   66.7427 H   0  0  0  0  0  0  0  0  0  0  0  0
   -2.5044   66.2577   66.7427 H   0  0  0  0  0  0  0  0  0  0  0  0
   -0.4877   66.1184   68.5174 H   0  0  0  0  0  0  0  0  0  0  0  0
    1.7941   67.0704   68.7738 H   0  0  0  0  0  0  0  0  0  0  0  0
    0.5035   70.5752   66.6118 H   0  0  0  0  0  0  0  0  0  0  0  0
   -1.7522   69.5562   66.3820 H   0  0  0  0  0  0  0  0  0  0  0  0
    3.3612   68.9171   65.8773 H   0  0  0  0  0  0  0  0  0  0  0  0
    5.6202   69.9171   66.1558 H   0  0  0  0  0  0  0  0  0  0  0  0
    4.6489   71.1778   70.0867 H   0  0  0  0  0  0  0  0  0  0  0  0
    2.3682   70.2094   69.8732 H   0  0  0  0  0  0  0  0  0  0  0  0
    6.8213   71.2803   69.3448 H   0  0  0  0  0  0  0  0  0  0  0  0
    7.3186   70.5161   67.7971 H   0  0  0  0  0  0  0  0  0  0  0  0
    6.6124   72.1678   67.7971 H   0  0  0  0  0  0  0  0  0  0  0  0
  2  1  1  0
  3  2  2  0
  4  3  1  0
  5  4  2  0
  6  5  1  0
  7  6  2  0
  7  2  1  0
  8  5  1  0
  9  8  2  0
 10  9  1  0
 11 10  2  0
 12 11  1  0
 13 12  2  0
 13  8  1  0
 14 11  1  0
  1 15  1  0
  1 16  1  0
  1 17  1  0
  3 18  1  0
  4 19  1  0
  6 20  1  0
  7 21  1  0
  9 22  1  0
 10 23  1  0
 12 24  1  0
 13 25  1  0
 14 26  1  0
 14 27  1  0
 14 28  1  0
M  CHG  2   2   1  11   1
M  END
>  <score>  (4) 
-7.307

$$$$
=
     RDKit          3D

 28 29  0  0  0  0  0  0  0  0999 V2000
    6.2630   70.7910   70.0770 C   0  0  0  0  0  0  0  0  0  0  0  0
    5.8010   70.4500   68.7170 N   0  0  0  0  0  4  0  0  0  0  0  0
    4.4950   70.1860   68.5000 C   0  0  0  0  0  0  0  0  0  0  0  0
    4.0400   69.8540   67.2230 C   0  0  0  0  0  0  0  0  0  0  0  0
    4.9310   69.7810   66.1460 C   0  0  0  0  0  0  0  0  0  0  0  0
    6.2780   70.0530   66.4140 C   0  0  0  0  0  0  0  0  0  0  0  0
    6.6930   70.3850   67.7040 C   0  0  0  0  0  0  0  0  0  0  0  0
    4.4710   69.4310   64.7860 C   0  0  0  0  0  0  0  0  0  0  0  0
    5.3350   69.4790   63.6860 C   0  0  0  0  0  0  0  0  0  0  0  0
    4.8820   69.1420   62.4100 C   0  0  0  0  0  0  0  0  0  0  0  0
    3.6000   68.7620   62.2150 N   0  0  0  0  0  4  0  0  0  0  0  0
    2.7320   68.7130   63.2490 C   0  0  0  0  0  0  0  0  0  0  0  0
    3.1490   69.0390   64.5410 C   0  0  0  0  0  0  0  0  0  0  0  0
    3.1370   68.4210   60.8550 C   0  0  0  0  0  0  0  0  0  0  0  0
    5.6090   70.3083   70.8182 H   0  0  0  0  0  0  0  0  0  0  0  0
    7.2955   70.4368   70.2131 H   0  0  0  0  0  0  0  0  0  0  0  0
    6.2287   71.8820   70.2131 H   0  0  0  0  0  0  0  0  0  0  0  0
    3.7830   70.2330   69.3372 H   0  0  0  0  0  0  0  0  0  0  0  0
    2.9716   69.6479   67.0615 H   0  0  0  0  0  0  0  0  0  0  0  0
    7.0161   70.0045   65.5998 H   0  0  0  0  0  0  0  0  0  0  0  0
    7.7551   70.5956   67.8981 H   0  0  0  0  0  0  0  0  0  0  0  0
    6.3817   69.7855   63.8288 H   0  0  0  0  0  0  0  0  0  0  0  0
    5.5740   69.1860   61.5560 H   0  0  0  0  0  0  0  0  0  0  0  0
    1.6884   68.4139   63.0716 H   0  0  0  0  0  0  0  0  0  0  0  0
    2.4326   68.9875   65.3741 H   0  0  0  0  0  0  0  0  0  0  0  0
    2.2529   67.7699   60.9212 H   0  0  0  0  0  0  0  0  0  0  0  0
    2.8740   69.3427   60.3153 H   0  0  0  0  0  0  0  0  0  0  0  0
    3.9392   67.8964   60.3153 H   0  0  0  0  0  0  0  0  0  0  0  0
  2  1  1  0
  3  2  2  0
  4  3  1  0
  5  4  2  0
  6  5  1  0
  7  6  2  0
  7  2  1  0
  8  5  1  0
  9  8  2  0
 10  9  1  0
 11 10  2  0
 12 11  1  0
 13 12  2  0
 13  8  1  0
 14 11  1  0
  1 15  1  0
  1 16  1  0
  1 17  1  0
  3 18  1  0
  4 19  1  0
  6 20  1  0
  7 21  1  0
  9 22  1  0
 10 23  1  0
 12 24  1  0
 13 25  1  0
 14 26  1  0
 14 27  1  0
 14 28  1  0
M  CHG  2   2   1  11   1
M  END
>  <score>  (5) 
-7.187

$$$$
=
     RDKit          3D

 28 29  0  0  0  0  0  0  0  0999 V2000
   -1.7570   68.3150   65.8490 C   0  0  0  0  0  0  0  0  0  0  0  0
   -0.4210   68.6970   66.3490 N   0  0  0  0  0  4  0  0  0  0  0  0
   -0.3140   69.5670   67.3770 C   0  0  0  0  0  0  0  0  0  0  0  0
    0.9400   69.9460   67.8590 C   0  0  0  0  0  0  0  0  0  0  0  0
    2.1090   69.4380   67.2810 C   0  0  0  0  0  0  0  0  0  0  0  0
    1.9560   68.5460   66.2120 C   0  0  0  0  0  0  0  0  0  0  0  0
    0.6840   68.1890   65.7610 C   0  0  0  0  0  0  0  0  0  0  0  0
    3.4450   69.8270   67.7750 C   0  0  0  0  0  0  0  0  0  0  0  0
    3.6450   70.2350   69.0990 C   0  0  0  0  0  0  0  0  0  0  0  0
    4.9160   70.5970   69.5480 C   0  0  0  0  0  0  0  0  0  0  0  0
    5.9760   70.5580   68.7120 N   0  0  0  0  0  4  0  0  0  0  0  0
    5.8230   70.1780   67.4240 C   0  0  0  0  0  0  0  0  0  0  0  0
    4.5690   69.8060   66.9390 C   0  0  0  0  0  0  0  0  0  0  0  0
    7.3110   70.9560   69.2030 C   0  0  0  0  0  0  0  0  0  0  0  0
   -2.4263   68.1236   66.7007 H   0  0  0  0  0  0  0  0  0  0  0  0
   -2.1668   69.1320   65.2369 H   0  0  0  0  0  0  0  0  0  0  0  0
   -1.6730   67.4049   65.2369 H   0  0  0  0  0  0  0  0  0  0  0  0
   -1.2231   69.9803   67.8382 H   0  0  0  0  0  0  0  0  0  0  0  0
    1.0100   70.6505   68.7009 H   0  0  0  0  0  0  0  0  0  0  0  0
    2.8461   68.1230   65.7234 H   0  0  0  0  0  0  0  0  0  0  0  0
    0.5806   67.4880   64.9196 H   0  0  0  0  0  0  0  0  0  0  0  0
    2.7919   70.2707   69.7925 H   0  0  0  0  0  0  0  0  0  0  0  0
    5.0555   70.9167   70.5912 H   0  0  0  0  0  0  0  0  0  0  0  0
    6.6943   70.1619   66.7528 H   0  0  0  0  0  0  0  0  0  0  0  0
    4.4617   69.4931   65.8899 H   0  0  0  0  0  0  0  0  0  0  0  0
    7.3120   70.9563   70.3030 H   0  0  0  0  0  0  0  0  0  0  0  0
    8.0642   70.2433   68.8358 H   0  0  0  0  0  0  0  0  0  0  0  0
    7.5510   71.9648   68.8358 H   0  0  0  0  0  0  0  0  0  0  0  0
  2  1  1  0
  3  2  2  0
  4  3  1  0
  5  4  2  0
  6  5  1  0
  7  6  2  0
  7  2  1  0
  8  5  1  0
  9  8  2  0
 10  9  1  0
 11 10  2  0
 12 11  1  0
 13 12  2  0
 13  8  1  0
 14 11  1  0
  1 15  1  0
  1 16  1  0
  1 17  1  0
  3 18  1  0
  4 19  1  0
  6 20  1  0
  7 21  1  0
  9 22  1  0
 10 23  1  0
 12 24  1  0
 13 25  1  0
 14 26  1  0
 14 27  1  0
 14 28  1  0
M  CHG  2   2   1  11   1
M  END
>  <score>  (6) 
-7.185

$$$$
=
     RDKit          3D

 28 29  0  0  0  0  0  0  0  0999 V2000
    6.7050   70.7230   66.6950 C   0  0  0  0  0  0  0  0  0  0  0  0
    5.3400   70.1680   66.7870 N   0  0  0  0  0  4  0  0  0  0  0  0
    4.7880   69.5670   65.7110 C   0  0  0  0  0  0  0  0  0  0  0  0
    3.4950   69.0440   65.7750 C   0  0  0  0  0  0  0  0  0  0  0  0
    2.7460   69.1400   66.9530 C   0  0  0  0  0  0  0  0  0  0  0  0
    3.3500   69.7780   68.0430 C   0  0  0  0  0  0  0  0  0  0  0  0
    4.6460   70.2860   67.9400 C   0  0  0  0  0  0  0  0  0  0  0  0
    1.3760   68.5930   67.0420 C   0  0  0  0  0  0  0  0  0  0  0  0
    0.3870   68.9420   66.1140 C   0  0  0  0  0  0  0  0  0  0  0  0
   -0.9000   68.4130   66.2140 C   0  0  0  0  0  0  0  0  0  0  0  0
   -1.2140   67.5540   67.2070 N   0  0  0  0  0  4  0  0  0  0  0  0
   -0.2910   67.1990   68.1280 C   0  0  0  0  0  0  0  0  0  0  0  0
    1.0080   67.7040   68.0600 C   0  0  0  0  0  0  0  0  0  0  0  0
   -2.5860   67.0140   67.3020 C   0  0  0  0  0  0  0  0  0  0  0  0
    7.1039   70.8852   67.7072 H   0  0  0  0  0  0  0  0  0  0  0  0
    7.3524   70.0167   66.1546 H   0  0  0  0  0  0  0  0  0  0  0  0
    6.6758   71.6807   66.1546 H   0  0  0  0  0  0  0  0  0  0  0  0
    5.3621   69.4888   64.7759 H   0  0  0  0  0  0  0  0  0  0  0  0
    3.0614   68.5522   64.8917 H   0  0  0  0  0  0  0  0  0  0  0  0
    2.7983   69.8799   68.9891 H   0  0  0  0  0  0  0  0  0  0  0  0
    5.1060   70.7865   68.8048 H   0  0  0  0  0  0  0  0  0  0  0  0
    0.6272   69.6399   65.2984 H   0  0  0  0  0  0  0  0  0  0  0  0
   -1.6655   68.6983   65.4774 H   0  0  0  0  0  0  0  0  0  0  0  0
   -0.5658   66.5067   68.9374 H   0  0  0  0  0  0  0  0  0  0  0  0
    1.7503   67.4010   68.8132 H   0  0  0  0  0  0  0  0  0  0  0  0
   -2.8644   66.9044   68.3605 H   0  0  0  0  0  0  0  0  0  0  0  0
   -3.2864   67.7035   66.8081 H   0  0  0  0  0  0  0  0  0  0  0  0
   -2.6286   66.0320   66.8081 H   0  0  0  0  0  0  0  0  0  0  0  0
  2  1  1  0
  3  2  2  0
  4  3  1  0
  5  4  2  0
  6  5  1  0
  7  6  2  0
  7  2  1  0
  8  5  1  0
  9  8  2  0
 10  9  1  0
 11 10  2  0
 12 11  1  0
 13 12  2  0
 13  8  1  0
 14 11  1  0
  1 15  1  0
  1 16  1  0
  1 17  1  0
  3 18  1  0
  4 19  1  0
  6 20  1  0
  7 21  1  0
  9 22  1  0
 10 23  1  0
 12 24  1  0
 13 25  1  0
 14 26  1  0
 14 27  1  0
 14 28  1  0
M  CHG  2   2   1  11   1
M  END
>  <score>  (7) 
-7.063

$$$$
=
     RDKit          3D

 28 29  0  0  0  0  0  0  0  0999 V2000
   -2.7550   67.6340   67.3330 C   0  0  0  0  0  0  0  0  0  0  0  0
   -1.4930   67.8770   66.6080 N   0  0  0  0  0  4  0  0  0  0  0  0
   -0.3560   67.2780   67.0230 C   0  0  0  0  0  0  0  0  0  0  0  0
    0.8500   67.5010   66.3560 C   0  0  0  0  0  0  0  0  0  0  0  0
    0.9030   68.3570   65.2490 C   0  0  0  0  0  0  0  0  0  0  0  0
   -0.2950   68.9660   64.8560 C   0  0  0  0  0  0  0  0  0  0  0  0
   -1.4800   68.7140   65.5480 C   0  0  0  0  0  0  0  0  0  0  0  0
    2.1680   68.6080   64.5290 C   0  0  0  0  0  0  0  0  0  0  0  0
    2.2820   68.3880   63.1510 C   0  0  0  0  0  0  0  0  0  0  0  0
    3.4860   68.6330   62.4890 C   0  0  0  0  0  0  0  0  0  0  0  0
    4.5610   69.0890   63.1660 N   0  0  0  0  0  4  0  0  0  0  0  0
    4.4950   69.3050   64.4980 C   0  0  0  0  0  0  0  0  0  0  0  0
    3.3080   69.0750   65.1960 C   0  0  0  0  0  0  0  0  0  0  0  0
    5.8290   69.3310   62.4480 C   0  0  0  0  0  0  0  0  0  0  0  0
   -2.5682   67.6700   68.4164 H   0  0  0  0  0  0  0  0  0  0  0  0
   -3.4886   68.4074   67.0615 H   0  0  0  0  0  0  0  0  0  0  0  0
   -3.1490   66.6435   67.0615 H   0  0  0  0  0  0  0  0  0  0  0  0
   -0.3803   66.6079   67.8950 H   0  0  0  0  0  0  0  0  0  0  0  0
    1.7660   67.0003   66.7028 H   0  0  0  0  0  0  0  0  0  0  0  0
   -0.3019   69.6492   63.9939 H   0  0  0  0  0  0  0  0  0  0  0  0
   -2.4124   69.2016   65.2273 H   0  0  0  0  0  0  0  0  0  0  0  0
    1.4143   68.0185   62.5847 H   0  0  0  0  0  0  0  0  0  0  0  0
    3.5595   68.4530   61.4063 H   0  0  0  0  0  0  0  0  0  0  0  0
    5.3838   69.6650   65.0370 H   0  0  0  0  0  0  0  0  0  0  0  0
    3.2675   69.2621   66.2792 H   0  0  0  0  0  0  0  0  0  0  0  0
    6.6389   69.4856   63.1761 H   0  0  0  0  0  0  0  0  0  0  0  0
    6.0645   68.4616   61.8166 H   0  0  0  0  0  0  0  0  0  0  0  0
    5.7278   70.2260   61.8166 H   0  0  0  0  0  0  0  0  0  0  0  0
  2  1  1  0
  3  2  2  0
  4  3  1  0
  5  4  2  0
  6  5  1  0
  7  6  2  0
  7  2  1  0
  8  5  1  0
  9  8  2  0
 10  9  1  0
 11 10  2  0
 12 11  1  0
 13 12  2  0
 13  8  1  0
 14 11  1  0
  1 15  1  0
  1 16  1  0
  1 17  1  0
  3 18  1  0
  4 19  1  0
  6 20  1  0
  7 21  1  0
  9 22  1  0
 10 23  1  0
 12 24  1  0
 13 25  1  0
 14 26  1  0
 14 27  1  0
 14 28  1  0
M  CHG  2   2   1  11   1
M  END
>  <score>  (8) 
-6.743

$$$$
=
     RDKit          3D

 28 29  0  0  0  0  0  0  0  0999 V2000
    2.2750   62.0810   73.3880 C   0  0  0  0  0  0  0  0  0  0  0  0
    1.8470   63.1120   72.4200 N   0  0  0  0  0  4  0  0  0  0  0  0
    0.6560   63.7280   72.5810 C   0  0  0  0  0  0  0  0  0  0  0  0
    0.2300   64.6990   71.6740 C   0  0  0  0  0  0  0  0  0  0  0  0
    1.0270   65.0460   70.5760 C   0  0  0  0  0  0  0  0  0  0  0  0
    2.2500   64.3780   70.4400 C   0  0  0  0  0  0  0  0  0  0  0  0
    2.6410   63.4160   71.3710 C   0  0  0  0  0  0  0  0  0  0  0  0
    0.5950   66.0710   69.6030 C   0  0  0  0  0  0  0  0  0  0  0  0
    1.4440   67.1140   69.2140 C   0  0  0  0  0  0  0  0  0  0  0  0
    1.0180   68.0710   68.2920 C   0  0  0  0  0  0  0  0  0  0  0  0
   -0.2210   68.0060   67.7580 N   0  0  0  0  0  4  0  0  0  0  0  0
   -1.0730   67.0200   68.1150 C   0  0  0  0  0  0  0  0  0  0  0  0
   -0.6830   66.0420   69.0310 C   0  0  0  0  0  0  0  0  0  0  0  0
   -0.6560   69.0350   66.7930 C   0  0  0  0  0  0  0  0  0  0  0  0
    2.1207   62.4527   74.4117 H   0  0  0  0  0  0  0  0  0  0  0  0
    1.6820   61.1670   73.2365 H   0  0  0  0  0  0  0  0  0  0  0  0
    3.3410   61.8557   73.2365 H   0  0  0  0  0  0  0  0  0  0  0  0
    0.0159   63.4618   73.4350 H   0  0  0  0  0  0  0  0  0  0  0  0
   -0.7400   65.1961   71.8227 H   0  0  0  0  0  0  0  0  0  0  0  0
    2.9085   64.6141   69.5911 H   0  0  0  0  0  0  0  0  0  0  0  0
    3.6050   62.9002   71.2496 H   0  0  0  0  0  0  0  0  0  0  0  0
    2.4564   67.1798   69.6391 H   0  0  0  0  0  0  0  0  0  0  0  0
    1.6968   68.8850   67.9977 H   0  0  0  0  0  0  0  0  0  0  0  0
   -2.0828   66.9878   67.6799 H   0  0  0  0  0  0  0  0  0  0  0  0
   -1.3855   65.2415   69.3061 H   0  0  0  0  0  0  0  0  0  0  0  0
   -1.0280   69.9150   67.3382 H   0  0  0  0  0  0  0  0  0  0  0  0
    0.1952   69.3281   66.1609 H   0  0  0  0  0  0  0  0  0  0  0  0
   -1.4593   68.6287   66.1609 H   0  0  0  0  0  0  0  0  0  0  0  0
  2  1  1  0
  3  2  2  0
  4  3  1  0
  5  4  2  0
  6  5  1  0
  7  6  2  0
  7  2  1  0
  8  5  1  0
  9  8  2  0
 10  9  1  0
 11 10  2  0
 12 11  1  0
 13 12  2  0
 13  8  1  0
 14 11  1  0
  1 15  1  0
  1 16  1  0
  1 17  1  0
  3 18  1  0
  4 19  1  0
  6 20  1  0
  7 21  1  0
  9 22  1  0
 10 23  1  0
 12 24  1  0
 13 25  1  0
 14 26  1  0
 14 27  1  0
 14 28  1  0
M  CHG  2   2   1  11   1
M  END
>  <score>  (9) 
-6.019

$$$$
