=
     RDKit          3D

 62 65  0  0  0  0  0  0  0  0999 V2000
    0.6350   65.8300   69.8420 C   0  0  0  0  0  0  0  0  0  0  0  0
   -0.4310   65.8110   69.0970 N   0  0  0  0  0  0  0  0  0  0  0  0
   -0.4990   67.0320   68.4770 N   0  0  0  0  0  0  0  0  0  0  0  0
    0.6690   67.8720   68.7210 C   0  0  1  0  0  0  0  0  0  0  0  0
    1.3890   67.1380   69.8460 C   0  0  0  0  0  0  0  0  0  0  0  0
   -1.5990   67.4480   67.7510 C   0  0  0  0  0  0  0  0  0  0  0  0
   -1.6890   68.5700   67.2490 O   0  0  0  0  0  0  0  0  0  0  0  0
   -2.7060   66.4350   67.6160 C   0  0  0  0  0  0  0  0  0  0  0  0
    2.6880   62.8920   71.0290 C   0  0  0  0  0  0  0  0  0  0  0  0
    2.2360   63.9850   70.2790 C   0  0  0  0  0  0  0  0  0  0  0  0
    1.0750   64.6720   70.6550 C   0  0  0  0  0  0  0  0  0  0  0  0
    0.3620   64.2620   71.7820 C   0  0  0  0  0  0  0  0  0  0  0  0
    0.8100   63.1730   72.5380 C   0  0  0  0  0  0  0  0  0  0  0  0
    1.9700   62.4850   72.1700 C   0  0  0  0  0  0  0  0  0  0  0  0
    3.8310   61.4140   69.5350 C   0  0  0  0  0  0  0  0  0  0  0  0
    3.8200   62.1700   70.7380 O   0  0  0  0  0  0  0  0  0  0  0  0
    2.4850   61.4130   72.8550 O   0  0  0  0  0  0  0  0  0  0  0  0
    1.8390   60.1570   72.7050 C   0  0  0  0  0  0  0  0  0  0  0  0
    1.5230   68.0360   67.4740 C   0  0  0  0  0  0  0  0  0  0  0  0
    1.4630   67.0790   66.4560 C   0  0  0  0  0  0  0  0  0  0  0  0
    2.2690   67.1930   65.3170 C   0  0  0  0  0  0  0  0  0  0  0  0
    3.1650   68.2600   65.1430 C   0  0  0  0  0  0  0  0  0  0  0  0
    3.2160   69.2120   66.1710 C   0  0  0  0  0  0  0  0  0  0  0  0
    2.4120   69.1060   67.3140 C   0  0  0  0  0  0  0  0  0  0  0  0
    3.9830   68.3130   64.0040 N   0  0  0  0  0  0  0  0  0  0  0  0
    4.8700   69.4980   63.9420 C   0  0  0  0  0  0  0  0  0  0  0  0
    5.9160   69.3820   62.8100 C   0  0  0  0  0  0  0  0  0  0  0  0
    5.3630   68.6320   61.6080 N   0  0  0  0  0  4  0  0  0  0  0  0
    4.9600   67.2060   61.9890 C   0  0  0  0  0  0  0  0  0  0  0  0
    4.5500   67.0610   63.4770 C   0  0  0  0  0  0  0  0  0  0  0  0
    4.2370   69.3710   60.9350 C   0  0  0  0  0  0  0  0  0  0  0  0
    0.4142   68.9070   68.9928 H   0  0  0  0  0  0  0  0  0  0  0  0
    2.4558   66.9933   69.6200 H   0  0  0  0  0  0  0  0  0  0  0  0
    1.3911   67.6648   70.8116 H   0  0  0  0  0  0  0  0  0  0  0  0
   -3.0440   66.1257   68.6161 H   0  0  0  0  0  0  0  0  0  0  0  0
   -3.5475   66.8824   67.0667 H   0  0  0  0  0  0  0  0  0  0  0  0
   -2.3348   65.5572   67.0667 H   0  0  0  0  0  0  0  0  0  0  0  0
    2.7966   64.3060   69.3887 H   0  0  0  0  0  0  0  0  0  0  0  0
   -0.5537   64.7956   72.0767 H   0  0  0  0  0  0  0  0  0  0  0  0
    0.2458   62.8563   73.4276 H   0  0  0  0  0  0  0  0  0  0  0  0
    3.8466   60.3409   69.7764 H   0  0  0  0  0  0  0  0  0  0  0  0
    2.9294   61.6448   68.9486 H   0  0  0  0  0  0  0  0  0  0  0  0
    4.7255   61.6710   68.9486 H   0  0  0  0  0  0  0  0  0  0  0  0
    1.6221   59.7354   73.6976 H   0  0  0  0  0  0  0  0  0  0  0  0
    0.8986   60.2922   72.1506 H   0  0  0  0  0  0  0  0  0  0  0  0
    2.4960   59.4707   72.1506 H   0  0  0  0  0  0  0  0  0  0  0  0
    0.7743   66.2266   66.5514 H   0  0  0  0  0  0  0  0  0  0  0  0
    2.1982   66.4232   64.5345 H   0  0  0  0  0  0  0  0  0  0  0  0
    3.9051   70.0644   66.0780 H   0  0  0  0  0  0  0  0  0  0  0  0
    2.4803   69.8751   68.0974 H   0  0  0  0  0  0  0  0  0  0  0  0
    4.2548   70.3928   63.7663 H   0  0  0  0  0  0  0  0  0  0  0  0
    5.4107   69.5670   64.8974 H   0  0  0  0  0  0  0  0  0  0  0  0
    6.2127   70.3929   62.4938 H   0  0  0  0  0  0  0  0  0  0  0  0
    6.7793   68.8208   63.1969 H   0  0  0  0  0  0  0  0  0  0  0  0
    6.1217   68.5711   60.9141 H   0  0  0  0  0  0  0  0  0  0  0  0
    4.1085   66.9044   61.3613 H   0  0  0  0  0  0  0  0  0  0  0  0
    5.8400   66.5654   61.8298 H   0  0  0  0  0  0  0  0  0  0  0  0
    3.7979   66.2631   63.5645 H   0  0  0  0  0  0  0  0  0  0  0  0
    5.4495   66.8164   64.0609 H   0  0  0  0  0  0  0  0  0  0  0  0
    3.5752   69.8053   61.6988 H   0  0  0  0  0  0  0  0  0  0  0  0
    4.6494   70.1747   60.3072 H   0  0  0  0  0  0  0  0  0  0  0  0
    3.6638   68.6729   60.3072 H   0  0  0  0  0  0  0  0  0  0  0  0
  2  1  2  0
  3  2  1  0
  4  3  1  0
  5  4  1  0
  5  1  1  0
  6  3  1  0
  7  6  2  0
  8  6  1  0
 10  9  2  0
 11 10  1  0
 11  1  1  0
 12 11  2  0
 13 12  1  0
 14 13  2  0
 14  9  1  0
 16 15  1  0
 16  9  1  0
 17 14  1  0
 18 17  1  0
 19  4  1  0
 20 19  2  0
 21 20  1  0
 22 21  2  0
 23 22  1  0
 24 23  2  0
 24 19  1  0
 25 22  1  0
 26 25  1  0
 27 26  1  0
 28 27  1  0
 29 28  1  0
 30 29  1  0
 30 25  1  0
 31 28  1  0
  4 32  1  1
  5 33  1  0
  5 34  1  0
  8 35  1  0
  8 36  1  0
  8 37  1  0
 10 38  1  0
 12 39  1  0
 13 40  1  0
 15 41  1  0
 15 42  1  0
 15 43  1  0
 18 44  1  0
 18 45  1  0
 18 46  1  0
 20 47  1  0
 21 48  1  0
 23 49  1  0
 24 50  1  0
 26 51  1  0
 26 52  1  0
 27 53  1  0
 27 54  1  0
 28 55  1  0
 29 56  1  0
 29 57  1  0
 30 58  1  0
 30 59  1  0
 31 60  1  0
 31 61  1  0
 31 62  1  0
M  CHG  1  28   1
M  END
>  <score>  (1) 
-9.419

$$$$
=
     RDKit          3D

 62 65  0  0  0  0  0  0  0  0999 V2000
    0.5840   65.9500   69.9510 C   0  0  0  0  0  0  0  0  0  0  0  0
   -0.4740   65.9170   69.1940 N   0  0  0  0  0  0  0  0  0  0  0  0
   -0.4870   67.0900   68.4850 N   0  0  0  0  0  0  0  0  0  0  0  0
    0.7110   67.8990   68.6820 C   0  0  1  0  0  0  0  0  0  0  0  0
    1.3890   67.2240   69.8690 C   0  0  0  0  0  0  0  0  0  0  0  0
   -1.5620   67.4930   67.7150 C   0  0  0  0  0  0  0  0  0  0  0  0
   -1.6020   68.5770   67.1300 O   0  0  0  0  0  0  0  0  0  0  0  0
   -2.7060   66.5150   67.6400 C   0  0  0  0  0  0  0  0  0  0  0  0
    0.4730   63.4910   72.8140 C   0  0  0  0  0  0  0  0  0  0  0  0
    0.1470   64.5400   71.9460 C   0  0  0  0  0  0  0  0  0  0  0  0
    0.9690   64.8390   70.8530 C   0  0  0  0  0  0  0  0  0  0  0  0
    2.1240   64.0880   70.6290 C   0  0  0  0  0  0  0  0  0  0  0  0
    2.4550   63.0370   71.4900 C   0  0  0  0  0  0  0  0  0  0  0  0
    1.6360   62.7300   72.5820 C   0  0  0  0  0  0  0  0  0  0  0  0
   -0.1450   63.8910   75.0900 C   0  0  0  0  0  0  0  0  0  0  0  0
   -0.2810   63.1240   73.9010 O   0  0  0  0  0  0  0  0  0  0  0  0
    1.8800   61.7140   73.4720 O   0  0  0  0  0  0  0  0  0  0  0  0
    3.1770   61.1370   73.4820 C   0  0  0  0  0  0  0  0  0  0  0  0
    1.5840   67.9370   67.4380 C   0  0  0  0  0  0  0  0  0  0  0  0
    2.3120   69.0910   67.1330 C   0  0  0  0  0  0  0  0  0  0  0  0
    3.0930   69.1590   65.9720 C   0  0  0  0  0  0  0  0  0  0  0  0
    3.1820   68.0860   65.0710 C   0  0  0  0  0  0  0  0  0  0  0  0
    2.4470   66.9360   65.3900 C   0  0  0  0  0  0  0  0  0  0  0  0
    1.6640   66.8590   66.5490 C   0  0  0  0  0  0  0  0  0  0  0  0
    3.9440   68.2130   63.9000 N   0  0  0  0  0  0  0  0  0  0  0  0
    4.8080   69.4160   63.8590 C   0  0  0  0  0  0  0  0  0  0  0  0
    5.8010   69.3780   62.6750 C   0  0  0  0  0  0  0  0  0  0  0  0
    5.2040   68.6810   61.4620 N   0  0  0  0  0  4  0  0  0  0  0  0
    4.8410   67.2300   61.7860 C   0  0  0  0  0  0  0  0  0  0  0  0
    4.5040   67.0010   63.2810 C   0  0  0  0  0  0  0  0  0  0  0  0
    4.0360   69.4340   60.8820 C   0  0  0  0  0  0  0  0  0  0  0  0
    0.4950   68.9606   68.8728 H   0  0  0  0  0  0  0  0  0  0  0  0
    2.4517   67.0218   69.6697 H   0  0  0  0  0  0  0  0  0  0  0  0
    1.4012   67.8211   70.7928 H   0  0  0  0  0  0  0  0  0  0  0  0
   -3.0236   66.2435   68.6576 H   0  0  0  0  0  0  0  0  0  0  0  0
   -3.5484   66.9765   67.1038 H   0  0  0  0  0  0  0  0  0  0  0  0
   -2.3811   65.6111   67.1038 H   0  0  0  0  0  0  0  0  0  0  0  0
   -0.7618   65.1336   72.1242 H   0  0  0  0  0  0  0  0  0  0  0  0
    2.7748   64.3232   69.7739 H   0  0  0  0  0  0  0  0  0  0  0  0
    3.3656   62.4475   71.3075 H   0  0  0  0  0  0  0  0  0  0  0  0
   -0.2614   63.2347   75.9650 H   0  0  0  0  0  0  0  0  0  0  0  0
    0.8502   64.3591   75.1125 H   0  0  0  0  0  0  0  0  0  0  0  0
   -0.9185   64.6727   75.1125 H   0  0  0  0  0  0  0  0  0  0  0  0
    3.5053   60.9909   74.5216 H   0  0  0  0  0  0  0  0  0  0  0  0
    3.1503   60.1659   72.9661 H   0  0  0  0  0  0  0  0  0  0  0  0
    3.8804   61.8071   72.9661 H   0  0  0  0  0  0  0  0  0  0  0  0
    2.2711   69.9552   67.8123 H   0  0  0  0  0  0  0  0  0  0  0  0
    3.6537   70.0813   65.7598 H   0  0  0  0  0  0  0  0  0  0  0  0
    2.4861   66.0707   64.7120 H   0  0  0  0  0  0  0  0  0  0  0  0
    1.1035   65.9372   66.7637 H   0  0  0  0  0  0  0  0  0  0  0  0
    4.1709   70.3071   63.7593 H   0  0  0  0  0  0  0  0  0  0  0  0
    5.3922   69.4456   64.7906 H   0  0  0  0  0  0  0  0  0  0  0  0
    6.0661   70.4092   62.3989 H   0  0  0  0  0  0  0  0  0  0  0  0
    6.6905   68.8135   62.9915 H   0  0  0  0  0  0  0  0  0  0  0  0
    5.9301   68.6691   60.7316 H   0  0  0  0  0  0  0  0  0  0  0  0
    3.9655   66.9464   61.1835 H   0  0  0  0  0  0  0  0  0  0  0  0
    5.7222   66.6142   61.5529 H   0  0  0  0  0  0  0  0  0  0  0  0
    3.7689   66.1866   63.3609 H   0  0  0  0  0  0  0  0  0  0  0  0
    5.4340   66.7425   63.8085 H   0  0  0  0  0  0  0  0  0  0  0  0
    3.4159   69.8338   61.6979 H   0  0  0  0  0  0  0  0  0  0  0  0
    4.4061   70.2640   60.2622 H   0  0  0  0  0  0  0  0  0  0  0  0
    3.4328   68.7543   60.2622 H   0  0  0  0  0  0  0  0  0  0  0  0
  2  1  2  0
  3  2  1  0
  4  3  1  0
  5  4  1  0
  5  1  1  0
  6  3  1  0
  7  6  2  0
  8  6  1  0
 10  9  2  0
 11 10  1  0
 11  1  1  0
 12 11  2  0
 13 12  1  0
 14 13  2  0
 14  9  1  0
 16 15  1  0
 16  9  1  0
 17 14  1  0
 18 17  1  0
 19  4  1  0
 20 19  2  0
 21 20  1  0
 22 21  2  0
 23 22  1  0
 24 23  2  0
 24 19  1  0
 25 22  1  0
 26 25  1  0
 27 26  1  0
 28 27  1  0
 29 28  1  0
 30 29  1  0
 30 25  1  0
 31 28  1  0
  4 32  1  1
  5 33  1  0
  5 34  1  0
  8 35  1  0
  8 36  1  0
  8 37  1  0
 10 38  1  0
 12 39  1  0
 13 40  1  0
 15 41  1  0
 15 42  1  0
 15 43  1  0
 18 44  1  0
 18 45  1  0
 18 46  1  0
 20 47  1  0
 21 48  1  0
 23 49  1  0
 24 50  1  0
 26 51  1  0
 26 52  1  0
 27 53  1  0
 27 54  1  0
 28 55  1  0
 29 56  1  0
 29 57  1  0
 30 58  1  0
 30 59  1  0
 31 60  1  0
 31 61  1  0
 31 62  1  0
M  CHG  1  28   1
M  END
>  <score>  (2) 
-9.167

$$$$
=
     RDKit          3D

 62 65  0  0  0  0  0  0  0  0999 V2000
    0.9460   65.4050   70.2020 C   0  0  0  0  0  0  0  0  0  0  0  0
    1.6890   64.4000   69.8430 N   0  0  0  0  0  0  0  0  0  0  0  0
    2.0730   63.7630   70.9940 N   0  0  0  0  0  0  0  0  0  0  0  0
    1.4360   64.2990   72.1930 C   0  0  1  0  0  0  0  0  0  0  0  0
    0.7980   65.5900   71.6930 C   0  0  0  0  0  0  0  0  0  0  0  0
    3.0230   62.7590   71.0200 C   0  0  0  0  0  0  0  0  0  0  0  0
    3.4180   62.2320   72.0610 O   0  0  0  0  0  0  0  0  0  0  0  0
    3.5650   62.3480   69.6750 C   0  0  0  0  0  0  0  0  0  0  0  0
    0.4890   68.2810   67.7980 C   0  0  0  0  0  0  0  0  0  0  0  0
    1.0560   67.3960   68.7230 C   0  0  0  0  0  0  0  0  0  0  0  0
    0.3080   66.3270   69.2340 C   0  0  0  0  0  0  0  0  0  0  0  0
   -1.0130   66.1470   68.8200 C   0  0  0  0  0  0  0  0  0  0  0  0
   -1.5840   67.0260   67.8940 C   0  0  0  0  0  0  0  0  0  0  0  0
   -0.8420   68.0920   67.3770 C   0  0  0  0  0  0  0  0  0  0  0  0
    2.4810   69.1300   66.7820 C   0  0  0  0  0  0  0  0  0  0  0  0
    1.1530   69.3460   67.2400 O   0  0  0  0  0  0  0  0  0  0  0  0
   -1.3190   68.9970   66.4620 O   0  0  0  0  0  0  0  0  0  0  0  0
   -2.5670   68.7200   65.8440 C   0  0  0  0  0  0  0  0  0  0  0  0
    0.4290   63.3270   72.7860 C   0  0  0  0  0  0  0  0  0  0  0  0
    0.2940   63.2240   74.1740 C   0  0  0  0  0  0  0  0  0  0  0  0
   -0.6010   62.3080   74.7400 C   0  0  0  0  0  0  0  0  0  0  0  0
   -1.3970   61.4600   73.9520 C   0  0  0  0  0  0  0  0  0  0  0  0
   -1.2510   61.5740   72.5630 C   0  0  0  0  0  0  0  0  0  0  0  0
   -0.3580   62.4880   71.9870 C   0  0  0  0  0  0  0  0  0  0  0  0
   -2.2510   60.5290   74.5630 N   0  0  0  0  0  0  0  0  0  0  0  0
   -3.6940   60.8240   74.4000 C   0  0  0  0  0  0  0  0  0  0  0  0
   -4.5830   59.6490   74.8690 C   0  0  0  0  0  0  0  0  0  0  0  0
   -3.9620   58.9080   76.0430 N   0  0  0  0  0  4  0  0  0  0  0  0
   -2.6050   58.3140   75.6610 C   0  0  0  0  0  0  0  0  0  0  0  0
   -1.8820   59.1050   74.5420 C   0  0  0  0  0  0  0  0  0  0  0  0
   -3.8720   59.7610   77.2810 C   0  0  0  0  0  0  0  0  0  0  0  0
    2.1389   64.4732   73.0210 H   0  0  0  0  0  0  0  0  0  0  0  0
   -0.2583   65.6638   71.9910 H   0  0  0  0  0  0  0  0  0  0  0  0
    1.2507   66.5107   72.0896 H   0  0  0  0  0  0  0  0  0  0  0  0
    4.4343   61.6888   69.8158 H   0  0  0  0  0  0  0  0  0  0  0  0
    2.7855   61.8120   69.1138 H   0  0  0  0  0  0  0  0  0  0  0  0
    3.8708   63.2433   69.1138 H   0  0  0  0  0  0  0  0  0  0  0  0
    2.0960   67.5409   69.0509 H   0  0  0  0  0  0  0  0  0  0  0  0
   -1.6058   65.3125   69.2227 H   0  0  0  0  0  0  0  0  0  0  0  0
   -2.6247   66.8774   67.5701 H   0  0  0  0  0  0  0  0  0  0  0  0
    3.1535   69.0206   67.6456 H   0  0  0  0  0  0  0  0  0  0  0  0
    2.5145   68.2146   66.1730 H   0  0  0  0  0  0  0  0  0  0  0  0
    2.8029   69.9876   66.1730 H   0  0  0  0  0  0  0  0  0  0  0  0
   -3.3299   68.5507   66.6181 H   0  0  0  0  0  0  0  0  0  0  0  0
   -2.8636   69.5742   65.2176 H   0  0  0  0  0  0  0  0  0  0  0  0
   -2.4743   67.8206   65.2176 H   0  0  0  0  0  0  0  0  0  0  0  0
    0.8977   63.8699   74.8285 H   0  0  0  0  0  0  0  0  0  0  0  0
   -0.6834   62.2506   75.8354 H   0  0  0  0  0  0  0  0  0  0  0  0
   -1.8536   60.9287   71.9069 H   0  0  0  0  0  0  0  0  0  0  0  0
   -0.2741   62.5472   70.8918 H   0  0  0  0  0  0  0  0  0  0  0  0
   -3.9431   61.7163   74.9931 H   0  0  0  0  0  0  0  0  0  0  0  0
   -3.8877   60.9900   73.3300 H   0  0  0  0  0  0  0  0  0  0  0  0
   -5.5633   60.0435   75.1746 H   0  0  0  0  0  0  0  0  0  0  0  0
   -4.6862   58.9418   74.0328 H   0  0  0  0  0  0  0  0  0  0  0  0
   -4.5931   58.1283   76.2770 H   0  0  0  0  0  0  0  0  0  0  0  0
   -1.9631   58.3073   76.5542 H   0  0  0  0  0  0  0  0  0  0  0  0
   -2.7902   57.3005   75.2756 H   0  0  0  0  0  0  0  0  0  0  0  0
   -0.7952   59.0153   74.6860 H   0  0  0  0  0  0  0  0  0  0  0  0
   -2.1847   58.6845   73.5716 H   0  0  0  0  0  0  0  0  0  0  0  0
   -3.9395   59.1209   78.1730 H   0  0  0  0  0  0  0  0  0  0  0  0
   -2.9122   60.2983   77.2871 H   0  0  0  0  0  0  0  0  0  0  0  0
   -4.6986   60.4868   77.2871 H   0  0  0  0  0  0  0  0  0  0  0  0
  2  1  2  0
  3  2  1  0
  4  3  1  0
  5  4  1  0
  5  1  1  0
  6  3  1  0
  7  6  2  0
  8  6  1  0
 10  9  2  0
 11 10  1  0
 11  1  1  0
 12 11  2  0
 13 12  1  0
 14 13  2  0
 14  9  1  0
 16 15  1  0
 16  9  1  0
 17 14  1  0
 18 17  1  0
 19  4  1  0
 20 19  2  0
 21 20  1  0
 22 21  2  0
 23 22  1  0
 24 23  2  0
 24 19  1  0
 25 22  1  0
 26 25  1  0
 27 26  1  0
 28 27  1  0
 29 28  1  0
 30 29  1  0
 30 25  1  0
 31 28  1  0
  4 32  1  1
  5 33  1  0
  5 34  1  0
  8 35  1  0
  8 36  1  0
  8 37  1  0
 10 38  1  0
 12 39  1  0
 13 40  1  0
 15 41  1  0
 15 42  1  0
 15 43  1  0
 18 44  1  0
 18 45  1  0
 18 46  1  0
 20 47  1  0
 21 48  1  0
 23 49  1  0
 24 50  1  0
 26 51  1  0
 26 52  1  0
 27 53  1  0
 27 54  1  0
 28 55  1  0
 29 56  1  0
 29 57  1  0
 30 58  1  0
 30 59  1  0
 31 60  1  0
 31 61  1  0
 31 62  1  0
M  CHG  1  28   1
M  END
>  <score>  (3) 
-7.811

$$$$
=
     RDKit          3D

 62 65  0  0  0  0  0  0  0  0999 V2000
   -0.1660   61.4910   73.4910 C   0  0  0  0  0  0  0  0  0  0  0  0
    0.2090   61.6470   74.7260 N   0  0  0  0  0  0  0  0  0  0  0  0
   -0.7380   61.0330   75.5050 N   0  0  0  0  0  0  0  0  0  0  0  0
   -1.7390   60.3060   74.7330 C   0  0  1  0  0  0  0  0  0  0  0  0
   -1.4850   60.7810   73.3070 C   0  0  0  0  0  0  0  0  0  0  0  0
   -0.7750   61.1530   76.8820 C   0  0  0  0  0  0  0  0  0  0  0  0
   -1.6640   60.6570   77.5770 O   0  0  0  0  0  0  0  0  0  0  0  0
    0.3490   61.9490   77.4920 C   0  0  0  0  0  0  0  0  0  0  0  0
    0.9110   63.6600   70.5930 C   0  0  0  0  0  0  0  0  0  0  0  0
    0.1890   63.1510   71.6800 C   0  0  0  0  0  0  0  0  0  0  0  0
    0.6190   61.9920   72.3380 C   0  0  0  0  0  0  0  0  0  0  0  0
    1.7720   61.3360   71.9040 C   0  0  0  0  0  0  0  0  0  0  0  0
    2.5000   61.8400   70.8210 C   0  0  0  0  0  0  0  0  0  0  0  0
    2.0790   63.0000   70.1620 C   0  0  0  0  0  0  0  0  0  0  0  0
    0.2690   65.9630   70.6510 C   0  0  0  0  0  0  0  0  0  0  0  0
    0.5680   64.7940   69.9000 O   0  0  0  0  0  0  0  0  0  0  0  0
    2.7340   63.5670   69.0980 O   0  0  0  0  0  0  0  0  0  0  0  0
    3.6680   62.7660   68.3890 C   0  0  0  0  0  0  0  0  0  0  0  0
   -1.5990   58.8000   74.8930 C   0  0  0  0  0  0  0  0  0  0  0  0
   -0.5190   58.1340   74.3070 C   0  0  0  0  0  0  0  0  0  0  0  0
   -0.3920   56.7430   74.4110 C   0  0  0  0  0  0  0  0  0  0  0  0
   -1.3320   55.9600   75.1010 C   0  0  0  0  0  0  0  0  0  0  0  0
   -2.4100   56.6410   75.6840 C   0  0  0  0  0  0  0  0  0  0  0  0
   -2.5440   58.0320   75.5840 C   0  0  0  0  0  0  0  0  0  0  0  0
   -1.1870   54.5650   75.1460 N   0  0  0  0  0  0  0  0  0  0  0  0
   -2.4210   53.8340   75.5160 C   0  0  0  0  0  0  0  0  0  0  0  0
   -2.2760   52.3090   75.3090 C   0  0  0  0  0  0  0  0  0  0  0  0
   -0.8560   51.8360   75.5820 N   0  0  0  0  0  4  0  0  0  0  0  0
    0.1380   52.5110   74.6350 C   0  0  0  0  0  0  0  0  0  0  0  0
   -0.3270   53.9070   74.1500 C   0  0  0  0  0  0  0  0  0  0  0  0
   -0.4600   52.0070   77.0250 C   0  0  0  0  0  0  0  0  0  0  0  0
   -2.7703   60.5025   75.0613 H   0  0  0  0  0  0  0  0  0  0  0  0
   -1.3990   59.9375   72.6062 H   0  0  0  0  0  0  0  0  0  0  0  0
   -2.2861   61.4011   72.8784 H   0  0  0  0  0  0  0  0  0  0  0  0
    0.2799   61.9000   78.5887 H   0  0  0  0  0  0  0  0  0  0  0  0
    1.3130   61.5312   77.1664 H   0  0  0  0  0  0  0  0  0  0  0  0
    0.2749   62.9971   77.1664 H   0  0  0  0  0  0  0  0  0  0  0  0
   -0.7223   63.6653   72.0192 H   0  0  0  0  0  0  0  0  0  0  0  0
    2.1087   60.4215   72.4142 H   0  0  0  0  0  0  0  0  0  0  0  0
    3.4097   61.3207   70.4853 H   0  0  0  0  0  0  0  0  0  0  0  0
    0.3277   65.7337   71.7252 H   0  0  0  0  0  0  0  0  0  0  0  0
    0.9941   66.7526   70.4045 H   0  0  0  0  0  0  0  0  0  0  0  0
   -0.7462   66.3075   70.4045 H   0  0  0  0  0  0  0  0  0  0  0  0
    4.3022   62.2221   69.1045 H   0  0  0  0  0  0  0  0  0  0  0  0
    3.1280   62.0459   67.7566 H   0  0  0  0  0  0  0  0  0  0  0  0
    4.2973   63.4095   67.7566 H   0  0  0  0  0  0  0  0  0  0  0  0
    0.2406   58.7093   73.7574 H   0  0  0  0  0  0  0  0  0  0  0  0
    0.4696   56.2490   73.9382 H   0  0  0  0  0  0  0  0  0  0  0  0
   -3.1707   56.0680   76.2345 H   0  0  0  0  0  0  0  0  0  0  0  0
   -3.4049   58.5284   76.0556 H   0  0  0  0  0  0  0  0  0  0  0  0
   -2.6448   54.0287   76.5752 H   0  0  0  0  0  0  0  0  0  0  0  0
   -3.2337   54.1890   74.8653 H   0  0  0  0  0  0  0  0  0  0  0  0
   -2.9625   51.7895   75.9938 H   0  0  0  0  0  0  0  0  0  0  0  0
   -2.5174   52.0811   74.2603 H   0  0  0  0  0  0  0  0  0  0  0  0
   -0.8318   50.8234   75.3952 H   0  0  0  0  0  0  0  0  0  0  0  0
    1.0975   52.6259   75.1604 H   0  0  0  0  0  0  0  0  0  0  0  0
    0.2261   51.8702   73.7452 H   0  0  0  0  0  0  0  0  0  0  0  0
    0.5575   54.5358   73.9703 H   0  0  0  0  0  0  0  0  0  0  0  0
   -0.9082   53.7752   73.2254 H   0  0  0  0  0  0  0  0  0  0  0  0
   -1.2758   51.6547   77.6733 H   0  0  0  0  0  0  0  0  0  0  0  0
    0.4486   51.4210   77.2278 H   0  0  0  0  0  0  0  0  0  0  0  0
   -0.2635   53.0701   77.2278 H   0  0  0  0  0  0  0  0  0  0  0  0
  2  1  2  0
  3  2  1  0
  4  3  1  0
  5  4  1  0
  5  1  1  0
  6  3  1  0
  7  6  2  0
  8  6  1  0
 10  9  2  0
 11 10  1  0
 11  1  1  0
 12 11  2  0
 13 12  1  0
 14 13  2  0
 14  9  1  0
 16 15  1  0
 16  9  1  0
 17 14  1  0
 18 17  1  0
 19  4  1  0
 20 19  2  0
 21 20  1  0
 22 21  2  0
 23 22  1  0
 24 23  2  0
 24 19  1  0
 25 22  1  0
 26 25  1  0
 27 26  1  0
 28 27  1  0
 29 28  1  0
 30 29  1  0
 30 25  1  0
 31 28  1  0
  4 32  1  1
  5 33  1  0
  5 34  1  0
  8 35  1  0
  8 36  1  0
  8 37  1  0
 10 38  1  0
 12 39  1  0
 13 40  1  0
 15 41  1  0
 15 42  1  0
 15 43  1  0
 18 44  1  0
 18 45  1  0
 18 46  1  0
 20 47  1  0
 21 48  1  0
 23 49  1  0
 24 50  1  0
 26 51  1  0
 26 52  1  0
 27 53  1  0
 27 54  1  0
 28 55  1  0
 29 56  1  0
 29 57  1  0
 30 58  1  0
 30 59  1  0
 31 60  1  0
 31 61  1  0
 31 62  1  0
M  CHG  1  28   1
M  END
>  <score>  (4) 
-7.755

$$$$
=
     RDKit          3D

 62 65  0  0  0  0  0  0  0  0999 V2000
    0.5440   61.7200   73.2150 C   0  0  0  0  0  0  0  0  0  0  0  0
    0.7950   61.8670   74.4830 N   0  0  0  0  0  0  0  0  0  0  0  0
   -0.2810   61.3530   75.1590 N   0  0  0  0  0  0  0  0  0  0  0  0
   -1.2530   60.7000   74.2900 C   0  0  1  0  0  0  0  0  0  0  0  0
   -0.8050   61.1240   72.8960 C   0  0  0  0  0  0  0  0  0  0  0  0
   -0.4550   61.5030   76.5230 C   0  0  0  0  0  0  0  0  0  0  0  0
   -1.4540   61.1000   77.1220 O   0  0  0  0  0  0  0  0  0  0  0  0
    0.6630   62.2100   77.2440 C   0  0  0  0  0  0  0  0  0  0  0  0
    3.2770   61.5210   70.6180 C   0  0  0  0  0  0  0  0  0  0  0  0
    2.3770   61.1750   71.6330 C   0  0  0  0  0  0  0  0  0  0  0  0
    1.4900   62.1280   72.1500 C   0  0  0  0  0  0  0  0  0  0  0  0
    1.5070   63.4320   71.6530 C   0  0  0  0  0  0  0  0  0  0  0  0
    2.4020   63.7840   70.6380 C   0  0  0  0  0  0  0  0  0  0  0  0
    3.2880   62.8360   70.1140 C   0  0  0  0  0  0  0  0  0  0  0  0
    3.6580   59.4500   69.4830 C   0  0  0  0  0  0  0  0  0  0  0  0
    4.1710   60.6490   70.0480 O   0  0  0  0  0  0  0  0  0  0  0  0
    4.1930   63.0920   69.1140 O   0  0  0  0  0  0  0  0  0  0  0  0
    3.7250   63.0700   67.7730 C   0  0  0  0  0  0  0  0  0  0  0  0
   -1.2650   59.1910   74.4800 C   0  0  0  0  0  0  0  0  0  0  0  0
   -2.3320   58.5800   75.1440 C   0  0  0  0  0  0  0  0  0  0  0  0
   -2.3430   57.1970   75.3620 C   0  0  0  0  0  0  0  0  0  0  0  0
   -1.2970   56.3670   74.9280 C   0  0  0  0  0  0  0  0  0  0  0  0
   -0.2330   56.9930   74.2630 C   0  0  0  0  0  0  0  0  0  0  0  0
   -0.2140   58.3760   74.0410 C   0  0  0  0  0  0  0  0  0  0  0  0
   -1.3300   54.9910   75.2030 N   0  0  0  0  0  0  0  0  0  0  0  0
   -0.0550   54.4400   75.7190 C   0  0  0  0  0  0  0  0  0  0  0  0
   -0.2170   52.9920   76.2370 C   0  0  0  0  0  0  0  0  0  0  0  0
   -1.2490   52.2190   75.4320 N   0  0  0  0  0  4  0  0  0  0  0  0
   -2.6260   52.8800   75.5240 C   0  0  0  0  0  0  0  0  0  0  0  0
   -2.5560   54.4090   75.7700 C   0  0  0  0  0  0  0  0  0  0  0  0
   -0.8250   52.0060   74.0020 C   0  0  0  0  0  0  0  0  0  0  0  0
   -2.2927   60.9905   74.5013 H   0  0  0  0  0  0  0  0  0  0  0  0
   -0.7190   60.2630   72.2169 H   0  0  0  0  0  0  0  0  0  0  0  0
   -1.4971   61.8035   72.3771 H   0  0  0  0  0  0  0  0  0  0  0  0
    0.5156   62.1168   78.3301 H   0  0  0  0  0  0  0  0  0  0  0  0
    1.6249   61.7556   76.9642 H   0  0  0  0  0  0  0  0  0  0  0  0
    0.6648   63.2738   76.9642 H   0  0  0  0  0  0  0  0  0  0  0  0
    2.3663   60.1481   72.0271 H   0  0  0  0  0  0  0  0  0  0  0  0
    0.8153   64.1840   72.0604 H   0  0  0  0  0  0  0  0  0  0  0  0
    2.4097   64.8128   70.2489 H   0  0  0  0  0  0  0  0  0  0  0  0
    3.3635   58.7616   70.2889 H   0  0  0  0  0  0  0  0  0  0  0  0
    2.7810   59.6835   68.8614 H   0  0  0  0  0  0  0  0  0  0  0  0
    4.4325   58.9769   68.8614 H   0  0  0  0  0  0  0  0  0  0  0  0
    2.6262   63.0183   67.7689 H   0  0  0  0  0  0  0  0  0  0  0  0
    4.0510   63.9845   67.2558 H   0  0  0  0  0  0  0  0  0  0  0  0
    4.1354   62.1902   67.2558 H   0  0  0  0  0  0  0  0  0  0  0  0
   -3.1733   59.1929   75.4997 H   0  0  0  0  0  0  0  0  0  0  0  0
   -3.1971   56.7470   75.8893 H   0  0  0  0  0  0  0  0  0  0  0  0
    0.6091   56.3819   73.9062 H   0  0  0  0  0  0  0  0  0  0  0  0
    0.6390   58.8286   73.5141 H   0  0  0  0  0  0  0  0  0  0  0  0
    0.6884   54.4460   74.9082 H   0  0  0  0  0  0  0  0  0  0  0  0
    0.2701   55.0679   76.5617 H   0  0  0  0  0  0  0  0  0  0  0  0
    0.7519   52.4765   76.1630 H   0  0  0  0  0  0  0  0  0  0  0  0
   -0.5606   53.0377   77.2810 H   0  0  0  0  0  0  0  0  0  0  0  0
   -1.3199   51.2819   75.8535 H   0  0  0  0  0  0  0  0  0  0  0  0
   -3.1626   52.7022   74.5803 H   0  0  0  0  0  0  0  0  0  0  0  0
   -3.1448   52.4344   76.3856 H   0  0  0  0  0  0  0  0  0  0  0  0
   -3.4286   54.8868   75.3007 H   0  0  0  0  0  0  0  0  0  0  0  0
   -2.5505   54.5838   76.8560 H   0  0  0  0  0  0  0  0  0  0  0  0
    0.1578   51.5123   73.9806 H   0  0  0  0  0  0  0  0  0  0  0  0
   -1.5648   51.3725   73.4907 H   0  0  0  0  0  0  0  0  0  0  0  0
   -0.7584   52.9777   73.4907 H   0  0  0  0  0  0  0  0  0  0  0  0
  2  1  2  0
  3  2  1  0
  4  3  1  0
  5  4  1  0
  5  1  1  0
  6  3  1  0
  7  6  2  0
  8  6  1  0
 10  9  2  0
 11 10  1  0
 11  1  1  0
 12 11  2  0
 13 12  1  0
 14 13  2  0
 14  9  1  0
 16 15  1  0
 16  9  1  0
 17 14  1  0
 18 17  1  0
 19  4  1  0
 20 19  2  0
 21 20  1  0
 22 21  2  0
 23 22  1  0
 24 23  2  0
 24 19  1  0
 25 22  1  0
 26 25  1  0
 27 26  1  0
 28 27  1  0
 29 28  1  0
 30 29  1  0
 30 25  1  0
 31 28  1  0
  4 32  1  1
  5 33  1  0
  5 34  1  0
  8 35  1  0
  8 36  1  0
  8 37  1  0
 10 38  1  0
 12 39  1  0
 13 40  1  0
 15 41  1  0
 15 42  1  0
 15 43  1  0
 18 44  1  0
 18 45  1  0
 18 46  1  0
 20 47  1  0
 21 48  1  0
 23 49  1  0
 24 50  1  0
 26 51  1  0
 26 52  1  0
 27 53  1  0
 27 54  1  0
 28 55  1  0
 29 56  1  0
 29 57  1  0
 30 58  1  0
 30 59  1  0
 31 60  1  0
 31 61  1  0
 31 62  1  0
M  CHG  1  28   1
M  END
>  <score>  (5) 
-7.528

$$$$
=
     RDKit          3D

 62 65  0  0  0  0  0  0  0  0999 V2000
   -3.9350   60.6340   75.3210 C   0  0  0  0  0  0  0  0  0  0  0  0
   -3.2020   61.1610   76.2580 N   0  0  0  0  0  0  0  0  0  0  0  0
   -2.0630   60.4030   76.3390 N   0  0  0  0  0  0  0  0  0  0  0  0
   -1.9680   59.3860   75.2980 C   0  0  1  0  0  0  0  0  0  0  0  0
   -3.3670   59.3840   74.6930 C   0  0  0  0  0  0  0  0  0  0  0  0
   -1.1310   60.5490   77.3500 C   0  0  0  0  0  0  0  0  0  0  0  0
   -0.1410   59.8250   77.4620 O   0  0  0  0  0  0  0  0  0  0  0  0
   -1.4110   61.6570   78.3320 C   0  0  0  0  0  0  0  0  0  0  0  0
   -6.8400   63.0230   74.9910 C   0  0  0  0  0  0  0  0  0  0  0  0
   -5.6150   62.4600   75.3690 C   0  0  0  0  0  0  0  0  0  0  0  0
   -5.2440   61.1910   74.9080 C   0  0  0  0  0  0  0  0  0  0  0  0
   -6.1050   60.4800   74.0700 C   0  0  0  0  0  0  0  0  0  0  0  0
   -7.3290   61.0370   73.6860 C   0  0  0  0  0  0  0  0  0  0  0  0
   -7.7030   62.3060   74.1390 C   0  0  0  0  0  0  0  0  0  0  0  0
   -6.5940   65.3990   74.8730 C   0  0  0  0  0  0  0  0  0  0  0  0
   -7.2760   64.2630   75.3870 O   0  0  0  0  0  0  0  0  0  0  0  0
   -8.8790   62.9310   73.8080 O   0  0  0  0  0  0  0  0  0  0  0  0
   -9.0240   63.4130   72.4800 C   0  0  0  0  0  0  0  0  0  0  0  0
   -0.8800   59.7050   74.2850 C   0  0  0  0  0  0  0  0  0  0  0  0
    0.2000   58.8330   74.1230 C   0  0  0  0  0  0  0  0  0  0  0  0
    1.2300   59.1280   73.2220 C   0  0  0  0  0  0  0  0  0  0  0  0
    1.2290   60.2990   72.4470 C   0  0  0  0  0  0  0  0  0  0  0  0
    0.1400   61.1650   72.6200 C   0  0  0  0  0  0  0  0  0  0  0  0
   -0.8960   60.8770   73.5190 C   0  0  0  0  0  0  0  0  0  0  0  0
    2.3020   60.5750   71.5870 N   0  0  0  0  0  0  0  0  0  0  0  0
    3.1430   61.7220   72.0050 C   0  0  0  0  0  0  0  0  0  0  0  0
    4.4400   61.8250   71.1700 C   0  0  0  0  0  0  0  0  0  0  0  0
    4.2250   61.3660   69.7360 N   0  0  0  0  0  4  0  0  0  0  0  0
    3.7800   59.9030   69.6880 C   0  0  0  0  0  0  0  0  0  0  0  0
    3.0170   59.4520   70.9600 C   0  0  0  0  0  0  0  0  0  0  0  0
    3.2810   62.2640   68.9800 C   0  0  0  0  0  0  0  0  0  0  0  0
   -1.6759   58.3965   75.6797 H   0  0  0  0  0  0  0  0  0  0  0  0
   -3.3360   59.4578   73.5959 H   0  0  0  0  0  0  0  0  0  0  0  0
   -3.9485   58.4694   74.8812 H   0  0  0  0  0  0  0  0  0  0  0  0
   -1.3135   61.2713   79.3576 H   0  0  0  0  0  0  0  0  0  0  0  0
   -0.6912   62.4743   78.1777 H   0  0  0  0  0  0  0  0  0  0  0  0
   -2.4327   62.0342   78.1777 H   0  0  0  0  0  0  0  0  0  0  0  0
   -4.9391   63.0188   76.0330 H   0  0  0  0  0  0  0  0  0  0  0  0
   -5.8202   59.4800   73.7111 H   0  0  0  0  0  0  0  0  0  0  0  0
   -8.0020   60.4732   73.0233 H   0  0  0  0  0  0  0  0  0  0  0  0
   -6.2250   66.0137   75.7073 H   0  0  0  0  0  0  0  0  0  0  0  0
   -5.7445   65.0690   74.2569 H   0  0  0  0  0  0  0  0  0  0  0  0
   -7.2846   65.9936   74.2569 H   0  0  0  0  0  0  0  0  0  0  0  0
   -9.3408   64.4661   72.5047 H   0  0  0  0  0  0  0  0  0  0  0  0
   -8.0617   63.3318   71.9534 H   0  0  0  0  0  0  0  0  0  0  0  0
   -9.7818   62.8144   71.9534 H   0  0  0  0  0  0  0  0  0  0  0  0
    0.2412   57.9039   74.7104 H   0  0  0  0  0  0  0  0  0  0  0  0
    2.0660   58.4206   73.1179 H   0  0  0  0  0  0  0  0  0  0  0  0
    0.0976   62.0953   72.0345 H   0  0  0  0  0  0  0  0  0  0  0  0
   -1.7338   61.5819   73.6243 H   0  0  0  0  0  0  0  0  0  0  0  0
    2.5656   62.6498   71.8797 H   0  0  0  0  0  0  0  0  0  0  0  0
    3.4276   61.5688   73.0565 H   0  0  0  0  0  0  0  0  0  0  0  0
    4.7765   62.8722   71.1622 H   0  0  0  0  0  0  0  0  0  0  0  0
    5.1958   61.1709   71.6293 H   0  0  0  0  0  0  0  0  0  0  0  0
    5.1339   61.4343   69.2564 H   0  0  0  0  0  0  0  0  0  0  0  0
    3.1201   59.7671   68.8185 H   0  0  0  0  0  0  0  0  0  0  0  0
    4.6894   59.2880   69.6184 H   0  0  0  0  0  0  0  0  0  0  0  0
    2.2893   58.6748   70.6835 H   0  0  0  0  0  0  0  0  0  0  0  0
    3.7499   59.0633   71.6823 H   0  0  0  0  0  0  0  0  0  0  0  0
    2.6741   62.8413   69.6930 H   0  0  0  0  0  0  0  0  0  0  0  0
    3.8588   62.9540   68.3475 H   0  0  0  0  0  0  0  0  0  0  0  0
    2.6207   61.6525   68.3475 H   0  0  0  0  0  0  0  0  0  0  0  0
  2  1  2  0
  3  2  1  0
  4  3  1  0
  5  4  1  0
  5  1  1  0
  6  3  1  0
  7  6  2  0
  8  6  1  0
 10  9  2  0
 11 10  1  0
 11  1  1  0
 12 11  2  0
 13 12  1  0
 14 13  2  0
 14  9  1  0
 16 15  1  0
 16  9  1  0
 17 14  1  0
 18 17  1  0
 19  4  1  0
 20 19  2  0
 21 20  1  0
 22 21  2  0
 23 22  1  0
 24 23  2  0
 24 19  1  0
 25 22  1  0
 26 25  1  0
 27 26  1  0
 28 27  1  0
 29 28  1  0
 30 29  1  0
 30 25  1  0
 31 28  1  0
  4 32  1  1
  5 33  1  0
  5 34  1  0
  8 35  1  0
  8 36  1  0
  8 37  1  0
 10 38  1  0
 12 39  1  0
 13 40  1  0
 15 41  1  0
 15 42  1  0
 15 43  1  0
 18 44  1  0
 18 45  1  0
 18 46  1  0
 20 47  1  0
 21 48  1  0
 23 49  1  0
 24 50  1  0
 26 51  1  0
 26 52  1  0
 27 53  1  0
 27 54  1  0
 28 55  1  0
 29 56  1  0
 29 57  1  0
 30 58  1  0
 30 59  1  0
 31 60  1  0
 31 61  1  0
 31 62  1  0
M  CHG  1  28   1
M  END
>  <score>  (6) 
-7.373

$$$$
=
     RDKit          3D

 62 65  0  0  0  0  0  0  0  0999 V2000
   -4.1090   61.4300   75.4710 C   0  0  0  0  0  0  0  0  0  0  0  0
   -3.2670   61.4370   76.4630 N   0  0  0  0  0  0  0  0  0  0  0  0
   -2.3200   60.4880   76.1800 N   0  0  0  0  0  0  0  0  0  0  0  0
   -2.4640   59.9040   74.8510 C   0  0  1  0  0  0  0  0  0  0  0  0
   -3.8370   60.3950   74.4080 C   0  0  0  0  0  0  0  0  0  0  0  0
   -1.3660   60.0780   77.0930 C   0  0  0  0  0  0  0  0  0  0  0  0
   -0.5560   59.1790   76.8640 O   0  0  0  0  0  0  0  0  0  0  0  0
   -1.3830   60.8030   78.4140 C   0  0  0  0  0  0  0  0  0  0  0  0
   -7.5690   62.7280   74.6960 C   0  0  0  0  0  0  0  0  0  0  0  0
   -6.4480   61.8930   74.7810 C   0  0  0  0  0  0  0  0  0  0  0  0
   -5.2710   62.3470   75.3900 C   0  0  0  0  0  0  0  0  0  0  0  0
   -5.2140   63.6410   75.9110 C   0  0  0  0  0  0  0  0  0  0  0  0
   -6.3320   64.4780   75.8320 C   0  0  0  0  0  0  0  0  0  0  0  0
   -7.5120   64.0310   75.2290 C   0  0  0  0  0  0  0  0  0  0  0  0
   -8.8070   62.2180   72.7130 C   0  0  0  0  0  0  0  0  0  0  0  0
   -8.7640   62.3610   74.1270 O   0  0  0  0  0  0  0  0  0  0  0  0
   -8.6550   64.7800   75.1130 O   0  0  0  0  0  0  0  0  0  0  0  0
   -8.6070   65.9440   74.3010 C   0  0  0  0  0  0  0  0  0  0  0  0
   -1.3460   60.3340   73.9150 C   0  0  0  0  0  0  0  0  0  0  0  0
   -0.2420   59.4990   73.7150 C   0  0  0  0  0  0  0  0  0  0  0  0
    0.8150   59.8950   72.8860 C   0  0  0  0  0  0  0  0  0  0  0  0
    0.8180   61.1320   72.2230 C   0  0  0  0  0  0  0  0  0  0  0  0
   -0.2940   61.9590   72.4320 C   0  0  0  0  0  0  0  0  0  0  0  0
   -1.3570   61.5720   73.2590 C   0  0  0  0  0  0  0  0  0  0  0  0
    1.9170   61.5040   71.4340 N   0  0  0  0  0  0  0  0  0  0  0  0
    2.7200   60.3670   70.9280 C   0  0  0  0  0  0  0  0  0  0  0  0
    3.7580   60.8130   69.8720 C   0  0  0  0  0  0  0  0  0  0  0  0
    4.2900   62.2080   70.1610 N   0  0  0  0  0  4  0  0  0  0  0  0
    3.1620   63.2410   70.1420 C   0  0  0  0  0  0  0  0  0  0  0  0
    1.7810   62.6490   70.5200 C   0  0  0  0  0  0  0  0  0  0  0  0
    5.0830   62.2690   71.4400 C   0  0  0  0  0  0  0  0  0  0  0  0
   -2.3911   58.8064   74.8459 H   0  0  0  0  0  0  0  0  0  0  0  0
   -3.8047   60.8421   73.4035 H   0  0  0  0  0  0  0  0  0  0  0  0
   -4.6020   59.6091   74.3241 H   0  0  0  0  0  0  0  0  0  0  0  0
   -1.3658   60.0705   79.2345 H   0  0  0  0  0  0  0  0  0  0  0  0
   -0.4999   61.4549   78.4859 H   0  0  0  0  0  0  0  0  0  0  0  0
   -2.2957   61.4128   78.4859 H   0  0  0  0  0  0  0  0  0  0  0  0
   -6.4919   60.8748   74.3672 H   0  0  0  0  0  0  0  0  0  0  0  0
   -4.2891   64.0027   76.3840 H   0  0  0  0  0  0  0  0  0  0  0  0
   -6.2827   65.4954   76.2473 H   0  0  0  0  0  0  0  0  0  0  0  0
   -9.1151   61.1935   72.4573 H   0  0  0  0  0  0  0  0  0  0  0  0
   -9.5297   62.9336   72.2939 H   0  0  0  0  0  0  0  0  0  0  0  0
   -7.8095   62.4163   72.2939 H   0  0  0  0  0  0  0  0  0  0  0  0
   -8.5702   66.8371   74.9422 H   0  0  0  0  0  0  0  0  0  0  0  0
   -7.7094   65.9113   73.6659 H   0  0  0  0  0  0  0  0  0  0  0  0
   -9.5042   65.9853   73.6659 H   0  0  0  0  0  0  0  0  0  0  0  0
   -0.2035   58.5198   74.2147 H   0  0  0  0  0  0  0  0  0  0  0  0
    1.6693   59.2155   72.7503 H   0  0  0  0  0  0  0  0  0  0  0  0
   -0.3334   62.9386   71.9332 H   0  0  0  0  0  0  0  0  0  0  0  0
   -2.2125   62.2500   73.3951 H   0  0  0  0  0  0  0  0  0  0  0  0
    3.2502   59.9033   71.7729 H   0  0  0  0  0  0  0  0  0  0  0  0
    2.0333   59.6540   70.4483 H   0  0  0  0  0  0  0  0  0  0  0  0
    4.5982   60.1031   69.8759 H   0  0  0  0  0  0  0  0  0  0  0  0
    3.2623   60.8314   68.8902 H   0  0  0  0  0  0  0  0  0  0  0  0
    4.9468   62.4440   69.4035 H   0  0  0  0  0  0  0  0  0  0  0  0
    3.4075   64.0389   70.8583 H   0  0  0  0  0  0  0  0  0  0  0  0
    3.0834   63.6180   69.1116 H   0  0  0  0  0  0  0  0  0  0  0  0
    1.1801   63.4287   71.0108 H   0  0  0  0  0  0  0  0  0  0  0  0
    1.2917   62.2992   69.5990 H   0  0  0  0  0  0  0  0  0  0  0  0
    4.3980   62.2163   72.2990 H   0  0  0  0  0  0  0  0  0  0  0  0
    5.7840   61.4221   71.4775 H   0  0  0  0  0  0  0  0  0  0  0  0
    5.6462   63.2131   71.4775 H   0  0  0  0  0  0  0  0  0  0  0  0
  2  1  2  0
  3  2  1  0
  4  3  1  0
  5  4  1  0
  5  1  1  0
  6  3  1  0
  7  6  2  0
  8  6  1  0
 10  9  2  0
 11 10  1  0
 11  1  1  0
 12 11  2  0
 13 12  1  0
 14 13  2  0
 14  9  1  0
 16 15  1  0
 16  9  1  0
 17 14  1  0
 18 17  1  0
 19  4  1  0
 20 19  2  0
 21 20  1  0
 22 21  2  0
 23 22  1  0
 24 23  2  0
 24 19  1  0
 25 22  1  0
 26 25  1  0
 27 26  1  0
 28 27  1  0
 29 28  1  0
 30 29  1  0
 30 25  1  0
 31 28  1  0
  4 32  1  1
  5 33  1  0
  5 34  1  0
  8 35  1  0
  8 36  1  0
  8 37  1  0
 10 38  1  0
 12 39  1  0
 13 40  1  0
 15 41  1  0
 15 42  1  0
 15 43  1  0
 18 44  1  0
 18 45  1  0
 18 46  1  0
 20 47  1  0
 21 48  1  0
 23 49  1  0
 24 50  1  0
 26 51  1  0
 26 52  1  0
 27 53  1  0
 27 54  1  0
 28 55  1  0
 29 56  1  0
 29 57  1  0
 30 58  1  0
 30 59  1  0
 31 60  1  0
 31 61  1  0
 31 62  1  0
M  CHG  1  28   1
M  END
>  <score>  (7) 
-7.345

$$$$
=
     RDKit          3D

 62 65  0  0  0  0  0  0  0  0999 V2000
    2.0680   63.5250   71.6210 C   0  0  0  0  0  0  0  0  0  0  0  0
    3.0740   62.8530   71.1450 N   0  0  0  0  0  0  0  0  0  0  0  0
    3.5450   62.0720   72.1670 N   0  0  0  0  0  0  0  0  0  0  0  0
    2.7170   62.1260   73.3670 C   0  0  1  0  0  0  0  0  0  0  0  0
    1.7860   63.3010   73.0870 C   0  0  0  0  0  0  0  0  0  0  0  0
    4.7270   61.3580   72.0880 C   0  0  0  0  0  0  0  0  0  0  0  0
    5.1860   60.7090   73.0290 O   0  0  0  0  0  0  0  0  0  0  0  0
    5.4390   61.4330   70.7630 C   0  0  0  0  0  0  0  0  0  0  0  0
    1.1340   66.5650   69.5860 C   0  0  0  0  0  0  0  0  0  0  0  0
    1.8590   65.6560   70.3660 C   0  0  0  0  0  0  0  0  0  0  0  0
    1.2640   64.4670   70.8070 C   0  0  0  0  0  0  0  0  0  0  0  0
   -0.0610   64.1890   70.4700 C   0  0  0  0  0  0  0  0  0  0  0  0
   -0.7900   65.0910   69.6880 C   0  0  0  0  0  0  0  0  0  0  0  0
   -0.2020   66.2780   69.2410 C   0  0  0  0  0  0  0  0  0  0  0  0
    1.8700   67.8450   67.7040 C   0  0  0  0  0  0  0  0  0  0  0  0
    1.6410   67.7460   69.1030 O   0  0  0  0  0  0  0  0  0  0  0  0
   -0.8390   67.2140   68.4660 O   0  0  0  0  0  0  0  0  0  0  0  0
   -1.8920   66.7720   67.6210 C   0  0  0  0  0  0  0  0  0  0  0  0
    1.9740   60.8210   73.6070 C   0  0  0  0  0  0  0  0  0  0  0  0
    1.2850   60.6220   74.8060 C   0  0  0  0  0  0  0  0  0  0  0  0
    0.6270   59.4120   75.0610 C   0  0  0  0  0  0  0  0  0  0  0  0
    0.6260   58.3550   74.1370 C   0  0  0  0  0  0  0  0  0  0  0  0
    1.3210   58.5690   72.9380 C   0  0  0  0  0  0  0  0  0  0  0  0
    1.9830   59.7760   72.6750 C   0  0  0  0  0  0  0  0  0  0  0  0
   -0.0120   57.1460   74.4510 N   0  0  0  0  0  0  0  0  0  0  0  0
   -1.2380   57.2960   75.2710 C   0  0  0  0  0  0  0  0  0  0  0  0
   -2.0320   55.9740   75.3760 C   0  0  0  0  0  0  0  0  0  0  0  0
   -1.1100   54.7640   75.3820 N   0  0  0  0  0  4  0  0  0  0  0  0
   -0.2910   54.6900   74.0920 C   0  0  0  0  0  0  0  0  0  0  0  0
   -0.0440   56.0750   73.4430 C   0  0  0  0  0  0  0  0  0  0  0  0
   -0.2330   54.7140   76.6060 C   0  0  0  0  0  0  0  0  0  0  0  0
    3.2966   62.2620   74.2920 H   0  0  0  0  0  0  0  0  0  0  0  0
    0.7328   63.0368   73.2631 H   0  0  0  0  0  0  0  0  0  0  0  0
    1.9494   64.1806   73.7270 H   0  0  0  0  0  0  0  0  0  0  0  0
    6.5197   61.5468   70.9334 H   0  0  0  0  0  0  0  0  0  0  0  0
    5.2527   60.5103   70.1939 H   0  0  0  0  0  0  0  0  0  0  0  0
    5.0646   62.2967   70.1939 H   0  0  0  0  0  0  0  0  0  0  0  0
    2.9027   65.8770   70.6343 H   0  0  0  0  0  0  0  0  0  0  0  0
   -0.5331   63.2591   70.8198 H   0  0  0  0  0  0  0  0  0  0  0  0
   -1.8333   64.8648   69.4229 H   0  0  0  0  0  0  0  0  0  0  0  0
    2.8662   68.2757   67.5251 H   0  0  0  0  0  0  0  0  0  0  0  0
    1.8169   66.8436   67.2520 H   0  0  0  0  0  0  0  0  0  0  0  0
    1.1041   68.4924   67.2520 H   0  0  0  0  0  0  0  0  0  0  0  0
   -2.7326   66.4192   68.2366 H   0  0  0  0  0  0  0  0  0  0  0  0
   -2.2270   67.6054   66.9861 H   0  0  0  0  0  0  0  0  0  0  0  0
   -1.5318   65.9491   66.9861 H   0  0  0  0  0  0  0  0  0  0  0  0
    1.2590   61.4243   75.5580 H   0  0  0  0  0  0  0  0  0  0  0  0
    0.0943   59.2860   76.0152 H   0  0  0  0  0  0  0  0  0  0  0  0
    1.3473   57.7685   72.1840 H   0  0  0  0  0  0  0  0  0  0  0  0
    2.5176   59.9043   71.7223 H   0  0  0  0  0  0  0  0  0  0  0  0
   -0.9509   57.6187   76.2826 H   0  0  0  0  0  0  0  0  0  0  0  0
   -1.8833   58.0411   74.7827 H   0  0  0  0  0  0  0  0  0  0  0  0
   -2.6162   55.9819   76.3080 H   0  0  0  0  0  0  0  0  0  0  0  0
   -2.6913   55.8989   74.4987 H   0  0  0  0  0  0  0  0  0  0  0  0
   -1.7094   53.9273   75.4227 H   0  0  0  0  0  0  0  0  0  0  0  0
    0.6830   54.2336   74.3224 H   0  0  0  0  0  0  0  0  0  0  0  0
   -0.8692   54.0914   73.3727 H   0  0  0  0  0  0  0  0  0  0  0  0
    0.9197   56.0544   72.9130 H   0  0  0  0  0  0  0  0  0  0  0  0
   -0.8702   56.2816   72.7468 H   0  0  0  0  0  0  0  0  0  0  0  0
   -0.8608   54.7498   77.5086 H   0  0  0  0  0  0  0  0  0  0  0  0
    0.3499   53.7812   76.6016 H   0  0  0  0  0  0  0  0  0  0  0  0
    0.4522   55.5745   76.6016 H   0  0  0  0  0  0  0  0  0  0  0  0
  2  1  2  0
  3  2  1  0
  4  3  1  0
  5  4  1  0
  5  1  1  0
  6  3  1  0
  7  6  2  0
  8  6  1  0
 10  9  2  0
 11 10  1  0
 11  1  1  0
 12 11  2  0
 13 12  1  0
 14 13  2  0
 14  9  1  0
 16 15  1  0
 16  9  1  0
 17 14  1  0
 18 17  1  0
 19  4  1  0
 20 19  2  0
 21 20  1  0
 22 21  2  0
 23 22  1  0
 24 23  2  0
 24 19  1  0
 25 22  1  0
 26 25  1  0
 27 26  1  0
 28 27  1  0
 29 28  1  0
 30 29  1  0
 30 25  1  0
 31 28  1  0
  4 32  1  1
  5 33  1  0
  5 34  1  0
  8 35  1  0
  8 36  1  0
  8 37  1  0
 10 38  1  0
 12 39  1  0
 13 40  1  0
 15 41  1  0
 15 42  1  0
 15 43  1  0
 18 44  1  0
 18 45  1  0
 18 46  1  0
 20 47  1  0
 21 48  1  0
 23 49  1  0
 24 50  1  0
 26 51  1  0
 26 52  1  0
 27 53  1  0
 27 54  1  0
 28 55  1  0
 29 56  1  0
 29 57  1  0
 30 58  1  0
 30 59  1  0
 31 60  1  0
 31 61  1  0
 31 62  1  0
M  CHG  1  28   1
M  END
>  <score>  (8) 
-6.531

$$$$
