=
     RDKit          3D

 33 34  0  0  0  0  0  0  0  0999 V2000
    4.7330   69.9470   67.2610 C   0  0  0  0  0  0  0  0  0  0  0  0
    5.5340   69.8150   66.1440 C   0  0  0  0  0  0  0  0  0  0  0  0
    4.8010   69.1040   65.1720 C   0  0  0  0  0  0  0  0  0  0  0  0
    3.5700   68.7700   65.7190 C   0  0  0  0  0  0  0  0  0  0  0  0
    3.4990   69.4160   66.9440 N   0  0  0  0  0  0  0  0  0  0  0  0
    2.3040   69.5930   67.7460 C   0  0  0  0  0  0  0  0  0  0  0  0
    2.5550   67.9470   65.0880 C   0  0  0  0  0  0  0  0  0  0  0  0
    2.2330   66.8380   65.5150 O   0  0  0  0  0  0  0  0  0  0  0  0
    1.8000   68.4800   63.9120 C   0  0  0  0  0  0  0  0  0  0  0  0
    0.4490   68.8370   64.0010 C   0  0  0  0  0  0  0  0  0  0  0  0
   -0.2220   69.3300   62.8780 C   0  0  0  0  0  0  0  0  0  0  0  0
    0.4450   69.4710   61.6550 C   0  0  0  0  0  0  0  0  0  0  0  0
    1.7870   69.0830   61.5610 C   0  0  0  0  0  0  0  0  0  0  0  0
    2.4610   68.5910   62.6830 C   0  0  0  0  0  0  0  0  0  0  0  0
   -0.2870   69.9730   60.4450 C   0  0  0  0  0  0  0  0  0  0  0  0
    5.0820   70.5490   68.6010 C   0  0  0  0  0  0  0  0  0  0  0  0
    7.3470   71.1080   69.0790 O   0  0  0  0  0  1  0  0  0  0  0  0
    6.2720   71.5220   68.5560 C   0  0  0  0  0  0  0  0  0  0  0  0
    6.0190   72.6500   68.0380 O   0  0  0  0  0  0  0  0  0  0  0  0
    6.5598   70.1962   66.0326 H   0  0  0  0  0  0  0  0  0  0  0  0
    5.1449   68.8570   64.1568 H   0  0  0  0  0  0  0  0  0  0  0  0
    2.5692   69.5537   68.8128 H   0  0  0  0  0  0  0  0  0  0  0  0
    1.8497   70.5682   67.5168 H   0  0  0  0  0  0  0  0  0  0  0  0
    1.5865   68.7913   67.5168 H   0  0  0  0  0  0  0  0  0  0  0  0
   -0.0854   68.7293   64.9564 H   0  0  0  0  0  0  0  0  0  0  0  0
   -1.2830   69.6095   62.9559 H   0  0  0  0  0  0  0  0  0  0  0  0
    2.3141   69.1657   60.5991 H   0  0  0  0  0  0  0  0  0  0  0  0
    3.5156   68.2897   62.5995 H   0  0  0  0  0  0  0  0  0  0  0  0
   -1.1555   70.5686   60.7628 H   0  0  0  0  0  0  0  0  0  0  0  0
    0.3869   70.5999   59.8426 H   0  0  0  0  0  0  0  0  0  0  0  0
   -0.6290   69.1185   59.8426 H   0  0  0  0  0  0  0  0  0  0  0  0
    4.2029   71.0940   68.9754 H   0  0  0  0  0  0  0  0  0  0  0  0
    5.3745   69.7170   69.2584 H   0  0  0  0  0  0  0  0  0  0  0  0
  2  1  2  0
  3  2  1  0
  4  3  2  0
  5  4  1  0
  5  1  1  0
  6  5  1  0
  7  4  1  0
  8  7  2  0
  9  7  1  0
 10  9  2  0
 11 10  1  0
 12 11  2  0
 13 12  1  0
 14 13  2  0
 14  9  1  0
 15 12  1  0
 16  1  1  0
 18 16  1  0
 18 17  1  0
 19 18  2  0
  2 20  1  0
  3 21  1  0
  6 22  1  0
  6 23  1  0
  6 24  1  0
 10 25  1  0
 11 26  1  0
 13 27  1  0
 14 28  1  0
 15 29  1  0
 15 30  1  0
 15 31  1  0
 16 32  1  0
 16 33  1  0
M  CHG  1  17  -1
M  END
>  <score>  (1) 
-9.195

$$$$
=
     RDKit          3D

 33 34  0  0  0  0  0  0  0  0999 V2000
    0.4070   68.1690   66.7880 C   0  0  0  0  0  0  0  0  0  0  0  0
    0.5800   69.1110   67.7830 C   0  0  0  0  0  0  0  0  0  0  0  0
    1.8190   69.7460   67.5610 C   0  0  0  0  0  0  0  0  0  0  0  0
    2.4140   69.1580   66.4550 C   0  0  0  0  0  0  0  0  0  0  0  0
    1.4720   68.2940   65.9170 N   0  0  0  0  0  0  0  0  0  0  0  0
    1.5320   67.6740   64.6080 C   0  0  0  0  0  0  0  0  0  0  0  0
    3.7440   69.4470   65.9500 C   0  0  0  0  0  0  0  0  0  0  0  0
    4.0300   69.4040   64.7540 O   0  0  0  0  0  0  0  0  0  0  0  0
    4.8110   69.8910   66.9000 C   0  0  0  0  0  0  0  0  0  0  0  0
    6.1650   69.8940   66.5420 C   0  0  0  0  0  0  0  0  0  0  0  0
    7.1330   70.3150   67.4590 C   0  0  0  0  0  0  0  0  0  0  0  0
    6.7620   70.7350   68.7420 C   0  0  0  0  0  0  0  0  0  0  0  0
    5.4110   70.7000   69.1080 C   0  0  0  0  0  0  0  0  0  0  0  0
    4.4420   70.2810   68.1930 C   0  0  0  0  0  0  0  0  0  0  0  0
    7.8070   71.1570   69.7320 C   0  0  0  0  0  0  0  0  0  0  0  0
   -0.7100   67.1670   66.6270 C   0  0  0  0  0  0  0  0  0  0  0  0
   -0.7970   66.1280   68.7680 O   0  0  0  0  0  1  0  0  0  0  0  0
   -1.4410   66.8320   67.9380 C   0  0  0  0  0  0  0  0  0  0  0  0
   -2.6290   67.2680   68.0110 O   0  0  0  0  0  0  0  0  0  0  0  0
   -0.1225   69.3270   68.6014 H   0  0  0  0  0  0  0  0  0  0  0  0
    2.2407   70.5658   68.1611 H   0  0  0  0  0  0  0  0  0  0  0  0
    1.6374   66.5851   64.7225 H   0  0  0  0  0  0  0  0  0  0  0  0
    0.6081   67.8967   64.0541 H   0  0  0  0  0  0  0  0  0  0  0  0
    2.3960   68.0698   64.0541 H   0  0  0  0  0  0  0  0  0  0  0  0
    6.4676   69.5644   65.5371 H   0  0  0  0  0  0  0  0  0  0  0  0
    8.1944   70.3162   67.1701 H   0  0  0  0  0  0  0  0  0  0  0  0
    5.1109   71.0041   70.1216 H   0  0  0  0  0  0  0  0  0  0  0  0
    3.3832   70.2574   68.4901 H   0  0  0  0  0  0  0  0  0  0  0  0
    7.4278   71.0039   70.7531 H   0  0  0  0  0  0  0  0  0  0  0  0
    8.7161   70.5555   69.5844 H   0  0  0  0  0  0  0  0  0  0  0  0
    8.0435   72.2211   69.5844 H   0  0  0  0  0  0  0  0  0  0  0  0
   -1.4432   67.5769   65.9167 H   0  0  0  0  0  0  0  0  0  0  0  0
   -0.2518   66.2331   66.2695 H   0  0  0  0  0  0  0  0  0  0  0  0
  2  1  2  0
  3  2  1  0
  4  3  2  0
  5  4  1  0
  5  1  1  0
  6  5  1  0
  7  4  1  0
  8  7  2  0
  9  7  1  0
 10  9  2  0
 11 10  1  0
 12 11  2  0
 13 12  1  0
 14 13  2  0
 14  9  1  0
 15 12  1  0
 16  1  1  0
 18 16  1  0
 18 17  1  0
 19 18  2  0
  2 20  1  0
  3 21  1  0
  6 22  1  0
  6 23  1  0
  6 24  1  0
 10 25  1  0
 11 26  1  0
 13 27  1  0
 14 28  1  0
 15 29  1  0
 15 30  1  0
 15 31  1  0
 16 32  1  0
 16 33  1  0
M  CHG  1  17  -1
M  END
>  <score>  (2) 
-8.815

$$$$
=
     RDKit          3D

 33 34  0  0  0  0  0  0  0  0999 V2000
    4.7520   69.8620   66.7180 C   0  0  0  0  0  0  0  0  0  0  0  0
    3.7300   69.9420   67.6430 C   0  0  0  0  0  0  0  0  0  0  0  0
    2.6780   69.1190   67.1920 C   0  0  0  0  0  0  0  0  0  0  0  0
    3.0480   68.5740   65.9720 C   0  0  0  0  0  0  0  0  0  0  0  0
    4.3730   68.9310   65.7700 N   0  0  0  0  0  0  0  0  0  0  0  0
    5.2690   68.3650   64.7800 C   0  0  0  0  0  0  0  0  0  0  0  0
    2.2110   67.7520   65.1170 C   0  0  0  0  0  0  0  0  0  0  0  0
    1.9320   66.5830   65.3790 O   0  0  0  0  0  0  0  0  0  0  0  0
    1.5870   68.3550   63.8990 C   0  0  0  0  0  0  0  0  0  0  0  0
    2.3110   68.5480   62.7160 C   0  0  0  0  0  0  0  0  0  0  0  0
    1.6920   69.1170   61.5990 C   0  0  0  0  0  0  0  0  0  0  0  0
    0.3460   69.5010   61.6490 C   0  0  0  0  0  0  0  0  0  0  0  0
   -0.3660   69.3370   62.8430 C   0  0  0  0  0  0  0  0  0  0  0  0
    0.2500   68.7670   63.9610 C   0  0  0  0  0  0  0  0  0  0  0  0
   -0.3050   70.1380   60.4570 C   0  0  0  0  0  0  0  0  0  0  0  0
    6.0570   70.6190   66.6920 C   0  0  0  0  0  0  0  0  0  0  0  0
    5.9540   72.5910   68.0230 O   0  0  0  0  0  1  0  0  0  0  0  0
    6.3550   71.3920   67.9880 C   0  0  0  0  0  0  0  0  0  0  0  0
    7.0130   70.7430   68.8560 O   0  0  0  0  0  0  0  0  0  0  0  0
    3.7356   70.5404   68.5660 H   0  0  0  0  0  0  0  0  0  0  0  0
    1.7281   68.9402   67.7171 H   0  0  0  0  0  0  0  0  0  0  0  0
    6.0941   67.8438   65.2876 H   0  0  0  0  0  0  0  0  0  0  0  0
    4.7166   67.6516   64.1508 H   0  0  0  0  0  0  0  0  0  0  0  0
    5.6759   69.1703   64.1508 H   0  0  0  0  0  0  0  0  0  0  0  0
    3.3690   68.2513   62.6655 H   0  0  0  0  0  0  0  0  0  0  0  0
    2.2670   69.2644   60.6729 H   0  0  0  0  0  0  0  0  0  0  0  0
   -1.4163   69.6585   62.9019 H   0  0  0  0  0  0  0  0  0  0  0  0
   -0.3185   68.6414   64.8943 H   0  0  0  0  0  0  0  0  0  0  0  0
   -1.0531   70.8700   60.7953 H   0  0  0  0  0  0  0  0  0  0  0  0
    0.4585   70.6475   59.8508 H   0  0  0  0  0  0  0  0  0  0  0  0
   -0.7978   69.3636   59.8508 H   0  0  0  0  0  0  0  0  0  0  0  0
    6.8716   69.8993   66.5229 H   0  0  0  0  0  0  0  0  0  0  0  0
    5.9779   71.3642   65.8867 H   0  0  0  0  0  0  0  0  0  0  0  0
  2  1  2  0
  3  2  1  0
  4  3  2  0
  5  4  1  0
  5  1  1  0
  6  5  1  0
  7  4  1  0
  8  7  2  0
  9  7  1  0
 10  9  2  0
 11 10  1  0
 12 11  2  0
 13 12  1  0
 14 13  2  0
 14  9  1  0
 15 12  1  0
 16  1  1  0
 18 16  1  0
 18 17  1  0
 19 18  2  0
  2 20  1  0
  3 21  1  0
  6 22  1  0
  6 23  1  0
  6 24  1  0
 10 25  1  0
 11 26  1  0
 13 27  1  0
 14 28  1  0
 15 29  1  0
 15 30  1  0
 15 31  1  0
 16 32  1  0
 16 33  1  0
M  CHG  1  17  -1
M  END
>  <score>  (3) 
-8.787

$$$$
=
     RDKit          3D

 33 34  0  0  0  0  0  0  0  0999 V2000
    1.8640   68.5680   63.7960 C   0  0  0  0  0  0  0  0  0  0  0  0
    3.2280   68.7240   63.6440 C   0  0  0  0  0  0  0  0  0  0  0  0
    3.7660   69.0410   64.9080 C   0  0  0  0  0  0  0  0  0  0  0  0
    2.7200   69.1190   65.8160 C   0  0  0  0  0  0  0  0  0  0  0  0
    1.5860   68.6900   65.1440 N   0  0  0  0  0  0  0  0  0  0  0  0
    0.3180   68.3340   65.7500 C   0  0  0  0  0  0  0  0  0  0  0  0
    2.8290   69.5230   67.2060 C   0  0  0  0  0  0  0  0  0  0  0  0
    1.8890   69.4550   67.9970 O   0  0  0  0  0  0  0  0  0  0  0  0
    4.1510   69.9750   67.7410 C   0  0  0  0  0  0  0  0  0  0  0  0
    5.3000   70.0030   66.9420 C   0  0  0  0  0  0  0  0  0  0  0  0
    6.5190   70.4290   67.4800 C   0  0  0  0  0  0  0  0  0  0  0  0
    6.6040   70.8300   68.8190 C   0  0  0  0  0  0  0  0  0  0  0  0
    5.4600   70.7700   69.6240 C   0  0  0  0  0  0  0  0  0  0  0  0
    4.2410   70.3450   69.0880 C   0  0  0  0  0  0  0  0  0  0  0  0
    7.9200   71.2590   69.3990 C   0  0  0  0  0  0  0  0  0  0  0  0
    0.8240   68.3130   62.7330 C   0  0  0  0  0  0  0  0  0  0  0  0
   -0.2540   70.1580   61.6820 O   0  0  0  0  0  1  0  0  0  0  0  0
    0.7590   69.4030   61.6490 C   0  0  0  0  0  0  0  0  0  0  0  0
    1.7160   69.3840   60.8170 O   0  0  0  0  0  0  0  0  0  0  0  0
    3.7927   68.6197   62.7058 H   0  0  0  0  0  0  0  0  0  0  0  0
    4.8307   69.1991   65.1349 H   0  0  0  0  0  0  0  0  0  0  0  0
    0.4147   68.3611   66.8454 H   0  0  0  0  0  0  0  0  0  0  0  0
   -0.4542   69.0501   65.4322 H   0  0  0  0  0  0  0  0  0  0  0  0
    0.0314   67.3207   65.4322 H   0  0  0  0  0  0  0  0  0  0  0  0
    5.2443   69.6894   65.8891 H   0  0  0  0  0  0  0  0  0  0  0  0
    7.4179   70.4491   66.8462 H   0  0  0  0  0  0  0  0  0  0  0  0
    5.5208   71.0588   70.6837 H   0  0  0  0  0  0  0  0  0  0  0  0
    3.3476   70.3011   69.7282 H   0  0  0  0  0  0  0  0  0  0  0  0
    7.8605   71.2396   70.4972 H   0  0  0  0  0  0  0  0  0  0  0  0
    8.7104   70.5720   69.0625 H   0  0  0  0  0  0  0  0  0  0  0  0
    8.1537   72.2798   69.0625 H   0  0  0  0  0  0  0  0  0  0  0  0
    1.0545   67.3539   62.2462 H   0  0  0  0  0  0  0  0  0  0  0  0
   -0.1532   68.3067   63.2379 H   0  0  0  0  0  0  0  0  0  0  0  0
  2  1  2  0
  3  2  1  0
  4  3  2  0
  5  4  1  0
  5  1  1  0
  6  5  1  0
  7  4  1  0
  8  7  2  0
  9  7  1  0
 10  9  2  0
 11 10  1  0
 12 11  2  0
 13 12  1  0
 14 13  2  0
 14  9  1  0
 15 12  1  0
 16  1  1  0
 18 16  1  0
 18 17  1  0
 19 18  2  0
  2 20  1  0
  3 21  1  0
  6 22  1  0
  6 23  1  0
  6 24  1  0
 10 25  1  0
 11 26  1  0
 13 27  1  0
 14 28  1  0
 15 29  1  0
 15 30  1  0
 15 31  1  0
 16 32  1  0
 16 33  1  0
M  CHG  1  17  -1
M  END
>  <score>  (4) 
-8.549

$$$$
=
     RDKit          3D

 33 34  0  0  0  0  0  0  0  0999 V2000
   -0.3850   68.8520   65.6980 C   0  0  0  0  0  0  0  0  0  0  0  0
   -0.2680   69.0750   64.3400 C   0  0  0  0  0  0  0  0  0  0  0  0
    1.0650   68.7990   63.9730 C   0  0  0  0  0  0  0  0  0  0  0  0
    1.7640   68.4480   65.1190 C   0  0  0  0  0  0  0  0  0  0  0  0
    0.8260   68.3530   66.1360 N   0  0  0  0  0  0  0  0  0  0  0  0
    1.0360   67.7470   67.4360 C   0  0  0  0  0  0  0  0  0  0  0  0
    3.1900   68.1880   65.1990 C   0  0  0  0  0  0  0  0  0  0  0  0
    3.7490   67.3140   64.5370 O   0  0  0  0  0  0  0  0  0  0  0  0
    4.0500   69.0580   66.0610 C   0  0  0  0  0  0  0  0  0  0  0  0
    3.6010   69.5540   67.2900 C   0  0  0  0  0  0  0  0  0  0  0  0
    4.4340   70.3660   68.0660 C   0  0  0  0  0  0  0  0  0  0  0  0
    5.7220   70.6930   67.6240 C   0  0  0  0  0  0  0  0  0  0  0  0
    6.1560   70.2220   66.3790 C   0  0  0  0  0  0  0  0  0  0  0  0
    5.3250   69.4090   65.6020 C   0  0  0  0  0  0  0  0  0  0  0  0
    6.6010   71.5880   68.4460 C   0  0  0  0  0  0  0  0  0  0  0  0
   -1.5800   69.0880   66.5880 C   0  0  0  0  0  0  0  0  0  0  0  0
   -3.7800   68.4600   65.9290 O   0  0  0  0  0  1  0  0  0  0  0  0
   -2.6950   68.0420   66.4260 C   0  0  0  0  0  0  0  0  0  0  0  0
   -2.4060   66.8840   66.8550 O   0  0  0  0  0  0  0  0  0  0  0  0
   -1.0708   69.4082   63.6658 H   0  0  0  0  0  0  0  0  0  0  0  0
    1.4788   68.8526   62.9552 H   0  0  0  0  0  0  0  0  0  0  0  0
    0.7846   68.4725   68.2237 H   0  0  0  0  0  0  0  0  0  0  0  0
    0.3928   66.8602   67.5354 H   0  0  0  0  0  0  0  0  0  0  0  0
    2.0900   67.4484   67.5354 H   0  0  0  0  0  0  0  0  0  0  0  0
    2.5907   69.3046   67.6464 H   0  0  0  0  0  0  0  0  0  0  0  0
    4.0746   70.7511   69.0317 H   0  0  0  0  0  0  0  0  0  0  0  0
    7.1562   70.4930   66.0100 H   0  0  0  0  0  0  0  0  0  0  0  0
    5.6749   69.0435   64.6253 H   0  0  0  0  0  0  0  0  0  0  0  0
    6.4176   71.4013   69.5144 H   0  0  0  0  0  0  0  0  0  0  0  0
    7.6558   71.3802   68.2132 H   0  0  0  0  0  0  0  0  0  0  0  0
    6.3743   72.6389   68.2132 H   0  0  0  0  0  0  0  0  0  0  0  0
   -1.2407   69.0730   67.6343 H   0  0  0  0  0  0  0  0  0  0  0  0
   -2.0082   70.0583   66.2961 H   0  0  0  0  0  0  0  0  0  0  0  0
  2  1  2  0
  3  2  1  0
  4  3  2  0
  5  4  1  0
  5  1  1  0
  6  5  1  0
  7  4  1  0
  8  7  2  0
  9  7  1  0
 10  9  2  0
 11 10  1  0
 12 11  2  0
 13 12  1  0
 14 13  2  0
 14  9  1  0
 15 12  1  0
 16  1  1  0
 18 16  1  0
 18 17  1  0
 19 18  2  0
  2 20  1  0
  3 21  1  0
  6 22  1  0
  6 23  1  0
  6 24  1  0
 10 25  1  0
 11 26  1  0
 13 27  1  0
 14 28  1  0
 15 29  1  0
 15 30  1  0
 15 31  1  0
 16 32  1  0
 16 33  1  0
M  CHG  1  17  -1
M  END
>  <score>  (5) 
-8.424

$$$$
=
     RDKit          3D

 33 34  0  0  0  0  0  0  0  0999 V2000
    3.4430   68.2470   64.3360 C   0  0  0  0  0  0  0  0  0  0  0  0
    3.7630   69.2960   65.1760 C   0  0  0  0  0  0  0  0  0  0  0  0
    3.0400   69.1220   66.3730 C   0  0  0  0  0  0  0  0  0  0  0  0
    2.2500   67.9890   66.2410 C   0  0  0  0  0  0  0  0  0  0  0  0
    2.6180   67.3940   65.0440 N   0  0  0  0  0  0  0  0  0  0  0  0
    2.2720   66.0520   64.6160 C   0  0  0  0  0  0  0  0  0  0  0  0
    1.2750   67.5150   67.2060 C   0  0  0  0  0  0  0  0  0  0  0  0
    1.5910   66.9630   68.2600 O   0  0  0  0  0  0  0  0  0  0  0  0
   -0.1800   67.7630   66.9650 C   0  0  0  0  0  0  0  0  0  0  0  0
   -1.1740   67.0250   67.6180 C   0  0  0  0  0  0  0  0  0  0  0  0
   -2.5240   67.2860   67.3640 C   0  0  0  0  0  0  0  0  0  0  0  0
   -2.8970   68.2840   66.4560 C   0  0  0  0  0  0  0  0  0  0  0  0
   -1.9000   68.9990   65.7800 C   0  0  0  0  0  0  0  0  0  0  0  0
   -0.5500   68.7410   66.0340 C   0  0  0  0  0  0  0  0  0  0  0  0
   -4.3460   68.5410   66.1650 C   0  0  0  0  0  0  0  0  0  0  0  0
    3.8800   68.0180   62.9100 C   0  0  0  0  0  0  0  0  0  0  0  0
    3.4570   69.1220   60.8420 O   0  0  0  0  0  1  0  0  0  0  0  0
    2.9180   68.6040   61.8620 C   0  0  0  0  0  0  0  0  0  0  0  0
    1.6900   68.5390   62.1710 O   0  0  0  0  0  0  0  0  0  0  0  0
    4.4573   70.1190   64.9510 H   0  0  0  0  0  0  0  0  0  0  0  0
    3.0928   69.7720   67.2588 H   0  0  0  0  0  0  0  0  0  0  0  0
    2.1081   65.4164   65.4987 H   0  0  0  0  0  0  0  0  0  0  0  0
    1.3530   66.0851   64.0123 H   0  0  0  0  0  0  0  0  0  0  0  0
    3.0924   65.6367   64.0123 H   0  0  0  0  0  0  0  0  0  0  0  0
   -0.8924   66.2377   68.3328 H   0  0  0  0  0  0  0  0  0  0  0  0
   -3.2993   66.7023   67.8819 H   0  0  0  0  0  0  0  0  0  0  0  0
   -2.1811   69.7678   65.0452 H   0  0  0  0  0  0  0  0  0  0  0  0
    0.2257   69.3092   65.4997 H   0  0  0  0  0  0  0  0  0  0  0  0
   -4.8983   68.6390   67.1113 H   0  0  0  0  0  0  0  0  0  0  0  0
   -4.4443   69.4706   65.5852 H   0  0  0  0  0  0  0  0  0  0  0  0
   -4.7580   67.7019   65.5852 H   0  0  0  0  0  0  0  0  0  0  0  0
    4.8676   68.4821   62.7715 H   0  0  0  0  0  0  0  0  0  0  0  0
    3.8994   66.9295   62.7526 H   0  0  0  0  0  0  0  0  0  0  0  0
  2  1  2  0
  3  2  1  0
  4  3  2  0
  5  4  1  0
  5  1  1  0
  6  5  1  0
  7  4  1  0
  8  7  2  0
  9  7  1  0
 10  9  2  0
 11 10  1  0
 12 11  2  0
 13 12  1  0
 14 13  2  0
 14  9  1  0
 15 12  1  0
 16  1  1  0
 18 16  1  0
 18 17  1  0
 19 18  2  0
  2 20  1  0
  3 21  1  0
  6 22  1  0
  6 23  1  0
  6 24  1  0
 10 25  1  0
 11 26  1  0
 13 27  1  0
 14 28  1  0
 15 29  1  0
 15 30  1  0
 15 31  1  0
 16 32  1  0
 16 33  1  0
M  CHG  1  17  -1
M  END
>  <score>  (6) 
-7.986

$$$$
=
     RDKit          3D

 33 34  0  0  0  0  0  0  0  0999 V2000
    4.0130   68.5170   63.9140 C   0  0  0  0  0  0  0  0  0  0  0  0
    4.9140   69.4630   64.3600 C   0  0  0  0  0  0  0  0  0  0  0  0
    4.5780   69.7810   65.6910 C   0  0  0  0  0  0  0  0  0  0  0  0
    3.4470   69.0570   66.0370 C   0  0  0  0  0  0  0  0  0  0  0  0
    3.2030   68.1880   64.9840 N   0  0  0  0  0  0  0  0  0  0  0  0
    2.3040   67.0500   65.0070 C   0  0  0  0  0  0  0  0  0  0  0  0
    2.7120   69.1690   67.2840 C   0  0  0  0  0  0  0  0  0  0  0  0
    3.1620   69.7410   68.2750 O   0  0  0  0  0  0  0  0  0  0  0  0
    1.3160   68.6380   67.3650 C   0  0  0  0  0  0  0  0  0  0  0  0
    0.9890   67.5360   68.1640 C   0  0  0  0  0  0  0  0  0  0  0  0
   -0.3270   67.0690   68.2120 C   0  0  0  0  0  0  0  0  0  0  0  0
   -1.3320   67.6940   67.4630 C   0  0  0  0  0  0  0  0  0  0  0  0
   -0.9960   68.7750   66.6400 C   0  0  0  0  0  0  0  0  0  0  0  0
    0.3190   69.2450   66.5910 C   0  0  0  0  0  0  0  0  0  0  0  0
   -2.7380   67.1710   67.4950 C   0  0  0  0  0  0  0  0  0  0  0  0
    3.8870   67.9160   62.5350 C   0  0  0  0  0  0  0  0  0  0  0  0
    1.7040   68.7060   62.0080 O   0  0  0  0  0  1  0  0  0  0  0  0
    2.9050   68.6630   61.6170 C   0  0  0  0  0  0  0  0  0  0  0  0
    3.4140   69.1110   60.5460 O   0  0  0  0  0  0  0  0  0  0  0  0
    5.7450   69.8916   63.7805 H   0  0  0  0  0  0  0  0  0  0  0  0
    5.1193   70.4824   66.3429 H   0  0  0  0  0  0  0  0  0  0  0  0
    2.0869   66.7752   66.0498 H   0  0  0  0  0  0  0  0  0  0  0  0
    1.3669   67.3126   64.4943 H   0  0  0  0  0  0  0  0  0  0  0  0
    2.7764   66.1991   64.4943 H   0  0  0  0  0  0  0  0  0  0  0  0
    1.7702   67.0364   68.7557 H   0  0  0  0  0  0  0  0  0  0  0  0
   -0.5758   66.2032   68.8433 H   0  0  0  0  0  0  0  0  0  0  0  0
   -1.7720   69.2577   66.0278 H   0  0  0  0  0  0  0  0  0  0  0  0
    0.5723   70.0958   65.9414 H   0  0  0  0  0  0  0  0  0  0  0  0
   -3.0608   67.0509   68.5397 H   0  0  0  0  0  0  0  0  0  0  0  0
   -3.4051   67.8811   66.9844 H   0  0  0  0  0  0  0  0  0  0  0  0
   -2.7788   66.1975   66.9844 H   0  0  0  0  0  0  0  0  0  0  0  0
    4.8796   67.9254   62.0611 H   0  0  0  0  0  0  0  0  0  0  0  0
    3.4909   66.8981   62.6653 H   0  0  0  0  0  0  0  0  0  0  0  0
  2  1  2  0
  3  2  1  0
  4  3  2  0
  5  4  1  0
  5  1  1  0
  6  5  1  0
  7  4  1  0
  8  7  2  0
  9  7  1  0
 10  9  2  0
 11 10  1  0
 12 11  2  0
 13 12  1  0
 14 13  2  0
 14  9  1  0
 15 12  1  0
 16  1  1  0
 18 16  1  0
 18 17  1  0
 19 18  2  0
  2 20  1  0
  3 21  1  0
  6 22  1  0
  6 23  1  0
  6 24  1  0
 10 25  1  0
 11 26  1  0
 13 27  1  0
 14 28  1  0
 15 29  1  0
 15 30  1  0
 15 31  1  0
 16 32  1  0
 16 33  1  0
M  CHG  1  17  -1
M  END
>  <score>  (7) 
-7.75

$$$$
=
     RDKit          3D

 33 34  0  0  0  0  0  0  0  0999 V2000
    5.1620   69.8630   66.9300 C   0  0  0  0  0  0  0  0  0  0  0  0
    4.0950   69.9520   67.8030 C   0  0  0  0  0  0  0  0  0  0  0  0
    2.9630   69.4240   67.1510 C   0  0  0  0  0  0  0  0  0  0  0  0
    3.3360   69.0540   65.8670 C   0  0  0  0  0  0  0  0  0  0  0  0
    4.7130   69.2030   65.8030 N   0  0  0  0  0  0  0  0  0  0  0  0
    5.5810   68.6790   64.7660 C   0  0  0  0  0  0  0  0  0  0  0  0
    2.4470   68.5640   64.8300 C   0  0  0  0  0  0  0  0  0  0  0  0
    2.8530   68.0410   63.7930 O   0  0  0  0  0  0  0  0  0  0  0  0
    0.9670   68.6160   65.0440 C   0  0  0  0  0  0  0  0  0  0  0  0
    0.0900   69.0350   64.0370 C   0  0  0  0  0  0  0  0  0  0  0  0
   -1.2870   69.0730   64.2760 C   0  0  0  0  0  0  0  0  0  0  0  0
   -1.8040   68.6950   65.5210 C   0  0  0  0  0  0  0  0  0  0  0  0
   -0.9210   68.3080   66.5370 C   0  0  0  0  0  0  0  0  0  0  0  0
    0.4560   68.2680   66.3000 C   0  0  0  0  0  0  0  0  0  0  0  0
   -3.2790   68.7650   65.7830 C   0  0  0  0  0  0  0  0  0  0  0  0
    6.5710   70.3700   67.1150 C   0  0  0  0  0  0  0  0  0  0  0  0
    7.4430   71.1420   69.1920 O   0  0  0  0  0  1  0  0  0  0  0  0
    6.7090   71.4440   68.2080 C   0  0  0  0  0  0  0  0  0  0  0  0
    6.0280   72.4940   68.0110 O   0  0  0  0  0  0  0  0  0  0  0  0
    4.1239   70.3614   68.8236 H   0  0  0  0  0  0  0  0  0  0  0  0
    1.9573   69.3227   67.5850 H   0  0  0  0  0  0  0  0  0  0  0  0
    6.4353   68.1633   65.2289 H   0  0  0  0  0  0  0  0  0  0  0  0
    5.0189   67.9692   64.1413 H   0  0  0  0  0  0  0  0  0  0  0  0
    5.9472   69.5070   64.1413 H   0  0  0  0  0  0  0  0  0  0  0  0
    0.4850   69.3351   63.0552 H   0  0  0  0  0  0  0  0  0  0  0  0
   -1.9699   69.4027   63.4792 H   0  0  0  0  0  0  0  0  0  0  0  0
   -1.3135   68.0339   67.5274 H   0  0  0  0  0  0  0  0  0  0  0  0
    1.1412   67.9617   67.1041 H   0  0  0  0  0  0  0  0  0  0  0  0
   -3.4586   68.7735   66.8682 H   0  0  0  0  0  0  0  0  0  0  0  0
   -3.6875   69.6835   65.3365 H   0  0  0  0  0  0  0  0  0  0  0  0
   -3.7727   67.8893   65.3365 H   0  0  0  0  0  0  0  0  0  0  0  0
    7.2131   69.5182   67.3835 H   0  0  0  0  0  0  0  0  0  0  0  0
    6.8681   70.8404   66.1661 H   0  0  0  0  0  0  0  0  0  0  0  0
  2  1  2  0
  3  2  1  0
  4  3  2  0
  5  4  1  0
  5  1  1  0
  6  5  1  0
  7  4  1  0
  8  7  2  0
  9  7  1  0
 10  9  2  0
 11 10  1  0
 12 11  2  0
 13 12  1  0
 14 13  2  0
 14  9  1  0
 15 12  1  0
 16  1  1  0
 18 16  1  0
 18 17  1  0
 19 18  2  0
  2 20  1  0
  3 21  1  0
  6 22  1  0
  6 23  1  0
  6 24  1  0
 10 25  1  0
 11 26  1  0
 13 27  1  0
 14 28  1  0
 15 29  1  0
 15 30  1  0
 15 31  1  0
 16 32  1  0
 16 33  1  0
M  CHG  1  17  -1
M  END
>  <score>  (8) 
-7.717

$$$$
=
     RDKit          3D

 33 34  0  0  0  0  0  0  0  0999 V2000
    3.2770   68.8970   64.5310 C   0  0  0  0  0  0  0  0  0  0  0  0
    4.2360   69.3030   65.4390 C   0  0  0  0  0  0  0  0  0  0  0  0
    3.6150   69.4040   66.7010 C   0  0  0  0  0  0  0  0  0  0  0  0
    2.2710   69.1000   66.5470 C   0  0  0  0  0  0  0  0  0  0  0  0
    2.1170   68.6590   65.2420 N   0  0  0  0  0  0  0  0  0  0  0  0
    0.9580   67.9720   64.7040 C   0  0  0  0  0  0  0  0  0  0  0  0
    1.2550   69.1870   67.5810 C   0  0  0  0  0  0  0  0  0  0  0  0
    0.6160   70.2140   67.8060 O   0  0  0  0  0  0  0  0  0  0  0  0
    0.8990   67.9660   68.3680 C   0  0  0  0  0  0  0  0  0  0  0  0
   -0.3000   67.2740   68.1580 C   0  0  0  0  0  0  0  0  0  0  0  0
   -0.5970   66.1380   68.9160 C   0  0  0  0  0  0  0  0  0  0  0  0
    0.2970   65.6790   69.8920 C   0  0  0  0  0  0  0  0  0  0  0  0
    1.4800   66.3920   70.1220 C   0  0  0  0  0  0  0  0  0  0  0  0
    1.7800   67.5280   69.3640 C   0  0  0  0  0  0  0  0  0  0  0  0
   -0.0400   64.4770   70.7230 C   0  0  0  0  0  0  0  0  0  0  0  0
    3.4110   68.7270   63.0380 C   0  0  0  0  0  0  0  0  0  0  0  0
    4.0010   66.4750   62.5390 O   0  0  0  0  0  1  0  0  0  0  0  0
    4.4360   67.6590   62.6210 C   0  0  0  0  0  0  0  0  0  0  0  0
    5.6160   68.0910   62.4530 O   0  0  0  0  0  0  0  0  0  0  0  0
    5.2934   69.5101   65.2174 H   0  0  0  0  0  0  0  0  0  0  0  0
    4.1109   69.6767   67.6442 H   0  0  0  0  0  0  0  0  0  0  0  0
    0.3342   67.6023   65.5312 H   0  0  0  0  0  0  0  0  0  0  0  0
    0.3725   68.6690   64.0865 H   0  0  0  0  0  0  0  0  0  0  0  0
    1.2885   67.1238   64.0865 H   0  0  0  0  0  0  0  0  0  0  0  0
   -1.0098   67.6253   67.3946 H   0  0  0  0  0  0  0  0  0  0  0  0
   -1.5409   65.5997   68.7448 H   0  0  0  0  0  0  0  0  0  0  0  0
    2.1774   66.0564   70.9036 H   0  0  0  0  0  0  0  0  0  0  0  0
    2.7127   68.0802   69.5512 H   0  0  0  0  0  0  0  0  0  0  0  0
    0.0327   64.7365   71.7895 H   0  0  0  0  0  0  0  0  0  0  0  0
   -1.0648   64.1489   70.4945 H   0  0  0  0  0  0  0  0  0  0  0  0
    0.6648   63.6640   70.4945 H   0  0  0  0  0  0  0  0  0  0  0  0
    2.4291   68.4414   62.6326 H   0  0  0  0  0  0  0  0  0  0  0  0
    3.7703   69.6869   62.6387 H   0  0  0  0  0  0  0  0  0  0  0  0
  2  1  2  0
  3  2  1  0
  4  3  2  0
  5  4  1  0
  5  1  1  0
  6  5  1  0
  7  4  1  0
  8  7  2  0
  9  7  1  0
 10  9  2  0
 11 10  1  0
 12 11  2  0
 13 12  1  0
 14 13  2  0
 14  9  1  0
 15 12  1  0
 16  1  1  0
 18 16  1  0
 18 17  1  0
 19 18  2  0
  2 20  1  0
  3 21  1  0
  6 22  1  0
  6 23  1  0
  6 24  1  0
 10 25  1  0
 11 26  1  0
 13 27  1  0
 14 28  1  0
 15 29  1  0
 15 30  1  0
 15 31  1  0
 16 32  1  0
 16 33  1  0
M  CHG  1  17  -1
M  END
>  <score>  (9) 
-7.572

$$$$
