=
     RDKit          3D

 17 18  0  0  0  0  0  0  0  0999 V2000
    0.6980   69.2510   67.9090 O   0  0  0  0  0  0  0  0  0  0  0  0
    1.8760   69.4250   67.6190 C   0  0  0  0  0  0  0  0  0  0  0  0
    2.3850   69.0450   66.2890 C   0  0  0  0  0  0  0  0  0  0  0  0
    3.6620   69.2170   65.9330 C   0  0  0  0  0  0  0  0  0  0  0  0
    4.5960   69.7980   66.8820 C   0  0  0  0  0  0  0  0  0  0  0  0
    4.1350   70.1640   68.1460 C   0  0  0  0  0  0  0  0  0  0  0  0
    2.7870   69.9770   68.5090 O   0  0  0  0  0  0  0  0  0  0  0  0
    4.9810   70.7250   69.0990 C   0  0  0  0  0  0  0  0  0  0  0  0
    6.3230   70.9260   68.7800 C   0  0  0  0  0  0  0  0  0  0  0  0
    6.8020   70.5660   67.5180 C   0  0  0  0  0  0  0  0  0  0  0  0
    5.9420   70.0020   66.5690 C   0  0  0  0  0  0  0  0  0  0  0  0
    1.6878   68.6032   65.5619 H   0  0  0  0  0  0  0  0  0  0  0  0
    4.0027   68.9211   64.9298 H   0  0  0  0  0  0  0  0  0  0  0  0
    4.5956   71.0058   70.0903 H   0  0  0  0  0  0  0  0  0  0  0  0
    7.0046   71.3679   69.5217 H   0  0  0  0  0  0  0  0  0  0  0  0
    7.8613   70.7268   67.2688 H   0  0  0  0  0  0  0  0  0  0  0  0
    6.3256   69.7196   65.5775 H   0  0  0  0  0  0  0  0  0  0  0  0
  2  1  2  0
  3  2  1  0
  4  3  2  0
  5  4  1  0
  6  5  2  0
  7  6  1  0
  7  2  1  0
  8  6  1  0
  9  8  2  0
 10  9  1  0
 11  5  1  0
 11 10  2  0
  3 12  1  0
  4 13  1  0
  8 14  1  0
  9 15  1  0
 10 16  1  0
 11 17  1  0
M  END
>  <score>  (1) 
-7.849

$$$$
=
     RDKit          3D

 17 18  0  0  0  0  0  0  0  0999 V2000
    3.8450   70.6230   69.8900 O   0  0  0  0  0  0  0  0  0  0  0  0
    4.1520   70.3620   68.7330 C   0  0  0  0  0  0  0  0  0  0  0  0
    5.5220   70.6050   68.2470 C   0  0  0  0  0  0  0  0  0  0  0  0
    5.8980   70.3350   66.9940 C   0  0  0  0  0  0  0  0  0  0  0  0
    4.9310   69.7810   66.0610 C   0  0  0  0  0  0  0  0  0  0  0  0
    3.6290   69.5440   66.5000 C   0  0  0  0  0  0  0  0  0  0  0  0
    3.2450   69.8330   67.8240 O   0  0  0  0  0  0  0  0  0  0  0  0
    2.6570   69.0160   65.6550 C   0  0  0  0  0  0  0  0  0  0  0  0
    2.9950   68.7160   64.3360 C   0  0  0  0  0  0  0  0  0  0  0  0
    4.2950   68.9460   63.8790 C   0  0  0  0  0  0  0  0  0  0  0  0
    5.2630   69.4790   64.7390 C   0  0  0  0  0  0  0  0  0  0  0  0
    6.2633   71.0248   68.9428 H   0  0  0  0  0  0  0  0  0  0  0  0
    6.9312   70.5304   66.6709 H   0  0  0  0  0  0  0  0  0  0  0  0
    1.6358   68.8378   66.0230 H   0  0  0  0  0  0  0  0  0  0  0  0
    2.2384   68.2984   63.6555 H   0  0  0  0  0  0  0  0  0  0  0  0
    4.5595   68.7072   62.8383 H   0  0  0  0  0  0  0  0  0  0  0  0
    6.2845   69.6597   64.3732 H   0  0  0  0  0  0  0  0  0  0  0  0
  2  1  2  0
  3  2  1  0
  4  3  2  0
  5  4  1  0
  6  5  2  0
  7  6  1  0
  7  2  1  0
  8  6  1  0
  9  8  2  0
 10  9  1  0
 11  5  1  0
 11 10  2  0
  3 12  1  0
  4 13  1  0
  8 14  1  0
  9 15  1  0
 10 16  1  0
 11 17  1  0
M  END
>  <score>  (2) 
-7.841

$$$$
=
     RDKit          3D

 17 18  0  0  0  0  0  0  0  0999 V2000
    7.4280   71.5760   69.1310 O   0  0  0  0  0  0  0  0  0  0  0  0
    6.5400   71.0440   68.4740 C   0  0  0  0  0  0  0  0  0  0  0  0
    6.8080   70.5550   67.1090 C   0  0  0  0  0  0  0  0  0  0  0  0
    5.8690   69.9700   66.3590 C   0  0  0  0  0  0  0  0  0  0  0  0
    4.5280   69.8020   66.8950 C   0  0  0  0  0  0  0  0  0  0  0  0
    4.2540   70.2590   68.1830 C   0  0  0  0  0  0  0  0  0  0  0  0
    5.2520   70.8740   68.9630 O   0  0  0  0  0  0  0  0  0  0  0  0
    2.9900   70.1280   68.7520 C   0  0  0  0  0  0  0  0  0  0  0  0
    1.9730   69.5250   68.0130 C   0  0  0  0  0  0  0  0  0  0  0  0
    2.2300   69.0620   66.7200 C   0  0  0  0  0  0  0  0  0  0  0  0
    3.5050   69.2000   66.1600 C   0  0  0  0  0  0  0  0  0  0  0  0
    7.8188   70.6762   66.6923 H   0  0  0  0  0  0  0  0  0  0  0  0
    6.1088   69.6186   65.3446 H   0  0  0  0  0  0  0  0  0  0  0  0
    2.7964   70.4952   69.7707 H   0  0  0  0  0  0  0  0  0  0  0  0
    0.9687   69.4138   68.4478 H   0  0  0  0  0  0  0  0  0  0  0  0
    1.4259   68.5865   66.1392 H   0  0  0  0  0  0  0  0  0  0  0  0
    3.7011   68.8344   65.1413 H   0  0  0  0  0  0  0  0  0  0  0  0
  2  1  2  0
  3  2  1  0
  4  3  2  0
  5  4  1  0
  6  5  2  0
  7  6  1  0
  7  2  1  0
  8  6  1  0
  9  8  2  0
 10  9  1  0
 11  5  1  0
 11 10  2  0
  3 12  1  0
  4 13  1  0
  8 14  1  0
  9 15  1  0
 10 16  1  0
 11 17  1  0
M  END
>  <score>  (3) 
-7.798

$$$$
=
     RDKit          3D

 17 18  0  0  0  0  0  0  0  0999 V2000
    1.6670   68.6860   64.8660 O   0  0  0  0  0  0  0  0  0  0  0  0
    2.7160   69.0630   65.3770 C   0  0  0  0  0  0  0  0  0  0  0  0
    3.9630   69.0950   64.5920 C   0  0  0  0  0  0  0  0  0  0  0  0
    5.1270   69.4990   65.1110 C   0  0  0  0  0  0  0  0  0  0  0  0
    5.1820   69.9250   66.5000 C   0  0  0  0  0  0  0  0  0  0  0  0
    4.0130   69.9010   67.2590 C   0  0  0  0  0  0  0  0  0  0  0  0
    2.7930   69.4730   66.7010 O   0  0  0  0  0  0  0  0  0  0  0  0
    4.0010   70.2960   68.5940 C   0  0  0  0  0  0  0  0  0  0  0  0
    5.1870   70.7260   69.1860 C   0  0  0  0  0  0  0  0  0  0  0  0
    6.3680   70.7560   68.4390 C   0  0  0  0  0  0  0  0  0  0  0  0
    6.3670   70.3560   67.0980 C   0  0  0  0  0  0  0  0  0  0  0  0
    3.9350   68.7746   63.5401 H   0  0  0  0  0  0  0  0  0  0  0  0
    6.0361   69.5090   64.4918 H   0  0  0  0  0  0  0  0  0  0  0  0
    3.0669   70.2690   69.1743 H   0  0  0  0  0  0  0  0  0  0  0  0
    5.1937   71.0414   70.2398 H   0  0  0  0  0  0  0  0  0  0  0  0
    7.3033   71.0959   68.9078 H   0  0  0  0  0  0  0  0  0  0  0  0
    7.2998   70.3813   66.5155 H   0  0  0  0  0  0  0  0  0  0  0  0
  2  1  2  0
  3  2  1  0
  4  3  2  0
  5  4  1  0
  6  5  2  0
  7  6  1  0
  7  2  1  0
  8  6  1  0
  9  8  2  0
 10  9  1  0
 11  5  1  0
 11 10  2  0
  3 12  1  0
  4 13  1  0
  8 14  1  0
  9 15  1  0
 10 16  1  0
 11 17  1  0
M  END
>  <score>  (4) 
-7.767

$$$$
=
     RDKit          3D

 17 18  0  0  0  0  0  0  0  0999 V2000
    7.3780   71.5660   68.8670 O   0  0  0  0  0  0  0  0  0  0  0  0
    6.4140   71.0450   68.3180 C   0  0  0  0  0  0  0  0  0  0  0  0
    5.1560   70.8280   69.0560 C   0  0  0  0  0  0  0  0  0  0  0  0
    4.0830   70.2640   68.4950 C   0  0  0  0  0  0  0  0  0  0  0  0
    4.1410   69.8430   67.1050 C   0  0  0  0  0  0  0  0  0  0  0  0
    5.3210   70.0380   66.3890 C   0  0  0  0  0  0  0  0  0  0  0  0
    6.4460   70.6340   66.9920 O   0  0  0  0  0  0  0  0  0  0  0  0
    5.4390   69.6560   65.0560 C   0  0  0  0  0  0  0  0  0  0  0  0
    4.3490   69.0620   64.4210 C   0  0  0  0  0  0  0  0  0  0  0  0
    3.1580   68.8590   65.1230 C   0  0  0  0  0  0  0  0  0  0  0  0
    3.0530   69.2470   66.4640 C   0  0  0  0  0  0  0  0  0  0  0  0
    5.0990   71.1425   70.1085 H   0  0  0  0  0  0  0  0  0  0  0  0
    3.1629   70.1193   69.0802 H   0  0  0  0  0  0  0  0  0  0  0  0
    6.3799   69.8205   64.5104 H   0  0  0  0  0  0  0  0  0  0  0  0
    4.4266   68.7534   63.3680 H   0  0  0  0  0  0  0  0  0  0  0  0
    2.2987   68.3920   64.6195 H   0  0  0  0  0  0  0  0  0  0  0  0
    2.1138   69.0824   67.0125 H   0  0  0  0  0  0  0  0  0  0  0  0
  2  1  2  0
  3  2  1  0
  4  3  2  0
  5  4  1  0
  6  5  2  0
  7  6  1  0
  7  2  1  0
  8  6  1  0
  9  8  2  0
 10  9  1  0
 11  5  1  0
 11 10  2  0
  3 12  1  0
  4 13  1  0
  8 14  1  0
  9 15  1  0
 10 16  1  0
 11 17  1  0
M  END
>  <score>  (5) 
-7.73

$$$$
=
     RDKit          3D

 17 18  0  0  0  0  0  0  0  0999 V2000
    4.6290   68.9980   63.3160 O   0  0  0  0  0  0  0  0  0  0  0  0
    4.5480   69.2770   64.5060 C   0  0  0  0  0  0  0  0  0  0  0  0
    3.2890   69.0600   65.2430 C   0  0  0  0  0  0  0  0  0  0  0  0
    3.1580   69.3500   66.5410 C   0  0  0  0  0  0  0  0  0  0  0  0
    4.2900   69.9010   67.2680 C   0  0  0  0  0  0  0  0  0  0  0  0
    5.4890   70.1130   66.5900 C   0  0  0  0  0  0  0  0  0  0  0  0
    5.6140   69.8030   65.2220 O   0  0  0  0  0  0  0  0  0  0  0  0
    6.6090   70.6370   67.2310 C   0  0  0  0  0  0  0  0  0  0  0  0
    6.5270   70.9580   68.5850 C   0  0  0  0  0  0  0  0  0  0  0  0
    5.3330   70.7510   69.2810 C   0  0  0  0  0  0  0  0  0  0  0  0
    4.2150   70.2240   68.6250 C   0  0  0  0  0  0  0  0  0  0  0  0
    2.4252   68.6437   64.7039 H   0  0  0  0  0  0  0  0  0  0  0  0
    2.2017   69.1733   67.0550 H   0  0  0  0  0  0  0  0  0  0  0  0
    7.5456   70.7954   66.6763 H   0  0  0  0  0  0  0  0  0  0  0  0
    7.4021   71.3742   69.1056 H   0  0  0  0  0  0  0  0  0  0  0  0
    5.2717   71.0036   70.3498 H   0  0  0  0  0  0  0  0  0  0  0  0
    3.2774   70.0641   69.1776 H   0  0  0  0  0  0  0  0  0  0  0  0
  2  1  2  0
  3  2  1  0
  4  3  2  0
  5  4  1  0
  6  5  2  0
  7  6  1  0
  7  2  1  0
  8  6  1  0
  9  8  2  0
 10  9  1  0
 11  5  1  0
 11 10  2  0
  3 12  1  0
  4 13  1  0
  8 14  1  0
  9 15  1  0
 10 16  1  0
 11 17  1  0
M  END
>  <score>  (6) 
-7.664

$$$$
=
     RDKit          3D

 17 18  0  0  0  0  0  0  0  0999 V2000
    1.3800   68.5980   65.7880 O   0  0  0  0  0  0  0  0  0  0  0  0
    2.2500   69.0820   66.5030 C   0  0  0  0  0  0  0  0  0  0  0  0
    1.9420   69.4980   67.8840 C   0  0  0  0  0  0  0  0  0  0  0  0
    2.8600   70.0300   68.6960 C   0  0  0  0  0  0  0  0  0  0  0  0
    4.2200   70.2120   68.2150 C   0  0  0  0  0  0  0  0  0  0  0  0
    4.5330   69.8250   66.9130 C   0  0  0  0  0  0  0  0  0  0  0  0
    3.5550   69.2660   66.0660 O   0  0  0  0  0  0  0  0  0  0  0  0
    5.8160   69.9740   66.3940 C   0  0  0  0  0  0  0  0  0  0  0  0
    6.8130   70.5240   67.1980 C   0  0  0  0  0  0  0  0  0  0  0  0
    6.5180   70.9160   68.5060 C   0  0  0  0  0  0  0  0  0  0  0  0
    5.2230   70.7610   69.0150 C   0  0  0  0  0  0  0  0  0  0  0  0
    0.9168   69.3651   68.2600 H   0  0  0  0  0  0  0  0  0  0  0  0
    2.5892   70.3278   69.7197 H   0  0  0  0  0  0  0  0  0  0  0  0
    6.0401   69.6619   65.3633 H   0  0  0  0  0  0  0  0  0  0  0  0
    7.8318   70.6493   66.8026 H   0  0  0  0  0  0  0  0  0  0  0  0
    7.3069   71.3485   69.1390 H   0  0  0  0  0  0  0  0  0  0  0  0
    4.9962   71.0720   70.0455 H   0  0  0  0  0  0  0  0  0  0  0  0
  2  1  2  0
  3  2  1  0
  4  3  2  0
  5  4  1  0
  6  5  2  0
  7  6  1  0
  7  2  1  0
  8  6  1  0
  9  8  2  0
 10  9  1  0
 11  5  1  0
 11 10  2  0
  3 12  1  0
  4 13  1  0
  8 14  1  0
  9 15  1  0
 10 16  1  0
 11 17  1  0
M  END
>  <score>  (7) 
-7.586

$$$$
=
     RDKit          3D

 17 18  0  0  0  0  0  0  0  0999 V2000
    3.1510   68.1650   61.3330 O   0  0  0  0  0  0  0  0  0  0  0  0
    3.6230   68.5440   62.3990 C   0  0  0  0  0  0  0  0  0  0  0  0
    5.0280   68.9840   62.4820 C   0  0  0  0  0  0  0  0  0  0  0  0
    5.5820   69.4040   63.6240 C   0  0  0  0  0  0  0  0  0  0  0  0
    4.7820   69.4350   64.8370 C   0  0  0  0  0  0  0  0  0  0  0  0
    3.4520   69.0230   64.7800 C   0  0  0  0  0  0  0  0  0  0  0  0
    2.8800   68.5820   63.5700 O   0  0  0  0  0  0  0  0  0  0  0  0
    2.6350   69.0290   65.9070 C   0  0  0  0  0  0  0  0  0  0  0  0
    3.1620   69.4580   67.1240 C   0  0  0  0  0  0  0  0  0  0  0  0
    4.4930   69.8750   67.2000 C   0  0  0  0  0  0  0  0  0  0  0  0
    5.3040   69.8640   66.0590 C   0  0  0  0  0  0  0  0  0  0  0  0
    5.6432   68.9660   61.5703 H   0  0  0  0  0  0  0  0  0  0  0  0
    6.6344   69.7234   63.6453 H   0  0  0  0  0  0  0  0  0  0  0  0
    1.5877   68.6997   65.8381 H   0  0  0  0  0  0  0  0  0  0  0  0
    2.5300   69.4682   68.0243 H   0  0  0  0  0  0  0  0  0  0  0  0
    4.9061   70.2138   68.1615 H   0  0  0  0  0  0  0  0  0  0  0  0
    6.3516   70.1930   66.1250 H   0  0  0  0  0  0  0  0  0  0  0  0
  2  1  2  0
  3  2  1  0
  4  3  2  0
  5  4  1  0
  6  5  2  0
  7  6  1  0
  7  2  1  0
  8  6  1  0
  9  8  2  0
 10  9  1  0
 11  5  1  0
 11 10  2  0
  3 12  1  0
  4 13  1  0
  8 14  1  0
  9 15  1  0
 10 16  1  0
 11 17  1  0
M  END
>  <score>  (8) 
-7.482

$$$$
=
     RDKit          3D

 17 18  0  0  0  0  0  0  0  0999 V2000
    3.5410   70.5080   69.6870 O   0  0  0  0  0  0  0  0  0  0  0  0
    3.4410   70.1110   68.5310 C   0  0  0  0  0  0  0  0  0  0  0  0
    2.1820   69.5150   68.0490 C   0  0  0  0  0  0  0  0  0  0  0  0
    2.0310   69.0700   66.7980 C   0  0  0  0  0  0  0  0  0  0  0  0
    3.1400   69.1710   65.8650 C   0  0  0  0  0  0  0  0  0  0  0  0
    4.3400   69.7310   66.3010 C   0  0  0  0  0  0  0  0  0  0  0  0
    4.4870   70.1960   67.6220 O   0  0  0  0  0  0  0  0  0  0  0  0
    5.4390   69.8550   65.4550 C   0  0  0  0  0  0  0  0  0  0  0  0
    5.3360   69.4070   64.1390 C   0  0  0  0  0  0  0  0  0  0  0  0
    4.1410   68.8430   63.6850 C   0  0  0  0  0  0  0  0  0  0  0  0
    3.0440   68.7240   64.5460 C   0  0  0  0  0  0  0  0  0  0  0  0
    1.3345   69.4334   68.7455 H   0  0  0  0  0  0  0  0  0  0  0  0
    1.0748   68.6308   66.4773 H   0  0  0  0  0  0  0  0  0  0  0  0
    6.3760   70.3006   65.8203 H   0  0  0  0  0  0  0  0  0  0  0  0
    6.1952   69.4975   63.4582 H   0  0  0  0  0  0  0  0  0  0  0  0
    4.0620   68.4908   62.6459 H   0  0  0  0  0  0  0  0  0  0  0  0
    2.1061   68.2782   64.1833 H   0  0  0  0  0  0  0  0  0  0  0  0
  2  1  2  0
  3  2  1  0
  4  3  2  0
  5  4  1  0
  6  5  2  0
  7  6  1  0
  7  2  1  0
  8  6  1  0
  9  8  2  0
 10  9  1  0
 11  5  1  0
 11 10  2  0
  3 12  1  0
  4 13  1  0
  8 14  1  0
  9 15  1  0
 10 16  1  0
 11 17  1  0
M  END
>  <score>  (9) 
-7.372

$$$$
