=
     RDKit          3D

 33 34  0  0  0  0  0  0  0  0999 V2000
    6.0220   70.9930   68.2720 C   0  0  0  0  0  0  0  0  0  0  0  0
    4.8240   70.7300   68.9320 C   0  0  0  0  0  0  0  0  0  0  0  0
    3.7760   70.0900   68.2580 C   0  0  0  0  0  0  0  0  0  0  0  0
    3.9100   69.7050   66.9140 C   0  0  0  0  0  0  0  0  0  0  0  0
    5.1230   69.9700   66.2430 C   0  0  0  0  0  0  0  0  0  0  0  0
    6.1640   70.6120   66.9340 C   0  0  0  0  0  0  0  0  0  0  0  0
    5.2600   69.5870   64.9000 C   0  0  0  0  0  0  0  0  0  0  0  0
    4.2160   68.9490   64.2280 C   0  0  0  0  0  0  0  0  0  0  0  0
    3.0120   68.6770   64.8850 C   0  0  0  0  0  0  0  0  0  0  0  0
    2.8670   69.0620   66.2260 C   0  0  0  0  0  0  0  0  0  0  0  0
    7.8270   70.8950   69.8160 C   0  0  0  0  0  0  0  0  0  0  0  0
    7.1180   71.6080   68.8100 O   0  0  0  0  0  0  0  0  0  0  0  0
    1.8770   68.0100   64.1520 C   0  0  0  0  0  0  0  0  0  0  0  0
    1.7800   68.4970   62.7130 C   0  0  0  0  0  0  0  0  0  0  0  0
    0.3460   68.8340   62.3780 C   0  0  0  0  0  0  0  0  0  0  0  0
   -0.5920   68.2620   62.9320 O   0  0  0  0  0  0  0  0  0  0  0  0
    0.1150   69.9350   61.3770 C   0  0  0  0  0  0  0  0  0  0  0  0
    4.7006   71.0254   69.9844 H   0  0  0  0  0  0  0  0  0  0  0  0
    2.8345   69.8860   68.7890 H   0  0  0  0  0  0  0  0  0  0  0  0
    7.1099   70.8192   66.4121 H   0  0  0  0  0  0  0  0  0  0  0  0
    6.2019   69.7921   64.3701 H   0  0  0  0  0  0  0  0  0  0  0  0
    4.3413   68.6583   63.1745 H   0  0  0  0  0  0  0  0  0  0  0  0
    1.9207   68.8571   66.7480 H   0  0  0  0  0  0  0  0  0  0  0  0
    7.4926   71.2313   70.8085 H   0  0  0  0  0  0  0  0  0  0  0  0
    7.6315   69.8178   69.7088 H   0  0  0  0  0  0  0  0  0  0  0  0
    8.9052   71.0844   69.7088 H   0  0  0  0  0  0  0  0  0  0  0  0
    2.0421   66.9225   64.1510 H   0  0  0  0  0  0  0  0  0  0  0  0
    0.9380   68.2628   64.6661 H   0  0  0  0  0  0  0  0  0  0  0  0
    2.4038   69.3946   62.5892 H   0  0  0  0  0  0  0  0  0  0  0  0
    2.1317   67.7027   62.0381 H   0  0  0  0  0  0  0  0  0  0  0  0
   -0.0828   70.8778   61.9080 H   0  0  0  0  0  0  0  0  0  0  0  0
    1.0085   70.0502   60.7459 H   0  0  0  0  0  0  0  0  0  0  0  0
   -0.7495   69.6813   60.7459 H   0  0  0  0  0  0  0  0  0  0  0  0
  2  1  2  0
  3  2  1  0
  4  3  2  0
  5  4  1  0
  6  5  2  0
  6  1  1  0
  7  5  1  0
  8  7  2  0
  9  8  1  0
 10  9  2  0
 10  4  1  0
 12 11  1  0
 12  1  1  0
 13  9  1  0
 14 13  1  0
 15 14  1  0
 16 15  2  0
 17 15  1  0
  2 18  1  0
  3 19  1  0
  6 20  1  0
  7 21  1  0
  8 22  1  0
 10 23  1  0
 11 24  1  0
 11 25  1  0
 11 26  1  0
 13 27  1  0
 13 28  1  0
 14 29  1  0
 14 30  1  0
 17 31  1  0
 17 32  1  0
 17 33  1  0
M  END
>  <score>  (1) 
-9.748

$$$$
=
     RDKit          3D

 33 34  0  0  0  0  0  0  0  0999 V2000
    0.0240   67.8970   66.5790 C   0  0  0  0  0  0  0  0  0  0  0  0
    0.4240   68.3970   67.8160 C   0  0  0  0  0  0  0  0  0  0  0  0
    1.6760   69.0050   67.9570 C   0  0  0  0  0  0  0  0  0  0  0  0
    2.5490   69.1230   66.8640 C   0  0  0  0  0  0  0  0  0  0  0  0
    2.1490   68.6170   65.6090 C   0  0  0  0  0  0  0  0  0  0  0  0
    0.8870   68.0110   65.4840 C   0  0  0  0  0  0  0  0  0  0  0  0
    3.0180   68.7330   64.5140 C   0  0  0  0  0  0  0  0  0  0  0  0
    4.2680   69.3400   64.6550 C   0  0  0  0  0  0  0  0  0  0  0  0
    4.6740   69.8470   65.8930 C   0  0  0  0  0  0  0  0  0  0  0  0
    3.8100   69.7310   66.9920 C   0  0  0  0  0  0  0  0  0  0  0  0
   -2.1950   67.4100   67.2790 C   0  0  0  0  0  0  0  0  0  0  0  0
   -1.1670   67.2830   66.3060 O   0  0  0  0  0  0  0  0  0  0  0  0
    6.0310   70.4810   66.0490 C   0  0  0  0  0  0  0  0  0  0  0  0
    6.6930   70.0670   67.3570 C   0  0  0  0  0  0  0  0  0  0  0  0
    6.7410   71.2430   68.3050 C   0  0  0  0  0  0  0  0  0  0  0  0
    6.1190   72.2790   68.0710 O   0  0  0  0  0  0  0  0  0  0  0  0
    7.5390   71.0730   69.5700 C   0  0  0  0  0  0  0  0  0  0  0  0
   -0.2463   68.3136   68.6842 H   0  0  0  0  0  0  0  0  0  0  0  0
    1.9809   69.3964   68.9388 H   0  0  0  0  0  0  0  0  0  0  0  0
    0.5718   67.6187   64.5059 H   0  0  0  0  0  0  0  0  0  0  0  0
    2.7114   68.3414   63.5329 H   0  0  0  0  0  0  0  0  0  0  0  0
    4.9376   69.4197   63.7860 H   0  0  0  0  0  0  0  0  0  0  0  0
    4.1246   70.1225   67.9707 H   0  0  0  0  0  0  0  0  0  0  0  0
   -1.7555   67.3557   68.2859 H   0  0  0  0  0  0  0  0  0  0  0  0
   -2.7025   68.3777   67.1521 H   0  0  0  0  0  0  0  0  0  0  0  0
   -2.9227   66.5949   67.1521 H   0  0  0  0  0  0  0  0  0  0  0  0
    6.6702   70.1684   65.2101 H   0  0  0  0  0  0  0  0  0  0  0  0
    5.9029   71.5735   66.0574 H   0  0  0  0  0  0  0  0  0  0  0  0
    6.1146   69.2518   67.8163 H   0  0  0  0  0  0  0  0  0  0  0  0
    7.7184   69.7260   67.1514 H   0  0  0  0  0  0  0  0  0  0  0  0
    6.8810   71.2132   70.4403 H   0  0  0  0  0  0  0  0  0  0  0  0
    7.9724   70.0624   69.5971 H   0  0  0  0  0  0  0  0  0  0  0  0
    8.3467   71.8192   69.5971 H   0  0  0  0  0  0  0  0  0  0  0  0
  2  1  2  0
  3  2  1  0
  4  3  2  0
  5  4  1  0
  6  5  2  0
  6  1  1  0
  7  5  1  0
  8  7  2  0
  9  8  1  0
 10  9  2  0
 10  4  1  0
 12 11  1  0
 12  1  1  0
 13  9  1  0
 14 13  1  0
 15 14  1  0
 16 15  2  0
 17 15  1  0
  2 18  1  0
  3 19  1  0
  6 20  1  0
  7 21  1  0
  8 22  1  0
 10 23  1  0
 11 24  1  0
 11 25  1  0
 11 26  1  0
 13 27  1  0
 13 28  1  0
 14 29  1  0
 14 30  1  0
 17 31  1  0
 17 32  1  0
 17 33  1  0
M  END
>  <score>  (2) 
-9.569

$$$$
=
     RDKit          3D

 33 34  0  0  0  0  0  0  0  0999 V2000
    0.9840   68.4140   64.5710 C   0  0  0  0  0  0  0  0  0  0  0  0
    0.8050   68.5520   65.9460 C   0  0  0  0  0  0  0  0  0  0  0  0
    1.8730   68.9580   66.7550 C   0  0  0  0  0  0  0  0  0  0  0  0
    3.1340   69.2330   66.2040 C   0  0  0  0  0  0  0  0  0  0  0  0
    3.3190   69.0940   64.8120 C   0  0  0  0  0  0  0  0  0  0  0  0
    2.2370   68.6860   64.0130 C   0  0  0  0  0  0  0  0  0  0  0  0
    4.5780   69.3670   64.2570 C   0  0  0  0  0  0  0  0  0  0  0  0
    5.6430   69.7730   65.0640 C   0  0  0  0  0  0  0  0  0  0  0  0
    5.4700   69.9170   66.4440 C   0  0  0  0  0  0  0  0  0  0  0  0
    4.2150   69.6410   67.0050 C   0  0  0  0  0  0  0  0  0  0  0  0
    0.0010   68.7160   62.4270 C   0  0  0  0  0  0  0  0  0  0  0  0
    0.0300   68.0280   63.6710 O   0  0  0  0  0  0  0  0  0  0  0  0
    6.6250   70.3310   67.3180 C   0  0  0  0  0  0  0  0  0  0  0  0
    6.1430   70.9230   68.6360 C   0  0  0  0  0  0  0  0  0  0  0  0
    7.2940   71.0220   69.6090 C   0  0  0  0  0  0  0  0  0  0  0  0
    8.2630   71.7470   69.3820 O   0  0  0  0  0  0  0  0  0  0  0  0
    7.1820   70.2370   70.8890 C   0  0  0  0  0  0  0  0  0  0  0  0
   -0.1764   68.3417   66.3962 H   0  0  0  0  0  0  0  0  0  0  0  0
    1.7214   69.0631   67.8394 H   0  0  0  0  0  0  0  0  0  0  0  0
    2.3787   68.5786   62.9275 H   0  0  0  0  0  0  0  0  0  0  0  0
    4.7283   69.2600   63.1726 H   0  0  0  0  0  0  0  0  0  0  0  0
    6.6238   69.9807   64.6113 H   0  0  0  0  0  0  0  0  0  0  0  0
    4.0737   69.7455   68.0909 H   0  0  0  0  0  0  0  0  0  0  0  0
   -0.0447   69.8000   62.6085 H   0  0  0  0  0  0  0  0  0  0  0  0
    0.9100   68.4780   61.8551 H   0  0  0  0  0  0  0  0  0  0  0  0
   -0.8847   68.4023   61.8551 H   0  0  0  0  0  0  0  0  0  0  0  0
    7.2479   69.4492   67.5287 H   0  0  0  0  0  0  0  0  0  0  0  0
    7.2031   71.1002   66.7849 H   0  0  0  0  0  0  0  0  0  0  0  0
    5.7311   71.9269   68.4555 H   0  0  0  0  0  0  0  0  0  0  0  0
    5.3653   70.2718   69.0615 H   0  0  0  0  0  0  0  0  0  0  0  0
    7.2793   70.9186   71.7469 H   0  0  0  0  0  0  0  0  0  0  0  0
    6.2033   69.7363   70.9276 H   0  0  0  0  0  0  0  0  0  0  0  0
    7.9816   69.4826   70.9276 H   0  0  0  0  0  0  0  0  0  0  0  0
  2  1  2  0
  3  2  1  0
  4  3  2  0
  5  4  1  0
  6  5  2  0
  6  1  1  0
  7  5  1  0
  8  7  2  0
  9  8  1  0
 10  9  2  0
 10  4  1  0
 12 11  1  0
 12  1  1  0
 13  9  1  0
 14 13  1  0
 15 14  1  0
 16 15  2  0
 17 15  1  0
  2 18  1  0
  3 19  1  0
  6 20  1  0
  7 21  1  0
  8 22  1  0
 10 23  1  0
 11 24  1  0
 11 25  1  0
 11 26  1  0
 13 27  1  0
 13 28  1  0
 14 29  1  0
 14 30  1  0
 17 31  1  0
 17 32  1  0
 17 33  1  0
M  END
>  <score>  (3) 
-9.451

$$$$
=
     RDKit          3D

 33 34  0  0  0  0  0  0  0  0999 V2000
    5.7120   71.0970   68.4720 C   0  0  0  0  0  0  0  0  0  0  0  0
    4.6120   71.0280   69.3250 C   0  0  0  0  0  0  0  0  0  0  0  0
    3.4490   70.3650   68.9180 C   0  0  0  0  0  0  0  0  0  0  0  0
    3.3660   69.7600   67.6540 C   0  0  0  0  0  0  0  0  0  0  0  0
    4.4780   69.8280   66.7880 C   0  0  0  0  0  0  0  0  0  0  0  0
    5.6390   70.4960   67.2120 C   0  0  0  0  0  0  0  0  0  0  0  0
    4.4000   69.2250   65.5230 C   0  0  0  0  0  0  0  0  0  0  0  0
    3.2390   68.5630   65.1170 C   0  0  0  0  0  0  0  0  0  0  0  0
    2.1330   68.4870   65.9690 C   0  0  0  0  0  0  0  0  0  0  0  0
    2.2040   69.0910   67.2320 C   0  0  0  0  0  0  0  0  0  0  0  0
    7.8420   70.9780   69.5230 C   0  0  0  0  0  0  0  0  0  0  0  0
    6.9040   71.7100   68.7450 O   0  0  0  0  0  0  0  0  0  0  0  0
    0.8730   67.7930   65.5220 C   0  0  0  0  0  0  0  0  0  0  0  0
   -0.3600   68.3900   66.1880 C   0  0  0  0  0  0  0  0  0  0  0  0
   -0.9800   67.3810   67.1250 C   0  0  0  0  0  0  0  0  0  0  0  0
   -0.2840   66.6200   67.7980 O   0  0  0  0  0  0  0  0  0  0  0  0
   -2.4810   67.3800   67.2390 C   0  0  0  0  0  0  0  0  0  0  0  0
    4.6582   71.4954   70.3197 H   0  0  0  0  0  0  0  0  0  0  0  0
    2.5865   70.3171   69.5990 H   0  0  0  0  0  0  0  0  0  0  0  0
    6.5077   70.5471   66.5392 H   0  0  0  0  0  0  0  0  0  0  0  0
    5.2634   69.2743   64.8432 H   0  0  0  0  0  0  0  0  0  0  0  0
    3.1945   68.0986   64.1208 H   0  0  0  0  0  0  0  0  0  0  0  0
    1.3351   69.0406   67.9047 H   0  0  0  0  0  0  0  0  0  0  0  0
    7.6365   71.1384   70.5917 H   0  0  0  0  0  0  0  0  0  0  0  0
    7.7551   69.9066   69.2897 H   0  0  0  0  0  0  0  0  0  0  0  0
    8.8602   71.3227   69.2897 H   0  0  0  0  0  0  0  0  0  0  0  0
    0.7756   67.8968   64.4313 H   0  0  0  0  0  0  0  0  0  0  0  0
    0.9419   66.7337   65.8102 H   0  0  0  0  0  0  0  0  0  0  0  0
   -0.0692   69.2852   66.7572 H   0  0  0  0  0  0  0  0  0  0  0  0
   -1.0927   68.6620   65.4139 H   0  0  0  0  0  0  0  0  0  0  0  0
   -2.7681   67.3798   68.3009 H   0  0  0  0  0  0  0  0  0  0  0  0
   -2.8865   68.2779   66.7497 H   0  0  0  0  0  0  0  0  0  0  0  0
   -2.8853   66.4816   66.7497 H   0  0  0  0  0  0  0  0  0  0  0  0
  2  1  2  0
  3  2  1  0
  4  3  2  0
  5  4  1  0
  6  5  2  0
  6  1  1  0
  7  5  1  0
  8  7  2  0
  9  8  1  0
 10  9  2  0
 10  4  1  0
 12 11  1  0
 12  1  1  0
 13  9  1  0
 14 13  1  0
 15 14  1  0
 16 15  2  0
 17 15  1  0
  2 18  1  0
  3 19  1  0
  6 20  1  0
  7 21  1  0
  8 22  1  0
 10 23  1  0
 11 24  1  0
 11 25  1  0
 11 26  1  0
 13 27  1  0
 13 28  1  0
 14 29  1  0
 14 30  1  0
 17 31  1  0
 17 32  1  0
 17 33  1  0
M  END
>  <score>  (4) 
-9.323

$$$$
=
     RDKit          3D

 33 34  0  0  0  0  0  0  0  0999 V2000
    4.3090   61.6010   72.0980 C   0  0  0  0  0  0  0  0  0  0  0  0
    4.9090   62.3070   71.0570 C   0  0  0  0  0  0  0  0  0  0  0  0
    4.2250   63.3570   70.4340 C   0  0  0  0  0  0  0  0  0  0  0  0
    2.9300   63.7180   70.8410 C   0  0  0  0  0  0  0  0  0  0  0  0
    2.3190   63.0050   71.8950 C   0  0  0  0  0  0  0  0  0  0  0  0
    3.0210   61.9540   72.5100 C   0  0  0  0  0  0  0  0  0  0  0  0
    1.0260   63.3620   72.3040 C   0  0  0  0  0  0  0  0  0  0  0  0
    0.3430   64.4100   71.6830 C   0  0  0  0  0  0  0  0  0  0  0  0
    0.9400   65.1250   70.6410 C   0  0  0  0  0  0  0  0  0  0  0  0
    2.2310   64.7700   70.2240 C   0  0  0  0  0  0  0  0  0  0  0  0
    4.1080   59.3590   72.8630 C   0  0  0  0  0  0  0  0  0  0  0  0
    4.8650   60.5600   72.7880 O   0  0  0  0  0  0  0  0  0  0  0  0
    0.1940   66.2400   69.9550 C   0  0  0  0  0  0  0  0  0  0  0  0
    1.1190   67.0740   69.0790 C   0  0  0  0  0  0  0  0  0  0  0  0
    0.3670   67.5780   67.8690 C   0  0  0  0  0  0  0  0  0  0  0  0
   -0.2500   66.8090   67.1320 O   0  0  0  0  0  0  0  0  0  0  0  0
    0.3620   69.0660   67.6350 C   0  0  0  0  0  0  0  0  0  0  0  0
    5.9225   62.0384   70.7243 H   0  0  0  0  0  0  0  0  0  0  0  0
    4.7085   63.9076   69.6136 H   0  0  0  0  0  0  0  0  0  0  0  0
    2.5470   61.3980   73.3323 H   0  0  0  0  0  0  0  0  0  0  0  0
    0.5438   62.8098   73.1241 H   0  0  0  0  0  0  0  0  0  0  0  0
   -0.6714   64.6744   72.0161 H   0  0  0  0  0  0  0  0  0  0  0  0
    2.7046   65.3241   69.4002 H   0  0  0  0  0  0  0  0  0  0  0  0
    3.9419   59.0955   73.9180 H   0  0  0  0  0  0  0  0  0  0  0  0
    3.1384   59.5050   72.3645 H   0  0  0  0  0  0  0  0  0  0  0  0
    4.6580   58.5472   72.3645 H   0  0  0  0  0  0  0  0  0  0  0  0
   -0.5983   65.8066   69.3270 H   0  0  0  0  0  0  0  0  0  0  0  0
   -0.2336   66.8958   70.7278 H   0  0  0  0  0  0  0  0  0  0  0  0
    1.4947   67.9307   69.6577 H   0  0  0  0  0  0  0  0  0  0  0  0
    1.9622   66.4505   68.7470 H   0  0  0  0  0  0  0  0  0  0  0  0
    0.3602   69.5893   68.6025 H   0  0  0  0  0  0  0  0  0  0  0  0
    1.2592   69.3507   67.0658 H   0  0  0  0  0  0  0  0  0  0  0  0
   -0.5371   69.3446   67.0658 H   0  0  0  0  0  0  0  0  0  0  0  0
  2  1  2  0
  3  2  1  0
  4  3  2  0
  5  4  1  0
  6  5  2  0
  6  1  1  0
  7  5  1  0
  8  7  2  0
  9  8  1  0
 10  9  2  0
 10  4  1  0
 12 11  1  0
 12  1  1  0
 13  9  1  0
 14 13  1  0
 15 14  1  0
 16 15  2  0
 17 15  1  0
  2 18  1  0
  3 19  1  0
  6 20  1  0
  7 21  1  0
  8 22  1  0
 10 23  1  0
 11 24  1  0
 11 25  1  0
 11 26  1  0
 13 27  1  0
 13 28  1  0
 14 29  1  0
 14 30  1  0
 17 31  1  0
 17 32  1  0
 17 33  1  0
M  END
>  <score>  (5) 
-7.991

$$$$
=
     RDKit          3D

 33 34  0  0  0  0  0  0  0  0999 V2000
    1.0720   60.3240   72.5620 C   0  0  0  0  0  0  0  0  0  0  0  0
   -0.1750   60.9080   72.7760 C   0  0  0  0  0  0  0  0  0  0  0  0
   -0.4310   62.2050   72.3170 C   0  0  0  0  0  0  0  0  0  0  0  0
    0.5540   62.9390   71.6370 C   0  0  0  0  0  0  0  0  0  0  0  0
    1.8180   62.3510   71.4190 C   0  0  0  0  0  0  0  0  0  0  0  0
    2.0590   61.0480   71.8850 C   0  0  0  0  0  0  0  0  0  0  0  0
    2.8050   63.0810   70.7400 C   0  0  0  0  0  0  0  0  0  0  0  0
    2.5490   64.3750   70.2820 C   0  0  0  0  0  0  0  0  0  0  0  0
    1.2990   64.9660   70.4900 C   0  0  0  0  0  0  0  0  0  0  0  0
    0.3100   64.2420   71.1710 C   0  0  0  0  0  0  0  0  0  0  0  0
    2.6320   58.5410   72.3680 C   0  0  0  0  0  0  0  0  0  0  0  0
    1.4520   59.0710   72.9560 O   0  0  0  0  0  0  0  0  0  0  0  0
    1.0310   66.3700   70.0150 C   0  0  0  0  0  0  0  0  0  0  0  0
   -0.2350   66.4420   69.1730 C   0  0  0  0  0  0  0  0  0  0  0  0
    0.0420   67.1850   67.8870 C   0  0  0  0  0  0  0  0  0  0  0  0
   -0.4760   66.8430   66.8240 O   0  0  0  0  0  0  0  0  0  0  0  0
    0.9380   68.3930   67.9710 C   0  0  0  0  0  0  0  0  0  0  0  0
   -0.9595   60.3485   73.3066 H   0  0  0  0  0  0  0  0  0  0  0  0
   -1.4189   62.6563   72.4916 H   0  0  0  0  0  0  0  0  0  0  0  0
    3.0434   60.5878   71.7142 H   0  0  0  0  0  0  0  0  0  0  0  0
    3.7925   62.6285   70.5663 H   0  0  0  0  0  0  0  0  0  0  0  0
    3.3361   64.9333   69.7540 H   0  0  0  0  0  0  0  0  0  0  0  0
   -0.6741   64.7021   71.3435 H   0  0  0  0  0  0  0  0  0  0  0  0
    3.3280   58.2284   73.1604 H   0  0  0  0  0  0  0  0  0  0  0  0
    2.3728   57.6729   71.7442 H   0  0  0  0  0  0  0  0  0  0  0  0
    3.1087   59.3115   71.7442 H   0  0  0  0  0  0  0  0  0  0  0  0
    0.9165   67.0274   70.8895 H   0  0  0  0  0  0  0  0  0  0  0  0
    1.8786   66.6912   69.3918 H   0  0  0  0  0  0  0  0  0  0  0  0
   -0.5753   65.4225   68.9388 H   0  0  0  0  0  0  0  0  0  0  0  0
   -1.0145   66.9748   69.7374 H   0  0  0  0  0  0  0  0  0  0  0  0
    1.1216   68.6406   69.0269 H   0  0  0  0  0  0  0  0  0  0  0  0
    1.8947   68.1752   67.4737 H   0  0  0  0  0  0  0  0  0  0  0  0
    0.4520   69.2453   67.4737 H   0  0  0  0  0  0  0  0  0  0  0  0
  2  1  2  0
  3  2  1  0
  4  3  2  0
  5  4  1  0
  6  5  2  0
  6  1  1  0
  7  5  1  0
  8  7  2  0
  9  8  1  0
 10  9  2  0
 10  4  1  0
 12 11  1  0
 12  1  1  0
 13  9  1  0
 14 13  1  0
 15 14  1  0
 16 15  2  0
 17 15  1  0
  2 18  1  0
  3 19  1  0
  6 20  1  0
  7 21  1  0
  8 22  1  0
 10 23  1  0
 11 24  1  0
 11 25  1  0
 11 26  1  0
 13 27  1  0
 13 28  1  0
 14 29  1  0
 14 30  1  0
 17 31  1  0
 17 32  1  0
 17 33  1  0
M  END
>  <score>  (6) 
-7.452

$$$$
=
     RDKit          3D

 33 34  0  0  0  0  0  0  0  0999 V2000
    2.6130   68.7810   61.7890 C   0  0  0  0  0  0  0  0  0  0  0  0
    1.4890   68.7100   62.6090 C   0  0  0  0  0  0  0  0  0  0  0  0
    1.6190   68.8620   63.9940 C   0  0  0  0  0  0  0  0  0  0  0  0
    2.8750   69.0890   64.5810 C   0  0  0  0  0  0  0  0  0  0  0  0
    4.0150   69.1620   63.7530 C   0  0  0  0  0  0  0  0  0  0  0  0
    3.8670   69.0080   62.3640 C   0  0  0  0  0  0  0  0  0  0  0  0
    5.2710   69.3880   64.3360 C   0  0  0  0  0  0  0  0  0  0  0  0
    5.4020   69.5400   65.7180 C   0  0  0  0  0  0  0  0  0  0  0  0
    4.2780   69.4740   66.5470 C   0  0  0  0  0  0  0  0  0  0  0  0
    3.0200   69.2440   65.9710 C   0  0  0  0  0  0  0  0  0  0  0  0
    3.8120   69.0450   59.7530 C   0  0  0  0  0  0  0  0  0  0  0  0
    2.6250   68.6510   60.4280 O   0  0  0  0  0  0  0  0  0  0  0  0
    4.4220   69.6150   68.0400 C   0  0  0  0  0  0  0  0  0  0  0  0
    4.3850   71.0760   68.4670 C   0  0  0  0  0  0  0  0  0  0  0  0
    5.7800   71.6540   68.4500 C   0  0  0  0  0  0  0  0  0  0  0  0
    6.0010   72.7820   68.0080 O   0  0  0  0  0  0  0  0  0  0  0  0
    6.8800   70.8140   69.0430 C   0  0  0  0  0  0  0  0  0  0  0  0
    0.4973   68.5341   62.1668 H   0  0  0  0  0  0  0  0  0  0  0  0
    0.7250   68.8029   64.6322 H   0  0  0  0  0  0  0  0  0  0  0  0
    4.7546   69.0672   61.7169 H   0  0  0  0  0  0  0  0  0  0  0  0
    6.1640   69.4462   63.6963 H   0  0  0  0  0  0  0  0  0  0  0  0
    6.3956   69.7127   66.1571 H   0  0  0  0  0  0  0  0  0  0  0  0
    2.1320   69.1839   66.6174 H   0  0  0  0  0  0  0  0  0  0  0  0
    4.5857   69.3018   60.4915 H   0  0  0  0  0  0  0  0  0  0  0  0
    4.1674   68.2167   59.1225 H   0  0  0  0  0  0  0  0  0  0  0  0
    3.6016   69.9215   59.1225 H   0  0  0  0  0  0  0  0  0  0  0  0
    3.5974   69.0777   68.5313 H   0  0  0  0  0  0  0  0  0  0  0  0
    5.3940   69.1930   68.3351 H   0  0  0  0  0  0  0  0  0  0  0  0
    3.7474   71.6426   67.7724 H   0  0  0  0  0  0  0  0  0  0  0  0
    3.9781   71.1442   69.4867 H   0  0  0  0  0  0  0  0  0  0  0  0
    6.8233   70.8573   70.1407 H   0  0  0  0  0  0  0  0  0  0  0  0
    6.7651   69.7717   68.7108 H   0  0  0  0  0  0  0  0  0  0  0  0
    7.8553   71.1993   68.7108 H   0  0  0  0  0  0  0  0  0  0  0  0
  2  1  2  0
  3  2  1  0
  4  3  2  0
  5  4  1  0
  6  5  2  0
  6  1  1  0
  7  5  1  0
  8  7  2  0
  9  8  1  0
 10  9  2  0
 10  4  1  0
 12 11  1  0
 12  1  1  0
 13  9  1  0
 14 13  1  0
 15 14  1  0
 16 15  2  0
 17 15  1  0
  2 18  1  0
  3 19  1  0
  6 20  1  0
  7 21  1  0
  8 22  1  0
 10 23  1  0
 11 24  1  0
 11 25  1  0
 11 26  1  0
 13 27  1  0
 13 28  1  0
 14 29  1  0
 14 30  1  0
 17 31  1  0
 17 32  1  0
 17 33  1  0
M  END
>  <score>  (7) 
-7.421

$$$$
=
     RDKit          3D

 33 34  0  0  0  0  0  0  0  0999 V2000
    4.8900   64.2650   63.8700 C   0  0  0  0  0  0  0  0  0  0  0  0
    4.0710   63.8550   64.9200 C   0  0  0  0  0  0  0  0  0  0  0  0
    3.0210   64.6730   65.3520 C   0  0  0  0  0  0  0  0  0  0  0  0
    2.7720   65.9130   64.7410 C   0  0  0  0  0  0  0  0  0  0  0  0
    3.6000   66.3320   63.6780 C   0  0  0  0  0  0  0  0  0  0  0  0
    4.6500   65.4980   63.2560 C   0  0  0  0  0  0  0  0  0  0  0  0
    3.3560   67.5700   63.0660 C   0  0  0  0  0  0  0  0  0  0  0  0
    2.3080   68.3860   63.4960 C   0  0  0  0  0  0  0  0  0  0  0  0
    1.4790   67.9800   64.5460 C   0  0  0  0  0  0  0  0  0  0  0  0
    1.7210   66.7450   65.1650 C   0  0  0  0  0  0  0  0  0  0  0  0
    5.6550   62.3060   62.7620 C   0  0  0  0  0  0  0  0  0  0  0  0
    5.9450   63.5650   63.3530 O   0  0  0  0  0  0  0  0  0  0  0  0
    0.3630   68.8710   65.0250 C   0  0  0  0  0  0  0  0  0  0  0  0
   -0.0530   68.5270   66.4490 C   0  0  0  0  0  0  0  0  0  0  0  0
   -1.5350   68.2390   66.4980 C   0  0  0  0  0  0  0  0  0  0  0  0
   -2.3320   68.8600   65.7940 O   0  0  0  0  0  0  0  0  0  0  0  0
   -1.9900   67.1260   67.4040 C   0  0  0  0  0  0  0  0  0  0  0  0
    4.2501   62.8867   65.4102 H   0  0  0  0  0  0  0  0  0  0  0  0
    2.3811   64.3400   66.1824 H   0  0  0  0  0  0  0  0  0  0  0  0
    5.2956   65.8219   62.4263 H   0  0  0  0  0  0  0  0  0  0  0  0
    3.9982   67.9022   62.2370 H   0  0  0  0  0  0  0  0  0  0  0  0
    2.1333   69.3549   63.0054 H   0  0  0  0  0  0  0  0  0  0  0  0
    1.0775   66.4218   65.9965 H   0  0  0  0  0  0  0  0  0  0  0  0
    5.4833   61.5607   63.5526 H   0  0  0  0  0  0  0  0  0  0  0  0
    4.7533   62.3929   62.1379 H   0  0  0  0  0  0  0  0  0  0  0  0
    6.5038   61.9897   62.1379 H   0  0  0  0  0  0  0  0  0  0  0  0
    0.7024   69.9169   64.9944 H   0  0  0  0  0  0  0  0  0  0  0  0
   -0.5051   68.7218   64.3660 H   0  0  0  0  0  0  0  0  0  0  0  0
    0.5021   67.6393   66.7865 H   0  0  0  0  0  0  0  0  0  0  0  0
    0.1715   69.3794   67.1071 H   0  0  0  0  0  0  0  0  0  0  0  0
   -1.8646   67.4326   68.4529 H   0  0  0  0  0  0  0  0  0  0  0  0
   -3.0503   66.9059   67.2105 H   0  0  0  0  0  0  0  0  0  0  0  0
   -1.3875   66.2262   67.2105 H   0  0  0  0  0  0  0  0  0  0  0  0
  2  1  2  0
  3  2  1  0
  4  3  2  0
  5  4  1  0
  6  5  2  0
  6  1  1  0
  7  5  1  0
  8  7  2  0
  9  8  1  0
 10  9  2  0
 10  4  1  0
 12 11  1  0
 12  1  1  0
 13  9  1  0
 14 13  1  0
 15 14  1  0
 16 15  2  0
 17 15  1  0
  2 18  1  0
  3 19  1  0
  6 20  1  0
  7 21  1  0
  8 22  1  0
 10 23  1  0
 11 24  1  0
 11 25  1  0
 11 26  1  0
 13 27  1  0
 13 28  1  0
 14 29  1  0
 14 30  1  0
 17 31  1  0
 17 32  1  0
 17 33  1  0
M  END
>  <score>  (8) 
-6.816

$$$$
