=
     RDKit          3D

 64 68  0  0  0  0  0  0  0  0999 V2000
    0.1430   67.0410   68.3640 C   0  0  0  0  0  0  0  0  0  0  0  0
   -1.0730   66.8450   68.3930 O   0  0  0  0  0  0  0  0  0  0  0  0
    0.9390   66.6580   69.4180 N   0  0  0  0  0  0  0  0  0  0  0  0
    0.8350   67.6730   67.1290 C   0  0  1  0  0  0  0  0  0  0  0  0
   -0.8310   68.7740   65.4510 C   0  0  0  0  0  0  0  0  0  0  0  0
    0.0030   67.5920   65.8380 N   0  0  0  0  0  4  0  0  0  0  0  0
    1.3950   69.0950   67.3380 C   0  0  0  0  0  0  0  0  0  0  0  0
    2.7570   69.3130   66.7690 C   0  0  0  0  0  0  0  0  0  0  0  0
    3.1520   69.0260   65.4790 C   0  0  0  0  0  0  0  0  0  0  0  0
    4.4930   69.2890   65.3630 N   0  0  0  0  0  0  0  0  0  0  0  0
    4.9740   69.7850   66.5510 C   0  0  0  0  0  0  0  0  0  0  0  0
    3.9020   69.8570   67.4400 C   0  0  0  0  0  0  0  0  0  0  0  0
    4.1330   70.3840   68.7280 C   0  0  0  0  0  0  0  0  0  0  0  0
    5.4230   70.7940   69.0840 C   0  0  0  0  0  0  0  0  0  0  0  0
    6.4750   70.6890   68.1800 C   0  0  0  0  0  0  0  0  0  0  0  0
    6.2700   70.1850   66.8930 C   0  0  0  0  0  0  0  0  0  0  0  0
    0.3870   65.9970   70.6080 C   0  0  0  0  0  0  0  0  0  0  0  0
    0.4280   64.4620   70.5290 C   0  0  0  0  0  0  0  0  0  0  0  0
   -0.2650   63.8510   69.7220 O   0  0  0  0  0  0  0  0  0  0  0  0
    1.2100   63.8960   71.5190 N   0  0  0  0  0  0  0  0  0  0  0  0
    1.5730   62.5320   71.6760 C   0  0  0  0  0  0  0  0  0  0  0  0
    2.8170   62.0220   71.2670 C   0  0  0  0  0  0  0  0  0  0  0  0
    3.9590   62.8000   70.6590 C   0  0  0  0  0  0  0  0  0  0  0  0
    5.3130   62.3770   71.2490 C   0  0  0  0  0  0  0  0  0  0  0  0
    5.5410   60.8650   71.3040 C   0  0  0  0  0  0  0  0  0  0  0  0
    4.3130   60.0420   70.9340 C   0  0  0  0  0  0  0  0  0  0  0  0
    3.0540   60.6610   71.4820 C   0  0  0  0  0  0  0  0  0  0  0  0
    2.2110   59.8480   72.1480 N   0  0  0  0  0  0  0  0  0  0  0  0
    1.0510   60.3420   72.5840 C   0  0  0  0  0  0  0  0  0  0  0  0
    0.6550   61.6800   72.3740 C   0  0  0  0  0  0  0  0  0  0  0  0
   -0.6310   62.0630   72.8530 C   0  0  0  0  0  0  0  0  0  0  0  0
   -1.4620   61.1700   73.5330 C   0  0  0  0  0  0  0  0  0  0  0  0
   -1.0340   59.8700   73.7480 C   0  0  0  0  0  0  0  0  0  0  0  0
    0.2110   59.4730   73.2670 C   0  0  0  0  0  0  0  0  0  0  0  0
    1.9517   66.8399   69.3716 H   0  0  0  0  0  0  0  0  0  0  0  0
    1.7133   67.0237   66.9986 H   0  0  0  0  0  0  0  0  0  0  0  0
   -1.1897   69.2824   66.3581 H   0  0  0  0  0  0  0  0  0  0  0  0
   -0.2241   69.4717   64.8553 H   0  0  0  0  0  0  0  0  0  0  0  0
   -1.6918   68.4361   64.8553 H   0  0  0  0  0  0  0  0  0  0  0  0
   -0.6346   66.7891   65.9369 H   0  0  0  0  0  0  0  0  0  0  0  0
    0.7061   67.5228   65.0885 H   0  0  0  0  0  0  0  0  0  0  0  0
    0.7059   69.8089   66.8632 H   0  0  0  0  0  0  0  0  0  0  0  0
    1.4829   69.2402   68.4248 H   0  0  0  0  0  0  0  0  0  0  0  0
    2.5002   68.6491   64.6771 H   0  0  0  0  0  0  0  0  0  0  0  0
    5.0551   69.1376   64.5133 H   0  0  0  0  0  0  0  0  0  0  0  0
    3.3054   70.4721   69.4472 H   0  0  0  0  0  0  0  0  0  0  0  0
    5.6067   71.2032   70.0884 H   0  0  0  0  0  0  0  0  0  0  0  0
    7.4834   71.0075   68.4828 H   0  0  0  0  0  0  0  0  0  0  0  0
    7.0987   70.1056   66.1740 H   0  0  0  0  0  0  0  0  0  0  0  0
    0.9684   66.3165   71.4854 H   0  0  0  0  0  0  0  0  0  0  0  0
   -0.6708   66.2900   70.6805 H   0  0  0  0  0  0  0  0  0  0  0  0
    1.5747   64.5444   72.2313 H   0  0  0  0  0  0  0  0  0  0  0  0
    3.9725   62.6234   69.5734 H   0  0  0  0  0  0  0  0  0  0  0  0
    3.8054   63.8659   70.8833 H   0  0  0  0  0  0  0  0  0  0  0  0
    6.1090   62.8216   70.6336 H   0  0  0  0  0  0  0  0  0  0  0  0
    5.3229   62.7312   72.2904 H   0  0  0  0  0  0  0  0  0  0  0  0
    6.3516   60.6112   70.6050 H   0  0  0  0  0  0  0  0  0  0  0  0
    5.7895   60.6171   72.3465 H   0  0  0  0  0  0  0  0  0  0  0  0
    4.2367   59.9851   69.8381 H   0  0  0  0  0  0  0  0  0  0  0  0
    4.4240   59.0378   71.3691 H   0  0  0  0  0  0  0  0  0  0  0  0
   -0.9796   63.0922   72.6822 H   0  0  0  0  0  0  0  0  0  0  0  0
   -2.4482   61.4961   73.8949 H   0  0  0  0  0  0  0  0  0  0  0  0
   -1.6714   59.1584   74.2933 H   0  0  0  0  0  0  0  0  0  0  0  0
    0.5398   58.4366   73.4337 H   0  0  0  0  0  0  0  0  0  0  0  0
  2  1  2  0
  3  1  1  0
  4  1  1  0
  6  5  1  0
  6  4  1  0
  7  4  1  0
  8  7  1  0
  9  8  2  0
 10  9  1  0
 11 10  1  0
 12 11  2  0
 12  8  1  0
 13 12  1  0
 14 13  2  0
 15 14  1  0
 16 11  1  0
 16 15  2  0
 17  3  1  0
 18 17  1  0
 19 18  2  0
 20 18  1  0
 21 20  1  0
 22 21  1  0
 23 22  1  0
 24 23  1  0
 25 24  1  0
 26 25  1  0
 27 26  1  0
 27 22  2  0
 28 27  1  0
 29 28  2  0
 30 29  1  0
 30 21  2  0
 31 30  1  0
 32 31  2  0
 33 32  1  0
 34 33  2  0
 34 29  1  0
  3 35  1  0
  4 36  1  6
  5 37  1  0
  5 38  1  0
  5 39  1  0
  6 40  1  0
  6 41  1  0
  7 42  1  0
  7 43  1  0
  9 44  1  0
 10 45  1  0
 13 46  1  0
 14 47  1  0
 15 48  1  0
 16 49  1  0
 17 50  1  0
 17 51  1  0
 20 52  1  0
 23 53  1  0
 23 54  1  0
 24 55  1  0
 24 56  1  0
 25 57  1  0
 25 58  1  0
 26 59  1  0
 26 60  1  0
 31 61  1  0
 32 62  1  0
 33 63  1  0
 34 64  1  0
M  CHG  1   6   1
M  END
>  <score>  (1) 
-13.372

$$$$
=
     RDKit          3D

 64 68  0  0  0  0  0  0  0  0999 V2000
    0.1560   67.0030   68.5450 C   0  0  0  0  0  0  0  0  0  0  0  0
   -1.0630   66.8220   68.5680 O   0  0  0  0  0  0  0  0  0  0  0  0
    0.9430   66.6070   69.6000 N   0  0  0  0  0  0  0  0  0  0  0  0
    0.8610   67.6300   67.3150 C   0  0  1  0  0  0  0  0  0  0  0  0
   -0.7520   68.7060   65.5700 C   0  0  0  0  0  0  0  0  0  0  0  0
    0.0530   67.5220   66.0100 N   0  0  0  0  0  4  0  0  0  0  0  0
    1.3970   69.0620   67.5160 C   0  0  0  0  0  0  0  0  0  0  0  0
    2.7430   69.3080   66.9210 C   0  0  0  0  0  0  0  0  0  0  0  0
    3.1180   69.0340   65.6220 C   0  0  0  0  0  0  0  0  0  0  0  0
    4.4500   69.3220   65.4800 N   0  0  0  0  0  0  0  0  0  0  0  0
    4.9470   69.8210   66.6610 C   0  0  0  0  0  0  0  0  0  0  0  0
    3.8910   69.8690   67.5720 C   0  0  0  0  0  0  0  0  0  0  0  0
    4.1380   70.3950   68.8570 C   0  0  0  0  0  0  0  0  0  0  0  0
    5.4280   70.8270   69.1890 C   0  0  0  0  0  0  0  0  0  0  0  0
    6.4630   70.7450   68.2640 C   0  0  0  0  0  0  0  0  0  0  0  0
    6.2420   70.2440   66.9790 C   0  0  0  0  0  0  0  0  0  0  0  0
    0.3780   65.9500   70.7870 C   0  0  0  0  0  0  0  0  0  0  0  0
    0.3720   64.4150   70.6890 C   0  0  0  0  0  0  0  0  0  0  0  0
   -0.2580   63.8400   69.8090 O   0  0  0  0  0  0  0  0  0  0  0  0
    1.0280   63.8100   71.7450 N   0  0  0  0  0  0  0  0  0  0  0  0
    1.3240   62.4320   71.9170 C   0  0  0  0  0  0  0  0  0  0  0  0
    0.6060   61.6010   72.7930 C   0  0  0  0  0  0  0  0  0  0  0  0
   -0.5870   61.9870   73.6340 C   0  0  0  0  0  0  0  0  0  0  0  0
   -1.6770   60.9070   73.6070 C   0  0  0  0  0  0  0  0  0  0  0  0
   -1.1720   59.4830   73.8490 C   0  0  0  0  0  0  0  0  0  0  0  0
    0.3470   59.3670   73.8940 C   0  0  0  0  0  0  0  0  0  0  0  0
    0.9940   60.2600   72.8690 C   0  0  0  0  0  0  0  0  0  0  0  0
    1.9340   59.7050   72.0800 N   0  0  0  0  0  0  0  0  0  0  0  0
    2.5840   60.4800   71.2090 C   0  0  0  0  0  0  0  0  0  0  0  0
    2.3400   61.8640   71.0780 C   0  0  0  0  0  0  0  0  0  0  0  0
    3.1380   62.5820   70.1410 C   0  0  0  0  0  0  0  0  0  0  0  0
    4.1020   61.9480   69.3550 C   0  0  0  0  0  0  0  0  0  0  0  0
    4.3000   60.5840   69.4870 C   0  0  0  0  0  0  0  0  0  0  0  0
    3.5440   59.8710   70.4140 C   0  0  0  0  0  0  0  0  0  0  0  0
    1.9582   66.7756   69.5574 H   0  0  0  0  0  0  0  0  0  0  0  0
    1.7504   66.9916   67.2086 H   0  0  0  0  0  0  0  0  0  0  0  0
   -1.1204   69.2478   66.4536 H   0  0  0  0  0  0  0  0  0  0  0  0
   -0.1207   69.3749   64.9666 H   0  0  0  0  0  0  0  0  0  0  0  0
   -1.6062   68.3649   64.9666 H   0  0  0  0  0  0  0  0  0  0  0  0
   -0.6006   66.7337   66.1210 H   0  0  0  0  0  0  0  0  0  0  0  0
    0.7690   67.4164   65.2771 H   0  0  0  0  0  0  0  0  0  0  0  0
    0.6848   69.7631   67.0564 H   0  0  0  0  0  0  0  0  0  0  0  0
    1.5035   69.2068   68.6012 H   0  0  0  0  0  0  0  0  0  0  0  0
    2.4574   68.6484   64.8315 H   0  0  0  0  0  0  0  0  0  0  0  0
    4.9969   69.1852   64.6180 H   0  0  0  0  0  0  0  0  0  0  0  0
    3.3235   70.4654   69.5929 H   0  0  0  0  0  0  0  0  0  0  0  0
    5.6245   71.2352   70.1914 H   0  0  0  0  0  0  0  0  0  0  0  0
    7.4714   71.0799   68.5486 H   0  0  0  0  0  0  0  0  0  0  0  0
    7.0574   70.1842   66.2431 H   0  0  0  0  0  0  0  0  0  0  0  0
    0.9744   66.2413   71.6642 H   0  0  0  0  0  0  0  0  0  0  0  0
   -0.6696   66.2748   70.8710 H   0  0  0  0  0  0  0  0  0  0  0  0
    1.3407   64.4364   72.5004 H   0  0  0  0  0  0  0  0  0  0  0  0
   -0.2574   62.1343   74.6731 H   0  0  0  0  0  0  0  0  0  0  0  0
   -1.0126   62.9126   73.2191 H   0  0  0  0  0  0  0  0  0  0  0  0
   -2.4154   61.1458   74.3865 H   0  0  0  0  0  0  0  0  0  0  0  0
   -2.1005   60.9182   72.5919 H   0  0  0  0  0  0  0  0  0  0  0  0
   -1.5751   59.1310   74.8100 H   0  0  0  0  0  0  0  0  0  0  0  0
   -1.5143   58.8736   72.9996 H   0  0  0  0  0  0  0  0  0  0  0  0
    0.6991   59.6567   74.8951 H   0  0  0  0  0  0  0  0  0  0  0  0
    0.6226   58.3257   73.6710 H   0  0  0  0  0  0  0  0  0  0  0  0
    2.9903   63.6668   70.0339 H   0  0  0  0  0  0  0  0  0  0  0  0
    4.6998   62.5277   68.6362 H   0  0  0  0  0  0  0  0  0  0  0  0
    5.0472   60.0686   68.8657 H   0  0  0  0  0  0  0  0  0  0  0  0
    3.7136   58.7893   70.5193 H   0  0  0  0  0  0  0  0  0  0  0  0
  2  1  2  0
  3  1  1  0
  4  1  1  0
  6  5  1  0
  6  4  1  0
  7  4  1  0
  8  7  1  0
  9  8  2  0
 10  9  1  0
 11 10  1  0
 12 11  2  0
 12  8  1  0
 13 12  1  0
 14 13  2  0
 15 14  1  0
 16 11  1  0
 16 15  2  0
 17  3  1  0
 18 17  1  0
 19 18  2  0
 20 18  1  0
 21 20  1  0
 22 21  1  0
 23 22  1  0
 24 23  1  0
 25 24  1  0
 26 25  1  0
 27 26  1  0
 27 22  2  0
 28 27  1  0
 29 28  2  0
 30 29  1  0
 30 21  2  0
 31 30  1  0
 32 31  2  0
 33 32  1  0
 34 33  2  0
 34 29  1  0
  3 35  1  0
  4 36  1  6
  5 37  1  0
  5 38  1  0
  5 39  1  0
  6 40  1  0
  6 41  1  0
  7 42  1  0
  7 43  1  0
  9 44  1  0
 10 45  1  0
 13 46  1  0
 14 47  1  0
 15 48  1  0
 16 49  1  0
 17 50  1  0
 17 51  1  0
 20 52  1  0
 23 53  1  0
 23 54  1  0
 24 55  1  0
 24 56  1  0
 25 57  1  0
 25 58  1  0
 26 59  1  0
 26 60  1  0
 31 61  1  0
 32 62  1  0
 33 63  1  0
 34 64  1  0
M  CHG  1   6   1
M  END
>  <score>  (2) 
-12.749

$$$$
=
     RDKit          3D

 64 68  0  0  0  0  0  0  0  0999 V2000
   -0.5110   67.1530   68.4570 C   0  0  0  0  0  0  0  0  0  0  0  0
   -1.6930   66.9160   68.7130 O   0  0  0  0  0  0  0  0  0  0  0  0
    0.4840   66.7680   69.3250 N   0  0  0  0  0  0  0  0  0  0  0  0
   -0.0870   67.8430   67.1350 C   0  0  1  0  0  0  0  0  0  0  0  0
   -2.2290   68.6940   65.9130 C   0  0  0  0  0  0  0  0  0  0  0  0
   -1.0040   69.0050   66.7160 N   0  0  0  0  0  4  0  0  0  0  0  0
    1.3970   68.2490   67.0450 C   0  0  0  0  0  0  0  0  0  0  0  0
    1.9340   68.3260   65.6550 C   0  0  0  0  0  0  0  0  0  0  0  0
    1.2880   67.9050   64.5110 C   0  0  0  0  0  0  0  0  0  0  0  0
    2.1340   68.0650   63.4450 N   0  0  0  0  0  0  0  0  0  0  0  0
    3.3160   68.6240   63.8690 C   0  0  0  0  0  0  0  0  0  0  0  0
    3.2070   68.8440   65.2430 C   0  0  0  0  0  0  0  0  0  0  0  0
    4.2850   69.4600   65.9110 C   0  0  0  0  0  0  0  0  0  0  0  0
    5.4340   69.8090   65.1910 C   0  0  0  0  0  0  0  0  0  0  0  0
    5.5190   69.5560   63.8260 C   0  0  0  0  0  0  0  0  0  0  0  0
    4.4590   68.9620   63.1370 C   0  0  0  0  0  0  0  0  0  0  0  0
    0.1900   66.0560   70.5760 C   0  0  0  0  0  0  0  0  0  0  0  0
    0.3290   64.5290   70.4570 C   0  0  0  0  0  0  0  0  0  0  0  0
   -0.2660   63.9060   69.5840 O   0  0  0  0  0  0  0  0  0  0  0  0
    1.0680   63.9770   71.4860 N   0  0  0  0  0  0  0  0  0  0  0  0
    1.5000   62.6310   71.6310 C   0  0  0  0  0  0  0  0  0  0  0  0
    2.7640   62.1860   71.2080 C   0  0  0  0  0  0  0  0  0  0  0  0
    3.8620   63.0230   70.5960 C   0  0  0  0  0  0  0  0  0  0  0  0
    5.2390   62.6650   71.1710 C   0  0  0  0  0  0  0  0  0  0  0  0
    5.5430   61.1650   71.2150 C   0  0  0  0  0  0  0  0  0  0  0  0
    4.3530   60.2850   70.8490 C   0  0  0  0  0  0  0  0  0  0  0  0
    3.0700   60.8380   71.4120 C   0  0  0  0  0  0  0  0  0  0  0  0
    2.2750   59.9800   72.0800 N   0  0  0  0  0  0  0  0  0  0  0  0
    1.0950   60.4130   72.5300 C   0  0  0  0  0  0  0  0  0  0  0  0
    0.6320   61.7310   72.3310 C   0  0  0  0  0  0  0  0  0  0  0  0
   -0.6680   62.0470   72.8240 C   0  0  0  0  0  0  0  0  0  0  0  0
   -1.4470   61.1100   73.5050 C   0  0  0  0  0  0  0  0  0  0  0  0
   -0.9540   59.8310   73.7070 C   0  0  0  0  0  0  0  0  0  0  0  0
    0.3050   59.4990   73.2140 C   0  0  0  0  0  0  0  0  0  0  0  0
    1.4634   66.9851   69.0913 H   0  0  0  0  0  0  0  0  0  0  0  0
   -0.2184   67.0352   66.4000 H   0  0  0  0  0  0  0  0  0  0  0  0
   -3.0680   68.4810   66.5917 H   0  0  0  0  0  0  0  0  0  0  0  0
   -2.4804   69.5568   65.2787 H   0  0  0  0  0  0  0  0  0  0  0  0
   -2.0384   67.8157   65.2787 H   0  0  0  0  0  0  0  0  0  0  0  0
   -0.4333   69.6575   66.1598 H   0  0  0  0  0  0  0  0  0  0  0  0
   -1.3717   69.3699   67.6062 H   0  0  0  0  0  0  0  0  0  0  0  0
    1.5117   69.2379   67.5129 H   0  0  0  0  0  0  0  0  0  0  0  0
    1.9685   67.4616   67.5581 H   0  0  0  0  0  0  0  0  0  0  0  0
    0.2637   67.5069   64.4626 H   0  0  0  0  0  0  0  0  0  0  0  0
    1.9168   67.8054   62.4722 H   0  0  0  0  0  0  0  0  0  0  0  0
    4.2238   69.6649   66.9900 H   0  0  0  0  0  0  0  0  0  0  0  0
    6.2775   70.2878   65.7098 H   0  0  0  0  0  0  0  0  0  0  0  0
    6.4349   69.8278   63.2807 H   0  0  0  0  0  0  0  0  0  0  0  0
    4.5210   68.7668   62.0562 H   0  0  0  0  0  0  0  0  0  0  0  0
    0.8861   66.4102   71.3506 H   0  0  0  0  0  0  0  0  0  0  0  0
   -0.8588   66.2676   70.8313 H   0  0  0  0  0  0  0  0  0  0  0  0
    1.3395   64.6215   72.2421 H   0  0  0  0  0  0  0  0  0  0  0  0
    3.8750   62.8538   69.5092 H   0  0  0  0  0  0  0  0  0  0  0  0
    3.6579   64.0784   70.8293 H   0  0  0  0  0  0  0  0  0  0  0  0
    6.0063   63.1522   70.5515 H   0  0  0  0  0  0  0  0  0  0  0  0
    5.2404   63.0133   72.2144 H   0  0  0  0  0  0  0  0  0  0  0  0
    6.3595   60.9557   70.5082 H   0  0  0  0  0  0  0  0  0  0  0  0
    5.8129   60.9231   72.2536 H   0  0  0  0  0  0  0  0  0  0  0  0
    4.2701   60.2319   69.7534 H   0  0  0  0  0  0  0  0  0  0  0  0
    4.5167   59.2844   71.2757 H   0  0  0  0  0  0  0  0  0  0  0  0
   -1.0688   63.0587   72.6630 H   0  0  0  0  0  0  0  0  0  0  0  0
   -2.4445   61.3849   73.8784 H   0  0  0  0  0  0  0  0  0  0  0  0
   -1.5515   59.0851   74.2516 H   0  0  0  0  0  0  0  0  0  0  0  0
    0.6862   58.4793   73.3716 H   0  0  0  0  0  0  0  0  0  0  0  0
  2  1  2  0
  3  1  1  0
  4  1  1  0
  6  5  1  0
  6  4  1  0
  7  4  1  0
  8  7  1  0
  9  8  2  0
 10  9  1  0
 11 10  1  0
 12 11  2  0
 12  8  1  0
 13 12  1  0
 14 13  2  0
 15 14  1  0
 16 11  1  0
 16 15  2  0
 17  3  1  0
 18 17  1  0
 19 18  2  0
 20 18  1  0
 21 20  1  0
 22 21  1  0
 23 22  1  0
 24 23  1  0
 25 24  1  0
 26 25  1  0
 27 26  1  0
 27 22  2  0
 28 27  1  0
 29 28  2  0
 30 29  1  0
 30 21  2  0
 31 30  1  0
 32 31  2  0
 33 32  1  0
 34 33  2  0
 34 29  1  0
  3 35  1  0
  4 36  1  6
  5 37  1  0
  5 38  1  0
  5 39  1  0
  6 40  1  0
  6 41  1  0
  7 42  1  0
  7 43  1  0
  9 44  1  0
 10 45  1  0
 13 46  1  0
 14 47  1  0
 15 48  1  0
 16 49  1  0
 17 50  1  0
 17 51  1  0
 20 52  1  0
 23 53  1  0
 23 54  1  0
 24 55  1  0
 24 56  1  0
 25 57  1  0
 25 58  1  0
 26 59  1  0
 26 60  1  0
 31 61  1  0
 32 62  1  0
 33 63  1  0
 34 64  1  0
M  CHG  1   6   1
M  END
>  <score>  (3) 
-12.146

$$$$
=
     RDKit          3D

 64 68  0  0  0  0  0  0  0  0999 V2000
    0.9330   67.2160   69.3240 C   0  0  0  0  0  0  0  0  0  0  0  0
    2.0340   67.2300   69.8780 O   0  0  0  0  0  0  0  0  0  0  0  0
   -0.0990   66.4660   69.8370 N   0  0  0  0  0  0  0  0  0  0  0  0
    0.6450   68.0750   68.0660 C   0  0  1  0  0  0  0  0  0  0  0  0
    2.5890   69.8010   67.8490 C   0  0  0  0  0  0  0  0  0  0  0  0
    1.1530   69.5240   68.1710 N   0  0  0  0  0  4  0  0  0  0  0  0
    1.0540   67.4420   66.7220 C   0  0  0  0  0  0  0  0  0  0  0  0
    0.4740   68.1100   65.5200 C   0  0  0  0  0  0  0  0  0  0  0  0
   -0.8150   68.5860   65.4010 C   0  0  0  0  0  0  0  0  0  0  0  0
   -0.9920   69.0560   64.1250 N   0  0  0  0  0  0  0  0  0  0  0  0
    0.1800   68.9310   63.4170 C   0  0  0  0  0  0  0  0  0  0  0  0
    1.1330   68.3840   64.2760 C   0  0  0  0  0  0  0  0  0  0  0  0
    2.4450   68.2000   63.7930 C   0  0  0  0  0  0  0  0  0  0  0  0
    2.7470   68.5450   62.4700 C   0  0  0  0  0  0  0  0  0  0  0  0
    1.7670   69.0670   61.6320 C   0  0  0  0  0  0  0  0  0  0  0  0
    0.4640   69.2750   62.0910 C   0  0  0  0  0  0  0  0  0  0  0  0
    0.0560   65.6640   71.0580 C   0  0  0  0  0  0  0  0  0  0  0  0
    0.3280   64.1760   70.7800 C   0  0  0  0  0  0  0  0  0  0  0  0
   -0.0630   63.6430   69.7480 O   0  0  0  0  0  0  0  0  0  0  0  0
    0.9260   63.5340   71.8490 N   0  0  0  0  0  0  0  0  0  0  0  0
    1.4290   62.2060   71.9030 C   0  0  0  0  0  0  0  0  0  0  0  0
    2.6970   61.8500   71.4140 C   0  0  0  0  0  0  0  0  0  0  0  0
    3.7290   62.7750   70.8140 C   0  0  0  0  0  0  0  0  0  0  0  0
    5.1420   62.4570   71.3210 C   0  0  0  0  0  0  0  0  0  0  0  0
    5.5210   60.9750   71.2700 C   0  0  0  0  0  0  0  0  0  0  0  0
    4.3640   60.0560   70.8960 C   0  0  0  0  0  0  0  0  0  0  0  0
    3.0760   60.5100   71.5310 C   0  0  0  0  0  0  0  0  0  0  0  0
    2.3490   59.5780   72.1760 N   0  0  0  0  0  0  0  0  0  0  0  0
    1.1670   59.9240   72.6890 C   0  0  0  0  0  0  0  0  0  0  0  0
    0.6320   61.2260   72.5800 C   0  0  0  0  0  0  0  0  0  0  0  0
   -0.6630   61.4470   73.1330 C   0  0  0  0  0  0  0  0  0  0  0  0
   -1.3700   60.4350   73.7860 C   0  0  0  0  0  0  0  0  0  0  0  0
   -0.8070   59.1750   73.9000 C   0  0  0  0  0  0  0  0  0  0  0  0
    0.4480   58.9350   73.3460 C   0  0  0  0  0  0  0  0  0  0  0  0
   -1.0072   66.4665   69.3510 H   0  0  0  0  0  0  0  0  0  0  0  0
   -0.4545   68.1079   68.0555 H   0  0  0  0  0  0  0  0  0  0  0  0
    3.1596   69.9111   68.7830 H   0  0  0  0  0  0  0  0  0  0  0  0
    3.0012   68.9658   67.2637 H   0  0  0  0  0  0  0  0  0  0  0  0
    2.6610   70.7296   67.2637 H   0  0  0  0  0  0  0  0  0  0  0  0
    0.9934   69.8330   69.1405 H   0  0  0  0  0  0  0  0  0  0  0  0
    0.6285   70.0293   67.4427 H   0  0  0  0  0  0  0  0  0  0  0  0
    2.1503   67.4836   66.6424 H   0  0  0  0  0  0  0  0  0  0  0  0
    0.6612   66.4145   66.7283 H   0  0  0  0  0  0  0  0  0  0  0  0
   -1.5743   68.5882   66.1969 H   0  0  0  0  0  0  0  0  0  0  0  0
   -1.8705   69.4442   63.7530 H   0  0  0  0  0  0  0  0  0  0  0  0
    3.2251   67.7886   64.4504 H   0  0  0  0  0  0  0  0  0  0  0  0
    3.7692   68.4019   62.0896 H   0  0  0  0  0  0  0  0  0  0  0  0
    2.0219   69.3198   60.5922 H   0  0  0  0  0  0  0  0  0  0  0  0
   -0.3113   69.6945   61.4330 H   0  0  0  0  0  0  0  0  0  0  0  0
    0.8981   66.0702   71.6376 H   0  0  0  0  0  0  0  0  0  0  0  0
   -0.8943   65.7234   71.6088 H   0  0  0  0  0  0  0  0  0  0  0  0
    1.0182   64.0869   72.7131 H   0  0  0  0  0  0  0  0  0  0  0  0
    3.7106   62.6670   69.7195 H   0  0  0  0  0  0  0  0  0  0  0  0
    3.4815   63.8041   71.1137 H   0  0  0  0  0  0  0  0  0  0  0  0
    5.8612   63.0161   70.7044 H   0  0  0  0  0  0  0  0  0  0  0  0
    5.1642   62.7472   72.3818 H   0  0  0  0  0  0  0  0  0  0  0  0
    6.3202   60.8470   70.5251 H   0  0  0  0  0  0  0  0  0  0  0  0
    5.8404   60.6912   72.2836 H   0  0  0  0  0  0  0  0  0  0  0  0
    4.2443   60.0577   69.8025 H   0  0  0  0  0  0  0  0  0  0  0  0
    4.5929   59.0440   71.2613 H   0  0  0  0  0  0  0  0  0  0  0  0
   -1.1189   62.4440   73.0428 H   0  0  0  0  0  0  0  0  0  0  0  0
   -2.3662   60.6372   74.2064 H   0  0  0  0  0  0  0  0  0  0  0  0
   -1.3459   58.3713   74.4232 H   0  0  0  0  0  0  0  0  0  0  0  0
    0.8838   57.9287   73.4319 H   0  0  0  0  0  0  0  0  0  0  0  0
  2  1  2  0
  3  1  1  0
  4  1  1  0
  6  5  1  0
  6  4  1  0
  7  4  1  0
  8  7  1  0
  9  8  2  0
 10  9  1  0
 11 10  1  0
 12 11  2  0
 12  8  1  0
 13 12  1  0
 14 13  2  0
 15 14  1  0
 16 11  1  0
 16 15  2  0
 17  3  1  0
 18 17  1  0
 19 18  2  0
 20 18  1  0
 21 20  1  0
 22 21  1  0
 23 22  1  0
 24 23  1  0
 25 24  1  0
 26 25  1  0
 27 26  1  0
 27 22  2  0
 28 27  1  0
 29 28  2  0
 30 29  1  0
 30 21  2  0
 31 30  1  0
 32 31  2  0
 33 32  1  0
 34 33  2  0
 34 29  1  0
  3 35  1  0
  4 36  1  6
  5 37  1  0
  5 38  1  0
  5 39  1  0
  6 40  1  0
  6 41  1  0
  7 42  1  0
  7 43  1  0
  9 44  1  0
 10 45  1  0
 13 46  1  0
 14 47  1  0
 15 48  1  0
 16 49  1  0
 17 50  1  0
 17 51  1  0
 20 52  1  0
 23 53  1  0
 23 54  1  0
 24 55  1  0
 24 56  1  0
 25 57  1  0
 25 58  1  0
 26 59  1  0
 26 60  1  0
 31 61  1  0
 32 62  1  0
 33 63  1  0
 34 64  1  0
M  CHG  1   6   1
M  END
>  <score>  (4) 
-11.605

$$$$
=
     RDKit          3D

 64 68  0  0  0  0  0  0  0  0999 V2000
    0.9410   67.4980   68.6470 C   0  0  0  0  0  0  0  0  0  0  0  0
    1.8500   68.0070   69.3060 O   0  0  0  0  0  0  0  0  0  0  0  0
    0.1430   66.5200   69.1940 N   0  0  0  0  0  0  0  0  0  0  0  0
    0.6210   67.9660   67.2040 C   0  0  1  0  0  0  0  0  0  0  0  0
   -1.8800   68.1120   66.4780 C   0  0  0  0  0  0  0  0  0  0  0  0
   -0.6820   68.7750   67.0850 N   0  0  0  0  0  4  0  0  0  0  0  0
    1.7770   68.6680   66.4640 C   0  0  0  0  0  0  0  0  0  0  0  0
    2.4130   67.8490   65.3910 C   0  0  0  0  0  0  0  0  0  0  0  0
    2.0520   66.5690   65.0270 C   0  0  0  0  0  0  0  0  0  0  0  0
    2.9200   66.1260   64.0630 N   0  0  0  0  0  0  0  0  0  0  0  0
    3.8240   67.1170   63.7600 C   0  0  0  0  0  0  0  0  0  0  0  0
    3.5050   68.2280   64.5410 C   0  0  0  0  0  0  0  0  0  0  0  0
    4.2660   69.4040   64.3770 C   0  0  0  0  0  0  0  0  0  0  0  0
    5.3250   69.4170   63.4620 C   0  0  0  0  0  0  0  0  0  0  0  0
    5.6300   68.2850   62.7140 C   0  0  0  0  0  0  0  0  0  0  0  0
    4.8820   67.1130   62.8450 C   0  0  0  0  0  0  0  0  0  0  0  0
    0.3270   66.0490   70.5730 C   0  0  0  0  0  0  0  0  0  0  0  0
    0.4900   64.5240   70.6800 C   0  0  0  0  0  0  0  0  0  0  0  0
   -0.0100   63.7730   69.8500 O   0  0  0  0  0  0  0  0  0  0  0  0
    1.1310   64.1340   71.8420 N   0  0  0  0  0  0  0  0  0  0  0  0
    1.5590   62.8320   72.2130 C   0  0  0  0  0  0  0  0  0  0  0  0
    0.7570   61.9480   72.9540 C   0  0  0  0  0  0  0  0  0  0  0  0
   -0.6560   62.1880   73.4290 C   0  0  0  0  0  0  0  0  0  0  0  0
   -1.5410   60.9490   73.2310 C   0  0  0  0  0  0  0  0  0  0  0  0
   -0.9260   59.6380   73.7260 C   0  0  0  0  0  0  0  0  0  0  0  0
    0.5290   59.7660   74.1610 C   0  0  0  0  0  0  0  0  0  0  0  0
    1.2930   60.6920   73.2510 C   0  0  0  0  0  0  0  0  0  0  0  0
    2.4740   60.2480   72.7790 N   0  0  0  0  0  0  0  0  0  0  0  0
    3.2160   61.0670   72.0300 C   0  0  0  0  0  0  0  0  0  0  0  0
    2.8270   62.3860   71.7130 C   0  0  0  0  0  0  0  0  0  0  0  0
    3.7360   63.1670   70.9420 C   0  0  0  0  0  0  0  0  0  0  0  0
    4.9500   62.6510   70.4860 C   0  0  0  0  0  0  0  0  0  0  0  0
    5.2930   61.3440   70.7920 C   0  0  0  0  0  0  0  0  0  0  0  0
    4.4260   60.5730   71.5620 C   0  0  0  0  0  0  0  0  0  0  0  0
   -0.6052   66.1060   68.6198 H   0  0  0  0  0  0  0  0  0  0  0  0
    0.4675   67.0114   66.6794 H   0  0  0  0  0  0  0  0  0  0  0  0
   -2.5410   67.7462   67.2775 H   0  0  0  0  0  0  0  0  0  0  0  0
   -2.4243   68.8373   65.8553 H   0  0  0  0  0  0  0  0  0  0  0  0
   -1.5545   67.2656   65.8553 H   0  0  0  0  0  0  0  0  0  0  0  0
   -0.4728   69.6068   66.5147 H   0  0  0  0  0  0  0  0  0  0  0  0
   -0.9590   68.9532   68.0609 H   0  0  0  0  0  0  0  0  0  0  0  0
    1.3837   69.5878   66.0065 H   0  0  0  0  0  0  0  0  0  0  0  0
    2.5577   68.8606   67.2147 H   0  0  0  0  0  0  0  0  0  0  0  0
    1.2078   65.9983   65.4413 H   0  0  0  0  0  0  0  0  0  0  0  0
    2.8984   65.1914   63.6306 H   0  0  0  0  0  0  0  0  0  0  0  0
    4.0291   70.3039   64.9636 H   0  0  0  0  0  0  0  0  0  0  0  0
    5.9221   70.3318   63.3332 H   0  0  0  0  0  0  0  0  0  0  0  0
    6.4734   68.3132   62.0083 H   0  0  0  0  0  0  0  0  0  0  0  0
    5.1165   66.2183   62.2496 H   0  0  0  0  0  0  0  0  0  0  0  0
    1.2275   66.5260   70.9873 H   0  0  0  0  0  0  0  0  0  0  0  0
   -0.5808   66.3189   71.1325 H   0  0  0  0  0  0  0  0  0  0  0  0
    1.3218   64.8821   72.5238 H   0  0  0  0  0  0  0  0  0  0  0  0
   -0.6338   62.4427   74.4989 H   0  0  0  0  0  0  0  0  0  0  0  0
   -1.0815   63.0110   72.8360 H   0  0  0  0  0  0  0  0  0  0  0  0
   -2.4841   61.1114   73.7735 H   0  0  0  0  0  0  0  0  0  0  0  0
   -1.6798   60.8367   72.1456 H   0  0  0  0  0  0  0  0  0  0  0  0
   -1.5144   59.2814   74.5843 H   0  0  0  0  0  0  0  0  0  0  0  0
   -0.9465   58.9353   72.8799 H   0  0  0  0  0  0  0  0  0  0  0  0
    0.5628   60.1628   75.1864 H   0  0  0  0  0  0  0  0  0  0  0  0
    0.9944   58.7705   74.1134 H   0  0  0  0  0  0  0  0  0  0  0  0
    3.4731   64.2071   70.6991 H   0  0  0  0  0  0  0  0  0  0  0  0
    5.6290   63.2770   69.8885 H   0  0  0  0  0  0  0  0  0  0  0  0
    6.2411   60.9194   70.4302 H   0  0  0  0  0  0  0  0  0  0  0  0
    4.7091   59.5388   71.8074 H   0  0  0  0  0  0  0  0  0  0  0  0
  2  1  2  0
  3  1  1  0
  4  1  1  0
  6  5  1  0
  6  4  1  0
  7  4  1  0
  8  7  1  0
  9  8  2  0
 10  9  1  0
 11 10  1  0
 12 11  2  0
 12  8  1  0
 13 12  1  0
 14 13  2  0
 15 14  1  0
 16 11  1  0
 16 15  2  0
 17  3  1  0
 18 17  1  0
 19 18  2  0
 20 18  1  0
 21 20  1  0
 22 21  1  0
 23 22  1  0
 24 23  1  0
 25 24  1  0
 26 25  1  0
 27 26  1  0
 27 22  2  0
 28 27  1  0
 29 28  2  0
 30 29  1  0
 30 21  2  0
 31 30  1  0
 32 31  2  0
 33 32  1  0
 34 33  2  0
 34 29  1  0
  3 35  1  0
  4 36  1  6
  5 37  1  0
  5 38  1  0
  5 39  1  0
  6 40  1  0
  6 41  1  0
  7 42  1  0
  7 43  1  0
  9 44  1  0
 10 45  1  0
 13 46  1  0
 14 47  1  0
 15 48  1  0
 16 49  1  0
 17 50  1  0
 17 51  1  0
 20 52  1  0
 23 53  1  0
 23 54  1  0
 24 55  1  0
 24 56  1  0
 25 57  1  0
 25 58  1  0
 26 59  1  0
 26 60  1  0
 31 61  1  0
 32 62  1  0
 33 63  1  0
 34 64  1  0
M  CHG  1   6   1
M  END
>  <score>  (5) 
-11.251

$$$$
=
     RDKit          3D

 64 68  0  0  0  0  0  0  0  0999 V2000
    0.8450   67.3500   67.8190 C   0  0  0  0  0  0  0  0  0  0  0  0
   -0.2990   67.7410   68.0590 O   0  0  0  0  0  0  0  0  0  0  0  0
    1.4820   66.4840   68.6750 N   0  0  0  0  0  0  0  0  0  0  0  0
    1.5930   67.7690   66.5280 C   0  0  1  0  0  0  0  0  0  0  0  0
    0.8750   68.2420   64.0650 C   0  0  0  0  0  0  0  0  0  0  0  0
    0.9090   67.3030   65.2310 N   0  0  0  0  0  4  0  0  0  0  0  0
    1.9850   69.2580   66.4410 C   0  0  0  0  0  0  0  0  0  0  0  0
    2.8240   69.7440   67.5750 C   0  0  0  0  0  0  0  0  0  0  0  0
    2.3720   70.0640   68.8390 C   0  0  0  0  0  0  0  0  0  0  0  0
    3.4250   70.5480   69.5710 N   0  0  0  0  0  0  0  0  0  0  0  0
    4.5730   70.5110   68.8160 C   0  0  0  0  0  0  0  0  0  0  0  0
    4.2410   69.9680   67.5740 C   0  0  0  0  0  0  0  0  0  0  0  0
    5.2690   69.7810   66.6270 C   0  0  0  0  0  0  0  0  0  0  0  0
    6.5770   70.1630   66.9450 C   0  0  0  0  0  0  0  0  0  0  0  0
    6.8710   70.7220   68.1850 C   0  0  0  0  0  0  0  0  0  0  0  0
    5.8750   70.9020   69.1470 C   0  0  0  0  0  0  0  0  0  0  0  0
    0.8350   65.9820   69.8950 C   0  0  0  0  0  0  0  0  0  0  0  0
    1.6450   64.8860   70.6080 C   0  0  0  0  0  0  0  0  0  0  0  0
    2.8710   64.9050   70.6110 O   0  0  0  0  0  0  0  0  0  0  0  0
    0.8500   63.8700   71.1040 N   0  0  0  0  0  0  0  0  0  0  0  0
    1.2360   62.7710   71.9170 C   0  0  0  0  0  0  0  0  0  0  0  0
    1.9080   61.6460   71.4110 C   0  0  0  0  0  0  0  0  0  0  0  0
    2.3640   61.4280   69.9880 C   0  0  0  0  0  0  0  0  0  0  0  0
    3.7730   60.8230   69.9280 C   0  0  0  0  0  0  0  0  0  0  0  0
    3.9920   59.6210   70.8500 C   0  0  0  0  0  0  0  0  0  0  0  0
    2.8290   59.3510   71.7970 C   0  0  0  0  0  0  0  0  0  0  0  0
    2.2370   60.6340   72.3160 C   0  0  0  0  0  0  0  0  0  0  0  0
    2.0460   60.7250   73.6470 N   0  0  0  0  0  0  0  0  0  0  0  0
    1.4550   61.8170   74.1390 C   0  0  0  0  0  0  0  0  0  0  0  0
    1.0090   62.8830   73.3290 C   0  0  0  0  0  0  0  0  0  0  0  0
    0.3530   63.9670   73.9810 C   0  0  0  0  0  0  0  0  0  0  0  0
    0.1810   64.0000   75.3660 C   0  0  0  0  0  0  0  0  0  0  0  0
    0.6530   62.9510   76.1370 C   0  0  0  0  0  0  0  0  0  0  0  0
    1.2780   61.8730   75.5140 C   0  0  0  0  0  0  0  0  0  0  0  0
    2.4406   66.1780   68.4551 H   0  0  0  0  0  0  0  0  0  0  0  0
    2.5399   67.2171   66.6214 H   0  0  0  0  0  0  0  0  0  0  0  0
    0.8375   69.2789   64.4302 H   0  0  0  0  0  0  0  0  0  0  0  0
    1.7788   68.1009   63.4541 H   0  0  0  0  0  0  0  0  0  0  0  0
   -0.0163   68.0359   63.4541 H   0  0  0  0  0  0  0  0  0  0  0  0
   -0.0674   67.0753   65.4669 H   0  0  0  0  0  0  0  0  0  0  0  0
    1.4915   66.5181   64.9062 H   0  0  0  0  0  0  0  0  0  0  0  0
    2.5465   69.4115   65.5077 H   0  0  0  0  0  0  0  0  0  0  0  0
    1.0469   69.8312   66.4777 H   0  0  0  0  0  0  0  0  0  0  0  0
    1.3389   69.9497   69.1991 H   0  0  0  0  0  0  0  0  0  0  0  0
    3.3650   70.8884   70.5413 H   0  0  0  0  0  0  0  0  0  0  0  0
    5.0443   69.3381   65.6455 H   0  0  0  0  0  0  0  0  0  0  0  0
    7.3807   70.0200   66.2077 H   0  0  0  0  0  0  0  0  0  0  0  0
    7.9036   71.0267   68.4108 H   0  0  0  0  0  0  0  0  0  0  0  0
    6.1060   71.3361   70.1309 H   0  0  0  0  0  0  0  0  0  0  0  0
    0.6999   66.8239   70.5900 H   0  0  0  0  0  0  0  0  0  0  0  0
   -0.1236   65.5341   69.5940 H   0  0  0  0  0  0  0  0  0  0  0  0
   -0.1478   63.9155   70.8525 H   0  0  0  0  0  0  0  0  0  0  0  0
    1.6612   60.7441   69.4896 H   0  0  0  0  0  0  0  0  0  0  0  0
    2.3894   62.4051   69.4834 H   0  0  0  0  0  0  0  0  0  0  0  0
    3.9640   60.5009   68.8937 H   0  0  0  0  0  0  0  0  0  0  0  0
    4.4633   61.6078   70.2709 H   0  0  0  0  0  0  0  0  0  0  0  0
    4.1449   58.7285   70.2255 H   0  0  0  0  0  0  0  0  0  0  0  0
    4.8667   59.8527   71.4755 H   0  0  0  0  0  0  0  0  0  0  0  0
    2.0513   58.7896   71.2584 H   0  0  0  0  0  0  0  0  0  0  0  0
    3.2054   58.7712   72.6527 H   0  0  0  0  0  0  0  0  0  0  0  0
   -0.0290   64.8021   73.3754 H   0  0  0  0  0  0  0  0  0  0  0  0
   -0.3257   64.8529   75.8413 H   0  0  0  0  0  0  0  0  0  0  0  0
    0.5356   62.9687   77.2306 H   0  0  0  0  0  0  0  0  0  0  0  0
    1.6429   61.0394   76.1321 H   0  0  0  0  0  0  0  0  0  0  0  0
  2  1  2  0
  3  1  1  0
  4  1  1  0
  6  5  1  0
  6  4  1  0
  7  4  1  0
  8  7  1  0
  9  8  2  0
 10  9  1  0
 11 10  1  0
 12 11  2  0
 12  8  1  0
 13 12  1  0
 14 13  2  0
 15 14  1  0
 16 11  1  0
 16 15  2  0
 17  3  1  0
 18 17  1  0
 19 18  2  0
 20 18  1  0
 21 20  1  0
 22 21  1  0
 23 22  1  0
 24 23  1  0
 25 24  1  0
 26 25  1  0
 27 26  1  0
 27 22  2  0
 28 27  1  0
 29 28  2  0
 30 29  1  0
 30 21  2  0
 31 30  1  0
 32 31  2  0
 33 32  1  0
 34 33  2  0
 34 29  1  0
  3 35  1  0
  4 36  1  1
  5 37  1  0
  5 38  1  0
  5 39  1  0
  6 40  1  0
  6 41  1  0
  7 42  1  0
  7 43  1  0
  9 44  1  0
 10 45  1  0
 13 46  1  0
 14 47  1  0
 15 48  1  0
 16 49  1  0
 17 50  1  0
 17 51  1  0
 20 52  1  0
 23 53  1  0
 23 54  1  0
 24 55  1  0
 24 56  1  0
 25 57  1  0
 25 58  1  0
 26 59  1  0
 26 60  1  0
 31 61  1  0
 32 62  1  0
 33 63  1  0
 34 64  1  0
M  CHG  1   6   1
M  END
>  <score>  (6) 
-11.042

$$$$
=
     RDKit          3D

 64 68  0  0  0  0  0  0  0  0999 V2000
    0.1990   65.5070   70.3390 C   0  0  0  0  0  0  0  0  0  0  0  0
   -0.0910   66.2300   71.2950 O   0  0  0  0  0  0  0  0  0  0  0  0
   -0.0740   65.9080   69.0520 N   0  0  0  0  0  0  0  0  0  0  0  0
    0.9240   64.1520   70.5350 C   0  0  1  0  0  0  0  0  0  0  0  0
    3.5090   63.8230   70.4210 C   0  0  0  0  0  0  0  0  0  0  0  0
    2.2080   64.0050   69.7020 N   0  0  0  0  0  4  0  0  0  0  0  0
    1.1640   63.7340   72.0000 C   0  0  0  0  0  0  0  0  0  0  0  0
    0.6920   62.3590   72.3360 C   0  0  0  0  0  0  0  0  0  0  0  0
   -0.5910   62.0090   72.7020 C   0  0  0  0  0  0  0  0  0  0  0  0
   -0.6100   60.6740   73.0100 N   0  0  0  0  0  0  0  0  0  0  0  0
    0.6370   60.1320   72.8120 C   0  0  0  0  0  0  0  0  0  0  0  0
    1.4670   61.1520   72.3440 C   0  0  0  0  0  0  0  0  0  0  0  0
    2.8020   60.8340   72.0180 C   0  0  0  0  0  0  0  0  0  0  0  0
    3.2610   59.5230   72.1930 C   0  0  0  0  0  0  0  0  0  0  0  0
    2.4130   58.5350   72.6820 C   0  0  0  0  0  0  0  0  0  0  0  0
    1.0820   58.8190   72.9970 C   0  0  0  0  0  0  0  0  0  0  0  0
   -0.7050   67.2010   68.7570 C   0  0  0  0  0  0  0  0  0  0  0  0
    0.0570   68.0270   67.7070 C   0  0  0  0  0  0  0  0  0  0  0  0
   -0.5280   68.8250   66.9830 O   0  0  0  0  0  0  0  0  0  0  0  0
    1.3900   67.6720   67.6120 N   0  0  0  0  0  0  0  0  0  0  0  0
    2.4110   68.2980   66.8480 C   0  0  0  0  0  0  0  0  0  0  0  0
    2.5410   68.1230   65.4600 C   0  0  0  0  0  0  0  0  0  0  0  0
    1.6360   67.3160   64.5600 C   0  0  0  0  0  0  0  0  0  0  0  0
    1.3390   68.0500   63.2450 C   0  0  0  0  0  0  0  0  0  0  0  0
    2.5710   68.6280   62.5440 C   0  0  0  0  0  0  0  0  0  0  0  0
    3.8500   68.5300   63.3650 C   0  0  0  0  0  0  0  0  0  0  0  0
    3.5860   68.7970   64.8240 C   0  0  0  0  0  0  0  0  0  0  0  0
    4.3970   69.6790   65.4400 N   0  0  0  0  0  0  0  0  0  0  0  0
    4.2420   69.8890   66.7500 C   0  0  0  0  0  0  0  0  0  0  0  0
    3.2720   69.2210   67.5280 C   0  0  0  0  0  0  0  0  0  0  0  0
    3.2470   69.5050   68.9240 C   0  0  0  0  0  0  0  0  0  0  0  0
    4.1190   70.4280   69.5050 C   0  0  0  0  0  0  0  0  0  0  0  0
    5.0430   71.0870   68.7110 C   0  0  0  0  0  0  0  0  0  0  0  0
    5.0960   70.8050   67.3480 C   0  0  0  0  0  0  0  0  0  0  0  0
    0.1715   65.2825   68.2714 H   0  0  0  0  0  0  0  0  0  0  0  0
    0.1882   63.4369   70.1385 H   0  0  0  0  0  0  0  0  0  0  0  0
    3.3344   63.8474   71.5068 H   0  0  0  0  0  0  0  0  0  0  0  0
    3.9497   62.8545   70.1422 H   0  0  0  0  0  0  0  0  0  0  0  0
    4.1985   64.6334   70.1422 H   0  0  0  0  0  0  0  0  0  0  0  0
    2.2953   64.8541   69.1255 H   0  0  0  0  0  0  0  0  0  0  0  0
    2.0768   63.1208   69.1902 H   0  0  0  0  0  0  0  0  0  0  0  0
    2.2446   63.7846   72.1992 H   0  0  0  0  0  0  0  0  0  0  0  0
    0.5791   64.4267   72.6230 H   0  0  0  0  0  0  0  0  0  0  0  0
   -1.4551   62.6886   72.7403 H   0  0  0  0  0  0  0  0  0  0  0  0
   -1.4356   60.1544   73.3405 H   0  0  0  0  0  0  0  0  0  0  0  0
    3.4774   61.6103   71.6292 H   0  0  0  0  0  0  0  0  0  0  0  0
    4.3020   59.2720   71.9414 H   0  0  0  0  0  0  0  0  0  0  0  0
    2.7965   57.5137   72.8230 H   0  0  0  0  0  0  0  0  0  0  0  0
    0.4076   58.0375   73.3772 H   0  0  0  0  0  0  0  0  0  0  0  0
   -1.7226   67.0151   68.3830 H   0  0  0  0  0  0  0  0  0  0  0  0
   -0.7050   67.7829   69.6905 H   0  0  0  0  0  0  0  0  0  0  0  0
    1.6786   66.8516   68.1639 H   0  0  0  0  0  0  0  0  0  0  0  0
    2.1246   66.3576   64.3304 H   0  0  0  0  0  0  0  0  0  0  0  0
    0.6831   67.1576   65.0862 H   0  0  0  0  0  0  0  0  0  0  0  0
    0.8551   67.3403   62.5579 H   0  0  0  0  0  0  0  0  0  0  0  0
    0.6983   68.9058   63.5042 H   0  0  0  0  0  0  0  0  0  0  0  0
    2.7216   68.0814   61.6014 H   0  0  0  0  0  0  0  0  0  0  0  0
    2.3750   69.6985   62.3843 H   0  0  0  0  0  0  0  0  0  0  0  0
    4.2692   67.5189   63.2559 H   0  0  0  0  0  0  0  0  0  0  0  0
    4.5580   69.2868   62.9962 H   0  0  0  0  0  0  0  0  0  0  0  0
    2.5198   68.9821   69.5625 H   0  0  0  0  0  0  0  0  0  0  0  0
    4.0725   70.6302   70.5852 H   0  0  0  0  0  0  0  0  0  0  0  0
    5.7281   71.8257   69.1524 H   0  0  0  0  0  0  0  0  0  0  0  0
    5.8388   71.3252   66.7254 H   0  0  0  0  0  0  0  0  0  0  0  0
  2  1  2  0
  3  1  1  0
  4  1  1  0
  6  5  1  0
  6  4  1  0
  7  4  1  0
  8  7  1  0
  9  8  2  0
 10  9  1  0
 11 10  1  0
 12 11  2  0
 12  8  1  0
 13 12  1  0
 14 13  2  0
 15 14  1  0
 16 11  1  0
 16 15  2  0
 17  3  1  0
 18 17  1  0
 19 18  2  0
 20 18  1  0
 21 20  1  0
 22 21  1  0
 23 22  1  0
 24 23  1  0
 25 24  1  0
 26 25  1  0
 27 26  1  0
 27 22  2  0
 28 27  1  0
 29 28  2  0
 30 29  1  0
 30 21  2  0
 31 30  1  0
 32 31  2  0
 33 32  1  0
 34 33  2  0
 34 29  1  0
  3 35  1  0
  4 36  1  6
  5 37  1  0
  5 38  1  0
  5 39  1  0
  6 40  1  0
  6 41  1  0
  7 42  1  0
  7 43  1  0
  9 44  1  0
 10 45  1  0
 13 46  1  0
 14 47  1  0
 15 48  1  0
 16 49  1  0
 17 50  1  0
 17 51  1  0
 20 52  1  0
 23 53  1  0
 23 54  1  0
 24 55  1  0
 24 56  1  0
 25 57  1  0
 25 58  1  0
 26 59  1  0
 26 60  1  0
 31 61  1  0
 32 62  1  0
 33 63  1  0
 34 64  1  0
M  CHG  1   6   1
M  END
>  <score>  (7) 
-10.606

$$$$
=
     RDKit          3D

 64 68  0  0  0  0  0  0  0  0999 V2000
    1.5890   68.0090   69.0250 C   0  0  0  0  0  0  0  0  0  0  0  0
    2.3920   68.3080   69.9110 O   0  0  0  0  0  0  0  0  0  0  0  0
    0.6040   67.0780   69.2580 N   0  0  0  0  0  0  0  0  0  0  0  0
    1.6150   68.7010   67.6380 C   0  0  1  0  0  0  0  0  0  0  0  0
    3.8420   69.3080   66.4240 C   0  0  0  0  0  0  0  0  0  0  0  0
    2.8010   69.6600   67.4410 N   0  0  0  0  0  4  0  0  0  0  0  0
    1.4570   67.7610   66.4250 C   0  0  0  0  0  0  0  0  0  0  0  0
    0.6170   68.3110   65.3220 C   0  0  0  0  0  0  0  0  0  0  0  0
   -0.7240   68.6270   65.4030 C   0  0  0  0  0  0  0  0  0  0  0  0
   -1.1560   69.0250   64.1650 N   0  0  0  0  0  0  0  0  0  0  0  0
   -0.1050   69.0130   63.2790 C   0  0  0  0  0  0  0  0  0  0  0  0
    1.0320   68.6150   63.9830 C   0  0  0  0  0  0  0  0  0  0  0  0
    2.2640   68.5690   63.2970 C   0  0  0  0  0  0  0  0  0  0  0  0
    2.3080   68.8970   61.9370 C   0  0  0  0  0  0  0  0  0  0  0  0
    1.1510   69.2690   61.2590 C   0  0  0  0  0  0  0  0  0  0  0  0
   -0.0780   69.3390   61.9190 C   0  0  0  0  0  0  0  0  0  0  0  0
    0.4590   66.4090   70.5580 C   0  0  0  0  0  0  0  0  0  0  0  0
    0.4280   64.8750   70.4550 C   0  0  0  0  0  0  0  0  0  0  0  0
   -0.2610   64.3110   69.6130 O   0  0  0  0  0  0  0  0  0  0  0  0
    1.1410   64.2570   71.4660 N   0  0  0  0  0  0  0  0  0  0  0  0
    1.4310   62.8750   71.6150 C   0  0  0  0  0  0  0  0  0  0  0  0
    0.7350   62.0410   72.5060 C   0  0  0  0  0  0  0  0  0  0  0  0
   -0.4250   62.4300   73.3920 C   0  0  0  0  0  0  0  0  0  0  0  0
   -1.5250   61.3590   73.3900 C   0  0  0  0  0  0  0  0  0  0  0  0
   -1.0250   59.9280   73.6020 C   0  0  0  0  0  0  0  0  0  0  0  0
    0.4940   59.8000   73.5940 C   0  0  0  0  0  0  0  0  0  0  0  0
    1.1140   60.6970   72.5560 C   0  0  0  0  0  0  0  0  0  0  0  0
    2.0220   60.1420   71.7300 N   0  0  0  0  0  0  0  0  0  0  0  0
    2.6480   60.9200   70.8450 C   0  0  0  0  0  0  0  0  0  0  0  0
    2.4120   62.3080   70.7370 C   0  0  0  0  0  0  0  0  0  0  0  0
    3.1840   63.0280   69.7800 C   0  0  0  0  0  0  0  0  0  0  0  0
    4.1160   62.3940   68.9550 C   0  0  0  0  0  0  0  0  0  0  0  0
    4.3070   61.0270   69.0670 C   0  0  0  0  0  0  0  0  0  0  0  0
    3.5760   60.3110   70.0120 C   0  0  0  0  0  0  0  0  0  0  0  0
   -0.0513   66.8428   68.4989 H   0  0  0  0  0  0  0  0  0  0  0  0
    0.6984   69.3085   67.6657 H   0  0  0  0  0  0  0  0  0  0  0  0
    4.7642   68.9962   66.9361 H   0  0  0  0  0  0  0  0  0  0  0  0
    3.4756   68.4838   65.7944 H   0  0  0  0  0  0  0  0  0  0  0  0
    4.0510   70.1854   65.7944 H   0  0  0  0  0  0  0  0  0  0  0  0
    3.2791   69.7432   68.3495 H   0  0  0  0  0  0  0  0  0  0  0  0
    2.3711   70.5213   67.0746 H   0  0  0  0  0  0  0  0  0  0  0  0
    2.4582   67.5493   66.0216 H   0  0  0  0  0  0  0  0  0  0  0  0
    0.9420   66.8608   66.7916 H   0  0  0  0  0  0  0  0  0  0  0  0
   -1.3431   68.5690   66.3104 H   0  0  0  0  0  0  0  0  0  0  0  0
   -2.1231   69.2930   63.9331 H   0  0  0  0  0  0  0  0  0  0  0  0
    3.1829   68.2776   63.8269 H   0  0  0  0  0  0  0  0  0  0  0  0
    3.2666   68.8604   61.3988 H   0  0  0  0  0  0  0  0  0  0  0  0
    1.2052   69.5115   60.1874 H   0  0  0  0  0  0  0  0  0  0  0  0
   -0.9929   69.6401   61.3877 H   0  0  0  0  0  0  0  0  0  0  0  0
    1.3072   66.6986   71.1958 H   0  0  0  0  0  0  0  0  0  0  0  0
   -0.5059   66.7258   70.9805 H   0  0  0  0  0  0  0  0  0  0  0  0
    1.5074   64.8765   72.2028 H   0  0  0  0  0  0  0  0  0  0  0  0
   -0.0589   62.5631   74.4207 H   0  0  0  0  0  0  0  0  0  0  0  0
   -0.8555   63.3645   73.0028 H   0  0  0  0  0  0  0  0  0  0  0  0
   -2.2358   61.5964   74.1953 H   0  0  0  0  0  0  0  0  0  0  0  0
   -1.9807   61.3837   72.3892 H   0  0  0  0  0  0  0  0  0  0  0  0
   -1.3981   59.5704   74.5730 H   0  0  0  0  0  0  0  0  0  0  0  0
   -1.4017   59.3288   72.7600 H   0  0  0  0  0  0  0  0  0  0  0  0
    0.8820   60.0776   74.5851 H   0  0  0  0  0  0  0  0  0  0  0  0
    0.7530   58.7587   73.3518 H   0  0  0  0  0  0  0  0  0  0  0  0
    3.0419   64.1149   69.6882 H   0  0  0  0  0  0  0  0  0  0  0  0
    4.6938   62.9761   68.2220 H   0  0  0  0  0  0  0  0  0  0  0  0
    5.0288   60.5118   68.4162 H   0  0  0  0  0  0  0  0  0  0  0  0
    3.7397   59.2269   70.1010 H   0  0  0  0  0  0  0  0  0  0  0  0
  2  1  2  0
  3  1  1  0
  4  1  1  0
  6  5  1  0
  6  4  1  0
  7  4  1  0
  8  7  1  0
  9  8  2  0
 10  9  1  0
 11 10  1  0
 12 11  2  0
 12  8  1  0
 13 12  1  0
 14 13  2  0
 15 14  1  0
 16 11  1  0
 16 15  2  0
 17  3  1  0
 18 17  1  0
 19 18  2  0
 20 18  1  0
 21 20  1  0
 22 21  1  0
 23 22  1  0
 24 23  1  0
 25 24  1  0
 26 25  1  0
 27 26  1  0
 27 22  2  0
 28 27  1  0
 29 28  2  0
 30 29  1  0
 30 21  2  0
 31 30  1  0
 32 31  2  0
 33 32  1  0
 34 33  2  0
 34 29  1  0
  3 35  1  0
  4 36  1  1
  5 37  1  0
  5 38  1  0
  5 39  1  0
  6 40  1  0
  6 41  1  0
  7 42  1  0
  7 43  1  0
  9 44  1  0
 10 45  1  0
 13 46  1  0
 14 47  1  0
 15 48  1  0
 16 49  1  0
 17 50  1  0
 17 51  1  0
 20 52  1  0
 23 53  1  0
 23 54  1  0
 24 55  1  0
 24 56  1  0
 25 57  1  0
 25 58  1  0
 26 59  1  0
 26 60  1  0
 31 61  1  0
 32 62  1  0
 33 63  1  0
 34 64  1  0
M  CHG  1   6   1
M  END
>  <score>  (8) 
-10.508

$$$$
