=
     RDKit          3D

 16 17  0  0  0  0  0  0  0  0999 V2000
    6.4930   70.6450   68.2790 Cl  0  0  0  0  0  0  0  0  0  0  0  0
    5.3030   70.0770   67.1740 C   0  0  0  0  0  0  0  0  0  0  0  0
    3.9960   69.8300   67.6370 C   0  0  0  0  0  0  0  0  0  0  0  0
    3.0100   69.3690   66.7590 C   0  0  0  0  0  0  0  0  0  0  0  0
    1.4190   69.0670   67.3250 Cl  0  0  0  0  0  0  0  0  0  0  0  0
    3.3560   69.1660   65.4360 C   0  0  0  0  0  0  0  0  0  0  0  0
    4.6540   69.4170   65.0000 C   0  0  0  0  0  0  0  0  0  0  0  0
    5.6510   69.8730   65.8380 C   0  0  0  0  0  0  0  0  0  0  0  0
    4.6970   69.1090   63.5690 C   0  0  0  0  0  0  0  0  0  0  0  0
    5.6540   69.2020   62.8370 O   0  0  0  0  0  0  0  0  0  0  0  0
    3.2590   68.6420   63.2070 C   0  0  0  0  0  0  0  0  0  0  0  0
    2.8700   68.2920   62.1170 O   0  0  0  0  0  0  0  0  0  0  0  0
    2.5500   68.7140   64.3880 N   0  0  0  0  0  0  0  0  0  0  0  0
    3.7494   70.0007   68.6953 H   0  0  0  0  0  0  0  0  0  0  0  0
    6.6698   70.0662   65.4710 H   0  0  0  0  0  0  0  0  0  0  0  0
    1.5549   68.4665   64.4848 H   0  0  0  0  0  0  0  0  0  0  0  0
  2  1  1  0
  3  2  2  0
  4  3  1  0
  5  4  1  0
  6  4  2  0
  7  6  1  0
  8  7  2  0
  8  2  1  0
  9  7  1  0
 10  9  2  0
 11  9  1  0
 12 11  2  0
 13 11  1  0
 13  6  1  0
  3 14  1  0
  8 15  1  0
 13 16  1  0
M  END
>  <score>  (1) 
-7.903

$$$$
=
     RDKit          3D

 16 17  0  0  0  0  0  0  0  0999 V2000
    6.1920   70.8860   68.6850 Cl  0  0  0  0  0  0  0  0  0  0  0  0
    5.1290   70.2370   67.4980 C   0  0  0  0  0  0  0  0  0  0  0  0
    5.5940   70.0630   66.1800 C   0  0  0  0  0  0  0  0  0  0  0  0
    4.7500   69.5380   65.1960 C   0  0  0  0  0  0  0  0  0  0  0  0
    5.3180   69.3270   63.5910 Cl  0  0  0  0  0  0  0  0  0  0  0  0
    3.4590   69.1980   65.5550 C   0  0  0  0  0  0  0  0  0  0  0  0
    3.0210   69.3780   66.8650 C   0  0  0  0  0  0  0  0  0  0  0  0
    3.8260   69.8930   67.8600 C   0  0  0  0  0  0  0  0  0  0  0  0
    1.6290   68.9280   66.9210 C   0  0  0  0  0  0  0  0  0  0  0  0
    0.9060   68.9290   67.8890 O   0  0  0  0  0  0  0  0  0  0  0  0
    1.2920   68.4570   65.4780 C   0  0  0  0  0  0  0  0  0  0  0  0
    0.2350   68.0120   65.0960 O   0  0  0  0  0  0  0  0  0  0  0  0
    2.4480   68.6630   64.7550 N   0  0  0  0  0  0  0  0  0  0  0  0
    6.6267   70.3415   65.9231 H   0  0  0  0  0  0  0  0  0  0  0  0
    3.4587   70.0259   68.8883 H   0  0  0  0  0  0  0  0  0  0  0  0
    2.5521   68.4494   63.7528 H   0  0  0  0  0  0  0  0  0  0  0  0
  2  1  1  0
  3  2  2  0
  4  3  1  0
  5  4  1  0
  6  4  2  0
  7  6  1  0
  8  7  2  0
  8  2  1  0
  9  7  1  0
 10  9  2  0
 11  9  1  0
 12 11  2  0
 13 11  1  0
 13  6  1  0
  3 14  1  0
  8 15  1  0
 13 16  1  0
M  END
>  <score>  (2) 
-7.894

$$$$
=
     RDKit          3D

 16 17  0  0  0  0  0  0  0  0999 V2000
    0.4620   68.1220   66.3450 Cl  0  0  0  0  0  0  0  0  0  0  0  0
    2.0460   68.7880   66.4450 C   0  0  0  0  0  0  0  0  0  0  0  0
    2.8840   68.7420   65.3150 C   0  0  0  0  0  0  0  0  0  0  0  0
    4.1760   69.2760   65.3700 C   0  0  0  0  0  0  0  0  0  0  0  0
    5.1960   69.2180   63.9920 Cl  0  0  0  0  0  0  0  0  0  0  0  0
    4.5980   69.8450   66.5570 C   0  0  0  0  0  0  0  0  0  0  0  0
    3.7510   69.8810   67.6620 C   0  0  0  0  0  0  0  0  0  0  0  0
    2.4720   69.3640   67.6430 C   0  0  0  0  0  0  0  0  0  0  0  0
    4.4830   70.5390   68.7460 C   0  0  0  0  0  0  0  0  0  0  0  0
    4.0800   70.7550   69.8650 O   0  0  0  0  0  0  0  0  0  0  0  0
    5.8730   70.8920   68.1470 C   0  0  0  0  0  0  0  0  0  0  0  0
    6.7830   71.4470   68.7190 O   0  0  0  0  0  0  0  0  0  0  0  0
    5.8300   70.4350   66.8470 N   0  0  0  0  0  0  0  0  0  0  0  0
    2.5210   68.2836   64.3833 H   0  0  0  0  0  0  0  0  0  0  0  0
    1.8202   69.4037   68.5282 H   0  0  0  0  0  0  0  0  0  0  0  0
    6.6069   70.5181   66.1758 H   0  0  0  0  0  0  0  0  0  0  0  0
  2  1  1  0
  3  2  2  0
  4  3  1  0
  5  4  1  0
  6  4  2  0
  7  6  1  0
  8  7  2  0
  8  2  1  0
  9  7  1  0
 10  9  2  0
 11  9  1  0
 12 11  2  0
 13 11  1  0
 13  6  1  0
  3 14  1  0
  8 15  1  0
 13 16  1  0
M  END
>  <score>  (3) 
-7.725

$$$$
=
     RDKit          3D

 16 17  0  0  0  0  0  0  0  0999 V2000
    5.8570   69.8680   66.6040 Cl  0  0  0  0  0  0  0  0  0  0  0  0
    4.2710   69.4420   66.0900 C   0  0  0  0  0  0  0  0  0  0  0  0
    3.2470   69.3240   67.0470 C   0  0  0  0  0  0  0  0  0  0  0  0
    1.9490   68.9780   66.6550 C   0  0  0  0  0  0  0  0  0  0  0  0
    0.7010   68.8330   67.8250 Cl  0  0  0  0  0  0  0  0  0  0  0  0
    1.7080   68.7600   65.3120 C   0  0  0  0  0  0  0  0  0  0  0  0
    2.7370   68.8840   64.3820 C   0  0  0  0  0  0  0  0  0  0  0  0
    4.0280   69.2230   64.7330 C   0  0  0  0  0  0  0  0  0  0  0  0
    2.1670   68.5950   63.0650 C   0  0  0  0  0  0  0  0  0  0  0  0
    2.7500   68.6000   62.0070 O   0  0  0  0  0  0  0  0  0  0  0  0
    0.6670   68.2820   63.3270 C   0  0  0  0  0  0  0  0  0  0  0  0
   -0.1630   67.9900   62.4970 O   0  0  0  0  0  0  0  0  0  0  0  0
    0.5070   68.4090   64.6920 N   0  0  0  0  0  0  0  0  0  0  0  0
    3.4677   69.5047   68.1094 H   0  0  0  0  0  0  0  0  0  0  0  0
    4.8255   69.3159   63.9811 H   0  0  0  0  0  0  0  0  0  0  0  0
   -0.3833   68.2636   65.1891 H   0  0  0  0  0  0  0  0  0  0  0  0
  2  1  1  0
  3  2  2  0
  4  3  1  0
  5  4  1  0
  6  4  2  0
  7  6  1  0
  8  7  2  0
  8  2  1  0
  9  7  1  0
 10  9  2  0
 11  9  1  0
 12 11  2  0
 13 11  1  0
 13  6  1  0
  3 14  1  0
  8 15  1  0
 13 16  1  0
M  END
>  <score>  (4) 
-7.65

$$$$
=
     RDKit          3D

 16 17  0  0  0  0  0  0  0  0999 V2000
    0.7360   68.8640   67.8290 Cl  0  0  0  0  0  0  0  0  0  0  0  0
    2.1820   69.1070   66.9280 C   0  0  0  0  0  0  0  0  0  0  0  0
    3.3160   69.6310   67.5750 C   0  0  0  0  0  0  0  0  0  0  0  0
    4.5030   69.8390   66.8650 C   0  0  0  0  0  0  0  0  0  0  0  0
    5.8850   70.4790   67.6570 Cl  0  0  0  0  0  0  0  0  0  0  0  0
    4.5270   69.5150   65.5220 C   0  0  0  0  0  0  0  0  0  0  0  0
    3.3920   68.9970   64.9010 C   0  0  0  0  0  0  0  0  0  0  0  0
    2.2060   68.7800   65.5710 C   0  0  0  0  0  0  0  0  0  0  0  0
    3.7370   68.7620   63.4980 C   0  0  0  0  0  0  0  0  0  0  0  0
    3.0120   68.3170   62.6400 O   0  0  0  0  0  0  0  0  0  0  0  0
    5.2200   69.2050   63.3600 C   0  0  0  0  0  0  0  0  0  0  0  0
    5.8890   69.1730   62.3530 O   0  0  0  0  0  0  0  0  0  0  0  0
    5.5850   69.6340   64.6190 N   0  0  0  0  0  0  0  0  0  0  0  0
    3.2689   69.8786   68.6457 H   0  0  0  0  0  0  0  0  0  0  0  0
    1.3222   68.3693   65.0609 H   0  0  0  0  0  0  0  0  0  0  0  0
    6.5183   69.9957   64.8618 H   0  0  0  0  0  0  0  0  0  0  0  0
  2  1  1  0
  3  2  2  0
  4  3  1  0
  5  4  1  0
  6  4  2  0
  7  6  1  0
  8  7  2  0
  8  2  1  0
  9  7  1  0
 10  9  2  0
 11  9  1  0
 12 11  2  0
 13 11  1  0
 13  6  1  0
  3 14  1  0
  8 15  1  0
 13 16  1  0
M  END
>  <score>  (5) 
-7.645

$$$$
=
     RDKit          3D

 16 17  0  0  0  0  0  0  0  0999 V2000
    5.6350   69.3130   63.2010 Cl  0  0  0  0  0  0  0  0  0  0  0  0
    4.6450   69.3100   64.6080 C   0  0  0  0  0  0  0  0  0  0  0  0
    5.1480   69.8570   65.8040 C   0  0  0  0  0  0  0  0  0  0  0  0
    4.3630   69.8660   66.9620 C   0  0  0  0  0  0  0  0  0  0  0  0
    4.9790   70.5320   68.4190 Cl  0  0  0  0  0  0  0  0  0  0  0  0
    3.0920   69.3290   66.8950 C   0  0  0  0  0  0  0  0  0  0  0  0
    2.6140   68.7940   65.7000 C   0  0  0  0  0  0  0  0  0  0  0  0
    3.3610   68.7680   64.5400 C   0  0  0  0  0  0  0  0  0  0  0  0
    1.2550   68.3130   65.9550 C   0  0  0  0  0  0  0  0  0  0  0  0
    0.5140   67.7840   65.1610 O   0  0  0  0  0  0  0  0  0  0  0  0
    0.9820   68.6290   67.4530 C   0  0  0  0  0  0  0  0  0  0  0  0
   -0.0330   68.3890   68.0650 O   0  0  0  0  0  0  0  0  0  0  0  0
    2.1370   69.2290   67.9090 N   0  0  0  0  0  0  0  0  0  0  0  0
    6.1634   70.2794   65.8280 H   0  0  0  0  0  0  0  0  0  0  0  0
    2.9637   68.3409   63.6074 H   0  0  0  0  0  0  0  0  0  0  0  0
    2.2773   69.5609   68.8739 H   0  0  0  0  0  0  0  0  0  0  0  0
  2  1  1  0
  3  2  2  0
  4  3  1  0
  5  4  1  0
  6  4  2  0
  7  6  1  0
  8  7  2  0
  8  2  1  0
  9  7  1  0
 10  9  2  0
 11  9  1  0
 12 11  2  0
 13 11  1  0
 13  6  1  0
  3 14  1  0
  8 15  1  0
 13 16  1  0
M  END
>  <score>  (6) 
-7.481

$$$$
=
     RDKit          3D

 16 17  0  0  0  0  0  0  0  0999 V2000
    5.6660   69.4880   65.6520 Cl  0  0  0  0  0  0  0  0  0  0  0  0
    4.0120   69.1580   65.3060 C   0  0  0  0  0  0  0  0  0  0  0  0
    3.5920   69.0840   63.9650 C   0  0  0  0  0  0  0  0  0  0  0  0
    2.2540   68.8180   63.6570 C   0  0  0  0  0  0  0  0  0  0  0  0
    1.7430   68.7290   62.0210 Cl  0  0  0  0  0  0  0  0  0  0  0  0
    1.3670   68.6310   64.7010 C   0  0  0  0  0  0  0  0  0  0  0  0
    1.8060   68.7070   66.0210 C   0  0  0  0  0  0  0  0  0  0  0  0
    3.1180   68.9680   66.3600 C   0  0  0  0  0  0  0  0  0  0  0  0
    0.6430   68.4660   66.8770 C   0  0  0  0  0  0  0  0  0  0  0  0
    0.6240   68.4520   68.0850 O   0  0  0  0  0  0  0  0  0  0  0  0
   -0.5450   68.2350   65.9010 C   0  0  0  0  0  0  0  0  0  0  0  0
   -1.6910   68.0020   66.2060 O   0  0  0  0  0  0  0  0  0  0  0  0
    0.0000   68.3560   64.6390 N   0  0  0  0  0  0  0  0  0  0  0  0
    4.3200   69.2362   63.1546 H   0  0  0  0  0  0  0  0  0  0  0  0
    3.4429   69.0235   67.4095 H   0  0  0  0  0  0  0  0  0  0  0  0
   -0.5335   68.2562   63.7636 H   0  0  0  0  0  0  0  0  0  0  0  0
  2  1  1  0
  3  2  2  0
  4  3  1  0
  5  4  1  0
  6  4  2  0
  7  6  1  0
  8  7  2  0
  8  2  1  0
  9  7  1  0
 10  9  2  0
 11  9  1  0
 12 11  2  0
 13 11  1  0
 13  6  1  0
  3 14  1  0
  8 15  1  0
 13 16  1  0
M  END
>  <score>  (7) 
-7.202

$$$$
=
     RDKit          3D

 16 17  0  0  0  0  0  0  0  0999 V2000
    1.1420   67.4510   68.8020 Cl  0  0  0  0  0  0  0  0  0  0  0  0
    0.4900   67.9260   67.2810 C   0  0  0  0  0  0  0  0  0  0  0  0
   -0.8960   68.1410   67.1640 C   0  0  0  0  0  0  0  0  0  0  0  0
   -1.4510   68.5270   65.9390 C   0  0  0  0  0  0  0  0  0  0  0  0
   -3.1420   68.7870   65.7990 Cl  0  0  0  0  0  0  0  0  0  0  0  0
   -0.6040   68.6890   64.8600 C   0  0  0  0  0  0  0  0  0  0  0  0
    0.7650   68.4720   64.9990 C   0  0  0  0  0  0  0  0  0  0  0  0
    1.3460   68.0910   66.1910 C   0  0  0  0  0  0  0  0  0  0  0  0
    1.3770   68.7240   63.6930 C   0  0  0  0  0  0  0  0  0  0  0  0
    2.5500   68.6380   63.4150 O   0  0  0  0  0  0  0  0  0  0  0  0
    0.2010   69.1190   62.7570 C   0  0  0  0  0  0  0  0  0  0  0  0
    0.2790   69.4060   61.5850 O   0  0  0  0  0  0  0  0  0  0  0  0
   -0.9250   69.0650   63.5540 N   0  0  0  0  0  0  0  0  0  0  0  0
   -1.5465   68.0048   68.0405 H   0  0  0  0  0  0  0  0  0  0  0  0
    2.4300   67.9255   66.2780 H   0  0  0  0  0  0  0  0  0  0  0  0
   -1.8790   69.2750   63.2274 H   0  0  0  0  0  0  0  0  0  0  0  0
  2  1  1  0
  3  2  2  0
  4  3  1  0
  5  4  1  0
  6  4  2  0
  7  6  1  0
  8  7  2  0
  8  2  1  0
  9  7  1  0
 10  9  2  0
 11  9  1  0
 12 11  2  0
 13 11  1  0
 13  6  1  0
  3 14  1  0
  8 15  1  0
 13 16  1  0
M  END
>  <score>  (8) 
-6.871

$$$$
=
     RDKit          3D

 16 17  0  0  0  0  0  0  0  0999 V2000
    0.0270   68.3300   62.4120 Cl  0  0  0  0  0  0  0  0  0  0  0  0
    1.0850   68.6090   63.7410 C   0  0  0  0  0  0  0  0  0  0  0  0
    0.5780   68.5340   65.0510 C   0  0  0  0  0  0  0  0  0  0  0  0
    1.4170   68.7560   66.1480 C   0  0  0  0  0  0  0  0  0  0  0  0
    0.7960   68.6650   67.7460 Cl  0  0  0  0  0  0  0  0  0  0  0  0
    2.7460   69.0480   65.9060 C   0  0  0  0  0  0  0  0  0  0  0  0
    3.2270   69.1160   64.6000 C   0  0  0  0  0  0  0  0  0  0  0  0
    2.4270   68.9020   63.4960 C   0  0  0  0  0  0  0  0  0  0  0  0
    4.6520   69.4390   64.6810 C   0  0  0  0  0  0  0  0  0  0  0  0
    5.4150   69.5830   63.7550 O   0  0  0  0  0  0  0  0  0  0  0  0
    4.9620   69.5550   66.2000 C   0  0  0  0  0  0  0  0  0  0  0  0
    6.0330   69.8120   66.6980 O   0  0  0  0  0  0  0  0  0  0  0  0
    3.7610   69.3050   66.8300 N   0  0  0  0  0  0  0  0  0  0  0  0
   -0.4843   68.2994   65.2136 H   0  0  0  0  0  0  0  0  0  0  0  0
    2.8276   68.9596   62.4732 H   0  0  0  0  0  0  0  0  0  0  0  0
    3.6294   69.3075   67.8516 H   0  0  0  0  0  0  0  0  0  0  0  0
  2  1  1  0
  3  2  2  0
  4  3  1  0
  5  4  1  0
  6  4  2  0
  7  6  1  0
  8  7  2  0
  8  2  1  0
  9  7  1  0
 10  9  2  0
 11  9  1  0
 12 11  2  0
 13 11  1  0
 13  6  1  0
  3 14  1  0
  8 15  1  0
 13 16  1  0
M  END
>  <score>  (9) 
-6.811

$$$$
