=
     RDKit          3D

 44 45  0  0  0  0  0  0  0  0999 V2000
    2.7180   69.4610   64.3330 O   0  0  0  0  0  0  0  0  0  0  0  0
    2.8310   68.9630   65.4450 C   0  0  0  0  0  0  0  0  0  0  0  0
    3.8590   69.4550   66.3890 C   0  0  0  0  0  0  0  0  0  0  0  0
    5.2180   69.3700   66.0260 C   0  0  0  0  0  0  0  0  0  0  0  0
    5.6560   68.7830   64.7140 C   0  0  0  0  0  0  0  0  0  0  0  0
    6.1880   69.8330   66.9280 C   0  0  0  0  0  0  0  0  0  0  0  0
    5.8210   70.3860   68.1600 C   0  0  0  0  0  0  0  0  0  0  0  0
    4.4650   70.4640   68.5010 C   0  0  0  0  0  0  0  0  0  0  0  0
    3.4690   70.0220   67.6180 C   0  0  0  0  0  0  0  0  0  0  0  0
    2.0280   70.1430   68.0280 C   0  0  0  0  0  0  0  0  0  0  0  0
    6.8730   70.8380   69.1310 C   0  0  0  0  0  0  0  0  0  0  0  0
    1.9290   67.8150   65.8840 C   0  0  0  0  0  0  0  0  0  0  0  0
    2.3970   66.7220   66.1690 O   0  0  0  0  0  0  0  0  0  0  0  0
    0.4720   68.0560   65.9730 C   0  0  0  0  0  0  0  0  0  0  0  0
   -0.2330   68.5230   64.8460 C   0  0  0  0  0  0  0  0  0  0  0  0
    0.4420   68.7980   63.5320 C   0  0  0  0  0  0  0  0  0  0  0  0
   -1.6110   68.7590   64.9650 C   0  0  0  0  0  0  0  0  0  0  0  0
   -2.2860   68.5180   66.1660 C   0  0  0  0  0  0  0  0  0  0  0  0
   -1.5770   68.0110   67.2610 C   0  0  0  0  0  0  0  0  0  0  0  0
   -0.1960   67.7760   67.1820 C   0  0  0  0  0  0  0  0  0  0  0  0
    0.5290   67.2460   68.3880 C   0  0  0  0  0  0  0  0  0  0  0  0
   -3.7680   68.7390   66.2600 C   0  0  0  0  0  0  0  0  0  0  0  0
    6.3044   67.9140   64.8994 H   0  0  0  0  0  0  0  0  0  0  0  0
    4.7723   68.4655   64.1411 H   0  0  0  0  0  0  0  0  0  0  0  0
    6.2119   69.5398   64.1411 H   0  0  0  0  0  0  0  0  0  0  0  0
    7.2530   69.7602   66.6627 H   0  0  0  0  0  0  0  0  0  0  0  0
    4.1761   70.8790   69.4779 H   0  0  0  0  0  0  0  0  0  0  0  0
    1.9584   70.1488   69.1258 H   0  0  0  0  0  0  0  0  0  0  0  0
    1.6107   71.0793   67.6291 H   0  0  0  0  0  0  0  0  0  0  0  0
    1.4604   69.2894   67.6291 H   0  0  0  0  0  0  0  0  0  0  0  0
    6.5136   70.6836   70.1591 H   0  0  0  0  0  0  0  0  0  0  0  0
    7.7926   70.2556   68.9727 H   0  0  0  0  0  0  0  0  0  0  0  0
    7.0835   71.9060   68.9727 H   0  0  0  0  0  0  0  0  0  0  0  0
    1.4466   69.2073   63.7144 H   0  0  0  0  0  0  0  0  0  0  0  0
    0.5256   67.8623   62.9598 H   0  0  0  0  0  0  0  0  0  0  0  0
   -0.1521   69.5258   62.9598 H   0  0  0  0  0  0  0  0  0  0  0  0
   -2.1705   69.1404   64.0981 H   0  0  0  0  0  0  0  0  0  0  0  0
   -2.1106   67.7934   68.1980 H   0  0  0  0  0  0  0  0  0  0  0  0
    0.0343   67.6077   69.3015 H   0  0  0  0  0  0  0  0  0  0  0  0
    0.5115   66.1463   68.3724 H   0  0  0  0  0  0  0  0  0  0  0  0
    1.5716   67.5964   68.3724 H   0  0  0  0  0  0  0  0  0  0  0  0
   -4.0657   68.7834   67.3180 H   0  0  0  0  0  0  0  0  0  0  0  0
   -4.0296   69.6861   65.7654 H   0  0  0  0  0  0  0  0  0  0  0  0
   -4.2945   67.9094   65.7654 H   0  0  0  0  0  0  0  0  0  0  0  0
  2  1  2  0
  3  2  1  0
  4  3  2  0
  5  4  1  0
  6  4  1  0
  7  6  2  0
  8  7  1  0
  9  8  2  0
  9  3  1  0
 10  9  1  0
 11  7  1  0
 12  2  1  0
 13 12  2  0
 14 12  1  0
 15 14  2  0
 16 15  1  0
 17 15  1  0
 18 17  2  0
 19 18  1  0
 20 19  2  0
 20 14  1  0
 21 20  1  0
 22 18  1  0
  5 23  1  0
  5 24  1  0
  5 25  1  0
  6 26  1  0
  8 27  1  0
 10 28  1  0
 10 29  1  0
 10 30  1  0
 11 31  1  0
 11 32  1  0
 11 33  1  0
 16 34  1  0
 16 35  1  0
 16 36  1  0
 17 37  1  0
 19 38  1  0
 21 39  1  0
 21 40  1  0
 21 41  1  0
 22 42  1  0
 22 43  1  0
 22 44  1  0
M  END
>  <score>  (1) 
-10.554

$$$$
=
     RDKit          3D

 44 45  0  0  0  0  0  0  0  0999 V2000
    2.4070   66.6900   66.1030 O   0  0  0  0  0  0  0  0  0  0  0  0
    1.9290   67.7890   65.8560 C   0  0  0  0  0  0  0  0  0  0  0  0
    0.4720   68.0200   65.9760 C   0  0  0  0  0  0  0  0  0  0  0  0
   -0.1660   67.7430   67.2010 C   0  0  0  0  0  0  0  0  0  0  0  0
    0.5860   67.2070   68.3870 C   0  0  0  0  0  0  0  0  0  0  0  0
   -1.5480   67.9600   67.3060 C   0  0  0  0  0  0  0  0  0  0  0  0
   -2.2850   68.4590   66.2260 C   0  0  0  0  0  0  0  0  0  0  0  0
   -1.6310   68.7300   65.0170 C   0  0  0  0  0  0  0  0  0  0  0  0
   -0.2490   68.5370   64.8810 C   0  0  0  0  0  0  0  0  0  0  0  0
    0.4050   68.8580   63.5670 C   0  0  0  0  0  0  0  0  0  0  0  0
   -3.7690   68.6440   66.3420 C   0  0  0  0  0  0  0  0  0  0  0  0
    2.8150   68.9450   65.4060 C   0  0  0  0  0  0  0  0  0  0  0  0
    2.6710   69.4540   64.3030 O   0  0  0  0  0  0  0  0  0  0  0  0
    3.8470   69.4490   66.3380 C   0  0  0  0  0  0  0  0  0  0  0  0
    3.4660   69.9910   67.5810 C   0  0  0  0  0  0  0  0  0  0  0  0
    2.0280   70.0890   68.0090 C   0  0  0  0  0  0  0  0  0  0  0  0
    4.4650   70.4770   68.4380 C   0  0  0  0  0  0  0  0  0  0  0  0
    5.8170   70.4090   68.0860 C   0  0  0  0  0  0  0  0  0  0  0  0
    6.1790   69.8250   66.8670 C   0  0  0  0  0  0  0  0  0  0  0  0
    5.2060   69.3410   65.9790 C   0  0  0  0  0  0  0  0  0  0  0  0
    5.6390   68.7360   64.6730 C   0  0  0  0  0  0  0  0  0  0  0  0
    6.8720   70.8990   69.0340 C   0  0  0  0  0  0  0  0  0  0  0  0
    0.1031   67.5512   69.3135 H   0  0  0  0  0  0  0  0  0  0  0  0
    0.5813   66.1074   68.3577 H   0  0  0  0  0  0  0  0  0  0  0  0
    1.6239   67.5702   68.3577 H   0  0  0  0  0  0  0  0  0  0  0  0
   -2.0607   67.7343   68.2527 H   0  0  0  0  0  0  0  0  0  0  0  0
   -2.2119   69.1006   64.1596 H   0  0  0  0  0  0  0  0  0  0  0  0
    1.3788   69.3360   63.7492 H   0  0  0  0  0  0  0  0  0  0  0  0
    0.5532   67.9303   62.9949 H   0  0  0  0  0  0  0  0  0  0  0  0
   -0.2382   69.5428   62.9949 H   0  0  0  0  0  0  0  0  0  0  0  0
   -4.0522   68.6793   67.4043 H   0  0  0  0  0  0  0  0  0  0  0  0
   -4.0605   69.5854   65.8534 H   0  0  0  0  0  0  0  0  0  0  0  0
   -4.2827   67.8029   65.8534 H   0  0  0  0  0  0  0  0  0  0  0  0
    1.9719   70.0928   69.1076 H   0  0  0  0  0  0  0  0  0  0  0  0
    1.5911   71.0190   67.6163 H   0  0  0  0  0  0  0  0  0  0  0  0
    1.4690   69.2269   67.6163 H   0  0  0  0  0  0  0  0  0  0  0  0
    4.1799   70.9194   69.4039 H   0  0  0  0  0  0  0  0  0  0  0  0
    7.2432   69.7440   66.6005 H   0  0  0  0  0  0  0  0  0  0  0  0
    6.2691   67.8556   64.8678 H   0  0  0  0  0  0  0  0  0  0  0  0
    4.7520   68.4321   64.0977 H   0  0  0  0  0  0  0  0  0  0  0  0
    6.2128   69.4775   64.0977 H   0  0  0  0  0  0  0  0  0  0  0  0
    6.5356   70.7427   70.0696 H   0  0  0  0  0  0  0  0  0  0  0  0
    7.8052   70.3421   68.8637 H   0  0  0  0  0  0  0  0  0  0  0  0
    7.0486   71.9713   68.8637 H   0  0  0  0  0  0  0  0  0  0  0  0
  2  1  2  0
  3  2  1  0
  4  3  2  0
  5  4  1  0
  6  4  1  0
  7  6  2  0
  8  7  1  0
  9  8  2  0
  9  3  1  0
 10  9  1  0
 11  7  1  0
 12  2  1  0
 13 12  2  0
 14 12  1  0
 15 14  2  0
 16 15  1  0
 17 15  1  0
 18 17  2  0
 19 18  1  0
 20 19  2  0
 20 14  1  0
 21 20  1  0
 22 18  1  0
  5 23  1  0
  5 24  1  0
  5 25  1  0
  6 26  1  0
  8 27  1  0
 10 28  1  0
 10 29  1  0
 10 30  1  0
 11 31  1  0
 11 32  1  0
 11 33  1  0
 16 34  1  0
 16 35  1  0
 16 36  1  0
 17 37  1  0
 19 38  1  0
 21 39  1  0
 21 40  1  0
 21 41  1  0
 22 42  1  0
 22 43  1  0
 22 44  1  0
M  END
>  <score>  (2) 
-10.452

$$$$
=
     RDKit          3D

 44 45  0  0  0  0  0  0  0  0999 V2000
    2.5240   60.3680   71.0520 O   0  0  0  0  0  0  0  0  0  0  0  0
    2.5340   61.3390   71.7960 C   0  0  0  0  0  0  0  0  0  0  0  0
    2.0030   62.6430   71.3400 C   0  0  0  0  0  0  0  0  0  0  0  0
    2.8770   63.5610   70.7260 C   0  0  0  0  0  0  0  0  0  0  0  0
    4.3370   63.2620   70.5310 C   0  0  0  0  0  0  0  0  0  0  0  0
    2.3680   64.7980   70.3010 C   0  0  0  0  0  0  0  0  0  0  0  0
    1.0150   65.1150   70.4630 C   0  0  0  0  0  0  0  0  0  0  0  0
    0.1620   64.1880   71.0740 C   0  0  0  0  0  0  0  0  0  0  0  0
    0.6340   62.9370   71.4990 C   0  0  0  0  0  0  0  0  0  0  0  0
   -0.3280   61.9740   72.1340 C   0  0  0  0  0  0  0  0  0  0  0  0
    0.4950   66.4580   70.0410 C   0  0  0  0  0  0  0  0  0  0  0  0
    3.1060   61.2390   73.2060 C   0  0  0  0  0  0  0  0  0  0  0  0
    4.2840   61.4880   73.4250 O   0  0  0  0  0  0  0  0  0  0  0  0
    2.2020   60.8490   74.3090 C   0  0  0  0  0  0  0  0  0  0  0  0
    1.5360   61.8390   75.0560 C   0  0  0  0  0  0  0  0  0  0  0  0
    1.7090   63.3060   74.7800 C   0  0  0  0  0  0  0  0  0  0  0  0
    0.6970   61.4400   76.1080 C   0  0  0  0  0  0  0  0  0  0  0  0
    0.5020   60.0860   76.4040 C   0  0  0  0  0  0  0  0  0  0  0  0
    1.1380   59.1150   75.6210 C   0  0  0  0  0  0  0  0  0  0  0  0
    1.9940   59.4790   74.5710 C   0  0  0  0  0  0  0  0  0  0  0  0
    2.6680   58.4030   73.7660 C   0  0  0  0  0  0  0  0  0  0  0  0
   -0.4300   59.6790   77.5080 C   0  0  0  0  0  0  0  0  0  0  0  0
    4.8250   63.1621   71.5118 H   0  0  0  0  0  0  0  0  0  0  0  0
    4.4471   62.3227   69.9693 H   0  0  0  0  0  0  0  0  0  0  0  0
    4.8075   64.0824   69.9693 H   0  0  0  0  0  0  0  0  0  0  0  0
    3.0433   65.5296   69.8333 H   0  0  0  0  0  0  0  0  0  0  0  0
   -0.8970   64.4451   71.2235 H   0  0  0  0  0  0  0  0  0  0  0  0
   -0.2530   62.0491   73.2289 H   0  0  0  0  0  0  0  0  0  0  0  0
   -1.3532   62.2186   71.8191 H   0  0  0  0  0  0  0  0  0  0  0  0
   -0.0824   60.9491   71.8191 H   0  0  0  0  0  0  0  0  0  0  0  0
    0.2627   67.0581   70.9331 H   0  0  0  0  0  0  0  0  0  0  0  0
    1.2582   66.9745   69.4403 H   0  0  0  0  0  0  0  0  0  0  0  0
   -0.4170   66.3259   69.4403 H   0  0  0  0  0  0  0  0  0  0  0  0
    1.7735   63.8531   75.7321 H   0  0  0  0  0  0  0  0  0  0  0  0
    2.6320   63.4642   74.2029 H   0  0  0  0  0  0  0  0  0  0  0  0
    0.8481   63.6746   74.2029 H   0  0  0  0  0  0  0  0  0  0  0  0
    0.1840   62.2044   76.7101 H   0  0  0  0  0  0  0  0  0  0  0  0
    0.9636   58.0497   75.8326 H   0  0  0  0  0  0  0  0  0  0  0  0
    3.1272   57.6699   74.4455 H   0  0  0  0  0  0  0  0  0  0  0  0
    1.9238   57.8991   73.1317 H   0  0  0  0  0  0  0  0  0  0  0  0
    3.4461   58.8527   73.1317 H   0  0  0  0  0  0  0  0  0  0  0  0
    0.0414   59.8848   78.4803 H   0  0  0  0  0  0  0  0  0  0  0  0
   -1.3666   60.2500   77.4264 H   0  0  0  0  0  0  0  0  0  0  0  0
   -0.6477   58.6039   77.4264 H   0  0  0  0  0  0  0  0  0  0  0  0
  2  1  2  0
  3  2  1  0
  4  3  2  0
  5  4  1  0
  6  4  1  0
  7  6  2  0
  8  7  1  0
  9  8  2  0
  9  3  1  0
 10  9  1  0
 11  7  1  0
 12  2  1  0
 13 12  2  0
 14 12  1  0
 15 14  2  0
 16 15  1  0
 17 15  1  0
 18 17  2  0
 19 18  1  0
 20 19  2  0
 20 14  1  0
 21 20  1  0
 22 18  1  0
  5 23  1  0
  5 24  1  0
  5 25  1  0
  6 26  1  0
  8 27  1  0
 10 28  1  0
 10 29  1  0
 10 30  1  0
 11 31  1  0
 11 32  1  0
 11 33  1  0
 16 34  1  0
 16 35  1  0
 16 36  1  0
 17 37  1  0
 19 38  1  0
 21 39  1  0
 21 40  1  0
 21 41  1  0
 22 42  1  0
 22 43  1  0
 22 44  1  0
M  END
>  <score>  (3) 
-9.969

$$$$
=
     RDKit          3D

 44 45  0  0  0  0  0  0  0  0999 V2000
    2.6360   60.4330   70.8950 O   0  0  0  0  0  0  0  0  0  0  0  0
    2.5990   61.3770   71.6720 C   0  0  0  0  0  0  0  0  0  0  0  0
    2.0130   62.6710   71.2580 C   0  0  0  0  0  0  0  0  0  0  0  0
    2.8430   63.6350   70.6510 C   0  0  0  0  0  0  0  0  0  0  0  0
    4.3080   63.3930   70.4230 C   0  0  0  0  0  0  0  0  0  0  0  0
    2.2820   64.8620   70.2660 C   0  0  0  0  0  0  0  0  0  0  0  0
    0.9210   65.1260   70.4610 C   0  0  0  0  0  0  0  0  0  0  0  0
    0.1130   64.1550   71.0630 C   0  0  0  0  0  0  0  0  0  0  0  0
    0.6380   62.9120   71.4490 C   0  0  0  0  0  0  0  0  0  0  0  0
   -0.2770   61.9000   72.0780 C   0  0  0  0  0  0  0  0  0  0  0  0
    0.3460   66.4600   70.0820 C   0  0  0  0  0  0  0  0  0  0  0  0
    3.1670   61.2530   73.0820 C   0  0  0  0  0  0  0  0  0  0  0  0
    4.3230   61.5720   73.3230 O   0  0  0  0  0  0  0  0  0  0  0  0
    2.2850   60.7520   74.1570 C   0  0  0  0  0  0  0  0  0  0  0  0
    2.1640   59.3660   74.3790 C   0  0  0  0  0  0  0  0  0  0  0  0
    2.9020   58.3520   73.5510 C   0  0  0  0  0  0  0  0  0  0  0  0
    1.3060   58.9190   75.3950 C   0  0  0  0  0  0  0  0  0  0  0  0
    0.5970   59.8220   76.1940 C   0  0  0  0  0  0  0  0  0  0  0  0
    0.7660   61.1970   75.9890 C   0  0  0  0  0  0  0  0  0  0  0  0
    1.6040   61.6790   74.9730 C   0  0  0  0  0  0  0  0  0  0  0  0
    1.7430   63.1630   74.7780 C   0  0  0  0  0  0  0  0  0  0  0  0
   -0.2850   59.3240   77.3020 C   0  0  0  0  0  0  0  0  0  0  0  0
    4.8209   63.3083   71.3924 H   0  0  0  0  0  0  0  0  0  0  0  0
    4.4415   62.4606   69.8548 H   0  0  0  0  0  0  0  0  0  0  0  0
    4.7343   64.2329   69.8548 H   0  0  0  0  0  0  0  0  0  0  0  0
    2.9214   65.6285   69.8038 H   0  0  0  0  0  0  0  0  0  0  0  0
   -0.9518   64.3696   71.2366 H   0  0  0  0  0  0  0  0  0  0  0  0
   -0.2091   61.9751   73.1733 H   0  0  0  0  0  0  0  0  0  0  0  0
   -1.3121   62.0943   71.7606 H   0  0  0  0  0  0  0  0  0  0  0  0
    0.0203   60.8896   71.7606 H   0  0  0  0  0  0  0  0  0  0  0  0
    0.1019   67.0262   70.9929 H   0  0  0  0  0  0  0  0  0  0  0  0
    1.0822   67.0211   69.4877 H   0  0  0  0  0  0  0  0  0  0  0  0
   -0.5674   66.3101   69.4877 H   0  0  0  0  0  0  0  0  0  0  0  0
    3.4183   57.6426   74.2145 H   0  0  0  0  0  0  0  0  0  0  0  0
    2.1878   57.8071   72.9162 H   0  0  0  0  0  0  0  0  0  0  0  0
    3.6401   58.8641   72.9162 H   0  0  0  0  0  0  0  0  0  0  0  0
    1.1887   57.8388   75.5664 H   0  0  0  0  0  0  0  0  0  0  0  0
    0.2331   61.9102   76.6350 H   0  0  0  0  0  0  0  0  0  0  0  0
    1.7895   63.6589   75.7588 H   0  0  0  0  0  0  0  0  0  0  0  0
    2.6649   63.3743   74.2163 H   0  0  0  0  0  0  0  0  0  0  0  0
    0.8764   63.5418   74.2163 H   0  0  0  0  0  0  0  0  0  0  0  0
    0.1661   59.5787   78.2724 H   0  0  0  0  0  0  0  0  0  0  0  0
   -1.2753   59.7963   77.2228 H   0  0  0  0  0  0  0  0  0  0  0  0
   -0.3921   58.2321   77.2228 H   0  0  0  0  0  0  0  0  0  0  0  0
  2  1  2  0
  3  2  1  0
  4  3  2  0
  5  4  1  0
  6  4  1  0
  7  6  2  0
  8  7  1  0
  9  8  2  0
  9  3  1  0
 10  9  1  0
 11  7  1  0
 12  2  1  0
 13 12  2  0
 14 12  1  0
 15 14  2  0
 16 15  1  0
 17 15  1  0
 18 17  2  0
 19 18  1  0
 20 19  2  0
 20 14  1  0
 21 20  1  0
 22 18  1  0
  5 23  1  0
  5 24  1  0
  5 25  1  0
  6 26  1  0
  8 27  1  0
 10 28  1  0
 10 29  1  0
 10 30  1  0
 11 31  1  0
 11 32  1  0
 11 33  1  0
 16 34  1  0
 16 35  1  0
 16 36  1  0
 17 37  1  0
 19 38  1  0
 21 39  1  0
 21 40  1  0
 21 41  1  0
 22 42  1  0
 22 43  1  0
 22 44  1  0
M  END
>  <score>  (4) 
-9.916

$$$$
=
     RDKit          3D

 44 45  0  0  0  0  0  0  0  0999 V2000
    4.1460   61.5610   73.5020 O   0  0  0  0  0  0  0  0  0  0  0  0
    2.9650   61.3210   73.2910 C   0  0  0  0  0  0  0  0  0  0  0  0
    2.0640   60.9410   74.4010 C   0  0  0  0  0  0  0  0  0  0  0  0
    1.8940   59.5760   74.7070 C   0  0  0  0  0  0  0  0  0  0  0  0
    2.5900   58.4930   73.9300 C   0  0  0  0  0  0  0  0  0  0  0  0
    1.0330   59.2210   75.7570 C   0  0  0  0  0  0  0  0  0  0  0  0
    0.3670   60.1990   76.5040 C   0  0  0  0  0  0  0  0  0  0  0  0
    0.5510   61.5500   76.1860 C   0  0  0  0  0  0  0  0  0  0  0  0
    1.4130   61.9400   75.1510 C   0  0  0  0  0  0  0  0  0  0  0  0
    1.5870   63.4040   74.8620 C   0  0  0  0  0  0  0  0  0  0  0  0
   -0.5830   59.8010   77.5970 C   0  0  0  0  0  0  0  0  0  0  0  0
    2.3920   61.3930   71.8800 C   0  0  0  0  0  0  0  0  0  0  0  0
    2.3220   60.3930   71.1790 O   0  0  0  0  0  0  0  0  0  0  0  0
    1.9080   62.6980   71.3800 C   0  0  0  0  0  0  0  0  0  0  0  0
    2.8010   63.5830   70.7450 C   0  0  0  0  0  0  0  0  0  0  0  0
    4.2550   63.2570   70.5530 C   0  0  0  0  0  0  0  0  0  0  0  0
    2.3170   64.8210   70.2960 C   0  0  0  0  0  0  0  0  0  0  0  0
    0.9710   65.1720   70.4500 C   0  0  0  0  0  0  0  0  0  0  0  0
    0.0890   64.2600   71.0420 C   0  0  0  0  0  0  0  0  0  0  0  0
    0.5420   63.0190   71.5150 C   0  0  0  0  0  0  0  0  0  0  0  0
   -0.4370   62.0770   72.1590 C   0  0  0  0  0  0  0  0  0  0  0  0
    0.4650   66.4840   69.9270 C   0  0  0  0  0  0  0  0  0  0  0  0
    3.0494   57.7781   74.6284 H   0  0  0  0  0  0  0  0  0  0  0  0
    1.8593   57.9688   73.2966 H   0  0  0  0  0  0  0  0  0  0  0  0
    3.3704   58.9399   73.2966 H   0  0  0  0  0  0  0  0  0  0  0  0
    0.8795   58.1584   75.9962 H   0  0  0  0  0  0  0  0  0  0  0  0
    0.0102   62.3185   76.7577 H   0  0  0  0  0  0  0  0  0  0  0  0
    1.6530   63.9594   75.8092 H   0  0  0  0  0  0  0  0  0  0  0  0
    2.5096   63.5563   74.2826 H   0  0  0  0  0  0  0  0  0  0  0  0
    0.7258   63.7683   74.2826 H   0  0  0  0  0  0  0  0  0  0  0  0
   -0.1188   59.9955   78.5751 H   0  0  0  0  0  0  0  0  0  0  0  0
   -1.5101   60.3864   77.5082 H   0  0  0  0  0  0  0  0  0  0  0  0
   -0.8160   58.7296   77.5082 H   0  0  0  0  0  0  0  0  0  0  0  0
    4.7392   63.1484   71.5347 H   0  0  0  0  0  0  0  0  0  0  0  0
    4.3487   62.3155   69.9918 H   0  0  0  0  0  0  0  0  0  0  0  0
    4.7417   64.0683   69.9918 H   0  0  0  0  0  0  0  0  0  0  0  0
    3.0079   65.5285   69.8143 H   0  0  0  0  0  0  0  0  0  0  0  0
   -0.9755   64.5203   71.1378 H   0  0  0  0  0  0  0  0  0  0  0  0
   -0.3556   62.1553   73.2532 H   0  0  0  0  0  0  0  0  0  0  0  0
   -1.4585   62.3405   71.8475 H   0  0  0  0  0  0  0  0  0  0  0  0
   -0.2131   61.0461   71.8475 H   0  0  0  0  0  0  0  0  0  0  0  0
    0.2112   67.1420   70.7712 H   0  0  0  0  0  0  0  0  0  0  0  0
    1.2444   66.9592   69.3132 H   0  0  0  0  0  0  0  0  0  0  0  0
   -0.4316   66.3128   69.3132 H   0  0  0  0  0  0  0  0  0  0  0  0
  2  1  2  0
  3  2  1  0
  4  3  2  0
  5  4  1  0
  6  4  1  0
  7  6  2  0
  8  7  1  0
  9  8  2  0
  9  3  1  0
 10  9  1  0
 11  7  1  0
 12  2  1  0
 13 12  2  0
 14 12  1  0
 15 14  2  0
 16 15  1  0
 17 15  1  0
 18 17  2  0
 19 18  1  0
 20 19  2  0
 20 14  1  0
 21 20  1  0
 22 18  1  0
  5 23  1  0
  5 24  1  0
  5 25  1  0
  6 26  1  0
  8 27  1  0
 10 28  1  0
 10 29  1  0
 10 30  1  0
 11 31  1  0
 11 32  1  0
 11 33  1  0
 16 34  1  0
 16 35  1  0
 16 36  1  0
 17 37  1  0
 19 38  1  0
 21 39  1  0
 21 40  1  0
 21 41  1  0
 22 42  1  0
 22 43  1  0
 22 44  1  0
M  END
>  <score>  (5) 
-9.909

$$$$
=
     RDKit          3D

 44 45  0  0  0  0  0  0  0  0999 V2000
    4.3550   61.5610   73.3030 O   0  0  0  0  0  0  0  0  0  0  0  0
    3.1840   61.2670   73.1090 C   0  0  0  0  0  0  0  0  0  0  0  0
    2.3320   60.7930   74.2230 C   0  0  0  0  0  0  0  0  0  0  0  0
    1.6400   61.7390   75.0050 C   0  0  0  0  0  0  0  0  0  0  0  0
    1.7520   63.2170   74.7510 C   0  0  0  0  0  0  0  0  0  0  0  0
    0.8390   61.2840   76.0630 C   0  0  0  0  0  0  0  0  0  0  0  0
    0.7070   59.9170   76.3320 C   0  0  0  0  0  0  0  0  0  0  0  0
    1.4010   58.9930   75.5410 C   0  0  0  0  0  0  0  0  0  0  0  0
    2.2010   59.4120   74.4680 C   0  0  0  0  0  0  0  0  0  0  0  0
    2.9110   58.3770   73.6430 C   0  0  0  0  0  0  0  0  0  0  0  0
   -0.1210   59.4500   77.4930 C   0  0  0  0  0  0  0  0  0  0  0  0
    2.5730   61.3650   71.7160 C   0  0  0  0  0  0  0  0  0  0  0  0
    2.5480   60.3950   70.9710 O   0  0  0  0  0  0  0  0  0  0  0  0
    1.9950   62.6580   71.2880 C   0  0  0  0  0  0  0  0  0  0  0  0
    0.6280   62.9200   71.4980 C   0  0  0  0  0  0  0  0  0  0  0  0
   -0.2920   61.9240   72.1470 C   0  0  0  0  0  0  0  0  0  0  0  0
    0.1030   64.1490   71.0670 C   0  0  0  0  0  0  0  0  0  0  0  0
    0.9180   65.1100   70.4580 C   0  0  0  0  0  0  0  0  0  0  0  0
    2.2840   64.8480   70.2990 C   0  0  0  0  0  0  0  0  0  0  0  0
    2.8390   63.6260   70.7060 C   0  0  0  0  0  0  0  0  0  0  0  0
    4.3080   63.3820   70.5020 C   0  0  0  0  0  0  0  0  0  0  0  0
    0.3460   66.4320   70.0400 C   0  0  0  0  0  0  0  0  0  0  0  0
    1.7925   63.7520   75.7113 H   0  0  0  0  0  0  0  0  0  0  0  0
    2.6683   63.4222   74.1780 H   0  0  0  0  0  0  0  0  0  0  0  0
    0.8771   63.5579   74.1780 H   0  0  0  0  0  0  0  0  0  0  0  0
    0.3063   62.0132   76.6911 H   0  0  0  0  0  0  0  0  0  0  0  0
    1.3172   57.9194   75.7653 H   0  0  0  0  0  0  0  0  0  0  0  0
    3.4066   57.6546   74.3082 H   0  0  0  0  0  0  0  0  0  0  0  0
    2.1826   57.8511   73.0083 H   0  0  0  0  0  0  0  0  0  0  0  0
    3.6638   58.8673   73.0083 H   0  0  0  0  0  0  0  0  0  0  0  0
    0.3756   59.7301   78.4337 H   0  0  0  0  0  0  0  0  0  0  0  0
   -1.1140   59.9211   77.4482 H   0  0  0  0  0  0  0  0  0  0  0  0
   -0.2316   58.3565   77.4482 H   0  0  0  0  0  0  0  0  0  0  0  0
   -0.2126   62.0100   73.2408 H   0  0  0  0  0  0  0  0  0  0  0  0
   -1.3281   62.1260   71.8376 H   0  0  0  0  0  0  0  0  0  0  0  0
   -0.0086   60.9072   71.8376 H   0  0  0  0  0  0  0  0  0  0  0  0
   -0.9670   64.3600   71.2105 H   0  0  0  0  0  0  0  0  0  0  0  0
    2.9326   65.6131   69.8475 H   0  0  0  0  0  0  0  0  0  0  0  0
    4.8052   63.2994   71.4797 H   0  0  0  0  0  0  0  0  0  0  0  0
    4.4498   62.4480   69.9385 H   0  0  0  0  0  0  0  0  0  0  0  0
    4.7441   64.2200   69.9385 H   0  0  0  0  0  0  0  0  0  0  0  0
    0.0914   67.0204   70.9338 H   0  0  0  0  0  0  0  0  0  0  0  0
    1.0878   66.9792   69.4398 H   0  0  0  0  0  0  0  0  0  0  0  0
   -0.5607   66.2659   69.4398 H   0  0  0  0  0  0  0  0  0  0  0  0
  2  1  2  0
  3  2  1  0
  4  3  2  0
  5  4  1  0
  6  4  1  0
  7  6  2  0
  8  7  1  0
  9  8  2  0
  9  3  1  0
 10  9  1  0
 11  7  1  0
 12  2  1  0
 13 12  2  0
 14 12  1  0
 15 14  2  0
 16 15  1  0
 17 15  1  0
 18 17  2  0
 19 18  1  0
 20 19  2  0
 20 14  1  0
 21 20  1  0
 22 18  1  0
  5 23  1  0
  5 24  1  0
  5 25  1  0
  6 26  1  0
  8 27  1  0
 10 28  1  0
 10 29  1  0
 10 30  1  0
 11 31  1  0
 11 32  1  0
 11 33  1  0
 16 34  1  0
 16 35  1  0
 16 36  1  0
 17 37  1  0
 19 38  1  0
 21 39  1  0
 21 40  1  0
 21 41  1  0
 22 42  1  0
 22 43  1  0
 22 44  1  0
M  END
>  <score>  (6) 
-9.908

$$$$
=
     RDKit          3D

 44 45  0  0  0  0  0  0  0  0999 V2000
    4.5690   59.1970   74.2420 O   0  0  0  0  0  0  0  0  0  0  0  0
    3.4310   59.5370   73.9480 C   0  0  0  0  0  0  0  0  0  0  0  0
    2.3380   58.5410   73.8940 C   0  0  0  0  0  0  0  0  0  0  0  0
    1.5210   58.3600   75.0290 C   0  0  0  0  0  0  0  0  0  0  0  0
    1.7360   59.1390   76.2960 C   0  0  0  0  0  0  0  0  0  0  0  0
    0.4900   57.4100   74.9730 C   0  0  0  0  0  0  0  0  0  0  0  0
    0.2570   56.6650   73.8120 C   0  0  0  0  0  0  0  0  0  0  0  0
    1.0780   56.8620   72.6950 C   0  0  0  0  0  0  0  0  0  0  0  0
    2.1100   57.8110   72.7110 C   0  0  0  0  0  0  0  0  0  0  0  0
    2.9510   57.9920   71.4790 C   0  0  0  0  0  0  0  0  0  0  0  0
   -0.8240   55.6240   73.7840 C   0  0  0  0  0  0  0  0  0  0  0  0
    3.1100   60.9890   73.6140 C   0  0  0  0  0  0  0  0  0  0  0  0
    2.7900   61.7790   74.4920 O   0  0  0  0  0  0  0  0  0  0  0  0
    3.2070   61.4290   72.2060 C   0  0  0  0  0  0  0  0  0  0  0  0
    4.4710   61.5930   71.6070 C   0  0  0  0  0  0  0  0  0  0  0  0
    5.7520   61.3430   72.3510 C   0  0  0  0  0  0  0  0  0  0  0  0
    4.5330   62.0280   70.2740 C   0  0  0  0  0  0  0  0  0  0  0  0
    3.3690   62.2740   69.5370 C   0  0  0  0  0  0  0  0  0  0  0  0
    2.1220   62.0600   70.1360 C   0  0  0  0  0  0  0  0  0  0  0  0
    2.0230   61.6400   71.4710 C   0  0  0  0  0  0  0  0  0  0  0  0
    0.6620   61.4390   72.0780 C   0  0  0  0  0  0  0  0  0  0  0  0
    3.4570   62.7000   68.1010 C   0  0  0  0  0  0  0  0  0  0  0  0
    1.5558   58.4862   77.1628 H   0  0  0  0  0  0  0  0  0  0  0  0
    2.7705   59.5116   76.3263 H   0  0  0  0  0  0  0  0  0  0  0  0
    1.0390   59.9895   76.3263 H   0  0  0  0  0  0  0  0  0  0  0  0
   -0.1454   57.2484   75.8563 H   0  0  0  0  0  0  0  0  0  0  0  0
    0.9103   56.2615   71.7887 H   0  0  0  0  0  0  0  0  0  0  0  0
    3.9875   58.2151   71.7721 H   0  0  0  0  0  0  0  0  0  0  0  0
    2.9296   57.0687   70.8815 H   0  0  0  0  0  0  0  0  0  0  0  0
    2.5516   58.8248   70.8815 H   0  0  0  0  0  0  0  0  0  0  0  0
   -1.1020   55.3563   74.8141 H   0  0  0  0  0  0  0  0  0  0  0  0
   -1.7041   56.0234   73.2587 H   0  0  0  0  0  0  0  0  0  0  0  0
   -0.4581   54.7295   73.2587 H   0  0  0  0  0  0  0  0  0  0  0  0
    5.5606   61.3804   73.4336 H   0  0  0  0  0  0  0  0  0  0  0  0
    6.1447   60.3513   72.0821 H   0  0  0  0  0  0  0  0  0  0  0  0
    6.4887   62.1143   72.0821 H   0  0  0  0  0  0  0  0  0  0  0  0
    5.5142   62.1783   69.8000 H   0  0  0  0  0  0  0  0  0  0  0  0
    1.2052   62.2237   69.5507 H   0  0  0  0  0  0  0  0  0  0  0  0
    0.7443   61.4512   73.1749 H   0  0  0  0  0  0  0  0  0  0  0  0
   -0.0082   62.2479   71.7516 H   0  0  0  0  0  0  0  0  0  0  0  0
    0.2543   60.4709   71.7516 H   0  0  0  0  0  0  0  0  0  0  0  0
    3.6793   63.7761   68.0507 H   0  0  0  0  0  0  0  0  0  0  0  0
    4.2577   62.1364   67.5997 H   0  0  0  0  0  0  0  0  0  0  0  0
    2.4985   62.4998   67.5997 H   0  0  0  0  0  0  0  0  0  0  0  0
  2  1  2  0
  3  2  1  0
  4  3  2  0
  5  4  1  0
  6  4  1  0
  7  6  2  0
  8  7  1  0
  9  8  2  0
  9  3  1  0
 10  9  1  0
 11  7  1  0
 12  2  1  0
 13 12  2  0
 14 12  1  0
 15 14  2  0
 16 15  1  0
 17 15  1  0
 18 17  2  0
 19 18  1  0
 20 19  2  0
 20 14  1  0
 21 20  1  0
 22 18  1  0
  5 23  1  0
  5 24  1  0
  5 25  1  0
  6 26  1  0
  8 27  1  0
 10 28  1  0
 10 29  1  0
 10 30  1  0
 11 31  1  0
 11 32  1  0
 11 33  1  0
 16 34  1  0
 16 35  1  0
 16 36  1  0
 17 37  1  0
 19 38  1  0
 21 39  1  0
 21 40  1  0
 21 41  1  0
 22 42  1  0
 22 43  1  0
 22 44  1  0
M  END
>  <score>  (7) 
-9.623

$$$$
=
     RDKit          3D

 44 45  0  0  0  0  0  0  0  0999 V2000
    2.7260   61.6850   74.5700 O   0  0  0  0  0  0  0  0  0  0  0  0
    3.0500   60.8980   73.6920 C   0  0  0  0  0  0  0  0  0  0  0  0
    3.1430   61.3380   72.2820 C   0  0  0  0  0  0  0  0  0  0  0  0
    4.4150   61.4910   71.6950 C   0  0  0  0  0  0  0  0  0  0  0  0
    5.6810   61.2320   72.4620 C   0  0  0  0  0  0  0  0  0  0  0  0
    4.4960   61.9140   70.3600 C   0  0  0  0  0  0  0  0  0  0  0  0
    3.3410   62.1650   69.6110 C   0  0  0  0  0  0  0  0  0  0  0  0
    2.0860   62.0060   70.2120 C   0  0  0  0  0  0  0  0  0  0  0  0
    1.9670   61.5720   71.5400 C   0  0  0  0  0  0  0  0  0  0  0  0
    0.5970   61.4020   72.1310 C   0  0  0  0  0  0  0  0  0  0  0  0
    3.4460   62.6580   68.1980 C   0  0  0  0  0  0  0  0  0  0  0  0
    3.3530   59.4400   74.0200 C   0  0  0  0  0  0  0  0  0  0  0  0
    4.4950   59.0760   74.2670 O   0  0  0  0  0  0  0  0  0  0  0  0
    2.2330   58.4750   74.0490 C   0  0  0  0  0  0  0  0  0  0  0  0
    1.9260   57.7200   72.9000 C   0  0  0  0  0  0  0  0  0  0  0  0
    2.6980   57.8570   71.6180 C   0  0  0  0  0  0  0  0  0  0  0  0
    0.8470   56.8240   72.9510 C   0  0  0  0  0  0  0  0  0  0  0  0
    0.0980   56.6590   74.1210 C   0  0  0  0  0  0  0  0  0  0  0  0
    0.4470   57.3850   75.2660 C   0  0  0  0  0  0  0  0  0  0  0  0
    1.5110   58.2990   75.2470 C   0  0  0  0  0  0  0  0  0  0  0  0
    1.8400   59.0690   76.4950 C   0  0  0  0  0  0  0  0  0  0  0  0
   -1.0270   55.6670   74.1660 C   0  0  0  0  0  0  0  0  0  0  0  0
    5.4713   61.2749   73.5410 H   0  0  0  0  0  0  0  0  0  0  0  0
    6.0692   60.2358   72.2032 H   0  0  0  0  0  0  0  0  0  0  0  0
    6.4292   61.9957   72.2032 H   0  0  0  0  0  0  0  0  0  0  0  0
    5.4832   62.0506   69.8945 H   0  0  0  0  0  0  0  0  0  0  0  0
    1.1775   62.2255   69.6319 H   0  0  0  0  0  0  0  0  0  0  0  0
    0.6675   61.4108   73.2287 H   0  0  0  0  0  0  0  0  0  0  0  0
   -0.0506   62.2267   71.7986 H   0  0  0  0  0  0  0  0  0  0  0  0
    0.1706   60.4441   71.7986 H   0  0  0  0  0  0  0  0  0  0  0  0
    3.6751   63.7339   68.2011 H   0  0  0  0  0  0  0  0  0  0  0  0
    4.2484   62.1137   67.6784 H   0  0  0  0  0  0  0  0  0  0  0  0
    2.4915   62.4879   67.6784 H   0  0  0  0  0  0  0  0  0  0  0  0
    3.7575   58.0450   71.8463 H   0  0  0  0  0  0  0  0  0  0  0  0
    2.6077   56.9288   71.0346 H   0  0  0  0  0  0  0  0  0  0  0  0
    2.2939   58.6975   71.0346 H   0  0  0  0  0  0  0  0  0  0  0  0
    0.5857   56.2413   72.0554 H   0  0  0  0  0  0  0  0  0  0  0  0
   -0.1222   57.2364   76.1955 H   0  0  0  0  0  0  0  0  0  0  0  0
    1.5819   58.4649   77.3773 H   0  0  0  0  0  0  0  0  0  0  0  0
    2.9154   59.2999   76.5106 H   0  0  0  0  0  0  0  0  0  0  0  0
    1.2635   60.0057   76.5106 H   0  0  0  0  0  0  0  0  0  0  0  0
   -1.2786   55.4452   75.2136 H   0  0  0  0  0  0  0  0  0  0  0  0
   -1.9076   56.0880   73.6587 H   0  0  0  0  0  0  0  0  0  0  0  0
   -0.7195   54.7407   73.6587 H   0  0  0  0  0  0  0  0  0  0  0  0
  2  1  2  0
  3  2  1  0
  4  3  2  0
  5  4  1  0
  6  4  1  0
  7  6  2  0
  8  7  1  0
  9  8  2  0
  9  3  1  0
 10  9  1  0
 11  7  1  0
 12  2  1  0
 13 12  2  0
 14 12  1  0
 15 14  2  0
 16 15  1  0
 17 15  1  0
 18 17  2  0
 19 18  1  0
 20 19  2  0
 20 14  1  0
 21 20  1  0
 22 18  1  0
  5 23  1  0
  5 24  1  0
  5 25  1  0
  6 26  1  0
  8 27  1  0
 10 28  1  0
 10 29  1  0
 10 30  1  0
 11 31  1  0
 11 32  1  0
 11 33  1  0
 16 34  1  0
 16 35  1  0
 16 36  1  0
 17 37  1  0
 19 38  1  0
 21 39  1  0
 21 40  1  0
 21 41  1  0
 22 42  1  0
 22 43  1  0
 22 44  1  0
M  END
>  <score>  (8) 
-9.597

$$$$
=
     RDKit          3D

 44 45  0  0  0  0  0  0  0  0999 V2000
   -1.1280   63.5070   75.3410 O   0  0  0  0  0  0  0  0  0  0  0  0
   -0.2180   62.7720   74.9830 C   0  0  0  0  0  0  0  0  0  0  0  0
   -0.3650   61.3020   75.0510 C   0  0  0  0  0  0  0  0  0  0  0  0
   -1.0140   60.6290   73.9970 C   0  0  0  0  0  0  0  0  0  0  0  0
   -1.5730   61.3630   72.8100 C   0  0  0  0  0  0  0  0  0  0  0  0
   -1.1560   59.2350   74.0700 C   0  0  0  0  0  0  0  0  0  0  0  0
   -0.6490   58.5150   75.1580 C   0  0  0  0  0  0  0  0  0  0  0  0
   -0.0060   59.2020   76.1950 C   0  0  0  0  0  0  0  0  0  0  0  0
    0.1650   60.5930   76.1480 C   0  0  0  0  0  0  0  0  0  0  0  0
    0.8770   61.2780   77.2800 C   0  0  0  0  0  0  0  0  0  0  0  0
   -0.8470   57.0300   75.2410 C   0  0  0  0  0  0  0  0  0  0  0  0
    1.0980   63.3490   74.4710 C   0  0  0  0  0  0  0  0  0  0  0  0
    1.7900   64.0620   75.1830 O   0  0  0  0  0  0  0  0  0  0  0  0
    1.5270   63.0150   73.0960 C   0  0  0  0  0  0  0  0  0  0  0  0
    1.0360   63.7600   72.0060 C   0  0  0  0  0  0  0  0  0  0  0  0
    0.0710   64.8990   72.1800 C   0  0  0  0  0  0  0  0  0  0  0  0
    1.4480   63.4100   70.7110 C   0  0  0  0  0  0  0  0  0  0  0  0
    2.3450   62.3580   70.4960 C   0  0  0  0  0  0  0  0  0  0  0  0
    2.8570   61.6590   71.5950 C   0  0  0  0  0  0  0  0  0  0  0  0
    2.4570   61.9730   72.9020 C   0  0  0  0  0  0  0  0  0  0  0  0
    3.0210   61.1860   74.0520 C   0  0  0  0  0  0  0  0  0  0  0  0
    2.8030   62.0250   69.1060 C   0  0  0  0  0  0  0  0  0  0  0  0
   -2.2054   62.1934   73.1570 H   0  0  0  0  0  0  0  0  0  0  0  0
   -0.7468   61.7605   72.2023 H   0  0  0  0  0  0  0  0  0  0  0  0
   -2.1758   60.6721   72.2023 H   0  0  0  0  0  0  0  0  0  0  0  0
   -1.6735   58.7000   73.2601 H   0  0  0  0  0  0  0  0  0  0  0  0
    0.3718   58.6404   77.0621 H   0  0  0  0  0  0  0  0  0  0  0  0
    0.4877   60.9034   78.2382 H   0  0  0  0  0  0  0  0  0  0  0  0
    1.9550   61.0688   77.2153 H   0  0  0  0  0  0  0  0  0  0  0  0
    0.7096   62.3633   77.2153 H   0  0  0  0  0  0  0  0  0  0  0  0
   -0.8878   56.7240   76.2968 H   0  0  0  0  0  0  0  0  0  0  0  0
   -1.7894   56.7574   74.7435 H   0  0  0  0  0  0  0  0  0  0  0  0
   -0.0089   56.5200   74.7435 H   0  0  0  0  0  0  0  0  0  0  0  0
   -0.0868   65.0853   73.2526 H   0  0  0  0  0  0  0  0  0  0  0  0
    0.4820   65.8033   71.7074 H   0  0  0  0  0  0  0  0  0  0  0  0
   -0.8885   64.6421   71.7074 H   0  0  0  0  0  0  0  0  0  0  0  0
    1.0588   63.9727   69.8497 H   0  0  0  0  0  0  0  0  0  0  0  0
    3.5847   60.8505   71.4311 H   0  0  0  0  0  0  0  0  0  0  0  0
    2.6964   61.6389   75.0004 H   0  0  0  0  0  0  0  0  0  0  0  0
    2.6596   60.1484   73.9985 H   0  0  0  0  0  0  0  0  0  0  0  0
    4.1197   61.1948   73.9985 H   0  0  0  0  0  0  0  0  0  0  0  0
    3.6917   61.3788   69.1577 H   0  0  0  0  0  0  0  0  0  0  0  0
    1.9983   61.4996   68.5708 H   0  0  0  0  0  0  0  0  0  0  0  0
    3.0546   62.9525   68.5708 H   0  0  0  0  0  0  0  0  0  0  0  0
  2  1  2  0
  3  2  1  0
  4  3  2  0
  5  4  1  0
  6  4  1  0
  7  6  2  0
  8  7  1  0
  9  8  2  0
  9  3  1  0
 10  9  1  0
 11  7  1  0
 12  2  1  0
 13 12  2  0
 14 12  1  0
 15 14  2  0
 16 15  1  0
 17 15  1  0
 18 17  2  0
 19 18  1  0
 20 19  2  0
 20 14  1  0
 21 20  1  0
 22 18  1  0
  5 23  1  0
  5 24  1  0
  5 25  1  0
  6 26  1  0
  8 27  1  0
 10 28  1  0
 10 29  1  0
 10 30  1  0
 11 31  1  0
 11 32  1  0
 11 33  1  0
 16 34  1  0
 16 35  1  0
 16 36  1  0
 17 37  1  0
 19 38  1  0
 21 39  1  0
 21 40  1  0
 21 41  1  0
 22 42  1  0
 22 43  1  0
 22 44  1  0
M  END
>  <score>  (9) 
-9.474

$$$$
