=
     RDKit          3D

 57 61  0  0  0  0  0  0  0  0999 V2000
    0.5000   68.1390   65.4220 C   0  0  0  0  0  0  0  0  0  0  0  0
    7.1560   71.3340   68.9570 O   0  0  0  0  0  0  0  0  0  0  0  0
    6.4100   70.8600   68.1150 C   0  0  0  0  0  0  0  0  0  0  0  0
    6.7720   70.5950   66.6510 C   0  0  0  0  0  0  0  0  0  0  0  0
    5.5000   70.0180   66.1000 C   0  0  0  0  0  0  0  0  0  0  0  0
    4.5350   69.9600   67.1090 C   0  0  0  0  0  0  0  0  0  0  0  0
    5.0820   70.4590   68.2940 N   0  0  0  0  0  0  0  0  0  0  0  0
    4.3720   70.5620   69.5420 C   0  0  0  0  0  0  0  0  0  0  0  0
    3.2520   69.4700   66.8940 C   0  0  0  0  0  0  0  0  0  0  0  0
    2.9670   69.0270   65.5870 C   0  0  0  0  0  0  0  0  0  0  0  0
    3.9510   69.1010   64.6070 C   0  0  0  0  0  0  0  0  0  0  0  0
    5.2440   69.5880   64.8040 C   0  0  0  0  0  0  0  0  0  0  0  0
    3.4550   68.6220   63.4360 O   0  0  0  0  0  0  0  0  0  0  0  0
    2.1420   68.2240   63.6140 N   0  0  0  0  0  0  0  0  0  0  0  0
    1.8570   68.4680   64.9000 C   0  0  0  0  0  0  0  0  0  0  0  0
    0.1320   68.9920   66.6440 C   0  0  0  0  0  0  0  0  0  0  0  0
    0.0990   68.2010   67.9650 C   0  0  0  0  0  0  0  0  0  0  0  0
    1.5030   67.9110   68.5170 C   0  0  0  0  0  0  0  0  0  0  0  0
    1.4510   67.0520   69.7780 C   0  0  0  0  0  0  0  0  0  0  0  0
    0.7060   65.7760   69.4830 N   0  0  0  0  0  4  0  0  0  0  0  0
   -0.7080   66.0470   69.0380 C   0  0  0  0  0  0  0  0  0  0  0  0
   -0.6750   66.8860   67.7670 C   0  0  0  0  0  0  0  0  0  0  0  0
    0.8010   64.7490   70.5970 C   0  0  0  0  0  0  0  0  0  0  0  0
    1.9310   63.7630   70.4890 C   0  0  0  0  0  0  0  0  0  0  0  0
    3.2650   64.1880   70.5950 C   0  0  0  0  0  0  0  0  0  0  0  0
    4.3130   63.2740   70.4740 C   0  0  0  0  0  0  0  0  0  0  0  0
    4.0420   61.9270   70.2510 C   0  0  0  0  0  0  0  0  0  0  0  0
    2.7230   61.4880   70.1550 C   0  0  0  0  0  0  0  0  0  0  0  0
    1.6730   62.3990   70.2750 C   0  0  0  0  0  0  0  0  0  0  0  0
   -0.2394   68.3188   64.6276 H   0  0  0  0  0  0  0  0  0  0  0  0
    0.5018   67.0836   65.7322 H   0  0  0  0  0  0  0  0  0  0  0  0
    7.0423   71.5273   66.1335 H   0  0  0  0  0  0  0  0  0  0  0  0
    7.6425   69.9339   66.5277 H   0  0  0  0  0  0  0  0  0  0  0  0
    5.0810   70.4592   70.3767 H   0  0  0  0  0  0  0  0  0  0  0  0
    3.8752   71.5416   69.6015 H   0  0  0  0  0  0  0  0  0  0  0  0
    3.6173   69.7639   69.6015 H   0  0  0  0  0  0  0  0  0  0  0  0
    2.5023   69.4303   67.6980 H   0  0  0  0  0  0  0  0  0  0  0  0
    5.9958   69.6279   64.0020 H   0  0  0  0  0  0  0  0  0  0  0  0
    0.8740   69.7983   66.7407 H   0  0  0  0  0  0  0  0  0  0  0  0
   -0.8850   69.3751   66.4737 H   0  0  0  0  0  0  0  0  0  0  0  0
   -0.4135   68.8291   68.7085 H   0  0  0  0  0  0  0  0  0  0  0  0
    2.0849   67.3806   67.7488 H   0  0  0  0  0  0  0  0  0  0  0  0
    1.9729   68.8710   68.7768 H   0  0  0  0  0  0  0  0  0  0  0  0
    2.4747   66.8130   70.1019 H   0  0  0  0  0  0  0  0  0  0  0  0
    0.9342   67.6032   70.5774 H   0  0  0  0  0  0  0  0  0  0  0  0
    1.1857   65.3354   68.6851 H   0  0  0  0  0  0  0  0  0  0  0  0
   -1.2208   65.0946   68.8381 H   0  0  0  0  0  0  0  0  0  0  0  0
   -1.2490   66.5891   69.8276 H   0  0  0  0  0  0  0  0  0  0  0  0
   -0.1890   66.3043   66.9699 H   0  0  0  0  0  0  0  0  0  0  0  0
   -1.7116   67.1386   67.4993 H   0  0  0  0  0  0  0  0  0  0  0  0
    0.9176   65.2920   71.5465 H   0  0  0  0  0  0  0  0  0  0  0  0
   -0.1208   64.1525   70.5303 H   0  0  0  0  0  0  0  0  0  0  0  0
    3.4861   65.2504   70.7750 H   0  0  0  0  0  0  0  0  0  0  0  0
    5.3545   63.6186   70.5550 H   0  0  0  0  0  0  0  0  0  0  0  0
    4.8692   61.2089   70.1505 H   0  0  0  0  0  0  0  0  0  0  0  0
    2.5094   60.4225   69.9845 H   0  0  0  0  0  0  0  0  0  0  0  0
    0.6338   62.0458   70.2014 H   0  0  0  0  0  0  0  0  0  0  0  0
  3  2  2  0
  4  3  1  0
  5  4  1  0
  6  5  2  0
  7  6  1  0
  7  3  1  0
  8  7  1  0
  9  6  1  0
 10  9  2  0
 11 10  1  0
 12 11  2  0
 12  5  1  0
 13 11  1  0
 14 13  1  0
 15 14  2  0
 15 10  1  0
 15  1  1  0
 16  1  1  0
 17 16  1  0
 18 17  1  0
 19 18  1  0
 20 19  1  0
 21 20  1  0
 22 21  1  0
 22 17  1  0
 23 20  1  0
 24 23  1  0
 25 24  2  0
 26 25  1  0
 27 26  2  0
 28 27  1  0
 29 28  2  0
 29 24  1  0
  1 30  1  0
  1 31  1  0
  4 32  1  0
  4 33  1  0
  8 34  1  0
  8 35  1  0
  8 36  1  0
  9 37  1  0
 12 38  1  0
 16 39  1  0
 16 40  1  0
 17 41  1  0
 18 42  1  0
 18 43  1  0
 19 44  1  0
 19 45  1  0
 20 46  1  0
 21 47  1  0
 21 48  1  0
 22 49  1  0
 22 50  1  0
 23 51  1  0
 23 52  1  0
 25 53  1  0
 26 54  1  0
 27 55  1  0
 28 56  1  0
 29 57  1  0
M  CHG  1  20   1
M  END
>  <score>  (1) 
-11.917

$$$$
=
     RDKit          3D

 57 61  0  0  0  0  0  0  0  0999 V2000
   -0.2110   67.2140   68.4270 C   0  0  0  0  0  0  0  0  0  0  0  0
    6.6740   71.1930   66.4890 O   0  0  0  0  0  0  0  0  0  0  0  0
    5.6620   70.5170   66.3860 C   0  0  0  0  0  0  0  0  0  0  0  0
    5.1490   69.8700   65.0970 C   0  0  0  0  0  0  0  0  0  0  0  0
    3.8990   69.1750   65.5560 C   0  0  0  0  0  0  0  0  0  0  0  0
    3.7170   69.3930   66.9240 C   0  0  0  0  0  0  0  0  0  0  0  0
    4.7630   70.1860   67.4050 N   0  0  0  0  0  0  0  0  0  0  0  0
    4.8980   70.6200   68.7700 C   0  0  0  0  0  0  0  0  0  0  0  0
    2.6400   68.8710   67.6310 C   0  0  0  0  0  0  0  0  0  0  0  0
    1.7250   68.0990   66.8880 C   0  0  0  0  0  0  0  0  0  0  0  0
    1.9370   67.9040   65.5280 C   0  0  0  0  0  0  0  0  0  0  0  0
    3.0120   68.4190   64.8020 C   0  0  0  0  0  0  0  0  0  0  0  0
    0.9370   67.1350   65.0230 O   0  0  0  0  0  0  0  0  0  0  0  0
    0.0480   66.8060   66.0320 N   0  0  0  0  0  0  0  0  0  0  0  0
    0.5240   67.3840   67.1420 C   0  0  0  0  0  0  0  0  0  0  0  0
    0.7410   66.9980   69.6110 C   0  0  0  0  0  0  0  0  0  0  0  0
    0.6540   65.5880   70.2270 C   0  0  0  0  0  0  0  0  0  0  0  0
    0.0230   65.5920   71.6280 C   0  0  0  0  0  0  0  0  0  0  0  0
    0.0250   64.2000   72.2560 C   0  0  0  0  0  0  0  0  0  0  0  0
    1.4360   63.6720   72.2930 N   0  0  0  0  0  4  0  0  0  0  0  0
    2.0300   63.5680   70.9120 C   0  0  0  0  0  0  0  0  0  0  0  0
    2.0540   64.9540   70.2780 C   0  0  0  0  0  0  0  0  0  0  0  0
    1.5840   62.4010   73.1100 C   0  0  0  0  0  0  0  0  0  0  0  0
    2.6090   61.4180   72.6150 C   0  0  0  0  0  0  0  0  0  0  0  0
    2.2160   60.2570   71.9300 C   0  0  0  0  0  0  0  0  0  0  0  0
    3.1680   59.3360   71.4880 C   0  0  0  0  0  0  0  0  0  0  0  0
    4.5210   59.5660   71.7210 C   0  0  0  0  0  0  0  0  0  0  0  0
    4.9280   60.7190   72.3890 C   0  0  0  0  0  0  0  0  0  0  0  0
    3.9790   61.6410   72.8320 C   0  0  0  0  0  0  0  0  0  0  0  0
   -0.8115   68.1164   68.6145 H   0  0  0  0  0  0  0  0  0  0  0  0
   -0.8489   66.3223   68.3375 H   0  0  0  0  0  0  0  0  0  0  0  0
    4.9240   70.6293   64.3336 H   0  0  0  0  0  0  0  0  0  0  0  0
    5.8780   69.1944   64.6257 H   0  0  0  0  0  0  0  0  0  0  0  0
    4.6401   69.7910   69.4455 H   0  0  0  0  0  0  0  0  0  0  0  0
    5.9362   70.9336   68.9541 H   0  0  0  0  0  0  0  0  0  0  0  0
    4.2209   71.4672   68.9541 H   0  0  0  0  0  0  0  0  0  0  0  0
    2.5096   69.0503   68.7084 H   0  0  0  0  0  0  0  0  0  0  0  0
    3.1450   68.2411   63.7247 H   0  0  0  0  0  0  0  0  0  0  0  0
    1.7714   67.1616   69.2624 H   0  0  0  0  0  0  0  0  0  0  0  0
    0.4451   67.7102   70.3954 H   0  0  0  0  0  0  0  0  0  0  0  0
   -0.0050   64.9894   69.5810 H   0  0  0  0  0  0  0  0  0  0  0  0
    0.5948   66.2746   72.2739 H   0  0  0  0  0  0  0  0  0  0  0  0
   -1.0221   65.9213   71.5309 H   0  0  0  0  0  0  0  0  0  0  0  0
   -0.3724   64.2584   73.2800 H   0  0  0  0  0  0  0  0  0  0  0  0
   -0.6052   63.5252   71.6581 H   0  0  0  0  0  0  0  0  0  0  0  0
    1.9959   64.3720   72.8003 H   0  0  0  0  0  0  0  0  0  0  0  0
    3.0553   63.1754   70.9799 H   0  0  0  0  0  0  0  0  0  0  0  0
    1.4236   62.8875   70.2963 H   0  0  0  0  0  0  0  0  0  0  0  0
    2.7167   65.6034   70.8688 H   0  0  0  0  0  0  0  0  0  0  0  0
    2.4175   64.8491   69.2451 H   0  0  0  0  0  0  0  0  0  0  0  0
    1.8608   62.6893   74.1348 H   0  0  0  0  0  0  0  0  0  0  0  0
    0.6157   61.8845   73.0354 H   0  0  0  0  0  0  0  0  0  0  0  0
    1.1486   60.0713   71.7398 H   0  0  0  0  0  0  0  0  0  0  0  0
    2.8486   58.4281   70.9553 H   0  0  0  0  0  0  0  0  0  0  0  0
    5.2695   58.8368   71.3774 H   0  0  0  0  0  0  0  0  0  0  0  0
    5.9978   60.9025   72.5672 H   0  0  0  0  0  0  0  0  0  0  0  0
    4.3066   62.5510   73.3560 H   0  0  0  0  0  0  0  0  0  0  0  0
  3  2  2  0
  4  3  1  0
  5  4  1  0
  6  5  2  0
  7  6  1  0
  7  3  1  0
  8  7  1  0
  9  6  1  0
 10  9  2  0
 11 10  1  0
 12 11  2  0
 12  5  1  0
 13 11  1  0
 14 13  1  0
 15 14  2  0
 15 10  1  0
 15  1  1  0
 16  1  1  0
 17 16  1  0
 18 17  1  0
 19 18  1  0
 20 19  1  0
 21 20  1  0
 22 21  1  0
 22 17  1  0
 23 20  1  0
 24 23  1  0
 25 24  2  0
 26 25  1  0
 27 26  2  0
 28 27  1  0
 29 28  2  0
 29 24  1  0
  1 30  1  0
  1 31  1  0
  4 32  1  0
  4 33  1  0
  8 34  1  0
  8 35  1  0
  8 36  1  0
  9 37  1  0
 12 38  1  0
 16 39  1  0
 16 40  1  0
 17 41  1  0
 18 42  1  0
 18 43  1  0
 19 44  1  0
 19 45  1  0
 20 46  1  0
 21 47  1  0
 21 48  1  0
 22 49  1  0
 22 50  1  0
 23 51  1  0
 23 52  1  0
 25 53  1  0
 26 54  1  0
 27 55  1  0
 28 56  1  0
 29 57  1  0
M  CHG  1  20   1
M  END
>  <score>  (2) 
-11.384

$$$$
=
     RDKit          3D

 57 61  0  0  0  0  0  0  0  0999 V2000
    0.9170   66.0830   70.1680 C   0  0  0  0  0  0  0  0  0  0  0  0
    3.8530   58.4660   70.7760 O   0  0  0  0  0  0  0  0  0  0  0  0
    3.2180   59.4820   71.0130 C   0  0  0  0  0  0  0  0  0  0  0  0
    2.2490   59.6760   72.1820 C   0  0  0  0  0  0  0  0  0  0  0  0
    1.7720   61.0850   71.9800 C   0  0  0  0  0  0  0  0  0  0  0  0
    2.3830   61.6290   70.8470 C   0  0  0  0  0  0  0  0  0  0  0  0
    3.2350   60.6760   70.2830 N   0  0  0  0  0  0  0  0  0  0  0  0
    4.0230   60.8830   69.0980 C   0  0  0  0  0  0  0  0  0  0  0  0
    2.1340   62.9250   70.4080 C   0  0  0  0  0  0  0  0  0  0  0  0
    1.2200   63.6750   71.1750 C   0  0  0  0  0  0  0  0  0  0  0  0
    0.6300   63.1010   72.2960 C   0  0  0  0  0  0  0  0  0  0  0  0
    0.8680   61.8040   72.7510 C   0  0  0  0  0  0  0  0  0  0  0  0
   -0.2080   64.0020   72.8730 O   0  0  0  0  0  0  0  0  0  0  0  0
   -0.1900   65.1830   72.1520 N   0  0  0  0  0  0  0  0  0  0  0  0
    0.6640   64.9820   71.1410 C   0  0  0  0  0  0  0  0  0  0  0  0
   -0.3330   66.4210   69.3450 C   0  0  0  0  0  0  0  0  0  0  0  0
   -0.0940   67.4950   68.2660 C   0  0  0  0  0  0  0  0  0  0  0  0
   -0.8020   67.1730   66.9420 C   0  0  0  0  0  0  0  0  0  0  0  0
   -0.4820   68.2020   65.8610 C   0  0  0  0  0  0  0  0  0  0  0  0
    1.0110   68.2830   65.6760 N   0  0  0  0  0  4  0  0  0  0  0  0
    1.7090   68.6990   66.9460 C   0  0  0  0  0  0  0  0  0  0  0  0
    1.4170   67.6690   68.0310 C   0  0  0  0  0  0  0  0  0  0  0  0
    1.4280   69.1000   64.4660 C   0  0  0  0  0  0  0  0  0  0  0  0
    2.7800   68.7790   63.8900 C   0  0  0  0  0  0  0  0  0  0  0  0
    3.9520   69.2110   64.5300 C   0  0  0  0  0  0  0  0  0  0  0  0
    5.2050   68.9280   63.9830 C   0  0  0  0  0  0  0  0  0  0  0  0
    5.3020   68.2080   62.7960 C   0  0  0  0  0  0  0  0  0  0  0  0
    4.1480   67.7630   62.1550 C   0  0  0  0  0  0  0  0  0  0  0  0
    2.8940   68.0430   62.6990 C   0  0  0  0  0  0  0  0  0  0  0  0
    1.2315   66.9804   70.7210 H   0  0  0  0  0  0  0  0  0  0  0  0
    1.7014   65.7488   69.4730 H   0  0  0  0  0  0  0  0  0  0  0  0
    1.4137   58.9622   72.1283 H   0  0  0  0  0  0  0  0  0  0  0  0
    2.7104   59.5067   73.1661 H   0  0  0  0  0  0  0  0  0  0  0  0
    5.0505   61.1529   69.3834 H   0  0  0  0  0  0  0  0  0  0  0  0
    4.0388   59.9585   68.5021 H   0  0  0  0  0  0  0  0  0  0  0  0
    3.5825   61.6959   68.5021 H   0  0  0  0  0  0  0  0  0  0  0  0
    2.6221   63.3405   69.5141 H   0  0  0  0  0  0  0  0  0  0  0  0
    0.3810   61.3863   73.6445 H   0  0  0  0  0  0  0  0  0  0  0  0
   -0.6811   65.5027   68.8495 H   0  0  0  0  0  0  0  0  0  0  0  0
   -1.0773   66.8291   70.0447 H   0  0  0  0  0  0  0  0  0  0  0  0
   -0.5271   68.4349   68.6388 H   0  0  0  0  0  0  0  0  0  0  0  0
   -0.4760   66.1809   66.5964 H   0  0  0  0  0  0  0  0  0  0  0  0
   -1.8870   67.1933   67.1217 H   0  0  0  0  0  0  0  0  0  0  0  0
   -0.9535   67.8991   64.9145 H   0  0  0  0  0  0  0  0  0  0  0  0
   -0.8695   69.1861   66.1632 H   0  0  0  0  0  0  0  0  0  0  0  0
    1.3297   67.3267   65.4644 H   0  0  0  0  0  0  0  0  0  0  0  0
    2.7936   68.7528   66.7705 H   0  0  0  0  0  0  0  0  0  0  0  0
    1.3460   69.6876   67.2637 H   0  0  0  0  0  0  0  0  0  0  0  0
    1.8432   66.7016   67.7269 H   0  0  0  0  0  0  0  0  0  0  0  0
    1.8690   68.0245   68.9688 H   0  0  0  0  0  0  0  0  0  0  0  0
    0.6788   68.9396   63.6767 H   0  0  0  0  0  0  0  0  0  0  0  0
    1.4940   70.1401   64.8179 H   0  0  0  0  0  0  0  0  0  0  0  0
    3.8828   69.7773   65.4705 H   0  0  0  0  0  0  0  0  0  0  0  0
    6.1170   69.2747   64.4911 H   0  0  0  0  0  0  0  0  0  0  0  0
    6.2899   67.9903   62.3639 H   0  0  0  0  0  0  0  0  0  0  0  0
    4.2255   67.1903   61.2190 H   0  0  0  0  0  0  0  0  0  0  0  0
    1.9868   67.6843   62.1908 H   0  0  0  0  0  0  0  0  0  0  0  0
  3  2  2  0
  4  3  1  0
  5  4  1  0
  6  5  2  0
  7  6  1  0
  7  3  1  0
  8  7  1  0
  9  6  1  0
 10  9  2  0
 11 10  1  0
 12 11  2  0
 12  5  1  0
 13 11  1  0
 14 13  1  0
 15 14  2  0
 15 10  1  0
 15  1  1  0
 16  1  1  0
 17 16  1  0
 18 17  1  0
 19 18  1  0
 20 19  1  0
 21 20  1  0
 22 21  1  0
 22 17  1  0
 23 20  1  0
 24 23  1  0
 25 24  2  0
 26 25  1  0
 27 26  2  0
 28 27  1  0
 29 28  2  0
 29 24  1  0
  1 30  1  0
  1 31  1  0
  4 32  1  0
  4 33  1  0
  8 34  1  0
  8 35  1  0
  8 36  1  0
  9 37  1  0
 12 38  1  0
 16 39  1  0
 16 40  1  0
 17 41  1  0
 18 42  1  0
 18 43  1  0
 19 44  1  0
 19 45  1  0
 20 46  1  0
 21 47  1  0
 21 48  1  0
 22 49  1  0
 22 50  1  0
 23 51  1  0
 23 52  1  0
 25 53  1  0
 26 54  1  0
 27 55  1  0
 28 56  1  0
 29 57  1  0
M  CHG  1  20   1
M  END
>  <score>  (3) 
-11.38

$$$$
=
     RDKit          3D

 57 61  0  0  0  0  0  0  0  0999 V2000
    1.0680   67.3380   68.6330 C   0  0  0  0  0  0  0  0  0  0  0  0
    3.1510   68.7790   60.8490 O   0  0  0  0  0  0  0  0  0  0  0  0
    2.4920   68.7100   61.8750 C   0  0  0  0  0  0  0  0  0  0  0  0
    1.0240   69.1190   62.0220 C   0  0  0  0  0  0  0  0  0  0  0  0
    0.7450   68.8190   63.4660 C   0  0  0  0  0  0  0  0  0  0  0  0
    1.8970   68.3080   64.0710 C   0  0  0  0  0  0  0  0  0  0  0  0
    2.9220   68.2470   63.1230 N   0  0  0  0  0  0  0  0  0  0  0  0
    4.2560   67.7800   63.3920 C   0  0  0  0  0  0  0  0  0  0  0  0
    1.9420   67.9390   65.4100 C   0  0  0  0  0  0  0  0  0  0  0  0
    0.7490   68.1080   66.1420 C   0  0  0  0  0  0  0  0  0  0  0  0
   -0.3770   68.6210   65.5090 C   0  0  0  0  0  0  0  0  0  0  0  0
   -0.4420   68.9960   64.1660 C   0  0  0  0  0  0  0  0  0  0  0  0
   -1.3990   68.6950   66.4010 O   0  0  0  0  0  0  0  0  0  0  0  0
   -0.9740   68.2360   67.6350 N   0  0  0  0  0  0  0  0  0  0  0  0
    0.3090   67.8870   67.4730 C   0  0  0  0  0  0  0  0  0  0  0  0
    0.2160   66.3810   69.4770 C   0  0  0  0  0  0  0  0  0  0  0  0
    1.0250   65.5910   70.5250 C   0  0  0  0  0  0  0  0  0  0  0  0
    2.1600   64.7670   69.8980 C   0  0  0  0  0  0  0  0  0  0  0  0
    2.8920   63.9250   70.9400 C   0  0  0  0  0  0  0  0  0  0  0  0
    1.9030   63.0400   71.6520 N   0  0  0  0  0  4  0  0  0  0  0  0
    0.8410   63.8450   72.3570 C   0  0  0  0  0  0  0  0  0  0  0  0
    0.0850   64.6750   71.3270 C   0  0  0  0  0  0  0  0  0  0  0  0
    2.5550   61.9960   72.5400 C   0  0  0  0  0  0  0  0  0  0  0  0
    2.8380   60.6670   71.8940 C   0  0  0  0  0  0  0  0  0  0  0  0
    2.7690   59.4790   72.6400 C   0  0  0  0  0  0  0  0  0  0  0  0
    3.0520   58.2490   72.0420 C   0  0  0  0  0  0  0  0  0  0  0  0
    3.4000   58.1910   70.6950 C   0  0  0  0  0  0  0  0  0  0  0  0
    3.4620   59.3600   69.9400 C   0  0  0  0  0  0  0  0  0  0  0  0
    3.1800   60.5910   70.5340 C   0  0  0  0  0  0  0  0  0  0  0  0
    1.9465   66.7933   68.2567 H   0  0  0  0  0  0  0  0  0  0  0  0
    1.3665   68.1812   69.2732 H   0  0  0  0  0  0  0  0  0  0  0  0
    0.8858   70.1884   61.8045 H   0  0  0  0  0  0  0  0  0  0  0  0
    0.3514   68.5941   61.3277 H   0  0  0  0  0  0  0  0  0  0  0  0
    4.4130   67.7251   64.4794 H   0  0  0  0  0  0  0  0  0  0  0  0
    4.3907   66.7812   62.9512 H   0  0  0  0  0  0  0  0  0  0  0  0
    4.9842   68.4767   62.9512 H   0  0  0  0  0  0  0  0  0  0  0  0
    2.8561   67.5380   65.8723 H   0  0  0  0  0  0  0  0  0  0  0  0
   -1.3549   69.3973   63.7016 H   0  0  0  0  0  0  0  0  0  0  0  0
   -0.5507   66.9698   70.0019 H   0  0  0  0  0  0  0  0  0  0  0  0
   -0.2202   65.6447   68.7859 H   0  0  0  0  0  0  0  0  0  0  0  0
    1.4954   66.3248   71.1960 H   0  0  0  0  0  0  0  0  0  0  0  0
    1.7350   64.0985   69.1348 H   0  0  0  0  0  0  0  0  0  0  0  0
    2.8840   65.4655   69.4530 H   0  0  0  0  0  0  0  0  0  0  0  0
    3.6498   63.3022   70.4422 H   0  0  0  0  0  0  0  0  0  0  0  0
    3.3836   64.5870   71.6681 H   0  0  0  0  0  0  0  0  0  0  0  0
    1.4226   62.4943   70.9224 H   0  0  0  0  0  0  0  0  0  0  0  0
    0.1426   63.1666   72.8690 H   0  0  0  0  0  0  0  0  0  0  0  0
    1.3082   64.5085   73.0997 H   0  0  0  0  0  0  0  0  0  0  0  0
   -0.4285   63.9956   70.6308 H   0  0  0  0  0  0  0  0  0  0  0  0
   -0.6339   65.3113   71.8639 H   0  0  0  0  0  0  0  0  0  0  0  0
    3.5106   62.4071   72.8975 H   0  0  0  0  0  0  0  0  0  0  0  0
    1.8279   61.7894   73.3392 H   0  0  0  0  0  0  0  0  0  0  0  0
    2.4900   59.5176   73.7033 H   0  0  0  0  0  0  0  0  0  0  0  0
    2.9999   57.3247   72.6360 H   0  0  0  0  0  0  0  0  0  0  0  0
    3.6261   57.2216   70.2269 H   0  0  0  0  0  0  0  0  0  0  0  0
    3.7334   59.3128   68.8750 H   0  0  0  0  0  0  0  0  0  0  0  0
    3.2260   61.5101   69.9314 H   0  0  0  0  0  0  0  0  0  0  0  0
  3  2  2  0
  4  3  1  0
  5  4  1  0
  6  5  2  0
  7  6  1  0
  7  3  1  0
  8  7  1  0
  9  6  1  0
 10  9  2  0
 11 10  1  0
 12 11  2  0
 12  5  1  0
 13 11  1  0
 14 13  1  0
 15 14  2  0
 15 10  1  0
 15  1  1  0
 16  1  1  0
 17 16  1  0
 18 17  1  0
 19 18  1  0
 20 19  1  0
 21 20  1  0
 22 21  1  0
 22 17  1  0
 23 20  1  0
 24 23  1  0
 25 24  2  0
 26 25  1  0
 27 26  2  0
 28 27  1  0
 29 28  2  0
 29 24  1  0
  1 30  1  0
  1 31  1  0
  4 32  1  0
  4 33  1  0
  8 34  1  0
  8 35  1  0
  8 36  1  0
  9 37  1  0
 12 38  1  0
 16 39  1  0
 16 40  1  0
 17 41  1  0
 18 42  1  0
 18 43  1  0
 19 44  1  0
 19 45  1  0
 20 46  1  0
 21 47  1  0
 21 48  1  0
 22 49  1  0
 22 50  1  0
 23 51  1  0
 23 52  1  0
 25 53  1  0
 26 54  1  0
 27 55  1  0
 28 56  1  0
 29 57  1  0
M  CHG  1  20   1
M  END
>  <score>  (4) 
-11.134

$$$$
=
     RDKit          3D

 57 61  0  0  0  0  0  0  0  0999 V2000
    1.4130   64.4860   71.2250 C   0  0  0  0  0  0  0  0  0  0  0  0
    1.9790   56.5610   73.1930 O   0  0  0  0  0  0  0  0  0  0  0  0
    2.1340   57.6190   72.6040 C   0  0  0  0  0  0  0  0  0  0  0  0
    2.9670   57.8190   71.3350 C   0  0  0  0  0  0  0  0  0  0  0  0
    2.7990   59.2860   71.0620 C   0  0  0  0  0  0  0  0  0  0  0  0
    1.9810   59.8550   72.0420 C   0  0  0  0  0  0  0  0  0  0  0  0
    1.5940   58.8630   72.9470 N   0  0  0  0  0  0  0  0  0  0  0  0
    0.7560   59.0860   74.0950 C   0  0  0  0  0  0  0  0  0  0  0  0
    1.6480   61.2050   72.0520 C   0  0  0  0  0  0  0  0  0  0  0  0
    2.1830   61.9840   71.0070 C   0  0  0  0  0  0  0  0  0  0  0  0
    2.9940   61.3850   70.0500 C   0  0  0  0  0  0  0  0  0  0  0  0
    3.3390   60.0330   70.0240 C   0  0  0  0  0  0  0  0  0  0  0  0
    3.3920   62.3220   69.1490 O   0  0  0  0  0  0  0  0  0  0  0  0
    2.8560   63.5520   69.4890 N   0  0  0  0  0  0  0  0  0  0  0  0
    2.1350   63.3430   70.5980 C   0  0  0  0  0  0  0  0  0  0  0  0
    0.1900   64.9140   70.4020 C   0  0  0  0  0  0  0  0  0  0  0  0
    0.2990   66.3390   69.8250 C   0  0  0  0  0  0  0  0  0  0  0  0
   -0.2410   66.4390   68.3910 C   0  0  0  0  0  0  0  0  0  0  0  0
   -0.0450   67.8360   67.8060 C   0  0  0  0  0  0  0  0  0  0  0  0
    1.4160   68.2010   67.8670 N   0  0  0  0  0  4  0  0  0  0  0  0
    1.9310   68.2050   69.2840 C   0  0  0  0  0  0  0  0  0  0  0  0
    1.7620   66.8110   69.8750 C   0  0  0  0  0  0  0  0  0  0  0  0
    1.7550   69.4670   67.1000 C   0  0  0  0  0  0  0  0  0  0  0  0
    3.0160   69.4210   66.2820 C   0  0  0  0  0  0  0  0  0  0  0  0
    2.9840   69.0130   64.9390 C   0  0  0  0  0  0  0  0  0  0  0  0
    4.1590   68.9520   64.1870 C   0  0  0  0  0  0  0  0  0  0  0  0
    5.3760   69.3030   64.7640 C   0  0  0  0  0  0  0  0  0  0  0  0
    5.4220   69.7210   66.0920 C   0  0  0  0  0  0  0  0  0  0  0  0
    4.2500   69.7830   66.8470 C   0  0  0  0  0  0  0  0  0  0  0  0
    1.0784   64.1869   72.2293 H   0  0  0  0  0  0  0  0  0  0  0  0
    2.1052   65.3395   71.2743 H   0  0  0  0  0  0  0  0  0  0  0  0
    4.0232   57.5657   71.5091 H   0  0  0  0  0  0  0  0  0  0  0  0
    2.6508   57.1788   70.4982 H   0  0  0  0  0  0  0  0  0  0  0  0
    1.3421   58.9300   75.0127 H   0  0  0  0  0  0  0  0  0  0  0  0
    0.3735   60.1172   74.0750 H   0  0  0  0  0  0  0  0  0  0  0  0
   -0.0884   58.3813   74.0750 H   0  0  0  0  0  0  0  0  0  0  0  0
    1.0041   61.6396   72.8308 H   0  0  0  0  0  0  0  0  0  0  0  0
    3.9839   59.5964   69.2471 H   0  0  0  0  0  0  0  0  0  0  0  0
    0.0701   64.2091   69.5661 H   0  0  0  0  0  0  0  0  0  0  0  0
   -0.6737   64.9083   71.0832 H   0  0  0  0  0  0  0  0  0  0  0  0
   -0.3273   66.9934   70.4491 H   0  0  0  0  0  0  0  0  0  0  0  0
    0.2894   65.7111   67.7595 H   0  0  0  0  0  0  0  0  0  0  0  0
   -1.3203   66.2282   68.4172 H   0  0  0  0  0  0  0  0  0  0  0  0
   -0.3831   67.8468   66.7593 H   0  0  0  0  0  0  0  0  0  0  0  0
   -0.6312   68.5640   68.3860 H   0  0  0  0  0  0  0  0  0  0  0  0
    1.9243   67.4545   67.3717 H   0  0  0  0  0  0  0  0  0  0  0  0
    2.9957   68.4815   69.2891 H   0  0  0  0  0  0  0  0  0  0  0  0
    1.3667   68.9346   69.8834 H   0  0  0  0  0  0  0  0  0  0  0  0
    2.3829   66.1051   69.3038 H   0  0  0  0  0  0  0  0  0  0  0  0
    2.0716   66.8487   70.9299 H   0  0  0  0  0  0  0  0  0  0  0  0
    0.9188   69.6824   66.4186 H   0  0  0  0  0  0  0  0  0  0  0  0
    1.9229   70.2415   67.8628 H   0  0  0  0  0  0  0  0  0  0  0  0
    2.0250   68.7390   64.4751 H   0  0  0  0  0  0  0  0  0  0  0  0
    4.1227   68.6261   63.1370 H   0  0  0  0  0  0  0  0  0  0  0  0
    6.3013   69.2503   64.1715 H   0  0  0  0  0  0  0  0  0  0  0  0
    6.3835   70.0026   66.5462 H   0  0  0  0  0  0  0  0  0  0  0  0
    4.2929   70.1183   67.8938 H   0  0  0  0  0  0  0  0  0  0  0  0
  3  2  2  0
  4  3  1  0
  5  4  1  0
  6  5  2  0
  7  6  1  0
  7  3  1  0
  8  7  1  0
  9  6  1  0
 10  9  2  0
 11 10  1  0
 12 11  2  0
 12  5  1  0
 13 11  1  0
 14 13  1  0
 15 14  2  0
 15 10  1  0
 15  1  1  0
 16  1  1  0
 17 16  1  0
 18 17  1  0
 19 18  1  0
 20 19  1  0
 21 20  1  0
 22 21  1  0
 22 17  1  0
 23 20  1  0
 24 23  1  0
 25 24  2  0
 26 25  1  0
 27 26  2  0
 28 27  1  0
 29 28  2  0
 29 24  1  0
  1 30  1  0
  1 31  1  0
  4 32  1  0
  4 33  1  0
  8 34  1  0
  8 35  1  0
  8 36  1  0
  9 37  1  0
 12 38  1  0
 16 39  1  0
 16 40  1  0
 17 41  1  0
 18 42  1  0
 18 43  1  0
 19 44  1  0
 19 45  1  0
 20 46  1  0
 21 47  1  0
 21 48  1  0
 22 49  1  0
 22 50  1  0
 23 51  1  0
 23 52  1  0
 25 53  1  0
 26 54  1  0
 27 55  1  0
 28 56  1  0
 29 57  1  0
M  CHG  1  20   1
M  END
>  <score>  (5) 
-11.099

$$$$
=
     RDKit          3D

 57 61  0  0  0  0  0  0  0  0999 V2000
    0.4480   64.7650   71.9060 C   0  0  0  0  0  0  0  0  0  0  0  0
    4.0500   57.5600   70.4530 O   0  0  0  0  0  0  0  0  0  0  0  0
    3.3560   58.4210   70.9700 C   0  0  0  0  0  0  0  0  0  0  0  0
    2.4810   58.2340   72.2120 C   0  0  0  0  0  0  0  0  0  0  0  0
    1.8720   59.5950   72.3900 C   0  0  0  0  0  0  0  0  0  0  0  0
    2.3330   60.4510   71.3860 C   0  0  0  0  0  0  0  0  0  0  0  0
    3.2080   59.7480   70.5530 N   0  0  0  0  0  0  0  0  0  0  0  0
    3.8690   60.3080   69.4030 C   0  0  0  0  0  0  0  0  0  0  0  0
    1.9400   61.7810   71.2920 C   0  0  0  0  0  0  0  0  0  0  0  0
    1.0380   62.2320   72.2760 C   0  0  0  0  0  0  0  0  0  0  0  0
    0.5990   61.3540   73.2600 C   0  0  0  0  0  0  0  0  0  0  0  0
    0.9830   60.0170   73.3700 C   0  0  0  0  0  0  0  0  0  0  0  0
   -0.2570   62.0020   74.0920 O   0  0  0  0  0  0  0  0  0  0  0  0
   -0.4010   63.3160   73.6810 N   0  0  0  0  0  0  0  0  0  0  0  0
    0.3750   63.4470   72.5960 C   0  0  0  0  0  0  0  0  0  0  0  0
   -0.2250   64.7310   70.5270 C   0  0  0  0  0  0  0  0  0  0  0  0
    0.3970   65.7060   69.5090 C   0  0  0  0  0  0  0  0  0  0  0  0
    1.3790   66.6930   70.1580 C   0  0  0  0  0  0  0  0  0  0  0  0
    1.9180   67.7040   69.1490 C   0  0  0  0  0  0  0  0  0  0  0  0
    0.7640   68.4260   68.5020 N   0  0  0  0  0  4  0  0  0  0  0  0
   -0.1520   67.4760   67.7750 C   0  0  0  0  0  0  0  0  0  0  0  0
   -0.7160   66.4720   68.7730 C   0  0  0  0  0  0  0  0  0  0  0  0
    1.1910   69.6150   67.6590 C   0  0  0  0  0  0  0  0  0  0  0  0
    2.6350   69.6380   67.2400 C   0  0  0  0  0  0  0  0  0  0  0  0
    3.6170   70.1830   68.0830 C   0  0  0  0  0  0  0  0  0  0  0  0
    4.9540   70.2210   67.6830 C   0  0  0  0  0  0  0  0  0  0  0  0
    5.3260   69.7130   66.4420 C   0  0  0  0  0  0  0  0  0  0  0  0
    4.3660   69.1590   65.5990 C   0  0  0  0  0  0  0  0  0  0  0  0
    3.0280   69.1190   65.9950 C   0  0  0  0  0  0  0  0  0  0  0  0
   -0.0553   65.5197   72.5281 H   0  0  0  0  0  0  0  0  0  0  0  0
    1.5096   65.0131   71.7596 H   0  0  0  0  0  0  0  0  0  0  0  0
    1.7067   57.4715   72.0414 H   0  0  0  0  0  0  0  0  0  0  0  0
    3.0398   57.8856   73.0931 H   0  0  0  0  0  0  0  0  0  0  0  0
    4.6694   60.9861   69.7342 H   0  0  0  0  0  0  0  0  0  0  0  0
    4.3019   59.4976   68.7981 H   0  0  0  0  0  0  0  0  0  0  0  0
    3.1408   60.8682   68.7981 H   0  0  0  0  0  0  0  0  0  0  0  0
    2.3115   62.4428   70.4958 H   0  0  0  0  0  0  0  0  0  0  0  0
    0.6129   59.3535   74.1655 H   0  0  0  0  0  0  0  0  0  0  0  0
   -0.1421   63.7103   70.1254 H   0  0  0  0  0  0  0  0  0  0  0  0
   -1.2701   65.0419   70.6721 H   0  0  0  0  0  0  0  0  0  0  0  0
    0.9752   65.1045   68.7922 H   0  0  0  0  0  0  0  0  0  0  0  0
    0.8596   67.2350   70.9620 H   0  0  0  0  0  0  0  0  0  0  0  0
    2.2296   66.1183   70.5533 H   0  0  0  0  0  0  0  0  0  0  0  0
    2.5628   68.4304   69.6653 H   0  0  0  0  0  0  0  0  0  0  0  0
    2.5030   67.1799   68.3789 H   0  0  0  0  0  0  0  0  0  0  0  0
    0.2115   68.8373   69.2678 H   0  0  0  0  0  0  0  0  0  0  0  0
   -0.9759   68.0391   67.3123 H   0  0  0  0  0  0  0  0  0  0  0  0
    0.4078   66.9464   66.9900 H   0  0  0  0  0  0  0  0  0  0  0  0
   -1.3259   67.0108   69.5131 H   0  0  0  0  0  0  0  0  0  0  0  0
   -1.3211   65.7415   68.2160 H   0  0  0  0  0  0  0  0  0  0  0  0
    0.5754   69.6203   66.7474 H   0  0  0  0  0  0  0  0  0  0  0  0
    1.0525   70.4989   68.2990 H   0  0  0  0  0  0  0  0  0  0  0  0
    3.3304   70.5833   69.0667 H   0  0  0  0  0  0  0  0  0  0  0  0
    5.7146   70.6532   68.3499 H   0  0  0  0  0  0  0  0  0  0  0  0
    6.3792   69.7491   66.1267 H   0  0  0  0  0  0  0  0  0  0  0  0
    4.6621   68.7527   64.6206 H   0  0  0  0  0  0  0  0  0  0  0  0
    2.2746   68.6772   65.3263 H   0  0  0  0  0  0  0  0  0  0  0  0
  3  2  2  0
  4  3  1  0
  5  4  1  0
  6  5  2  0
  7  6  1  0
  7  3  1  0
  8  7  1  0
  9  6  1  0
 10  9  2  0
 11 10  1  0
 12 11  2  0
 12  5  1  0
 13 11  1  0
 14 13  1  0
 15 14  2  0
 15 10  1  0
 15  1  1  0
 16  1  1  0
 17 16  1  0
 18 17  1  0
 19 18  1  0
 20 19  1  0
 21 20  1  0
 22 21  1  0
 22 17  1  0
 23 20  1  0
 24 23  1  0
 25 24  2  0
 26 25  1  0
 27 26  2  0
 28 27  1  0
 29 28  2  0
 29 24  1  0
  1 30  1  0
  1 31  1  0
  4 32  1  0
  4 33  1  0
  8 34  1  0
  8 35  1  0
  8 36  1  0
  9 37  1  0
 12 38  1  0
 16 39  1  0
 16 40  1  0
 17 41  1  0
 18 42  1  0
 18 43  1  0
 19 44  1  0
 19 45  1  0
 20 46  1  0
 21 47  1  0
 21 48  1  0
 22 49  1  0
 22 50  1  0
 23 51  1  0
 23 52  1  0
 25 53  1  0
 26 54  1  0
 27 55  1  0
 28 56  1  0
 29 57  1  0
M  CHG  1  20   1
M  END
>  <score>  (6) 
-10.86

$$$$
=
     RDKit          3D

 57 61  0  0  0  0  0  0  0  0999 V2000
    1.5440   68.2580   63.1900 C   0  0  0  0  0  0  0  0  0  0  0  0
    5.9550   70.8670   69.5720 O   0  0  0  0  0  0  0  0  0  0  0  0
    5.6480   70.5380   68.4360 C   0  0  0  0  0  0  0  0  0  0  0  0
    6.5840   70.5350   67.2250 C   0  0  0  0  0  0  0  0  0  0  0  0
    5.6890   70.0480   66.1230 C   0  0  0  0  0  0  0  0  0  0  0  0
    4.4100   69.8050   66.6300 C   0  0  0  0  0  0  0  0  0  0  0  0
    4.3960   70.0970   67.9960 N   0  0  0  0  0  0  0  0  0  0  0  0
    3.2420   69.9740   68.8470 C   0  0  0  0  0  0  0  0  0  0  0  0
    3.3630   69.3450   65.8390 C   0  0  0  0  0  0  0  0  0  0  0  0
    3.6600   69.1320   64.4780 C   0  0  0  0  0  0  0  0  0  0  0  0
    4.9430   69.3850   64.0070 C   0  0  0  0  0  0  0  0  0  0  0  0
    6.0060   69.8460   64.7860 C   0  0  0  0  0  0  0  0  0  0  0  0
    4.9960   69.1120   62.6770 O   0  0  0  0  0  0  0  0  0  0  0  0
    3.7580   68.6740   62.2420 N   0  0  0  0  0  0  0  0  0  0  0  0
    2.9650   68.6880   63.3220 C   0  0  0  0  0  0  0  0  0  0  0  0
    0.5870   69.1950   63.9390 C   0  0  0  0  0  0  0  0  0  0  0  0
   -0.1780   68.5100   65.0880 C   0  0  0  0  0  0  0  0  0  0  0  0
   -0.4500   69.4580   66.2660 C   0  0  0  0  0  0  0  0  0  0  0  0
   -1.1300   68.7390   67.4280 C   0  0  0  0  0  0  0  0  0  0  0  0
   -0.2850   67.5670   67.8540 N   0  0  0  0  0  4  0  0  0  0  0  0
   -0.0970   66.5780   66.7310 C   0  0  0  0  0  0  0  0  0  0  0  0
    0.6010   67.2750   65.5700 C   0  0  0  0  0  0  0  0  0  0  0  0
   -0.7480   66.9260   69.1500 C   0  0  0  0  0  0  0  0  0  0  0  0
    0.1620   65.8770   69.7260 C   0  0  0  0  0  0  0  0  0  0  0  0
   -0.3380   64.6170   70.0910 C   0  0  0  0  0  0  0  0  0  0  0  0
    0.5060   63.6510   70.6450 C   0  0  0  0  0  0  0  0  0  0  0  0
    1.8560   63.9300   70.8340 C   0  0  0  0  0  0  0  0  0  0  0  0
    2.3700   65.1720   70.4650 C   0  0  0  0  0  0  0  0  0  0  0  0
    1.5300   66.1390   69.9120 C   0  0  0  0  0  0  0  0  0  0  0  0
    1.2726   68.2516   62.1240 H   0  0  0  0  0  0  0  0  0  0  0  0
    1.4507   67.2545   63.6308 H   0  0  0  0  0  0  0  0  0  0  0  0
    6.9621   71.5459   67.0124 H   0  0  0  0  0  0  0  0  0  0  0  0
    7.4818   69.9153   67.3666 H   0  0  0  0  0  0  0  0  0  0  0  0
    3.5578   70.0077   69.9002 H   0  0  0  0  0  0  0  0  0  0  0  0
    2.5479   70.8032   68.6457 H   0  0  0  0  0  0  0  0  0  0  0  0
    2.7383   69.0171   68.6457 H   0  0  0  0  0  0  0  0  0  0  0  0
    2.3607   69.1581   66.2518 H   0  0  0  0  0  0  0  0  0  0  0  0
    7.0093   70.0333   64.3757 H   0  0  0  0  0  0  0  0  0  0  0  0
    1.1726   70.0262   64.3587 H   0  0  0  0  0  0  0  0  0  0  0  0
   -0.1640   69.5360   63.2112 H   0  0  0  0  0  0  0  0  0  0  0  0
   -1.1572   68.2037   64.6914 H   0  0  0  0  0  0  0  0  0  0  0  0
    0.5061   69.8745   66.6158 H   0  0  0  0  0  0  0  0  0  0  0  0
   -1.1238   70.2537   65.9155 H   0  0  0  0  0  0  0  0  0  0  0  0
   -1.2458   69.4342   68.2725 H   0  0  0  0  0  0  0  0  0  0  0  0
   -2.1206   68.3817   67.1101 H   0  0  0  0  0  0  0  0  0  0  0  0
    0.6480   67.9445   68.0727 H   0  0  0  0  0  0  0  0  0  0  0  0
    0.5188   65.7360   67.0800 H   0  0  0  0  0  0  0  0  0  0  0  0
   -1.0753   66.1971   66.4027 H   0  0  0  0  0  0  0  0  0  0  0  0
    1.6026   67.5918   65.8962 H   0  0  0  0  0  0  0  0  0  0  0  0
    0.6619   66.5635   64.7333 H   0  0  0  0  0  0  0  0  0  0  0  0
   -0.8596   67.7236   69.8993 H   0  0  0  0  0  0  0  0  0  0  0  0
   -1.6855   66.4050   68.9058 H   0  0  0  0  0  0  0  0  0  0  0  0
   -1.4032   64.3883   69.9396 H   0  0  0  0  0  0  0  0  0  0  0  0
    0.1027   62.6687   70.9321 H   0  0  0  0  0  0  0  0  0  0  0  0
    2.5179   63.1701   71.2748 H   0  0  0  0  0  0  0  0  0  0  0  0
    3.4384   65.3898   70.6099 H   0  0  0  0  0  0  0  0  0  0  0  0
    1.9425   67.1157   69.6188 H   0  0  0  0  0  0  0  0  0  0  0  0
  3  2  2  0
  4  3  1  0
  5  4  1  0
  6  5  2  0
  7  6  1  0
  7  3  1  0
  8  7  1  0
  9  6  1  0
 10  9  2  0
 11 10  1  0
 12 11  2  0
 12  5  1  0
 13 11  1  0
 14 13  1  0
 15 14  2  0
 15 10  1  0
 15  1  1  0
 16  1  1  0
 17 16  1  0
 18 17  1  0
 19 18  1  0
 20 19  1  0
 21 20  1  0
 22 21  1  0
 22 17  1  0
 23 20  1  0
 24 23  1  0
 25 24  2  0
 26 25  1  0
 27 26  2  0
 28 27  1  0
 29 28  2  0
 29 24  1  0
  1 30  1  0
  1 31  1  0
  4 32  1  0
  4 33  1  0
  8 34  1  0
  8 35  1  0
  8 36  1  0
  9 37  1  0
 12 38  1  0
 16 39  1  0
 16 40  1  0
 17 41  1  0
 18 42  1  0
 18 43  1  0
 19 44  1  0
 19 45  1  0
 20 46  1  0
 21 47  1  0
 21 48  1  0
 22 49  1  0
 22 50  1  0
 23 51  1  0
 23 52  1  0
 25 53  1  0
 26 54  1  0
 27 55  1  0
 28 56  1  0
 29 57  1  0
M  CHG  1  20   1
M  END
>  <score>  (7) 
-10.252

$$$$
=
     RDKit          3D

 57 61  0  0  0  0  0  0  0  0999 V2000
    0.6000   66.0520   70.5110 C   0  0  0  0  0  0  0  0  0  0  0  0
   -0.3420   59.2120   74.9080 O   0  0  0  0  0  0  0  0  0  0  0  0
    0.0770   60.0040   74.0770 C   0  0  0  0  0  0  0  0  0  0  0  0
    1.1800   59.7220   73.0540 C   0  0  0  0  0  0  0  0  0  0  0  0
    1.2740   61.0220   72.3090 C   0  0  0  0  0  0  0  0  0  0  0  0
    0.3500   61.9310   72.8330 C   0  0  0  0  0  0  0  0  0  0  0  0
   -0.3510   61.3200   73.8760 N   0  0  0  0  0  0  0  0  0  0  0  0
   -1.3770   61.9610   74.6560 C   0  0  0  0  0  0  0  0  0  0  0  0
    0.2080   63.2240   72.3430 C   0  0  0  0  0  0  0  0  0  0  0  0
    1.0540   63.5800   71.2730 C   0  0  0  0  0  0  0  0  0  0  0  0
    1.9620   62.6510   70.7780 C   0  0  0  0  0  0  0  0  0  0  0  0
    2.1180   61.3490   71.2560 C   0  0  0  0  0  0  0  0  0  0  0  0
    2.6650   63.2100   69.7590 O   0  0  0  0  0  0  0  0  0  0  0  0
    2.2400   64.5120   69.5590 N   0  0  0  0  0  0  0  0  0  0  0  0
    1.2780   64.7260   70.4660 C   0  0  0  0  0  0  0  0  0  0  0  0
   -0.3130   66.2730   69.2970 C   0  0  0  0  0  0  0  0  0  0  0  0
    0.1260   67.4440   68.3970 C   0  0  0  0  0  0  0  0  0  0  0  0
   -0.0600   67.1430   66.9020 C   0  0  0  0  0  0  0  0  0  0  0  0
    0.4610   68.2790   66.0240 C   0  0  0  0  0  0  0  0  0  0  0  0
    1.9080   68.5390   66.3530 N   0  0  0  0  0  4  0  0  0  0  0  0
    2.0900   68.9350   67.7960 C   0  0  0  0  0  0  0  0  0  0  0  0
    1.5940   67.8030   68.6860 C   0  0  0  0  0  0  0  0  0  0  0  0
    2.5890   69.4840   65.3790 C   0  0  0  0  0  0  0  0  0  0  0  0
    3.4930   68.8420   64.3630 C   0  0  0  0  0  0  0  0  0  0  0  0
    3.0120   67.8340   63.5130 C   0  0  0  0  0  0  0  0  0  0  0  0
    3.8590   67.2260   62.5830 C   0  0  0  0  0  0  0  0  0  0  0  0
    5.1900   67.6200   62.4900 C   0  0  0  0  0  0  0  0  0  0  0  0
    5.6790   68.6260   63.3190 C   0  0  0  0  0  0  0  0  0  0  0  0
    4.8360   69.2360   64.2490 C   0  0  0  0  0  0  0  0  0  0  0  0
   -0.0067   66.1096   71.4267 H   0  0  0  0  0  0  0  0  0  0  0  0
    1.3765   66.8310   70.4982 H   0  0  0  0  0  0  0  0  0  0  0  0
    2.1307   59.4795   73.5514 H   0  0  0  0  0  0  0  0  0  0  0  0
    0.9657   58.8599   72.4053 H   0  0  0  0  0  0  0  0  0  0  0  0
   -1.1617   61.8265   75.7263 H   0  0  0  0  0  0  0  0  0  0  0  0
   -1.4008   63.0349   74.4189 H   0  0  0  0  0  0  0  0  0  0  0  0
   -2.3525   61.5115   74.4189 H   0  0  0  0  0  0  0  0  0  0  0  0
   -0.5227   63.9291   72.7659 H   0  0  0  0  0  0  0  0  0  0  0  0
    2.8476   60.6420   70.8344 H   0  0  0  0  0  0  0  0  0  0  0  0
   -0.3168   65.3535   68.6933 H   0  0  0  0  0  0  0  0  0  0  0  0
   -1.3108   66.5234   69.6865 H   0  0  0  0  0  0  0  0  0  0  0  0
   -0.5230   68.2996   68.6352 H   0  0  0  0  0  0  0  0  0  0  0  0
    0.4874   66.2217   66.6538 H   0  0  0  0  0  0  0  0  0  0  0  0
   -1.1367   67.0284   66.7084 H   0  0  0  0  0  0  0  0  0  0  0  0
    0.3701   67.9962   64.9649 H   0  0  0  0  0  0  0  0  0  0  0  0
   -0.1285   69.1888   66.2103 H   0  0  0  0  0  0  0  0  0  0  0  0
    2.4002   67.6426   66.2304 H   0  0  0  0  0  0  0  0  0  0  0  0
    3.1555   69.1217   67.9958 H   0  0  0  0  0  0  0  0  0  0  0  0
    1.5180   69.8510   68.0055 H   0  0  0  0  0  0  0  0  0  0  0  0
    2.2181   66.9142   68.5112 H   0  0  0  0  0  0  0  0  0  0  0  0
    1.6626   68.1377   69.7316 H   0  0  0  0  0  0  0  0  0  0  0  0
    1.8042   70.0297   64.8346 H   0  0  0  0  0  0  0  0  0  0  0  0
    3.2391   70.1253   65.9923 H   0  0  0  0  0  0  0  0  0  0  0  0
    1.9598   67.5202   63.5796 H   0  0  0  0  0  0  0  0  0  0  0  0
    3.4730   66.4348   61.9235 H   0  0  0  0  0  0  0  0  0  0  0  0
    5.8566   67.1363   61.7609 H   0  0  0  0  0  0  0  0  0  0  0  0
    6.7303   68.9402   63.2409 H   0  0  0  0  0  0  0  0  0  0  0  0
    5.2272   70.0328   64.8987 H   0  0  0  0  0  0  0  0  0  0  0  0
  3  2  2  0
  4  3  1  0
  5  4  1  0
  6  5  2  0
  7  6  1  0
  7  3  1  0
  8  7  1  0
  9  6  1  0
 10  9  2  0
 11 10  1  0
 12 11  2  0
 12  5  1  0
 13 11  1  0
 14 13  1  0
 15 14  2  0
 15 10  1  0
 15  1  1  0
 16  1  1  0
 17 16  1  0
 18 17  1  0
 19 18  1  0
 20 19  1  0
 21 20  1  0
 22 21  1  0
 22 17  1  0
 23 20  1  0
 24 23  1  0
 25 24  2  0
 26 25  1  0
 27 26  2  0
 28 27  1  0
 29 28  2  0
 29 24  1  0
  1 30  1  0
  1 31  1  0
  4 32  1  0
  4 33  1  0
  8 34  1  0
  8 35  1  0
  8 36  1  0
  9 37  1  0
 12 38  1  0
 16 39  1  0
 16 40  1  0
 17 41  1  0
 18 42  1  0
 18 43  1  0
 19 44  1  0
 19 45  1  0
 20 46  1  0
 21 47  1  0
 21 48  1  0
 22 49  1  0
 22 50  1  0
 23 51  1  0
 23 52  1  0
 25 53  1  0
 26 54  1  0
 27 55  1  0
 28 56  1  0
 29 57  1  0
M  CHG  1  20   1
M  END
>  <score>  (8) 
-9.972

$$$$
=
     RDKit          3D

 57 61  0  0  0  0  0  0  0  0999 V2000
    4.7060   60.3170   71.2310 C   0  0  0  0  0  0  0  0  0  0  0  0
   -1.0650   58.7600   76.8240 O   0  0  0  0  0  0  0  0  0  0  0  0
   -0.3180   58.6290   75.8660 C   0  0  0  0  0  0  0  0  0  0  0  0
   -0.2670   57.4140   74.9360 C   0  0  0  0  0  0  0  0  0  0  0  0
    0.8090   57.7960   73.9600 C   0  0  0  0  0  0  0  0  0  0  0  0
    1.3100   59.0590   74.2860 C   0  0  0  0  0  0  0  0  0  0  0  0
    0.6390   59.5420   75.4120 N   0  0  0  0  0  0  0  0  0  0  0  0
    0.9000   60.8120   76.0370 C   0  0  0  0  0  0  0  0  0  0  0  0
    2.3210   59.6770   73.5570 C   0  0  0  0  0  0  0  0  0  0  0  0
    2.8230   58.9550   72.4560 C   0  0  0  0  0  0  0  0  0  0  0  0
    2.3010   57.7000   72.1620 C   0  0  0  0  0  0  0  0  0  0  0  0
    1.2870   57.0640   72.8810 C   0  0  0  0  0  0  0  0  0  0  0  0
    2.9320   57.1960   71.0690 O   0  0  0  0  0  0  0  0  0  0  0  0
    3.8770   58.1000   70.6180 N   0  0  0  0  0  0  0  0  0  0  0  0
    3.8070   59.1480   71.4500 C   0  0  0  0  0  0  0  0  0  0  0  0
    4.1720   61.2570   70.1420 C   0  0  0  0  0  0  0  0  0  0  0  0
    3.1690   62.3040   70.6640 C   0  0  0  0  0  0  0  0  0  0  0  0
    1.7380   62.0540   70.1640 C   0  0  0  0  0  0  0  0  0  0  0  0
    0.7780   63.1500   70.6200 C   0  0  0  0  0  0  0  0  0  0  0  0
    1.2930   64.4880   70.1580 N   0  0  0  0  0  4  0  0  0  0  0  0
    2.6560   64.7890   70.7260 C   0  0  0  0  0  0  0  0  0  0  0  0
    3.6320   63.7150   70.2630 C   0  0  0  0  0  0  0  0  0  0  0  0
    0.2980   65.6190   70.3520 C   0  0  0  0  0  0  0  0  0  0  0  0
    0.1610   66.5790   69.2020 C   0  0  0  0  0  0  0  0  0  0  0  0
   -1.0050   66.5970   68.4200 C   0  0  0  0  0  0  0  0  0  0  0  0
   -1.1210   67.4760   67.3410 C   0  0  0  0  0  0  0  0  0  0  0  0
   -0.0800   68.3480   67.0350 C   0  0  0  0  0  0  0  0  0  0  0  0
    1.0780   68.3490   67.8090 C   0  0  0  0  0  0  0  0  0  0  0  0
    1.1990   67.4720   68.8880 C   0  0  0  0  0  0  0  0  0  0  0  0
    4.7942   60.8785   72.1728 H   0  0  0  0  0  0  0  0  0  0  0  0
    5.6840   59.9364   70.9015 H   0  0  0  0  0  0  0  0  0  0  0  0
    0.0030   56.5018   75.4883 H   0  0  0  0  0  0  0  0  0  0  0  0
   -1.2315   57.1868   74.4584 H   0  0  0  0  0  0  0  0  0  0  0  0
    0.8758   60.6944   77.1304 H   0  0  0  0  0  0  0  0  0  0  0  0
    1.8916   61.1753   75.7291 H   0  0  0  0  0  0  0  0  0  0  0  0
    0.1321   61.5369   75.7291 H   0  0  0  0  0  0  0  0  0  0  0  0
    2.7063   60.6719   73.8247 H   0  0  0  0  0  0  0  0  0  0  0  0
    0.9002   56.0690   72.6157 H   0  0  0  0  0  0  0  0  0  0  0  0
    5.0245   61.7870   69.6922 H   0  0  0  0  0  0  0  0  0  0  0  0
    3.6343   60.6322   69.4137 H   0  0  0  0  0  0  0  0  0  0  0  0
    3.1448   62.2149   71.7601 H   0  0  0  0  0  0  0  0  0  0  0  0
    1.7456   62.0222   69.0645 H   0  0  0  0  0  0  0  0  0  0  0  0
    1.3909   61.0989   70.5850 H   0  0  0  0  0  0  0  0  0  0  0  0
   -0.2171   62.9701   70.1871 H   0  0  0  0  0  0  0  0  0  0  0  0
    0.7054   63.1425   71.7176 H   0  0  0  0  0  0  0  0  0  0  0  0
    1.4095   64.4174   69.1370 H   0  0  0  0  0  0  0  0  0  0  0  0
    2.9947   65.7735   70.3710 H   0  0  0  0  0  0  0  0  0  0  0  0
    2.6076   64.7997   71.8249 H   0  0  0  0  0  0  0  0  0  0  0  0
    3.7187   63.7624   69.1674 H   0  0  0  0  0  0  0  0  0  0  0  0
    4.6011   63.9050   70.7474 H   0  0  0  0  0  0  0  0  0  0  0  0
   -0.6896   65.1710   70.5363 H   0  0  0  0  0  0  0  0  0  0  0  0
    0.6849   66.2146   71.1920 H   0  0  0  0  0  0  0  0  0  0  0  0
   -1.8332   65.9137   68.6590 H   0  0  0  0  0  0  0  0  0  0  0  0
   -2.0368   67.4793   66.7317 H   0  0  0  0  0  0  0  0  0  0  0  0
   -0.1719   69.0363   66.1819 H   0  0  0  0  0  0  0  0  0  0  0  0
    1.8982   69.0418   67.5696 H   0  0  0  0  0  0  0  0  0  0  0  0
    2.1147   67.4801   69.4975 H   0  0  0  0  0  0  0  0  0  0  0  0
  3  2  2  0
  4  3  1  0
  5  4  1  0
  6  5  2  0
  7  6  1  0
  7  3  1  0
  8  7  1  0
  9  6  1  0
 10  9  2  0
 11 10  1  0
 12 11  2  0
 12  5  1  0
 13 11  1  0
 14 13  1  0
 15 14  2  0
 15 10  1  0
 15  1  1  0
 16  1  1  0
 17 16  1  0
 18 17  1  0
 19 18  1  0
 20 19  1  0
 21 20  1  0
 22 21  1  0
 22 17  1  0
 23 20  1  0
 24 23  1  0
 25 24  2  0
 26 25  1  0
 27 26  2  0
 28 27  1  0
 29 28  2  0
 29 24  1  0
  1 30  1  0
  1 31  1  0
  4 32  1  0
  4 33  1  0
  8 34  1  0
  8 35  1  0
  8 36  1  0
  9 37  1  0
 12 38  1  0
 16 39  1  0
 16 40  1  0
 17 41  1  0
 18 42  1  0
 18 43  1  0
 19 44  1  0
 19 45  1  0
 20 46  1  0
 21 47  1  0
 21 48  1  0
 22 49  1  0
 22 50  1  0
 23 51  1  0
 23 52  1  0
 25 53  1  0
 26 54  1  0
 27 55  1  0
 28 56  1  0
 29 57  1  0
M  CHG  1  20   1
M  END
>  <score>  (9) 
-9.907

$$$$
