=
     RDKit          3D

 54 53  0  0  0  0  0  0  0  0999 V2000
   -0.0580   66.9950   68.2890 C   0  0  0  0  0  0  0  0  0  0  0  0
   -1.2610   66.7700   68.3350 O   0  0  0  0  0  0  0  0  0  0  0  0
    0.5620   67.4630   66.9770 C   0  0  0  0  0  0  0  0  0  0  0  0
    0.0950   67.0680   65.9150 O   0  0  0  0  0  0  0  0  0  0  0  0
    1.7210   68.4240   67.0700 C   0  0  0  0  0  0  0  0  0  0  0  0
    2.1970   68.8350   65.6790 C   0  0  0  0  0  0  0  0  0  0  0  0
    3.6400   68.4210   65.3850 C   0  0  0  0  0  0  0  0  0  0  0  0
    4.6400   69.5740   65.5200 C   0  0  0  0  0  0  0  0  0  0  0  0
    4.8730   69.9330   66.9900 C   0  0  0  0  0  0  0  0  0  0  0  0
    6.2940   70.4260   67.2780 C   0  0  0  0  0  0  0  0  0  0  0  0
    6.3740   71.3950   68.4580 C   0  0  0  0  0  0  0  0  0  0  0  0
    7.4610   70.9830   69.4400 C   0  0  0  0  0  0  0  0  0  0  0  0
    0.8970   66.8390   69.4520 C   0  0  0  0  0  0  0  0  0  0  0  0
    0.2530   66.1040   70.6270 C   0  0  0  0  0  0  0  0  0  0  0  0
    0.4390   64.5860   70.5710 C   0  0  0  0  0  0  0  0  0  0  0  0
    1.1280   63.9570   71.7860 C   0  0  0  0  0  0  0  0  0  0  0  0
    2.3580   63.0960   71.4760 C   0  0  0  0  0  0  0  0  0  0  0  0
    3.4540   63.7820   70.6540 C   0  0  0  0  0  0  0  0  0  0  0  0
    3.0650   61.8130   69.0770 C   0  0  0  0  0  0  0  0  0  0  0  0
    3.9340   63.0140   69.4210 C   0  0  0  0  0  0  0  0  0  0  0  0
    1.4026   69.3207   67.6218 H   0  0  0  0  0  0  0  0  0  0  0  0
    2.5505   67.9265   67.5939 H   0  0  0  0  0  0  0  0  0  0  0  0
    1.5401   68.3648   64.9324 H   0  0  0  0  0  0  0  0  0  0  0  0
    2.1580   69.9334   65.6333 H   0  0  0  0  0  0  0  0  0  0  0  0
    3.9259   67.6264   66.0898 H   0  0  0  0  0  0  0  0  0  0  0  0
    3.6749   68.0797   64.3399 H   0  0  0  0  0  0  0  0  0  0  0  0
    5.5968   69.2744   65.0674 H   0  0  0  0  0  0  0  0  0  0  0  0
    4.2282   70.4553   65.0064 H   0  0  0  0  0  0  0  0  0  0  0  0
    4.1650   70.7263   67.2716 H   0  0  0  0  0  0  0  0  0  0  0  0
    4.7230   69.0144   67.5762 H   0  0  0  0  0  0  0  0  0  0  0  0
    6.9272   69.5542   67.4994 H   0  0  0  0  0  0  0  0  0  0  0  0
    6.6348   70.9722   66.3861 H   0  0  0  0  0  0  0  0  0  0  0  0
    6.5971   72.4033   68.0790 H   0  0  0  0  0  0  0  0  0  0  0  0
    5.4080   71.3815   68.9841 H   0  0  0  0  0  0  0  0  0  0  0  0
    7.0971   71.1209   70.4689 H   0  0  0  0  0  0  0  0  0  0  0  0
    7.7175   69.9253   69.2805 H   0  0  0  0  0  0  0  0  0  0  0  0
    8.3541   71.6050   69.2805 H   0  0  0  0  0  0  0  0  0  0  0  0
    1.7761   66.2696   69.1158 H   0  0  0  0  0  0  0  0  0  0  0  0
    1.1816   67.8446   69.7951 H   0  0  0  0  0  0  0  0  0  0  0  0
    0.7026   66.4760   71.5594 H   0  0  0  0  0  0  0  0  0  0  0  0
   -0.8283   66.3003   70.5790 H   0  0  0  0  0  0  0  0  0  0  0  0
   -0.5556   64.1269   70.4710 H   0  0  0  0  0  0  0  0  0  0  0  0
    1.1052   64.3964   69.7164 H   0  0  0  0  0  0  0  0  0  0  0  0
    1.4441   64.7709   72.4551 H   0  0  0  0  0  0  0  0  0  0  0  0
    0.3885   63.2765   72.2333 H   0  0  0  0  0  0  0  0  0  0  0  0
    2.7998   62.7796   72.4324 H   0  0  0  0  0  0  0  0  0  0  0  0
    1.9944   62.2621   70.8576 H   0  0  0  0  0  0  0  0  0  0  0  0
    3.0657   64.7545   70.3170 H   0  0  0  0  0  0  0  0  0  0  0  0
    4.3264   63.8579   71.3197 H   0  0  0  0  0  0  0  0  0  0  0  0
    2.7182   61.3337   70.0044 H   0  0  0  0  0  0  0  0  0  0  0  0
    2.1967   62.1451   68.4890 H   0  0  0  0  0  0  0  0  0  0  0  0
    3.6520   61.0921   68.4890 H   0  0  0  0  0  0  0  0  0  0  0  0
    4.9585   62.6601   69.6084 H   0  0  0  0  0  0  0  0  0  0  0  0
    3.8810   63.7064   68.5679 H   0  0  0  0  0  0  0  0  0  0  0  0
  2  1  2  0
  3  1  1  0
  4  3  2  0
  5  3  1  0
  6  5  1  0
  7  6  1  0
  8  7  1  0
  9  8  1  0
 10  9  1  0
 11 10  1  0
 12 11  1  0
 13  1  1  0
 14 13  1  0
 15 14  1  0
 16 15  1  0
 17 16  1  0
 18 17  1  0
 20 19  1  0
 20 18  1  0
  5 21  1  0
  5 22  1  0
  6 23  1  0
  6 24  1  0
  7 25  1  0
  7 26  1  0
  8 27  1  0
  8 28  1  0
  9 29  1  0
  9 30  1  0
 10 31  1  0
 10 32  1  0
 11 33  1  0
 11 34  1  0
 12 35  1  0
 12 36  1  0
 12 37  1  0
 13 38  1  0
 13 39  1  0
 14 40  1  0
 14 41  1  0
 15 42  1  0
 15 43  1  0
 16 44  1  0
 16 45  1  0
 17 46  1  0
 17 47  1  0
 18 48  1  0
 18 49  1  0
 19 50  1  0
 19 51  1  0
 19 52  1  0
 20 53  1  0
 20 54  1  0
M  END
>  <score>  (1) 
-7.395

$$$$
=
     RDKit          3D

 54 53  0  0  0  0  0  0  0  0999 V2000
    4.4420   66.8400   63.0300 C   0  0  0  0  0  0  0  0  0  0  0  0
    4.0500   67.1350   61.9080 O   0  0  0  0  0  0  0  0  0  0  0  0
    3.9300   65.5630   63.6870 C   0  0  0  0  0  0  0  0  0  0  0  0
    4.1910   64.4790   63.1780 O   0  0  0  0  0  0  0  0  0  0  0  0
    3.1400   65.7150   64.9630 C   0  0  0  0  0  0  0  0  0  0  0  0
    1.7360   66.2350   64.6730 C   0  0  0  0  0  0  0  0  0  0  0  0
    1.4110   67.5400   65.4020 C   0  0  0  0  0  0  0  0  0  0  0  0
    1.6600   67.4690   66.9110 C   0  0  0  0  0  0  0  0  0  0  0  0
    0.3720   67.7250   67.6960 C   0  0  0  0  0  0  0  0  0  0  0  0
   -0.4720   68.8700   67.1250 C   0  0  0  0  0  0  0  0  0  0  0  0
   -1.8640   68.4310   66.6720 C   0  0  0  0  0  0  0  0  0  0  0  0
   -2.2940   67.1480   67.3690 C   0  0  0  0  0  0  0  0  0  0  0  0
    5.4140   67.6600   63.8510 C   0  0  0  0  0  0  0  0  0  0  0  0
    5.0270   69.1370   63.8900 C   0  0  0  0  0  0  0  0  0  0  0  0
    4.0170   69.4730   64.9910 C   0  0  0  0  0  0  0  0  0  0  0  0
    4.6030   69.6640   66.3920 C   0  0  0  0  0  0  0  0  0  0  0  0
    6.0590   70.1390   66.4410 C   0  0  0  0  0  0  0  0  0  0  0  0
    6.3730   71.1960   67.5050 C   0  0  0  0  0  0  0  0  0  0  0  0
    7.5140   70.7970   69.7530 C   0  0  0  0  0  0  0  0  0  0  0  0
    6.2190   70.7390   68.9570 C   0  0  0  0  0  0  0  0  0  0  0  0
    3.0665   64.7365   65.4602 H   0  0  0  0  0  0  0  0  0  0  0  0
    3.6559   66.4373   65.6127 H   0  0  0  0  0  0  0  0  0  0  0  0
    1.6444   66.4077   63.5905 H   0  0  0  0  0  0  0  0  0  0  0  0
    1.0266   65.4754   65.0333 H   0  0  0  0  0  0  0  0  0  0  0  0
    2.0382   68.3401   64.9819 H   0  0  0  0  0  0  0  0  0  0  0  0
    0.3381   67.7353   65.2577 H   0  0  0  0  0  0  0  0  0  0  0  0
    2.0426   66.4695   67.1651 H   0  0  0  0  0  0  0  0  0  0  0  0
    2.3925   68.2442   67.1804 H   0  0  0  0  0  0  0  0  0  0  0  0
   -0.2326   66.8062   67.6830 H   0  0  0  0  0  0  0  0  0  0  0  0
    0.6656   68.0154   68.7155 H   0  0  0  0  0  0  0  0  0  0  0  0
   -0.5851   69.6407   67.9017 H   0  0  0  0  0  0  0  0  0  0  0  0
    0.0540   69.2491   66.2364 H   0  0  0  0  0  0  0  0  0  0  0  0
   -2.5855   69.2267   66.9093 H   0  0  0  0  0  0  0  0  0  0  0  0
   -1.8332   68.2437   65.5885 H   0  0  0  0  0  0  0  0  0  0  0  0
   -2.2467   67.2892   68.4589 H   0  0  0  0  0  0  0  0  0  0  0  0
   -3.3246   66.8992   67.0759 H   0  0  0  0  0  0  0  0  0  0  0  0
   -1.6215   66.3284   67.0759 H   0  0  0  0  0  0  0  0  0  0  0  0
    5.4279   67.2694   64.8792 H   0  0  0  0  0  0  0  0  0  0  0  0
    6.4057   67.5812   63.3816 H   0  0  0  0  0  0  0  0  0  0  0  0
    5.9371   69.7314   64.0587 H   0  0  0  0  0  0  0  0  0  0  0  0
    4.5485   69.3725   62.9279 H   0  0  0  0  0  0  0  0  0  0  0  0
    3.5061   70.4052   64.7082 H   0  0  0  0  0  0  0  0  0  0  0  0
    3.3485   68.6022   65.0612 H   0  0  0  0  0  0  0  0  0  0  0  0
    3.9865   70.4075   66.9184 H   0  0  0  0  0  0  0  0  0  0  0  0
    4.5951   68.6686   66.8600 H   0  0  0  0  0  0  0  0  0  0  0  0
    6.6949   69.2628   66.6358 H   0  0  0  0  0  0  0  0  0  0  0  0
    6.2522   70.6205   65.4710 H   0  0  0  0  0  0  0  0  0  0  0  0
    7.4138   71.5219   67.3614 H   0  0  0  0  0  0  0  0  0  0  0  0
    5.6323   71.9965   67.3615 H   0  0  0  0  0  0  0  0  0  0  0  0
    7.2840   70.7867   70.8286 H   0  0  0  0  0  0  0  0  0  0  0  0
    8.1374   69.9259   69.5030 H   0  0  0  0  0  0  0  0  0  0  0  0
    8.0570   71.7204   69.5030 H   0  0  0  0  0  0  0  0  0  0  0  0
    5.8559   69.7007   68.9584 H   0  0  0  0  0  0  0  0  0  0  0  0
    5.5118   71.4295   69.4398 H   0  0  0  0  0  0  0  0  0  0  0  0
  2  1  2  0
  3  1  1  0
  4  3  2  0
  5  3  1  0
  6  5  1  0
  7  6  1  0
  8  7  1  0
  9  8  1  0
 10  9  1  0
 11 10  1  0
 12 11  1  0
 13  1  1  0
 14 13  1  0
 15 14  1  0
 16 15  1  0
 17 16  1  0
 18 17  1  0
 20 19  1  0
 20 18  1  0
  5 21  1  0
  5 22  1  0
  6 23  1  0
  6 24  1  0
  7 25  1  0
  7 26  1  0
  8 27  1  0
  8 28  1  0
  9 29  1  0
  9 30  1  0
 10 31  1  0
 10 32  1  0
 11 33  1  0
 11 34  1  0
 12 35  1  0
 12 36  1  0
 12 37  1  0
 13 38  1  0
 13 39  1  0
 14 40  1  0
 14 41  1  0
 15 42  1  0
 15 43  1  0
 16 44  1  0
 16 45  1  0
 17 46  1  0
 17 47  1  0
 18 48  1  0
 18 49  1  0
 19 50  1  0
 19 51  1  0
 19 52  1  0
 20 53  1  0
 20 54  1  0
M  END
>  <score>  (2) 
-7.357

$$$$
=
     RDKit          3D

 54 53  0  0  0  0  0  0  0  0999 V2000
    2.7850   66.6030   64.4420 C   0  0  0  0  0  0  0  0  0  0  0  0
    2.9920   65.7050   65.2490 O   0  0  0  0  0  0  0  0  0  0  0  0
    3.8520   66.9310   63.4040 C   0  0  0  0  0  0  0  0  0  0  0  0
    4.4630   66.0190   62.8590 O   0  0  0  0  0  0  0  0  0  0  0  0
    4.0770   68.3890   63.0860 C   0  0  0  0  0  0  0  0  0  0  0  0
    5.1980   68.9650   63.9450 C   0  0  0  0  0  0  0  0  0  0  0  0
    4.7110   69.5210   65.2850 C   0  0  0  0  0  0  0  0  0  0  0  0
    5.8530   69.8900   66.2380 C   0  0  0  0  0  0  0  0  0  0  0  0
    5.3220   70.2060   67.6380 C   0  0  0  0  0  0  0  0  0  0  0  0
    6.0130   71.4060   68.2930 C   0  0  0  0  0  0  0  0  0  0  0  0
    7.3640   71.0620   68.9190 C   0  0  0  0  0  0  0  0  0  0  0  0
    7.2010   70.5570   70.3460 C   0  0  0  0  0  0  0  0  0  0  0  0
    1.5280   67.4430   64.3850 C   0  0  0  0  0  0  0  0  0  0  0  0
    0.9140   67.6490   65.7690 C   0  0  0  0  0  0  0  0  0  0  0  0
    1.6970   68.6330   66.6420 C   0  0  0  0  0  0  0  0  0  0  0  0
    1.5130   68.4710   68.1540 C   0  0  0  0  0  0  0  0  0  0  0  0
    0.7750   67.2040   68.5970 C   0  0  0  0  0  0  0  0  0  0  0  0
    1.2360   66.6020   69.9280 C   0  0  0  0  0  0  0  0  0  0  0  0
    1.5160   64.2280   70.8240 C   0  0  0  0  0  0  0  0  0  0  0  0
    0.5490   65.2980   70.3380 C   0  0  0  0  0  0  0  0  0  0  0  0
    4.3486   68.4887   62.0247 H   0  0  0  0  0  0  0  0  0  0  0  0
    3.1506   68.9428   63.2983 H   0  0  0  0  0  0  0  0  0  0  0  0
    5.9301   68.1683   64.1432 H   0  0  0  0  0  0  0  0  0  0  0  0
    5.6382   69.8037   63.3856 H   0  0  0  0  0  0  0  0  0  0  0  0
    4.1119   70.4231   65.0919 H   0  0  0  0  0  0  0  0  0  0  0  0
    4.1224   68.7296   65.7721 H   0  0  0  0  0  0  0  0  0  0  0  0
    6.5546   69.0452   66.3021 H   0  0  0  0  0  0  0  0  0  0  0  0
    6.3596   70.7844   65.8464 H   0  0  0  0  0  0  0  0  0  0  0  0
    4.2459   70.4214   67.5626 H   0  0  0  0  0  0  0  0  0  0  0  0
    5.5266   69.3286   68.2691 H   0  0  0  0  0  0  0  0  0  0  0  0
    6.1708   72.1786   67.5261 H   0  0  0  0  0  0  0  0  0  0  0  0
    5.3581   71.7537   69.1055 H   0  0  0  0  0  0  0  0  0  0  0  0
    7.8497   70.2807   68.3159 H   0  0  0  0  0  0  0  0  0  0  0  0
    7.9779   71.9744   68.9420 H   0  0  0  0  0  0  0  0  0  0  0  0
    7.4603   71.3604   71.0511 H   0  0  0  0  0  0  0  0  0  0  0  0
    6.1577   70.2487   70.5089 H   0  0  0  0  0  0  0  0  0  0  0  0
    7.8672   69.6970   70.5089 H   0  0  0  0  0  0  0  0  0  0  0  0
    1.7764   68.4253   63.9569 H   0  0  0  0  0  0  0  0  0  0  0  0
    0.7926   66.9122   63.7626 H   0  0  0  0  0  0  0  0  0  0  0  0
   -0.1091   68.0329   65.6428 H   0  0  0  0  0  0  0  0  0  0  0  0
    0.9331   66.6754   66.2805 H   0  0  0  0  0  0  0  0  0  0  0  0
    2.7663   68.5081   66.4163 H   0  0  0  0  0  0  0  0  0  0  0  0
    1.3030   69.6304   66.3971 H   0  0  0  0  0  0  0  0  0  0  0  0
    2.5105   68.4617   68.6176 H   0  0  0  0  0  0  0  0  0  0  0  0
    0.8831   69.3144   68.4734 H   0  0  0  0  0  0  0  0  0  0  0  0
   -0.2935   67.4489   68.6881 H   0  0  0  0  0  0  0  0  0  0  0  0
    0.9930   66.4449   67.8313 H   0  0  0  0  0  0  0  0  0  0  0  0
    2.3161   66.4068   69.8549 H   0  0  0  0  0  0  0  0  0  0  0  0
    0.9678   67.3385   70.6998 H   0  0  0  0  0  0  0  0  0  0  0  0
    1.5269   64.2159   71.9239 H   0  0  0  0  0  0  0  0  0  0  0  0
    1.1937   63.2452   70.4497 H   0  0  0  0  0  0  0  0  0  0  0  0
    2.5264   64.4496   70.4497 H   0  0  0  0  0  0  0  0  0  0  0  0
    0.0026   64.9042   69.4683 H   0  0  0  0  0  0  0  0  0  0  0  0
   -0.1194   65.5354   71.1788 H   0  0  0  0  0  0  0  0  0  0  0  0
  2  1  2  0
  3  1  1  0
  4  3  2  0
  5  3  1  0
  6  5  1  0
  7  6  1  0
  8  7  1  0
  9  8  1  0
 10  9  1  0
 11 10  1  0
 12 11  1  0
 13  1  1  0
 14 13  1  0
 15 14  1  0
 16 15  1  0
 17 16  1  0
 18 17  1  0
 20 19  1  0
 20 18  1  0
  5 21  1  0
  5 22  1  0
  6 23  1  0
  6 24  1  0
  7 25  1  0
  7 26  1  0
  8 27  1  0
  8 28  1  0
  9 29  1  0
  9 30  1  0
 10 31  1  0
 10 32  1  0
 11 33  1  0
 11 34  1  0
 12 35  1  0
 12 36  1  0
 12 37  1  0
 13 38  1  0
 13 39  1  0
 14 40  1  0
 14 41  1  0
 15 42  1  0
 15 43  1  0
 16 44  1  0
 16 45  1  0
 17 46  1  0
 17 47  1  0
 18 48  1  0
 18 49  1  0
 19 50  1  0
 19 51  1  0
 19 52  1  0
 20 53  1  0
 20 54  1  0
M  END
>  <score>  (3) 
-7.18

$$$$
=
     RDKit          3D

 54 53  0  0  0  0  0  0  0  0999 V2000
    4.9970   68.6280   62.7810 C   0  0  0  0  0  0  0  0  0  0  0  0
    5.4890   69.4760   62.0480 O   0  0  0  0  0  0  0  0  0  0  0  0
    3.9040   67.7160   62.2370 C   0  0  0  0  0  0  0  0  0  0  0  0
    4.1690   66.5480   61.9770 O   0  0  0  0  0  0  0  0  0  0  0  0
    2.5280   68.3130   62.0730 C   0  0  0  0  0  0  0  0  0  0  0  0
    2.0470   68.9320   63.3810 C   0  0  0  0  0  0  0  0  0  0  0  0
    1.3710   67.9260   64.3150 C   0  0  0  0  0  0  0  0  0  0  0  0
    1.9680   67.9150   65.7260 C   0  0  0  0  0  0  0  0  0  0  0  0
    0.8820   67.6970   66.7830 C   0  0  0  0  0  0  0  0  0  0  0  0
   -0.1440   68.8330   66.8460 C   0  0  0  0  0  0  0  0  0  0  0  0
   -1.5890   68.3560   66.7070 C   0  0  0  0  0  0  0  0  0  0  0  0
   -1.8310   67.0830   67.5060 C   0  0  0  0  0  0  0  0  0  0  0  0
    5.3860   68.4020   64.2260 C   0  0  0  0  0  0  0  0  0  0  0  0
    5.3010   69.6870   65.0490 C   0  0  0  0  0  0  0  0  0  0  0  0
    5.8050   69.5240   66.4860 C   0  0  0  0  0  0  0  0  0  0  0  0
    6.6480   70.6810   67.0280 C   0  0  0  0  0  0  0  0  0  0  0  0
    6.3960   71.0530   68.4930 C   0  0  0  0  0  0  0  0  0  0  0  0
    4.9840   71.5530   68.8140 C   0  0  0  0  0  0  0  0  0  0  0  0
    2.8670   70.1310   68.7050 C   0  0  0  0  0  0  0  0  0  0  0  0
    4.0750   70.5510   69.5290 C   0  0  0  0  0  0  0  0  0  0  0  0
    2.5629   69.0917   61.2969 H   0  0  0  0  0  0  0  0  0  0  0  0
    1.8294   67.5144   61.7829 H   0  0  0  0  0  0  0  0  0  0  0  0
    2.9140   69.3641   63.9022 H   0  0  0  0  0  0  0  0  0  0  0  0
    1.2957   69.6932   63.1239 H   0  0  0  0  0  0  0  0  0  0  0  0
    0.3035   68.1809   64.3893 H   0  0  0  0  0  0  0  0  0  0  0  0
    1.5287   66.9254   63.8861 H   0  0  0  0  0  0  0  0  0  0  0  0
    2.7066   67.1029   65.7971 H   0  0  0  0  0  0  0  0  0  0  0  0
    2.4447   68.8889   65.9110 H   0  0  0  0  0  0  0  0  0  0  0  0
    0.3522   66.7614   66.5505 H   0  0  0  0  0  0  0  0  0  0  0  0
    1.3843   67.6591   67.7609 H   0  0  0  0  0  0  0  0  0  0  0  0
   -0.0377   69.3452   67.8137 H   0  0  0  0  0  0  0  0  0  0  0  0
    0.0598   69.5013   65.9964 H   0  0  0  0  0  0  0  0  0  0  0  0
   -2.2632   69.1435   67.0749 H   0  0  0  0  0  0  0  0  0  0  0  0
   -1.7831   68.1417   65.6457 H   0  0  0  0  0  0  0  0  0  0  0  0
   -1.7876   67.3111   68.5812 H   0  0  0  0  0  0  0  0  0  0  0  0
   -2.8225   66.6767   67.2571 H   0  0  0  0  0  0  0  0  0  0  0  0
   -1.0578   66.3413   67.2571 H   0  0  0  0  0  0  0  0  0  0  0  0
    4.7081   67.6544   64.6636 H   0  0  0  0  0  0  0  0  0  0  0  0
    6.4291   68.0534   64.2467 H   0  0  0  0  0  0  0  0  0  0  0  0
    5.9067   70.4595   64.5527 H   0  0  0  0  0  0  0  0  0  0  0  0
    4.2384   69.9653   65.1074 H   0  0  0  0  0  0  0  0  0  0  0  0
    4.9286   69.4085   67.1407 H   0  0  0  0  0  0  0  0  0  0  0  0
    6.4702   68.6480   66.4733 H   0  0  0  0  0  0  0  0  0  0  0  0
    7.7078   70.4044   66.9263 H   0  0  0  0  0  0  0  0  0  0  0  0
    6.3610   71.5646   66.4391 H   0  0  0  0  0  0  0  0  0  0  0  0
    6.5869   70.1603   69.1068 H   0  0  0  0  0  0  0  0  0  0  0  0
    7.0705   71.8941   68.7109 H   0  0  0  0  0  0  0  0  0  0  0  0
    5.0773   72.4424   69.4545 H   0  0  0  0  0  0  0  0  0  0  0  0
    4.5072   71.7526   67.8430 H   0  0  0  0  0  0  0  0  0  0  0  0
    2.0453   69.8453   69.3782 H   0  0  0  0  0  0  0  0  0  0  0  0
    2.5462   70.9703   68.0705 H   0  0  0  0  0  0  0  0  0  0  0  0
    3.1361   69.2737   68.0705 H   0  0  0  0  0  0  0  0  0  0  0  0
    3.7171   71.0102   70.4623 H   0  0  0  0  0  0  0  0  0  0  0  0
    4.6724   69.6456   69.7114 H   0  0  0  0  0  0  0  0  0  0  0  0
  2  1  2  0
  3  1  1  0
  4  3  2  0
  5  3  1  0
  6  5  1  0
  7  6  1  0
  8  7  1  0
  9  8  1  0
 10  9  1  0
 11 10  1  0
 12 11  1  0
 13  1  1  0
 14 13  1  0
 15 14  1  0
 16 15  1  0
 17 16  1  0
 18 17  1  0
 20 19  1  0
 20 18  1  0
  5 21  1  0
  5 22  1  0
  6 23  1  0
  6 24  1  0
  7 25  1  0
  7 26  1  0
  8 27  1  0
  8 28  1  0
  9 29  1  0
  9 30  1  0
 10 31  1  0
 10 32  1  0
 11 33  1  0
 11 34  1  0
 12 35  1  0
 12 36  1  0
 12 37  1  0
 13 38  1  0
 13 39  1  0
 14 40  1  0
 14 41  1  0
 15 42  1  0
 15 43  1  0
 16 44  1  0
 16 45  1  0
 17 46  1  0
 17 47  1  0
 18 48  1  0
 18 49  1  0
 19 50  1  0
 19 51  1  0
 19 52  1  0
 20 53  1  0
 20 54  1  0
M  END
>  <score>  (4) 
-7.157

$$$$
=
     RDKit          3D

 54 53  0  0  0  0  0  0  0  0999 V2000
    0.4230   68.8730   67.5540 C   0  0  0  0  0  0  0  0  0  0  0  0
   -0.4580   69.7180   67.6470 O   0  0  0  0  0  0  0  0  0  0  0  0
    0.0390   67.3990   67.5030 C   0  0  0  0  0  0  0  0  0  0  0  0
   -0.0620   66.8400   66.4170 O   0  0  0  0  0  0  0  0  0  0  0  0
   -0.1720   66.6970   68.8220 C   0  0  0  0  0  0  0  0  0  0  0  0
    1.0590   66.8370   69.7130 C   0  0  0  0  0  0  0  0  0  0  0  0
    1.5940   65.4970   70.2230 C   0  0  0  0  0  0  0  0  0  0  0  0
    0.4870   64.5040   70.5910 C   0  0  0  0  0  0  0  0  0  0  0  0
    1.0460   63.0890   70.7500 C   0  0  0  0  0  0  0  0  0  0  0  0
    2.4080   62.8930   70.0750 C   0  0  0  0  0  0  0  0  0  0  0  0
    3.5550   62.7020   71.0670 C   0  0  0  0  0  0  0  0  0  0  0  0
    4.8490   63.3040   70.5380 C   0  0  0  0  0  0  0  0  0  0  0  0
    1.9050   69.1720   67.4890 C   0  0  0  0  0  0  0  0  0  0  0  0
    2.3060   70.2930   68.4460 C   0  0  0  0  0  0  0  0  0  0  0  0
    3.7110   70.1220   69.0300 C   0  0  0  0  0  0  0  0  0  0  0  0
    4.6280   71.3440   68.9220 C   0  0  0  0  0  0  0  0  0  0  0  0
    5.9420   71.1200   68.1670 C   0  0  0  0  0  0  0  0  0  0  0  0
    5.9630   69.9160   67.2200 C   0  0  0  0  0  0  0  0  0  0  0  0
    4.6080   69.2880   65.1500 C   0  0  0  0  0  0  0  0  0  0  0  0
    5.6460   70.2220   65.7550 C   0  0  0  0  0  0  0  0  0  0  0  0
   -1.0392   67.1414   69.3325 H   0  0  0  0  0  0  0  0  0  0  0  0
   -0.3479   65.6285   68.6287 H   0  0  0  0  0  0  0  0  0  0  0  0
    1.8532   67.3328   69.1355 H   0  0  0  0  0  0  0  0  0  0  0  0
    0.7582   67.4236   70.5936 H   0  0  0  0  0  0  0  0  0  0  0  0
    2.2186   65.0482   69.4366 H   0  0  0  0  0  0  0  0  0  0  0  0
    2.1663   65.7019   71.1398 H   0  0  0  0  0  0  0  0  0  0  0  0
    0.0251   64.8163   71.5392 H   0  0  0  0  0  0  0  0  0  0  0  0
   -0.2580   64.4961   69.7817 H   0  0  0  0  0  0  0  0  0  0  0  0
    1.1551   62.8758   71.8236 H   0  0  0  0  0  0  0  0  0  0  0  0
    0.3390   62.4036   70.2596 H   0  0  0  0  0  0  0  0  0  0  0  0
    2.3529   62.0035   69.4302 H   0  0  0  0  0  0  0  0  0  0  0  0
    2.6219   63.8081   69.5034 H   0  0  0  0  0  0  0  0  0  0  0  0
    3.2933   63.1924   72.0162 H   0  0  0  0  0  0  0  0  0  0  0  0
    3.7093   61.6231   71.2162 H   0  0  0  0  0  0  0  0  0  0  0  0
    5.4875   63.6011   71.3830 H   0  0  0  0  0  0  0  0  0  0  0  0
    5.3762   62.5587   69.9243 H   0  0  0  0  0  0  0  0  0  0  0  0
    4.6185   64.1873   69.9243 H   0  0  0  0  0  0  0  0  0  0  0  0
    2.4627   68.2619   67.7548 H   0  0  0  0  0  0  0  0  0  0  0  0
    2.1407   69.4990   66.4655 H   0  0  0  0  0  0  0  0  0  0  0  0
    2.2694   71.2472   67.8999 H   0  0  0  0  0  0  0  0  0  0  0  0
    1.5994   70.2682   69.2887 H   0  0  0  0  0  0  0  0  0  0  0  0
    3.6058   69.8715   70.0959 H   0  0  0  0  0  0  0  0  0  0  0  0
    4.1906   69.3332   68.4318 H   0  0  0  0  0  0  0  0  0  0  0  0
    4.0719   72.1399   68.4050 H   0  0  0  0  0  0  0  0  0  0  0  0
    4.9129   71.5989   69.9534 H   0  0  0  0  0  0  0  0  0  0  0  0
    6.1490   72.0221   67.5725 H   0  0  0  0  0  0  0  0  0  0  0  0
    6.7000   70.9115   68.9364 H   0  0  0  0  0  0  0  0  0  0  0  0
    6.9672   69.4692   67.2628 H   0  0  0  0  0  0  0  0  0  0  0  0
    5.1630   69.2458   67.5674 H   0  0  0  0  0  0  0  0  0  0  0  0
    4.0514   68.7872   65.9558 H   0  0  0  0  0  0  0  0  0  0  0  0
    3.9104   69.8685   64.5284 H   0  0  0  0  0  0  0  0  0  0  0  0
    5.1119   68.5332   64.5284 H   0  0  0  0  0  0  0  0  0  0  0  0
    6.5748   70.1343   65.1722 H   0  0  0  0  0  0  0  0  0  0  0  0
    5.2258   71.2380   65.7206 H   0  0  0  0  0  0  0  0  0  0  0  0
  2  1  2  0
  3  1  1  0
  4  3  2  0
  5  3  1  0
  6  5  1  0
  7  6  1  0
  8  7  1  0
  9  8  1  0
 10  9  1  0
 11 10  1  0
 12 11  1  0
 13  1  1  0
 14 13  1  0
 15 14  1  0
 16 15  1  0
 17 16  1  0
 18 17  1  0
 20 19  1  0
 20 18  1  0
  5 21  1  0
  5 22  1  0
  6 23  1  0
  6 24  1  0
  7 25  1  0
  7 26  1  0
  8 27  1  0
  8 28  1  0
  9 29  1  0
  9 30  1  0
 10 31  1  0
 10 32  1  0
 11 33  1  0
 11 34  1  0
 12 35  1  0
 12 36  1  0
 12 37  1  0
 13 38  1  0
 13 39  1  0
 14 40  1  0
 14 41  1  0
 15 42  1  0
 15 43  1  0
 16 44  1  0
 16 45  1  0
 17 46  1  0
 17 47  1  0
 18 48  1  0
 18 49  1  0
 19 50  1  0
 19 51  1  0
 19 52  1  0
 20 53  1  0
 20 54  1  0
M  END
>  <score>  (5) 
-7.146

$$$$
=
     RDKit          3D

 54 53  0  0  0  0  0  0  0  0999 V2000
    0.6900   68.3420   66.3620 C   0  0  0  0  0  0  0  0  0  0  0  0
   -0.4650   68.7190   66.5120 O   0  0  0  0  0  0  0  0  0  0  0  0
    1.1620   67.9170   64.9770 C   0  0  0  0  0  0  0  0  0  0  0  0
    0.9510   66.7720   64.5940 O   0  0  0  0  0  0  0  0  0  0  0  0
    1.8500   68.9620   64.1340 C   0  0  0  0  0  0  0  0  0  0  0  0
    1.5240   68.7670   62.6560 C   0  0  0  0  0  0  0  0  0  0  0  0
    2.7520   68.4430   61.8030 C   0  0  0  0  0  0  0  0  0  0  0  0
    4.0770   68.7540   62.5060 C   0  0  0  0  0  0  0  0  0  0  0  0
    4.9300   67.4920   62.6600 C   0  0  0  0  0  0  0  0  0  0  0  0
    4.6690   66.7370   63.9670 C   0  0  0  0  0  0  0  0  0  0  0  0
    3.9710   65.3930   63.7640 C   0  0  0  0  0  0  0  0  0  0  0  0
    4.8920   64.2320   64.1120 C   0  0  0  0  0  0  0  0  0  0  0  0
    1.7210   68.2520   67.4670 C   0  0  0  0  0  0  0  0  0  0  0  0
    2.0480   69.6230   68.0570 C   0  0  0  0  0  0  0  0  0  0  0  0
    3.5390   69.9680   68.0050 C   0  0  0  0  0  0  0  0  0  0  0  0
    4.2390   69.6850   66.6730 C   0  0  0  0  0  0  0  0  0  0  0  0
    5.7710   69.6680   66.7210 C   0  0  0  0  0  0  0  0  0  0  0  0
    6.4290   70.9470   67.2460 C   0  0  0  0  0  0  0  0  0  0  0  0
    7.7330   70.9320   69.4400 C   0  0  0  0  0  0  0  0  0  0  0  0
    6.3860   71.1390   68.7630 C   0  0  0  0  0  0  0  0  0  0  0  0
    1.5113   69.9599   64.4493 H   0  0  0  0  0  0  0  0  0  0  0  0
    2.9372   68.8655   64.2709 H   0  0  0  0  0  0  0  0  0  0  0  0
    0.8060   67.9388   62.5632 H   0  0  0  0  0  0  0  0  0  0  0  0
    1.1113   69.7169   62.2853 H   0  0  0  0  0  0  0  0  0  0  0  0
    2.7317   67.3717   61.5544 H   0  0  0  0  0  0  0  0  0  0  0  0
    2.7023   69.0776   60.9059 H   0  0  0  0  0  0  0  0  0  0  0  0
    4.6338   69.4934   61.9117 H   0  0  0  0  0  0  0  0  0  0  0  0
    3.8557   69.1500   63.5081 H   0  0  0  0  0  0  0  0  0  0  0  0
    4.7110   66.8183   61.8185 H   0  0  0  0  0  0  0  0  0  0  0  0
    5.9826   67.8112   62.6741 H   0  0  0  0  0  0  0  0  0  0  0  0
    5.6337   66.5571   64.4640 H   0  0  0  0  0  0  0  0  0  0  0  0
    3.9979   67.3623   64.5741 H   0  0  0  0  0  0  0  0  0  0  0  0
    3.0814   65.3504   64.4096 H   0  0  0  0  0  0  0  0  0  0  0  0
    3.6882   65.3057   62.7046 H   0  0  0  0  0  0  0  0  0  0  0  0
    4.9665   64.1381   65.2054 H   0  0  0  0  0  0  0  0  0  0  0  0
    4.4839   63.3013   63.6910 H   0  0  0  0  0  0  0  0  0  0  0  0
    5.8911   64.4177   63.6910 H   0  0  0  0  0  0  0  0  0  0  0  0
    1.3296   67.6055   68.2663 H   0  0  0  0  0  0  0  0  0  0  0  0
    2.6449   67.8377   67.0371 H   0  0  0  0  0  0  0  0  0  0  0  0
    1.4935   70.3869   67.4921 H   0  0  0  0  0  0  0  0  0  0  0  0
    1.7576   69.5975   69.1177 H   0  0  0  0  0  0  0  0  0  0  0  0
    3.6455   71.0412   68.2216 H   0  0  0  0  0  0  0  0  0  0  0  0
    4.0245   69.3139   68.7442 H   0  0  0  0  0  0  0  0  0  0  0  0
    3.9006   68.7015   66.3150 H   0  0  0  0  0  0  0  0  0  0  0  0
    3.9678   70.5177   66.0074 H   0  0  0  0  0  0  0  0  0  0  0  0
    6.0803   68.8364   67.3712 H   0  0  0  0  0  0  0  0  0  0  0  0
    6.1044   69.5635   65.6779 H   0  0  0  0  0  0  0  0  0  0  0  0
    7.4844   70.9360   66.9363 H   0  0  0  0  0  0  0  0  0  0  0  0
    5.8488   71.7795   66.8213 H   0  0  0  0  0  0  0  0  0  0  0  0
    7.6015   70.9522   70.5319 H   0  0  0  0  0  0  0  0  0  0  0  0
    8.1492   69.9594   69.1387 H   0  0  0  0  0  0  0  0  0  0  0  0
    8.4220   71.7348   69.1387 H   0  0  0  0  0  0  0  0  0  0  0  0
    5.6700   70.4184   69.1849 H   0  0  0  0  0  0  0  0  0  0  0  0
    6.0876   72.1814   68.9486 H   0  0  0  0  0  0  0  0  0  0  0  0
  2  1  2  0
  3  1  1  0
  4  3  2  0
  5  3  1  0
  6  5  1  0
  7  6  1  0
  8  7  1  0
  9  8  1  0
 10  9  1  0
 11 10  1  0
 12 11  1  0
 13  1  1  0
 14 13  1  0
 15 14  1  0
 16 15  1  0
 17 16  1  0
 18 17  1  0
 20 19  1  0
 20 18  1  0
  5 21  1  0
  5 22  1  0
  6 23  1  0
  6 24  1  0
  7 25  1  0
  7 26  1  0
  8 27  1  0
  8 28  1  0
  9 29  1  0
  9 30  1  0
 10 31  1  0
 10 32  1  0
 11 33  1  0
 11 34  1  0
 12 35  1  0
 12 36  1  0
 12 37  1  0
 13 38  1  0
 13 39  1  0
 14 40  1  0
 14 41  1  0
 15 42  1  0
 15 43  1  0
 16 44  1  0
 16 45  1  0
 17 46  1  0
 17 47  1  0
 18 48  1  0
 18 49  1  0
 19 50  1  0
 19 51  1  0
 19 52  1  0
 20 53  1  0
 20 54  1  0
M  END
>  <score>  (6) 
-7.13

$$$$
=
     RDKit          3D

 54 53  0  0  0  0  0  0  0  0999 V2000
    0.8380   68.0560   67.7080 C   0  0  0  0  0  0  0  0  0  0  0  0
    0.6780   69.2380   67.9850 O   0  0  0  0  0  0  0  0  0  0  0  0
    0.3250   66.9900   68.6690 C   0  0  0  0  0  0  0  0  0  0  0  0
   -0.7240   66.4080   68.4180 O   0  0  0  0  0  0  0  0  0  0  0  0
    1.1730   66.6910   69.8810 C   0  0  0  0  0  0  0  0  0  0  0  0
    0.6750   65.4380   70.5940 C   0  0  0  0  0  0  0  0  0  0  0  0
    1.6110   64.2380   70.4370 C   0  0  0  0  0  0  0  0  0  0  0  0
    1.7970   63.4420   71.7330 C   0  0  0  0  0  0  0  0  0  0  0  0
    3.0800   62.6080   71.6880 C   0  0  0  0  0  0  0  0  0  0  0  0
    3.0120   61.4390   70.7000 C   0  0  0  0  0  0  0  0  0  0  0  0
    4.3830   60.9850   70.2010 C   0  0  0  0  0  0  0  0  0  0  0  0
    5.3700   60.8390   71.3500 C   0  0  0  0  0  0  0  0  0  0  0  0
    1.5260   67.5460   66.4610 C   0  0  0  0  0  0  0  0  0  0  0  0
    1.5590   68.5980   65.3530 C   0  0  0  0  0  0  0  0  0  0  0  0
    2.9750   69.0390   64.9740 C   0  0  0  0  0  0  0  0  0  0  0  0
    3.8840   69.4290   66.1430 C   0  0  0  0  0  0  0  0  0  0  0  0
    5.2930   69.8920   65.7590 C   0  0  0  0  0  0  0  0  0  0  0  0
    6.3160   69.9090   66.8990 C   0  0  0  0  0  0  0  0  0  0  0  0
    7.0170   71.0380   69.0780 C   0  0  0  0  0  0  0  0  0  0  0  0
    5.8640   70.6090   68.1820 C   0  0  0  0  0  0  0  0  0  0  0  0
    2.2145   66.5353   69.5631 H   0  0  0  0  0  0  0  0  0  0  0  0
    1.1081   67.5415   70.5756 H   0  0  0  0  0  0  0  0  0  0  0  0
    0.5738   65.6635   71.6659 H   0  0  0  0  0  0  0  0  0  0  0  0
   -0.2860   65.1630   70.1348 H   0  0  0  0  0  0  0  0  0  0  0  0
    1.1934   63.5671   69.6718 H   0  0  0  0  0  0  0  0  0  0  0  0
    2.5981   64.6296   70.1501 H   0  0  0  0  0  0  0  0  0  0  0  0
    1.8530   64.1420   72.5797 H   0  0  0  0  0  0  0  0  0  0  0  0
    0.9413   62.7608   71.8506 H   0  0  0  0  0  0  0  0  0  0  0  0
    3.9124   63.2645   71.3945 H   0  0  0  0  0  0  0  0  0  0  0  0
    3.2228   62.1779   72.6903 H   0  0  0  0  0  0  0  0  0  0  0  0
    2.5236   60.5889   71.1988 H   0  0  0  0  0  0  0  0  0  0  0  0
    2.4467   61.7877   69.8232 H   0  0  0  0  0  0  0  0  0  0  0  0
    4.2765   60.0142   69.6948 H   0  0  0  0  0  0  0  0  0  0  0  0
    4.7689   61.7461   69.5068 H   0  0  0  0  0  0  0  0  0  0  0  0
    4.8332   60.9184   72.3068 H   0  0  0  0  0  0  0  0  0  0  0  0
    5.8637   59.8581   71.2869 H   0  0  0  0  0  0  0  0  0  0  0  0
    6.1266   61.6350   71.2869 H   0  0  0  0  0  0  0  0  0  0  0  0
    2.5589   67.2656   66.7150 H   0  0  0  0  0  0  0  0  0  0  0  0
    0.9578   66.6803   66.0900 H   0  0  0  0  0  0  0  0  0  0  0  0
    1.0738   68.1783   64.4594 H   0  0  0  0  0  0  0  0  0  0  0  0
    1.0336   69.4864   65.7335 H   0  0  0  0  0  0  0  0  0  0  0  0
    3.4548   68.2087   64.4352 H   0  0  0  0  0  0  0  0  0  0  0  0
    2.8538   69.9510   64.3710 H   0  0  0  0  0  0  0  0  0  0  0  0
    3.3965   70.2479   66.6924 H   0  0  0  0  0  0  0  0  0  0  0  0
    4.0193   68.5136   66.7378 H   0  0  0  0  0  0  0  0  0  0  0  0
    5.6696   69.2174   64.9760 H   0  0  0  0  0  0  0  0  0  0  0  0
    5.1884   70.9370   65.4320 H   0  0  0  0  0  0  0  0  0  0  0  0
    6.5601   68.8663   67.1503 H   0  0  0  0  0  0  0  0  0  0  0  0
    7.1731   70.4887   66.5257 H   0  0  0  0  0  0  0  0  0  0  0  0
    6.7225   70.9284   70.1322 H   0  0  0  0  0  0  0  0  0  0  0  0
    7.8941   70.4060   68.8747 H   0  0  0  0  0  0  0  0  0  0  0  0
    7.2677   72.0896   68.8747 H   0  0  0  0  0  0  0  0  0  0  0  0
    5.2218   69.9181   68.7478 H   0  0  0  0  0  0  0  0  0  0  0  0
    5.3306   71.5228   67.8813 H   0  0  0  0  0  0  0  0  0  0  0  0
  2  1  2  0
  3  1  1  0
  4  3  2  0
  5  3  1  0
  6  5  1  0
  7  6  1  0
  8  7  1  0
  9  8  1  0
 10  9  1  0
 11 10  1  0
 12 11  1  0
 13  1  1  0
 14 13  1  0
 15 14  1  0
 16 15  1  0
 17 16  1  0
 18 17  1  0
 20 19  1  0
 20 18  1  0
  5 21  1  0
  5 22  1  0
  6 23  1  0
  6 24  1  0
  7 25  1  0
  7 26  1  0
  8 27  1  0
  8 28  1  0
  9 29  1  0
  9 30  1  0
 10 31  1  0
 10 32  1  0
 11 33  1  0
 11 34  1  0
 12 35  1  0
 12 36  1  0
 12 37  1  0
 13 38  1  0
 13 39  1  0
 14 40  1  0
 14 41  1  0
 15 42  1  0
 15 43  1  0
 16 44  1  0
 16 45  1  0
 17 46  1  0
 17 47  1  0
 18 48  1  0
 18 49  1  0
 19 50  1  0
 19 51  1  0
 19 52  1  0
 20 53  1  0
 20 54  1  0
M  END
>  <score>  (7) 
-6.927

$$$$
=
     RDKit          3D

 54 53  0  0  0  0  0  0  0  0999 V2000
    0.3330   65.7330   70.6470 C   0  0  0  0  0  0  0  0  0  0  0  0
   -0.2720   66.1470   71.6270 O   0  0  0  0  0  0  0  0  0  0  0  0
    0.2940   66.5380   69.3530 C   0  0  0  0  0  0  0  0  0  0  0  0
   -0.6500   66.3980   68.5840 O   0  0  0  0  0  0  0  0  0  0  0  0
    1.4320   67.4980   69.1050 C   0  0  0  0  0  0  0  0  0  0  0  0
    1.4780   67.9170   67.6390 C   0  0  0  0  0  0  0  0  0  0  0  0
    2.0870   69.3040   67.4240 C   0  0  0  0  0  0  0  0  0  0  0  0
    2.6240   69.9360   68.7130 C   0  0  0  0  0  0  0  0  0  0  0  0
    4.0900   70.3450   68.5570 C   0  0  0  0  0  0  0  0  0  0  0  0
    4.7120   69.8890   67.2320 C   0  0  0  0  0  0  0  0  0  0  0  0
    6.1020   70.4730   66.9810 C   0  0  0  0  0  0  0  0  0  0  0  0
    6.7930   70.8380   68.2870 C   0  0  0  0  0  0  0  0  0  0  0  0
    1.1380   64.4520   70.6030 C   0  0  0  0  0  0  0  0  0  0  0  0
    0.4230   63.3040   71.3140 C   0  0  0  0  0  0  0  0  0  0  0  0
    1.3570   62.1580   71.7120 C   0  0  0  0  0  0  0  0  0  0  0  0
    2.7140   62.5780   72.2860 C   0  0  0  0  0  0  0  0  0  0  0  0
    3.8770   61.6220   72.0020 C   0  0  0  0  0  0  0  0  0  0  0  0
    4.9870   62.1790   71.1060 C   0  0  0  0  0  0  0  0  0  0  0  0
    3.8910   62.7760   68.8790 C   0  0  0  0  0  0  0  0  0  0  0  0
    4.5640   63.2900   70.1430 C   0  0  0  0  0  0  0  0  0  0  0  0
    1.2929   68.3916   69.7312 H   0  0  0  0  0  0  0  0  0  0  0  0
    2.3777   66.9964   69.3580 H   0  0  0  0  0  0  0  0  0  0  0  0
    2.0799   67.1818   67.0846 H   0  0  0  0  0  0  0  0  0  0  0  0
    0.4392   67.9584   67.2796 H   0  0  0  0  0  0  0  0  0  0  0  0
    2.9165   69.2139   66.7072 H   0  0  0  0  0  0  0  0  0  0  0  0
    1.2854   69.9577   67.0497 H   0  0  0  0  0  0  0  0  0  0  0  0
    2.0258   70.8276   68.9522 H   0  0  0  0  0  0  0  0  0  0  0  0
    2.5526   69.1940   69.5219 H   0  0  0  0  0  0  0  0  0  0  0  0
    4.1538   71.4417   68.6129 H   0  0  0  0  0  0  0  0  0  0  0  0
    4.6518   69.8539   69.3653 H   0  0  0  0  0  0  0  0  0  0  0  0
    4.7916   68.7919   67.2435 H   0  0  0  0  0  0  0  0  0  0  0  0
    4.0576   70.2500   66.4249 H   0  0  0  0  0  0  0  0  0  0  0  0
    6.7124   69.7288   66.4485 H   0  0  0  0  0  0  0  0  0  0  0  0
    5.9908   71.3875   66.3799 H   0  0  0  0  0  0  0  0  0  0  0  0
    6.1726   70.5103   69.1342 H   0  0  0  0  0  0  0  0  0  0  0  0
    7.7724   70.3396   68.3354 H   0  0  0  0  0  0  0  0  0  0  0  0
    6.9334   71.9279   68.3354 H   0  0  0  0  0  0  0  0  0  0  0  0
    1.3028   64.1717   69.5522 H   0  0  0  0  0  0  0  0  0  0  0  0
    2.0920   64.6314   71.1203 H   0  0  0  0  0  0  0  0  0  0  0  0
   -0.0511   63.6994   72.2245 H   0  0  0  0  0  0  0  0  0  0  0  0
   -0.3122   62.8924   70.6069 H   0  0  0  0  0  0  0  0  0  0  0  0
    0.8423   61.5501   72.4706 H   0  0  0  0  0  0  0  0  0  0  0  0
    1.5793   61.6145   70.7818 H   0  0  0  0  0  0  0  0  0  0  0  0
    2.9716   63.5598   71.8621 H   0  0  0  0  0  0  0  0  0  0  0  0
    2.5896   62.5845   73.3789 H   0  0  0  0  0  0  0  0  0  0  0  0
    4.3281   61.3421   72.9654 H   0  0  0  0  0  0  0  0  0  0  0  0
    3.4426   60.7744   71.4516 H   0  0  0  0  0  0  0  0  0  0  0  0
    5.7788   62.5785   71.7568 H   0  0  0  0  0  0  0  0  0  0  0  0
    5.3125   61.3401   70.4733 H   0  0  0  0  0  0  0  0  0  0  0  0
    3.0441   62.1292   69.1516 H   0  0  0  0  0  0  0  0  0  0  0  0
    3.5260   63.6274   68.2858 H   0  0  0  0  0  0  0  0  0  0  0  0
    4.6163   62.1998   68.2858 H   0  0  0  0  0  0  0  0  0  0  0  0
    5.4597   63.8591   69.8534 H   0  0  0  0  0  0  0  0  0  0  0  0
    3.8264   63.9118   70.6715 H   0  0  0  0  0  0  0  0  0  0  0  0
  2  1  2  0
  3  1  1  0
  4  3  2  0
  5  3  1  0
  6  5  1  0
  7  6  1  0
  8  7  1  0
  9  8  1  0
 10  9  1  0
 11 10  1  0
 12 11  1  0
 13  1  1  0
 14 13  1  0
 15 14  1  0
 16 15  1  0
 17 16  1  0
 18 17  1  0
 20 19  1  0
 20 18  1  0
  5 21  1  0
  5 22  1  0
  6 23  1  0
  6 24  1  0
  7 25  1  0
  7 26  1  0
  8 27  1  0
  8 28  1  0
  9 29  1  0
  9 30  1  0
 10 31  1  0
 10 32  1  0
 11 33  1  0
 11 34  1  0
 12 35  1  0
 12 36  1  0
 12 37  1  0
 13 38  1  0
 13 39  1  0
 14 40  1  0
 14 41  1  0
 15 42  1  0
 15 43  1  0
 16 44  1  0
 16 45  1  0
 17 46  1  0
 17 47  1  0
 18 48  1  0
 18 49  1  0
 19 50  1  0
 19 51  1  0
 19 52  1  0
 20 53  1  0
 20 54  1  0
M  END
>  <score>  (8) 
-6.901

$$$$
=
     RDKit          3D

 54 53  0  0  0  0  0  0  0  0999 V2000
   -0.5760   68.7890   63.8700 C   0  0  0  0  0  0  0  0  0  0  0  0
   -1.7110   68.7110   63.4190 O   0  0  0  0  0  0  0  0  0  0  0  0
    0.5970   68.9510   62.9100 C   0  0  0  0  0  0  0  0  0  0  0  0
    0.3920   68.9470   61.7020 O   0  0  0  0  0  0  0  0  0  0  0  0
    1.9640   69.1380   63.5210 C   0  0  0  0  0  0  0  0  0  0  0  0
    2.7700   67.8450   63.4510 C   0  0  0  0  0  0  0  0  0  0  0  0
    3.7990   67.7090   64.5760 C   0  0  0  0  0  0  0  0  0  0  0  0
    3.6490   68.7780   65.6630 C   0  0  0  0  0  0  0  0  0  0  0  0
    4.9370   69.5900   65.8190 C   0  0  0  0  0  0  0  0  0  0  0  0
    5.1860   70.0680   67.2530 C   0  0  0  0  0  0  0  0  0  0  0  0
    6.5630   70.6990   67.4530 C   0  0  0  0  0  0  0  0  0  0  0  0
    6.8600   70.9240   68.9290 C   0  0  0  0  0  0  0  0  0  0  0  0
   -0.2230   68.7330   65.3410 C   0  0  0  0  0  0  0  0  0  0  0  0
   -1.4640   68.7880   66.2300 C   0  0  0  0  0  0  0  0  0  0  0  0
   -1.5930   67.5870   67.1700 C   0  0  0  0  0  0  0  0  0  0  0  0
   -0.2790   67.0480   67.7420 C   0  0  0  0  0  0  0  0  0  0  0  0
   -0.3570   66.4890   69.1670 C   0  0  0  0  0  0  0  0  0  0  0  0
    0.9880   66.2640   69.8630 C   0  0  0  0  0  0  0  0  0  0  0  0
    2.5190   64.3340   70.5310 C   0  0  0  0  0  0  0  0  0  0  0  0
    1.1280   64.9430   70.6220 C   0  0  0  0  0  0  0  0  0  0  0  0
    2.4994   69.9269   62.9723 H   0  0  0  0  0  0  0  0  0  0  0  0
    1.8425   69.4210   64.5770 H   0  0  0  0  0  0  0  0  0  0  0  0
    2.0732   66.9960   63.5112 H   0  0  0  0  0  0  0  0  0  0  0  0
    3.3261   67.8597   62.5020 H   0  0  0  0  0  0  0  0  0  0  0  0
    3.6805   66.7189   65.0405 H   0  0  0  0  0  0  0  0  0  0  0  0
    4.7945   67.8376   64.1260 H   0  0  0  0  0  0  0  0  0  0  0  0
    2.8277   69.4564   65.3888 H   0  0  0  0  0  0  0  0  0  0  0  0
    3.4341   68.2769   66.6184 H   0  0  0  0  0  0  0  0  0  0  0  0
    5.7849   68.9616   65.5089 H   0  0  0  0  0  0  0  0  0  0  0  0
    4.8327   70.4874   65.1915 H   0  0  0  0  0  0  0  0  0  0  0  0
    4.4200   70.8146   67.5094 H   0  0  0  0  0  0  0  0  0  0  0  0
    5.1379   69.1819   67.9031 H   0  0  0  0  0  0  0  0  0  0  0  0
    7.3280   70.0303   67.0316 H   0  0  0  0  0  0  0  0  0  0  0  0
    6.5749   71.6742   66.9442 H   0  0  0  0  0  0  0  0  0  0  0  0
    6.1300   70.3710   69.5384 H   0  0  0  0  0  0  0  0  0  0  0  0
    7.8746   70.5659   69.1576 H   0  0  0  0  0  0  0  0  0  0  0  0
    6.7899   71.9977   69.1576 H   0  0  0  0  0  0  0  0  0  0  0  0
    0.3161   67.7953   65.5414 H   0  0  0  0  0  0  0  0  0  0  0  0
    0.4009   69.6084   65.5742 H   0  0  0  0  0  0  0  0  0  0  0  0
   -1.4167   69.7032   66.8384 H   0  0  0  0  0  0  0  0  0  0  0  0
   -2.3402   68.7751   65.5651 H   0  0  0  0  0  0  0  0  0  0  0  0
   -2.2319   67.8855   68.0142 H   0  0  0  0  0  0  0  0  0  0  0  0
   -2.0114   66.7725   66.5605 H   0  0  0  0  0  0  0  0  0  0  0  0
    0.0725   66.2420   67.0810 H   0  0  0  0  0  0  0  0  0  0  0  0
    0.4026   67.9098   67.7937 H   0  0  0  0  0  0  0  0  0  0  0  0
   -0.9396   67.1955   69.7764 H   0  0  0  0  0  0  0  0  0  0  0  0
   -0.8191   65.4949   69.0758 H   0  0  0  0  0  0  0  0  0  0  0  0
    1.7757   66.2985   69.0959 H   0  0  0  0  0  0  0  0  0  0  0  0
    1.0700   67.0564   70.6215 H   0  0  0  0  0  0  0  0  0  0  0  0
    2.9111   64.1623   71.5443 H   0  0  0  0  0  0  0  0  0  0  0  0
    2.4657   63.3769   69.9914 H   0  0  0  0  0  0  0  0  0  0  0  0
    3.1861   65.0224   69.9914 H   0  0  0  0  0  0  0  0  0  0  0  0
    0.4058   64.2248   70.2065 H   0  0  0  0  0  0  0  0  0  0  0  0
    0.9387   65.1589   71.6839 H   0  0  0  0  0  0  0  0  0  0  0  0
  2  1  2  0
  3  1  1  0
  4  3  2  0
  5  3  1  0
  6  5  1  0
  7  6  1  0
  8  7  1  0
  9  8  1  0
 10  9  1  0
 11 10  1  0
 12 11  1  0
 13  1  1  0
 14 13  1  0
 15 14  1  0
 16 15  1  0
 17 16  1  0
 18 17  1  0
 20 19  1  0
 20 18  1  0
  5 21  1  0
  5 22  1  0
  6 23  1  0
  6 24  1  0
  7 25  1  0
  7 26  1  0
  8 27  1  0
  8 28  1  0
  9 29  1  0
  9 30  1  0
 10 31  1  0
 10 32  1  0
 11 33  1  0
 11 34  1  0
 12 35  1  0
 12 36  1  0
 12 37  1  0
 13 38  1  0
 13 39  1  0
 14 40  1  0
 14 41  1  0
 15 42  1  0
 15 43  1  0
 16 44  1  0
 16 45  1  0
 17 46  1  0
 17 47  1  0
 18 48  1  0
 18 49  1  0
 19 50  1  0
 19 51  1  0
 19 52  1  0
 20 53  1  0
 20 54  1  0
M  END
>  <score>  (9) 
-6.82

$$$$
