=
     RDKit          3D

 34 37  0  0  0  0  0  0  0  0999 V2000
   -0.0190   68.3080   66.6930 O   0  0  0  0  0  0  0  0  0  0  0  0
    1.0650   68.6420   66.2090 C   0  0  0  0  0  0  0  0  0  0  0  0
    2.0590   69.0090   67.0680 N   0  0  0  0  0  0  0  0  0  0  0  0
    3.3950   69.3840   66.8430 C   0  0  0  0  0  0  0  0  0  0  0  0
    4.0470   70.0930   67.8800 C   0  0  0  0  0  0  0  0  0  0  0  0
    3.3460   70.5090   69.1460 C   0  0  0  0  0  0  0  0  0  0  0  0
    5.3960   70.4280   67.7340 C   0  0  0  0  0  0  0  0  0  0  0  0
    6.0460   70.0450   66.5840 C   0  0  0  0  0  0  0  0  0  0  0  0
    5.4540   69.3550   65.5930 N   0  0  0  0  0  0  0  0  0  0  0  0
    4.1350   69.0180   65.7020 C   0  0  0  0  0  0  0  0  0  0  0  0
    3.5810   68.2080   64.6700 N   0  0  0  0  0  0  0  0  0  0  0  0
    2.3560   68.5410   64.0360 C   0  0  0  0  0  0  0  0  0  0  0  0
    1.1860   68.7630   64.7510 C   0  0  0  0  0  0  0  0  0  0  0  0
   -0.0010   69.0470   64.0470 C   0  0  0  0  0  0  0  0  0  0  0  0
   -0.0010   69.1130   62.6610 C   0  0  0  0  0  0  0  0  0  0  0  0
    1.1910   68.8750   62.0180 C   0  0  0  0  0  0  0  0  0  0  0  0
    2.3410   68.5890   62.6670 N   0  0  0  0  0  0  0  0  0  0  0  0
    4.5820   67.5430   63.7860 C   0  0  0  0  0  0  0  0  0  0  0  0
    4.9060   66.0760   63.9370 C   0  0  0  0  0  0  0  0  0  0  0  0
    4.1580   66.5510   62.7300 C   0  0  0  0  0  0  0  0  0  0  0  0
    1.7807   69.0119   68.0597 H   0  0  0  0  0  0  0  0  0  0  0  0
    3.9252   70.1653   70.0157 H   0  0  0  0  0  0  0  0  0  0  0  0
    3.2587   71.6052   69.1736 H   0  0  0  0  0  0  0  0  0  0  0  0
    2.3420   70.0604   69.1736 H   0  0  0  0  0  0  0  0  0  0  0  0
    5.9257   70.9852   68.5207 H   0  0  0  0  0  0  0  0  0  0  0  0
    7.1055   70.3173   66.4688 H   0  0  0  0  0  0  0  0  0  0  0  0
   -0.9358   69.2179   64.6010 H   0  0  0  0  0  0  0  0  0  0  0  0
   -0.9175   69.3463   62.0993 H   0  0  0  0  0  0  0  0  0  0  0  0
    1.2092   68.9198   60.9191 H   0  0  0  0  0  0  0  0  0  0  0  0
    5.1638   68.4765   63.7915 H   0  0  0  0  0  0  0  0  0  0  0  0
    5.9455   65.7301   63.8381 H   0  0  0  0  0  0  0  0  0  0  0  0
    4.7262   65.3172   64.7128 H   0  0  0  0  0  0  0  0  0  0  0  0
    4.6487   66.5534   61.7455 H   0  0  0  0  0  0  0  0  0  0  0  0
    3.2026   66.2845   62.2544 H   0  0  0  0  0  0  0  0  0  0  0  0
  2  1  2  0
  3  2  1  0
  4  3  1  0
  5  4  2  0
  6  5  1  0
  7  5  1  0
  8  7  2  0
  9  8  1  0
 10  4  1  0
 10  9  2  0
 11 10  1  0
 12 11  1  0
 13 12  2  0
 13  2  1  0
 14 13  1  0
 15 14  2  0
 16 15  1  0
 17 16  2  0
 17 12  1  0
 18 11  1  0
 19 18  1  0
 20 19  1  0
 20 18  1  0
  3 21  1  0
  6 22  1  0
  6 23  1  0
  6 24  1  0
  7 25  1  0
  8 26  1  0
 14 27  1  0
 15 28  1  0
 16 29  1  0
 18 30  1  0
 19 31  1  0
 19 32  1  0
 20 33  1  0
 20 34  1  0
M  END
>  <score>  (1) 
-9.768

$$$$
=
     RDKit          3D

 34 37  0  0  0  0  0  0  0  0999 V2000
    5.5350   68.4270   65.0620 O   0  0  0  0  0  0  0  0  0  0  0  0
    4.3720   68.7550   65.3050 C   0  0  0  0  0  0  0  0  0  0  0  0
    3.4370   68.5500   64.3340 N   0  0  0  0  0  0  0  0  0  0  0  0
    2.0470   68.7610   64.3170 C   0  0  0  0  0  0  0  0  0  0  0  0
    1.4240   68.8390   63.0480 C   0  0  0  0  0  0  0  0  0  0  0  0
    2.1970   68.7790   61.7580 C   0  0  0  0  0  0  0  0  0  0  0  0
    0.0360   68.9780   62.9770 C   0  0  0  0  0  0  0  0  0  0  0  0
   -0.6800   69.0250   64.1510 C   0  0  0  0  0  0  0  0  0  0  0  0
   -0.1130   68.9350   65.3670 N   0  0  0  0  0  0  0  0  0  0  0  0
    1.2420   68.8050   65.4710 C   0  0  0  0  0  0  0  0  0  0  0  0
    1.7820   68.6190   66.7760 N   0  0  0  0  0  0  0  0  0  0  0  0
    2.8780   69.3870   67.2470 C   0  0  0  0  0  0  0  0  0  0  0  0
    4.0800   69.4690   66.5550 C   0  0  0  0  0  0  0  0  0  0  0  0
    5.1380   70.2180   67.1080 C   0  0  0  0  0  0  0  0  0  0  0  0
    4.9790   70.8710   68.3210 C   0  0  0  0  0  0  0  0  0  0  0  0
    3.7660   70.7410   68.9560 C   0  0  0  0  0  0  0  0  0  0  0  0
    2.7400   70.0200   68.4540 N   0  0  0  0  0  0  0  0  0  0  0  0
    0.7860   68.2440   67.8220 C   0  0  0  0  0  0  0  0  0  0  0  0
    0.1240   66.8870   67.8200 C   0  0  0  0  0  0  0  0  0  0  0  0
    1.1160   67.2280   68.8890 C   0  0  0  0  0  0  0  0  0  0  0  0
    3.8175   68.1725   63.4544 H   0  0  0  0  0  0  0  0  0  0  0  0
    3.2715   68.6956   61.9780 H   0  0  0  0  0  0  0  0  0  0  0  0
    1.8727   67.9033   61.1766 H   0  0  0  0  0  0  0  0  0  0  0  0
    2.0117   69.6942   61.1766 H   0  0  0  0  0  0  0  0  0  0  0  0
   -0.4732   69.0483   62.0045 H   0  0  0  0  0  0  0  0  0  0  0  0
   -1.7721   69.1422   64.0918 H   0  0  0  0  0  0  0  0  0  0  0  0
    6.0970   70.2851   66.5735 H   0  0  0  0  0  0  0  0  0  0  0  0
    5.7916   71.4697   68.7583 H   0  0  0  0  0  0  0  0  0  0  0  0
    3.6243   71.2496   69.9210 H   0  0  0  0  0  0  0  0  0  0  0  0
    0.4329   69.2858   67.8185 H   0  0  0  0  0  0  0  0  0  0  0  0
   -0.9434   66.7962   68.0699 H   0  0  0  0  0  0  0  0  0  0  0  0
    0.0224   66.0740   67.0861 H   0  0  0  0  0  0  0  0  0  0  0  0
    0.7762   67.3873   69.9230 H   0  0  0  0  0  0  0  0  0  0  0  0
    2.0427   66.7684   69.2632 H   0  0  0  0  0  0  0  0  0  0  0  0
  2  1  2  0
  3  2  1  0
  4  3  1  0
  5  4  2  0
  6  5  1  0
  7  5  1  0
  8  7  2  0
  9  8  1  0
 10  4  1  0
 10  9  2  0
 11 10  1  0
 12 11  1  0
 13 12  2  0
 13  2  1  0
 14 13  1  0
 15 14  2  0
 16 15  1  0
 17 16  2  0
 17 12  1  0
 18 11  1  0
 19 18  1  0
 20 19  1  0
 20 18  1  0
  3 21  1  0
  6 22  1  0
  6 23  1  0
  6 24  1  0
  7 25  1  0
  8 26  1  0
 14 27  1  0
 15 28  1  0
 16 29  1  0
 18 30  1  0
 19 31  1  0
 19 32  1  0
 20 33  1  0
 20 34  1  0
M  END
>  <score>  (2) 
-9.709

$$$$
=
     RDKit          3D

 34 37  0  0  0  0  0  0  0  0999 V2000
    4.9630   70.2130   65.9540 O   0  0  0  0  0  0  0  0  0  0  0  0
    4.0160   69.4750   65.6740 C   0  0  0  0  0  0  0  0  0  0  0  0
    3.0450   69.3000   66.6140 N   0  0  0  0  0  0  0  0  0  0  0  0
    1.8370   68.5810   66.5860 C   0  0  0  0  0  0  0  0  0  0  0  0
    1.2520   68.2580   67.8340 C   0  0  0  0  0  0  0  0  0  0  0  0
    1.9070   68.5880   69.1490 C   0  0  0  0  0  0  0  0  0  0  0  0
    0.0170   67.6050   67.8600 C   0  0  0  0  0  0  0  0  0  0  0  0
   -0.5930   67.3070   66.6630 C   0  0  0  0  0  0  0  0  0  0  0  0
   -0.0660   67.6200   65.4660 N   0  0  0  0  0  0  0  0  0  0  0  0
    1.1430   68.2520   65.4060 C   0  0  0  0  0  0  0  0  0  0  0  0
    1.6110   68.6450   64.1200 N   0  0  0  0  0  0  0  0  0  0  0  0
    2.9290   68.3520   63.6840 C   0  0  0  0  0  0  0  0  0  0  0  0
    4.0520   68.7200   64.4140 C   0  0  0  0  0  0  0  0  0  0  0  0
    5.3300   68.4320   63.8940 C   0  0  0  0  0  0  0  0  0  0  0  0
    5.4650   67.7830   62.6760 C   0  0  0  0  0  0  0  0  0  0  0  0
    4.3110   67.4540   62.0040 C   0  0  0  0  0  0  0  0  0  0  0  0
    3.0750   67.7290   62.4730 N   0  0  0  0  0  0  0  0  0  0  0  0
    0.5780   68.6300   63.0420 C   0  0  0  0  0  0  0  0  0  0  0  0
   -0.2970   69.8330   62.7840 C   0  0  0  0  0  0  0  0  0  0  0  0
    0.7480   69.4460   61.7840 C   0  0  0  0  0  0  0  0  0  0  0  0
    3.2292   69.7812   67.5058 H   0  0  0  0  0  0  0  0  0  0  0  0
    1.2576   68.2608   69.9744 H   0  0  0  0  0  0  0  0  0  0  0  0
    2.8751   68.0700   69.2166 H   0  0  0  0  0  0  0  0  0  0  0  0
    2.0668   69.6742   69.2166 H   0  0  0  0  0  0  0  0  0  0  0  0
   -0.4568   67.3353   68.8154 H   0  0  0  0  0  0  0  0  0  0  0  0
   -1.5615   66.7860   66.6865 H   0  0  0  0  0  0  0  0  0  0  0  0
    6.2275   68.7244   64.4589 H   0  0  0  0  0  0  0  0  0  0  0  0
    6.4557   67.5409   62.2637 H   0  0  0  0  0  0  0  0  0  0  0  0
    4.3994   66.9407   61.0351 H   0  0  0  0  0  0  0  0  0  0  0  0
    0.4007   67.5675   63.2648 H   0  0  0  0  0  0  0  0  0  0  0  0
   -1.3623   69.6966   62.5461 H   0  0  0  0  0  0  0  0  0  0  0  0
   -0.5377   70.7514   63.3395 H   0  0  0  0  0  0  0  0  0  0  0  0
    0.4494   69.0258   60.8123 H   0  0  0  0  0  0  0  0  0  0  0  0
    1.5909   69.9634   61.3025 H   0  0  0  0  0  0  0  0  0  0  0  0
  2  1  2  0
  3  2  1  0
  4  3  1  0
  5  4  2  0
  6  5  1  0
  7  5  1  0
  8  7  2  0
  9  8  1  0
 10  4  1  0
 10  9  2  0
 11 10  1  0
 12 11  1  0
 13 12  2  0
 13  2  1  0
 14 13  1  0
 15 14  2  0
 16 15  1  0
 17 16  2  0
 17 12  1  0
 18 11  1  0
 19 18  1  0
 20 19  1  0
 20 18  1  0
  3 21  1  0
  6 22  1  0
  6 23  1  0
  6 24  1  0
  7 25  1  0
  8 26  1  0
 14 27  1  0
 15 28  1  0
 16 29  1  0
 18 30  1  0
 19 31  1  0
 19 32  1  0
 20 33  1  0
 20 34  1  0
M  END
>  <score>  (3) 
-9.258

$$$$
=
     RDKit          3D

 34 37  0  0  0  0  0  0  0  0999 V2000
    1.8900   66.5950   66.7710 O   0  0  0  0  0  0  0  0  0  0  0  0
    2.0180   66.8400   65.5690 C   0  0  0  0  0  0  0  0  0  0  0  0
    1.2020   67.7860   65.0220 N   0  0  0  0  0  0  0  0  0  0  0  0
    1.1330   68.3220   63.7250 C   0  0  0  0  0  0  0  0  0  0  0  0
   -0.0670   68.9800   63.3630 C   0  0  0  0  0  0  0  0  0  0  0  0
   -1.2610   69.0520   64.2780 C   0  0  0  0  0  0  0  0  0  0  0  0
   -0.1610   69.5890   62.1100 C   0  0  0  0  0  0  0  0  0  0  0  0
    0.9280   69.5350   61.2710 C   0  0  0  0  0  0  0  0  0  0  0  0
    2.0850   68.9330   61.5980 N   0  0  0  0  0  0  0  0  0  0  0  0
    2.2060   68.3220   62.8130 C   0  0  0  0  0  0  0  0  0  0  0  0
    3.4810   67.7810   63.1480 N   0  0  0  0  0  0  0  0  0  0  0  0
    3.6240   66.4620   63.6510 C   0  0  0  0  0  0  0  0  0  0  0  0
    2.9290   66.0140   64.7670 C   0  0  0  0  0  0  0  0  0  0  0  0
    3.1570   64.7030   65.2320 C   0  0  0  0  0  0  0  0  0  0  0  0
    4.0540   63.8700   64.5810 C   0  0  0  0  0  0  0  0  0  0  0  0
    4.7120   64.3820   63.4870 C   0  0  0  0  0  0  0  0  0  0  0  0
    4.5220   65.6370   63.0270 N   0  0  0  0  0  0  0  0  0  0  0  0
    4.6080   68.2480   62.2890 C   0  0  0  0  0  0  0  0  0  0  0  0
    5.2930   69.5690   62.5470 C   0  0  0  0  0  0  0  0  0  0  0  0
    6.0250   68.2890   62.8090 C   0  0  0  0  0  0  0  0  0  0  0  0
    0.5117   68.1784   65.6781 H   0  0  0  0  0  0  0  0  0  0  0  0
   -0.9227   69.0316   65.3245 H   0  0  0  0  0  0  0  0  0  0  0  0
   -1.8121   69.9850   64.0889 H   0  0  0  0  0  0  0  0  0  0  0  0
   -1.9202   68.1920   64.0889 H   0  0  0  0  0  0  0  0  0  0  0  0
   -1.0846   70.1002   61.8008 H   0  0  0  0  0  0  0  0  0  0  0  0
    0.8481   70.0088   60.2815 H   0  0  0  0  0  0  0  0  0  0  0  0
    2.6186   64.3377   66.1190 H   0  0  0  0  0  0  0  0  0  0  0  0
    4.2323   62.8407   64.9257 H   0  0  0  0  0  0  0  0  0  0  0  0
    5.4296   63.7360   62.9600 H   0  0  0  0  0  0  0  0  0  0  0  0
    4.1055   67.7832   61.4279 H   0  0  0  0  0  0  0  0  0  0  0  0
    5.5894   70.2082   61.7023 H   0  0  0  0  0  0  0  0  0  0  0  0
    5.0557   70.4633   63.1419 H   0  0  0  0  0  0  0  0  0  0  0  0
    6.8584   67.9894   62.1565 H   0  0  0  0  0  0  0  0  0  0  0  0
    6.5466   67.8565   63.6756 H   0  0  0  0  0  0  0  0  0  0  0  0
  2  1  2  0
  3  2  1  0
  4  3  1  0
  5  4  2  0
  6  5  1  0
  7  5  1  0
  8  7  2  0
  9  8  1  0
 10  4  1  0
 10  9  2  0
 11 10  1  0
 12 11  1  0
 13 12  2  0
 13  2  1  0
 14 13  1  0
 15 14  2  0
 16 15  1  0
 17 16  2  0
 17 12  1  0
 18 11  1  0
 19 18  1  0
 20 19  1  0
 20 18  1  0
  3 21  1  0
  6 22  1  0
  6 23  1  0
  6 24  1  0
  7 25  1  0
  8 26  1  0
 14 27  1  0
 15 28  1  0
 16 29  1  0
 18 30  1  0
 19 31  1  0
 19 32  1  0
 20 33  1  0
 20 34  1  0
M  END
>  <score>  (4) 
-9.048

$$$$
=
     RDKit          3D

 34 37  0  0  0  0  0  0  0  0999 V2000
   -2.2780   69.1250   65.8360 O   0  0  0  0  0  0  0  0  0  0  0  0
   -1.1080   68.7380   65.8170 C   0  0  0  0  0  0  0  0  0  0  0  0
   -0.3740   68.9840   64.6950 N   0  0  0  0  0  0  0  0  0  0  0  0
    0.9730   68.7250   64.3850 C   0  0  0  0  0  0  0  0  0  0  0  0
    1.3290   68.7230   63.0150 C   0  0  0  0  0  0  0  0  0  0  0  0
    0.3200   68.9110   61.9130 C   0  0  0  0  0  0  0  0  0  0  0  0
    2.6670   68.5400   62.6580 C   0  0  0  0  0  0  0  0  0  0  0  0
    3.5970   68.3760   63.6590 C   0  0  0  0  0  0  0  0  0  0  0  0
    3.2860   68.3920   64.9670 N   0  0  0  0  0  0  0  0  0  0  0  0
    1.9860   68.5630   65.3490 C   0  0  0  0  0  0  0  0  0  0  0  0
    1.7240   68.6660   66.7450 N   0  0  0  0  0  0  0  0  0  0  0  0
    0.7050   67.9040   67.3730 C   0  0  0  0  0  0  0  0  0  0  0  0
   -0.6120   67.9190   66.9310 C   0  0  0  0  0  0  0  0  0  0  0  0
   -1.5760   67.1680   67.6330 C   0  0  0  0  0  0  0  0  0  0  0  0
   -1.2150   66.4180   68.7410 C   0  0  0  0  0  0  0  0  0  0  0  0
    0.1040   66.4540   69.1270 C   0  0  0  0  0  0  0  0  0  0  0  0
    1.0460   67.1740   68.4800 N   0  0  0  0  0  0  0  0  0  0  0  0
    2.9250   68.9230   67.5940 C   0  0  0  0  0  0  0  0  0  0  0  0
    3.7820   70.1480   67.3850 C   0  0  0  0  0  0  0  0  0  0  0  0
    2.9380   70.0320   68.6170 C   0  0  0  0  0  0  0  0  0  0  0  0
   -0.9009   69.4421   63.9378 H   0  0  0  0  0  0  0  0  0  0  0  0
   -0.6717   69.0958   62.3515 H   0  0  0  0  0  0  0  0  0  0  0  0
    0.6119   69.7702   61.2913 H   0  0  0  0  0  0  0  0  0  0  0  0
    0.2828   68.0043   61.2913 H   0  0  0  0  0  0  0  0  0  0  0  0
    2.9704   68.5273   61.6007 H   0  0  0  0  0  0  0  0  0  0  0  0
    4.6486   68.2240   63.3745 H   0  0  0  0  0  0  0  0  0  0  0  0
   -2.6239   67.1772   67.2986 H   0  0  0  0  0  0  0  0  0  0  0  0
   -1.9550   65.8173   69.2902 H   0  0  0  0  0  0  0  0  0  0  0  0
    0.4073   65.8672   70.0066 H   0  0  0  0  0  0  0  0  0  0  0  0
    3.1050   67.8381   67.6169 H   0  0  0  0  0  0  0  0  0  0  0  0
    4.8768   70.0719   67.4599 H   0  0  0  0  0  0  0  0  0  0  0  0
    3.8878   70.8941   66.5837 H   0  0  0  0  0  0  0  0  0  0  0  0
    3.4138   69.8710   69.5956 H   0  0  0  0  0  0  0  0  0  0  0  0
    2.1689   70.6582   69.0928 H   0  0  0  0  0  0  0  0  0  0  0  0
  2  1  2  0
  3  2  1  0
  4  3  1  0
  5  4  2  0
  6  5  1  0
  7  5  1  0
  8  7  2  0
  9  8  1  0
 10  4  1  0
 10  9  2  0
 11 10  1  0
 12 11  1  0
 13 12  2  0
 13  2  1  0
 14 13  1  0
 15 14  2  0
 16 15  1  0
 17 16  2  0
 17 12  1  0
 18 11  1  0
 19 18  1  0
 20 19  1  0
 20 18  1  0
  3 21  1  0
  6 22  1  0
  6 23  1  0
  6 24  1  0
  7 25  1  0
  8 26  1  0
 14 27  1  0
 15 28  1  0
 16 29  1  0
 18 30  1  0
 19 31  1  0
 19 32  1  0
 20 33  1  0
 20 34  1  0
M  END
>  <score>  (5) 
-8.849

$$$$
=
     RDKit          3D

 34 37  0  0  0  0  0  0  0  0999 V2000
    3.3830   62.7050   68.4520 O   0  0  0  0  0  0  0  0  0  0  0  0
    2.9470   62.9410   69.5810 C   0  0  0  0  0  0  0  0  0  0  0  0
    1.9840   63.8980   69.7050 N   0  0  0  0  0  0  0  0  0  0  0  0
    1.2610   64.3550   70.8200 C   0  0  0  0  0  0  0  0  0  0  0  0
    0.6370   65.6210   70.7070 C   0  0  0  0  0  0  0  0  0  0  0  0
    0.7860   66.4950   69.4900 C   0  0  0  0  0  0  0  0  0  0  0  0
   -0.1510   66.0890   71.7620 C   0  0  0  0  0  0  0  0  0  0  0  0
   -0.3000   65.2940   72.8740 C   0  0  0  0  0  0  0  0  0  0  0  0
    0.2680   64.0810   72.9970 N   0  0  0  0  0  0  0  0  0  0  0  0
    1.0500   63.5970   71.9870 C   0  0  0  0  0  0  0  0  0  0  0  0
    1.5500   62.2700   72.1270 N   0  0  0  0  0  0  0  0  0  0  0  0
    2.9180   61.9620   71.9140 C   0  0  0  0  0  0  0  0  0  0  0  0
    3.5780   62.2900   70.7360 C   0  0  0  0  0  0  0  0  0  0  0  0
    4.9270   61.9120   70.5810 C   0  0  0  0  0  0  0  0  0  0  0  0
    5.5880   61.2300   71.5920 C   0  0  0  0  0  0  0  0  0  0  0  0
    4.8720   60.9320   72.7270 C   0  0  0  0  0  0  0  0  0  0  0  0
    3.5760   61.2720   72.8970 N   0  0  0  0  0  0  0  0  0  0  0  0
    0.8820   61.4540   73.1830 C   0  0  0  0  0  0  0  0  0  0  0  0
   -0.4760   60.8370   72.9520 C   0  0  0  0  0  0  0  0  0  0  0  0
    0.7330   59.9590   73.0400 C   0  0  0  0  0  0  0  0  0  0  0  0
    1.7429   64.3713   68.8225 H   0  0  0  0  0  0  0  0  0  0  0  0
    0.9632   67.5341   69.8043 H   0  0  0  0  0  0  0  0  0  0  0  0
    1.6372   66.1437   68.8883 H   0  0  0  0  0  0  0  0  0  0  0  0
   -0.1335   66.4456   68.8883 H   0  0  0  0  0  0  0  0  0  0  0  0
   -0.6414   67.0719   71.7041 H   0  0  0  0  0  0  0  0  0  0  0  0
   -0.9150   65.6691   73.7053 H   0  0  0  0  0  0  0  0  0  0  0  0
    5.4598   62.1598   69.6511 H   0  0  0  0  0  0  0  0  0  0  0  0
    6.6438   60.9390   71.4895 H   0  0  0  0  0  0  0  0  0  0  0  0
    5.3802   60.3893   73.5376 H   0  0  0  0  0  0  0  0  0  0  0  0
    1.3167   62.1268   73.9369 H   0  0  0  0  0  0  0  0  0  0  0  0
   -1.2206   60.8291   73.7616 H   0  0  0  0  0  0  0  0  0  0  0  0
   -1.2786   60.9811   72.2137 H   0  0  0  0  0  0  0  0  0  0  0  0
    0.8756   59.3067   73.9142 H   0  0  0  0  0  0  0  0  0  0  0  0
    1.1843   59.1924   72.3930 H   0  0  0  0  0  0  0  0  0  0  0  0
  2  1  2  0
  3  2  1  0
  4  3  1  0
  5  4  2  0
  6  5  1  0
  7  5  1  0
  8  7  2  0
  9  8  1  0
 10  4  1  0
 10  9  2  0
 11 10  1  0
 12 11  1  0
 13 12  2  0
 13  2  1  0
 14 13  1  0
 15 14  2  0
 16 15  1  0
 17 16  2  0
 17 12  1  0
 18 11  1  0
 19 18  1  0
 20 19  1  0
 20 18  1  0
  3 21  1  0
  6 22  1  0
  6 23  1  0
  6 24  1  0
  7 25  1  0
  8 26  1  0
 14 27  1  0
 15 28  1  0
 16 29  1  0
 18 30  1  0
 19 31  1  0
 19 32  1  0
 20 33  1  0
 20 34  1  0
M  END
>  <score>  (6) 
-8.546

$$$$
=
     RDKit          3D

 34 37  0  0  0  0  0  0  0  0999 V2000
    0.0670   68.6040   61.7910 O   0  0  0  0  0  0  0  0  0  0  0  0
    0.7210   68.3750   62.8100 C   0  0  0  0  0  0  0  0  0  0  0  0
    0.0480   68.2930   63.9930 N   0  0  0  0  0  0  0  0  0  0  0  0
    0.4840   67.9990   65.2970 C   0  0  0  0  0  0  0  0  0  0  0  0
   -0.3640   68.3870   66.3620 C   0  0  0  0  0  0  0  0  0  0  0  0
   -1.6440   69.1500   66.1450 C   0  0  0  0  0  0  0  0  0  0  0  0
   -0.0090   68.0570   67.6720 C   0  0  0  0  0  0  0  0  0  0  0  0
    1.1550   67.3530   67.8790 C   0  0  0  0  0  0  0  0  0  0  0  0
    1.9670   66.9580   66.8830 N   0  0  0  0  0  0  0  0  0  0  0  0
    1.6520   67.2710   65.5920 C   0  0  0  0  0  0  0  0  0  0  0  0
    2.4950   66.7480   64.5690 N   0  0  0  0  0  0  0  0  0  0  0  0
    3.0080   67.5690   63.5320 C   0  0  0  0  0  0  0  0  0  0  0  0
    2.1870   68.3440   62.7230 C   0  0  0  0  0  0  0  0  0  0  0  0
    2.7670   69.1010   61.6860 C   0  0  0  0  0  0  0  0  0  0  0  0
    4.1390   69.0800   61.4810 C   0  0  0  0  0  0  0  0  0  0  0  0
    4.8910   68.2860   62.3150 C   0  0  0  0  0  0  0  0  0  0  0  0
    4.3590   67.5420   63.3080 N   0  0  0  0  0  0  0  0  0  0  0  0
    3.4050   65.6480   65.0050 C   0  0  0  0  0  0  0  0  0  0  0  0
    3.1110   64.2080   64.6600 C   0  0  0  0  0  0  0  0  0  0  0  0
    4.2660   64.9060   64.0120 C   0  0  0  0  0  0  0  0  0  0  0  0
   -0.9621   68.4802   63.9178 H   0  0  0  0  0  0  0  0  0  0  0  0
   -2.0840   69.4123   67.1184 H   0  0  0  0  0  0  0  0  0  0  0  0
   -1.4316   70.0690   65.5790 H   0  0  0  0  0  0  0  0  0  0  0  0
   -2.3514   68.5260   65.5790 H   0  0  0  0  0  0  0  0  0  0  0  0
   -0.6455   68.3532   68.5189 H   0  0  0  0  0  0  0  0  0  0  0  0
    1.4355   67.1005   68.9122 H   0  0  0  0  0  0  0  0  0  0  0  0
    2.1271   69.7135   61.0338 H   0  0  0  0  0  0  0  0  0  0  0  0
    4.6069   69.6750   60.6828 H   0  0  0  0  0  0  0  0  0  0  0  0
    5.9804   68.2556   62.1655 H   0  0  0  0  0  0  0  0  0  0  0  0
    3.5895   66.2068   65.9344 H   0  0  0  0  0  0  0  0  0  0  0  0
    3.2935   63.4170   65.4023 H   0  0  0  0  0  0  0  0  0  0  0  0
    2.2292   63.6620   64.2935 H   0  0  0  0  0  0  0  0  0  0  0  0
    5.2961   64.6271   64.2788 H   0  0  0  0  0  0  0  0  0  0  0  0
    4.5819   65.0837   62.9734 H   0  0  0  0  0  0  0  0  0  0  0  0
  2  1  2  0
  3  2  1  0
  4  3  1  0
  5  4  2  0
  6  5  1  0
  7  5  1  0
  8  7  2  0
  9  8  1  0
 10  4  1  0
 10  9  2  0
 11 10  1  0
 12 11  1  0
 13 12  2  0
 13  2  1  0
 14 13  1  0
 15 14  2  0
 16 15  1  0
 17 16  2  0
 17 12  1  0
 18 11  1  0
 19 18  1  0
 20 19  1  0
 20 18  1  0
  3 21  1  0
  6 22  1  0
  6 23  1  0
  6 24  1  0
  7 25  1  0
  8 26  1  0
 14 27  1  0
 15 28  1  0
 16 29  1  0
 18 30  1  0
 19 31  1  0
 19 32  1  0
 20 33  1  0
 20 34  1  0
M  END
>  <score>  (7) 
-8.441

$$$$
=
     RDKit          3D

 34 37  0  0  0  0  0  0  0  0999 V2000
    2.3130   69.2550   69.2940 O   0  0  0  0  0  0  0  0  0  0  0  0
    2.5140   69.2240   68.0780 C   0  0  0  0  0  0  0  0  0  0  0  0
    3.7720   69.5110   67.6340 N   0  0  0  0  0  0  0  0  0  0  0  0
    4.3280   69.5100   66.3440 C   0  0  0  0  0  0  0  0  0  0  0  0
    5.5290   70.2370   66.1610 C   0  0  0  0  0  0  0  0  0  0  0  0
    6.1640   71.0460   67.2600 C   0  0  0  0  0  0  0  0  0  0  0  0
    6.1590   70.2120   64.9140 C   0  0  0  0  0  0  0  0  0  0  0  0
    5.5900   69.4680   63.9060 C   0  0  0  0  0  0  0  0  0  0  0  0
    4.4600   68.7550   64.0600 N   0  0  0  0  0  0  0  0  0  0  0  0
    3.8170   68.7640   65.2650 C   0  0  0  0  0  0  0  0  0  0  0  0
    2.6790   67.9190   65.4030 N   0  0  0  0  0  0  0  0  0  0  0  0
    1.4530   68.3970   65.9350 C   0  0  0  0  0  0  0  0  0  0  0  0
    1.3750   69.0240   67.1730 C   0  0  0  0  0  0  0  0  0  0  0  0
    0.1160   69.4330   67.6530 C   0  0  0  0  0  0  0  0  0  0  0  0
   -1.0290   69.2230   66.8980 C   0  0  0  0  0  0  0  0  0  0  0  0
   -0.8790   68.5900   65.6860 C   0  0  0  0  0  0  0  0  0  0  0  0
    0.3140   68.1770   65.2070 N   0  0  0  0  0  0  0  0  0  0  0  0
    2.5360   66.8770   64.3440 C   0  0  0  0  0  0  0  0  0  0  0  0
    3.6580   65.9140   64.0380 C   0  0  0  0  0  0  0  0  0  0  0  0
    2.4090   65.4150   64.6960 C   0  0  0  0  0  0  0  0  0  0  0  0
    4.4326   69.7760   68.3785 H   0  0  0  0  0  0  0  0  0  0  0  0
    5.8511   70.6474   68.2363 H   0  0  0  0  0  0  0  0  0  0  0  0
    7.2590   70.9864   67.1734 H   0  0  0  0  0  0  0  0  0  0  0  0
    5.8460   72.0955   67.1734 H   0  0  0  0  0  0  0  0  0  0  0  0
    7.0887   70.7743   64.7421 H   0  0  0  0  0  0  0  0  0  0  0  0
    6.0848   69.4557   62.9236 H   0  0  0  0  0  0  0  0  0  0  0  0
    0.0396   69.9231   68.6348 H   0  0  0  0  0  0  0  0  0  0  0  0
   -2.0171   69.5496   67.2544 H   0  0  0  0  0  0  0  0  0  0  0  0
   -1.7767   68.4111   65.0759 H   0  0  0  0  0  0  0  0  0  0  0  0
    1.9403   67.5939   63.7599 H   0  0  0  0  0  0  0  0  0  0  0  0
    3.8772   65.6393   62.9957 H   0  0  0  0  0  0  0  0  0  0  0  0
    4.7311   65.8714   64.2759 H   0  0  0  0  0  0  0  0  0  0  0  0
    1.7119   64.7739   64.1364 H   0  0  0  0  0  0  0  0  0  0  0  0
    2.1873   64.8547   65.6163 H   0  0  0  0  0  0  0  0  0  0  0  0
  2  1  2  0
  3  2  1  0
  4  3  1  0
  5  4  2  0
  6  5  1  0
  7  5  1  0
  8  7  2  0
  9  8  1  0
 10  4  1  0
 10  9  2  0
 11 10  1  0
 12 11  1  0
 13 12  2  0
 13  2  1  0
 14 13  1  0
 15 14  2  0
 16 15  1  0
 17 16  2  0
 17 12  1  0
 18 11  1  0
 19 18  1  0
 20 19  1  0
 20 18  1  0
  3 21  1  0
  6 22  1  0
  6 23  1  0
  6 24  1  0
  7 25  1  0
  8 26  1  0
 14 27  1  0
 15 28  1  0
 16 29  1  0
 18 30  1  0
 19 31  1  0
 19 32  1  0
 20 33  1  0
 20 34  1  0
M  END
>  <score>  (8) 
-8.375

$$$$
=
     RDKit          3D

 34 37  0  0  0  0  0  0  0  0999 V2000
    4.2350   63.4120   70.7090 O   0  0  0  0  0  0  0  0  0  0  0  0
    3.2040   62.9860   71.2340 C   0  0  0  0  0  0  0  0  0  0  0  0
    3.1850   61.6830   71.6360 N   0  0  0  0  0  0  0  0  0  0  0  0
    2.2050   60.9250   72.2990 C   0  0  0  0  0  0  0  0  0  0  0  0
    2.3130   59.5160   72.2120 C   0  0  0  0  0  0  0  0  0  0  0  0
    3.3740   58.8320   71.3910 C   0  0  0  0  0  0  0  0  0  0  0  0
    1.4050   58.7170   72.9110 C   0  0  0  0  0  0  0  0  0  0  0  0
    0.4380   59.3340   73.6710 C   0  0  0  0  0  0  0  0  0  0  0  0
    0.3260   60.6690   73.7840 N   0  0  0  0  0  0  0  0  0  0  0  0
    1.1940   61.4780   73.1080 C   0  0  0  0  0  0  0  0  0  0  0  0
    1.0920   62.8800   73.3370 N   0  0  0  0  0  0  0  0  0  0  0  0
    1.0450   63.8100   72.2650 C   0  0  0  0  0  0  0  0  0  0  0  0
    2.0160   63.8490   71.2730 C   0  0  0  0  0  0  0  0  0  0  0  0
    1.9230   64.8300   70.2650 C   0  0  0  0  0  0  0  0  0  0  0  0
    0.8730   65.7350   70.2570 C   0  0  0  0  0  0  0  0  0  0  0  0
   -0.0480   65.6430   71.2740 C   0  0  0  0  0  0  0  0  0  0  0  0
    0.0230   64.7220   72.2580 N   0  0  0  0  0  0  0  0  0  0  0  0
    0.2910   63.2670   74.5350 C   0  0  0  0  0  0  0  0  0  0  0  0
    0.9330   63.3910   75.8960 C   0  0  0  0  0  0  0  0  0  0  0  0
    0.4570   64.6190   75.1840 C   0  0  0  0  0  0  0  0  0  0  0  0
    4.0440   61.1601   71.4135 H   0  0  0  0  0  0  0  0  0  0  0  0
    4.1076   58.3591   72.0605 H   0  0  0  0  0  0  0  0  0  0  0  0
    2.9081   58.0638   70.7564 H   0  0  0  0  0  0  0  0  0  0  0  0
    3.8814   59.5735   70.7564 H   0  0  0  0  0  0  0  0  0  0  0  0
    1.4617   57.6199   72.8551 H   0  0  0  0  0  0  0  0  0  0  0  0
   -0.2804   58.7024   74.2141 H   0  0  0  0  0  0  0  0  0  0  0  0
    2.6901   64.8778   69.4781 H   0  0  0  0  0  0  0  0  0  0  0  0
    0.7802   66.4964   69.4685 H   0  0  0  0  0  0  0  0  0  0  0  0
   -0.8852   66.3564   71.2861 H   0  0  0  0  0  0  0  0  0  0  0  0
   -0.5545   62.7001   74.1181 H   0  0  0  0  0  0  0  0  0  0  0  0
    0.4004   63.0327   76.7893 H   0  0  0  0  0  0  0  0  0  0  0  0
    1.8887   63.0698   76.3358 H   0  0  0  0  0  0  0  0  0  0  0  0
   -0.4247   65.1620   75.5552 H   0  0  0  0  0  0  0  0  0  0  0  0
    0.9195   65.5715   74.8857 H   0  0  0  0  0  0  0  0  0  0  0  0
  2  1  2  0
  3  2  1  0
  4  3  1  0
  5  4  2  0
  6  5  1  0
  7  5  1  0
  8  7  2  0
  9  8  1  0
 10  4  1  0
 10  9  2  0
 11 10  1  0
 12 11  1  0
 13 12  2  0
 13  2  1  0
 14 13  1  0
 15 14  2  0
 16 15  1  0
 17 16  2  0
 17 12  1  0
 18 11  1  0
 19 18  1  0
 20 19  1  0
 20 18  1  0
  3 21  1  0
  6 22  1  0
  6 23  1  0
  6 24  1  0
  7 25  1  0
  8 26  1  0
 14 27  1  0
 15 28  1  0
 16 29  1  0
 18 30  1  0
 19 31  1  0
 19 32  1  0
 20 33  1  0
 20 34  1  0
M  END
>  <score>  (9) 
-7.605

$$$$
