=
     RDKit          3D

 35 37  0  0  0  0  0  0  0  0999 V2000
    0.6690   69.0420   62.8670 C   0  0  0  0  0  0  0  0  0  0  0  0
   -0.5550   68.9890   62.8550 O   0  0  0  0  0  0  0  0  0  0  0  0
    1.4770   68.6530   63.8930 N   0  0  0  0  0  0  0  0  0  0  0  0
    1.0040   68.1470   65.0700 C   0  0  0  0  0  0  0  0  0  0  0  0
   -0.3280   67.9720   65.3530 N   0  0  0  0  0  0  0  0  0  0  0  0
   -0.4330   67.4490   66.6150 C   0  0  0  0  0  0  0  0  0  0  0  0
    0.8850   67.3310   67.0420 C   0  0  0  0  0  0  0  0  0  0  0  0
    1.7590   67.7650   66.0740 N   0  0  0  0  0  0  0  0  0  0  0  0
    1.1550   66.8210   68.3210 C   0  0  0  0  0  0  0  0  0  0  0  0
    0.0700   66.4300   69.1220 C   0  0  0  0  0  0  0  0  0  0  0  0
   -1.2500   66.5800   68.6690 C   0  0  0  0  0  0  0  0  0  0  0  0
   -1.5320   67.0900   67.3960 C   0  0  0  0  0  0  0  0  0  0  0  0
    2.6540   68.7830   61.6550 C   0  0  0  0  0  0  0  0  0  0  0  0
    1.4340   69.5020   61.8440 O   0  0  0  0  0  0  0  0  0  0  0  0
    0.2840   65.8920   70.4890 C   0  0  0  0  0  0  0  0  0  0  0  0
   -0.2040   66.4860   71.4490 O   0  0  0  0  0  0  0  0  0  0  0  0
    1.0680   64.6530   70.7300 C   0  0  0  0  0  0  0  0  0  0  0  0
    2.4450   64.5910   70.4770 C   0  0  0  0  0  0  0  0  0  0  0  0
    3.1390   63.3990   70.7010 C   0  0  0  0  0  0  0  0  0  0  0  0
    2.4540   62.2790   71.1610 C   0  0  0  0  0  0  0  0  0  0  0  0
    1.0850   62.3230   71.3970 C   0  0  0  0  0  0  0  0  0  0  0  0
    0.3860   63.5110   71.1750 C   0  0  0  0  0  0  0  0  0  0  0  0
    3.1240   61.1380   71.3720 F   0  0  0  0  0  0  0  0  0  0  0  0
    2.4960   68.7453   63.7749 H   0  0  0  0  0  0  0  0  0  0  0  0
   -1.1131   68.1954   64.7248 H   0  0  0  0  0  0  0  0  0  0  0  0
    2.1886   66.7300   68.6863 H   0  0  0  0  0  0  0  0  0  0  0  0
   -2.0812   66.2905   69.3287 H   0  0  0  0  0  0  0  0  0  0  0  0
   -2.5638   67.2016   67.0314 H   0  0  0  0  0  0  0  0  0  0  0  0
    3.0853   68.5288   62.6345 H   0  0  0  0  0  0  0  0  0  0  0  0
    2.4520   67.8595   61.0925 H   0  0  0  0  0  0  0  0  0  0  0  0
    3.3640   69.4071   61.0925 H   0  0  0  0  0  0  0  0  0  0  0  0
    2.9778   65.4778   70.1033 H   0  0  0  0  0  0  0  0  0  0  0  0
    4.2218   63.3465   70.5145 H   0  0  0  0  0  0  0  0  0  0  0  0
    0.5559   61.4280   71.7562 H   0  0  0  0  0  0  0  0  0  0  0  0
   -0.6994   63.5514   71.3491 H   0  0  0  0  0  0  0  0  0  0  0  0
  2  1  2  0
  3  1  1  0
  4  3  1  0
  5  4  1  0
  6  5  1  0
  7  6  2  0
  8  4  2  0
  8  7  1  0
  9  7  1  0
 10  9  2  0
 11 10  1  0
 12 11  2  0
 12  6  1  0
 14 13  1  0
 14  1  1  0
 15 10  1  0
 16 15  2  0
 17 15  1  0
 18 17  2  0
 19 18  1  0
 20 19  2  0
 21 20  1  0
 22 17  1  0
 22 21  2  0
 23 20  1  0
  3 24  1  0
  5 25  1  0
  9 26  1  0
 11 27  1  0
 12 28  1  0
 13 29  1  0
 13 30  1  0
 13 31  1  0
 18 32  1  0
 19 33  1  0
 21 34  1  0
 22 35  1  0
M  END
>  <score>  (1) 
-8.945

$$$$
=
     RDKit          3D

 35 37  0  0  0  0  0  0  0  0999 V2000
    2.1720   57.8740   72.7750 C   0  0  0  0  0  0  0  0  0  0  0  0
    3.1670   58.0480   72.0800 O   0  0  0  0  0  0  0  0  0  0  0  0
    1.1950   58.7930   73.0180 N   0  0  0  0  0  0  0  0  0  0  0  0
    1.2120   60.0590   72.5050 C   0  0  0  0  0  0  0  0  0  0  0  0
    2.2050   60.5480   71.6930 N   0  0  0  0  0  0  0  0  0  0  0  0
    1.8970   61.8440   71.3720 C   0  0  0  0  0  0  0  0  0  0  0  0
    0.6940   62.0780   72.0290 C   0  0  0  0  0  0  0  0  0  0  0  0
    0.2860   60.9630   72.7220 N   0  0  0  0  0  0  0  0  0  0  0  0
    0.0790   63.3340   71.9220 C   0  0  0  0  0  0  0  0  0  0  0  0
    0.7020   64.3110   71.1300 C   0  0  0  0  0  0  0  0  0  0  0  0
    1.9260   64.0500   70.4950 C   0  0  0  0  0  0  0  0  0  0  0  0
    2.5510   62.8020   70.5970 C   0  0  0  0  0  0  0  0  0  0  0  0
    0.4740   56.4950   73.6060 C   0  0  0  0  0  0  0  0  0  0  0  0
    1.8730   56.7200   73.4240 O   0  0  0  0  0  0  0  0  0  0  0  0
    0.1110   65.6660   70.9800 C   0  0  0  0  0  0  0  0  0  0  0  0
   -0.5060   66.1570   71.9230 O   0  0  0  0  0  0  0  0  0  0  0  0
    0.2470   66.4450   69.7230 C   0  0  0  0  0  0  0  0  0  0  0  0
    1.3760   67.2340   69.4630 C   0  0  0  0  0  0  0  0  0  0  0  0
    1.4520   67.9650   68.2740 C   0  0  0  0  0  0  0  0  0  0  0  0
    0.4020   67.9130   67.3630 C   0  0  0  0  0  0  0  0  0  0  0  0
   -0.7310   67.1490   67.6190 C   0  0  0  0  0  0  0  0  0  0  0  0
   -0.8140   66.4180   68.8050 C   0  0  0  0  0  0  0  0  0  0  0  0
    0.4800   68.6170   66.2270 F   0  0  0  0  0  0  0  0  0  0  0  0
    0.4043   58.5191   73.6185 H   0  0  0  0  0  0  0  0  0  0  0  0
    3.0381   60.0299   71.3791 H   0  0  0  0  0  0  0  0  0  0  0  0
   -0.8653   63.5474   72.4443 H   0  0  0  0  0  0  0  0  0  0  0  0
    2.4050   64.8443   69.9037 H   0  0  0  0  0  0  0  0  0  0  0  0
    3.5055   62.5882   70.0937 H   0  0  0  0  0  0  0  0  0  0  0  0
    0.2454   56.4582   74.6814 H   0  0  0  0  0  0  0  0  0  0  0  0
   -0.0929   57.3135   73.1384 H   0  0  0  0  0  0  0  0  0  0  0  0
    0.1923   55.5400   73.1384 H   0  0  0  0  0  0  0  0  0  0  0  0
    2.1989   67.2777   70.1917 H   0  0  0  0  0  0  0  0  0  0  0  0
    2.3390   68.5792   68.0594 H   0  0  0  0  0  0  0  0  0  0  0  0
   -1.5561   67.1209   66.8920 H   0  0  0  0  0  0  0  0  0  0  0  0
   -1.7119   65.8202   69.0203 H   0  0  0  0  0  0  0  0  0  0  0  0
  2  1  2  0
  3  1  1  0
  4  3  1  0
  5  4  1  0
  6  5  1  0
  7  6  2  0
  8  4  2  0
  8  7  1  0
  9  7  1  0
 10  9  2  0
 11 10  1  0
 12 11  2  0
 12  6  1  0
 14 13  1  0
 14  1  1  0
 15 10  1  0
 16 15  2  0
 17 15  1  0
 18 17  2  0
 19 18  1  0
 20 19  2  0
 21 20  1  0
 22 17  1  0
 22 21  2  0
 23 20  1  0
  3 24  1  0
  5 25  1  0
  9 26  1  0
 11 27  1  0
 12 28  1  0
 13 29  1  0
 13 30  1  0
 13 31  1  0
 18 32  1  0
 19 33  1  0
 21 34  1  0
 22 35  1  0
M  END
>  <score>  (2) 
-8.686

$$$$
=
     RDKit          3D

 35 37  0  0  0  0  0  0  0  0999 V2000
    0.6960   62.1940   72.1860 C   0  0  0  0  0  0  0  0  0  0  0  0
   -0.4710   62.1390   71.8160 O   0  0  0  0  0  0  0  0  0  0  0  0
    1.5950   63.1640   71.8560 N   0  0  0  0  0  0  0  0  0  0  0  0
    1.2940   64.2210   71.0440 C   0  0  0  0  0  0  0  0  0  0  0  0
    0.0640   64.4260   70.4720 N   0  0  0  0  0  0  0  0  0  0  0  0
    0.1250   65.5730   69.7250 C   0  0  0  0  0  0  0  0  0  0  0  0
    1.4320   66.0150   69.8910 C   0  0  0  0  0  0  0  0  0  0  0  0
    2.1390   65.1680   70.7110 N   0  0  0  0  0  0  0  0  0  0  0  0
    1.8530   67.1880   69.2480 C   0  0  0  0  0  0  0  0  0  0  0  0
    0.9200   67.8880   68.4660 C   0  0  0  0  0  0  0  0  0  0  0  0
   -0.3880   67.4050   68.3030 C   0  0  0  0  0  0  0  0  0  0  0  0
   -0.8190   66.2340   68.9370 C   0  0  0  0  0  0  0  0  0  0  0  0
    2.2480   60.4490   72.3420 C   0  0  0  0  0  0  0  0  0  0  0  0
    1.2950   61.2870   72.9990 O   0  0  0  0  0  0  0  0  0  0  0  0
    1.3010   69.1320   67.7500 C   0  0  0  0  0  0  0  0  0  0  0  0
    0.4170   69.8820   67.3430 O   0  0  0  0  0  0  0  0  0  0  0  0
    2.7220   69.4960   67.5140 C   0  0  0  0  0  0  0  0  0  0  0  0
    3.3840   69.1530   66.3280 C   0  0  0  0  0  0  0  0  0  0  0  0
    4.7270   69.5000   66.1570 C   0  0  0  0  0  0  0  0  0  0  0  0
    5.4000   70.1730   67.1720 C   0  0  0  0  0  0  0  0  0  0  0  0
    4.7590   70.5010   68.3610 C   0  0  0  0  0  0  0  0  0  0  0  0
    3.4180   70.1560   68.5380 C   0  0  0  0  0  0  0  0  0  0  0  0
    6.6870   70.5010   67.0030 F   0  0  0  0  0  0  0  0  0  0  0  0
    2.5492   63.0968   72.2379 H   0  0  0  0  0  0  0  0  0  0  0  0
   -0.7626   63.8219   70.5847 H   0  0  0  0  0  0  0  0  0  0  0  0
    2.8863   67.5501   69.3534 H   0  0  0  0  0  0  0  0  0  0  0  0
   -1.0899   67.9593   67.6626 H   0  0  0  0  0  0  0  0  0  0  0  0
   -1.8452   65.8553   68.8208 H   0  0  0  0  0  0  0  0  0  0  0  0
    2.8506   59.9191   73.0944 H   0  0  0  0  0  0  0  0  0  0  0  0
    1.7204   59.7169   71.7129 H   0  0  0  0  0  0  0  0  0  0  0  0
    2.9066   61.0659   71.7129 H   0  0  0  0  0  0  0  0  0  0  0  0
    2.8485   68.6122   65.5338 H   0  0  0  0  0  0  0  0  0  0  0  0
    5.2497   69.2422   65.2241 H   0  0  0  0  0  0  0  0  0  0  0  0
    5.3047   71.0288   69.1570 H   0  0  0  0  0  0  0  0  0  0  0  0
    2.9068   70.4016   69.4805 H   0  0  0  0  0  0  0  0  0  0  0  0
  2  1  2  0
  3  1  1  0
  4  3  1  0
  5  4  1  0
  6  5  1  0
  7  6  2  0
  8  4  2  0
  8  7  1  0
  9  7  1  0
 10  9  2  0
 11 10  1  0
 12 11  2  0
 12  6  1  0
 14 13  1  0
 14  1  1  0
 15 10  1  0
 16 15  2  0
 17 15  1  0
 18 17  2  0
 19 18  1  0
 20 19  2  0
 21 20  1  0
 22 17  1  0
 22 21  2  0
 23 20  1  0
  3 24  1  0
  5 25  1  0
  9 26  1  0
 11 27  1  0
 12 28  1  0
 13 29  1  0
 13 30  1  0
 13 31  1  0
 18 32  1  0
 19 33  1  0
 21 34  1  0
 22 35  1  0
M  END
>  <score>  (3) 
-8.604

$$$$
=
     RDKit          3D

 35 37  0  0  0  0  0  0  0  0999 V2000
   -2.4720   55.4670   76.0940 C   0  0  0  0  0  0  0  0  0  0  0  0
   -2.7490   56.6260   76.3820 O   0  0  0  0  0  0  0  0  0  0  0  0
   -1.4900   55.0690   75.2370 N   0  0  0  0  0  0  0  0  0  0  0  0
   -0.6740   55.9410   74.5730 C   0  0  0  0  0  0  0  0  0  0  0  0
   -0.7490   57.3060   74.6900 N   0  0  0  0  0  0  0  0  0  0  0  0
    0.2130   57.8590   73.8860 C   0  0  0  0  0  0  0  0  0  0  0  0
    0.8390   56.7620   73.3060 C   0  0  0  0  0  0  0  0  0  0  0  0
    0.2790   55.5850   73.7440 N   0  0  0  0  0  0  0  0  0  0  0  0
    1.8930   56.9630   72.4030 C   0  0  0  0  0  0  0  0  0  0  0  0
    2.2900   58.2820   72.1310 C   0  0  0  0  0  0  0  0  0  0  0  0
    1.6250   59.3690   72.7180 C   0  0  0  0  0  0  0  0  0  0  0  0
    0.5690   59.1810   73.6180 C   0  0  0  0  0  0  0  0  0  0  0  0
   -2.8020   53.1580   75.9010 C   0  0  0  0  0  0  0  0  0  0  0  0
   -3.1060   54.3740   76.5880 O   0  0  0  0  0  0  0  0  0  0  0  0
    3.3920   58.5680   71.1780 C   0  0  0  0  0  0  0  0  0  0  0  0
    3.8800   57.6440   70.5310 O   0  0  0  0  0  0  0  0  0  0  0  0
    3.9210   59.9430   70.9820 C   0  0  0  0  0  0  0  0  0  0  0  0
    4.8350   60.5160   71.8760 C   0  0  0  0  0  0  0  0  0  0  0  0
    5.2910   61.8190   71.6610 C   0  0  0  0  0  0  0  0  0  0  0  0
    4.8240   62.5430   70.5690 C   0  0  0  0  0  0  0  0  0  0  0  0
    3.9020   61.9920   69.6860 C   0  0  0  0  0  0  0  0  0  0  0  0
    3.4420   60.6910   69.8950 C   0  0  0  0  0  0  0  0  0  0  0  0
    5.2640   63.7920   70.3690 F   0  0  0  0  0  0  0  0  0  0  0  0
   -1.3561   54.0596   75.0819 H   0  0  0  0  0  0  0  0  0  0  0  0
   -1.4140   57.8256   75.2805 H   0  0  0  0  0  0  0  0  0  0  0  0
    2.3948   56.1109   71.9212 H   0  0  0  0  0  0  0  0  0  0  0  0
    1.9404   60.3921   72.4655 H   0  0  0  0  0  0  0  0  0  0  0  0
    0.0489   60.0288   74.0878 H   0  0  0  0  0  0  0  0  0  0  0  0
   -2.6031   52.3625   76.6342 H   0  0  0  0  0  0  0  0  0  0  0  0
   -3.6558   52.8700   75.2700 H   0  0  0  0  0  0  0  0  0  0  0  0
   -1.9131   53.3057   75.2700 H   0  0  0  0  0  0  0  0  0  0  0  0
    5.1922   59.9422   72.7438 H   0  0  0  0  0  0  0  0  0  0  0  0
    6.0169   62.2708   72.3530 H   0  0  0  0  0  0  0  0  0  0  0  0
    3.5377   62.5773   68.8288 H   0  0  0  0  0  0  0  0  0  0  0  0
    2.7039   60.2517   69.2078 H   0  0  0  0  0  0  0  0  0  0  0  0
  2  1  2  0
  3  1  1  0
  4  3  1  0
  5  4  1  0
  6  5  1  0
  7  6  2  0
  8  4  2  0
  8  7  1  0
  9  7  1  0
 10  9  2  0
 11 10  1  0
 12 11  2  0
 12  6  1  0
 14 13  1  0
 14  1  1  0
 15 10  1  0
 16 15  2  0
 17 15  1  0
 18 17  2  0
 19 18  1  0
 20 19  2  0
 21 20  1  0
 22 17  1  0
 22 21  2  0
 23 20  1  0
  3 24  1  0
  5 25  1  0
  9 26  1  0
 11 27  1  0
 12 28  1  0
 13 29  1  0
 13 30  1  0
 13 31  1  0
 18 32  1  0
 19 33  1  0
 21 34  1  0
 22 35  1  0
M  END
>  <score>  (4) 
-8.364

$$$$
=
     RDKit          3D

 35 37  0  0  0  0  0  0  0  0999 V2000
   -0.1750   66.4990   68.8400 C   0  0  0  0  0  0  0  0  0  0  0  0
    0.8780   66.8610   68.3290 O   0  0  0  0  0  0  0  0  0  0  0  0
   -0.3270   65.4620   69.7110 N   0  0  0  0  0  0  0  0  0  0  0  0
    0.7080   64.6740   70.1280 C   0  0  0  0  0  0  0  0  0  0  0  0
    2.0100   64.8340   69.7210 N   0  0  0  0  0  0  0  0  0  0  0  0
    2.7710   63.8740   70.3340 C   0  0  0  0  0  0  0  0  0  0  0  0
    1.8590   63.1600   71.1040 C   0  0  0  0  0  0  0  0  0  0  0  0
    0.5900   63.6700   70.9660 N   0  0  0  0  0  0  0  0  0  0  0  0
    2.3040   62.0780   71.8770 C   0  0  0  0  0  0  0  0  0  0  0  0
    3.6720   61.7650   71.8550 C   0  0  0  0  0  0  0  0  0  0  0  0
    4.5640   62.4930   71.0520 C   0  0  0  0  0  0  0  0  0  0  0  0
    4.1320   63.5730   70.2740 C   0  0  0  0  0  0  0  0  0  0  0  0
   -1.7060   67.2580   67.2400 C   0  0  0  0  0  0  0  0  0  0  0  0
   -1.3820   67.0800   68.6210 O   0  0  0  0  0  0  0  0  0  0  0  0
    4.2090   60.6260   72.6420 C   0  0  0  0  0  0  0  0  0  0  0  0
    5.3060   60.7380   73.1850 O   0  0  0  0  0  0  0  0  0  0  0  0
    3.4560   59.3540   72.7940 C   0  0  0  0  0  0  0  0  0  0  0  0
    3.1260   58.5560   71.6900 C   0  0  0  0  0  0  0  0  0  0  0  0
    2.4000   57.3770   71.8780 C   0  0  0  0  0  0  0  0  0  0  0  0
    1.9990   57.0110   73.1590 C   0  0  0  0  0  0  0  0  0  0  0  0
    2.3020   57.8050   74.2590 C   0  0  0  0  0  0  0  0  0  0  0  0
    3.0270   58.9840   74.0770 C   0  0  0  0  0  0  0  0  0  0  0  0
    1.3010   55.8810   73.3330 F   0  0  0  0  0  0  0  0  0  0  0  0
   -1.2702   65.2622   70.0733 H   0  0  0  0  0  0  0  0  0  0  0  0
    2.3547   65.5518   69.0677 H   0  0  0  0  0  0  0  0  0  0  0  0
    1.5999   61.4903   72.4843 H   0  0  0  0  0  0  0  0  0  0  0  0
    5.6263   62.2082   71.0339 H   0  0  0  0  0  0  0  0  0  0  0  0
    4.8274   64.1529   69.6494 H   0  0  0  0  0  0  0  0  0  0  0  0
   -2.6671   67.7860   67.1540 H   0  0  0  0  0  0  0  0  0  0  0  0
   -0.9176   67.8496   66.7517 H   0  0  0  0  0  0  0  0  0  0  0  0
   -1.7825   66.2753   66.7517 H   0  0  0  0  0  0  0  0  0  0  0  0
    3.4375   58.8569   70.6789 H   0  0  0  0  0  0  0  0  0  0  0  0
    2.1466   56.7410   71.0170 H   0  0  0  0  0  0  0  0  0  0  0  0
    1.9730   57.5065   75.2653 H   0  0  0  0  0  0  0  0  0  0  0  0
    3.2620   59.6234   74.9407 H   0  0  0  0  0  0  0  0  0  0  0  0
  2  1  2  0
  3  1  1  0
  4  3  1  0
  5  4  1  0
  6  5  1  0
  7  6  2  0
  8  4  2  0
  8  7  1  0
  9  7  1  0
 10  9  2  0
 11 10  1  0
 12 11  2  0
 12  6  1  0
 14 13  1  0
 14  1  1  0
 15 10  1  0
 16 15  2  0
 17 15  1  0
 18 17  2  0
 19 18  1  0
 20 19  2  0
 21 20  1  0
 22 17  1  0
 22 21  2  0
 23 20  1  0
  3 24  1  0
  5 25  1  0
  9 26  1  0
 11 27  1  0
 12 28  1  0
 13 29  1  0
 13 30  1  0
 13 31  1  0
 18 32  1  0
 19 33  1  0
 21 34  1  0
 22 35  1  0
M  END
>  <score>  (5) 
-8.287

$$$$
=
     RDKit          3D

 35 37  0  0  0  0  0  0  0  0999 V2000
   -0.4750   67.6440   67.9990 C   0  0  0  0  0  0  0  0  0  0  0  0
   -1.5790   67.1560   68.2100 O   0  0  0  0  0  0  0  0  0  0  0  0
    0.7140   67.1620   68.4590 N   0  0  0  0  0  0  0  0  0  0  0  0
    0.8190   66.0450   69.2390 C   0  0  0  0  0  0  0  0  0  0  0  0
   -0.2500   65.2860   69.6460 N   0  0  0  0  0  0  0  0  0  0  0  0
    0.2250   64.2530   70.4110 C   0  0  0  0  0  0  0  0  0  0  0  0
    1.6010   64.4480   70.4260 C   0  0  0  0  0  0  0  0  0  0  0  0
    1.9500   65.5590   69.6950 N   0  0  0  0  0  0  0  0  0  0  0  0
    2.4190   63.5570   71.1350 C   0  0  0  0  0  0  0  0  0  0  0  0
    1.8090   62.4790   71.7960 C   0  0  0  0  0  0  0  0  0  0  0  0
    0.4140   62.3200   71.7770 C   0  0  0  0  0  0  0  0  0  0  0  0
   -0.4130   63.2050   71.0750 C   0  0  0  0  0  0  0  0  0  0  0  0
   -1.2820   69.0570   66.3180 C   0  0  0  0  0  0  0  0  0  0  0  0
   -0.2500   68.7600   67.2600 O   0  0  0  0  0  0  0  0  0  0  0  0
    2.6140   61.5030   72.5740 C   0  0  0  0  0  0  0  0  0  0  0  0
    3.2240   61.8890   73.5690 O   0  0  0  0  0  0  0  0  0  0  0  0
    2.6990   60.0720   72.1850 C   0  0  0  0  0  0  0  0  0  0  0  0
    2.0680   59.0660   72.9290 C   0  0  0  0  0  0  0  0  0  0  0  0
    2.1910   57.7310   72.5360 C   0  0  0  0  0  0  0  0  0  0  0  0
    2.9500   57.4090   71.4160 C   0  0  0  0  0  0  0  0  0  0  0  0
    3.5970   58.3960   70.6810 C   0  0  0  0  0  0  0  0  0  0  0  0
    3.4780   59.7310   71.0690 C   0  0  0  0  0  0  0  0  0  0  0  0
    3.0660   56.1270   71.0450 F   0  0  0  0  0  0  0  0  0  0  0  0
    1.5765   67.6649   68.2060 H   0  0  0  0  0  0  0  0  0  0  0  0
   -1.2384   65.4625   69.4161 H   0  0  0  0  0  0  0  0  0  0  0  0
    3.5092   63.6987   71.1724 H   0  0  0  0  0  0  0  0  0  0  0  0
   -0.0391   61.4814   72.3259 H   0  0  0  0  0  0  0  0  0  0  0  0
   -1.5057   63.0809   71.0484 H   0  0  0  0  0  0  0  0  0  0  0  0
   -2.2041   69.3224   66.8559 H   0  0  0  0  0  0  0  0  0  0  0  0
   -0.9699   69.9018   65.6864 H   0  0  0  0  0  0  0  0  0  0  0  0
   -1.4667   68.1756   65.6864 H   0  0  0  0  0  0  0  0  0  0  0  0
    1.4776   59.3267   73.8198 H   0  0  0  0  0  0  0  0  0  0  0  0
    1.6896   56.9379   73.1100 H   0  0  0  0  0  0  0  0  0  0  0  0
    4.1982   58.1265   69.8002 H   0  0  0  0  0  0  0  0  0  0  0  0
    3.9955   60.5169   70.4993 H   0  0  0  0  0  0  0  0  0  0  0  0
  2  1  2  0
  3  1  1  0
  4  3  1  0
  5  4  1  0
  6  5  1  0
  7  6  2  0
  8  4  2  0
  8  7  1  0
  9  7  1  0
 10  9  2  0
 11 10  1  0
 12 11  2  0
 12  6  1  0
 14 13  1  0
 14  1  1  0
 15 10  1  0
 16 15  2  0
 17 15  1  0
 18 17  2  0
 19 18  1  0
 20 19  2  0
 21 20  1  0
 22 17  1  0
 22 21  2  0
 23 20  1  0
  3 24  1  0
  5 25  1  0
  9 26  1  0
 11 27  1  0
 12 28  1  0
 13 29  1  0
 13 30  1  0
 13 31  1  0
 18 32  1  0
 19 33  1  0
 21 34  1  0
 22 35  1  0
M  END
>  <score>  (6) 
-8.105

$$$$
=
     RDKit          3D

 35 37  0  0  0  0  0  0  0  0999 V2000
   -2.3070   64.5000   77.2510 C   0  0  0  0  0  0  0  0  0  0  0  0
   -2.1810   63.5430   78.0060 O   0  0  0  0  0  0  0  0  0  0  0  0
   -1.5860   64.7240   76.1160 N   0  0  0  0  0  0  0  0  0  0  0  0
   -0.6030   63.8850   75.6740 C   0  0  0  0  0  0  0  0  0  0  0  0
   -0.2300   62.7300   76.3160 N   0  0  0  0  0  0  0  0  0  0  0  0
    0.7800   62.1470   75.5960 C   0  0  0  0  0  0  0  0  0  0  0  0
    0.9710   63.0090   74.5230 C   0  0  0  0  0  0  0  0  0  0  0  0
    0.1070   64.0760   74.5860 N   0  0  0  0  0  0  0  0  0  0  0  0
    1.9540   62.7160   73.5660 C   0  0  0  0  0  0  0  0  0  0  0  0
    2.7040   61.5400   73.7240 C   0  0  0  0  0  0  0  0  0  0  0  0
    2.5000   60.7000   74.8300 C   0  0  0  0  0  0  0  0  0  0  0  0
    1.5240   60.9830   75.7930 C   0  0  0  0  0  0  0  0  0  0  0  0
   -3.4950   66.2370   76.2280 C   0  0  0  0  0  0  0  0  0  0  0  0
   -3.2000   65.5080   77.4210 O   0  0  0  0  0  0  0  0  0  0  0  0
    3.7670   61.1740   72.7540 C   0  0  0  0  0  0  0  0  0  0  0  0
    4.6450   60.3860   73.0980 O   0  0  0  0  0  0  0  0  0  0  0  0
    3.7970   61.7330   71.3780 C   0  0  0  0  0  0  0  0  0  0  0  0
    4.5900   62.8410   71.0490 C   0  0  0  0  0  0  0  0  0  0  0  0
    4.5730   63.3440   69.7450 C   0  0  0  0  0  0  0  0  0  0  0  0
    3.7590   62.7480   68.7860 C   0  0  0  0  0  0  0  0  0  0  0  0
    2.9540   61.6610   69.1060 C   0  0  0  0  0  0  0  0  0  0  0  0
    2.9660   61.1550   70.4070 C   0  0  0  0  0  0  0  0  0  0  0  0
    3.7460   63.2350   67.5390 F   0  0  0  0  0  0  0  0  0  0  0  0
   -1.7929   65.5685   75.5639 H   0  0  0  0  0  0  0  0  0  0  0  0
   -0.6387   62.3648   77.1881 H   0  0  0  0  0  0  0  0  0  0  0  0
    2.1322   63.3896   72.7148 H   0  0  0  0  0  0  0  0  0  0  0  0
    3.1210   59.7991   74.9426 H   0  0  0  0  0  0  0  0  0  0  0  0
    1.3531   60.3242   76.6572 H   0  0  0  0  0  0  0  0  0  0  0  0
   -3.8955   67.2267   76.4927 H   0  0  0  0  0  0  0  0  0  0  0  0
   -2.5757   66.3596   75.6365 H   0  0  0  0  0  0  0  0  0  0  0  0
   -4.2409   65.6858   75.6365 H   0  0  0  0  0  0  0  0  0  0  0  0
    5.2235   63.3130   71.8144 H   0  0  0  0  0  0  0  0  0  0  0  0
    5.2003   64.2072   69.4778 H   0  0  0  0  0  0  0  0  0  0  0  0
    2.3119   61.2027   68.3394 H   0  0  0  0  0  0  0  0  0  0  0  0
    2.3232   60.3023   70.6709 H   0  0  0  0  0  0  0  0  0  0  0  0
  2  1  2  0
  3  1  1  0
  4  3  1  0
  5  4  1  0
  6  5  1  0
  7  6  2  0
  8  4  2  0
  8  7  1  0
  9  7  1  0
 10  9  2  0
 11 10  1  0
 12 11  2  0
 12  6  1  0
 14 13  1  0
 14  1  1  0
 15 10  1  0
 16 15  2  0
 17 15  1  0
 18 17  2  0
 19 18  1  0
 20 19  2  0
 21 20  1  0
 22 17  1  0
 22 21  2  0
 23 20  1  0
  3 24  1  0
  5 25  1  0
  9 26  1  0
 11 27  1  0
 12 28  1  0
 13 29  1  0
 13 30  1  0
 13 31  1  0
 18 32  1  0
 19 33  1  0
 21 34  1  0
 22 35  1  0
M  END
>  <score>  (7) 
-7.941

$$$$
=
     RDKit          3D

 35 37  0  0  0  0  0  0  0  0999 V2000
    0.4370   67.8070   67.6220 C   0  0  0  0  0  0  0  0  0  0  0  0
    1.4690   67.3700   67.1260 O   0  0  0  0  0  0  0  0  0  0  0  0
   -0.1230   67.3990   68.7950 N   0  0  0  0  0  0  0  0  0  0  0  0
    0.4140   66.4190   69.5810 C   0  0  0  0  0  0  0  0  0  0  0  0
    1.5680   65.7380   69.2830 N   0  0  0  0  0  0  0  0  0  0  0  0
    1.8030   64.8330   70.2850 C   0  0  0  0  0  0  0  0  0  0  0  0
    0.7440   65.0210   71.1650 C   0  0  0  0  0  0  0  0  0  0  0  0
   -0.1030   66.0060   70.7150 N   0  0  0  0  0  0  0  0  0  0  0  0
    0.6620   64.2410   72.3270 C   0  0  0  0  0  0  0  0  0  0  0  0
    1.6760   63.3010   72.5670 C   0  0  0  0  0  0  0  0  0  0  0  0
    2.7230   63.1210   71.6490 C   0  0  0  0  0  0  0  0  0  0  0  0
    2.8140   63.8920   70.4840 C   0  0  0  0  0  0  0  0  0  0  0  0
   -1.6410   68.3640   66.7000 C   0  0  0  0  0  0  0  0  0  0  0  0
   -0.3290   68.7860   67.0770 O   0  0  0  0  0  0  0  0  0  0  0  0
    1.6480   62.4340   73.7730 C   0  0  0  0  0  0  0  0  0  0  0  0
    1.4650   62.9470   74.8740 O   0  0  0  0  0  0  0  0  0  0  0  0
    1.8300   60.9620   73.6840 C   0  0  0  0  0  0  0  0  0  0  0  0
    3.0760   60.3590   73.9080 C   0  0  0  0  0  0  0  0  0  0  0  0
    3.2050   58.9720   73.7960 C   0  0  0  0  0  0  0  0  0  0  0  0
    2.0990   58.2020   73.4500 C   0  0  0  0  0  0  0  0  0  0  0  0
    0.8630   58.7910   73.2070 C   0  0  0  0  0  0  0  0  0  0  0  0
    0.7280   60.1760   73.3170 C   0  0  0  0  0  0  0  0  0  0  0  0
    2.2290   56.8740   73.3420 F   0  0  0  0  0  0  0  0  0  0  0  0
   -0.9947   67.8519   69.1047 H   0  0  0  0  0  0  0  0  0  0  0  0
    2.1561   65.8823   68.4498 H   0  0  0  0  0  0  0  0  0  0  0  0
   -0.1742   64.3625   73.0313 H   0  0  0  0  0  0  0  0  0  0  0  0
    3.4888   62.3572   71.8496 H   0  0  0  0  0  0  0  0  0  0  0  0
    3.6368   63.7632   69.7654 H   0  0  0  0  0  0  0  0  0  0  0  0
   -2.2382   68.1719   67.6036 H   0  0  0  0  0  0  0  0  0  0  0  0
   -2.1224   69.1526   66.1031 H   0  0  0  0  0  0  0  0  0  0  0  0
   -1.5724   67.4426   66.1031 H   0  0  0  0  0  0  0  0  0  0  0  0
    3.9484   60.9753   74.1708 H   0  0  0  0  0  0  0  0  0  0  0  0
    4.1769   58.4910   73.9806 H   0  0  0  0  0  0  0  0  0  0  0  0
   -0.0018   58.1702   72.9302 H   0  0  0  0  0  0  0  0  0  0  0  0
   -0.2434   60.6512   73.1157 H   0  0  0  0  0  0  0  0  0  0  0  0
  2  1  2  0
  3  1  1  0
  4  3  1  0
  5  4  1  0
  6  5  1  0
  7  6  2  0
  8  4  2  0
  8  7  1  0
  9  7  1  0
 10  9  2  0
 11 10  1  0
 12 11  2  0
 12  6  1  0
 14 13  1  0
 14  1  1  0
 15 10  1  0
 16 15  2  0
 17 15  1  0
 18 17  2  0
 19 18  1  0
 20 19  2  0
 21 20  1  0
 22 17  1  0
 22 21  2  0
 23 20  1  0
  3 24  1  0
  5 25  1  0
  9 26  1  0
 11 27  1  0
 12 28  1  0
 13 29  1  0
 13 30  1  0
 13 31  1  0
 18 32  1  0
 19 33  1  0
 21 34  1  0
 22 35  1  0
M  END
>  <score>  (8) 
-7.704

$$$$
=
     RDKit          3D

 35 37  0  0  0  0  0  0  0  0999 V2000
    0.8250   66.3220   69.9810 C   0  0  0  0  0  0  0  0  0  0  0  0
   -0.1660   66.2340   70.6970 O   0  0  0  0  0  0  0  0  0  0  0  0
    1.7500   65.3440   69.7730 N   0  0  0  0  0  0  0  0  0  0  0  0
    1.6850   64.1110   70.3590 C   0  0  0  0  0  0  0  0  0  0  0  0
    0.6880   63.7200   71.2180 N   0  0  0  0  0  0  0  0  0  0  0  0
    0.9430   62.4320   71.6110 C   0  0  0  0  0  0  0  0  0  0  0  0
    2.1190   62.1030   70.9460 C   0  0  0  0  0  0  0  0  0  0  0  0
    2.5610   63.1520   70.1760 N   0  0  0  0  0  0  0  0  0  0  0  0
    2.6820   60.8300   71.1240 C   0  0  0  0  0  0  0  0  0  0  0  0
    2.0180   59.9230   71.9650 C   0  0  0  0  0  0  0  0  0  0  0  0
    0.8420   60.2930   72.6370 C   0  0  0  0  0  0  0  0  0  0  0  0
    0.2720   61.5600   72.4690 C   0  0  0  0  0  0  0  0  0  0  0  0
    0.5470   67.5060   67.9820 C   0  0  0  0  0  0  0  0  0  0  0  0
    1.1680   67.4240   69.2660 O   0  0  0  0  0  0  0  0  0  0  0  0
    2.5640   58.5630   72.2060 C   0  0  0  0  0  0  0  0  0  0  0  0
    3.3780   58.0960   71.4130 O   0  0  0  0  0  0  0  0  0  0  0  0
    2.1540   57.7530   73.3820 C   0  0  0  0  0  0  0  0  0  0  0  0
    2.7660   57.9070   74.6330 C   0  0  0  0  0  0  0  0  0  0  0  0
    2.3610   57.1100   75.7070 C   0  0  0  0  0  0  0  0  0  0  0  0
    1.3620   56.1590   75.5220 C   0  0  0  0  0  0  0  0  0  0  0  0
    0.7620   55.9830   74.2800 C   0  0  0  0  0  0  0  0  0  0  0  0
    1.1630   56.7760   73.2040 C   0  0  0  0  0  0  0  0  0  0  0  0
    0.9800   55.3960   76.5540 F   0  0  0  0  0  0  0  0  0  0  0  0
    2.5389   65.5439   69.1417 H   0  0  0  0  0  0  0  0  0  0  0  0
   -0.1130   64.2951   71.5156 H   0  0  0  0  0  0  0  0  0  0  0  0
    3.6180   60.5504   70.6184 H   0  0  0  0  0  0  0  0  0  0  0  0
    0.3578   59.5707   73.3107 H   0  0  0  0  0  0  0  0  0  0  0  0
   -0.6543   61.8524   72.9851 H   0  0  0  0  0  0  0  0  0  0  0  0
   -0.5365   67.6491   68.1072 H   0  0  0  0  0  0  0  0  0  0  0  0
    0.9672   68.3565   67.4251 H   0  0  0  0  0  0  0  0  0  0  0  0
    0.7321   66.5756   67.4251 H   0  0  0  0  0  0  0  0  0  0  0  0
    3.5628   58.6530   74.7693 H   0  0  0  0  0  0  0  0  0  0  0  0
    2.8298   57.2338   76.6944 H   0  0  0  0  0  0  0  0  0  0  0  0
   -0.0231   55.2242   74.1466 H   0  0  0  0  0  0  0  0  0  0  0  0
    0.7017   56.6349   72.2154 H   0  0  0  0  0  0  0  0  0  0  0  0
  2  1  2  0
  3  1  1  0
  4  3  1  0
  5  4  1  0
  6  5  1  0
  7  6  2  0
  8  4  2  0
  8  7  1  0
  9  7  1  0
 10  9  2  0
 11 10  1  0
 12 11  2  0
 12  6  1  0
 14 13  1  0
 14  1  1  0
 15 10  1  0
 16 15  2  0
 17 15  1  0
 18 17  2  0
 19 18  1  0
 20 19  2  0
 21 20  1  0
 22 17  1  0
 22 21  2  0
 23 20  1  0
  3 24  1  0
  5 25  1  0
  9 26  1  0
 11 27  1  0
 12 28  1  0
 13 29  1  0
 13 30  1  0
 13 31  1  0
 18 32  1  0
 19 33  1  0
 21 34  1  0
 22 35  1  0
M  END
>  <score>  (9) 
-7.698

$$$$
