=
     RDKit          3D

 29 31  0  0  0  0  0  0  0  0999 V2000
    1.3900   68.0170   64.4670 N   0  0  0  0  0  0  0  0  0  0  0  0
    0.4950   68.7900   63.7740 C   0  0  0  0  0  0  0  0  0  0  0  0
    0.9460   69.1240   62.5800 N   0  0  0  0  0  0  0  0  0  0  0  0
    2.1800   68.5320   62.5050 C   0  0  0  0  0  0  0  0  0  0  0  0
    2.4820   67.8460   63.6620 C   0  0  0  0  0  0  0  0  0  0  0  0
    3.6060   67.1510   63.9620 N   0  0  0  0  0  0  0  0  0  0  0  0
    4.4690   67.1650   62.9880 C   0  0  0  0  0  0  0  0  0  0  0  0
    4.2970   67.8070   61.7750 N   0  0  0  0  0  0  0  0  0  0  0  0
    3.1620   68.5330   61.4390 C   0  0  0  0  0  0  0  0  0  0  0  0
    3.0520   69.0950   60.3550 O   0  0  0  0  0  0  0  0  0  0  0  0
   -0.5640   67.2090   67.2700 C   0  0  2  0  0  0  0  0  0  0  0  0
    0.5440   67.9420   68.0070 C   0  0  0  0  0  0  0  0  0  0  0  0
    1.3410   68.5610   66.8870 C   0  0  0  0  0  0  0  0  0  0  0  0
    1.2500   67.4930   65.8090 C   0  0  1  0  0  0  0  0  0  0  0  0
   -0.0410   66.8630   65.9670 O   0  0  0  0  0  0  0  0  0  0  0  0
   -1.8200   68.0600   67.0640 C   0  0  0  0  0  0  0  0  0  0  0  0
   -2.9370   67.4190   67.6800 O   0  0  0  0  0  0  0  0  0  0  0  0
   -0.4854   69.0963   64.1677 H   0  0  0  0  0  0  0  0  0  0  0  0
    5.4129   66.6216   63.1421 H   0  0  0  0  0  0  0  0  0  0  0  0
    5.0549   67.7428   61.0805 H   0  0  0  0  0  0  0  0  0  0  0  0
   -0.8595   66.3365   67.8711 H   0  0  0  0  0  0  0  0  0  0  0  0
    0.1324   68.7142   68.6736 H   0  0  0  0  0  0  0  0  0  0  0  0
    1.1430   67.2854   68.6552 H   0  0  0  0  0  0  0  0  0  0  0  0
    0.8913   69.5072   66.5516 H   0  0  0  0  0  0  0  0  0  0  0  0
    2.3720   68.8225   67.1673 H   0  0  0  0  0  0  0  0  0  0  0  0
    2.0816   66.7835   65.9317 H   0  0  0  0  0  0  0  0  0  0  0  0
   -1.6699   69.0507   67.5179 H   0  0  0  0  0  0  0  0  0  0  0  0
   -2.0119   68.1747   65.9870 H   0  0  0  0  0  0  0  0  0  0  0  0
   -2.8459   67.4713   68.6644 H   0  0  0  0  0  0  0  0  0  0  0  0
  2  1  1  0
  3  2  2  0
  4  3  1  0
  5  4  2  0
  5  1  1  0
  6  5  1  0
  7  6  2  0
  8  7  1  0
  9  8  1  0
  9  4  1  0
 10  9  2  0
 12 11  1  0
 13 12  1  0
 14  1  1  0
 14 13  1  0
 15 14  1  0
 15 11  1  0
 16 11  1  0
 17 16  1  0
  2 18  1  0
  7 19  1  0
  8 20  1  0
 11 21  1  1
 12 22  1  0
 12 23  1  0
 13 24  1  0
 13 25  1  0
 14 26  1  1
 16 27  1  0
 16 28  1  0
 17 29  1  0
M  END
>  <score>  (1) 
-8.283

$$$$
=
     RDKit          3D

 29 31  0  0  0  0  0  0  0  0999 V2000
    2.2090   67.4990   65.3650 N   0  0  0  0  0  0  0  0  0  0  0  0
    2.5390   68.6830   64.7570 C   0  0  0  0  0  0  0  0  0  0  0  0
    3.4160   68.5160   63.7860 N   0  0  0  0  0  0  0  0  0  0  0  0
    3.6520   67.1660   63.7700 C   0  0  0  0  0  0  0  0  0  0  0  0
    2.9230   66.5140   64.7410 C   0  0  0  0  0  0  0  0  0  0  0  0
    2.9020   65.1910   65.0350 N   0  0  0  0  0  0  0  0  0  0  0  0
    3.6870   64.5020   64.2610 C   0  0  0  0  0  0  0  0  0  0  0  0
    4.4710   65.0220   63.2470 N   0  0  0  0  0  0  0  0  0  0  0  0
    4.5210   66.3720   62.9240 C   0  0  0  0  0  0  0  0  0  0  0  0
    5.2370   66.7950   62.0230 O   0  0  0  0  0  0  0  0  0  0  0  0
   -0.9740   67.7240   66.8290 C   0  0  2  0  0  0  0  0  0  0  0  0
   -0.1860   68.3290   67.9790 C   0  0  0  0  0  0  0  0  0  0  0  0
    1.1860   68.5180   67.3830 C   0  0  0  0  0  0  0  0  0  0  0  0
    1.3070   67.3010   66.4790 C   0  0  1  0  0  0  0  0  0  0  0  0
   -0.0260   67.0160   65.9980 O   0  0  0  0  0  0  0  0  0  0  0  0
   -1.6740   68.7710   65.9590 C   0  0  0  0  0  0  0  0  0  0  0  0
   -1.1100   68.7570   64.6480 O   0  0  0  0  0  0  0  0  0  0  0  0
    2.1209   69.6587   65.0455 H   0  0  0  0  0  0  0  0  0  0  0  0
    3.7314   63.4154   64.4262 H   0  0  0  0  0  0  0  0  0  0  0  0
    5.0513   64.3704   62.6997 H   0  0  0  0  0  0  0  0  0  0  0  0
   -1.7570   67.0769   67.2510 H   0  0  0  0  0  0  0  0  0  0  0  0
   -0.6177   69.2911   68.2919 H   0  0  0  0  0  0  0  0  0  0  0  0
   -0.1849   67.7020   68.8828 H   0  0  0  0  0  0  0  0  0  0  0  0
    1.2460   69.4525   66.8058 H   0  0  0  0  0  0  0  0  0  0  0  0
    1.9882   68.5966   68.1315 H   0  0  0  0  0  0  0  0  0  0  0  0
    1.7343   66.4655   67.0529 H   0  0  0  0  0  0  0  0  0  0  0  0
   -2.7475   68.5385   65.8985 H   0  0  0  0  0  0  0  0  0  0  0  0
   -1.5382   69.7673   66.4051 H   0  0  0  0  0  0  0  0  0  0  0  0
   -0.1225   68.7325   64.7138 H   0  0  0  0  0  0  0  0  0  0  0  0
  2  1  1  0
  3  2  2  0
  4  3  1  0
  5  4  2  0
  5  1  1  0
  6  5  1  0
  7  6  2  0
  8  7  1  0
  9  8  1  0
  9  4  1  0
 10  9  2  0
 12 11  1  0
 13 12  1  0
 14  1  1  0
 14 13  1  0
 15 14  1  0
 15 11  1  0
 16 11  1  0
 17 16  1  0
  2 18  1  0
  7 19  1  0
  8 20  1  0
 11 21  1  1
 12 22  1  0
 12 23  1  0
 13 24  1  0
 13 25  1  0
 14 26  1  1
 16 27  1  0
 16 28  1  0
 17 29  1  0
M  END
>  <score>  (2) 
-8.088

$$$$
=
     RDKit          3D

 29 31  0  0  0  0  0  0  0  0999 V2000
    4.1820   69.4050   65.4870 N   0  0  0  0  0  0  0  0  0  0  0  0
    5.4410   69.8050   65.8560 C   0  0  0  0  0  0  0  0  0  0  0  0
    5.4970   70.1600   67.1260 N   0  0  0  0  0  0  0  0  0  0  0  0
    4.2210   69.9720   67.5890 C   0  0  0  0  0  0  0  0  0  0  0  0
    3.3860   69.5110   66.5930 C   0  0  0  0  0  0  0  0  0  0  0  0
    2.0630   69.2240   66.6680 N   0  0  0  0  0  0  0  0  0  0  0  0
    1.5820   69.4220   67.8600 C   0  0  0  0  0  0  0  0  0  0  0  0
    2.3030   69.8750   68.9490 N   0  0  0  0  0  0  0  0  0  0  0  0
    3.6550   70.1860   68.9060 C   0  0  0  0  0  0  0  0  0  0  0  0
    4.2570   70.5950   69.8930 O   0  0  0  0  0  0  0  0  0  0  0  0
    3.7090   66.9170   63.0560 C   0  0  2  0  0  0  0  0  0  0  0  0
    4.3650   67.9490   62.1550 C   0  0  0  0  0  0  0  0  0  0  0  0
    4.8470   68.9910   63.1330 C   0  0  0  0  0  0  0  0  0  0  0  0
    3.7410   68.9770   64.1770 C   0  0  1  0  0  0  0  0  0  0  0  0
    3.2500   67.6200   64.2330 O   0  0  0  0  0  0  0  0  0  0  0  0
    4.6680   65.8130   63.5090 C   0  0  0  0  0  0  0  0  0  0  0  0
    4.3130   64.5830   62.8770 O   0  0  0  0  0  0  0  0  0  0  0  0
    6.3032   69.8273   65.1733 H   0  0  0  0  0  0  0  0  0  0  0  0
    0.5134   69.2117   68.0144 H   0  0  0  0  0  0  0  0  0  0  0  0
    1.8078   69.9884   69.8450 H   0  0  0  0  0  0  0  0  0  0  0  0
    2.8996   66.4313   62.4913 H   0  0  0  0  0  0  0  0  0  0  0  0
    5.2057   67.5105   61.5974 H   0  0  0  0  0  0  0  0  0  0  0  0
    3.6858   68.3524   61.3895 H   0  0  0  0  0  0  0  0  0  0  0  0
    5.8154   68.7097   63.5723 H   0  0  0  0  0  0  0  0  0  0  0  0
    5.0190   69.9790   62.6810 H   0  0  0  0  0  0  0  0  0  0  0  0
    2.9592   69.6940   63.8858 H   0  0  0  0  0  0  0  0  0  0  0  0
    5.6969   66.0844   63.2303 H   0  0  0  0  0  0  0  0  0  0  0  0
    4.6016   65.6959   64.6007 H   0  0  0  0  0  0  0  0  0  0  0  0
    4.1164   63.9017   63.5679 H   0  0  0  0  0  0  0  0  0  0  0  0
  2  1  1  0
  3  2  2  0
  4  3  1  0
  5  4  2  0
  5  1  1  0
  6  5  1  0
  7  6  2  0
  8  7  1  0
  9  8  1  0
  9  4  1  0
 10  9  2  0
 12 11  1  0
 13 12  1  0
 14  1  1  0
 14 13  1  0
 15 14  1  0
 15 11  1  0
 16 11  1  0
 17 16  1  0
  2 18  1  0
  7 19  1  0
  8 20  1  0
 11 21  1  6
 12 22  1  0
 12 23  1  0
 13 24  1  0
 13 25  1  0
 14 26  1  6
 16 27  1  0
 16 28  1  0
 17 29  1  0
M  END
>  <score>  (3) 
-7.976

$$$$
=
     RDKit          3D

 29 31  0  0  0  0  0  0  0  0999 V2000
    1.0000   68.1560   65.8720 N   0  0  0  0  0  0  0  0  0  0  0  0
    1.3750   67.4410   66.9810 C   0  0  0  0  0  0  0  0  0  0  0  0
    0.3400   67.0960   67.7230 N   0  0  0  0  0  0  0  0  0  0  0  0
   -0.7430   67.6070   67.0560 C   0  0  0  0  0  0  0  0  0  0  0  0
   -0.3620   68.2730   65.9110 C   0  0  0  0  0  0  0  0  0  0  0  0
   -1.1440   68.9140   65.0080 N   0  0  0  0  0  0  0  0  0  0  0  0
   -2.4060   68.8490   65.3150 C   0  0  0  0  0  0  0  0  0  0  0  0
   -2.9280   68.2130   66.4260 N   0  0  0  0  0  0  0  0  0  0  0  0
   -2.1560   67.5550   67.3740 C   0  0  0  0  0  0  0  0  0  0  0  0
   -2.6570   67.0100   68.3510 O   0  0  0  0  0  0  0  0  0  0  0  0
    3.4740   67.8310   63.4020 C   0  0  2  0  0  0  0  0  0  0  0  0
    4.0780   69.0200   64.1300 C   0  0  0  0  0  0  0  0  0  0  0  0
    3.2320   69.1170   65.3740 C   0  0  0  0  0  0  0  0  0  0  0  0
    1.8600   68.7200   64.8540 C   0  0  1  0  0  0  0  0  0  0  0  0
    2.0860   67.7570   63.8010 O   0  0  0  0  0  0  0  0  0  0  0  0
    4.1390   66.5000   63.7610 C   0  0  0  0  0  0  0  0  0  0  0  0
    4.8290   65.9880   62.6220 O   0  0  0  0  0  0  0  0  0  0  0  0
    2.4170   67.1851   67.2234 H   0  0  0  0  0  0  0  0  0  0  0  0
   -3.1168   69.3406   64.6345 H   0  0  0  0  0  0  0  0  0  0  0  0
   -3.9494   68.2282   66.5582 H   0  0  0  0  0  0  0  0  0  0  0  0
    3.6136   67.9819   62.3214 H   0  0  0  0  0  0  0  0  0  0  0  0
    5.1328   68.8359   64.3819 H   0  0  0  0  0  0  0  0  0  0  0  0
    4.0778   69.9426   63.5309 H   0  0  0  0  0  0  0  0  0  0  0  0
    3.5819   68.4211   66.1507 H   0  0  0  0  0  0  0  0  0  0  0  0
    3.2562   70.1079   65.8510 H   0  0  0  0  0  0  0  0  0  0  0  0
    1.3351   69.6180   64.4963 H   0  0  0  0  0  0  0  0  0  0  0  0
    4.8539   66.6575   64.5820 H   0  0  0  0  0  0  0  0  0  0  0  0
    3.3694   65.7801   64.0764 H   0  0  0  0  0  0  0  0  0  0  0  0
    5.5870   65.4255   62.9207 H   0  0  0  0  0  0  0  0  0  0  0  0
  2  1  1  0
  3  2  2  0
  4  3  1  0
  5  4  2  0
  5  1  1  0
  6  5  1  0
  7  6  2  0
  8  7  1  0
  9  8  1  0
  9  4  1  0
 10  9  2  0
 12 11  1  0
 13 12  1  0
 14  1  1  0
 14 13  1  0
 15 14  1  0
 15 11  1  0
 16 11  1  0
 17 16  1  0
  2 18  1  0
  7 19  1  0
  8 20  1  0
 11 21  1  6
 12 22  1  0
 12 23  1  0
 13 24  1  0
 13 25  1  0
 14 26  1  6
 16 27  1  0
 16 28  1  0
 17 29  1  0
M  END
>  <score>  (4) 
-7.784

$$$$
=
     RDKit          3D

 29 31  0  0  0  0  0  0  0  0999 V2000
    4.0650   69.0530   65.7040 N   0  0  0  0  0  0  0  0  0  0  0  0
    5.2840   69.4170   65.1910 C   0  0  0  0  0  0  0  0  0  0  0  0
    5.9660   70.1800   66.0240 N   0  0  0  0  0  0  0  0  0  0  0  0
    5.1500   70.3020   67.1180 C   0  0  0  0  0  0  0  0  0  0  0  0
    3.9650   69.6200   66.9430 C   0  0  0  0  0  0  0  0  0  0  0  0
    2.9150   69.5200   67.7960 N   0  0  0  0  0  0  0  0  0  0  0  0
    3.1180   70.1680   68.9050 C   0  0  0  0  0  0  0  0  0  0  0  0
    4.2570   70.8890   69.2150 N   0  0  0  0  0  0  0  0  0  0  0  0
    5.3460   71.0170   68.3640 C   0  0  0  0  0  0  0  0  0  0  0  0
    6.3340   71.6740   68.6730 O   0  0  0  0  0  0  0  0  0  0  0  0
    2.5890   67.6500   62.8440 C   0  0  2  0  0  0  0  0  0  0  0  0
    1.3210   68.2090   63.4650 C   0  0  0  0  0  0  0  0  0  0  0  0
    1.8460   69.0580   64.5940 C   0  0  0  0  0  0  0  0  0  0  0  0
    3.0440   68.2500   65.0660 C   0  0  1  0  0  0  0  0  0  0  0  0
    3.5820   67.5970   63.8940 O   0  0  0  0  0  0  0  0  0  0  0  0
    3.1450   68.5200   61.7140 C   0  0  0  0  0  0  0  0  0  0  0  0
    2.0650   69.0690   60.9580 O   0  0  0  0  0  0  0  0  0  0  0  0
    5.6503   69.1088   64.2006 H   0  0  0  0  0  0  0  0  0  0  0  0
    2.3176   70.1405   69.6591 H   0  0  0  0  0  0  0  0  0  0  0  0
    4.2995   71.3583   70.1309 H   0  0  0  0  0  0  0  0  0  0  0  0
    2.3542   66.6667   62.4104 H   0  0  0  0  0  0  0  0  0  0  0  0
    0.7600   68.8171   62.7401 H   0  0  0  0  0  0  0  0  0  0  0  0
    0.6194   67.4296   63.7971 H   0  0  0  0  0  0  0  0  0  0  0  0
    2.1504   70.0532   64.2377 H   0  0  0  0  0  0  0  0  0  0  0  0
    1.1050   69.2547   65.3828 H   0  0  0  0  0  0  0  0  0  0  0  0
    2.7171   67.5336   65.8341 H   0  0  0  0  0  0  0  0  0  0  0  0
    3.7450   69.3367   62.1418 H   0  0  0  0  0  0  0  0  0  0  0  0
    3.7768   67.9053   61.0560 H   0  0  0  0  0  0  0  0  0  0  0  0
    1.3750   69.4198   61.5752 H   0  0  0  0  0  0  0  0  0  0  0  0
  2  1  1  0
  3  2  2  0
  4  3  1  0
  5  4  2  0
  5  1  1  0
  6  5  1  0
  7  6  2  0
  8  7  1  0
  9  8  1  0
  9  4  1  0
 10  9  2  0
 12 11  1  0
 13 12  1  0
 14  1  1  0
 14 13  1  0
 15 14  1  0
 15 11  1  0
 16 11  1  0
 17 16  1  0
  2 18  1  0
  7 19  1  0
  8 20  1  0
 11 21  1  6
 12 22  1  0
 12 23  1  0
 13 24  1  0
 13 25  1  0
 14 26  1  1
 16 27  1  0
 16 28  1  0
 17 29  1  0
M  END
>  <score>  (5) 
-7.52

$$$$
=
     RDKit          3D

 29 31  0  0  0  0  0  0  0  0999 V2000
    2.7470   67.9000   65.6160 N   0  0  0  0  0  0  0  0  0  0  0  0
    3.2190   69.1860   65.6830 C   0  0  0  0  0  0  0  0  0  0  0  0
    4.1350   69.4280   64.7650 N   0  0  0  0  0  0  0  0  0  0  0  0
    4.2470   68.2470   64.0770 C   0  0  0  0  0  0  0  0  0  0  0  0
    3.4040   67.2840   64.5870 C   0  0  0  0  0  0  0  0  0  0  0  0
    3.2450   66.0000   64.1800 N   0  0  0  0  0  0  0  0  0  0  0  0
    4.0090   65.7060   63.1700 C   0  0  0  0  0  0  0  0  0  0  0  0
    4.8970   66.5720   62.5570 N   0  0  0  0  0  0  0  0  0  0  0  0
    5.0890   67.8890   62.9530 C   0  0  0  0  0  0  0  0  0  0  0  0
    5.8930   68.6220   62.3880 O   0  0  0  0  0  0  0  0  0  0  0  0
   -0.5730   67.3830   66.6340 C   0  0  2  0  0  0  0  0  0  0  0  0
    0.0190   67.6280   68.0110 C   0  0  0  0  0  0  0  0  0  0  0  0
    1.4130   68.1080   67.6970 C   0  0  0  0  0  0  0  0  0  0  0  0
    1.7650   67.2740   66.4750 C   0  0  1  0  0  0  0  0  0  0  0  0
    0.5310   67.0660   65.7540 O   0  0  0  0  0  0  0  0  0  0  0  0
   -1.2970   68.6040   66.0600 C   0  0  0  0  0  0  0  0  0  0  0  0
   -1.5850   69.5260   67.1110 O   0  0  0  0  0  0  0  0  0  0  0  0
    2.8739   69.9292   66.4169 H   0  0  0  0  0  0  0  0  0  0  0  0
    3.9440   64.6836   62.7694 H   0  0  0  0  0  0  0  0  0  0  0  0
    5.4474   66.2194   61.7610 H   0  0  0  0  0  0  0  0  0  0  0  0
   -1.3153   66.5755   66.7174 H   0  0  0  0  0  0  0  0  0  0  0  0
   -0.5505   68.3953   68.5559 H   0  0  0  0  0  0  0  0  0  0  0  0
    0.0010   66.7375   68.6566 H   0  0  0  0  0  0  0  0  0  0  0  0
    1.4228   69.1830   67.4639 H   0  0  0  0  0  0  0  0  0  0  0  0
    2.1206   67.9938   68.5315 H   0  0  0  0  0  0  0  0  0  0  0  0
    2.2246   66.3295   66.8015 H   0  0  0  0  0  0  0  0  0  0  0  0
   -0.6559   69.0913   65.3106 H   0  0  0  0  0  0  0  0  0  0  0  0
   -2.2368   68.2832   65.5868 H   0  0  0  0  0  0  0  0  0  0  0  0
   -1.4467   69.0832   67.9856 H   0  0  0  0  0  0  0  0  0  0  0  0
  2  1  1  0
  3  2  2  0
  4  3  1  0
  5  4  2  0
  5  1  1  0
  6  5  1  0
  7  6  2  0
  8  7  1  0
  9  8  1  0
  9  4  1  0
 10  9  2  0
 12 11  1  0
 13 12  1  0
 14  1  1  0
 14 13  1  0
 15 14  1  0
 15 11  1  0
 16 11  1  0
 17 16  1  0
  2 18  1  0
  7 19  1  0
  8 20  1  0
 11 21  1  1
 12 22  1  0
 12 23  1  0
 13 24  1  0
 13 25  1  0
 14 26  1  1
 16 27  1  0
 16 28  1  0
 17 29  1  0
M  END
>  <score>  (6) 
-7.375

$$$$
=
     RDKit          3D

 29 31  0  0  0  0  0  0  0  0999 V2000
    2.8570   69.7340   67.6990 N   0  0  0  0  0  0  0  0  0  0  0  0
    2.9720   70.1790   68.9910 C   0  0  0  0  0  0  0  0  0  0  0  0
    4.2030   70.5530   69.2810 N   0  0  0  0  0  0  0  0  0  0  0  0
    4.9040   70.3440   68.1220 C   0  0  0  0  0  0  0  0  0  0  0  0
    4.0960   69.8320   67.1290 C   0  0  0  0  0  0  0  0  0  0  0  0
    4.4320   69.4890   65.8610 N   0  0  0  0  0  0  0  0  0  0  0  0
    5.6900   69.7020   65.6100 C   0  0  0  0  0  0  0  0  0  0  0  0
    6.6110   70.2130   66.5070 N   0  0  0  0  0  0  0  0  0  0  0  0
    6.3020   70.5680   67.8130 C   0  0  0  0  0  0  0  0  0  0  0  0
    7.1500   71.0100   68.5800 O   0  0  0  0  0  0  0  0  0  0  0  0
   -0.0660   67.7900   67.7010 C   0  0  2  0  0  0  0  0  0  0  0  0
    0.4990   67.2940   66.3800 C   0  0  0  0  0  0  0  0  0  0  0  0
    1.8900   67.8750   66.3710 C   0  0  0  0  0  0  0  0  0  0  0  0
    1.6730   69.2210   67.0440 C   0  0  1  0  0  0  0  0  0  0  0  0
    0.6140   69.0290   68.0080 O   0  0  0  0  0  0  0  0  0  0  0  0
    0.1710   66.8210   68.8630 C   0  0  0  0  0  0  0  0  0  0  0  0
    1.1540   67.3650   69.7440 O   0  0  0  0  0  0  0  0  0  0  0  0
    2.1345   70.2193   69.7030 H   0  0  0  0  0  0  0  0  0  0  0  0
    6.0518   69.4555   64.6009 H   0  0  0  0  0  0  0  0  0  0  0  0
    7.5822   70.3372   66.1873 H   0  0  0  0  0  0  0  0  0  0  0  0
   -1.1546   67.9018   67.5897 H   0  0  0  0  0  0  0  0  0  0  0  0
    0.5288   66.1948   66.3498 H   0  0  0  0  0  0  0  0  0  0  0  0
   -0.1031   67.5935   65.5095 H   0  0  0  0  0  0  0  0  0  0  0  0
    2.5887   67.2488   66.9452 H   0  0  0  0  0  0  0  0  0  0  0  0
    2.3348   67.9468   65.3675 H   0  0  0  0  0  0  0  0  0  0  0  0
    1.4158   69.9696   66.2801 H   0  0  0  0  0  0  0  0  0  0  0  0
   -0.7701   66.6700   69.4122 H   0  0  0  0  0  0  0  0  0  0  0  0
    0.5250   65.8567   68.4696 H   0  0  0  0  0  0  0  0  0  0  0  0
    0.8773   67.2119   70.6821 H   0  0  0  0  0  0  0  0  0  0  0  0
  2  1  1  0
  3  2  2  0
  4  3  1  0
  5  4  2  0
  5  1  1  0
  6  5  1  0
  7  6  2  0
  8  7  1  0
  9  8  1  0
  9  4  1  0
 10  9  2  0
 12 11  1  0
 13 12  1  0
 14  1  1  0
 14 13  1  0
 15 14  1  0
 15 11  1  0
 16 11  1  0
 17 16  1  0
  2 18  1  0
  7 19  1  0
  8 20  1  0
 11 21  1  6
 12 22  1  0
 12 23  1  0
 13 24  1  0
 13 25  1  0
 14 26  1  6
 16 27  1  0
 16 28  1  0
 17 29  1  0
M  END
>  <score>  (7) 
-7.251

$$$$
=
     RDKit          3D

 29 31  0  0  0  0  0  0  0  0999 V2000
    1.0120   68.5150   64.4700 N   0  0  0  0  0  0  0  0  0  0  0  0
    0.2720   68.7130   63.3320 C   0  0  0  0  0  0  0  0  0  0  0  0
   -1.0140   68.8460   63.5930 N   0  0  0  0  0  0  0  0  0  0  0  0
   -1.0990   68.7360   64.9570 C   0  0  0  0  0  0  0  0  0  0  0  0
    0.1400   68.5250   65.5230 C   0  0  0  0  0  0  0  0  0  0  0  0
    0.4520   68.3560   66.8320 N   0  0  0  0  0  0  0  0  0  0  0  0
   -0.5960   68.4210   67.6000 C   0  0  0  0  0  0  0  0  0  0  0  0
   -1.8930   68.6310   67.1690 N   0  0  0  0  0  0  0  0  0  0  0  0
   -2.2480   68.8000   65.8380 C   0  0  0  0  0  0  0  0  0  0  0  0
   -3.4120   68.9750   65.4960 O   0  0  0  0  0  0  0  0  0  0  0  0
    4.1890   68.2170   63.0070 C   0  0  2  0  0  0  0  0  0  0  0  0
    4.2590   66.9770   63.8830 C   0  0  0  0  0  0  0  0  0  0  0  0
    2.8470   66.8480   64.3950 C   0  0  0  0  0  0  0  0  0  0  0  0
    2.4400   68.3020   64.5680 C   0  0  1  0  0  0  0  0  0  0  0  0
    3.1270   69.0440   63.5360 O   0  0  0  0  0  0  0  0  0  0  0  0
    3.8610   67.9060   61.5440 C   0  0  0  0  0  0  0  0  0  0  0  0
    3.1950   69.0230   60.9560 O   0  0  0  0  0  0  0  0  0  0  0  0
    0.7010   68.7558   62.3200 H   0  0  0  0  0  0  0  0  0  0  0  0
   -0.4373   68.2988   68.6816 H   0  0  0  0  0  0  0  0  0  0  0  0
   -2.6398   68.6639   67.8776 H   0  0  0  0  0  0  0  0  0  0  0  0
    5.1746   68.7053   63.0215 H   0  0  0  0  0  0  0  0  0  0  0  0
    4.5496   66.0933   63.2959 H   0  0  0  0  0  0  0  0  0  0  0  0
    5.0074   67.0531   64.6855 H   0  0  0  0  0  0  0  0  0  0  0  0
    2.2023   66.3366   63.6651 H   0  0  0  0  0  0  0  0  0  0  0  0
    2.7614   66.2509   65.3148 H   0  0  0  0  0  0  0  0  0  0  0  0
    2.7149   68.6361   65.5793 H   0  0  0  0  0  0  0  0  0  0  0  0
    4.7924   67.7041   60.9947 H   0  0  0  0  0  0  0  0  0  0  0  0
    3.2068   67.0230   61.4955 H   0  0  0  0  0  0  0  0  0  0  0  0
    2.8441   69.6116   61.6705 H   0  0  0  0  0  0  0  0  0  0  0  0
  2  1  1  0
  3  2  2  0
  4  3  1  0
  5  4  2  0
  5  1  1  0
  6  5  1  0
  7  6  2  0
  8  7  1  0
  9  8  1  0
  9  4  1  0
 10  9  2  0
 12 11  1  0
 13 12  1  0
 14  1  1  0
 14 13  1  0
 15 14  1  0
 15 11  1  0
 16 11  1  0
 17 16  1  0
  2 18  1  0
  7 19  1  0
  8 20  1  0
 11 21  1  6
 12 22  1  0
 12 23  1  0
 13 24  1  0
 13 25  1  0
 14 26  1  1
 16 27  1  0
 16 28  1  0
 17 29  1  0
M  END
>  <score>  (8) 
-7.191

$$$$
=
     RDKit          3D

 29 31  0  0  0  0  0  0  0  0999 V2000
    2.1420   68.1420   65.2930 N   0  0  0  0  0  0  0  0  0  0  0  0
    1.9050   68.0890   66.6430 C   0  0  0  0  0  0  0  0  0  0  0  0
    0.6400   68.3250   66.9350 N   0  0  0  0  0  0  0  0  0  0  0  0
    0.0420   68.5300   65.7190 C   0  0  0  0  0  0  0  0  0  0  0  0
    0.9510   68.4290   64.6870 C   0  0  0  0  0  0  0  0  0  0  0  0
    0.7370   68.5790   63.3570 N   0  0  0  0  0  0  0  0  0  0  0  0
   -0.5060   68.8450   63.0850 C   0  0  0  0  0  0  0  0  0  0  0  0
   -1.5210   68.9710   64.0160 N   0  0  0  0  0  0  0  0  0  0  0  0
   -1.3350   68.8300   65.3850 C   0  0  0  0  0  0  0  0  0  0  0  0
   -2.2610   68.9580   66.1790 O   0  0  0  0  0  0  0  0  0  0  0  0
    4.2070   68.5260   62.4800 C   0  0  2  0  0  0  0  0  0  0  0  0
    4.4940   67.0560   62.7340 C   0  0  0  0  0  0  0  0  0  0  0  0
    3.4740   66.6920   63.7840 C   0  0  0  0  0  0  0  0  0  0  0  0
    3.4070   67.9650   64.6130 C   0  0  1  0  0  0  0  0  0  0  0  0
    3.6400   69.0590   63.6990 O   0  0  0  0  0  0  0  0  0  0  0  0
    3.2000   68.7600   61.3500 C   0  0  0  0  0  0  0  0  0  0  0  0
    3.8670   69.3420   60.2300 O   0  0  0  0  0  0  0  0  0  0  0  0
    2.6792   67.8748   67.3945 H   0  0  0  0  0  0  0  0  0  0  0  0
   -0.7727   68.9812   62.0265 H   0  0  0  0  0  0  0  0  0  0  0  0
   -2.4696   69.1816   63.6743 H   0  0  0  0  0  0  0  0  0  0  0  0
    5.1471   69.0135   62.1826 H   0  0  0  0  0  0  0  0  0  0  0  0
    4.3512   66.4609   61.8200 H   0  0  0  0  0  0  0  0  0  0  0  0
    5.5302   66.8630   63.0486 H   0  0  0  0  0  0  0  0  0  0  0  0
    2.4994   66.4583   63.3306 H   0  0  0  0  0  0  0  0  0  0  0  0
    3.7365   65.7964   64.3663 H   0  0  0  0  0  0  0  0  0  0  0  0
    4.1617   67.9170   65.4119 H   0  0  0  0  0  0  0  0  0  0  0  0
    2.7535   67.7998   61.0523 H   0  0  0  0  0  0  0  0  0  0  0  0
    2.4091   69.4400   61.6992 H   0  0  0  0  0  0  0  0  0  0  0  0
    4.5729   69.9580   60.5499 H   0  0  0  0  0  0  0  0  0  0  0  0
  2  1  1  0
  3  2  2  0
  4  3  1  0
  5  4  2  0
  5  1  1  0
  6  5  1  0
  7  6  2  0
  8  7  1  0
  9  8  1  0
  9  4  1  0
 10  9  2  0
 12 11  1  0
 13 12  1  0
 14  1  1  0
 14 13  1  0
 15 14  1  0
 15 11  1  0
 16 11  1  0
 17 16  1  0
  2 18  1  0
  7 19  1  0
  8 20  1  0
 11 21  1  6
 12 22  1  0
 12 23  1  0
 13 24  1  0
 13 25  1  0
 14 26  1  1
 16 27  1  0
 16 28  1  0
 17 29  1  0
M  END
>  <score>  (9) 
-7.145

$$$$
