=
     RDKit          3D

 39 40  0  0  0  0  0  0  0  0999 V2000
    4.9120   69.4480   63.6430 C   0  0  0  0  0  0  0  0  0  0  0  0
    4.7900   68.5210   62.4320 C   0  0  1  0  0  0  0  0  0  0  0  0
    6.0300   67.8600   62.1290 O   0  0  0  0  0  0  0  0  0  0  0  0
    3.7370   67.4290   62.6880 C   0  0  0  0  0  0  0  0  0  0  0  0
    4.4740   66.1190   62.8230 N   0  0  0  0  0  4  0  0  0  0  0  0
    4.3270   65.3260   64.0820 C   0  0  0  0  0  0  0  0  0  0  0  0
    2.9030   65.4220   64.6130 C   0  0  0  0  0  0  0  0  0  0  0  0
    4.7790   63.8900   63.8600 C   0  0  0  0  0  0  0  0  0  0  0  0
    5.1260   68.6350   64.7970 O   0  0  0  0  0  0  0  0  0  0  0  0
    4.4470   69.1130   65.8920 C   0  0  0  0  0  0  0  0  0  0  0  0
    3.0740   68.8790   66.0570 C   0  0  0  0  0  0  0  0  0  0  0  0
    2.4010   69.3770   67.1700 C   0  0  0  0  0  0  0  0  0  0  0  0
    3.0730   70.1080   68.1540 C   0  0  0  0  0  0  0  0  0  0  0  0
    4.4490   70.3060   67.9900 C   0  0  0  0  0  0  0  0  0  0  0  0
    5.1550   69.8180   66.8900 C   0  0  0  0  0  0  0  0  0  0  0  0
    6.5180   70.1880   67.0750 C   0  0  0  0  0  0  0  0  0  0  0  0
    6.6080   70.8920   68.2540 C   0  0  0  0  0  0  0  0  0  0  0  0
    5.3530   70.9560   68.8010 N   0  0  0  0  0  0  0  0  0  0  0  0
    5.7616   70.1330   63.5054 H   0  0  0  0  0  0  0  0  0  0  0  0
    3.9975   70.0478   63.7606 H   0  0  0  0  0  0  0  0  0  0  0  0
    4.4978   69.1597   61.5855 H   0  0  0  0  0  0  0  0  0  0  0  0
    6.4883   67.6157   62.9719 H   0  0  0  0  0  0  0  0  0  0  0  0
    3.1851   67.6478   63.6140 H   0  0  0  0  0  0  0  0  0  0  0  0
    3.0121   67.3851   61.8618 H   0  0  0  0  0  0  0  0  0  0  0  0
    4.1602   65.5160   62.0491 H   0  0  0  0  0  0  0  0  0  0  0  0
    5.4664   66.3949   62.8216 H   0  0  0  0  0  0  0  0  0  0  0  0
    4.9816   65.7508   64.8573 H   0  0  0  0  0  0  0  0  0  0  0  0
    2.9209   65.4208   65.7129 H   0  0  0  0  0  0  0  0  0  0  0  0
    2.4401   66.3534   64.2549 H   0  0  0  0  0  0  0  0  0  0  0  0
    2.3193   64.5612   64.2549 H   0  0  0  0  0  0  0  0  0  0  0  0
    4.9333   63.3997   64.8325 H   0  0  0  0  0  0  0  0  0  0  0  0
    4.0085   63.3465   63.2935 H   0  0  0  0  0  0  0  0  0  0  0  0
    5.7219   63.8858   63.2935 H   0  0  0  0  0  0  0  0  0  0  0  0
    2.5246   68.2978   65.3017 H   0  0  0  0  0  0  0  0  0  0  0  0
    1.3219   69.1919   67.2766 H   0  0  0  0  0  0  0  0  0  0  0  0
    2.5394   70.5133   69.0263 H   0  0  0  0  0  0  0  0  0  0  0  0
    7.3508   69.9528   66.3960 H   0  0  0  0  0  0  0  0  0  0  0  0
    7.5240   71.3260   68.6813 H   0  0  0  0  0  0  0  0  0  0  0  0
    5.1197   71.4223   69.6893 H   0  0  0  0  0  0  0  0  0  0  0  0
  2  1  1  0
  3  2  1  0
  4  2  1  0
  5  4  1  0
  6  5  1  0
  7  6  1  0
  8  6  1  0
  9  1  1  0
 10  9  1  0
 11 10  2  0
 12 11  1  0
 13 12  2  0
 14 13  1  0
 15 14  2  0
 15 10  1  0
 16 15  1  0
 17 16  2  0
 18 14  1  0
 18 17  1  0
  1 19  1  0
  1 20  1  0
  2 21  1  6
  3 22  1  0
  4 23  1  0
  4 24  1  0
  5 25  1  0
  5 26  1  0
  6 27  1  0
  7 28  1  0
  7 29  1  0
  7 30  1  0
  8 31  1  0
  8 32  1  0
  8 33  1  0
 11 34  1  0
 12 35  1  0
 13 36  1  0
 16 37  1  0
 17 38  1  0
 18 39  1  0
M  CHG  1   5   1
M  END
>  <score>  (1) 
-8.133

$$$$
=
     RDKit          3D

 39 40  0  0  0  0  0  0  0  0999 V2000
    0.5160   69.5560   67.6640 C   0  0  0  0  0  0  0  0  0  0  0  0
   -0.7390   68.9320   67.0530 C   0  0  1  0  0  0  0  0  0  0  0  0
   -1.6720   69.9270   66.5990 O   0  0  0  0  0  0  0  0  0  0  0  0
   -0.3750   68.0560   65.8420 C   0  0  0  0  0  0  0  0  0  0  0  0
   -0.7050   68.8480   64.6010 N   0  0  0  0  0  4  0  0  0  0  0  0
    0.3870   69.1840   63.6380 C   0  0  0  0  0  0  0  0  0  0  0  0
    1.3590   68.0190   63.5020 C   0  0  0  0  0  0  0  0  0  0  0  0
   -0.1980   69.6220   62.3040 C   0  0  0  0  0  0  0  0  0  0  0  0
    1.6440   69.0890   66.9220 O   0  0  0  0  0  0  0  0  0  0  0  0
    2.8250   69.5810   67.4230 C   0  0  0  0  0  0  0  0  0  0  0  0
    2.9340   69.9930   68.7590 C   0  0  0  0  0  0  0  0  0  0  0  0
    4.1380   70.4940   69.2480 C   0  0  0  0  0  0  0  0  0  0  0  0
    5.2670   70.5890   68.4290 C   0  0  0  0  0  0  0  0  0  0  0  0
    5.1500   70.1450   67.1070 C   0  0  0  0  0  0  0  0  0  0  0  0
    3.9610   69.6330   66.5860 C   0  0  0  0  0  0  0  0  0  0  0  0
    4.2240   69.2670   65.2350 C   0  0  0  0  0  0  0  0  0  0  0  0
    5.5390   69.5700   64.9640 C   0  0  0  0  0  0  0  0  0  0  0  0
    6.0910   70.0980   66.1010 N   0  0  0  0  0  0  0  0  0  0  0  0
    0.4561   70.6526   67.6025 H   0  0  0  0  0  0  0  0  0  0  0  0
    0.6091   69.2716   68.7225 H   0  0  0  0  0  0  0  0  0  0  0  0
   -1.2016   68.3308   67.8496 H   0  0  0  0  0  0  0  0  0  0  0  0
   -2.0878   70.3704   67.3804 H   0  0  0  0  0  0  0  0  0  0  0  0
    0.6981   67.8149   65.8606 H   0  0  0  0  0  0  0  0  0  0  0  0
   -0.9369   67.1106   65.8619 H   0  0  0  0  0  0  0  0  0  0  0  0
   -1.4110   68.3092   64.0792 H   0  0  0  0  0  0  0  0  0  0  0  0
   -0.9992   69.7648   64.9669 H   0  0  0  0  0  0  0  0  0  0  0  0
    0.9655   70.0344   64.0280 H   0  0  0  0  0  0  0  0  0  0  0  0
    1.6523   67.6675   64.5022 H   0  0  0  0  0  0  0  0  0  0  0  0
    0.8737   67.1987   62.9528 H   0  0  0  0  0  0  0  0  0  0  0  0
    2.2529   68.3495   62.9528 H   0  0  0  0  0  0  0  0  0  0  0  0
   -1.0671   70.2727   62.4807 H   0  0  0  0  0  0  0  0  0  0  0  0
    0.5633   70.1740   61.7333 H   0  0  0  0  0  0  0  0  0  0  0  0
   -0.5133   68.7361   61.7333 H   0  0  0  0  0  0  0  0  0  0  0  0
    2.0621   69.9199   69.4257 H   0  0  0  0  0  0  0  0  0  0  0  0
    4.2017   70.8205   70.2965 H   0  0  0  0  0  0  0  0  0  0  0  0
    6.2141   70.9984   68.8103 H   0  0  0  0  0  0  0  0  0  0  0  0
    3.5041   68.8213   64.5328 H   0  0  0  0  0  0  0  0  0  0  0  0
    6.0549   69.4156   64.0048 H   0  0  0  0  0  0  0  0  0  0  0  0
    7.0672   70.4139   66.1911 H   0  0  0  0  0  0  0  0  0  0  0  0
  2  1  1  0
  3  2  1  0
  4  2  1  0
  5  4  1  0
  6  5  1  0
  7  6  1  0
  8  6  1  0
  9  1  1  0
 10  9  1  0
 11 10  2  0
 12 11  1  0
 13 12  2  0
 14 13  1  0
 15 14  2  0
 15 10  1  0
 16 15  1  0
 17 16  2  0
 18 14  1  0
 18 17  1  0
  1 19  1  0
  1 20  1  0
  2 21  1  1
  3 22  1  0
  4 23  1  0
  4 24  1  0
  5 25  1  0
  5 26  1  0
  6 27  1  0
  7 28  1  0
  7 29  1  0
  7 30  1  0
  8 31  1  0
  8 32  1  0
  8 33  1  0
 11 34  1  0
 12 35  1  0
 13 36  1  0
 16 37  1  0
 17 38  1  0
 18 39  1  0
M  CHG  1   5   1
M  END
>  <score>  (2) 
-8.029

$$$$
=
     RDKit          3D

 39 40  0  0  0  0  0  0  0  0999 V2000
    5.1350   69.4590   63.8090 C   0  0  0  0  0  0  0  0  0  0  0  0
    4.8430   68.6690   62.5320 C   0  0  1  0  0  0  0  0  0  0  0  0
    6.0160   68.0140   62.0200 O   0  0  0  0  0  0  0  0  0  0  0  0
    3.7870   67.5810   62.7960 C   0  0  0  0  0  0  0  0  0  0  0  0
    4.5250   66.2790   62.9870 N   0  0  0  0  0  4  0  0  0  0  0  0
    4.2190   65.4370   64.1830 C   0  0  0  0  0  0  0  0  0  0  0  0
    2.7850   65.6610   64.6450 C   0  0  0  0  0  0  0  0  0  0  0  0
    4.5240   63.9740   63.8940 C   0  0  0  0  0  0  0  0  0  0  0  0
    4.5220   68.7710   64.8990 O   0  0  0  0  0  0  0  0  0  0  0  0
    4.7070   69.4320   66.0900 C   0  0  0  0  0  0  0  0  0  0  0  0
    5.9360   70.0280   66.4080 C   0  0  0  0  0  0  0  0  0  0  0  0
    6.1080   70.6880   67.6230 C   0  0  0  0  0  0  0  0  0  0  0  0
    5.0630   70.7840   68.5470 C   0  0  0  0  0  0  0  0  0  0  0  0
    3.8350   70.2100   68.2010 C   0  0  0  0  0  0  0  0  0  0  0  0
    3.6270   69.5460   66.9920 C   0  0  0  0  0  0  0  0  0  0  0  0
    2.2670   69.1210   66.9810 C   0  0  0  0  0  0  0  0  0  0  0  0
    1.6920   69.5170   68.1670 C   0  0  0  0  0  0  0  0  0  0  0  0
    2.6460   70.1760   68.8960 N   0  0  0  0  0  0  0  0  0  0  0  0
    6.2214   69.5216   63.9698 H   0  0  0  0  0  0  0  0  0  0  0  0
    4.7364   70.4810   63.7275 H   0  0  0  0  0  0  0  0  0  0  0  0
    4.4798   69.4009   61.7955 H   0  0  0  0  0  0  0  0  0  0  0  0
    6.5754   67.7016   62.7747 H   0  0  0  0  0  0  0  0  0  0  0  0
    3.2129   67.8251   63.7020 H   0  0  0  0  0  0  0  0  0  0  0  0
    3.0814   67.5099   61.9551 H   0  0  0  0  0  0  0  0  0  0  0  0
    4.3360   65.7011   62.1556 H   0  0  0  0  0  0  0  0  0  0  0  0
    5.5017   66.5702   63.1355 H   0  0  0  0  0  0  0  0  0  0  0  0
    4.8696   65.7410   65.0163 H   0  0  0  0  0  0  0  0  0  0  0  0
    2.7506   65.6664   65.7444 H   0  0  0  0  0  0  0  0  0  0  0  0
    2.4230   66.6266   64.2621 H   0  0  0  0  0  0  0  0  0  0  0  0
    2.1458   64.8518   64.2621 H   0  0  0  0  0  0  0  0  0  0  0  0
    4.6377   63.4288   64.8426 H   0  0  0  0  0  0  0  0  0  0  0  0
    3.6981   63.5347   63.3153 H   0  0  0  0  0  0  0  0  0  0  0  0
    5.4566   63.9013   63.3153 H   0  0  0  0  0  0  0  0  0  0  0  0
    6.7702   69.9740   65.6930 H   0  0  0  0  0  0  0  0  0  0  0  0
    7.0821   71.1411   67.8592 H   0  0  0  0  0  0  0  0  0  0  0  0
    5.2016   71.2930   69.5122 H   0  0  0  0  0  0  0  0  0  0  0  0
    1.7658   68.5737   66.1690 H   0  0  0  0  0  0  0  0  0  0  0  0
    0.6515   69.3364   68.4747 H   0  0  0  0  0  0  0  0  0  0  0  0
    2.4962   70.5866   69.8286 H   0  0  0  0  0  0  0  0  0  0  0  0
  2  1  1  0
  3  2  1  0
  4  2  1  0
  5  4  1  0
  6  5  1  0
  7  6  1  0
  8  6  1  0
  9  1  1  0
 10  9  1  0
 11 10  2  0
 12 11  1  0
 13 12  2  0
 14 13  1  0
 15 14  2  0
 15 10  1  0
 16 15  1  0
 17 16  2  0
 18 14  1  0
 18 17  1  0
  1 19  1  0
  1 20  1  0
  2 21  1  6
  3 22  1  0
  4 23  1  0
  4 24  1  0
  5 25  1  0
  5 26  1  0
  6 27  1  0
  7 28  1  0
  7 29  1  0
  7 30  1  0
  8 31  1  0
  8 32  1  0
  8 33  1  0
 11 34  1  0
 12 35  1  0
 13 36  1  0
 16 37  1  0
 17 38  1  0
 18 39  1  0
M  CHG  1   5   1
M  END
>  <score>  (3) 
-8.008

$$$$
=
     RDKit          3D

 39 40  0  0  0  0  0  0  0  0999 V2000
    1.8470   68.2130   64.8000 C   0  0  0  0  0  0  0  0  0  0  0  0
    0.6070   68.7670   64.0950 C   0  0  1  0  0  0  0  0  0  0  0  0
    0.2510   67.9920   62.9370 O   0  0  0  0  0  0  0  0  0  0  0  0
   -0.6050   68.7610   65.0430 C   0  0  0  0  0  0  0  0  0  0  0  0
   -0.4330   67.5940   65.9830 N   0  0  0  0  0  4  0  0  0  0  0  0
   -0.9070   67.7180   67.3950 C   0  0  0  0  0  0  0  0  0  0  0  0
   -2.2500   67.0220   67.5740 C   0  0  0  0  0  0  0  0  0  0  0  0
    0.1550   67.2080   68.3580 C   0  0  0  0  0  0  0  0  0  0  0  0
    2.0310   68.9530   66.0070 O   0  0  0  0  0  0  0  0  0  0  0  0
    3.3440   69.3140   66.1900 C   0  0  0  0  0  0  0  0  0  0  0  0
    4.2820   69.2010   65.1540 C   0  0  0  0  0  0  0  0  0  0  0  0
    5.6100   69.5660   65.3590 C   0  0  0  0  0  0  0  0  0  0  0  0
    6.0410   70.0630   66.5930 C   0  0  0  0  0  0  0  0  0  0  0  0
    5.0860   70.1980   67.6080 C   0  0  0  0  0  0  0  0  0  0  0  0
    3.7470   69.8460   67.4350 C   0  0  0  0  0  0  0  0  0  0  0  0
    3.0790   70.1410   68.6590 C   0  0  0  0  0  0  0  0  0  0  0  0
    4.0120   70.6430   69.5370 C   0  0  0  0  0  0  0  0  0  0  0  0
    5.2210   70.6760   68.8930 N   0  0  0  0  0  0  0  0  0  0  0  0
    1.7003   67.1480   65.0329 H   0  0  0  0  0  0  0  0  0  0  0  0
    2.7313   68.3083   64.1527 H   0  0  0  0  0  0  0  0  0  0  0  0
    0.8617   69.7919   63.7873 H   0  0  0  0  0  0  0  0  0  0  0  0
   -0.1444   67.1312   63.2248 H   0  0  0  0  0  0  0  0  0  0  0  0
   -0.6419   69.7012   65.6128 H   0  0  0  0  0  0  0  0  0  0  0  0
   -1.5429   68.6693   64.4756 H   0  0  0  0  0  0  0  0  0  0  0  0
   -0.9338   66.7961   65.5666 H   0  0  0  0  0  0  0  0  0  0  0  0
    0.5888   67.5027   66.0751 H   0  0  0  0  0  0  0  0  0  0  0  0
   -1.0689   68.7801   67.6309 H   0  0  0  0  0  0  0  0  0  0  0  0
   -2.4651   66.9105   68.6470 H   0  0  0  0  0  0  0  0  0  0  0  0
   -3.0407   67.6238   67.1021 H   0  0  0  0  0  0  0  0  0  0  0  0
   -2.2141   66.0290   67.1021 H   0  0  0  0  0  0  0  0  0  0  0  0
   -0.1808   67.3692   69.3930 H   0  0  0  0  0  0  0  0  0  0  0  0
    0.3179   66.1334   68.1886 H   0  0  0  0  0  0  0  0  0  0  0  0
    1.0956   67.7527   68.1886 H   0  0  0  0  0  0  0  0  0  0  0  0
    3.9662   68.8209   64.1713 H   0  0  0  0  0  0  0  0  0  0  0  0
    6.3325   69.4616   64.5361 H   0  0  0  0  0  0  0  0  0  0  0  0
    7.0928   70.3381   66.7603 H   0  0  0  0  0  0  0  0  0  0  0  0
    2.0086   69.9937   68.8650 H   0  0  0  0  0  0  0  0  0  0  0  0
    3.8211   70.9614   70.5725 H   0  0  0  0  0  0  0  0  0  0  0  0
    6.1023   71.0095   69.3090 H   0  0  0  0  0  0  0  0  0  0  0  0
  2  1  1  0
  3  2  1  0
  4  2  1  0
  5  4  1  0
  6  5  1  0
  7  6  1  0
  8  6  1  0
  9  1  1  0
 10  9  1  0
 11 10  2  0
 12 11  1  0
 13 12  2  0
 14 13  1  0
 15 14  2  0
 15 10  1  0
 16 15  1  0
 17 16  2  0
 18 14  1  0
 18 17  1  0
  1 19  1  0
  1 20  1  0
  2 21  1  6
  3 22  1  0
  4 23  1  0
  4 24  1  0
  5 25  1  0
  5 26  1  0
  6 27  1  0
  7 28  1  0
  7 29  1  0
  7 30  1  0
  8 31  1  0
  8 32  1  0
  8 33  1  0
 11 34  1  0
 12 35  1  0
 13 36  1  0
 16 37  1  0
 17 38  1  0
 18 39  1  0
M  CHG  1   5   1
M  END
>  <score>  (4) 
-7.841

$$$$
=
     RDKit          3D

 39 40  0  0  0  0  0  0  0  0999 V2000
    0.4790   68.9230   67.6120 C   0  0  0  0  0  0  0  0  0  0  0  0
   -0.5150   67.7960   67.3280 C   0  0  1  0  0  0  0  0  0  0  0  0
   -0.1500   67.0310   66.1660 O   0  0  0  0  0  0  0  0  0  0  0  0
   -0.5860   66.8210   68.5160 C   0  0  0  0  0  0  0  0  0  0  0  0
    0.8200   66.3480   68.7920 N   0  0  0  0  0  4  0  0  0  0  0  0
    1.2250   66.0450   70.1980 C   0  0  0  0  0  0  0  0  0  0  0  0
   -0.0010   65.9130   71.0920 C   0  0  0  0  0  0  0  0  0  0  0  0
    2.1210   64.8160   70.2390 C   0  0  0  0  0  0  0  0  0  0  0  0
    1.5080   68.8590   66.6230 O   0  0  0  0  0  0  0  0  0  0  0  0
    2.6920   69.3820   67.0820 C   0  0  0  0  0  0  0  0  0  0  0  0
    2.8330   69.8100   68.4100 C   0  0  0  0  0  0  0  0  0  0  0  0
    4.0400   70.3440   68.8570 C   0  0  0  0  0  0  0  0  0  0  0  0
    5.1400   70.4570   68.0020 C   0  0  0  0  0  0  0  0  0  0  0  0
    4.9920   69.9980   66.6880 C   0  0  0  0  0  0  0  0  0  0  0  0
    3.8000   69.4540   66.2090 C   0  0  0  0  0  0  0  0  0  0  0  0
    4.0300   69.0800   64.8540 C   0  0  0  0  0  0  0  0  0  0  0  0
    5.3280   69.4110   64.5390 C   0  0  0  0  0  0  0  0  0  0  0  0
    5.9020   69.9630   65.6540 N   0  0  0  0  0  0  0  0  0  0  0  0
   -0.0324   69.8953   67.5572 H   0  0  0  0  0  0  0  0  0  0  0  0
    0.9073   68.8121   68.6191 H   0  0  0  0  0  0  0  0  0  0  0  0
   -1.4871   68.2819   67.1580 H   0  0  0  0  0  0  0  0  0  0  0  0
    0.2585   66.1749   66.4495 H   0  0  0  0  0  0  0  0  0  0  0  0
   -0.9911   67.3342   69.4006 H   0  0  0  0  0  0  0  0  0  0  0  0
   -1.2446   65.9711   68.2838 H   0  0  0  0  0  0  0  0  0  0  0  0
    0.9599   65.4858   68.2462 H   0  0  0  0  0  0  0  0  0  0  0  0
    1.4046   67.1570   68.5379 H   0  0  0  0  0  0  0  0  0  0  0  0
    1.8158   66.8838   70.5946 H   0  0  0  0  0  0  0  0  0  0  0  0
    0.3091   65.9464   72.1469 H   0  0  0  0  0  0  0  0  0  0  0  0
   -0.6949   66.7416   70.8874 H   0  0  0  0  0  0  0  0  0  0  0  0
   -0.5026   64.9557   70.8874 H   0  0  0  0  0  0  0  0  0  0  0  0
    2.3205   64.5424   71.2856 H   0  0  0  0  0  0  0  0  0  0  0  0
    1.6194   63.9794   69.7305 H   0  0  0  0  0  0  0  0  0  0  0  0
    3.0709   65.0376   69.7305 H   0  0  0  0  0  0  0  0  0  0  0  0
    1.9842   69.7235   69.1043 H   0  0  0  0  0  0  0  0  0  0  0  0
    4.1286   70.6822   69.9000 H   0  0  0  0  0  0  0  0  0  0  0  0
    6.0889   70.8915   68.3497 H   0  0  0  0  0  0  0  0  0  0  0  0
    3.2996   68.6099   64.1791 H   0  0  0  0  0  0  0  0  0  0  0  0
    5.8175   69.2595   63.5656 H   0  0  0  0  0  0  0  0  0  0  0  0
    6.8728   70.3025   65.7109 H   0  0  0  0  0  0  0  0  0  0  0  0
  2  1  1  0
  3  2  1  0
  4  2  1  0
  5  4  1  0
  6  5  1  0
  7  6  1  0
  8  6  1  0
  9  1  1  0
 10  9  1  0
 11 10  2  0
 12 11  1  0
 13 12  2  0
 14 13  1  0
 15 14  2  0
 15 10  1  0
 16 15  1  0
 17 16  2  0
 18 14  1  0
 18 17  1  0
  1 19  1  0
  1 20  1  0
  2 21  1  6
  3 22  1  0
  4 23  1  0
  4 24  1  0
  5 25  1  0
  5 26  1  0
  6 27  1  0
  7 28  1  0
  7 29  1  0
  7 30  1  0
  8 31  1  0
  8 32  1  0
  8 33  1  0
 11 34  1  0
 12 35  1  0
 13 36  1  0
 16 37  1  0
 17 38  1  0
 18 39  1  0
M  CHG  1   5   1
M  END
>  <score>  (5) 
-7.78

$$$$
=
     RDKit          3D

 39 40  0  0  0  0  0  0  0  0999 V2000
    1.5580   67.7890   67.0400 C   0  0  0  0  0  0  0  0  0  0  0  0
    0.8100   67.2600   65.8160 C   0  0  1  0  0  0  0  0  0  0  0  0
   -0.1030   68.2320   65.2770 O   0  0  0  0  0  0  0  0  0  0  0  0
    1.7950   66.8840   64.6960 C   0  0  0  0  0  0  0  0  0  0  0  0
    2.3780   65.5370   65.0450 N   0  0  0  0  0  4  0  0  0  0  0  0
    3.7750   65.2150   64.6220 C   0  0  0  0  0  0  0  0  0  0  0  0
    3.9730   63.7070   64.5300 C   0  0  0  0  0  0  0  0  0  0  0  0
    4.1160   65.9350   63.3260 C   0  0  0  0  0  0  0  0  0  0  0  0
    1.6990   69.2020   66.8900 O   0  0  0  0  0  0  0  0  0  0  0  0
    2.8960   69.6540   67.3920 C   0  0  0  0  0  0  0  0  0  0  0  0
    3.0080   70.0960   68.7180 C   0  0  0  0  0  0  0  0  0  0  0  0
    4.2280   70.5560   69.2090 C   0  0  0  0  0  0  0  0  0  0  0  0
    5.3700   70.5780   68.4020 C   0  0  0  0  0  0  0  0  0  0  0  0
    5.2470   70.1040   67.0900 C   0  0  0  0  0  0  0  0  0  0  0  0
    4.0420   69.6330   66.5680 C   0  0  0  0  0  0  0  0  0  0  0  0
    4.3040   69.2180   65.2310 C   0  0  0  0  0  0  0  0  0  0  0  0
    5.6350   69.4550   64.9690 C   0  0  0  0  0  0  0  0  0  0  0  0
    6.1970   69.9880   66.0990 N   0  0  0  0  0  0  0  0  0  0  0  0
    0.9868   67.5650   67.9530 H   0  0  0  0  0  0  0  0  0  0  0  0
    2.5455   67.3115   67.1221 H   0  0  0  0  0  0  0  0  0  0  0  0
    0.2487   66.3783   66.1589 H   0  0  0  0  0  0  0  0  0  0  0  0
   -0.5519   68.7099   66.0187 H   0  0  0  0  0  0  0  0  0  0  0  0
    1.2663   66.8273   63.7330 H   0  0  0  0  0  0  0  0  0  0  0  0
    2.5887   67.6402   64.6052 H   0  0  0  0  0  0  0  0  0  0  0  0
    2.3473   65.4526   66.0711 H   0  0  0  0  0  0  0  0  0  0  0  0
    1.8007   64.8739   64.5084 H   0  0  0  0  0  0  0  0  0  0  0  0
    4.4786   65.5798   65.3848 H   0  0  0  0  0  0  0  0  0  0  0  0
    4.0288   63.2820   65.5431 H   0  0  0  0  0  0  0  0  0  0  0  0
    3.1261   63.2582   63.9903 H   0  0  0  0  0  0  0  0  0  0  0  0
    4.9071   63.4921   63.9903 H   0  0  0  0  0  0  0  0  0  0  0  0
    4.5764   66.9070   63.5567 H   0  0  0  0  0  0  0  0  0  0  0  0
    4.8208   65.3249   62.7421 H   0  0  0  0  0  0  0  0  0  0  0  0
    3.1974   66.0937   62.7421 H   0  0  0  0  0  0  0  0  0  0  0  0
    2.1262   70.0794   69.3754 H   0  0  0  0  0  0  0  0  0  0  0  0
    4.2941   70.9079   70.2491 H   0  0  0  0  0  0  0  0  0  0  0  0
    6.3305   70.9542   68.7841 H   0  0  0  0  0  0  0  0  0  0  0  0
    3.5732   68.7852   64.5320 H   0  0  0  0  0  0  0  0  0  0  0  0
    6.1546   69.2524   64.0209 H   0  0  0  0  0  0  0  0  0  0  0  0
    7.1854   70.2620   66.1938 H   0  0  0  0  0  0  0  0  0  0  0  0
  2  1  1  0
  3  2  1  0
  4  2  1  0
  5  4  1  0
  6  5  1  0
  7  6  1  0
  8  6  1  0
  9  1  1  0
 10  9  1  0
 11 10  2  0
 12 11  1  0
 13 12  2  0
 14 13  1  0
 15 14  2  0
 15 10  1  0
 16 15  1  0
 17 16  2  0
 18 14  1  0
 18 17  1  0
  1 19  1  0
  1 20  1  0
  2 21  1  1
  3 22  1  0
  4 23  1  0
  4 24  1  0
  5 25  1  0
  5 26  1  0
  6 27  1  0
  7 28  1  0
  7 29  1  0
  7 30  1  0
  8 31  1  0
  8 32  1  0
  8 33  1  0
 11 34  1  0
 12 35  1  0
 13 36  1  0
 16 37  1  0
 17 38  1  0
 18 39  1  0
M  CHG  1   5   1
M  END
>  <score>  (6) 
-7.709

$$$$
=
     RDKit          3D

 39 40  0  0  0  0  0  0  0  0999 V2000
    1.6500   67.7550   66.8540 C   0  0  0  0  0  0  0  0  0  0  0  0
    0.7080   67.2250   65.7720 C   0  0  1  0  0  0  0  0  0  0  0  0
   -0.1410   68.2570   65.2410 O   0  0  0  0  0  0  0  0  0  0  0  0
    1.5070   66.6360   64.5970 C   0  0  0  0  0  0  0  0  0  0  0  0
    2.6050   65.7840   65.1840 N   0  0  0  0  0  4  0  0  0  0  0  0
    3.4990   65.0140   64.2670 C   0  0  0  0  0  0  0  0  0  0  0  0
    4.5410   65.9290   63.6390 C   0  0  0  0  0  0  0  0  0  0  0  0
    4.1180   63.8310   64.9990 C   0  0  0  0  0  0  0  0  0  0  0  0
    1.8830   69.1400   66.5930 O   0  0  0  0  0  0  0  0  0  0  0  0
    3.2240   69.4280   66.5190 C   0  0  0  0  0  0  0  0  0  0  0  0
    3.9440   69.2450   65.3300 C   0  0  0  0  0  0  0  0  0  0  0  0
    5.3050   69.5370   65.2750 C   0  0  0  0  0  0  0  0  0  0  0  0
    5.9840   70.0280   66.3940 C   0  0  0  0  0  0  0  0  0  0  0  0
    5.2450   70.2340   67.5640 C   0  0  0  0  0  0  0  0  0  0  0  0
    3.8800   69.9570   67.6520 C   0  0  0  0  0  0  0  0  0  0  0  0
    3.4700   70.3090   68.9700 C   0  0  0  0  0  0  0  0  0  0  0  0
    4.5760   70.7710   69.6470 C   0  0  0  0  0  0  0  0  0  0  0  0
    5.6430   70.7240   68.7890 N   0  0  0  0  0  0  0  0  0  0  0  0
    1.1872   67.6340   67.8445 H   0  0  0  0  0  0  0  0  0  0  0  0
    2.5985   67.1980   66.8428 H   0  0  0  0  0  0  0  0  0  0  0  0
    0.0905   66.4530   66.2544 H   0  0  0  0  0  0  0  0  0  0  0  0
   -0.5548   68.7600   65.9866 H   0  0  0  0  0  0  0  0  0  0  0  0
    0.8495   66.0203   63.9656 H   0  0  0  0  0  0  0  0  0  0  0  0
    1.9277   67.4371   63.9715 H   0  0  0  0  0  0  0  0  0  0  0  0
    3.2081   66.4094   65.7373 H   0  0  0  0  0  0  0  0  0  0  0  0
    2.0973   65.0529   65.7024 H   0  0  0  0  0  0  0  0  0  0  0  0
    2.9015   64.6024   63.4402 H   0  0  0  0  0  0  0  0  0  0  0  0
    5.1135   66.4317   64.4325 H   0  0  0  0  0  0  0  0  0  0  0  0
    5.2239   65.3334   63.0154 H   0  0  0  0  0  0  0  0  0  0  0  0
    4.0386   66.6831   63.0154 H   0  0  0  0  0  0  0  0  0  0  0  0
    4.0359   63.9879   66.0847 H   0  0  0  0  0  0  0  0  0  0  0  0
    3.5868   62.9089   64.7206 H   0  0  0  0  0  0  0  0  0  0  0  0
    5.1784   63.7416   64.7206 H   0  0  0  0  0  0  0  0  0  0  0  0
    3.4302   68.8679   64.4335 H   0  0  0  0  0  0  0  0  0  0  0  0
    5.8546   69.3786   64.3354 H   0  0  0  0  0  0  0  0  0  0  0  0
    7.0617   70.2448   66.3559 H   0  0  0  0  0  0  0  0  0  0  0  0
    2.4506   70.2263   69.3749 H   0  0  0  0  0  0  0  0  0  0  0  0
    4.5990   71.1164   70.6911 H   0  0  0  0  0  0  0  0  0  0  0  0
    6.6030   71.0129   69.0252 H   0  0  0  0  0  0  0  0  0  0  0  0
  2  1  1  0
  3  2  1  0
  4  2  1  0
  5  4  1  0
  6  5  1  0
  7  6  1  0
  8  6  1  0
  9  1  1  0
 10  9  1  0
 11 10  2  0
 12 11  1  0
 13 12  2  0
 14 13  1  0
 15 14  2  0
 15 10  1  0
 16 15  1  0
 17 16  2  0
 18 14  1  0
 18 17  1  0
  1 19  1  0
  1 20  1  0
  2 21  1  1
  3 22  1  0
  4 23  1  0
  4 24  1  0
  5 25  1  0
  5 26  1  0
  6 27  1  0
  7 28  1  0
  7 29  1  0
  7 30  1  0
  8 31  1  0
  8 32  1  0
  8 33  1  0
 11 34  1  0
 12 35  1  0
 13 36  1  0
 16 37  1  0
 17 38  1  0
 18 39  1  0
M  CHG  1   5   1
M  END
>  <score>  (7) 
-7.707

$$$$
=
     RDKit          3D

 39 40  0  0  0  0  0  0  0  0999 V2000
    1.7270   67.6290   66.6270 C   0  0  0  0  0  0  0  0  0  0  0  0
    0.9140   67.7750   67.9150 C   0  0  1  0  0  0  0  0  0  0  0  0
    0.9440   69.1180   68.4250 O   0  0  0  0  0  0  0  0  0  0  0  0
   -0.5600   67.4080   67.6710 C   0  0  0  0  0  0  0  0  0  0  0  0
   -0.8080   67.5110   66.1870 N   0  0  0  0  0  4  0  0  0  0  0  0
   -1.4650   68.7380   65.6410 C   0  0  0  0  0  0  0  0  0  0  0  0
   -1.0650   68.9590   64.1880 C   0  0  0  0  0  0  0  0  0  0  0  0
   -2.9730   68.6610   65.8320 C   0  0  0  0  0  0  0  0  0  0  0  0
    1.8410   68.9230   66.0330 O   0  0  0  0  0  0  0  0  0  0  0  0
    3.0000   69.0510   65.3050 C   0  0  0  0  0  0  0  0  0  0  0  0
    3.0300   68.7790   63.9300 C   0  0  0  0  0  0  0  0  0  0  0  0
    4.2150   68.9080   63.2100 C   0  0  0  0  0  0  0  0  0  0  0  0
    5.3970   69.3210   63.8320 C   0  0  0  0  0  0  0  0  0  0  0  0
    5.3430   69.6180   65.1980 C   0  0  0  0  0  0  0  0  0  0  0  0
    4.1720   69.5040   65.9490 C   0  0  0  0  0  0  0  0  0  0  0  0
    4.4910   69.9080   67.2770 C   0  0  0  0  0  0  0  0  0  0  0  0
    5.8260   70.2400   67.3090 C   0  0  0  0  0  0  0  0  0  0  0  0
    6.3320   70.0640   66.0480 N   0  0  0  0  0  0  0  0  0  0  0  0
    2.7273   67.2343   66.8587 H   0  0  0  0  0  0  0  0  0  0  0  0
    1.2302   66.9318   65.9363 H   0  0  0  0  0  0  0  0  0  0  0  0
    1.3740   67.0943   68.6464 H   0  0  0  0  0  0  0  0  0  0  0  0
    0.9435   69.0952   69.4147 H   0  0  0  0  0  0  0  0  0  0  0  0
   -0.7542   66.3813   68.0147 H   0  0  0  0  0  0  0  0  0  0  0  0
   -1.2268   68.0849   68.2252 H   0  0  0  0  0  0  0  0  0  0  0  0
    0.1075   67.4277   65.7224 H   0  0  0  0  0  0  0  0  0  0  0  0
   -1.4914   66.7633   66.0003 H   0  0  0  0  0  0  0  0  0  0  0  0
   -1.1154   69.6173   66.2019 H   0  0  0  0  0  0  0  0  0  0  0  0
   -0.1028   69.4906   64.1494 H   0  0  0  0  0  0  0  0  0  0  0  0
   -0.9673   67.9868   63.6826 H   0  0  0  0  0  0  0  0  0  0  0  0
   -1.8360   69.5591   63.6826 H   0  0  0  0  0  0  0  0  0  0  0  0
   -3.2063   68.6491   66.9069 H   0  0  0  0  0  0  0  0  0  0  0  0
   -3.4471   69.5361   65.3636 H   0  0  0  0  0  0  0  0  0  0  0  0
   -3.3555   67.7422   65.3636 H   0  0  0  0  0  0  0  0  0  0  0  0
    2.1107   68.4614   63.4161 H   0  0  0  0  0  0  0  0  0  0  0  0
    4.2211   68.6811   62.1337 H   0  0  0  0  0  0  0  0  0  0  0  0
    6.3367   69.4093   63.2670 H   0  0  0  0  0  0  0  0  0  0  0  0
    3.7936   69.9476   68.1267 H   0  0  0  0  0  0  0  0  0  0  0  0
    6.3870   70.5852   68.1900 H   0  0  0  0  0  0  0  0  0  0  0  0
    7.3095   70.2395   65.7749 H   0  0  0  0  0  0  0  0  0  0  0  0
  2  1  1  0
  3  2  1  0
  4  2  1  0
  5  4  1  0
  6  5  1  0
  7  6  1  0
  8  6  1  0
  9  1  1  0
 10  9  1  0
 11 10  2  0
 12 11  1  0
 13 12  2  0
 14 13  1  0
 15 14  2  0
 15 10  1  0
 16 15  1  0
 17 16  2  0
 18 14  1  0
 18 17  1  0
  1 19  1  0
  1 20  1  0
  2 21  1  1
  3 22  1  0
  4 23  1  0
  4 24  1  0
  5 25  1  0
  5 26  1  0
  6 27  1  0
  7 28  1  0
  7 29  1  0
  7 30  1  0
  8 31  1  0
  8 32  1  0
  8 33  1  0
 11 34  1  0
 12 35  1  0
 13 36  1  0
 16 37  1  0
 17 38  1  0
 18 39  1  0
M  CHG  1   5   1
M  END
>  <score>  (8) 
-7.598

$$$$
=
     RDKit          3D

 39 40  0  0  0  0  0  0  0  0999 V2000
    1.2630   67.9350   66.5130 C   0  0  0  0  0  0  0  0  0  0  0  0
   -0.2300   68.0770   66.2160 C   0  0  1  0  0  0  0  0  0  0  0  0
   -0.8860   68.9580   67.1440 O   0  0  0  0  0  0  0  0  0  0  0  0
   -0.4530   68.6480   64.8050 C   0  0  0  0  0  0  0  0  0  0  0  0
    0.7430   68.2600   63.9710 N   0  0  0  0  0  4  0  0  0  0  0  0
    0.7370   68.5540   62.5060 C   0  0  0  0  0  0  0  0  0  0  0  0
   -0.1250   69.7730   62.2070 C   0  0  0  0  0  0  0  0  0  0  0  0
    2.1610   68.6960   61.9870 C   0  0  0  0  0  0  0  0  0  0  0  0
    1.7120   69.1600   67.0950 O   0  0  0  0  0  0  0  0  0  0  0  0
    3.0330   69.4070   66.8100 C   0  0  0  0  0  0  0  0  0  0  0  0
    3.5510   69.2030   65.5240 C   0  0  0  0  0  0  0  0  0  0  0  0
    4.8950   69.4530   65.2550 C   0  0  0  0  0  0  0  0  0  0  0  0
    5.7560   69.9230   66.2510 C   0  0  0  0  0  0  0  0  0  0  0  0
    5.2160   70.1510   67.5220 C   0  0  0  0  0  0  0  0  0  0  0  0
    3.8740   69.9150   67.8240 C   0  0  0  0  0  0  0  0  0  0  0  0
    3.6870   70.2790   69.1890 C   0  0  0  0  0  0  0  0  0  0  0  0
    4.8990   70.7080   69.6820 C   0  0  0  0  0  0  0  0  0  0  0  0
    5.8160   70.6280   68.6670 N   0  0  0  0  0  0  0  0  0  0  0  0
    1.4272   67.1048   67.2157 H   0  0  0  0  0  0  0  0  0  0  0  0
    1.8197   67.7227   65.5884 H   0  0  0  0  0  0  0  0  0  0  0  0
   -0.6557   67.0665   66.3040 H   0  0  0  0  0  0  0  0  0  0  0  0
   -0.6768   68.6770   68.0700 H   0  0  0  0  0  0  0  0  0  0  0  0
   -1.3698   68.2253   64.3682 H   0  0  0  0  0  0  0  0  0  0  0  0
   -0.5655   69.7417   64.8403 H   0  0  0  0  0  0  0  0  0  0  0  0
    1.5590   68.7442   64.3717 H   0  0  0  0  0  0  0  0  0  0  0  0
    0.7480   67.2309   64.0141 H   0  0  0  0  0  0  0  0  0  0  0  0
    0.2840   67.7081   61.9683 H   0  0  0  0  0  0  0  0  0  0  0  0
   -0.4502   70.2328   63.1519 H   0  0  0  0  0  0  0  0  0  0  0  0
    0.4595   70.5020   61.6265 H   0  0  0  0  0  0  0  0  0  0  0  0
   -1.0071   69.4649   61.6265 H   0  0  0  0  0  0  0  0  0  0  0  0
    2.8558   68.7653   62.8369 H   0  0  0  0  0  0  0  0  0  0  0  0
    2.4172   67.8189   61.3745 H   0  0  0  0  0  0  0  0  0  0  0  0
    2.2390   69.6064   61.3745 H   0  0  0  0  0  0  0  0  0  0  0  0
    2.8915   68.8427   64.7208 H   0  0  0  0  0  0  0  0  0  0  0  0
    5.2853   69.2776   64.2416 H   0  0  0  0  0  0  0  0  0  0  0  0
    6.8204   70.1072   66.0432 H   0  0  0  0  0  0  0  0  0  0  0  0
    2.7420   70.2266   69.7495 H   0  0  0  0  0  0  0  0  0  0  0  0
    5.0959   71.0533   70.7077 H   0  0  0  0  0  0  0  0  0  0  0  0
    6.8096   70.8869   68.7482 H   0  0  0  0  0  0  0  0  0  0  0  0
  2  1  1  0
  3  2  1  0
  4  2  1  0
  5  4  1  0
  6  5  1  0
  7  6  1  0
  8  6  1  0
  9  1  1  0
 10  9  1  0
 11 10  2  0
 12 11  1  0
 13 12  2  0
 14 13  1  0
 15 14  2  0
 15 10  1  0
 16 15  1  0
 17 16  2  0
 18 14  1  0
 18 17  1  0
  1 19  1  0
  1 20  1  0
  2 21  1  6
  3 22  1  0
  4 23  1  0
  4 24  1  0
  5 25  1  0
  5 26  1  0
  6 27  1  0
  7 28  1  0
  7 29  1  0
  7 30  1  0
  8 31  1  0
  8 32  1  0
  8 33  1  0
 11 34  1  0
 12 35  1  0
 13 36  1  0
 16 37  1  0
 17 38  1  0
 18 39  1  0
M  CHG  1   5   1
M  END
>  <score>  (9) 
-7.506

$$$$
