=
     RDKit          3D

 54 57  0  0  0  0  0  0  0  0999 V2000
    2.3490   68.7030   64.5320 C   0  0  1  0  0  0  0  0  0  0  0  0
    0.8350   68.6200   64.3370 C   0  0  0  0  0  0  0  0  0  0  0  0
    0.3770   68.6250   65.7690 C   0  0  0  0  0  0  0  0  0  0  0  0
    1.3020   68.9020   66.6390 N   0  0  0  0  0  0  0  0  0  0  0  0
    2.4710   69.0560   65.9500 N   0  0  0  0  0  0  0  0  0  0  0  0
   -1.0260   68.3620   66.1560 C   0  0  0  0  0  0  0  0  0  0  0  0
   -2.0480   69.0340   65.4720 C   0  0  0  0  0  0  0  0  0  0  0  0
   -3.3760   68.8060   65.8210 C   0  0  0  0  0  0  0  0  0  0  0  0
   -4.3490   69.4510   65.1660 F   0  0  0  0  0  0  0  0  0  0  0  0
   -3.7110   67.9190   66.8390 C   0  0  0  0  0  0  0  0  0  0  0  0
   -2.6980   67.2450   67.5200 C   0  0  0  0  0  0  0  0  0  0  0  0
   -1.3640   67.4700   67.1750 C   0  0  0  0  0  0  0  0  0  0  0  0
   -0.4240   66.7890   67.8450 F   0  0  0  0  0  0  0  0  0  0  0  0
    4.2380   64.9510   63.4100 C   0  0  0  0  0  0  0  0  0  0  0  0
    4.4990   66.1280   62.7040 C   0  0  0  0  0  0  0  0  0  0  0  0
    3.8960   67.3310   63.0810 C   0  0  0  0  0  0  0  0  0  0  0  0
    3.0180   67.3820   64.1720 C   0  0  0  0  0  0  0  0  0  0  0  0
    2.7500   66.1920   64.8720 C   0  0  0  0  0  0  0  0  0  0  0  0
    3.3600   64.9850   64.5100 C   0  0  0  0  0  0  0  0  0  0  0  0
    6.0160   63.3850   63.7220 C   0  0  0  0  0  0  0  0  0  0  0  0
    4.7820   63.7270   63.1090 O   0  0  0  0  0  0  0  0  0  0  0  0
    3.1430   63.7910   65.1540 O   0  0  0  0  0  0  0  0  0  0  0  0
    3.8130   63.5910   66.3910 C   0  0  0  0  0  0  0  0  0  0  0  0
    3.6310   69.4780   66.5950 C   0  0  0  0  0  0  0  0  0  0  0  0
    3.5930   69.8930   67.9410 C   0  0  0  0  0  0  0  0  0  0  0  0
    4.7380   70.3220   68.6200 C   0  0  0  0  0  0  0  0  0  0  0  0
    5.9550   70.3540   67.9470 C   0  0  0  0  0  0  0  0  0  0  0  0
    6.0380   69.9400   66.6180 C   0  0  0  0  0  0  0  0  0  0  0  0
    4.8810   69.5110   65.9550 C   0  0  0  0  0  0  0  0  0  0  0  0
    7.4150   70.9000   68.7880 S   0  0  0  0  0  6  0  0  0  0  0  0
    8.4980   69.9990   68.4670 O   0  0  0  0  0  0  0  0  0  0  0  0
    7.5250   72.3330   68.6420 O   0  0  0  0  0  0  0  0  0  0  0  0
    7.0150   70.5750   70.3920 N   0  0  0  0  0  0  0  0  0  0  0  0
    2.8525   69.4348   63.8832 H   0  0  0  0  0  0  0  0  0  0  0  0
    0.4481   69.4882   63.7833 H   0  0  0  0  0  0  0  0  0  0  0  0
    0.4941   67.7555   63.7484 H   0  0  0  0  0  0  0  0  0  0  0  0
   -1.8020   69.7381   64.6634 H   0  0  0  0  0  0  0  0  0  0  0  0
   -4.7652   67.7509   67.1042 H   0  0  0  0  0  0  0  0  0  0  0  0
   -2.9488   66.5391   68.3255 H   0  0  0  0  0  0  0  0  0  0  0  0
    5.1848   66.1076   61.8442 H   0  0  0  0  0  0  0  0  0  0  0  0
    4.1131   68.2487   62.5147 H   0  0  0  0  0  0  0  0  0  0  0  0
    2.0485   66.2099   65.7191 H   0  0  0  0  0  0  0  0  0  0  0  0
    5.9032   63.4163   64.8158 H   0  0  0  0  0  0  0  0  0  0  0  0
    6.3106   62.3714   63.4126 H   0  0  0  0  0  0  0  0  0  0  0  0
    6.7904   64.1024   63.4126 H   0  0  0  0  0  0  0  0  0  0  0  0
    3.1208   63.7976   67.2205 H   0  0  0  0  0  0  0  0  0  0  0  0
    4.1615   62.5496   66.4550 H   0  0  0  0  0  0  0  0  0  0  0  0
    4.6754   64.2709   66.4550 H   0  0  0  0  0  0  0  0  0  0  0  0
    2.6315   69.8791   68.4751 H   0  0  0  0  0  0  0  0  0  0  0  0
    4.6769   70.6305   69.6741 H   0  0  0  0  0  0  0  0  0  0  0  0
    7.0051   69.9502   66.0940 H   0  0  0  0  0  0  0  0  0  0  0  0
    4.9533   69.1914   64.9049 H   0  0  0  0  0  0  0  0  0  0  0  0
    7.6510   71.0918   71.0159 H   0  0  0  0  0  0  0  0  0  0  0  0
    6.0444   70.8700   70.5703 H   0  0  0  0  0  0  0  0  0  0  0  0
  2  1  1  0
  3  2  1  0
  4  3  2  0
  5  1  1  0
  5  4  1  0
  6  3  1  0
  7  6  2  0
  8  7  1  0
  9  8  1  0
 10  8  2  0
 11 10  1  0
 12 11  2  0
 12  6  1  0
 13 12  1  0
 15 14  2  0
 16 15  1  0
 17 16  2  0
 17  1  1  0
 18 17  1  0
 19 14  1  0
 19 18  2  0
 21 14  1  0
 21 20  1  0
 22 19  1  0
 23 22  1  0
 24  5  1  0
 25 24  2  0
 26 25  1  0
 27 26  2  0
 28 27  1  0
 29 24  1  0
 29 28  2  0
 30 27  1  0
 31 30  2  0
 32 30  2  0
 33 30  1  0
  1 34  1  6
  2 35  1  0
  2 36  1  0
  7 37  1  0
 10 38  1  0
 11 39  1  0
 15 40  1  0
 16 41  1  0
 18 42  1  0
 20 43  1  0
 20 44  1  0
 20 45  1  0
 23 46  1  0
 23 47  1  0
 23 48  1  0
 25 49  1  0
 26 50  1  0
 28 51  1  0
 29 52  1  0
 33 53  1  0
 33 54  1  0
M  END
>  <score>  (1) 
-8.922

$$$$
=
     RDKit          3D

 54 57  0  0  0  0  0  0  0  0999 V2000
    1.1260   59.8660   74.5520 C   0  0  1  0  0  0  0  0  0  0  0  0
    2.2120   60.6910   73.8630 C   0  0  0  0  0  0  0  0  0  0  0  0
    1.4680   61.1500   72.6390 C   0  0  0  0  0  0  0  0  0  0  0  0
    0.1900   60.9180   72.6570 N   0  0  0  0  0  0  0  0  0  0  0  0
   -0.0820   60.2470   73.8150 N   0  0  0  0  0  0  0  0  0  0  0  0
    2.1350   61.8400   71.5140 C   0  0  0  0  0  0  0  0  0  0  0  0
    2.0590   63.2360   71.4410 C   0  0  0  0  0  0  0  0  0  0  0  0
    2.6760   63.9070   70.3900 C   0  0  0  0  0  0  0  0  0  0  0  0
    2.5990   65.2410   70.3240 F   0  0  0  0  0  0  0  0  0  0  0  0
    3.3720   63.2140   69.4040 C   0  0  0  0  0  0  0  0  0  0  0  0
    3.4540   61.8250   69.4740 C   0  0  0  0  0  0  0  0  0  0  0  0
    2.8380   61.1460   70.5260 C   0  0  0  0  0  0  0  0  0  0  0  0
    2.9560   59.8110   70.5610 F   0  0  0  0  0  0  0  0  0  0  0  0
    1.9580   55.6070   74.2770 C   0  0  0  0  0  0  0  0  0  0  0  0
    1.6950   56.3650   73.1330 C   0  0  0  0  0  0  0  0  0  0  0  0
    1.4410   57.7360   73.2320 C   0  0  0  0  0  0  0  0  0  0  0  0
    1.4430   58.3780   74.4780 C   0  0  0  0  0  0  0  0  0  0  0  0
    1.6970   57.6080   75.6270 C   0  0  0  0  0  0  0  0  0  0  0  0
    1.9670   56.2370   75.5360 C   0  0  0  0  0  0  0  0  0  0  0  0
    1.1140   53.3770   74.1110 C   0  0  0  0  0  0  0  0  0  0  0  0
    2.2150   54.2590   74.2740 O   0  0  0  0  0  0  0  0  0  0  0  0
    2.2250   55.4310   76.6190 O   0  0  0  0  0  0  0  0  0  0  0  0
    1.1560   55.2080   77.5290 C   0  0  0  0  0  0  0  0  0  0  0  0
   -1.3950   59.9590   74.1830 C   0  0  0  0  0  0  0  0  0  0  0  0
   -2.4230   60.8960   73.9660 C   0  0  0  0  0  0  0  0  0  0  0  0
   -3.7520   60.6390   74.3220 C   0  0  0  0  0  0  0  0  0  0  0  0
   -4.0720   59.4260   74.9220 C   0  0  0  0  0  0  0  0  0  0  0  0
   -3.0860   58.4660   75.1440 C   0  0  0  0  0  0  0  0  0  0  0  0
   -1.7610   58.7390   74.7780 C   0  0  0  0  0  0  0  0  0  0  0  0
   -5.7470   59.0850   75.3860 S   0  0  0  0  0  6  0  0  0  0  0  0
   -5.8400   59.1000   76.8270 O   0  0  0  0  0  0  0  0  0  0  0  0
   -6.6270   59.8570   74.5410 O   0  0  0  0  0  0  0  0  0  0  0  0
   -5.8920   57.4660   74.9390 N   0  0  0  0  0  0  0  0  0  0  0  0
    1.0243   60.0564   75.6306 H   0  0  0  0  0  0  0  0  0  0  0  0
    2.5343   61.5392   74.4849 H   0  0  0  0  0  0  0  0  0  0  0  0
    3.1434   60.1435   73.6563 H   0  0  0  0  0  0  0  0  0  0  0  0
    1.5135   63.8002   72.2117 H   0  0  0  0  0  0  0  0  0  0  0  0
    3.8527   63.7577   68.5774 H   0  0  0  0  0  0  0  0  0  0  0  0
    4.0027   61.2652   68.7023 H   0  0  0  0  0  0  0  0  0  0  0  0
    1.6878   55.8788   72.1463 H   0  0  0  0  0  0  0  0  0  0  0  0
    1.2371   58.3180   72.3211 H   0  0  0  0  0  0  0  0  0  0  0  0
    1.6833   58.0914   76.6150 H   0  0  0  0  0  0  0  0  0  0  0  0
    0.7368   53.0748   75.0992 H   0  0  0  0  0  0  0  0  0  0  0  0
    0.3146   53.8874   73.5538 H   0  0  0  0  0  0  0  0  0  0  0  0
    1.4377   52.4855   73.5538 H   0  0  0  0  0  0  0  0  0  0  0  0
    1.5302   55.2861   78.5604 H   0  0  0  0  0  0  0  0  0  0  0  0
    0.3719   55.9619   77.3654 H   0  0  0  0  0  0  0  0  0  0  0  0
    0.7387   54.2035   77.3654 H   0  0  0  0  0  0  0  0  0  0  0  0
   -2.1737   61.8615   73.5016 H   0  0  0  0  0  0  0  0  0  0  0  0
   -4.5343   61.3879   74.1294 H   0  0  0  0  0  0  0  0  0  0  0  0
   -3.3461   57.5009   75.6033 H   0  0  0  0  0  0  0  0  0  0  0  0
   -0.9872   57.9789   74.9611 H   0  0  0  0  0  0  0  0  0  0  0  0
   -5.9445   56.8798   75.7843 H   0  0  0  0  0  0  0  0  0  0  0  0
   -6.7477   57.3395   74.3798 H   0  0  0  0  0  0  0  0  0  0  0  0
  2  1  1  0
  3  2  1  0
  4  3  2  0
  5  1  1  0
  5  4  1  0
  6  3  1  0
  7  6  2  0
  8  7  1  0
  9  8  1  0
 10  8  2  0
 11 10  1  0
 12 11  2  0
 12  6  1  0
 13 12  1  0
 15 14  2  0
 16 15  1  0
 17 16  2  0
 17  1  1  0
 18 17  1  0
 19 14  1  0
 19 18  2  0
 21 14  1  0
 21 20  1  0
 22 19  1  0
 23 22  1  0
 24  5  1  0
 25 24  2  0
 26 25  1  0
 27 26  2  0
 28 27  1  0
 29 24  1  0
 29 28  2  0
 30 27  1  0
 31 30  2  0
 32 30  2  0
 33 30  1  0
  1 34  1  1
  2 35  1  0
  2 36  1  0
  7 37  1  0
 10 38  1  0
 11 39  1  0
 15 40  1  0
 16 41  1  0
 18 42  1  0
 20 43  1  0
 20 44  1  0
 20 45  1  0
 23 46  1  0
 23 47  1  0
 23 48  1  0
 25 49  1  0
 26 50  1  0
 28 51  1  0
 29 52  1  0
 33 53  1  0
 33 54  1  0
M  END
>  <score>  (2) 
-8.467

$$$$
=
     RDKit          3D

 54 57  0  0  0  0  0  0  0  0999 V2000
    2.1030   58.4750   73.5470 C   0  0  1  0  0  0  0  0  0  0  0  0
    2.3340   59.2570   72.2530 C   0  0  0  0  0  0  0  0  0  0  0  0
    3.1140   60.4290   72.7810 C   0  0  0  0  0  0  0  0  0  0  0  0
    3.5090   60.3130   74.0130 N   0  0  0  0  0  0  0  0  0  0  0  0
    3.0220   59.1270   74.4840 N   0  0  0  0  0  0  0  0  0  0  0  0
    3.4300   61.6120   71.9520 C   0  0  0  0  0  0  0  0  0  0  0  0
    2.4310   62.5710   71.7400 C   0  0  0  0  0  0  0  0  0  0  0  0
    2.7040   63.6900   70.9610 C   0  0  0  0  0  0  0  0  0  0  0  0
    1.7450   64.6030   70.7590 F   0  0  0  0  0  0  0  0  0  0  0  0
    3.9570   63.8780   70.3840 C   0  0  0  0  0  0  0  0  0  0  0  0
    4.9560   62.9300   70.5960 C   0  0  0  0  0  0  0  0  0  0  0  0
    4.6880   61.8050   71.3770 C   0  0  0  0  0  0  0  0  0  0  0  0
    5.6830   60.9260   71.5660 F   0  0  0  0  0  0  0  0  0  0  0  0
   -2.0520   58.7750   74.7900 C   0  0  0  0  0  0  0  0  0  0  0  0
   -1.4530   59.7840   74.0290 C   0  0  0  0  0  0  0  0  0  0  0  0
   -0.1210   59.6710   73.6250 C   0  0  0  0  0  0  0  0  0  0  0  0
    0.6420   58.5480   73.9730 C   0  0  0  0  0  0  0  0  0  0  0  0
    0.0380   57.5420   74.7480 C   0  0  0  0  0  0  0  0  0  0  0  0
   -1.3010   57.6390   75.1460 C   0  0  0  0  0  0  0  0  0  0  0  0
   -4.1700   59.8840   74.8080 C   0  0  0  0  0  0  0  0  0  0  0  0
   -3.3520   58.8030   75.2320 O   0  0  0  0  0  0  0  0  0  0  0  0
   -1.9500   56.6920   75.9000 O   0  0  0  0  0  0  0  0  0  0  0  0
   -2.2850   55.4700   75.2540 C   0  0  0  0  0  0  0  0  0  0  0  0
    3.3780   58.6580   75.7470 C   0  0  0  0  0  0  0  0  0  0  0  0
    4.1190   57.4690   75.8880 C   0  0  0  0  0  0  0  0  0  0  0  0
    4.4940   56.9700   77.1400 C   0  0  0  0  0  0  0  0  0  0  0  0
    4.1160   57.6600   78.2880 C   0  0  0  0  0  0  0  0  0  0  0  0
    3.3930   58.8480   78.1910 C   0  0  0  0  0  0  0  0  0  0  0  0
    3.0280   59.3340   76.9280 C   0  0  0  0  0  0  0  0  0  0  0  0
    4.5760   57.0410   79.8820 S   0  0  0  0  0  6  0  0  0  0  0  0
    5.7080   57.8000   80.3630 O   0  0  0  0  0  0  0  0  0  0  0  0
    3.3800   56.8460   80.6660 O   0  0  0  0  0  0  0  0  0  0  0  0
    5.1860   55.5210   79.4850 N   0  0  0  0  0  0  0  0  0  0  0  0
    2.2974   57.3952   73.4686 H   0  0  0  0  0  0  0  0  0  0  0  0
    2.9177   58.6749   71.5247 H   0  0  0  0  0  0  0  0  0  0  0  0
    1.4171   59.5234   71.7068 H   0  0  0  0  0  0  0  0  0  0  0  0
    1.4350   62.4394   72.1878 H   0  0  0  0  0  0  0  0  0  0  0  0
    4.1564   64.7663   69.7667 H   0  0  0  0  0  0  0  0  0  0  0  0
    5.9518   63.0679   70.1495 H   0  0  0  0  0  0  0  0  0  0  0  0
   -2.0355   60.6733   73.7465 H   0  0  0  0  0  0  0  0  0  0  0  0
    0.3350   60.4732   73.0263 H   0  0  0  0  0  0  0  0  0  0  0  0
    0.6280   56.6631   75.0470 H   0  0  0  0  0  0  0  0  0  0  0  0
   -4.5680   60.4099   75.6884 H   0  0  0  0  0  0  0  0  0  0  0  0
   -3.5716   60.5816   74.2036 H   0  0  0  0  0  0  0  0  0  0  0  0
   -5.0040   59.4977   74.2036 H   0  0  0  0  0  0  0  0  0  0  0  0
   -2.4959   54.7007   76.0114 H   0  0  0  0  0  0  0  0  0  0  0  0
   -3.1753   55.6196   74.6255 H   0  0  0  0  0  0  0  0  0  0  0  0
   -1.4429   55.1446   74.6255 H   0  0  0  0  0  0  0  0  0  0  0  0
    4.4125   56.9145   74.9844 H   0  0  0  0  0  0  0  0  0  0  0  0
    5.0810   56.0428   77.2162 H   0  0  0  0  0  0  0  0  0  0  0  0
    3.1109   59.4002   79.0995 H   0  0  0  0  0  0  0  0  0  0  0  0
    2.4526   60.2690   76.8596 H   0  0  0  0  0  0  0  0  0  0  0  0
    5.3955   54.9990   80.3479 H   0  0  0  0  0  0  0  0  0  0  0  0
    4.4872   55.0043   78.9322 H   0  0  0  0  0  0  0  0  0  0  0  0
  2  1  1  0
  3  2  1  0
  4  3  2  0
  5  1  1  0
  5  4  1  0
  6  3  1  0
  7  6  2  0
  8  7  1  0
  9  8  1  0
 10  8  2  0
 11 10  1  0
 12 11  2  0
 12  6  1  0
 13 12  1  0
 15 14  2  0
 16 15  1  0
 17 16  2  0
 17  1  1  0
 18 17  1  0
 19 14  1  0
 19 18  2  0
 21 14  1  0
 21 20  1  0
 22 19  1  0
 23 22  1  0
 24  5  1  0
 25 24  2  0
 26 25  1  0
 27 26  2  0
 28 27  1  0
 29 24  1  0
 29 28  2  0
 30 27  1  0
 31 30  2  0
 32 30  2  0
 33 30  1  0
  1 34  1  6
  2 35  1  0
  2 36  1  0
  7 37  1  0
 10 38  1  0
 11 39  1  0
 15 40  1  0
 16 41  1  0
 18 42  1  0
 20 43  1  0
 20 44  1  0
 20 45  1  0
 23 46  1  0
 23 47  1  0
 23 48  1  0
 25 49  1  0
 26 50  1  0
 28 51  1  0
 29 52  1  0
 33 53  1  0
 33 54  1  0
M  END
>  <score>  (3) 
-8.363

$$$$
=
     RDKit          3D

 54 57  0  0  0  0  0  0  0  0999 V2000
   -0.1460   60.4750   73.0870 C   0  0  1  0  0  0  0  0  0  0  0  0
    0.4510   61.5180   72.1420 C   0  0  0  0  0  0  0  0  0  0  0  0
    1.8250   60.9430   71.9380 C   0  0  0  0  0  0  0  0  0  0  0  0
    1.9880   59.7380   72.3970 N   0  0  0  0  0  0  0  0  0  0  0  0
    0.8180   59.3750   73.0010 N   0  0  0  0  0  0  0  0  0  0  0  0
    2.9000   61.6810   71.2410 C   0  0  0  0  0  0  0  0  0  0  0  0
    2.7200   62.0190   69.8940 C   0  0  0  0  0  0  0  0  0  0  0  0
    3.7190   62.7100   69.2160 C   0  0  0  0  0  0  0  0  0  0  0  0
    3.5420   63.0300   67.9290 F   0  0  0  0  0  0  0  0  0  0  0  0
    4.9010   63.0750   69.8540 C   0  0  0  0  0  0  0  0  0  0  0  0
    5.0840   62.7450   71.1950 C   0  0  0  0  0  0  0  0  0  0  0  0
    4.0850   62.0520   71.8810 C   0  0  0  0  0  0  0  0  0  0  0  0
    4.2980   61.7690   73.1730 F   0  0  0  0  0  0  0  0  0  0  0  0
   -0.6500   62.1600   77.0640 C   0  0  0  0  0  0  0  0  0  0  0  0
   -1.7400   62.0070   76.2030 C   0  0  0  0  0  0  0  0  0  0  0  0
   -1.5690   61.4530   74.9320 C   0  0  0  0  0  0  0  0  0  0  0  0
   -0.3030   61.0410   74.4930 C   0  0  0  0  0  0  0  0  0  0  0  0
    0.7920   61.2070   75.3590 C   0  0  0  0  0  0  0  0  0  0  0  0
    0.6280   61.7490   76.6400 C   0  0  0  0  0  0  0  0  0  0  0  0
   -1.8530   63.5000   78.6350 C   0  0  0  0  0  0  0  0  0  0  0  0
   -0.7250   62.6960   78.3260 O   0  0  0  0  0  0  0  0  0  0  0  0
    1.6550   61.9350   77.5340 O   0  0  0  0  0  0  0  0  0  0  0  0
    2.3680   60.7780   77.9500 C   0  0  0  0  0  0  0  0  0  0  0  0
    0.6370   58.0830   73.4890 C   0  0  0  0  0  0  0  0  0  0  0  0
    1.6950   57.1530   73.4700 C   0  0  0  0  0  0  0  0  0  0  0  0
    1.5490   55.8490   73.9530 C   0  0  0  0  0  0  0  0  0  0  0  0
    0.3170   55.4460   74.4600 C   0  0  0  0  0  0  0  0  0  0  0  0
   -0.7520   56.3390   74.5090 C   0  0  0  0  0  0  0  0  0  0  0  0
   -0.5870   57.6420   74.0230 C   0  0  0  0  0  0  0  0  0  0  0  0
    0.1110   53.7960   75.0710 S   0  0  0  0  0  6  0  0  0  0  0  0
    0.9220   53.6370   76.2560 O   0  0  0  0  0  0  0  0  0  0  0  0
   -1.2940   53.4620   75.0380 O   0  0  0  0  0  0  0  0  0  0  0  0
    0.8820   52.8990   73.8700 N   0  0  0  0  0  0  0  0  0  0  0  0
   -1.1628   60.1492   72.8225 H   0  0  0  0  0  0  0  0  0  0  0  0
   -0.1089   61.5785   71.1971 H   0  0  0  0  0  0  0  0  0  0  0  0
    0.4363   62.5486   72.5263 H   0  0  0  0  0  0  0  0  0  0  0  0
    1.7920   61.7391   69.3739 H   0  0  0  0  0  0  0  0  0  0  0  0
    5.6833   63.6190   69.3044 H   0  0  0  0  0  0  0  0  0  0  0  0
    6.0125   63.0295   71.7116 H   0  0  0  0  0  0  0  0  0  0  0  0
   -2.7412   62.3255   76.5288 H   0  0  0  0  0  0  0  0  0  0  0  0
   -2.4382   61.3387   74.2677 H   0  0  0  0  0  0  0  0  0  0  0  0
    1.7957   60.9058   75.0245 H   0  0  0  0  0  0  0  0  0  0  0  0
   -1.9605   63.5767   79.7270 H   0  0  0  0  0  0  0  0  0  0  0  0
   -1.7151   64.5046   78.2087 H   0  0  0  0  0  0  0  0  0  0  0  0
   -2.7577   63.0419   78.2087 H   0  0  0  0  0  0  0  0  0  0  0  0
    2.3927   60.7379   79.0490 H   0  0  0  0  0  0  0  0  0  0  0  0
    1.8669   59.8791   77.5615 H   0  0  0  0  0  0  0  0  0  0  0  0
    3.3962   60.8215   77.5615 H   0  0  0  0  0  0  0  0  0  0  0  0
    2.6682   57.4630   73.0616 H   0  0  0  0  0  0  0  0  0  0  0  0
    2.3979   55.1498   73.9325 H   0  0  0  0  0  0  0  0  0  0  0  0
   -1.7191   56.0223   74.9267 H   0  0  0  0  0  0  0  0  0  0  0  0
   -1.4372   58.3389   74.0599 H   0  0  0  0  0  0  0  0  0  0  0  0
    1.4900   52.1916   74.3068 H   0  0  0  0  0  0  0  0  0  0  0  0
    0.1758   52.4305   73.2847 H   0  0  0  0  0  0  0  0  0  0  0  0
  2  1  1  0
  3  2  1  0
  4  3  2  0
  5  1  1  0
  5  4  1  0
  6  3  1  0
  7  6  2  0
  8  7  1  0
  9  8  1  0
 10  8  2  0
 11 10  1  0
 12 11  2  0
 12  6  1  0
 13 12  1  0
 15 14  2  0
 16 15  1  0
 17 16  2  0
 17  1  1  0
 18 17  1  0
 19 14  1  0
 19 18  2  0
 21 14  1  0
 21 20  1  0
 22 19  1  0
 23 22  1  0
 24  5  1  0
 25 24  2  0
 26 25  1  0
 27 26  2  0
 28 27  1  0
 29 24  1  0
 29 28  2  0
 30 27  1  0
 31 30  2  0
 32 30  2  0
 33 30  1  0
  1 34  1  6
  2 35  1  0
  2 36  1  0
  7 37  1  0
 10 38  1  0
 11 39  1  0
 15 40  1  0
 16 41  1  0
 18 42  1  0
 20 43  1  0
 20 44  1  0
 20 45  1  0
 23 46  1  0
 23 47  1  0
 23 48  1  0
 25 49  1  0
 26 50  1  0
 28 51  1  0
 29 52  1  0
 33 53  1  0
 33 54  1  0
M  END
>  <score>  (4) 
-8.264

$$$$
=
     RDKit          3D

 54 57  0  0  0  0  0  0  0  0999 V2000
    0.6630   59.2380   74.9910 C   0  0  1  0  0  0  0  0  0  0  0  0
    0.4880   57.8550   75.6210 C   0  0  0  0  0  0  0  0  0  0  0  0
    0.5230   56.9910   74.3900 C   0  0  0  0  0  0  0  0  0  0  0  0
    0.8860   57.6020   73.3030 N   0  0  0  0  0  0  0  0  0  0  0  0
    1.0770   58.9160   73.6220 N   0  0  0  0  0  0  0  0  0  0  0  0
    0.1980   55.5490   74.4220 C   0  0  0  0  0  0  0  0  0  0  0  0
   -1.0790   55.1570   74.8440 C   0  0  0  0  0  0  0  0  0  0  0  0
   -1.4070   53.8060   74.8860 C   0  0  0  0  0  0  0  0  0  0  0  0
   -2.6280   53.4370   75.2910 F   0  0  0  0  0  0  0  0  0  0  0  0
   -0.4870   52.8300   74.5150 C   0  0  0  0  0  0  0  0  0  0  0  0
    0.7840   53.2140   74.0910 C   0  0  0  0  0  0  0  0  0  0  0  0
    1.1190   54.5680   74.0470 C   0  0  0  0  0  0  0  0  0  0  0  0
    2.3470   54.8930   73.6180 F   0  0  0  0  0  0  0  0  0  0  0  0
   -3.0570   61.4860   75.1140 C   0  0  0  0  0  0  0  0  0  0  0  0
   -3.0340   60.1540   74.6900 C   0  0  0  0  0  0  0  0  0  0  0  0
   -1.8340   59.4370   74.6670 C   0  0  0  0  0  0  0  0  0  0  0  0
   -0.6320   60.0370   75.0650 C   0  0  0  0  0  0  0  0  0  0  0  0
   -0.6600   61.3800   75.4790 C   0  0  0  0  0  0  0  0  0  0  0  0
   -1.8590   62.1030   75.5200 C   0  0  0  0  0  0  0  0  0  0  0  0
   -5.4440   61.6080   75.1200 C   0  0  0  0  0  0  0  0  0  0  0  0
   -4.1860   62.2650   75.1680 O   0  0  0  0  0  0  0  0  0  0  0  0
   -1.9530   63.4150   75.9170 O   0  0  0  0  0  0  0  0  0  0  0  0
   -1.3280   63.7650   77.1450 C   0  0  0  0  0  0  0  0  0  0  0  0
    1.5890   59.8120   72.6860 C   0  0  0  0  0  0  0  0  0  0  0  0
    0.9370   61.0340   72.4310 C   0  0  0  0  0  0  0  0  0  0  0  0
    1.4240   61.9570   71.4990 C   0  0  0  0  0  0  0  0  0  0  0  0
    2.5830   61.6590   70.7890 C   0  0  0  0  0  0  0  0  0  0  0  0
    3.2650   60.4660   71.0210 C   0  0  0  0  0  0  0  0  0  0  0  0
    2.7650   59.5540   71.9600 C   0  0  0  0  0  0  0  0  0  0  0  0
    3.2110   62.8120   69.6000 S   0  0  0  0  0  6  0  0  0  0  0  0
    4.5360   63.2200   70.0070 O   0  0  0  0  0  0  0  0  0  0  0  0
    2.9220   62.3150   68.2760 O   0  0  0  0  0  0  0  0  0  0  0  0
    2.2200   64.1470   69.8770 N   0  0  0  0  0  0  0  0  0  0  0  0
    1.3957   59.8818   75.4996 H   0  0  0  0  0  0  0  0  0  0  0  0
    1.3111   57.6148   76.3101 H   0  0  0  0  0  0  0  0  0  0  0  0
   -0.4162   57.7413   76.2371 H   0  0  0  0  0  0  0  0  0  0  0  0
   -1.8193   55.9145   75.1409 H   0  0  0  0  0  0  0  0  0  0  0  0
   -0.7604   51.7653   74.5560 H   0  0  0  0  0  0  0  0  0  0  0  0
    1.5199   52.4530   73.7923 H   0  0  0  0  0  0  0  0  0  0  0  0
   -3.9673   59.6663   74.3720 H   0  0  0  0  0  0  0  0  0  0  0  0
   -1.8335   58.3891   74.3324 H   0  0  0  0  0  0  0  0  0  0  0  0
    0.2775   61.8726   75.7764 H   0  0  0  0  0  0  0  0  0  0  0  0
   -5.7999   61.4221   76.1441 H   0  0  0  0  0  0  0  0  0  0  0  0
   -6.1691   62.2426   74.5894 H   0  0  0  0  0  0  0  0  0  0  0  0
   -5.3375   60.6504   74.5894 H   0  0  0  0  0  0  0  0  0  0  0  0
   -1.9484   63.4176   77.9843 H   0  0  0  0  0  0  0  0  0  0  0  0
   -0.3372   63.2905   77.2004 H   0  0  0  0  0  0  0  0  0  0  0  0
   -1.2148   64.8578   77.2004 H   0  0  0  0  0  0  0  0  0  0  0  0
    0.0150   61.2705   72.9824 H   0  0  0  0  0  0  0  0  0  0  0  0
    0.8967   62.9074   71.3295 H   0  0  0  0  0  0  0  0  0  0  0  0
    4.1904   60.2416   70.4702 H   0  0  0  0  0  0  0  0  0  0  0  0
    3.3063   58.6123   72.1335 H   0  0  0  0  0  0  0  0  0  0  0  0
    2.1133   64.2908   70.8913 H   0  0  0  0  0  0  0  0  0  0  0  0
    2.6458   64.9843   69.4545 H   0  0  0  0  0  0  0  0  0  0  0  0
  2  1  1  0
  3  2  1  0
  4  3  2  0
  5  1  1  0
  5  4  1  0
  6  3  1  0
  7  6  2  0
  8  7  1  0
  9  8  1  0
 10  8  2  0
 11 10  1  0
 12 11  2  0
 12  6  1  0
 13 12  1  0
 15 14  2  0
 16 15  1  0
 17 16  2  0
 17  1  1  0
 18 17  1  0
 19 14  1  0
 19 18  2  0
 21 14  1  0
 21 20  1  0
 22 19  1  0
 23 22  1  0
 24  5  1  0
 25 24  2  0
 26 25  1  0
 27 26  2  0
 28 27  1  0
 29 24  1  0
 29 28  2  0
 30 27  1  0
 31 30  2  0
 32 30  2  0
 33 30  1  0
  1 34  1  1
  2 35  1  0
  2 36  1  0
  7 37  1  0
 10 38  1  0
 11 39  1  0
 15 40  1  0
 16 41  1  0
 18 42  1  0
 20 43  1  0
 20 44  1  0
 20 45  1  0
 23 46  1  0
 23 47  1  0
 23 48  1  0
 25 49  1  0
 26 50  1  0
 28 51  1  0
 29 52  1  0
 33 53  1  0
 33 54  1  0
M  END
>  <score>  (5) 
-7.876

$$$$
=
     RDKit          3D

 54 57  0  0  0  0  0  0  0  0999 V2000
    0.9590   60.2280   74.4830 C   0  0  1  0  0  0  0  0  0  0  0  0
    2.2090   60.5930   73.6810 C   0  0  0  0  0  0  0  0  0  0  0  0
    1.5890   61.3720   72.5540 C   0  0  0  0  0  0  0  0  0  0  0  0
    0.3330   61.6620   72.7160 N   0  0  0  0  0  0  0  0  0  0  0  0
   -0.0650   61.0930   73.8920 N   0  0  0  0  0  0  0  0  0  0  0  0
    2.3580   61.8000   71.3660 C   0  0  0  0  0  0  0  0  0  0  0  0
    3.0500   60.8310   70.6290 C   0  0  0  0  0  0  0  0  0  0  0  0
    3.7830   61.2110   69.5090 C   0  0  0  0  0  0  0  0  0  0  0  0
    4.4440   60.2810   68.8080 F   0  0  0  0  0  0  0  0  0  0  0  0
    3.8440   62.5410   69.1050 C   0  0  0  0  0  0  0  0  0  0  0  0
    3.1540   63.5080   69.8320 C   0  0  0  0  0  0  0  0  0  0  0  0
    2.4160   63.1340   70.9570 C   0  0  0  0  0  0  0  0  0  0  0  0
    1.7560   64.0960   71.6170 F   0  0  0  0  0  0  0  0  0  0  0  0
    0.0640   55.9960   74.0380 C   0  0  0  0  0  0  0  0  0  0  0  0
    0.9580   56.6380   73.1760 C   0  0  0  0  0  0  0  0  0  0  0  0
    1.2480   57.9960   73.3360 C   0  0  0  0  0  0  0  0  0  0  0  0
    0.6490   58.7410   74.3610 C   0  0  0  0  0  0  0  0  0  0  0  0
   -0.2580   58.0930   75.2180 C   0  0  0  0  0  0  0  0  0  0  0  0
   -0.5440   56.7290   75.0740 C   0  0  0  0  0  0  0  0  0  0  0  0
    0.7510   53.7080   74.1190 C   0  0  0  0  0  0  0  0  0  0  0  0
   -0.2800   54.6700   73.9530 O   0  0  0  0  0  0  0  0  0  0  0  0
   -1.4170   56.0380   75.8780 O   0  0  0  0  0  0  0  0  0  0  0  0
   -2.6580   56.6640   76.1740 C   0  0  0  0  0  0  0  0  0  0  0  0
   -1.3400   61.3270   74.4050 C   0  0  0  0  0  0  0  0  0  0  0  0
   -2.4690   60.7170   73.8250 C   0  0  0  0  0  0  0  0  0  0  0  0
   -3.7630   60.9300   74.3150 C   0  0  0  0  0  0  0  0  0  0  0  0
   -3.9470   61.7800   75.4020 C   0  0  0  0  0  0  0  0  0  0  0  0
   -2.8540   62.3920   76.0120 C   0  0  0  0  0  0  0  0  0  0  0  0
   -1.5650   62.1660   75.5090 C   0  0  0  0  0  0  0  0  0  0  0  0
   -5.5770   62.0660   76.0320 S   0  0  0  0  0  6  0  0  0  0  0  0
   -5.7800   61.2230   77.1880 O   0  0  0  0  0  0  0  0  0  0  0  0
   -5.8220   63.4880   76.0530 O   0  0  0  0  0  0  0  0  0  0  0  0
   -6.5270   61.3970   74.8110 N   0  0  0  0  0  0  0  0  0  0  0  0
    1.0506   60.3859   75.5678 H   0  0  0  0  0  0  0  0  0  0  0  0
    2.9034   61.2111   74.2690 H   0  0  0  0  0  0  0  0  0  0  0  0
    2.8197   59.7344   73.3651 H   0  0  0  0  0  0  0  0  0  0  0  0
    3.0143   59.7747   70.9340 H   0  0  0  0  0  0  0  0  0  0  0  0
    4.4316   62.8260   68.2198 H   0  0  0  0  0  0  0  0  0  0  0  0
    3.1902   64.5625   69.5212 H   0  0  0  0  0  0  0  0  0  0  0  0
    1.4372   56.0698   72.3651 H   0  0  0  0  0  0  0  0  0  0  0  0
    1.9545   58.4856   72.6496 H   0  0  0  0  0  0  0  0  0  0  0  0
   -0.7518   58.6672   76.0158 H   0  0  0  0  0  0  0  0  0  0  0  0
    0.9286   53.5423   75.1918 H   0  0  0  0  0  0  0  0  0  0  0  0
    0.4488   52.7615   73.6469 H   0  0  0  0  0  0  0  0  0  0  0  0
    1.6743   54.0749   73.6469 H   0  0  0  0  0  0  0  0  0  0  0  0
   -2.7853   56.7282   77.2647 H   0  0  0  0  0  0  0  0  0  0  0  0
   -2.6701   57.6761   75.7432 H   0  0  0  0  0  0  0  0  0  0  0  0
   -3.4791   56.0723   75.7432 H   0  0  0  0  0  0  0  0  0  0  0  0
   -2.3298   60.0522   72.9597 H   0  0  0  0  0  0  0  0  0  0  0  0
   -4.6244   60.4315   73.8465 H   0  0  0  0  0  0  0  0  0  0  0  0
   -3.0015   63.0481   76.8825 H   0  0  0  0  0  0  0  0  0  0  0  0
   -0.7077   62.6584   75.9913 H   0  0  0  0  0  0  0  0  0  0  0  0
   -7.2957   60.8557   75.2317 H   0  0  0  0  0  0  0  0  0  0  0  0
   -6.9171   62.1508   74.2276 H   0  0  0  0  0  0  0  0  0  0  0  0
  2  1  1  0
  3  2  1  0
  4  3  2  0
  5  1  1  0
  5  4  1  0
  6  3  1  0
  7  6  2  0
  8  7  1  0
  9  8  1  0
 10  8  2  0
 11 10  1  0
 12 11  2  0
 12  6  1  0
 13 12  1  0
 15 14  2  0
 16 15  1  0
 17 16  2  0
 17  1  1  0
 18 17  1  0
 19 14  1  0
 19 18  2  0
 21 14  1  0
 21 20  1  0
 22 19  1  0
 23 22  1  0
 24  5  1  0
 25 24  2  0
 26 25  1  0
 27 26  2  0
 28 27  1  0
 29 24  1  0
 29 28  2  0
 30 27  1  0
 31 30  2  0
 32 30  2  0
 33 30  1  0
  1 34  1  1
  2 35  1  0
  2 36  1  0
  7 37  1  0
 10 38  1  0
 11 39  1  0
 15 40  1  0
 16 41  1  0
 18 42  1  0
 20 43  1  0
 20 44  1  0
 20 45  1  0
 23 46  1  0
 23 47  1  0
 23 48  1  0
 25 49  1  0
 26 50  1  0
 28 51  1  0
 29 52  1  0
 33 53  1  0
 33 54  1  0
M  END
>  <score>  (6) 
-7.873

$$$$
=
     RDKit          3D

 54 57  0  0  0  0  0  0  0  0999 V2000
   -0.1620   59.8700   73.5560 C   0  0  1  0  0  0  0  0  0  0  0  0
    0.2110   60.9430   72.5330 C   0  0  0  0  0  0  0  0  0  0  0  0
    1.5510   60.4300   72.0800 C   0  0  0  0  0  0  0  0  0  0  0  0
    1.8440   59.2320   72.4880 N   0  0  0  0  0  0  0  0  0  0  0  0
    0.8170   58.8140   73.2860 N   0  0  0  0  0  0  0  0  0  0  0  0
    2.4520   61.2180   71.2130 C   0  0  0  0  0  0  0  0  0  0  0  0
    2.5630   62.5960   71.4350 C   0  0  0  0  0  0  0  0  0  0  0  0
    3.4020   63.3600   70.6300 C   0  0  0  0  0  0  0  0  0  0  0  0
    3.5030   64.6770   70.8460 F   0  0  0  0  0  0  0  0  0  0  0  0
    4.1380   62.7780   69.6020 C   0  0  0  0  0  0  0  0  0  0  0  0
    4.0350   61.4070   69.3790 C   0  0  0  0  0  0  0  0  0  0  0  0
    3.1950   60.6350   70.1830 C   0  0  0  0  0  0  0  0  0  0  0  0
    3.1380   59.3180   69.9420 F   0  0  0  0  0  0  0  0  0  0  0  0
   -0.0510   61.4220   77.6160 C   0  0  0  0  0  0  0  0  0  0  0  0
   -0.6620   60.1980   77.3290 C   0  0  0  0  0  0  0  0  0  0  0  0
   -0.6810   59.7030   76.0220 C   0  0  0  0  0  0  0  0  0  0  0  0
   -0.0900   60.4220   74.9740 C   0  0  0  0  0  0  0  0  0  0  0  0
    0.5130   61.6570   75.2670 C   0  0  0  0  0  0  0  0  0  0  0  0
    0.5500   62.1550   76.5750 C   0  0  0  0  0  0  0  0  0  0  0  0
   -1.1720   61.9920   79.6490 C   0  0  0  0  0  0  0  0  0  0  0  0
    0.0130   61.9840   78.8660 O   0  0  0  0  0  0  0  0  0  0  0  0
    1.1260   63.3520   76.9270 O   0  0  0  0  0  0  0  0  0  0  0  0
    1.1360   64.3790   75.9430 C   0  0  0  0  0  0  0  0  0  0  0  0
    0.7820   57.5130   73.7830 C   0  0  0  0  0  0  0  0  0  0  0  0
   -0.3830   56.7300   73.6650 C   0  0  0  0  0  0  0  0  0  0  0  0
   -0.4530   55.4210   74.1510 C   0  0  0  0  0  0  0  0  0  0  0  0
    0.6570   54.8710   74.7850 C   0  0  0  0  0  0  0  0  0  0  0  0
    1.8340   55.6080   74.9120 C   0  0  0  0  0  0  0  0  0  0  0  0
    1.8870   56.9170   74.4160 C   0  0  0  0  0  0  0  0  0  0  0  0
    0.5860   53.2170   75.4130 S   0  0  0  0  0  6  0  0  0  0  0  0
    0.4710   52.3040   74.3000 O   0  0  0  0  0  0  0  0  0  0  0  0
    1.5900   53.0680   76.4410 O   0  0  0  0  0  0  0  0  0  0  0  0
   -0.9230   53.2110   76.1630 N   0  0  0  0  0  0  0  0  0  0  0  0
   -1.1947   59.5003   73.4727 H   0  0  0  0  0  0  0  0  0  0  0  0
   -0.5108   60.9830   71.7039 H   0  0  0  0  0  0  0  0  0  0  0  0
    0.2208   61.9701   72.9265 H   0  0  0  0  0  0  0  0  0  0  0  0
    1.9889   63.0729   72.2431 H   0  0  0  0  0  0  0  0  0  0  0  0
    4.7950   63.3951   68.9715 H   0  0  0  0  0  0  0  0  0  0  0  0
    4.6138   60.9342   68.5719 H   0  0  0  0  0  0  0  0  0  0  0  0
   -1.1317   59.6197   78.1383 H   0  0  0  0  0  0  0  0  0  0  0  0
   -1.1655   58.7377   75.8134 H   0  0  0  0  0  0  0  0  0  0  0  0
    0.9645   62.2436   74.4533 H   0  0  0  0  0  0  0  0  0  0  0  0
   -0.9062   61.9902   80.7164 H   0  0  0  0  0  0  0  0  0  0  0  0
   -1.7577   62.8941   79.4185 H   0  0  0  0  0  0  0  0  0  0  0  0
   -1.7698   61.0979   79.4185 H   0  0  0  0  0  0  0  0  0  0  0  0
    1.1456   65.3612   76.4382 H   0  0  0  0  0  0  0  0  0  0  0  0
    2.0332   64.2763   75.3149 H   0  0  0  0  0  0  0  0  0  0  0  0
    0.2370   64.2938   75.3149 H   0  0  0  0  0  0  0  0  0  0  0  0
   -1.2671   57.1629   73.1741 H   0  0  0  0  0  0  0  0  0  0  0  0
   -1.3749   54.8326   74.0336 H   0  0  0  0  0  0  0  0  0  0  0  0
    2.7151   55.1643   75.3985 H   0  0  0  0  0  0  0  0  0  0  0  0
    2.8174   57.4937   74.5246 H   0  0  0  0  0  0  0  0  0  0  0  0
   -0.7982   53.2115   77.1854 H   0  0  0  0  0  0  0  0  0  0  0  0
   -1.4499   54.0499   75.8810 H   0  0  0  0  0  0  0  0  0  0  0  0
  2  1  1  0
  3  2  1  0
  4  3  2  0
  5  1  1  0
  5  4  1  0
  6  3  1  0
  7  6  2  0
  8  7  1  0
  9  8  1  0
 10  8  2  0
 11 10  1  0
 12 11  2  0
 12  6  1  0
 13 12  1  0
 15 14  2  0
 16 15  1  0
 17 16  2  0
 17  1  1  0
 18 17  1  0
 19 14  1  0
 19 18  2  0
 21 14  1  0
 21 20  1  0
 22 19  1  0
 23 22  1  0
 24  5  1  0
 25 24  2  0
 26 25  1  0
 27 26  2  0
 28 27  1  0
 29 24  1  0
 29 28  2  0
 30 27  1  0
 31 30  2  0
 32 30  2  0
 33 30  1  0
  1 34  1  6
  2 35  1  0
  2 36  1  0
  7 37  1  0
 10 38  1  0
 11 39  1  0
 15 40  1  0
 16 41  1  0
 18 42  1  0
 20 43  1  0
 20 44  1  0
 20 45  1  0
 23 46  1  0
 23 47  1  0
 23 48  1  0
 25 49  1  0
 26 50  1  0
 28 51  1  0
 29 52  1  0
 33 53  1  0
 33 54  1  0
M  END
>  <score>  (7) 
-7.78

$$$$
=
     RDKit          3D

 54 57  0  0  0  0  0  0  0  0999 V2000
    0.5800   58.5320   75.2570 C   0  0  1  0  0  0  0  0  0  0  0  0
    0.1470   57.2250   75.9230 C   0  0  0  0  0  0  0  0  0  0  0  0
    0.0360   56.3320   74.7180 C   0  0  0  0  0  0  0  0  0  0  0  0
    0.5170   56.8330   73.6190 N   0  0  0  0  0  0  0  0  0  0  0  0
    0.9430   58.0980   73.9050 N   0  0  0  0  0  0  0  0  0  0  0  0
   -0.5490   54.9750   74.7850 C   0  0  0  0  0  0  0  0  0  0  0  0
   -1.8010   54.8130   75.3900 C   0  0  0  0  0  0  0  0  0  0  0  0
   -2.3700   53.5460   75.4680 C   0  0  0  0  0  0  0  0  0  0  0  0
   -3.5670   53.3960   76.0480 F   0  0  0  0  0  0  0  0  0  0  0  0
   -1.7170   52.4300   74.9540 C   0  0  0  0  0  0  0  0  0  0  0  0
   -0.4720   52.5870   74.3470 C   0  0  0  0  0  0  0  0  0  0  0  0
    0.1040   53.8550   74.2660 C   0  0  0  0  0  0  0  0  0  0  0  0
    1.2960   53.9610   73.6600 F   0  0  0  0  0  0  0  0  0  0  0  0
   -2.6130   61.4780   75.4370 C   0  0  0  0  0  0  0  0  0  0  0  0
   -1.3480   61.7530   75.9650 C   0  0  0  0  0  0  0  0  0  0  0  0
   -0.3260   60.8030   75.8900 C   0  0  0  0  0  0  0  0  0  0  0  0
   -0.5470   59.5570   75.2880 C   0  0  0  0  0  0  0  0  0  0  0  0
   -1.8240   59.2820   74.7690 C   0  0  0  0  0  0  0  0  0  0  0  0
   -2.8510   60.2320   74.8270 C   0  0  0  0  0  0  0  0  0  0  0  0
   -3.6800   63.3470   76.4780 C   0  0  0  0  0  0  0  0  0  0  0  0
   -3.6740   62.3480   75.4680 O   0  0  0  0  0  0  0  0  0  0  0  0
   -4.1180   60.0260   74.3370 O   0  0  0  0  0  0  0  0  0  0  0  0
   -4.9240   59.0680   75.0100 C   0  0  0  0  0  0  0  0  0  0  0  0
    1.6210   58.8560   72.9530 C   0  0  0  0  0  0  0  0  0  0  0  0
    2.6790   58.2960   72.2100 C   0  0  0  0  0  0  0  0  0  0  0  0
    3.3800   59.0280   71.2460 C   0  0  0  0  0  0  0  0  0  0  0  0
    3.0350   60.3570   71.0170 C   0  0  0  0  0  0  0  0  0  0  0  0
    1.9860   60.9450   71.7220 C   0  0  0  0  0  0  0  0  0  0  0  0
    1.2930   60.1960   72.6820 C   0  0  0  0  0  0  0  0  0  0  0  0
    3.9150   61.3010   69.8050 S   0  0  0  0  0  6  0  0  0  0  0  0
    4.6360   62.3580   70.4760 O   0  0  0  0  0  0  0  0  0  0  0  0
    4.5500   60.3910   68.8800 O   0  0  0  0  0  0  0  0  0  0  0  0
    2.6490   62.0600   68.9920 N   0  0  0  0  0  0  0  0  0  0  0  0
    1.4132   59.0458   75.7587 H   0  0  0  0  0  0  0  0  0  0  0  0
    0.9044   56.8593   76.6320 H   0  0  0  0  0  0  0  0  0  0  0  0
   -0.7692   57.2982   76.5273 H   0  0  0  0  0  0  0  0  0  0  0  0
   -2.3324   55.6836   75.8018 H   0  0  0  0  0  0  0  0  0  0  0  0
   -2.1785   51.4341   75.0259 H   0  0  0  0  0  0  0  0  0  0  0  0
    0.0544   51.7142   73.9334 H   0  0  0  0  0  0  0  0  0  0  0  0
   -1.1557   62.7248   76.4432 H   0  0  0  0  0  0  0  0  0  0  0  0
    0.6642   61.0361   76.3086 H   0  0  0  0  0  0  0  0  0  0  0  0
   -2.0202   58.3024   74.3088 H   0  0  0  0  0  0  0  0  0  0  0  0
   -3.6771   62.8675   77.4680 H   0  0  0  0  0  0  0  0  0  0  0  0
   -2.7856   63.9789   76.3740 H   0  0  0  0  0  0  0  0  0  0  0  0
   -4.5819   63.9681   76.3740 H   0  0  0  0  0  0  0  0  0  0  0  0
   -4.8158   59.1966   76.0971 H   0  0  0  0  0  0  0  0  0  0  0  0
   -5.9772   59.2112   74.7269 H   0  0  0  0  0  0  0  0  0  0  0  0
   -4.6027   58.0548   74.7269 H   0  0  0  0  0  0  0  0  0  0  0  0
    2.9629   57.2493   72.3939 H   0  0  0  0  0  0  0  0  0  0  0  0
    4.1948   58.5587   70.6752 H   0  0  0  0  0  0  0  0  0  0  0  0
    1.7042   61.9901   71.5259 H   0  0  0  0  0  0  0  0  0  0  0  0
    0.4704   60.6689   73.2385 H   0  0  0  0  0  0  0  0  0  0  0  0
    1.9893   62.4555   69.6770 H   0  0  0  0  0  0  0  0  0  0  0  0
    3.0244   62.8155   68.4011 H   0  0  0  0  0  0  0  0  0  0  0  0
  2  1  1  0
  3  2  1  0
  4  3  2  0
  5  1  1  0
  5  4  1  0
  6  3  1  0
  7  6  2  0
  8  7  1  0
  9  8  1  0
 10  8  2  0
 11 10  1  0
 12 11  2  0
 12  6  1  0
 13 12  1  0
 15 14  2  0
 16 15  1  0
 17 16  2  0
 17  1  1  0
 18 17  1  0
 19 14  1  0
 19 18  2  0
 21 14  1  0
 21 20  1  0
 22 19  1  0
 23 22  1  0
 24  5  1  0
 25 24  2  0
 26 25  1  0
 27 26  2  0
 28 27  1  0
 29 24  1  0
 29 28  2  0
 30 27  1  0
 31 30  2  0
 32 30  2  0
 33 30  1  0
  1 34  1  1
  2 35  1  0
  2 36  1  0
  7 37  1  0
 10 38  1  0
 11 39  1  0
 15 40  1  0
 16 41  1  0
 18 42  1  0
 20 43  1  0
 20 44  1  0
 20 45  1  0
 23 46  1  0
 23 47  1  0
 23 48  1  0
 25 49  1  0
 26 50  1  0
 28 51  1  0
 29 52  1  0
 33 53  1  0
 33 54  1  0
M  END
>  <score>  (8) 
-7.736

$$$$
=
     RDKit          3D

 54 57  0  0  0  0  0  0  0  0999 V2000
    0.7610   59.7800   74.3270 C   0  0  1  0  0  0  0  0  0  0  0  0
    0.7380   60.2110   72.8600 C   0  0  0  0  0  0  0  0  0  0  0  0
    2.1440   60.7220   72.7060 C   0  0  0  0  0  0  0  0  0  0  0  0
    2.9360   60.4540   73.7010 N   0  0  0  0  0  0  0  0  0  0  0  0
    2.1910   59.8080   74.6470 N   0  0  0  0  0  0  0  0  0  0  0  0
    2.5990   61.4480   71.5010 C   0  0  0  0  0  0  0  0  0  0  0  0
    2.4440   62.8400   71.4570 C   0  0  0  0  0  0  0  0  0  0  0  0
    2.8600   63.5440   70.3330 C   0  0  0  0  0  0  0  0  0  0  0  0
    2.7090   64.8740   70.2940 F   0  0  0  0  0  0  0  0  0  0  0  0
    3.4320   62.8920   69.2440 C   0  0  0  0  0  0  0  0  0  0  0  0
    3.5920   61.5080   69.2850 C   0  0  0  0  0  0  0  0  0  0  0  0
    3.1760   60.7950   70.4100 C   0  0  0  0  0  0  0  0  0  0  0  0
    3.3640   59.4680   70.4120 F   0  0  0  0  0  0  0  0  0  0  0  0
   -1.6990   62.4010   76.7730 C   0  0  0  0  0  0  0  0  0  0  0  0
   -1.6150   61.0320   77.0440 C   0  0  0  0  0  0  0  0  0  0  0  0
   -0.8110   60.2020   76.2580 C   0  0  0  0  0  0  0  0  0  0  0  0
   -0.0760   60.7210   75.1850 C   0  0  0  0  0  0  0  0  0  0  0  0
   -0.1730   62.0960   74.9100 C   0  0  0  0  0  0  0  0  0  0  0  0
   -0.9650   62.9390   75.6990 C   0  0  0  0  0  0  0  0  0  0  0  0
   -2.0420   63.6110   78.8050 C   0  0  0  0  0  0  0  0  0  0  0  0
   -2.4640   63.2890   77.4880 O   0  0  0  0  0  0  0  0  0  0  0  0
   -1.1010   64.2900   75.4850 O   0  0  0  0  0  0  0  0  0  0  0  0
    0.0210   64.9750   74.9440 C   0  0  0  0  0  0  0  0  0  0  0  0
    2.7890   59.2810   75.7900 C   0  0  0  0  0  0  0  0  0  0  0  0
    3.3690   57.9980   75.7700 C   0  0  0  0  0  0  0  0  0  0  0  0
    3.9780   57.4390   76.8990 C   0  0  0  0  0  0  0  0  0  0  0  0
    4.0040   58.1640   78.0860 C   0  0  0  0  0  0  0  0  0  0  0  0
    3.4510   59.4430   78.1450 C   0  0  0  0  0  0  0  0  0  0  0  0
    2.8480   59.9880   77.0040 C   0  0  0  0  0  0  0  0  0  0  0  0
    4.7650   57.4710   79.5270 S   0  0  0  0  0  6  0  0  0  0  0  0
    5.8730   58.3120   79.9150 O   0  0  0  0  0  0  0  0  0  0  0  0
    3.7290   57.0720   80.4520 O   0  0  0  0  0  0  0  0  0  0  0  0
    5.4570   56.0700   78.8960 N   0  0  0  0  0  0  0  0  0  0  0  0
    0.3182   58.7914   74.5186 H   0  0  0  0  0  0  0  0  0  0  0  0
    0.5382   59.3620   72.1898 H   0  0  0  0  0  0  0  0  0  0  0  0
   -0.0462   60.9397   72.6072 H   0  0  0  0  0  0  0  0  0  0  0  0
    1.9952   63.3731   72.3081 H   0  0  0  0  0  0  0  0  0  0  0  0
    3.7542   63.4629   68.3607 H   0  0  0  0  0  0  0  0  0  0  0  0
    4.0448   60.9795   68.4332 H   0  0  0  0  0  0  0  0  0  0  0  0
   -2.1858   60.6051   77.8818 H   0  0  0  0  0  0  0  0  0  0  0  0
   -0.7548   59.1272   76.4851 H   0  0  0  0  0  0  0  0  0  0  0  0
    0.3833   62.5173   74.0597 H   0  0  0  0  0  0  0  0  0  0  0  0
   -2.6977   63.1106   79.5328 H   0  0  0  0  0  0  0  0  0  0  0  0
   -1.0058   63.2719   78.9512 H   0  0  0  0  0  0  0  0  0  0  0  0
   -2.0955   64.6999   78.9512 H   0  0  0  0  0  0  0  0  0  0  0  0
    0.6473   65.3573   75.7635 H   0  0  0  0  0  0  0  0  0  0  0  0
    0.6100   64.2823   74.3249 H   0  0  0  0  0  0  0  0  0  0  0  0
   -0.3260   65.8154   74.3249 H   0  0  0  0  0  0  0  0  0  0  0  0
    3.3425   57.4164   74.8367 H   0  0  0  0  0  0  0  0  0  0  0  0
    4.4310   56.4379   76.8485 H   0  0  0  0  0  0  0  0  0  0  0  0
    3.4881   60.0198   79.0809 H   0  0  0  0  0  0  0  0  0  0  0  0
    2.4093   60.9952   77.0592 H   0  0  0  0  0  0  0  0  0  0  0  0
    5.7590   55.4586   79.6679 H   0  0  0  0  0  0  0  0  0  0  0  0
    4.7634   55.5751   78.3172 H   0  0  0  0  0  0  0  0  0  0  0  0
  2  1  1  0
  3  2  1  0
  4  3  2  0
  5  1  1  0
  5  4  1  0
  6  3  1  0
  7  6  2  0
  8  7  1  0
  9  8  1  0
 10  8  2  0
 11 10  1  0
 12 11  2  0
 12  6  1  0
 13 12  1  0
 15 14  2  0
 16 15  1  0
 17 16  2  0
 17  1  1  0
 18 17  1  0
 19 14  1  0
 19 18  2  0
 21 14  1  0
 21 20  1  0
 22 19  1  0
 23 22  1  0
 24  5  1  0
 25 24  2  0
 26 25  1  0
 27 26  2  0
 28 27  1  0
 29 24  1  0
 29 28  2  0
 30 27  1  0
 31 30  2  0
 32 30  2  0
 33 30  1  0
  1 34  1  6
  2 35  1  0
  2 36  1  0
  7 37  1  0
 10 38  1  0
 11 39  1  0
 15 40  1  0
 16 41  1  0
 18 42  1  0
 20 43  1  0
 20 44  1  0
 20 45  1  0
 23 46  1  0
 23 47  1  0
 23 48  1  0
 25 49  1  0
 26 50  1  0
 28 51  1  0
 29 52  1  0
 33 53  1  0
 33 54  1  0
M  END
>  <score>  (9) 
-7.679

$$$$
