=
     RDKit          3D

 29 30  0  0  0  0  0  0  0  0999 V2000
    2.8240   68.8180   65.9210 C   0  0  0  0  0  0  0  0  0  0  0  0
    3.3040   68.7630   61.6100 C   0  0  0  0  0  0  0  0  0  0  0  0
    4.4120   68.9040   62.4480 C   0  0  0  0  0  0  0  0  0  0  0  0
    4.2640   68.9070   63.8380 C   0  0  0  0  0  0  0  0  0  0  0  0
    2.9910   68.8200   64.4180 C   0  0  0  0  0  0  0  0  0  0  0  0
    1.8750   68.7390   63.5760 C   0  0  0  0  0  0  0  0  0  0  0  0
    2.0330   68.7340   62.1860 C   0  0  0  0  0  0  0  0  0  0  0  0
    3.4480   68.8770   60.2220 N   0  0  0  0  0  0  0  0  0  0  0  0
    3.9410   69.4990   66.6780 C   0  0  0  0  0  0  0  0  0  0  0  0
    5.2300   69.5820   66.1350 C   0  0  0  0  0  0  0  0  0  0  0  0
    6.2580   70.2190   66.8370 C   0  0  0  0  0  0  0  0  0  0  0  0
    6.0130   70.8270   68.0690 C   0  0  0  0  0  0  0  0  0  0  0  0
    4.7430   70.6950   68.6360 C   0  0  0  0  0  0  0  0  0  0  0  0
    3.7110   70.0580   67.9410 C   0  0  0  0  0  0  0  0  0  0  0  0
    7.0680   71.3590   68.8180 N   0  0  0  0  0  0  0  0  0  0  0  0
    1.8822   69.3325   66.1625 H   0  0  0  0  0  0  0  0  0  0  0  0
    2.8317   67.7637   66.2346 H   0  0  0  0  0  0  0  0  0  0  0  0
    5.4144   69.0142   62.0086 H   0  0  0  0  0  0  0  0  0  0  0  0
    5.1533   68.9782   64.4815 H   0  0  0  0  0  0  0  0  0  0  0  0
    0.8664   68.6788   64.0109 H   0  0  0  0  0  0  0  0  0  0  0  0
    1.1441   68.7069   61.5386 H   0  0  0  0  0  0  0  0  0  0  0  0
    2.6272   68.7721   59.6087 H   0  0  0  0  0  0  0  0  0  0  0  0
    4.3748   69.0658   59.8142 H   0  0  0  0  0  0  0  0  0  0  0  0
    5.4351   69.1422   65.1478 H   0  0  0  0  0  0  0  0  0  0  0  0
    7.2727   70.2411   66.4127 H   0  0  0  0  0  0  0  0  0  0  0  0
    4.5528   71.0974   69.6419 H   0  0  0  0  0  0  0  0  0  0  0  0
    2.7090   69.9953   68.3904 H   0  0  0  0  0  0  0  0  0  0  0  0
    6.8803   71.8064   69.7266 H   0  0  0  0  0  0  0  0  0  0  0  0
    8.0325   71.3033   68.4609 H   0  0  0  0  0  0  0  0  0  0  0  0
  3  2  2  0
  4  3  1  0
  5  4  2  0
  5  1  1  0
  6  5  1  0
  7  6  2  0
  7  2  1  0
  8  2  1  0
  9  1  1  0
 10  9  2  0
 11 10  1  0
 12 11  2  0
 13 12  1  0
 14 13  2  0
 14  9  1  0
 15 12  1  0
  1 16  1  0
  1 17  1  0
  3 18  1  0
  4 19  1  0
  6 20  1  0
  7 21  1  0
  8 22  1  0
  8 23  1  0
 10 24  1  0
 11 25  1  0
 13 26  1  0
 14 27  1  0
 15 28  1  0
 15 29  1  0
M  END
>  <score>  (1) 
-9.284

$$$$
=
     RDKit          3D

 29 30  0  0  0  0  0  0  0  0999 V2000
    2.8590   68.7870   65.9690 C   0  0  0  0  0  0  0  0  0  0  0  0
    6.0330   70.8420   68.0950 C   0  0  0  0  0  0  0  0  0  0  0  0
    6.2730   70.2590   66.8490 C   0  0  0  0  0  0  0  0  0  0  0  0
    5.2490   69.6080   66.1540 C   0  0  0  0  0  0  0  0  0  0  0  0
    3.9720   69.4850   66.7180 C   0  0  0  0  0  0  0  0  0  0  0  0
    3.7490   70.0180   67.9930 C   0  0  0  0  0  0  0  0  0  0  0  0
    4.7780   70.6700   68.6810 C   0  0  0  0  0  0  0  0  0  0  0  0
    7.0890   71.3890   68.8340 N   0  0  0  0  0  0  0  0  0  0  0  0
    3.0060   68.8060   64.4640 C   0  0  0  0  0  0  0  0  0  0  0  0
    4.2710   68.9060   63.8680 C   0  0  0  0  0  0  0  0  0  0  0  0
    4.4010   68.9160   62.4760 C   0  0  0  0  0  0  0  0  0  0  0  0
    3.2830   68.7790   61.6520 C   0  0  0  0  0  0  0  0  0  0  0  0
    2.0190   68.7360   62.2450 C   0  0  0  0  0  0  0  0  0  0  0  0
    1.8810   68.7270   63.6360 C   0  0  0  0  0  0  0  0  0  0  0  0
    3.4080   68.9070   60.2640 N   0  0  0  0  0  0  0  0  0  0  0  0
    2.8293   67.7377   66.2978 H   0  0  0  0  0  0  0  0  0  0  0  0
    1.9347   69.3371   66.1994 H   0  0  0  0  0  0  0  0  0  0  0  0
    7.2797   70.3125   66.4089 H   0  0  0  0  0  0  0  0  0  0  0  0
    5.4474   69.1890   65.1565 H   0  0  0  0  0  0  0  0  0  0  0  0
    2.7565   69.9234   68.4578 H   0  0  0  0  0  0  0  0  0  0  0  0
    4.5957   71.0518   69.6964 H   0  0  0  0  0  0  0  0  0  0  0  0
    6.9069   71.8179   69.7526 H   0  0  0  0  0  0  0  0  0  0  0  0
    8.0480   71.3625   68.4591 H   0  0  0  0  0  0  0  0  0  0  0  0
    5.1682   68.9771   64.5004 H   0  0  0  0  0  0  0  0  0  0  0  0
    5.3972   69.0333   62.0245 H   0  0  0  0  0  0  0  0  0  0  0  0
    1.1214   68.7089   61.6097 H   0  0  0  0  0  0  0  0  0  0  0  0
    0.8787   68.6572   64.0837 H   0  0  0  0  0  0  0  0  0  0  0  0
    2.5794   68.8049   59.6607 H   0  0  0  0  0  0  0  0  0  0  0  0
    4.3286   69.1033   59.8457 H   0  0  0  0  0  0  0  0  0  0  0  0
  3  2  2  0
  4  3  1  0
  5  4  2  0
  5  1  1  0
  6  5  1  0
  7  6  2  0
  7  2  1  0
  8  2  1  0
  9  1  1  0
 10  9  2  0
 11 10  1  0
 12 11  2  0
 13 12  1  0
 14 13  2  0
 14  9  1  0
 15 12  1  0
  1 16  1  0
  1 17  1  0
  3 18  1  0
  4 19  1  0
  6 20  1  0
  7 21  1  0
  8 22  1  0
  8 23  1  0
 10 24  1  0
 11 25  1  0
 13 26  1  0
 14 27  1  0
 15 28  1  0
 15 29  1  0
M  END
>  <score>  (2) 
-9.28

$$$$
=
     RDKit          3D

 29 30  0  0  0  0  0  0  0  0999 V2000
    2.2780   69.4870   68.0060 C   0  0  0  0  0  0  0  0  0  0  0  0
   -1.5400   67.5510   67.3040 C   0  0  0  0  0  0  0  0  0  0  0  0
   -1.3240   68.8670   66.8910 C   0  0  0  0  0  0  0  0  0  0  0  0
   -0.0900   69.4900   67.1030 C   0  0  0  0  0  0  0  0  0  0  0  0
    0.9390   68.8210   67.7790 C   0  0  0  0  0  0  0  0  0  0  0  0
    0.7000   67.5220   68.2450 C   0  0  0  0  0  0  0  0  0  0  0  0
   -0.5360   66.9050   68.0260 C   0  0  0  0  0  0  0  0  0  0  0  0
   -2.8120   66.9760   67.1920 N   0  0  0  0  0  0  0  0  0  0  0  0
    3.2150   69.4320   66.8220 C   0  0  0  0  0  0  0  0  0  0  0  0
    2.7700   68.9730   65.5740 C   0  0  0  0  0  0  0  0  0  0  0  0
    3.6400   68.9310   64.4800 C   0  0  0  0  0  0  0  0  0  0  0  0
    4.9540   69.3880   64.5940 C   0  0  0  0  0  0  0  0  0  0  0  0
    5.4140   69.7910   65.8500 C   0  0  0  0  0  0  0  0  0  0  0  0
    4.5500   69.8350   66.9490 C   0  0  0  0  0  0  0  0  0  0  0  0
    5.8510   69.2340   63.5300 N   0  0  0  0  0  0  0  0  0  0  0  0
    2.0984   70.5438   68.2530 H   0  0  0  0  0  0  0  0  0  0  0  0
    2.7690   68.9321   68.8190 H   0  0  0  0  0  0  0  0  0  0  0  0
   -2.1339   69.4203   66.3930 H   0  0  0  0  0  0  0  0  0  0  0  0
    0.0742   70.5139   66.7360 H   0  0  0  0  0  0  0  0  0  0  0  0
    1.4906   66.9828   68.7875 H   0  0  0  0  0  0  0  0  0  0  0  0
   -0.7188   65.8976   68.4281 H   0  0  0  0  0  0  0  0  0  0  0  0
   -2.9669   66.0048   67.4979 H   0  0  0  0  0  0  0  0  0  0  0  0
   -3.5927   67.5243   66.8037 H   0  0  0  0  0  0  0  0  0  0  0  0
    1.7275   68.6431   65.4545 H   0  0  0  0  0  0  0  0  0  0  0  0
    3.2846   68.5331   63.5181 H   0  0  0  0  0  0  0  0  0  0  0  0
    6.4686   70.0772   65.9762 H   0  0  0  0  0  0  0  0  0  0  0  0
    4.9224   70.1893   67.9215 H   0  0  0  0  0  0  0  0  0  0  0  0
    6.8194   69.5731   63.6196 H   0  0  0  0  0  0  0  0  0  0  0  0
    5.5424   68.7816   62.6576 H   0  0  0  0  0  0  0  0  0  0  0  0
  3  2  2  0
  4  3  1  0
  5  4  2  0
  5  1  1  0
  6  5  1  0
  7  6  2  0
  7  2  1  0
  8  2  1  0
  9  1  1  0
 10  9  2  0
 11 10  1  0
 12 11  2  0
 13 12  1  0
 14 13  2  0
 14  9  1  0
 15 12  1  0
  1 16  1  0
  1 17  1  0
  3 18  1  0
  4 19  1  0
  6 20  1  0
  7 21  1  0
  8 22  1  0
  8 23  1  0
 10 24  1  0
 11 25  1  0
 13 26  1  0
 14 27  1  0
 15 28  1  0
 15 29  1  0
M  END
>  <score>  (3) 
-9.255

$$$$
=
     RDKit          3D

 29 30  0  0  0  0  0  0  0  0999 V2000
    2.2760   69.5000   68.0600 C   0  0  0  0  0  0  0  0  0  0  0  0
    4.9660   69.4530   64.6570 C   0  0  0  0  0  0  0  0  0  0  0  0
    3.6490   69.0080   64.5290 C   0  0  0  0  0  0  0  0  0  0  0  0
    2.7750   69.0350   65.6200 C   0  0  0  0  0  0  0  0  0  0  0  0
    3.2190   69.4630   66.8780 C   0  0  0  0  0  0  0  0  0  0  0  0
    4.5560   69.8530   67.0190 C   0  0  0  0  0  0  0  0  0  0  0  0
    5.4240   69.8260   65.9210 C   0  0  0  0  0  0  0  0  0  0  0  0
    5.8650   69.3140   63.5930 N   0  0  0  0  0  0  0  0  0  0  0  0
    0.9580   68.7950   67.8350 C   0  0  0  0  0  0  0  0  0  0  0  0
   -0.0900   69.4320   67.1570 C   0  0  0  0  0  0  0  0  0  0  0  0
   -1.3050   68.7720   66.9460 C   0  0  0  0  0  0  0  0  0  0  0  0
   -1.4830   67.4520   67.3620 C   0  0  0  0  0  0  0  0  0  0  0  0
   -0.4590   66.8370   68.0870 C   0  0  0  0  0  0  0  0  0  0  0  0
    0.7580   67.4920   68.3030 C   0  0  0  0  0  0  0  0  0  0  0  0
   -2.7360   66.8390   67.2520 N   0  0  0  0  0  0  0  0  0  0  0  0
    2.7784   69.0238   68.9149 H   0  0  0  0  0  0  0  0  0  0  0  0
    2.0372   70.5593   68.2356 H   0  0  0  0  0  0  0  0  0  0  0  0
    3.2946   68.6316   63.5581 H   0  0  0  0  0  0  0  0  0  0  0  0
    1.7299   68.7175   65.4895 H   0  0  0  0  0  0  0  0  0  0  0  0
    4.9275   70.1833   68.0003 H   0  0  0  0  0  0  0  0  0  0  0  0
    6.4801   70.1023   66.0565 H   0  0  0  0  0  0  0  0  0  0  0  0
    6.8356   69.6439   63.6925 H   0  0  0  0  0  0  0  0  0  0  0  0
    5.5558   68.8818   62.7107 H   0  0  0  0  0  0  0  0  0  0  0  0
    0.0440   70.4595   66.7877 H   0  0  0  0  0  0  0  0  0  0  0  0
   -2.1304   69.3000   66.4460 H   0  0  0  0  0  0  0  0  0  0  0  0
   -0.6117   65.8260   68.4926 H   0  0  0  0  0  0  0  0  0  0  0  0
    1.5649   66.9779   68.8457 H   0  0  0  0  0  0  0  0  0  0  0  0
   -2.8614   65.8644   67.5607 H   0  0  0  0  0  0  0  0  0  0  0  0
   -3.5329   67.3624   66.8623 H   0  0  0  0  0  0  0  0  0  0  0  0
  3  2  2  0
  4  3  1  0
  5  4  2  0
  5  1  1  0
  6  5  1  0
  7  6  2  0
  7  2  1  0
  8  2  1  0
  9  1  1  0
 10  9  2  0
 11 10  1  0
 12 11  2  0
 13 12  1  0
 14 13  2  0
 14  9  1  0
 15 12  1  0
  1 16  1  0
  1 17  1  0
  3 18  1  0
  4 19  1  0
  6 20  1  0
  7 21  1  0
  8 22  1  0
  8 23  1  0
 10 24  1  0
 11 25  1  0
 13 26  1  0
 14 27  1  0
 15 28  1  0
 15 29  1  0
M  END
>  <score>  (4) 
-9.236

$$$$
=
     RDKit          3D

 29 30  0  0  0  0  0  0  0  0999 V2000
    2.5900   68.7480   64.8610 C   0  0  0  0  0  0  0  0  0  0  0  0
    4.0340   70.3260   68.6350 C   0  0  0  0  0  0  0  0  0  0  0  0
    4.8990   70.1760   67.5500 C   0  0  0  0  0  0  0  0  0  0  0  0
    4.4350   69.6820   66.3280 C   0  0  0  0  0  0  0  0  0  0  0  0
    3.1000   69.2790   66.1830 C   0  0  0  0  0  0  0  0  0  0  0  0
    2.2480   69.3740   67.2900 C   0  0  0  0  0  0  0  0  0  0  0  0
    2.7200   69.8730   68.5090 C   0  0  0  0  0  0  0  0  0  0  0  0
    4.5300   70.7120   69.8860 N   0  0  0  0  0  0  0  0  0  0  0  0
    3.1470   67.3980   64.4700 C   0  0  0  0  0  0  0  0  0  0  0  0
    2.7100   66.2300   65.1080 C   0  0  0  0  0  0  0  0  0  0  0  0
    3.2230   64.9830   64.7370 C   0  0  0  0  0  0  0  0  0  0  0  0
    4.1440   64.8700   63.6940 C   0  0  0  0  0  0  0  0  0  0  0  0
    4.6210   66.0390   63.0960 C   0  0  0  0  0  0  0  0  0  0  0  0
    4.1130   67.2890   63.4640 C   0  0  0  0  0  0  0  0  0  0  0  0
    4.7400   63.6370   63.4070 N   0  0  0  0  0  0  0  0  0  0  0  0
    1.4952   68.6625   64.9246 H   0  0  0  0  0  0  0  0  0  0  0  0
    2.9222   69.4585   64.0897 H   0  0  0  0  0  0  0  0  0  0  0  0
    5.9588   70.4500   67.6581 H   0  0  0  0  0  0  0  0  0  0  0  0
    5.1229   69.6087   65.4727 H   0  0  0  0  0  0  0  0  0  0  0  0
    1.1994   69.0539   67.2007 H   0  0  0  0  0  0  0  0  0  0  0  0
    2.0472   69.9087   69.3786 H   0  0  0  0  0  0  0  0  0  0  0  0
    3.8873   70.8213   70.6834 H   0  0  0  0  0  0  0  0  0  0  0  0
    5.5376   70.8867   70.0089 H   0  0  0  0  0  0  0  0  0  0  0  0
    1.9571   66.2942   65.9074 H   0  0  0  0  0  0  0  0  0  0  0  0
    2.8967   64.0800   65.2737 H   0  0  0  0  0  0  0  0  0  0  0  0
    5.4050   65.9756   62.3270 H   0  0  0  0  0  0  0  0  0  0  0  0
    4.4765   68.1952   62.9575 H   0  0  0  0  0  0  0  0  0  0  0  0
    5.4188   63.5601   62.6361 H   0  0  0  0  0  0  0  0  0  0  0  0
    4.4999   62.8063   63.9666 H   0  0  0  0  0  0  0  0  0  0  0  0
  3  2  2  0
  4  3  1  0
  5  4  2  0
  5  1  1  0
  6  5  1  0
  7  6  2  0
  7  2  1  0
  8  2  1  0
  9  1  1  0
 10  9  2  0
 11 10  1  0
 12 11  2  0
 13 12  1  0
 14 13  2  0
 14  9  1  0
 15 12  1  0
  1 16  1  0
  1 17  1  0
  3 18  1  0
  4 19  1  0
  6 20  1  0
  7 21  1  0
  8 22  1  0
  8 23  1  0
 10 24  1  0
 11 25  1  0
 13 26  1  0
 14 27  1  0
 15 28  1  0
 15 29  1  0
M  END
>  <score>  (5) 
-9.234

$$$$
=
     RDKit          3D

 29 30  0  0  0  0  0  0  0  0999 V2000
    2.6530   68.6040   64.7100 C   0  0  0  0  0  0  0  0  0  0  0  0
    4.2780   64.6820   63.8140 C   0  0  0  0  0  0  0  0  0  0  0  0
    4.7180   65.8100   63.1180 C   0  0  0  0  0  0  0  0  0  0  0  0
    4.2070   67.0780   63.4130 C   0  0  0  0  0  0  0  0  0  0  0  0
    3.2060   67.2340   64.3810 C   0  0  0  0  0  0  0  0  0  0  0  0
    2.7240   66.0950   65.0370 C   0  0  0  0  0  0  0  0  0  0  0  0
    3.2430   64.8300   64.7370 C   0  0  0  0  0  0  0  0  0  0  0  0
    4.7090   63.4060   63.4340 N   0  0  0  0  0  0  0  0  0  0  0  0
    3.0920   69.1540   66.0470 C   0  0  0  0  0  0  0  0  0  0  0  0
    4.4110   69.5830   66.2490 C   0  0  0  0  0  0  0  0  0  0  0  0
    4.8090   70.0980   67.4870 C   0  0  0  0  0  0  0  0  0  0  0  0
    3.8940   70.2380   68.5310 C   0  0  0  0  0  0  0  0  0  0  0  0
    2.5950   69.7580   68.3480 C   0  0  0  0  0  0  0  0  0  0  0  0
    2.1900   69.2410   67.1140 C   0  0  0  0  0  0  0  0  0  0  0  0
    4.3240   70.6430   69.8000 N   0  0  0  0  0  0  0  0  0  0  0  0
    2.9805   69.3035   63.9268 H   0  0  0  0  0  0  0  0  0  0  0  0
    1.5596   68.4953   64.7610 H   0  0  0  0  0  0  0  0  0  0  0  0
    5.4757   65.6998   62.3282 H   0  0  0  0  0  0  0  0  0  0  0  0
    4.5939   67.9596   62.8810 H   0  0  0  0  0  0  0  0  0  0  0  0
    1.9318   66.1948   65.7936 H   0  0  0  0  0  0  0  0  0  0  0  0
    2.8291   63.9412   65.2357 H   0  0  0  0  0  0  0  0  0  0  0  0
    4.3819   62.5769   63.9503 H   0  0  0  0  0  0  0  0  0  0  0  0
    5.3534   63.2959   62.6380 H   0  0  0  0  0  0  0  0  0  0  0  0
    5.1390   69.5141   65.4273 H   0  0  0  0  0  0  0  0  0  0  0  0
    5.8567   70.3964   67.6395 H   0  0  0  0  0  0  0  0  0  0  0  0
    1.8821   69.7872   69.1852 H   0  0  0  0  0  0  0  0  0  0  0  0
    1.1530   68.8994   66.9802 H   0  0  0  0  0  0  0  0  0  0  0  0
    3.6433   70.7444   70.5663 H   0  0  0  0  0  0  0  0  0  0  0  0
    5.3211   70.8396   69.9674 H   0  0  0  0  0  0  0  0  0  0  0  0
  3  2  2  0
  4  3  1  0
  5  4  2  0
  5  1  1  0
  6  5  1  0
  7  6  2  0
  7  2  1  0
  8  2  1  0
  9  1  1  0
 10  9  2  0
 11 10  1  0
 12 11  2  0
 13 12  1  0
 14 13  2  0
 14  9  1  0
 15 12  1  0
  1 16  1  0
  1 17  1  0
  3 18  1  0
  4 19  1  0
  6 20  1  0
  7 21  1  0
  8 22  1  0
  8 23  1  0
 10 24  1  0
 11 25  1  0
 13 26  1  0
 14 27  1  0
 15 28  1  0
 15 29  1  0
M  END
>  <score>  (6) 
-9.22

$$$$
=
     RDKit          3D

 29 30  0  0  0  0  0  0  0  0999 V2000
    2.7230   67.7330   65.2370 C   0  0  0  0  0  0  0  0  0  0  0  0
    5.0410   70.6210   67.4970 C   0  0  0  0  0  0  0  0  0  0  0  0
    5.5560   70.0520   66.3300 C   0  0  0  0  0  0  0  0  0  0  0  0
    4.8060   69.1320   65.5920 C   0  0  0  0  0  0  0  0  0  0  0  0
    3.5410   68.7240   66.0350 C   0  0  0  0  0  0  0  0  0  0  0  0
    3.0510   69.2500   67.2360 C   0  0  0  0  0  0  0  0  0  0  0  0
    3.8060   70.1730   67.9680 C   0  0  0  0  0  0  0  0  0  0  0  0
    5.8410   71.4510   68.2910 N   0  0  0  0  0  0  0  0  0  0  0  0
    2.1040   68.2980   63.9800 C   0  0  0  0  0  0  0  0  0  0  0  0
    0.7890   68.7820   63.9820 C   0  0  0  0  0  0  0  0  0  0  0  0
    0.2230   69.3110   62.8180 C   0  0  0  0  0  0  0  0  0  0  0  0
    0.9700   69.4120   61.6430 C   0  0  0  0  0  0  0  0  0  0  0  0
    2.2610   68.8780   61.6250 C   0  0  0  0  0  0  0  0  0  0  0  0
    2.8320   68.3470   62.7850 C   0  0  0  0  0  0  0  0  0  0  0  0
    0.3630   69.8320   60.4530 N   0  0  0  0  0  0  0  0  0  0  0  0
    3.3791   66.8976   64.9511 H   0  0  0  0  0  0  0  0  0  0  0  0
    1.8889   67.4238   65.8841 H   0  0  0  0  0  0  0  0  0  0  0  0
    6.5635   70.3312   65.9878 H   0  0  0  0  0  0  0  0  0  0  0  0
    5.2127   68.7245   64.6547 H   0  0  0  0  0  0  0  0  0  0  0  0
    2.0646   68.9353   67.6073 H   0  0  0  0  0  0  0  0  0  0  0  0
    3.4212   70.5503   68.9269 H   0  0  0  0  0  0  0  0  0  0  0  0
    5.4562   71.8680   69.1506 H   0  0  0  0  0  0  0  0  0  0  0  0
    6.8144   71.6447   68.0156 H   0  0  0  0  0  0  0  0  0  0  0  0
    0.1964   68.7454   64.9080 H   0  0  0  0  0  0  0  0  0  0  0  0
   -0.8229   69.6515   62.8283 H   0  0  0  0  0  0  0  0  0  0  0  0
    2.8349   68.8755   60.6866 H   0  0  0  0  0  0  0  0  0  0  0  0
    3.8629   67.9641   62.7588 H   0  0  0  0  0  0  0  0  0  0  0  0
    0.9190   69.9047   59.5890 H   0  0  0  0  0  0  0  0  0  0  0  0
   -0.6395   70.0682   60.4417 H   0  0  0  0  0  0  0  0  0  0  0  0
  3  2  2  0
  4  3  1  0
  5  4  2  0
  5  1  1  0
  6  5  1  0
  7  6  2  0
  7  2  1  0
  8  2  1  0
  9  1  1  0
 10  9  2  0
 11 10  1  0
 12 11  2  0
 13 12  1  0
 14 13  2  0
 14  9  1  0
 15 12  1  0
  1 16  1  0
  1 17  1  0
  3 18  1  0
  4 19  1  0
  6 20  1  0
  7 21  1  0
  8 22  1  0
  8 23  1  0
 10 24  1  0
 11 25  1  0
 13 26  1  0
 14 27  1  0
 15 28  1  0
 15 29  1  0
M  END
>  <score>  (7) 
-8.91

$$$$
=
     RDKit          3D

 29 30  0  0  0  0  0  0  0  0999 V2000
    0.3910   66.0980   70.6510 C   0  0  0  0  0  0  0  0  0  0  0  0
    2.3490   62.2290   70.7900 C   0  0  0  0  0  0  0  0  0  0  0  0
    3.0390   63.3600   70.3470 C   0  0  0  0  0  0  0  0  0  0  0  0
    2.4160   64.6110   70.3140 C   0  0  0  0  0  0  0  0  0  0  0  0
    1.0690   64.7460   70.6790 C   0  0  0  0  0  0  0  0  0  0  0  0
    0.3630   63.6010   71.0670 C   0  0  0  0  0  0  0  0  0  0  0  0
    0.9940   62.3530   71.1000 C   0  0  0  0  0  0  0  0  0  0  0  0
    2.9430   60.9640   70.7110 N   0  0  0  0  0  0  0  0  0  0  0  0
    0.1770   66.6640   69.2660 C   0  0  0  0  0  0  0  0  0  0  0  0
    1.1870   67.3920   68.6240 C   0  0  0  0  0  0  0  0  0  0  0  0
    0.9860   67.9070   67.3400 C   0  0  0  0  0  0  0  0  0  0  0  0
   -0.2060   67.6690   66.6520 C   0  0  0  0  0  0  0  0  0  0  0  0
   -1.2330   66.9920   67.3140 C   0  0  0  0  0  0  0  0  0  0  0  0
   -1.0390   66.4750   68.5990 C   0  0  0  0  0  0  0  0  0  0  0  0
   -0.4460   68.2840   65.4180 N   0  0  0  0  0  0  0  0  0  0  0  0
   -0.5907   66.0000   71.1374 H   0  0  0  0  0  0  0  0  0  0  0  0
    1.0626   66.7953   71.1733 H   0  0  0  0  0  0  0  0  0  0  0  0
    4.0850   63.2651   70.0202 H   0  0  0  0  0  0  0  0  0  0  0  0
    2.9872   65.4967   69.9991 H   0  0  0  0  0  0  0  0  0  0  0  0
   -0.6972   63.6835   71.3484 H   0  0  0  0  0  0  0  0  0  0  0  0
    0.4151   61.4585   71.3736 H   0  0  0  0  0  0  0  0  0  0  0  0
    2.4304   60.1330   71.0389 H   0  0  0  0  0  0  0  0  0  0  0  0
    3.8927   60.8642   70.3250 H   0  0  0  0  0  0  0  0  0  0  0  0
    2.1467   67.5599   69.1347 H   0  0  0  0  0  0  0  0  0  0  0  0
    1.7764   68.5071   66.8656 H   0  0  0  0  0  0  0  0  0  0  0  0
   -2.2066   66.8639   66.8184 H   0  0  0  0  0  0  0  0  0  0  0  0
   -1.8489   65.9151   69.0896 H   0  0  0  0  0  0  0  0  0  0  0  0
   -1.3271   68.1043   64.9157 H   0  0  0  0  0  0  0  0  0  0  0  0
    0.2585   68.9163   65.0121 H   0  0  0  0  0  0  0  0  0  0  0  0
  3  2  2  0
  4  3  1  0
  5  4  2  0
  5  1  1  0
  6  5  1  0
  7  6  2  0
  7  2  1  0
  8  2  1  0
  9  1  1  0
 10  9  2  0
 11 10  1  0
 12 11  2  0
 13 12  1  0
 14 13  2  0
 14  9  1  0
 15 12  1  0
  1 16  1  0
  1 17  1  0
  3 18  1  0
  4 19  1  0
  6 20  1  0
  7 21  1  0
  8 22  1  0
  8 23  1  0
 10 24  1  0
 11 25  1  0
 13 26  1  0
 14 27  1  0
 15 28  1  0
 15 29  1  0
M  END
>  <score>  (8) 
-8.017

$$$$
=
     RDKit          3D

 29 30  0  0  0  0  0  0  0  0999 V2000
    0.3550   66.0880   70.6430 C   0  0  0  0  0  0  0  0  0  0  0  0
   -0.2140   67.6970   66.6550 C   0  0  0  0  0  0  0  0  0  0  0  0
    0.9630   67.9500   67.3630 C   0  0  0  0  0  0  0  0  0  0  0  0
    1.1560   67.4210   68.6430 C   0  0  0  0  0  0  0  0  0  0  0  0
    0.1500   66.6670   69.2610 C   0  0  0  0  0  0  0  0  0  0  0  0
   -1.0530   66.4640   68.5740 C   0  0  0  0  0  0  0  0  0  0  0  0
   -1.2370   66.9940   67.2930 C   0  0  0  0  0  0  0  0  0  0  0  0
   -0.4470   68.3240   65.4250 N   0  0  0  0  0  0  0  0  0  0  0  0
    1.0660   64.7540   70.6660 C   0  0  0  0  0  0  0  0  0  0  0  0
    2.4120   64.6510   70.2900 C   0  0  0  0  0  0  0  0  0  0  0  0
    3.0660   63.4150   70.3200 C   0  0  0  0  0  0  0  0  0  0  0  0
    2.4080   62.2690   70.7670 C   0  0  0  0  0  0  0  0  0  0  0  0
    1.0510   62.3600   71.0870 C   0  0  0  0  0  0  0  0  0  0  0  0
    0.3910   63.5920   71.0590 C   0  0  0  0  0  0  0  0  0  0  0  0
    3.0300   61.0180   70.6830 N   0  0  0  0  0  0  0  0  0  0  0  0
    0.9488   66.8037   71.2305 H   0  0  0  0  0  0  0  0  0  0  0  0
   -0.6477   65.9147   71.0609 H   0  0  0  0  0  0  0  0  0  0  0  0
    1.7475   68.5728   66.9084 H   0  0  0  0  0  0  0  0  0  0  0  0
    2.1057   67.5984   69.1690 H   0  0  0  0  0  0  0  0  0  0  0  0
   -1.8595   65.8832   69.0454 H   0  0  0  0  0  0  0  0  0  0  0  0
   -2.2008   66.8549   66.7815 H   0  0  0  0  0  0  0  0  0  0  0  0
   -1.3166   68.1341   64.9067 H   0  0  0  0  0  0  0  0  0  0  0  0
    0.2512   68.9752   65.0384 H   0  0  0  0  0  0  0  0  0  0  0  0
    2.9588   65.5497   69.9686 H   0  0  0  0  0  0  0  0  0  0  0  0
    4.1121   63.3457   69.9870 H   0  0  0  0  0  0  0  0  0  0  0  0
    0.4956   61.4518   71.3641 H   0  0  0  0  0  0  0  0  0  0  0  0
   -0.6687   63.6490   71.3485 H   0  0  0  0  0  0  0  0  0  0  0  0
    2.5391   60.1755   71.0147 H   0  0  0  0  0  0  0  0  0  0  0  0
    3.9787   60.9399   70.2895 H   0  0  0  0  0  0  0  0  0  0  0  0
  3  2  2  0
  4  3  1  0
  5  4  2  0
  5  1  1  0
  6  5  1  0
  7  6  2  0
  7  2  1  0
  8  2  1  0
  9  1  1  0
 10  9  2  0
 11 10  1  0
 12 11  2  0
 13 12  1  0
 14 13  2  0
 14  9  1  0
 15 12  1  0
  1 16  1  0
  1 17  1  0
  3 18  1  0
  4 19  1  0
  6 20  1  0
  7 21  1  0
  8 22  1  0
  8 23  1  0
 10 24  1  0
 11 25  1  0
 13 26  1  0
 14 27  1  0
 15 28  1  0
 15 29  1  0
M  END
>  <score>  (9) 
-8.007

$$$$
