=
     RDKit          3D

 30 32  0  0  0  0  0  0  0  0999 V2000
    1.5100   66.8280   67.4370 N   0  0  0  0  0  0  0  0  0  0  0  0
    0.9750   67.2870   66.2630 C   0  0  0  0  0  0  0  0  0  0  0  0
   -0.1530   66.8950   65.9730 O   0  0  0  0  0  0  0  0  0  0  0  0
    1.8220   68.0840   65.4840 N   0  0  0  0  0  0  0  0  0  0  0  0
    1.3930   68.5520   64.1900 C   0  0  0  0  0  0  0  0  0  0  0  0
    0.0580   68.9630   64.0070 C   0  0  0  0  0  0  0  0  0  0  0  0
   -0.4000   69.4280   62.7720 C   0  0  0  0  0  0  0  0  0  0  0  0
    0.4660   69.4850   61.6890 C   0  0  0  0  0  0  0  0  0  0  0  0
    1.7870   69.0710   61.8430 C   0  0  0  0  0  0  0  0  0  0  0  0
    2.2660   68.6100   63.0840 C   0  0  0  0  0  0  0  0  0  0  0  0
    3.6390   68.0950   63.1070 C   0  0  0  0  0  0  0  0  0  0  0  0
    4.4900   68.2250   64.1300 C   0  0  0  0  0  0  0  0  0  0  0  0
    4.1790   68.9110   65.3870 C   0  0  0  0  0  0  0  0  0  0  0  0
    2.9350   68.8100   66.0400 C   0  0  0  0  0  0  0  0  0  0  0  0
    2.7770   69.4550   67.2840 C   0  0  0  0  0  0  0  0  0  0  0  0
    3.8220   70.1670   67.8740 C   0  0  0  0  0  0  0  0  0  0  0  0
    5.0500   70.2480   67.2320 C   0  0  0  0  0  0  0  0  0  0  0  0
    5.2280   69.6200   66.0000 C   0  0  0  0  0  0  0  0  0  0  0  0
    2.4526   67.1271   67.7251 H   0  0  0  0  0  0  0  0  0  0  0  0
    0.9698   66.1837   68.0319 H   0  0  0  0  0  0  0  0  0  0  0  0
   -0.6397   68.9167   64.8561 H   0  0  0  0  0  0  0  0  0  0  0  0
   -1.4460   69.7487   62.6580 H   0  0  0  0  0  0  0  0  0  0  0  0
    0.1115   69.8547   60.7155 H   0  0  0  0  0  0  0  0  0  0  0  0
    2.4680   69.1048   60.9798 H   0  0  0  0  0  0  0  0  0  0  0  0
    3.9960   67.5608   62.2142 H   0  0  0  0  0  0  0  0  0  0  0  0
    5.4929   67.7867   64.0205 H   0  0  0  0  0  0  0  0  0  0  0  0
    1.8079   69.3955   67.8010 H   0  0  0  0  0  0  0  0  0  0  0  0
    3.6731   70.6625   68.8447 H   0  0  0  0  0  0  0  0  0  0  0  0
    5.8789   70.8051   67.6931 H   0  0  0  0  0  0  0  0  0  0  0  0
    6.2054   69.6800   65.4988 H   0  0  0  0  0  0  0  0  0  0  0  0
  2  1  1  0
  3  2  2  0
  4  2  1  0
  5  4  1  0
  6  5  2  0
  7  6  1  0
  8  7  2  0
  9  8  1  0
 10  9  2  0
 10  5  1  0
 11 10  1  0
 12 11  2  0
 13 12  1  0
 14 13  2  0
 14  4  1  0
 15 14  1  0
 16 15  2  0
 17 16  1  0
 18 13  1  0
 18 17  2  0
  1 19  1  0
  1 20  1  0
  6 21  1  0
  7 22  1  0
  8 23  1  0
  9 24  1  0
 11 25  1  0
 12 26  1  0
 15 27  1  0
 16 28  1  0
 17 29  1  0
 18 30  1  0
M  END
>  <score>  (1) 
-10.801

$$$$
=
     RDKit          3D

 30 32  0  0  0  0  0  0  0  0999 V2000
    0.4910   67.9170   64.6330 N   0  0  0  0  0  0  0  0  0  0  0  0
    1.2910   68.6300   65.4840 C   0  0  0  0  0  0  0  0  0  0  0  0
    0.7380   69.4440   66.2190 O   0  0  0  0  0  0  0  0  0  0  0  0
    2.6670   68.4090   65.3490 N   0  0  0  0  0  0  0  0  0  0  0  0
    3.6070   69.1680   66.1340 C   0  0  0  0  0  0  0  0  0  0  0  0
    3.3080   69.4680   67.4780 C   0  0  0  0  0  0  0  0  0  0  0  0
    4.1900   70.1960   68.2780 C   0  0  0  0  0  0  0  0  0  0  0  0
    5.3910   70.6490   67.7490 C   0  0  0  0  0  0  0  0  0  0  0  0
    5.7030   70.3760   66.4190 C   0  0  0  0  0  0  0  0  0  0  0  0
    4.8270   69.6340   65.6030 C   0  0  0  0  0  0  0  0  0  0  0  0
    5.2000   69.5000   64.1910 C   0  0  0  0  0  0  0  0  0  0  0  0
    4.9720   68.4210   63.4360 C   0  0  0  0  0  0  0  0  0  0  0  0
    4.3150   67.2000   63.9100 C   0  0  0  0  0  0  0  0  0  0  0  0
    3.2070   67.2010   64.7790 C   0  0  0  0  0  0  0  0  0  0  0  0
    2.6120   65.9660   65.1060 C   0  0  0  0  0  0  0  0  0  0  0  0
    3.0880   64.7640   64.5790 C   0  0  0  0  0  0  0  0  0  0  0  0
    4.1700   64.7730   63.7110 C   0  0  0  0  0  0  0  0  0  0  0  0
    4.7760   65.9830   63.3750 C   0  0  0  0  0  0  0  0  0  0  0  0
    0.9066   67.2221   63.9964 H   0  0  0  0  0  0  0  0  0  0  0  0
   -0.5268   68.0753   64.6291 H   0  0  0  0  0  0  0  0  0  0  0  0
    2.3567   69.1201   67.9069 H   0  0  0  0  0  0  0  0  0  0  0  0
    3.9340   70.4105   69.3261 H   0  0  0  0  0  0  0  0  0  0  0  0
    6.0917   71.2198   68.3760 H   0  0  0  0  0  0  0  0  0  0  0  0
    6.6498   70.7463   65.9989 H   0  0  0  0  0  0  0  0  0  0  0  0
    5.7066   70.3535   63.7167 H   0  0  0  0  0  0  0  0  0  0  0  0
    5.3001   68.4516   62.3865 H   0  0  0  0  0  0  0  0  0  0  0  0
    1.7526   65.9487   65.7924 H   0  0  0  0  0  0  0  0  0  0  0  0
    2.6067   63.8131   64.8511 H   0  0  0  0  0  0  0  0  0  0  0  0
    4.5482   63.8299   63.2897 H   0  0  0  0  0  0  0  0  0  0  0  0
    5.6287   65.9862   62.6801 H   0  0  0  0  0  0  0  0  0  0  0  0
  2  1  1  0
  3  2  2  0
  4  2  1  0
  5  4  1  0
  6  5  2  0
  7  6  1  0
  8  7  2  0
  9  8  1  0
 10  9  2  0
 10  5  1  0
 11 10  1  0
 12 11  2  0
 13 12  1  0
 14 13  2  0
 14  4  1  0
 15 14  1  0
 16 15  2  0
 17 16  1  0
 18 13  1  0
 18 17  2  0
  1 19  1  0
  1 20  1  0
  6 21  1  0
  7 22  1  0
  8 23  1  0
  9 24  1  0
 11 25  1  0
 12 26  1  0
 15 27  1  0
 16 28  1  0
 17 29  1  0
 18 30  1  0
M  END
>  <score>  (2) 
-10.256

$$$$
=
     RDKit          3D

 30 32  0  0  0  0  0  0  0  0999 V2000
    3.9440   66.4440   62.6510 N   0  0  0  0  0  0  0  0  0  0  0  0
    4.4450   67.2060   63.6720 C   0  0  0  0  0  0  0  0  0  0  0  0
    5.6200   67.0220   63.9800 O   0  0  0  0  0  0  0  0  0  0  0  0
    3.5240   68.0480   64.3070 N   0  0  0  0  0  0  0  0  0  0  0  0
    3.9230   68.8330   65.4480 C   0  0  0  0  0  0  0  0  0  0  0  0
    5.2000   69.4280   65.4710 C   0  0  0  0  0  0  0  0  0  0  0  0
    5.6270   70.2000   66.5540 C   0  0  0  0  0  0  0  0  0  0  0  0
    4.7880   70.3880   67.6430 C   0  0  0  0  0  0  0  0  0  0  0  0
    3.5260   69.7980   67.6490 C   0  0  0  0  0  0  0  0  0  0  0  0
    3.0780   69.0250   66.5600 C   0  0  0  0  0  0  0  0  0  0  0  0
    1.7800   68.3600   66.7170 C   0  0  0  0  0  0  0  0  0  0  0  0
    0.8940   68.1640   65.7350 C   0  0  0  0  0  0  0  0  0  0  0  0
    1.0850   68.5930   64.3480 C   0  0  0  0  0  0  0  0  0  0  0  0
    2.3150   68.5000   63.6680 C   0  0  0  0  0  0  0  0  0  0  0  0
    2.3590   68.8740   62.3090 C   0  0  0  0  0  0  0  0  0  0  0  0
    1.2180   69.3130   61.6360 C   0  0  0  0  0  0  0  0  0  0  0  0
    0.0060   69.3860   62.3080 C   0  0  0  0  0  0  0  0  0  0  0  0
   -0.0600   69.0240   63.6540 C   0  0  0  0  0  0  0  0  0  0  0  0
    2.9644   66.5600   62.3546 H   0  0  0  0  0  0  0  0  0  0  0  0
    4.5466   65.7547   62.1792 H   0  0  0  0  0  0  0  0  0  0  0  0
    5.8765   69.2811   64.6161 H   0  0  0  0  0  0  0  0  0  0  0  0
    6.6270   70.6582   66.5435 H   0  0  0  0  0  0  0  0  0  0  0  0
    5.1173   70.9991   68.4963 H   0  0  0  0  0  0  0  0  0  0  0  0
    2.8680   69.9382   68.5192 H   0  0  0  0  0  0  0  0  0  0  0  0
    1.5151   67.9943   67.7201 H   0  0  0  0  0  0  0  0  0  0  0  0
   -0.0427   67.6449   65.9863 H   0  0  0  0  0  0  0  0  0  0  0  0
    3.3146   68.8184   61.7670 H   0  0  0  0  0  0  0  0  0  0  0  0
    1.2791   69.6003   60.5760 H   0  0  0  0  0  0  0  0  0  0  0  0
   -0.8979   69.7274   61.7823 H   0  0  0  0  0  0  0  0  0  0  0  0
   -1.0239   69.0766   64.1813 H   0  0  0  0  0  0  0  0  0  0  0  0
  2  1  1  0
  3  2  2  0
  4  2  1  0
  5  4  1  0
  6  5  2  0
  7  6  1  0
  8  7  2  0
  9  8  1  0
 10  9  2  0
 10  5  1  0
 11 10  1  0
 12 11  2  0
 13 12  1  0
 14 13  2  0
 14  4  1  0
 15 14  1  0
 16 15  2  0
 17 16  1  0
 18 13  1  0
 18 17  2  0
  1 19  1  0
  1 20  1  0
  6 21  1  0
  7 22  1  0
  8 23  1  0
  9 24  1  0
 11 25  1  0
 12 26  1  0
 15 27  1  0
 16 28  1  0
 17 29  1  0
 18 30  1  0
M  END
>  <score>  (3) 
-9.965

$$$$
=
     RDKit          3D

 30 32  0  0  0  0  0  0  0  0999 V2000
    2.5190   70.1320   69.0430 N   0  0  0  0  0  0  0  0  0  0  0  0
    2.9700   69.8200   67.7890 C   0  0  0  0  0  0  0  0  0  0  0  0
    4.0250   70.3390   67.4310 O   0  0  0  0  0  0  0  0  0  0  0  0
    2.1220   69.0100   67.0240 N   0  0  0  0  0  0  0  0  0  0  0  0
    2.4570   68.6890   65.6610 C   0  0  0  0  0  0  0  0  0  0  0  0
    3.7980   68.4220   65.3180 C   0  0  0  0  0  0  0  0  0  0  0  0
    4.1680   68.1020   64.0110 C   0  0  0  0  0  0  0  0  0  0  0  0
    3.2060   68.0490   63.0120 C   0  0  0  0  0  0  0  0  0  0  0  0
    1.8760   68.3220   63.3230 C   0  0  0  0  0  0  0  0  0  0  0  0
    1.4860   68.6370   64.6400 C   0  0  0  0  0  0  0  0  0  0  0  0
    0.0830   69.0150   64.8360 C   0  0  0  0  0  0  0  0  0  0  0  0
   -0.6470   68.7250   65.9180 C   0  0  0  0  0  0  0  0  0  0  0  0
   -0.1520   67.9740   67.0750 C   0  0  0  0  0  0  0  0  0  0  0  0
    1.1370   68.1400   67.6160 C   0  0  0  0  0  0  0  0  0  0  0  0
    1.4740   67.4170   68.7780 C   0  0  0  0  0  0  0  0  0  0  0  0
    0.5590   66.5650   69.3970 C   0  0  0  0  0  0  0  0  0  0  0  0
   -0.7150   66.4190   68.8680 C   0  0  0  0  0  0  0  0  0  0  0  0
   -1.0690   67.1220   67.7170 C   0  0  0  0  0  0  0  0  0  0  0  0
    1.6397   69.7233   69.3906 H   0  0  0  0  0  0  0  0  0  0  0  0
    3.0588   70.7755   69.6391 H   0  0  0  0  0  0  0  0  0  0  0  0
    4.5712   68.4670   66.0992 H   0  0  0  0  0  0  0  0  0  0  0  0
    5.2212   67.8920   63.7728 H   0  0  0  0  0  0  0  0  0  0  0  0
    3.4921   67.7930   61.9812 H   0  0  0  0  0  0  0  0  0  0  0  0
    1.1173   68.2912   62.5271 H   0  0  0  0  0  0  0  0  0  0  0  0
   -0.4071   69.5812   64.0303 H   0  0  0  0  0  0  0  0  0  0  0  0
   -1.6900   69.0738   65.9413 H   0  0  0  0  0  0  0  0  0  0  0  0
    2.4811   67.5270   69.2065 H   0  0  0  0  0  0  0  0  0  0  0  0
    0.8471   66.0104   70.3022 H   0  0  0  0  0  0  0  0  0  0  0  0
   -1.4423   65.7520   69.3540 H   0  0  0  0  0  0  0  0  0  0  0  0
   -2.0822   67.0085   67.3041 H   0  0  0  0  0  0  0  0  0  0  0  0
  2  1  1  0
  3  2  2  0
  4  2  1  0
  5  4  1  0
  6  5  2  0
  7  6  1  0
  8  7  2  0
  9  8  1  0
 10  9  2  0
 10  5  1  0
 11 10  1  0
 12 11  2  0
 13 12  1  0
 14 13  2  0
 14  4  1  0
 15 14  1  0
 16 15  2  0
 17 16  1  0
 18 13  1  0
 18 17  2  0
  1 19  1  0
  1 20  1  0
  6 21  1  0
  7 22  1  0
  8 23  1  0
  9 24  1  0
 11 25  1  0
 12 26  1  0
 15 27  1  0
 16 28  1  0
 17 29  1  0
 18 30  1  0
M  END
>  <score>  (4) 
-9.325

$$$$
=
     RDKit          3D

 30 32  0  0  0  0  0  0  0  0999 V2000
    1.5250   66.7540   69.4970 N   0  0  0  0  0  0  0  0  0  0  0  0
    0.5980   67.1080   68.5540 C   0  0  0  0  0  0  0  0  0  0  0  0
   -0.5150   66.5960   68.6480 O   0  0  0  0  0  0  0  0  0  0  0  0
    1.0610   67.9490   67.5350 N   0  0  0  0  0  0  0  0  0  0  0  0
    0.1950   68.3160   66.4440 C   0  0  0  0  0  0  0  0  0  0  0  0
   -1.1650   68.5870   66.6970 C   0  0  0  0  0  0  0  0  0  0  0  0
   -2.0400   68.9520   65.6720 C   0  0  0  0  0  0  0  0  0  0  0  0
   -1.5770   69.0450   64.3680 C   0  0  0  0  0  0  0  0  0  0  0  0
   -0.2400   68.7680   64.0900 C   0  0  0  0  0  0  0  0  0  0  0  0
    0.6560   68.4100   65.1160 C   0  0  0  0  0  0  0  0  0  0  0  0
    2.0110   68.0320   64.7000 C   0  0  0  0  0  0  0  0  0  0  0  0
    3.1260   68.2880   65.3920 C   0  0  0  0  0  0  0  0  0  0  0  0
    3.1620   68.9950   66.6750 C   0  0  0  0  0  0  0  0  0  0  0  0
    2.2110   68.8030   67.6950 C   0  0  0  0  0  0  0  0  0  0  0  0
    2.3920   69.4830   68.9170 C   0  0  0  0  0  0  0  0  0  0  0  0
    3.4890   70.3180   69.1310 C   0  0  0  0  0  0  0  0  0  0  0  0
    4.4320   70.4890   68.1270 C   0  0  0  0  0  0  0  0  0  0  0  0
    4.2710   69.8290   66.9090 C   0  0  0  0  0  0  0  0  0  0  0  0
    2.4732   67.1549   69.4630 H   0  0  0  0  0  0  0  0  0  0  0  0
    1.2743   66.0867   70.2405 H   0  0  0  0  0  0  0  0  0  0  0  0
   -1.5458   68.5091   67.7260 H   0  0  0  0  0  0  0  0  0  0  0  0
   -3.0951   69.1655   65.8984 H   0  0  0  0  0  0  0  0  0  0  0  0
   -2.2615   69.3359   63.5576 H   0  0  0  0  0  0  0  0  0  0  0  0
    0.1214   68.8299   63.0529 H   0  0  0  0  0  0  0  0  0  0  0  0
    2.1180   67.4966   63.7450 H   0  0  0  0  0  0  0  0  0  0  0  0
    4.0817   67.9444   64.9693 H   0  0  0  0  0  0  0  0  0  0  0  0
    1.6514   69.3521   69.7198 H   0  0  0  0  0  0  0  0  0  0  0  0
    3.6062   70.8393   70.0925 H   0  0  0  0  0  0  0  0  0  0  0  0
    5.3020   71.1418   68.2912 H   0  0  0  0  0  0  0  0  0  0  0  0
    5.0236   69.9626   66.1179 H   0  0  0  0  0  0  0  0  0  0  0  0
  2  1  1  0
  3  2  2  0
  4  2  1  0
  5  4  1  0
  6  5  2  0
  7  6  1  0
  8  7  2  0
  9  8  1  0
 10  9  2  0
 10  5  1  0
 11 10  1  0
 12 11  2  0
 13 12  1  0
 14 13  2  0
 14  4  1  0
 15 14  1  0
 16 15  2  0
 17 16  1  0
 18 13  1  0
 18 17  2  0
  1 19  1  0
  1 20  1  0
  6 21  1  0
  7 22  1  0
  8 23  1  0
  9 24  1  0
 11 25  1  0
 12 26  1  0
 15 27  1  0
 16 28  1  0
 17 29  1  0
 18 30  1  0
M  END
>  <score>  (5) 
-9.135

$$$$
=
     RDKit          3D

 30 32  0  0  0  0  0  0  0  0999 V2000
   -0.0150   69.5050   63.5780 N   0  0  0  0  0  0  0  0  0  0  0  0
   -0.2380   68.8900   64.7800 C   0  0  0  0  0  0  0  0  0  0  0  0
   -1.4090   68.7340   65.1180 O   0  0  0  0  0  0  0  0  0  0  0  0
    0.9070   68.5910   65.5280 N   0  0  0  0  0  0  0  0  0  0  0  0
    0.7870   68.0210   66.8460 C   0  0  0  0  0  0  0  0  0  0  0  0
   -0.2060   67.0530   67.0960 C   0  0  0  0  0  0  0  0  0  0  0  0
   -0.3560   66.4700   68.3560 C   0  0  0  0  0  0  0  0  0  0  0  0
    0.4790   66.8480   69.3980 C   0  0  0  0  0  0  0  0  0  0  0  0
    1.4590   67.8130   69.1780 C   0  0  0  0  0  0  0  0  0  0  0  0
    1.6290   68.4030   67.9100 C   0  0  0  0  0  0  0  0  0  0  0  0
    2.6140   69.4850   67.8170 C   0  0  0  0  0  0  0  0  0  0  0  0
    3.3920   69.7250   66.7570 C   0  0  0  0  0  0  0  0  0  0  0  0
    3.3830   68.9340   65.5250 C   0  0  0  0  0  0  0  0  0  0  0  0
    2.2080   68.4360   64.9300 C   0  0  0  0  0  0  0  0  0  0  0  0
    2.3170   67.7510   63.7020 C   0  0  0  0  0  0  0  0  0  0  0  0
    3.5500   67.5750   63.0720 C   0  0  0  0  0  0  0  0  0  0  0  0
    4.7020   68.0830   63.6560 C   0  0  0  0  0  0  0  0  0  0  0  0
    4.6170   68.7610   64.8720 C   0  0  0  0  0  0  0  0  0  0  0  0
    0.9489   69.6593   63.2494 H   0  0  0  0  0  0  0  0  0  0  0  0
   -0.8111   69.8136   63.0019 H   0  0  0  0  0  0  0  0  0  0  0  0
   -0.8784   66.7497   66.2800 H   0  0  0  0  0  0  0  0  0  0  0  0
   -1.1354   65.7118   68.5225 H   0  0  0  0  0  0  0  0  0  0  0  0
    0.3676   66.3885   70.3912 H   0  0  0  0  0  0  0  0  0  0  0  0
    2.1115   68.1198   70.0087 H   0  0  0  0  0  0  0  0  0  0  0  0
    2.7209   70.1504   68.6864 H   0  0  0  0  0  0  0  0  0  0  0  0
    4.0871   70.5756   66.8142 H   0  0  0  0  0  0  0  0  0  0  0  0
    1.4096   67.3462   63.2300 H   0  0  0  0  0  0  0  0  0  0  0  0
    3.6085   67.0352   62.1153 H   0  0  0  0  0  0  0  0  0  0  0  0
    5.6764   67.9517   63.1628 H   0  0  0  0  0  0  0  0  0  0  0  0
    5.5314   69.1678   65.3286 H   0  0  0  0  0  0  0  0  0  0  0  0
  2  1  1  0
  3  2  2  0
  4  2  1  0
  5  4  1  0
  6  5  2  0
  7  6  1  0
  8  7  2  0
  9  8  1  0
 10  9  2  0
 10  5  1  0
 11 10  1  0
 12 11  2  0
 13 12  1  0
 14 13  2  0
 14  4  1  0
 15 14  1  0
 16 15  2  0
 17 16  1  0
 18 13  1  0
 18 17  2  0
  1 19  1  0
  1 20  1  0
  6 21  1  0
  7 22  1  0
  8 23  1  0
  9 24  1  0
 11 25  1  0
 12 26  1  0
 15 27  1  0
 16 28  1  0
 17 29  1  0
 18 30  1  0
M  END
>  <score>  (6) 
-8.941

$$$$
=
     RDKit          3D

 30 32  0  0  0  0  0  0  0  0999 V2000
    1.7550   65.8100   64.6390 N   0  0  0  0  0  0  0  0  0  0  0  0
    2.7490   66.6890   64.9720 C   0  0  0  0  0  0  0  0  0  0  0  0
    3.8910   66.3970   64.6260 O   0  0  0  0  0  0  0  0  0  0  0  0
    2.3540   67.7820   65.7530 N   0  0  0  0  0  0  0  0  0  0  0  0
    3.3320   68.7250   66.2330 C   0  0  0  0  0  0  0  0  0  0  0  0
    4.3990   69.1060   65.3960 C   0  0  0  0  0  0  0  0  0  0  0  0
    5.3670   70.0200   65.8170 C   0  0  0  0  0  0  0  0  0  0  0  0
    5.2940   70.5690   67.0890 C   0  0  0  0  0  0  0  0  0  0  0  0
    4.2550   70.1980   67.9400 C   0  0  0  0  0  0  0  0  0  0  0  0
    3.2660   69.2850   67.5250 C   0  0  0  0  0  0  0  0  0  0  0  0
    2.2830   68.8800   68.5350 C   0  0  0  0  0  0  0  0  0  0  0  0
    0.9960   68.6130   68.2900 C   0  0  0  0  0  0  0  0  0  0  0  0
    0.3690   68.6930   66.9690 C   0  0  0  0  0  0  0  0  0  0  0  0
    0.9970   68.2650   65.7840 C   0  0  0  0  0  0  0  0  0  0  0  0
    0.2650   68.3210   64.5800 C   0  0  0  0  0  0  0  0  0  0  0  0
   -1.0550   68.7740   64.5490 C   0  0  0  0  0  0  0  0  0  0  0  0
   -1.6720   69.1790   65.7230 C   0  0  0  0  0  0  0  0  0  0  0  0
   -0.9660   69.1350   66.9250 C   0  0  0  0  0  0  0  0  0  0  0  0
    0.7805   66.0092   64.9063 H   0  0  0  0  0  0  0  0  0  0  0  0
    1.9812   64.9490   64.1210 H   0  0  0  0  0  0  0  0  0  0  0  0
    4.4713   68.6734   64.3872 H   0  0  0  0  0  0  0  0  0  0  0  0
    6.1866   70.3045   65.1408 H   0  0  0  0  0  0  0  0  0  0  0  0
    6.0517   71.2928   67.4237 H   0  0  0  0  0  0  0  0  0  0  0  0
    4.2063   70.6251   68.9525 H   0  0  0  0  0  0  0  0  0  0  0  0
    2.6313   68.7888   69.5744 H   0  0  0  0  0  0  0  0  0  0  0  0
    0.3646   68.3125   69.1392 H   0  0  0  0  0  0  0  0  0  0  0  0
    0.7452   68.0003   63.6437 H   0  0  0  0  0  0  0  0  0  0  0  0
   -1.6040   68.8096   63.5964 H   0  0  0  0  0  0  0  0  0  0  0  0
   -2.7133   69.5333   65.7063 H   0  0  0  0  0  0  0  0  0  0  0  0
   -1.4615   69.4513   67.8547 H   0  0  0  0  0  0  0  0  0  0  0  0
  2  1  1  0
  3  2  2  0
  4  2  1  0
  5  4  1  0
  6  5  2  0
  7  6  1  0
  8  7  2  0
  9  8  1  0
 10  9  2  0
 10  5  1  0
 11 10  1  0
 12 11  2  0
 13 12  1  0
 14 13  2  0
 14  4  1  0
 15 14  1  0
 16 15  2  0
 17 16  1  0
 18 13  1  0
 18 17  2  0
  1 19  1  0
  1 20  1  0
  6 21  1  0
  7 22  1  0
  8 23  1  0
  9 24  1  0
 11 25  1  0
 12 26  1  0
 15 27  1  0
 16 28  1  0
 17 29  1  0
 18 30  1  0
M  END
>  <score>  (7) 
-8.88

$$$$
=
     RDKit          3D

 30 32  0  0  0  0  0  0  0  0999 V2000
    1.9100   63.1010   74.7720 N   0  0  0  0  0  0  0  0  0  0  0  0
    2.2130   61.9440   74.1060 C   0  0  0  0  0  0  0  0  0  0  0  0
    2.3220   60.9240   74.7810 O   0  0  0  0  0  0  0  0  0  0  0  0
    2.4520   62.0810   72.7330 N   0  0  0  0  0  0  0  0  0  0  0  0
    2.8620   60.9440   71.9490 C   0  0  0  0  0  0  0  0  0  0  0  0
    2.2910   59.6810   72.2040 C   0  0  0  0  0  0  0  0  0  0  0  0
    2.6540   58.5530   71.4660 C   0  0  0  0  0  0  0  0  0  0  0  0
    3.6040   58.6600   70.4600 C   0  0  0  0  0  0  0  0  0  0  0  0
    4.1920   59.8960   70.1980 C   0  0  0  0  0  0  0  0  0  0  0  0
    3.8290   61.0440   70.9270 C   0  0  0  0  0  0  0  0  0  0  0  0
    4.5880   62.2670   70.6470 C   0  0  0  0  0  0  0  0  0  0  0  0
    4.0830   63.5050   70.6630 C   0  0  0  0  0  0  0  0  0  0  0  0
    2.6850   63.8270   70.9590 C   0  0  0  0  0  0  0  0  0  0  0  0
    1.9340   63.1810   71.9600 C   0  0  0  0  0  0  0  0  0  0  0  0
    0.6200   63.6290   72.2050 C   0  0  0  0  0  0  0  0  0  0  0  0
    0.0670   64.6940   71.4920 C   0  0  0  0  0  0  0  0  0  0  0  0
    0.8190   65.3360   70.5190 C   0  0  0  0  0  0  0  0  0  0  0  0
    2.1210   64.9080   70.2580 C   0  0  0  0  0  0  0  0  0  0  0  0
    1.8078   63.9835   74.2509 H   0  0  0  0  0  0  0  0  0  0  0  0
    1.7842   63.0890   75.7942 H   0  0  0  0  0  0  0  0  0  0  0  0
    1.5418   59.5817   73.0032 H   0  0  0  0  0  0  0  0  0  0  0  0
    2.1875   57.5804   71.6816 H   0  0  0  0  0  0  0  0  0  0  0  0
    3.8910   57.7749   69.8732 H   0  0  0  0  0  0  0  0  0  0  0  0
    4.9530   59.9758   69.4078 H   0  0  0  0  0  0  0  0  0  0  0  0
    5.6555   62.1575   70.4051 H   0  0  0  0  0  0  0  0  0  0  0  0
    4.7642   64.3390   70.4384 H   0  0  0  0  0  0  0  0  0  0  0  0
    0.0165   63.1276   72.9760 H   0  0  0  0  0  0  0  0  0  0  0  0
   -0.9616   65.0231   71.7010 H   0  0  0  0  0  0  0  0  0  0  0  0
    0.3908   66.1784   69.9560 H   0  0  0  0  0  0  0  0  0  0  0  0
    2.7165   65.4248   69.4910 H   0  0  0  0  0  0  0  0  0  0  0  0
  2  1  1  0
  3  2  2  0
  4  2  1  0
  5  4  1  0
  6  5  2  0
  7  6  1  0
  8  7  2  0
  9  8  1  0
 10  9  2  0
 10  5  1  0
 11 10  1  0
 12 11  2  0
 13 12  1  0
 14 13  2  0
 14  4  1  0
 15 14  1  0
 16 15  2  0
 17 16  1  0
 18 13  1  0
 18 17  2  0
  1 19  1  0
  1 20  1  0
  6 21  1  0
  7 22  1  0
  8 23  1  0
  9 24  1  0
 11 25  1  0
 12 26  1  0
 15 27  1  0
 16 28  1  0
 17 29  1  0
 18 30  1  0
M  END
>  <score>  (8) 
-8.764

$$$$
=
     RDKit          3D

 30 32  0  0  0  0  0  0  0  0999 V2000
    1.0330   68.7860   66.4050 N   0  0  0  0  0  0  0  0  0  0  0  0
    1.7190   67.6240   66.1770 C   0  0  0  0  0  0  0  0  0  0  0  0
    1.8890   66.8790   67.1400 O   0  0  0  0  0  0  0  0  0  0  0  0
    2.2290   67.4660   64.8830 N   0  0  0  0  0  0  0  0  0  0  0  0
    3.0400   66.3210   64.5550 C   0  0  0  0  0  0  0  0  0  0  0  0
    2.7090   65.0590   65.0890 C   0  0  0  0  0  0  0  0  0  0  0  0
    3.4630   63.9210   64.7940 C   0  0  0  0  0  0  0  0  0  0  0  0
    4.5710   64.0210   63.9650 C   0  0  0  0  0  0  0  0  0  0  0  0
    4.9260   65.2600   63.4360 C   0  0  0  0  0  0  0  0  0  0  0  0
    4.1690   66.4140   63.7160 C   0  0  0  0  0  0  0  0  0  0  0  0
    4.6920   67.6830   63.1990 C   0  0  0  0  0  0  0  0  0  0  0  0
    3.9440   68.7000   62.7600 C   0  0  0  0  0  0  0  0  0  0  0  0
    2.4790   68.6970   62.7220 C   0  0  0  0  0  0  0  0  0  0  0  0
    1.6770   68.1500   63.7420 C   0  0  0  0  0  0  0  0  0  0  0  0
    0.2770   68.2740   63.6310 C   0  0  0  0  0  0  0  0  0  0  0  0
   -0.3140   68.9320   62.5510 C   0  0  0  0  0  0  0  0  0  0  0  0
    0.4840   69.4830   61.5590 C   0  0  0  0  0  0  0  0  0  0  0  0
    1.8710   69.3700   61.6470 C   0  0  0  0  0  0  0  0  0  0  0  0
    0.8639   69.4445   65.6313 H   0  0  0  0  0  0  0  0  0  0  0  0
    0.6858   69.0021   67.3503 H   0  0  0  0  0  0  0  0  0  0  0  0
    1.8369   64.9685   65.7532 H   0  0  0  0  0  0  0  0  0  0  0  0
    3.1788   62.9468   65.2183 H   0  0  0  0  0  0  0  0  0  0  0  0
    5.1659   63.1270   63.7267 H   0  0  0  0  0  0  0  0  0  0  0  0
    5.8122   65.3381   62.7890 H   0  0  0  0  0  0  0  0  0  0  0  0
    5.7846   67.8074   63.1703 H   0  0  0  0  0  0  0  0  0  0  0  0
    4.4638   69.6012   62.4027 H   0  0  0  0  0  0  0  0  0  0  0  0
   -0.3644   67.8423   64.4135 H   0  0  0  0  0  0  0  0  0  0  0  0
   -1.4091   69.0133   62.4867 H   0  0  0  0  0  0  0  0  0  0  0  0
    0.0249   70.0064   60.7073 H   0  0  0  0  0  0  0  0  0  0  0  0
    2.5005   69.8148   60.8622 H   0  0  0  0  0  0  0  0  0  0  0  0
  2  1  1  0
  3  2  2  0
  4  2  1  0
  5  4  1  0
  6  5  2  0
  7  6  1  0
  8  7  2  0
  9  8  1  0
 10  9  2  0
 10  5  1  0
 11 10  1  0
 12 11  2  0
 13 12  1  0
 14 13  2  0
 14  4  1  0
 15 14  1  0
 16 15  2  0
 17 16  1  0
 18 13  1  0
 18 17  2  0
  1 19  1  0
  1 20  1  0
  6 21  1  0
  7 22  1  0
  8 23  1  0
  9 24  1  0
 11 25  1  0
 12 26  1  0
 15 27  1  0
 16 28  1  0
 17 29  1  0
 18 30  1  0
M  END
>  <score>  (9) 
-8.332

$$$$
