=
     RDKit          3D

 33 34  0  0  0  0  0  0  0  0999 V2000
    1.3890   68.3170   65.9620 N   0  0  0  0  0  0  0  0  0  0  0  0
    2.4900   69.0180   66.4670 C   0  0  0  0  0  0  0  0  0  0  0  0
    2.4400   69.4590   67.7990 C   0  0  0  0  0  0  0  0  0  0  0  0
    3.5260   70.1040   68.3970 C   0  0  0  0  0  0  0  0  0  0  0  0
    4.7000   70.2820   67.6680 C   0  0  0  0  0  0  0  0  0  0  0  0
    4.7880   69.8300   66.3520 C   0  0  0  0  0  0  0  0  0  0  0  0
    3.6920   69.1840   65.7670 C   0  0  0  0  0  0  0  0  0  0  0  0
    6.0720   71.1210   68.4020 S   0  0  0  0  0  6  0  0  0  0  0  0
    5.9970   72.5270   68.0840 O   0  0  0  0  0  0  0  0  0  0  0  0
    6.2580   70.6410   69.7530 O   0  0  0  0  0  0  0  0  0  0  0  0
    7.3650   70.5170   67.5180 N   0  0  0  0  0  0  0  0  0  0  0  0
    1.1640   68.2680   64.5170 C   0  0  0  0  0  0  0  0  0  0  0  0
    4.6030   64.1030   64.0990 Br  0  0  0  0  0  0  0  0  0  0  0  0
    3.9260   65.7900   63.5580 C   0  0  0  0  0  0  0  0  0  0  0  0
    4.5230   66.4390   62.4790 C   0  0  0  0  0  0  0  0  0  0  0  0
    4.0330   67.6750   62.0630 C   0  0  0  0  0  0  0  0  0  0  0  0
    2.9530   68.2590   62.7280 C   0  0  0  0  0  0  0  0  0  0  0  0
    2.3500   67.6240   63.8300 C   0  0  0  0  0  0  0  0  0  0  0  0
    2.8430   66.3750   64.2270 C   0  0  0  0  0  0  0  0  0  0  0  0
    2.2390   65.7360   65.2770 O   0  0  0  0  0  0  0  0  0  0  0  0
    0.7409   67.8384   66.6037 H   0  0  0  0  0  0  0  0  0  0  0  0
    1.5245   69.2929   68.3857 H   0  0  0  0  0  0  0  0  0  0  0  0
    3.4547   70.4675   69.4328 H   0  0  0  0  0  0  0  0  0  0  0  0
    5.7133   69.9800   65.7764 H   0  0  0  0  0  0  0  0  0  0  0  0
    3.7764   68.8001   64.7396 H   0  0  0  0  0  0  0  0  0  0  0  0
    8.0928   70.1770   68.1628 H   0  0  0  0  0  0  0  0  0  0  0  0
    7.0419   69.7397   66.9244 H   0  0  0  0  0  0  0  0  0  0  0  0
    0.2585   67.6790   64.3090 H   0  0  0  0  0  0  0  0  0  0  0  0
    1.0383   69.2923   64.1361 H   0  0  0  0  0  0  0  0  0  0  0  0
    5.3758   65.9783   61.9590 H   0  0  0  0  0  0  0  0  0  0  0  0
    4.4973   68.1913   61.2099 H   0  0  0  0  0  0  0  0  0  0  0  0
    2.5674   69.2305   62.3853 H   0  0  0  0  0  0  0  0  0  0  0  0
    2.5703   64.8521   65.5753 H   0  0  0  0  0  0  0  0  0  0  0  0
  2  1  1  0
  3  2  2  0
  4  3  1  0
  5  4  2  0
  6  5  1  0
  7  6  2  0
  7  2  1  0
  8  5  1  0
  9  8  2  0
 10  8  2  0
 11  8  1  0
 12  1  1  0
 14 13  1  0
 15 14  2  0
 16 15  1  0
 17 16  2  0
 18 17  1  0
 18 12  1  0
 19 18  2  0
 19 14  1  0
 20 19  1  0
  1 21  1  0
  3 22  1  0
  4 23  1  0
  6 24  1  0
  7 25  1  0
 11 26  1  0
 11 27  1  0
 12 28  1  0
 12 29  1  0
 15 30  1  0
 16 31  1  0
 17 32  1  0
 20 33  1  0
M  END
>  <score>  (1) 
-9.185

$$$$
=
     RDKit          3D

 33 34  0  0  0  0  0  0  0  0999 V2000
    1.1170   68.4290   66.5210 N   0  0  0  0  0  0  0  0  0  0  0  0
    2.2850   69.0970   66.9050 C   0  0  0  0  0  0  0  0  0  0  0  0
    2.3510   69.6210   68.2070 C   0  0  0  0  0  0  0  0  0  0  0  0
    3.5080   70.2400   68.6880 C   0  0  0  0  0  0  0  0  0  0  0  0
    4.6350   70.3090   67.8720 C   0  0  0  0  0  0  0  0  0  0  0  0
    4.6070   69.7740   66.5850 C   0  0  0  0  0  0  0  0  0  0  0  0
    3.4410   69.1550   66.1170 C   0  0  0  0  0  0  0  0  0  0  0  0
    6.0960   71.1140   68.4570 S   0  0  0  0  0  6  0  0  0  0  0  0
    6.0260   72.5200   68.1360 O   0  0  0  0  0  0  0  0  0  0  0  0
    6.4040   70.6380   69.7860 O   0  0  0  0  0  0  0  0  0  0  0  0
    7.2760   70.4710   67.4520 N   0  0  0  0  0  0  0  0  0  0  0  0
    1.2000   67.3110   65.5800 C   0  0  0  0  0  0  0  0  0  0  0  0
   -0.2260   70.1680   61.2040 Br  0  0  0  0  0  0  0  0  0  0  0  0
    0.9860   69.1010   62.1980 C   0  0  0  0  0  0  0  0  0  0  0  0
    2.2310   68.8050   61.6450 C   0  0  0  0  0  0  0  0  0  0  0  0
    3.1370   68.0290   62.3650 C   0  0  0  0  0  0  0  0  0  0  0  0
    2.7940   67.5490   63.6310 C   0  0  0  0  0  0  0  0  0  0  0  0
    1.5350   67.8240   64.1960 C   0  0  0  0  0  0  0  0  0  0  0  0
    0.6420   68.6180   63.4670 C   0  0  0  0  0  0  0  0  0  0  0  0
   -0.5730   68.9180   64.0250 O   0  0  0  0  0  0  0  0  0  0  0  0
    0.2045   68.7222   66.8982 H   0  0  0  0  0  0  0  0  0  0  0  0
    1.4715   69.5422   68.8630 H   0  0  0  0  0  0  0  0  0  0  0  0
    3.5286   70.6685   69.7009 H   0  0  0  0  0  0  0  0  0  0  0  0
    5.4960   69.8377   65.9404 H   0  0  0  0  0  0  0  0  0  0  0  0
    3.4333   68.7065   65.1126 H   0  0  0  0  0  0  0  0  0  0  0  0
    8.0281   70.0612   68.0240 H   0  0  0  0  0  0  0  0  0  0  0  0
    6.8597   69.7401   66.8575 H   0  0  0  0  0  0  0  0  0  0  0  0
    1.9846   66.6143   65.9102 H   0  0  0  0  0  0  0  0  0  0  0  0
    0.2304   66.7925   65.5483 H   0  0  0  0  0  0  0  0  0  0  0  0
    2.4965   69.1818   60.6462 H   0  0  0  0  0  0  0  0  0  0  0  0
    4.1225   67.7944   61.9363 H   0  0  0  0  0  0  0  0  0  0  0  0
    3.5202   66.9459   64.1958 H   0  0  0  0  0  0  0  0  0  0  0  0
   -1.2211   69.4779   63.5284 H   0  0  0  0  0  0  0  0  0  0  0  0
  2  1  1  0
  3  2  2  0
  4  3  1  0
  5  4  2  0
  6  5  1  0
  7  6  2  0
  7  2  1  0
  8  5  1  0
  9  8  2  0
 10  8  2  0
 11  8  1  0
 12  1  1  0
 14 13  1  0
 15 14  2  0
 16 15  1  0
 17 16  2  0
 18 17  1  0
 18 12  1  0
 19 18  2  0
 19 14  1  0
 20 19  1  0
  1 21  1  0
  3 22  1  0
  4 23  1  0
  6 24  1  0
  7 25  1  0
 11 26  1  0
 11 27  1  0
 12 28  1  0
 12 29  1  0
 15 30  1  0
 16 31  1  0
 17 32  1  0
 20 33  1  0
M  END
>  <score>  (2) 
-9.155

$$$$
=
     RDKit          3D

 33 34  0  0  0  0  0  0  0  0999 V2000
    1.0430   68.4150   66.6200 N   0  0  0  0  0  0  0  0  0  0  0  0
    2.2250   69.0810   66.9650 C   0  0  0  0  0  0  0  0  0  0  0  0
    2.3170   69.6440   68.2490 C   0  0  0  0  0  0  0  0  0  0  0  0
    3.4890   70.2640   68.6930 C   0  0  0  0  0  0  0  0  0  0  0  0
    4.6040   70.2930   67.8590 C   0  0  0  0  0  0  0  0  0  0  0  0
    4.5500   69.7190   66.5900 C   0  0  0  0  0  0  0  0  0  0  0  0
    3.3700   69.1000   66.1600 C   0  0  0  0  0  0  0  0  0  0  0  0
    6.0820   71.0980   68.3960 S   0  0  0  0  0  6  0  0  0  0  0  0
    5.9930   72.5080   68.0990 O   0  0  0  0  0  0  0  0  0  0  0  0
    6.4460   70.6050   69.7050 O   0  0  0  0  0  0  0  0  0  0  0  0
    7.2250   70.4760   67.3360 N   0  0  0  0  0  0  0  0  0  0  0  0
    1.0570   67.4340   65.5340 C   0  0  0  0  0  0  0  0  0  0  0  0
    3.4470   68.6460   60.8250 Br  0  0  0  0  0  0  0  0  0  0  0  0
    2.0010   68.7240   62.0500 C   0  0  0  0  0  0  0  0  0  0  0  0
    0.8550   69.4330   61.6930 C   0  0  0  0  0  0  0  0  0  0  0  0
   -0.2200   69.4930   62.5770 C   0  0  0  0  0  0  0  0  0  0  0  0
   -0.1440   68.8490   63.8150 C   0  0  0  0  0  0  0  0  0  0  0  0
    1.0130   68.1440   64.1970 C   0  0  0  0  0  0  0  0  0  0  0  0
    2.0780   68.0790   63.2910 C   0  0  0  0  0  0  0  0  0  0  0  0
    3.1940   67.3660   63.6420 O   0  0  0  0  0  0  0  0  0  0  0  0
    0.1690   68.6141   67.1273 H   0  0  0  0  0  0  0  0  0  0  0  0
    1.4470   69.5959   68.9204 H   0  0  0  0  0  0  0  0  0  0  0  0
    3.5299   70.7243   69.6912 H   0  0  0  0  0  0  0  0  0  0  0  0
    5.4294   69.7521   65.9301 H   0  0  0  0  0  0  0  0  0  0  0  0
    3.3422   68.6195   65.1709 H   0  0  0  0  0  0  0  0  0  0  0  0
    7.9975   70.0556   67.8721 H   0  0  0  0  0  0  0  0  0  0  0  0
    6.7875   69.7566   66.7427 H   0  0  0  0  0  0  0  0  0  0  0  0
    1.9759   66.8327   65.5975 H   0  0  0  0  0  0  0  0  0  0  0  0
    0.1774   66.7799   65.6257 H   0  0  0  0  0  0  0  0  0  0  0  0
    0.7999   69.9419   60.7194 H   0  0  0  0  0  0  0  0  0  0  0  0
   -1.1289   70.0474   62.3005 H   0  0  0  0  0  0  0  0  0  0  0  0
   -1.0020   68.8937   64.5019 H   0  0  0  0  0  0  0  0  0  0  0  0
    3.9598   67.3059   63.0174 H   0  0  0  0  0  0  0  0  0  0  0  0
  2  1  1  0
  3  2  2  0
  4  3  1  0
  5  4  2  0
  6  5  1  0
  7  6  2  0
  7  2  1  0
  8  5  1  0
  9  8  2  0
 10  8  2  0
 11  8  1  0
 12  1  1  0
 14 13  1  0
 15 14  2  0
 16 15  1  0
 17 16  2  0
 18 17  1  0
 18 12  1  0
 19 18  2  0
 19 14  1  0
 20 19  1  0
  1 21  1  0
  3 22  1  0
  4 23  1  0
  6 24  1  0
  7 25  1  0
 11 26  1  0
 11 27  1  0
 12 28  1  0
 12 29  1  0
 15 30  1  0
 16 31  1  0
 17 32  1  0
 20 33  1  0
M  END
>  <score>  (3) 
-9.068

$$$$
=
     RDKit          3D

 33 34  0  0  0  0  0  0  0  0999 V2000
    3.8540   68.2810   63.7950 N   0  0  0  0  0  0  0  0  0  0  0  0
    4.3030   68.9730   64.9260 C   0  0  0  0  0  0  0  0  0  0  0  0
    3.4340   69.0830   66.0240 C   0  0  0  0  0  0  0  0  0  0  0  0
    3.8340   69.6970   67.2150 C   0  0  0  0  0  0  0  0  0  0  0  0
    5.1350   70.1790   67.3300 C   0  0  0  0  0  0  0  0  0  0  0  0
    6.0280   70.0600   66.2660 C   0  0  0  0  0  0  0  0  0  0  0  0
    5.6140   69.4410   65.0810 C   0  0  0  0  0  0  0  0  0  0  0  0
    5.6460   70.9830   68.8190 S   0  0  0  0  0  6  0  0  0  0  0  0
    4.6090   70.8480   69.8140 O   0  0  0  0  0  0  0  0  0  0  0  0
    7.0270   70.6540   69.0900 O   0  0  0  0  0  0  0  0  0  0  0  0
    5.6400   72.5990   68.3640 N   0  0  0  0  0  0  0  0  0  0  0  0
    2.7430   67.3370   63.9190 C   0  0  0  0  0  0  0  0  0  0  0  0
   -2.1830   68.7950   65.6410 Br  0  0  0  0  0  0  0  0  0  0  0  0
   -0.7890   68.7610   64.3550 C   0  0  0  0  0  0  0  0  0  0  0  0
   -0.9720   69.4320   63.1470 C   0  0  0  0  0  0  0  0  0  0  0  0
    0.0450   69.4240   62.1950 C   0  0  0  0  0  0  0  0  0  0  0  0
    1.2370   68.7430   62.4510 C   0  0  0  0  0  0  0  0  0  0  0  0
    1.4310   68.0460   63.6590 C   0  0  0  0  0  0  0  0  0  0  0  0
    0.4060   68.0760   64.6120 C   0  0  0  0  0  0  0  0  0  0  0  0
    0.6000   67.4280   65.8030 O   0  0  0  0  0  0  0  0  0  0  0  0
    4.3030   68.4354   62.8810 H   0  0  0  0  0  0  0  0  0  0  0  0
    2.4149   68.6766   65.9452 H   0  0  0  0  0  0  0  0  0  0  0  0
    3.1279   69.7981   68.0524 H   0  0  0  0  0  0  0  0  0  0  0  0
    7.0523   70.4505   66.3574 H   0  0  0  0  0  0  0  0  0  0  0  0
    6.3315   69.3198   64.2561 H   0  0  0  0  0  0  0  0  0  0  0  0
    5.6378   73.1927   69.2057 H   0  0  0  0  0  0  0  0  0  0  0  0
    6.4802   72.8010   67.8036 H   0  0  0  0  0  0  0  0  0  0  0  0
    2.8704   66.5260   63.1868 H   0  0  0  0  0  0  0  0  0  0  0  0
    2.7337   66.9214   64.9374 H   0  0  0  0  0  0  0  0  0  0  0  0
   -1.9135   69.9645   62.9467 H   0  0  0  0  0  0  0  0  0  0  0  0
   -0.0910   69.9545   61.2410 H   0  0  0  0  0  0  0  0  0  0  0  0
    2.0375   68.7512   61.6966 H   0  0  0  0  0  0  0  0  0  0  0  0
   -0.1107   67.4355   66.4921 H   0  0  0  0  0  0  0  0  0  0  0  0
  2  1  1  0
  3  2  2  0
  4  3  1  0
  5  4  2  0
  6  5  1  0
  7  6  2  0
  7  2  1  0
  8  5  1  0
  9  8  2  0
 10  8  2  0
 11  8  1  0
 12  1  1  0
 14 13  1  0
 15 14  2  0
 16 15  1  0
 17 16  2  0
 18 17  1  0
 18 12  1  0
 19 18  2  0
 19 14  1  0
 20 19  1  0
  1 21  1  0
  3 22  1  0
  4 23  1  0
  6 24  1  0
  7 25  1  0
 11 26  1  0
 11 27  1  0
 12 28  1  0
 12 29  1  0
 15 30  1  0
 16 31  1  0
 17 32  1  0
 20 33  1  0
M  END
>  <score>  (4) 
-8.709

$$$$
=
     RDKit          3D

 33 34  0  0  0  0  0  0  0  0999 V2000
    1.6540   65.6690   70.3990 N   0  0  0  0  0  0  0  0  0  0  0  0
    0.8470   66.3560   69.4860 C   0  0  0  0  0  0  0  0  0  0  0  0
    1.4540   67.3080   68.6500 C   0  0  0  0  0  0  0  0  0  0  0  0
    0.7280   67.9840   67.6650 C   0  0  0  0  0  0  0  0  0  0  0  0
   -0.6200   67.6840   67.4820 C   0  0  0  0  0  0  0  0  0  0  0  0
   -1.2420   66.7240   68.2790 C   0  0  0  0  0  0  0  0  0  0  0  0
   -0.5020   66.0530   69.2610 C   0  0  0  0  0  0  0  0  0  0  0  0
   -1.5560   68.5510   66.2600 S   0  0  0  0  0  6  0  0  0  0  0  0
   -0.8370   68.5370   65.0080 O   0  0  0  0  0  0  0  0  0  0  0  0
   -2.9450   68.1650   66.3600 O   0  0  0  0  0  0  0  0  0  0  0  0
   -1.4780   70.1330   66.8180 N   0  0  0  0  0  0  0  0  0  0  0  0
    1.2580   64.3360   70.8560 C   0  0  0  0  0  0  0  0  0  0  0  0
    3.3990   59.5070   72.0580 Br  0  0  0  0  0  0  0  0  0  0  0  0
    3.5160   61.2930   71.4290 C   0  0  0  0  0  0  0  0  0  0  0  0
    4.7510   61.7760   71.0010 C   0  0  0  0  0  0  0  0  0  0  0  0
    4.8530   63.0820   70.5290 C   0  0  0  0  0  0  0  0  0  0  0  0
    3.7230   63.9010   70.4890 C   0  0  0  0  0  0  0  0  0  0  0  0
    2.4710   63.4340   70.9340 C   0  0  0  0  0  0  0  0  0  0  0  0
    2.3820   62.1140   71.3910 C   0  0  0  0  0  0  0  0  0  0  0  0
    1.1600   61.6420   71.7930 O   0  0  0  0  0  0  0  0  0  0  0  0
    2.5225   66.0990   70.7479 H   0  0  0  0  0  0  0  0  0  0  0  0
    2.5250   67.5265   68.7733 H   0  0  0  0  0  0  0  0  0  0  0  0
    1.2168   68.7460   67.0401 H   0  0  0  0  0  0  0  0  0  0  0  0
   -2.3085   66.4946   68.1374 H   0  0  0  0  0  0  0  0  0  0  0  0
   -0.9889   65.2742   69.8663 H   0  0  0  0  0  0  0  0  0  0  0  0
   -1.4779   70.1342   67.8480 H   0  0  0  0  0  0  0  0  0  0  0  0
   -0.6141   70.5762   66.4741 H   0  0  0  0  0  0  0  0  0  0  0  0
    0.7976   64.4142   71.8519 H   0  0  0  0  0  0  0  0  0  0  0  0
    0.5362   63.9097   70.1437 H   0  0  0  0  0  0  0  0  0  0  0  0
    5.6402   61.1293   71.0358 H   0  0  0  0  0  0  0  0  0  0  0  0
    5.8245   63.4687   70.1874 H   0  0  0  0  0  0  0  0  0  0  0  0
    3.8120   64.9275   70.1037 H   0  0  0  0  0  0  0  0  0  0  0  0
    1.0719   60.7118   72.1201 H   0  0  0  0  0  0  0  0  0  0  0  0
  2  1  1  0
  3  2  2  0
  4  3  1  0
  5  4  2  0
  6  5  1  0
  7  6  2  0
  7  2  1  0
  8  5  1  0
  9  8  2  0
 10  8  2  0
 11  8  1  0
 12  1  1  0
 14 13  1  0
 15 14  2  0
 16 15  1  0
 17 16  2  0
 18 17  1  0
 18 12  1  0
 19 18  2  0
 19 14  1  0
 20 19  1  0
  1 21  1  0
  3 22  1  0
  4 23  1  0
  6 24  1  0
  7 25  1  0
 11 26  1  0
 11 27  1  0
 12 28  1  0
 12 29  1  0
 15 30  1  0
 16 31  1  0
 17 32  1  0
 20 33  1  0
M  END
>  <score>  (5) 
-8.417

$$$$
=
     RDKit          3D

 33 34  0  0  0  0  0  0  0  0999 V2000
    0.6960   67.9890   67.7290 N   0  0  0  0  0  0  0  0  0  0  0  0
    0.7100   67.0460   68.7620 C   0  0  0  0  0  0  0  0  0  0  0  0
   -0.5110   66.4680   69.1480 C   0  0  0  0  0  0  0  0  0  0  0  0
   -0.5710   65.4680   70.1240 C   0  0  0  0  0  0  0  0  0  0  0  0
    0.6090   65.0070   70.7020 C   0  0  0  0  0  0  0  0  0  0  0  0
    1.8380   65.5430   70.3190 C   0  0  0  0  0  0  0  0  0  0  0  0
    1.8820   66.5430   69.3400 C   0  0  0  0  0  0  0  0  0  0  0  0
    0.5470   63.7640   71.9570 S   0  0  0  0  0  6  0  0  0  0  0  0
   -0.4420   62.7750   71.5990 O   0  0  0  0  0  0  0  0  0  0  0  0
    1.8930   63.4090   72.3450 O   0  0  0  0  0  0  0  0  0  0  0  0
   -0.0970   64.6100   73.2560 N   0  0  0  0  0  0  0  0  0  0  0  0
    1.1520   69.3550   67.9910 C   0  0  0  0  0  0  0  0  0  0  0  0
    6.2690   70.9210   68.8360 Br  0  0  0  0  0  0  0  0  0  0  0  0
    4.8830   70.2010   67.7600 C   0  0  0  0  0  0  0  0  0  0  0  0
    5.1800   69.8050   66.4570 C   0  0  0  0  0  0  0  0  0  0  0  0
    4.1770   69.2660   65.6560 C   0  0  0  0  0  0  0  0  0  0  0  0
    2.8800   69.1280   66.1580 C   0  0  0  0  0  0  0  0  0  0  0  0
    2.5600   69.5390   67.4650 C   0  0  0  0  0  0  0  0  0  0  0  0
    3.5830   70.0640   68.2630 C   0  0  0  0  0  0  0  0  0  0  0  0
    3.2860   70.4350   69.5480 O   0  0  0  0  0  0  0  0  0  0  0  0
    0.3668   67.7238   66.7897 H   0  0  0  0  0  0  0  0  0  0  0  0
   -1.4416   66.8100   68.6714 H   0  0  0  0  0  0  0  0  0  0  0  0
   -1.5407   65.0498   70.4319 H   0  0  0  0  0  0  0  0  0  0  0  0
    2.7676   65.1822   70.7834 H   0  0  0  0  0  0  0  0  0  0  0  0
    2.8558   66.9411   69.0188 H   0  0  0  0  0  0  0  0  0  0  0  0
    0.2265   64.1851   74.1368 H   0  0  0  0  0  0  0  0  0  0  0  0
    0.2129   65.5914   73.2141 H   0  0  0  0  0  0  0  0  0  0  0  0
    0.4795   70.0664   67.4893 H   0  0  0  0  0  0  0  0  0  0  0  0
    1.1443   69.5372   69.0758 H   0  0  0  0  0  0  0  0  0  0  0  0
    6.2011   69.9177   66.0638 H   0  0  0  0  0  0  0  0  0  0  0  0
    4.4054   68.9487   64.6278 H   0  0  0  0  0  0  0  0  0  0  0  0
    2.0968   68.6911   65.5211 H   0  0  0  0  0  0  0  0  0  0  0  0
    3.9932   70.8088   70.1313 H   0  0  0  0  0  0  0  0  0  0  0  0
  2  1  1  0
  3  2  2  0
  4  3  1  0
  5  4  2  0
  6  5  1  0
  7  6  2  0
  7  2  1  0
  8  5  1  0
  9  8  2  0
 10  8  2  0
 11  8  1  0
 12  1  1  0
 14 13  1  0
 15 14  2  0
 16 15  1  0
 17 16  2  0
 18 17  1  0
 18 12  1  0
 19 18  2  0
 19 14  1  0
 20 19  1  0
  1 21  1  0
  3 22  1  0
  4 23  1  0
  6 24  1  0
  7 25  1  0
 11 26  1  0
 11 27  1  0
 12 28  1  0
 12 29  1  0
 15 30  1  0
 16 31  1  0
 17 32  1  0
 20 33  1  0
M  END
>  <score>  (6) 
-8.259

$$$$
=
     RDKit          3D

 33 34  0  0  0  0  0  0  0  0999 V2000
    0.4850   66.6900   70.1050 N   0  0  0  0  0  0  0  0  0  0  0  0
    0.9020   65.4530   70.6080 C   0  0  0  0  0  0  0  0  0  0  0  0
    2.1800   64.9900   70.2510 C   0  0  0  0  0  0  0  0  0  0  0  0
    2.6960   63.7970   70.7670 C   0  0  0  0  0  0  0  0  0  0  0  0
    1.9430   63.0680   71.6850 C   0  0  0  0  0  0  0  0  0  0  0  0
    0.6830   63.5180   72.0780 C   0  0  0  0  0  0  0  0  0  0  0  0
    0.1800   64.7150   71.5540 C   0  0  0  0  0  0  0  0  0  0  0  0
    2.5710   61.5450   72.3240 S   0  0  0  0  0  6  0  0  0  0  0  0
    1.5550   60.5250   72.2110 O   0  0  0  0  0  0  0  0  0  0  0  0
    3.9210   61.3480   71.8490 O   0  0  0  0  0  0  0  0  0  0  0  0
    2.7040   61.8820   73.9630 N   0  0  0  0  0  0  0  0  0  0  0  0
    0.1410   66.8160   68.6890 C   0  0  0  0  0  0  0  0  0  0  0  0
    2.4280   68.5660   64.1000 Br  0  0  0  0  0  0  0  0  0  0  0  0
    2.2040   68.5810   65.9830 C   0  0  0  0  0  0  0  0  0  0  0  0
    2.9580   69.4730   66.7430 C   0  0  0  0  0  0  0  0  0  0  0  0
    2.8000   69.5040   68.1270 C   0  0  0  0  0  0  0  0  0  0  0  0
    1.8920   68.6410   68.7450 C   0  0  0  0  0  0  0  0  0  0  0  0
    1.1350   67.7220   67.9940 C   0  0  0  0  0  0  0  0  0  0  0  0
    1.2940   67.7150   66.6030 C   0  0  0  0  0  0  0  0  0  0  0  0
    0.5360   66.8470   65.8620 O   0  0  0  0  0  0  0  0  0  0  0  0
    0.4206   67.5074   70.7283 H   0  0  0  0  0  0  0  0  0  0  0  0
    2.7885   65.5796   69.5495 H   0  0  0  0  0  0  0  0  0  0  0  0
    3.6866   63.4377   70.4512 H   0  0  0  0  0  0  0  0  0  0  0  0
    0.0872   62.9355   72.7961 H   0  0  0  0  0  0  0  0  0  0  0  0
   -0.8003   65.0824   71.8916 H   0  0  0  0  0  0  0  0  0  0  0  0
    2.3831   61.0689   74.5078 H   0  0  0  0  0  0  0  0  0  0  0  0
    3.6875   62.0832   74.1934 H   0  0  0  0  0  0  0  0  0  0  0  0
    0.1633   65.8218   68.2187 H   0  0  0  0  0  0  0  0  0  0  0  0
   -0.8664   67.2484   68.5990 H   0  0  0  0  0  0  0  0  0  0  0  0
    3.6741   70.1490   66.2529 H   0  0  0  0  0  0  0  0  0  0  0  0
    3.3900   70.2077   68.7326 H   0  0  0  0  0  0  0  0  0  0  0  0
    1.7664   68.6802   69.8371 H   0  0  0  0  0  0  0  0  0  0  0  0
    0.6309   66.8239   64.8768 H   0  0  0  0  0  0  0  0  0  0  0  0
  2  1  1  0
  3  2  2  0
  4  3  1  0
  5  4  2  0
  6  5  1  0
  7  6  2  0
  7  2  1  0
  8  5  1  0
  9  8  2  0
 10  8  2  0
 11  8  1  0
 12  1  1  0
 14 13  1  0
 15 14  2  0
 16 15  1  0
 17 16  2  0
 18 17  1  0
 18 12  1  0
 19 18  2  0
 19 14  1  0
 20 19  1  0
  1 21  1  0
  3 22  1  0
  4 23  1  0
  6 24  1  0
  7 25  1  0
 11 26  1  0
 11 27  1  0
 12 28  1  0
 12 29  1  0
 15 30  1  0
 16 31  1  0
 17 32  1  0
 20 33  1  0
M  END
>  <score>  (7) 
-8.229

$$$$
=
     RDKit          3D

 33 34  0  0  0  0  0  0  0  0999 V2000
    1.4150   65.4750   70.5690 N   0  0  0  0  0  0  0  0  0  0  0  0
    2.0000   64.2040   70.5870 C   0  0  0  0  0  0  0  0  0  0  0  0
    3.4030   64.1200   70.5900 C   0  0  0  0  0  0  0  0  0  0  0  0
    4.0620   62.8900   70.6780 C   0  0  0  0  0  0  0  0  0  0  0  0
    3.3130   61.7220   70.8020 C   0  0  0  0  0  0  0  0  0  0  0  0
    1.9200   61.7770   70.8280 C   0  0  0  0  0  0  0  0  0  0  0  0
    1.2740   63.0160   70.7410 C   0  0  0  0  0  0  0  0  0  0  0  0
    4.1310   60.1580   70.8850 S   0  0  0  0  0  6  0  0  0  0  0  0
    5.5490   60.3500   70.6910 O   0  0  0  0  0  0  0  0  0  0  0  0
    3.5980   59.3980   71.9920 O   0  0  0  0  0  0  0  0  0  0  0  0
    3.5750   59.3980   69.4950 N   0  0  0  0  0  0  0  0  0  0  0  0
    0.1680   65.6860   69.8330 C   0  0  0  0  0  0  0  0  0  0  0  0
   -1.9120   68.8050   65.9210 Br  0  0  0  0  0  0  0  0  0  0  0  0
   -0.5300   68.3000   67.1180 C   0  0  0  0  0  0  0  0  0  0  0  0
    0.6570   69.0320   67.1220 C   0  0  0  0  0  0  0  0  0  0  0  0
    1.6790   68.6800   68.0000 C   0  0  0  0  0  0  0  0  0  0  0  0
    1.5140   67.5980   68.8670 C   0  0  0  0  0  0  0  0  0  0  0  0
    0.3290   66.8380   68.8640 C   0  0  0  0  0  0  0  0  0  0  0  0
   -0.6950   67.2140   67.9870 C   0  0  0  0  0  0  0  0  0  0  0  0
   -1.8640   66.5000   68.0020 O   0  0  0  0  0  0  0  0  0  0  0  0
    1.8594   66.2572   71.0707 H   0  0  0  0  0  0  0  0  0  0  0  0
    3.9965   65.0436   70.5215 H   0  0  0  0  0  0  0  0  0  0  0  0
    5.1607   62.8451   70.6496 H   0  0  0  0  0  0  0  0  0  0  0  0
    1.3317   60.8517   70.9164 H   0  0  0  0  0  0  0  0  0  0  0  0
    0.1761   63.0573   70.7946 H   0  0  0  0  0  0  0  0  0  0  0  0
    2.9866   58.5937   69.7554 H   0  0  0  0  0  0  0  0  0  0  0  0
    3.0199   60.0636   68.9384 H   0  0  0  0  0  0  0  0  0  0  0  0
   -0.0848   64.7726   69.2746 H   0  0  0  0  0  0  0  0  0  0  0  0
   -0.6367   65.9219   70.5449 H   0  0  0  0  0  0  0  0  0  0  0  0
    0.7852   69.8822   66.4359 H   0  0  0  0  0  0  0  0  0  0  0  0
    2.6169   69.2547   68.0105 H   0  0  0  0  0  0  0  0  0  0  0  0
    2.3234   67.3351   69.5640 H   0  0  0  0  0  0  0  0  0  0  0  0
   -2.6027   66.7469   67.3909 H   0  0  0  0  0  0  0  0  0  0  0  0
  2  1  1  0
  3  2  2  0
  4  3  1  0
  5  4  2  0
  6  5  1  0
  7  6  2  0
  7  2  1  0
  8  5  1  0
  9  8  2  0
 10  8  2  0
 11  8  1  0
 12  1  1  0
 14 13  1  0
 15 14  2  0
 16 15  1  0
 17 16  2  0
 18 17  1  0
 18 12  1  0
 19 18  2  0
 19 14  1  0
 20 19  1  0
  1 21  1  0
  3 22  1  0
  4 23  1  0
  6 24  1  0
  7 25  1  0
 11 26  1  0
 11 27  1  0
 12 28  1  0
 12 29  1  0
 15 30  1  0
 16 31  1  0
 17 32  1  0
 20 33  1  0
M  END
>  <score>  (8) 
-8.226

$$$$
=
     RDKit          3D

 33 34  0  0  0  0  0  0  0  0999 V2000
    1.0520   66.0790   69.5730 N   0  0  0  0  0  0  0  0  0  0  0  0
    1.3350   64.9610   70.3670 C   0  0  0  0  0  0  0  0  0  0  0  0
    2.6190   64.3990   70.2870 C   0  0  0  0  0  0  0  0  0  0  0  0
    3.0000   63.3260   71.0990 C   0  0  0  0  0  0  0  0  0  0  0  0
    2.0980   62.8250   72.0350 C   0  0  0  0  0  0  0  0  0  0  0  0
    0.8260   63.3810   72.1550 C   0  0  0  0  0  0  0  0  0  0  0  0
    0.4590   64.4560   71.3360 C   0  0  0  0  0  0  0  0  0  0  0  0
    2.5560   61.4510   73.0470 S   0  0  0  0  0  6  0  0  0  0  0  0
    2.2600   61.7560   74.4280 O   0  0  0  0  0  0  0  0  0  0  0  0
    2.1210   60.2260   72.4150 O   0  0  0  0  0  0  0  0  0  0  0  0
    4.2290   61.4650   72.9210 N   0  0  0  0  0  0  0  0  0  0  0  0
   -0.3390   66.4240   69.2790 C   0  0  0  0  0  0  0  0  0  0  0  0
   -3.3340   68.8600   65.4780 Br  0  0  0  0  0  0  0  0  0  0  0  0
   -1.6770   68.3620   66.2550 C   0  0  0  0  0  0  0  0  0  0  0  0
   -0.4950   68.7730   65.6400 C   0  0  0  0  0  0  0  0  0  0  0  0
    0.7310   68.4230   66.2020 C   0  0  0  0  0  0  0  0  0  0  0  0
    0.7710   67.6630   67.3730 C   0  0  0  0  0  0  0  0  0  0  0  0
   -0.4130   67.2260   67.9970 C   0  0  0  0  0  0  0  0  0  0  0  0
   -1.6370   67.5990   67.4290 C   0  0  0  0  0  0  0  0  0  0  0  0
   -2.7930   67.2060   68.0490 O   0  0  0  0  0  0  0  0  0  0  0  0
    1.8189   66.6553   69.1980 H   0  0  0  0  0  0  0  0  0  0  0  0
    3.3424   64.8123   69.5688 H   0  0  0  0  0  0  0  0  0  0  0  0
    4.0016   62.8822   70.9996 H   0  0  0  0  0  0  0  0  0  0  0  0
    0.1135   62.9775   72.8895 H   0  0  0  0  0  0  0  0  0  0  0  0
   -0.5349   64.9118   71.4559 H   0  0  0  0  0  0  0  0  0  0  0  0
    4.6443   61.4685   73.8636 H   0  0  0  0  0  0  0  0  0  0  0  0
    4.5419   60.6266   72.4110 H   0  0  0  0  0  0  0  0  0  0  0  0
   -0.9272   65.5014   69.1661 H   0  0  0  0  0  0  0  0  0  0  0  0
   -0.7445   67.0258   70.1057 H   0  0  0  0  0  0  0  0  0  0  0  0
   -0.5302   69.3699   64.7167 H   0  0  0  0  0  0  0  0  0  0  0  0
    1.6675   68.7453   65.7233 H   0  0  0  0  0  0  0  0  0  0  0  0
    1.7437   67.4015   67.8151 H   0  0  0  0  0  0  0  0  0  0  0  0
   -3.6704   67.4579   67.6659 H   0  0  0  0  0  0  0  0  0  0  0  0
  2  1  1  0
  3  2  2  0
  4  3  1  0
  5  4  2  0
  6  5  1  0
  7  6  2  0
  7  2  1  0
  8  5  1  0
  9  8  2  0
 10  8  2  0
 11  8  1  0
 12  1  1  0
 14 13  1  0
 15 14  2  0
 16 15  1  0
 17 16  2  0
 18 17  1  0
 18 12  1  0
 19 18  2  0
 19 14  1  0
 20 19  1  0
  1 21  1  0
  3 22  1  0
  4 23  1  0
  6 24  1  0
  7 25  1  0
 11 26  1  0
 11 27  1  0
 12 28  1  0
 12 29  1  0
 15 30  1  0
 16 31  1  0
 17 32  1  0
 20 33  1  0
M  END
>  <score>  (9) 
-8.063

$$$$
