=
     RDKit          3D

 50 53  0  0  0  0  0  0  0  0999 V2000
    1.2870   57.7620   73.6720 C   0  0  0  0  0  0  0  0  0  0  0  0
    2.0940   57.1510   72.6990 C   0  0  0  0  0  0  0  0  0  0  0  0
    2.2120   55.8100   72.6880 F   0  0  0  0  0  0  0  0  0  0  0  0
    2.8140   57.8810   71.7420 C   0  0  0  0  0  0  0  0  0  0  0  0
    2.6900   59.2880   71.7410 C   0  0  0  0  0  0  0  0  0  0  0  0
    1.9070   59.9620   72.7080 C   0  0  0  0  0  0  0  0  0  0  0  0
    1.2180   59.1730   73.6460 C   0  0  0  0  0  0  0  0  0  0  0  0
    0.4050   59.7530   74.5490 F   0  0  0  0  0  0  0  0  0  0  0  0
    1.8390   61.3860   72.6880 N   0  0  0  0  0  0  0  0  0  0  0  0
    2.3400   62.0580   71.5910 C   0  0  0  0  0  0  0  0  0  0  0  0
    3.0920   61.5190   70.6260 C   0  0  0  0  0  0  0  0  0  0  0  0
    3.4520   60.1010   70.7440 C   0  0  0  0  0  0  0  0  0  0  0  0
    4.3710   59.5810   70.1180 O   0  0  0  0  0  0  0  0  0  0  0  0
    0.6300   54.1650   76.6920 C   0  0  0  0  0  0  0  0  0  0  0  0
    0.5640   55.6840   76.7400 C   0  0  2  0  0  0  0  0  0  0  0  0
   -0.8760   56.1560   76.6760 N   0  0  0  0  0  4  0  0  0  0  0  0
   -1.5900   56.0480   75.3380 C   0  0  2  0  0  0  0  0  0  0  0  0
   -2.3980   54.7630   75.2650 C   0  0  0  0  0  0  0  0  0  0  0  0
   -0.5910   56.2300   74.1670 C   0  0  0  0  0  0  0  0  0  0  0  0
    0.5370   57.0520   74.6450 N   0  0  0  0  0  0  0  0  0  0  0  0
    1.4120   56.3710   75.6320 C   0  0  0  0  0  0  0  0  0  0  0  0
    3.4500   57.1770   70.6940 N   0  0  0  0  0  0  0  0  0  0  0  0
    3.5240   62.3810   69.4620 C   0  0  0  0  0  0  0  0  0  0  0  0
    2.7710   62.3420   68.4500 O   0  0  0  0  0  0  0  0  0  0  0  0
    4.5340   63.1120   69.6840 O   0  0  0  0  0  1  0  0  0  0  0  0
    1.0550   62.1650   73.6630 C   0  0  0  0  0  0  0  0  0  0  0  0
    0.7480   63.6260   73.4380 C   0  0  0  0  0  0  0  0  0  0  0  0
   -0.3570   62.6220   73.3770 C   0  0  0  0  0  0  0  0  0  0  0  0
    2.1000   63.1279   71.5035 H   0  0  0  0  0  0  0  0  0  0  0  0
    0.6473   53.7662   77.7170 H   0  0  0  0  0  0  0  0  0  0  0  0
   -0.2521   53.7762   76.1621 H   0  0  0  0  0  0  0  0  0  0  0  0
    1.5425   53.8542   76.1621 H   0  0  0  0  0  0  0  0  0  0  0  0
    1.0053   55.9845   77.7017 H   0  0  0  0  0  0  0  0  0  0  0  0
   -1.4131   55.6019   77.3582 H   0  0  0  0  0  0  0  0  0  0  0  0
   -0.8302   57.1668   76.8688 H   0  0  0  0  0  0  0  0  0  0  0  0
   -2.3169   56.8681   75.2426 H   0  0  0  0  0  0  0  0  0  0  0  0
   -2.6195   54.4108   76.2833 H   0  0  0  0  0  0  0  0  0  0  0  0
   -3.3400   54.9521   74.7294 H   0  0  0  0  0  0  0  0  0  0  0  0
   -1.8194   53.9960   74.7294 H   0  0  0  0  0  0  0  0  0  0  0  0
   -0.2219   55.2478   73.8367 H   0  0  0  0  0  0  0  0  0  0  0  0
   -1.0872   56.7235   73.3183 H   0  0  0  0  0  0  0  0  0  0  0  0
    2.0146   55.6097   75.1150 H   0  0  0  0  0  0  0  0  0  0  0  0
    2.0646   57.1216   76.1018 H   0  0  0  0  0  0  0  0  0  0  0  0
    3.9847   57.6904   69.9789 H   0  0  0  0  0  0  0  0  0  0  0  0
    3.3787   56.1506   70.6455 H   0  0  0  0  0  0  0  0  0  0  0  0
    1.5362   61.5758   74.4575 H   0  0  0  0  0  0  0  0  0  0  0  0
    0.8008   64.3337   74.2785 H   0  0  0  0  0  0  0  0  0  0  0  0
    1.1285   64.4025   72.7581 H   0  0  0  0  0  0  0  0  0  0  0  0
   -1.1159   62.5915   74.1727 H   0  0  0  0  0  0  0  0  0  0  0  0
   -1.1234   62.3557   72.6343 H   0  0  0  0  0  0  0  0  0  0  0  0
  2  1  2  0
  3  2  1  0
  4  2  1  0
  5  4  2  0
  6  5  1  0
  7  1  1  0
  7  6  2  0
  8  7  1  0
  9  6  1  0
 10  9  1  0
 11 10  2  0
 12  5  1  0
 12 11  1  0
 13 12  2  0
 15 14  1  0
 16 15  1  0
 17 16  1  0
 18 17  1  0
 19 17  1  0
 20 19  1  0
 20  1  1  0
 21 20  1  0
 21 15  1  0
 22  4  1  0
 23 11  1  0
 24 23  2  0
 25 23  1  0
 26  9  1  0
 27 26  1  0
 28 27  1  0
 28 26  1  0
 10 29  1  0
 14 30  1  0
 14 31  1  0
 14 32  1  0
 15 33  1  1
 16 34  1  0
 16 35  1  0
 17 36  1  1
 18 37  1  0
 18 38  1  0
 18 39  1  0
 19 40  1  0
 19 41  1  0
 21 42  1  0
 21 43  1  0
 22 44  1  0
 22 45  1  0
 26 46  1  0
 27 47  1  0
 27 48  1  0
 28 49  1  0
 28 50  1  0
M  CHG  2  16   1  25  -1
M  END
>  <score>  (1) 
-8.042

$$$$
=
     RDKit          3D

 50 53  0  0  0  0  0  0  0  0999 V2000
    1.2620   58.5620   73.7210 C   0  0  0  0  0  0  0  0  0  0  0  0
   -0.0290   59.0960   73.8630 C   0  0  0  0  0  0  0  0  0  0  0  0
   -0.9480   58.4190   74.5770 F   0  0  0  0  0  0  0  0  0  0  0  0
   -0.4200   60.3040   73.2670 C   0  0  0  0  0  0  0  0  0  0  0  0
    0.5400   61.0250   72.5230 C   0  0  0  0  0  0  0  0  0  0  0  0
    1.8510   60.5280   72.3290 C   0  0  0  0  0  0  0  0  0  0  0  0
    2.1770   59.3070   72.9450 C   0  0  0  0  0  0  0  0  0  0  0  0
    3.4280   58.8160   72.8520 F   0  0  0  0  0  0  0  0  0  0  0  0
    2.7750   61.2760   71.5410 N   0  0  0  0  0  0  0  0  0  0  0  0
    2.4510   62.5700   71.1880 C   0  0  0  0  0  0  0  0  0  0  0  0
    1.2460   63.1340   71.3240 C   0  0  0  0  0  0  0  0  0  0  0  0
    0.1570   62.3100   71.8620 C   0  0  0  0  0  0  0  0  0  0  0  0
   -1.0310   62.5960   71.7420 O   0  0  0  0  0  0  0  0  0  0  0  0
    0.8360   53.9300   74.6490 C   0  0  0  0  0  0  0  0  0  0  0  0
    1.9160   54.8650   74.1260 C   0  0  2  0  0  0  0  0  0  0  0  0
    2.9090   55.1980   75.2240 N   0  0  0  0  0  4  0  0  0  0  0  0
    2.4510   56.1470   76.3190 C   0  0  2  0  0  0  0  0  0  0  0  0
    1.9460   55.3700   77.5230 C   0  0  0  0  0  0  0  0  0  0  0  0
    1.4330   57.1750   75.7630 C   0  0  0  0  0  0  0  0  0  0  0  0
    1.6920   57.3500   74.3220 N   0  0  0  0  0  0  0  0  0  0  0  0
    1.3480   56.1680   73.4940 C   0  0  0  0  0  0  0  0  0  0  0  0
   -1.6760   60.8520   73.6130 N   0  0  0  0  0  0  0  0  0  0  0  0
    1.0640   64.5820   70.9320 C   0  0  0  0  0  0  0  0  0  0  0  0
    1.6520   64.9350   69.8720 O   0  0  0  0  0  0  0  0  0  0  0  0
    0.2620   65.2370   71.6620 O   0  0  0  0  0  1  0  0  0  0  0  0
    4.1550   60.8260   71.2840 C   0  0  0  0  0  0  0  0  0  0  0  0
    5.2230   61.7890   70.8250 C   0  0  0  0  0  0  0  0  0  0  0  0
    5.3030   61.1950   72.1940 C   0  0  0  0  0  0  0  0  0  0  0  0
    3.2515   63.1901   70.7584 H   0  0  0  0  0  0  0  0  0  0  0  0
    0.8453   53.9380   75.7489 H   0  0  0  0  0  0  0  0  0  0  0  0
   -0.1470   54.2670   74.2881 H   0  0  0  0  0  0  0  0  0  0  0  0
    1.0288   52.9089   74.2881 H   0  0  0  0  0  0  0  0  0  0  0  0
    2.4302   54.3242   73.3179 H   0  0  0  0  0  0  0  0  0  0  0  0
    3.1781   54.3123   75.6758 H   0  0  0  0  0  0  0  0  0  0  0  0
    3.6720   55.6977   74.7455 H   0  0  0  0  0  0  0  0  0  0  0  0
    3.3084   56.7361   76.6765 H   0  0  0  0  0  0  0  0  0  0  0  0
    2.2720   55.8716   78.4461 H   0  0  0  0  0  0  0  0  0  0  0  0
    0.8471   55.3274   77.4973 H   0  0  0  0  0  0  0  0  0  0  0  0
    2.3533   54.3485   77.4973 H   0  0  0  0  0  0  0  0  0  0  0  0
    0.4088   56.8034   75.9144 H   0  0  0  0  0  0  0  0  0  0  0  0
    1.5405   58.1362   76.2869 H   0  0  0  0  0  0  0  0  0  0  0  0
    0.2536   56.0856   73.4206 H   0  0  0  0  0  0  0  0  0  0  0  0
    1.7907   56.2969   72.4953 H   0  0  0  0  0  0  0  0  0  0  0  0
   -1.9857   61.7381   73.1889 H   0  0  0  0  0  0  0  0  0  0  0  0
   -2.2816   60.3653   74.2892 H   0  0  0  0  0  0  0  0  0  0  0  0
    3.7328   59.8823   70.9084 H   0  0  0  0  0  0  0  0  0  0  0  0
    5.9422   61.4830   70.0509 H   0  0  0  0  0  0  0  0  0  0  0  0
    5.2232   62.8127   70.4225 H   0  0  0  0  0  0  0  0  0  0  0  0
    6.0806   60.4523   72.4258 H   0  0  0  0  0  0  0  0  0  0  0  0
    5.3860   61.6016   73.2127 H   0  0  0  0  0  0  0  0  0  0  0  0
  2  1  2  0
  3  2  1  0
  4  2  1  0
  5  4  2  0
  6  5  1  0
  7  1  1  0
  7  6  2  0
  8  7  1  0
  9  6  1  0
 10  9  1  0
 11 10  2  0
 12  5  1  0
 12 11  1  0
 13 12  2  0
 15 14  1  0
 16 15  1  0
 17 16  1  0
 18 17  1  0
 19 17  1  0
 20 19  1  0
 20  1  1  0
 21 20  1  0
 21 15  1  0
 22  4  1  0
 23 11  1  0
 24 23  2  0
 25 23  1  0
 26  9  1  0
 27 26  1  0
 28 27  1  0
 28 26  1  0
 10 29  1  0
 14 30  1  0
 14 31  1  0
 14 32  1  0
 15 33  1  6
 16 34  1  0
 16 35  1  0
 17 36  1  1
 18 37  1  0
 18 38  1  0
 18 39  1  0
 19 40  1  0
 19 41  1  0
 21 42  1  0
 21 43  1  0
 22 44  1  0
 22 45  1  0
 26 46  1  0
 27 47  1  0
 27 48  1  0
 28 49  1  0
 28 50  1  0
M  CHG  2  16   1  25  -1
M  END
>  <score>  (2) 
-8.025

$$$$
=
     RDKit          3D

 50 53  0  0  0  0  0  0  0  0999 V2000
    2.5000   60.1220   72.7760 C   0  0  0  0  0  0  0  0  0  0  0  0
    3.0590   60.2080   71.4910 C   0  0  0  0  0  0  0  0  0  0  0  0
    3.7640   59.1690   71.0070 F   0  0  0  0  0  0  0  0  0  0  0  0
    2.9390   61.3510   70.6870 C   0  0  0  0  0  0  0  0  0  0  0  0
    2.1940   62.4440   71.1830 C   0  0  0  0  0  0  0  0  0  0  0  0
    1.6240   62.4230   72.4780 C   0  0  0  0  0  0  0  0  0  0  0  0
    1.7880   61.2510   73.2370 C   0  0  0  0  0  0  0  0  0  0  0  0
    1.2120   61.1460   74.4500 F   0  0  0  0  0  0  0  0  0  0  0  0
    0.9090   63.5640   72.9490 N   0  0  0  0  0  0  0  0  0  0  0  0
    0.5860   64.5610   72.0500 C   0  0  0  0  0  0  0  0  0  0  0  0
    1.0710   64.6760   70.8100 C   0  0  0  0  0  0  0  0  0  0  0  0
    2.0550   63.6850   70.3600 C   0  0  0  0  0  0  0  0  0  0  0  0
    2.7940   63.8540   69.3940 O   0  0  0  0  0  0  0  0  0  0  0  0
    0.6370   56.8160   75.6230 C   0  0  0  0  0  0  0  0  0  0  0  0
    1.5280   56.8500   74.3900 C   0  0  2  0  0  0  0  0  0  0  0  0
    2.9810   56.6510   74.7770 N   0  0  0  0  0  4  0  0  0  0  0  0
    3.6880   57.8080   75.4650 C   0  0  2  0  0  0  0  0  0  0  0  0
    3.6480   57.6380   76.9740 C   0  0  0  0  0  0  0  0  0  0  0  0
    3.1260   59.1650   74.9710 C   0  0  0  0  0  0  0  0  0  0  0  0
    2.5920   58.9760   73.6090 N   0  0  0  0  0  0  0  0  0  0  0  0
    1.3630   58.1460   73.5470 C   0  0  0  0  0  0  0  0  0  0  0  0
    3.3750   61.2810   69.3440 N   0  0  0  0  0  0  0  0  0  0  0  0
    0.5810   65.8040   69.9310 C   0  0  0  0  0  0  0  0  0  0  0  0
    1.2950   66.8450   69.9370 O   0  0  0  0  0  0  0  0  0  0  0  0
   -0.4300   65.5270   69.2200 O   0  0  0  0  0  1  0  0  0  0  0  0
    0.2920   63.6260   74.2850 C   0  0  0  0  0  0  0  0  0  0  0  0
    1.0640   64.1240   75.4850 C   0  0  0  0  0  0  0  0  0  0  0  0
   -0.0670   64.9380   74.9440 C   0  0  0  0  0  0  0  0  0  0  0  0
   -0.1315   65.3256   72.3827 H   0  0  0  0  0  0  0  0  0  0  0  0
    1.2621   56.8399   76.5278 H   0  0  0  0  0  0  0  0  0  0  0  0
   -0.0318   57.6893   75.6163 H   0  0  0  0  0  0  0  0  0  0  0  0
    0.0367   55.8943   75.6163 H   0  0  0  0  0  0  0  0  0  0  0  0
    1.2020   56.0174   73.7493 H   0  0  0  0  0  0  0  0  0  0  0  0
    3.0231   55.8416   75.4126 H   0  0  0  0  0  0  0  0  0  0  0  0
    3.4777   56.5342   73.8823 H   0  0  0  0  0  0  0  0  0  0  0  0
    4.7526   57.8045   75.1881 H   0  0  0  0  0  0  0  0  0  0  0  0
    3.8743   58.5998   77.4575 H   0  0  0  0  0  0  0  0  0  0  0  0
    2.6461   57.3013   77.2786 H   0  0  0  0  0  0  0  0  0  0  0  0
    4.3946   56.8898   77.2786 H   0  0  0  0  0  0  0  0  0  0  0  0
    2.3223   59.5015   75.6424 H   0  0  0  0  0  0  0  0  0  0  0  0
    3.9211   59.9251   74.9646 H   0  0  0  0  0  0  0  0  0  0  0  0
    0.5156   58.7266   73.9406 H   0  0  0  0  0  0  0  0  0  0  0  0
    1.1808   57.8641   72.4995 H   0  0  0  0  0  0  0  0  0  0  0  0
    3.2973   62.1070   68.7336 H   0  0  0  0  0  0  0  0  0  0  0  0
    3.7703   60.4040   68.9759 H   0  0  0  0  0  0  0  0  0  0  0  0
   -0.2577   62.7084   74.0285 H   0  0  0  0  0  0  0  0  0  0  0  0
    0.9596   63.6153   76.4547 H   0  0  0  0  0  0  0  0  0  0  0  0
    2.1256   64.3168   75.6988 H   0  0  0  0  0  0  0  0  0  0  0  0
   -1.0022   65.0271   75.5163 H   0  0  0  0  0  0  0  0  0  0  0  0
   -0.1792   65.9756   74.5963 H   0  0  0  0  0  0  0  0  0  0  0  0
  2  1  2  0
  3  2  1  0
  4  2  1  0
  5  4  2  0
  6  5  1  0
  7  1  1  0
  7  6  2  0
  8  7  1  0
  9  6  1  0
 10  9  1  0
 11 10  2  0
 12  5  1  0
 12 11  1  0
 13 12  2  0
 15 14  1  0
 16 15  1  0
 17 16  1  0
 18 17  1  0
 19 17  1  0
 20 19  1  0
 20  1  1  0
 21 20  1  0
 21 15  1  0
 22  4  1  0
 23 11  1  0
 24 23  2  0
 25 23  1  0
 26  9  1  0
 27 26  1  0
 28 27  1  0
 28 26  1  0
 10 29  1  0
 14 30  1  0
 14 31  1  0
 14 32  1  0
 15 33  1  6
 16 34  1  0
 16 35  1  0
 17 36  1  6
 18 37  1  0
 18 38  1  0
 18 39  1  0
 19 40  1  0
 19 41  1  0
 21 42  1  0
 21 43  1  0
 22 44  1  0
 22 45  1  0
 26 46  1  0
 27 47  1  0
 27 48  1  0
 28 49  1  0
 28 50  1  0
M  CHG  2  16   1  25  -1
M  END
>  <score>  (3) 
-7.846

$$$$
=
     RDKit          3D

 50 53  0  0  0  0  0  0  0  0999 V2000
    0.8090   65.3040   70.4460 C   0  0  0  0  0  0  0  0  0  0  0  0
    0.1560   65.4880   71.6750 C   0  0  0  0  0  0  0  0  0  0  0  0
   -0.7460   66.4790   71.8010 F   0  0  0  0  0  0  0  0  0  0  0  0
    0.4210   64.6950   72.8010 C   0  0  0  0  0  0  0  0  0  0  0  0
    1.3600   63.6470   72.6760 C   0  0  0  0  0  0  0  0  0  0  0  0
    2.0640   63.4250   71.4690 C   0  0  0  0  0  0  0  0  0  0  0  0
    1.7590   64.2610   70.3800 C   0  0  0  0  0  0  0  0  0  0  0  0
    2.3470   64.0560   69.1860 F   0  0  0  0  0  0  0  0  0  0  0  0
    3.0280   62.3760   71.4010 N   0  0  0  0  0  0  0  0  0  0  0  0
    3.0800   61.4560   72.4290 C   0  0  0  0  0  0  0  0  0  0  0  0
    2.4600   61.5720   73.6070 C   0  0  0  0  0  0  0  0  0  0  0  0
    1.6790   62.7890   73.8580 C   0  0  0  0  0  0  0  0  0  0  0  0
    1.3370   63.1550   74.9790 O   0  0  0  0  0  0  0  0  0  0  0  0
    0.7990   69.3740   68.0110 C   0  0  0  0  0  0  0  0  0  0  0  0
    1.2940   67.9520   67.7980 C   0  0  2  0  0  0  0  0  0  0  0  0
    0.3370   67.1830   66.9060 N   0  0  0  0  0  4  0  0  0  0  0  0
   -0.9930   66.7570   67.5070 C   0  0  2  0  0  0  0  0  0  0  0  0
   -2.0780   67.7670   67.1720 C   0  0  0  0  0  0  0  0  0  0  0  0
   -0.8430   66.4740   69.0230 C   0  0  0  0  0  0  0  0  0  0  0  0
    0.5540   66.0790   69.2850 N   0  0  0  0  0  0  0  0  0  0  0  0
    1.5370   67.1800   69.1260 C   0  0  0  0  0  0  0  0  0  0  0  0
   -0.4100   64.8340   73.9360 N   0  0  0  0  0  0  0  0  0  0  0  0
    2.5800   60.4510   74.6140 C   0  0  0  0  0  0  0  0  0  0  0  0
    1.5230   60.1770   75.2480 O   0  0  0  0  0  0  0  0  0  0  0  0
    3.7000   59.8600   74.6260 O   0  0  0  0  0  1  0  0  0  0  0  0
    3.8080   62.0840   70.1860 C   0  0  0  0  0  0  0  0  0  0  0  0
    4.6220   60.8170   70.0590 C   0  0  0  0  0  0  0  0  0  0  0  0
    3.4040   61.0010   69.2120 C   0  0  0  0  0  0  0  0  0  0  0  0
    3.6829   60.5508   72.2644 H   0  0  0  0  0  0  0  0  0  0  0  0
    0.7274   69.5797   69.0892 H   0  0  0  0  0  0  0  0  0  0  0  0
    1.5040   70.0807   67.5489 H   0  0  0  0  0  0  0  0  0  0  0  0
   -0.1925   69.4902   67.5489 H   0  0  0  0  0  0  0  0  0  0  0  0
    2.2720   68.0352   67.3014 H   0  0  0  0  0  0  0  0  0  0  0  0
    0.1309   67.7769   66.0901 H   0  0  0  0  0  0  0  0  0  0  0  0
    0.8251   66.3006   66.6962 H   0  0  0  0  0  0  0  0  0  0  0  0
   -1.3141   65.8070   67.0549 H   0  0  0  0  0  0  0  0  0  0  0  0
   -2.5071   68.1664   68.1028 H   0  0  0  0  0  0  0  0  0  0  0  0
   -1.6442   68.5902   66.5854 H   0  0  0  0  0  0  0  0  0  0  0  0
   -2.8681   67.2754   66.5854 H   0  0  0  0  0  0  0  0  0  0  0  0
   -1.0869   67.3805   69.5964 H   0  0  0  0  0  0  0  0  0  0  0  0
   -1.5278   65.6688   69.3276 H   0  0  0  0  0  0  0  0  0  0  0  0
    1.4374   67.8768   69.9713 H   0  0  0  0  0  0  0  0  0  0  0  0
    2.5483   66.7480   69.1019 H   0  0  0  0  0  0  0  0  0  0  0  0
   -0.2355   64.2627   74.7751 H   0  0  0  0  0  0  0  0  0  0  0  0
   -1.1900   65.5066   73.9239 H   0  0  0  0  0  0  0  0  0  0  0  0
    4.0132   63.1620   70.1094 H   0  0  0  0  0  0  0  0  0  0  0  0
    5.6207   60.8499   69.5990 H   0  0  0  0  0  0  0  0  0  0  0  0
    4.9692   60.0445   70.7609 H   0  0  0  0  0  0  0  0  0  0  0  0
    3.5080   61.1691   68.1299 H   0  0  0  0  0  0  0  0  0  0  0  0
    2.4872   60.4195   69.0349 H   0  0  0  0  0  0  0  0  0  0  0  0
  2  1  2  0
  3  2  1  0
  4  2  1  0
  5  4  2  0
  6  5  1  0
  7  1  1  0
  7  6  2  0
  8  7  1  0
  9  6  1  0
 10  9  1  0
 11 10  2  0
 12  5  1  0
 12 11  1  0
 13 12  2  0
 15 14  1  0
 16 15  1  0
 17 16  1  0
 18 17  1  0
 19 17  1  0
 20 19  1  0
 20  1  1  0
 21 20  1  0
 21 15  1  0
 22  4  1  0
 23 11  1  0
 24 23  2  0
 25 23  1  0
 26  9  1  0
 27 26  1  0
 28 27  1  0
 28 26  1  0
 10 29  1  0
 14 30  1  0
 14 31  1  0
 14 32  1  0
 15 33  1  6
 16 34  1  0
 16 35  1  0
 17 36  1  6
 18 37  1  0
 18 38  1  0
 18 39  1  0
 19 40  1  0
 19 41  1  0
 21 42  1  0
 21 43  1  0
 22 44  1  0
 22 45  1  0
 26 46  1  0
 27 47  1  0
 27 48  1  0
 28 49  1  0
 28 50  1  0
M  CHG  2  16   1  25  -1
M  END
>  <score>  (4) 
-7.639

$$$$
=
     RDKit          3D

 50 53  0  0  0  0  0  0  0  0999 V2000
   -1.2580   60.3890   74.0730 C   0  0  0  0  0  0  0  0  0  0  0  0
   -0.7110   59.1040   74.2170 C   0  0  0  0  0  0  0  0  0  0  0  0
   -1.3510   58.1950   74.9760 F   0  0  0  0  0  0  0  0  0  0  0  0
    0.5020   58.7240   73.6220 C   0  0  0  0  0  0  0  0  0  0  0  0
    1.1770   59.6680   72.8170 C   0  0  0  0  0  0  0  0  0  0  0  0
    0.6840   60.9850   72.6500 C   0  0  0  0  0  0  0  0  0  0  0  0
   -0.5320   61.3050   73.2810 C   0  0  0  0  0  0  0  0  0  0  0  0
   -1.0840   62.5200   73.1050 F   0  0  0  0  0  0  0  0  0  0  0  0
    1.4180   61.9140   71.8550 N   0  0  0  0  0  0  0  0  0  0  0  0
    2.4580   61.4440   71.0780 C   0  0  0  0  0  0  0  0  0  0  0  0
    3.0000   60.2250   71.1590 C   0  0  0  0  0  0  0  0  0  0  0  0
    2.4780   59.3050   72.1770 C   0  0  0  0  0  0  0  0  0  0  0  0
    3.0800   58.3060   72.5590 O   0  0  0  0  0  0  0  0  0  0  0  0
   -4.1930   61.0110   77.7470 C   0  0  0  0  0  0  0  0  0  0  0  0
   -3.6520   61.8520   76.6000 C   0  0  2  0  0  0  0  0  0  0  0  0
   -4.6850   61.9750   75.4960 N   0  0  0  0  0  4  0  0  0  0  0  0
   -4.9390   60.7480   74.6340 C   0  0  2  0  0  0  0  0  0  0  0  0
   -6.1330   59.9660   75.1560 C   0  0  0  0  0  0  0  0  0  0  0  0
   -3.6480   59.9030   74.4900 C   0  0  0  0  0  0  0  0  0  0  0  0
   -2.4880   60.7990   74.6510 N   0  0  0  0  0  0  0  0  0  0  0  0
   -2.3070   61.3190   76.0290 C   0  0  0  0  0  0  0  0  0  0  0  0
    0.8810   57.3640   73.6710 N   0  0  0  0  0  0  0  0  0  0  0  0
    4.1060   59.8470   70.2010 C   0  0  0  0  0  0  0  0  0  0  0  0
    5.2340   60.3550   70.4480 O   0  0  0  0  0  0  0  0  0  0  0  0
    3.7860   58.9880   69.3270 O   0  0  0  0  0  1  0  0  0  0  0  0
    0.9800   63.3030   71.6380 C   0  0  0  0  0  0  0  0  0  0  0  0
    1.6510   64.1890   70.6150 C   0  0  0  0  0  0  0  0  0  0  0  0
    0.2480   63.7280   70.3860 C   0  0  0  0  0  0  0  0  0  0  0  0
    2.8763   62.1316   70.3282 H   0  0  0  0  0  0  0  0  0  0  0  0
   -3.9004   61.4658   78.7049 H   0  0  0  0  0  0  0  0  0  0  0  0
   -5.2902   60.9655   77.6826 H   0  0  0  0  0  0  0  0  0  0  0  0
   -3.7795   59.9937   77.6826 H   0  0  0  0  0  0  0  0  0  0  0  0
   -3.4419   62.8479   77.0172 H   0  0  0  0  0  0  0  0  0  0  0  0
   -5.5793   62.2329   75.9372 H   0  0  0  0  0  0  0  0  0  0  0  0
   -4.2959   62.6752   74.8486 H   0  0  0  0  0  0  0  0  0  0  0  0
   -5.2064   61.0636   73.6147 H   0  0  0  0  0  0  0  0  0  0  0  0
   -6.1231   59.9725   76.2559 H   0  0  0  0  0  0  0  0  0  0  0  0
   -7.0622   60.4311   74.7949 H   0  0  0  0  0  0  0  0  0  0  0  0
   -6.0780   58.9284   74.7949 H   0  0  0  0  0  0  0  0  0  0  0  0
   -3.6257   59.1227   75.2651 H   0  0  0  0  0  0  0  0  0  0  0  0
   -3.6195   59.4197   73.5022 H   0  0  0  0  0  0  0  0  0  0  0  0
   -1.9372   60.5087   76.6744 H   0  0  0  0  0  0  0  0  0  0  0  0
   -1.5834   62.1470   76.0009 H   0  0  0  0  0  0  0  0  0  0  0  0
    1.7666   57.0604   73.2416 H   0  0  0  0  0  0  0  0  0  0  0  0
    0.2717   56.6760   74.1362 H   0  0  0  0  0  0  0  0  0  0  0  0
    0.7756   63.3630   72.7172 H   0  0  0  0  0  0  0  0  0  0  0  0
    1.8504   65.2450   70.8498 H   0  0  0  0  0  0  0  0  0  0  0  0
    2.5875   64.1384   70.0403 H   0  0  0  0  0  0  0  0  0  0  0  0
   -0.5834   64.4452   70.4528 H   0  0  0  0  0  0  0  0  0  0  0  0
   -0.2720   63.1988   69.5739 H   0  0  0  0  0  0  0  0  0  0  0  0
  2  1  2  0
  3  2  1  0
  4  2  1  0
  5  4  2  0
  6  5  1  0
  7  1  1  0
  7  6  2  0
  8  7  1  0
  9  6  1  0
 10  9  1  0
 11 10  2  0
 12  5  1  0
 12 11  1  0
 13 12  2  0
 15 14  1  0
 16 15  1  0
 17 16  1  0
 18 17  1  0
 19 17  1  0
 20 19  1  0
 20  1  1  0
 21 20  1  0
 21 15  1  0
 22  4  1  0
 23 11  1  0
 24 23  2  0
 25 23  1  0
 26  9  1  0
 27 26  1  0
 28 27  1  0
 28 26  1  0
 10 29  1  0
 14 30  1  0
 14 31  1  0
 14 32  1  0
 15 33  1  1
 16 34  1  0
 16 35  1  0
 17 36  1  6
 18 37  1  0
 18 38  1  0
 18 39  1  0
 19 40  1  0
 19 41  1  0
 21 42  1  0
 21 43  1  0
 22 44  1  0
 22 45  1  0
 26 46  1  0
 27 47  1  0
 27 48  1  0
 28 49  1  0
 28 50  1  0
M  CHG  2  16   1  25  -1
M  END
>  <score>  (5) 
-7.464

$$$$
=
     RDKit          3D

 50 53  0  0  0  0  0  0  0  0999 V2000
    1.6160   60.9360   73.6230 C   0  0  0  0  0  0  0  0  0  0  0  0
    0.8410   61.8860   74.3070 C   0  0  0  0  0  0  0  0  0  0  0  0
    0.4540   61.6330   75.5720 F   0  0  0  0  0  0  0  0  0  0  0  0
    0.4200   63.0880   73.7200 C   0  0  0  0  0  0  0  0  0  0  0  0
    0.8280   63.3650   72.3960 C   0  0  0  0  0  0  0  0  0  0  0  0
    1.5940   62.4390   71.6490 C   0  0  0  0  0  0  0  0  0  0  0  0
    1.9750   61.2480   72.2930 C   0  0  0  0  0  0  0  0  0  0  0  0
    2.7600   60.3580   71.6560 F   0  0  0  0  0  0  0  0  0  0  0  0
    1.9530   62.7480   70.3040 N   0  0  0  0  0  0  0  0  0  0  0  0
    1.7520   64.0330   69.8430 C   0  0  0  0  0  0  0  0  0  0  0  0
    1.0430   64.9800   70.4660 C   0  0  0  0  0  0  0  0  0  0  0  0
    0.3890   64.6300   71.7320 C   0  0  0  0  0  0  0  0  0  0  0  0
   -0.5240   65.2860   72.2260 O   0  0  0  0  0  0  0  0  0  0  0  0
    0.9630   56.9260   76.0700 C   0  0  0  0  0  0  0  0  0  0  0  0
    1.5590   57.3270   74.7290 C   0  0  2  0  0  0  0  0  0  0  0  0
    3.0730   57.3650   74.8100 N   0  0  0  0  0  4  0  0  0  0  0  0
    3.7060   58.5200   75.5700 C   0  0  2  0  0  0  0  0  0  0  0  0
    4.0100   58.1140   77.0020 C   0  0  0  0  0  0  0  0  0  0  0  0
    2.8360   59.7970   75.4490 C   0  0  0  0  0  0  0  0  0  0  0  0
    2.0680   59.7180   74.1920 N   0  0  0  0  0  0  0  0  0  0  0  0
    1.0080   58.6780   74.1910 C   0  0  0  0  0  0  0  0  0  0  0  0
   -0.2000   64.0590   74.5390 N   0  0  0  0  0  0  0  0  0  0  0  0
    0.9570   66.3580   69.8510 C   0  0  0  0  0  0  0  0  0  0  0  0
   -0.0570   66.5660   69.1290 O   0  0  0  0  0  0  0  0  0  0  0  0
    1.8620   67.1650   70.2160 O   0  0  0  0  0  1  0  0  0  0  0  0
    2.7410   61.8360   69.4560 C   0  0  0  0  0  0  0  0  0  0  0  0
    3.5800   62.3540   68.3130 C   0  0  0  0  0  0  0  0  0  0  0  0
    4.2500   61.7820   69.5200 C   0  0  0  0  0  0  0  0  0  0  0  0
    2.2143   64.3009   68.8815 H   0  0  0  0  0  0  0  0  0  0  0  0
    1.5778   57.3397   76.8829 H   0  0  0  0  0  0  0  0  0  0  0  0
   -0.0613   57.3194   76.1484 H   0  0  0  0  0  0  0  0  0  0  0  0
    0.9415   55.8290   76.1484 H   0  0  0  0  0  0  0  0  0  0  0  0
    1.2504   56.5556   74.0081 H   0  0  0  0  0  0  0  0  0  0  0  0
    3.3798   56.4924   75.2631 H   0  0  0  0  0  0  0  0  0  0  0  0
    3.3851   57.4888   73.8363 H   0  0  0  0  0  0  0  0  0  0  0  0
    4.6752   58.7729   75.1153 H   0  0  0  0  0  0  0  0  0  0  0  0
    3.4974   58.7985   77.6939 H   0  0  0  0  0  0  0  0  0  0  0  0
    3.6574   57.0864   77.1745 H   0  0  0  0  0  0  0  0  0  0  0  0
    5.0953   58.1631   77.1745 H   0  0  0  0  0  0  0  0  0  0  0  0
    2.1457   59.8589   76.3032 H   0  0  0  0  0  0  0  0  0  0  0  0
    3.4756   60.6920   75.4463 H   0  0  0  0  0  0  0  0  0  0  0  0
    0.1772   59.0093   74.8314 H   0  0  0  0  0  0  0  0  0  0  0  0
    0.6600   58.5304   73.1580 H   0  0  0  0  0  0  0  0  0  0  0  0
   -0.5179   64.9498   74.1311 H   0  0  0  0  0  0  0  0  0  0  0  0
   -0.3339   63.8758   75.5437 H   0  0  0  0  0  0  0  0  0  0  0  0
    1.9310   61.1001   69.5668 H   0  0  0  0  0  0  0  0  0  0  0  0
    3.6064   61.8064   67.3593 H   0  0  0  0  0  0  0  0  0  0  0  0
    3.6450   63.3078   67.7690 H   0  0  0  0  0  0  0  0  0  0  0  0
    4.7682   60.8140   69.4535 H   0  0  0  0  0  0  0  0  0  0  0  0
    5.0101   62.1415   70.2293 H   0  0  0  0  0  0  0  0  0  0  0  0
  2  1  2  0
  3  2  1  0
  4  2  1  0
  5  4  2  0
  6  5  1  0
  7  1  1  0
  7  6  2  0
  8  7  1  0
  9  6  1  0
 10  9  1  0
 11 10  2  0
 12  5  1  0
 12 11  1  0
 13 12  2  0
 15 14  1  0
 16 15  1  0
 17 16  1  0
 18 17  1  0
 19 17  1  0
 20 19  1  0
 20  1  1  0
 21 20  1  0
 21 15  1  0
 22  4  1  0
 23 11  1  0
 24 23  2  0
 25 23  1  0
 26  9  1  0
 27 26  1  0
 28 27  1  0
 28 26  1  0
 10 29  1  0
 14 30  1  0
 14 31  1  0
 14 32  1  0
 15 33  1  6
 16 34  1  0
 16 35  1  0
 17 36  1  6
 18 37  1  0
 18 38  1  0
 18 39  1  0
 19 40  1  0
 19 41  1  0
 21 42  1  0
 21 43  1  0
 22 44  1  0
 22 45  1  0
 26 46  1  0
 27 47  1  0
 27 48  1  0
 28 49  1  0
 28 50  1  0
M  CHG  2  16   1  25  -1
M  END
>  <score>  (6) 
-7.413

$$$$
=
     RDKit          3D

 50 53  0  0  0  0  0  0  0  0999 V2000
    2.1270   60.2600   72.7030 C   0  0  0  0  0  0  0  0  0  0  0  0
    3.2990   59.7400   73.2730 C   0  0  0  0  0  0  0  0  0  0  0  0
    4.4950   60.1010   72.7690 F   0  0  0  0  0  0  0  0  0  0  0  0
    3.2860   58.8290   74.3400 C   0  0  0  0  0  0  0  0  0  0  0  0
    2.0370   58.4510   74.8800 C   0  0  0  0  0  0  0  0  0  0  0  0
    0.8200   58.9270   74.3360 C   0  0  0  0  0  0  0  0  0  0  0  0
    0.9030   59.8310   73.2610 C   0  0  0  0  0  0  0  0  0  0  0  0
   -0.2180   60.3690   72.7440 F   0  0  0  0  0  0  0  0  0  0  0  0
   -0.4180   58.4900   74.8940 N   0  0  0  0  0  0  0  0  0  0  0  0
   -0.4000   57.8080   76.0930 C   0  0  0  0  0  0  0  0  0  0  0  0
    0.6890   57.3130   76.6900 C   0  0  0  0  0  0  0  0  0  0  0  0
    1.9800   57.4720   76.0090 C   0  0  0  0  0  0  0  0  0  0  0  0
    2.9760   56.8070   76.2810 O   0  0  0  0  0  0  0  0  0  0  0  0
    4.1410   62.5620   69.0770 C   0  0  0  0  0  0  0  0  0  0  0  0
    2.8720   61.7590   69.3180 C   0  0  2  0  0  0  0  0  0  0  0  0
    1.6840   62.6840   69.5060 N   0  0  0  0  0  4  0  0  0  0  0  0
    1.5910   63.4470   70.8180 C   0  0  2  0  0  0  0  0  0  0  0  0
    2.1800   64.8400   70.6680 C   0  0  0  0  0  0  0  0  0  0  0  0
    2.2100   62.6240   71.9760 C   0  0  0  0  0  0  0  0  0  0  0  0
    2.1080   61.1930   71.6330 N   0  0  0  0  0  0  0  0  0  0  0  0
    2.9870   60.7710   70.5140 C   0  0  0  0  0  0  0  0  0  0  0  0
    4.5100   58.5010   74.9650 N   0  0  0  0  0  0  0  0  0  0  0  0
    0.5480   56.6290   78.0300 C   0  0  0  0  0  0  0  0  0  0  0  0
    0.2430   55.4050   77.9840 O   0  0  0  0  0  0  0  0  0  0  0  0
    0.8490   57.3450   79.0300 O   0  0  0  0  0  1  0  0  0  0  0  0
   -1.7270   58.9310   74.3810 C   0  0  0  0  0  0  0  0  0  0  0  0
   -2.9930   58.7240   75.1770 C   0  0  0  0  0  0  0  0  0  0  0  0
   -2.4670   60.1080   74.9750 C   0  0  0  0  0  0  0  0  0  0  0  0
   -1.3640   57.6587   76.6013 H   0  0  0  0  0  0  0  0  0  0  0  0
    4.5858   62.8435   70.0429 H   0  0  0  0  0  0  0  0  0  0  0  0
    4.8578   61.9527   68.5069 H   0  0  0  0  0  0  0  0  0  0  0  0
    3.8972   63.4706   68.5069 H   0  0  0  0  0  0  0  0  0  0  0  0
    2.7186   61.1439   68.4191 H   0  0  0  0  0  0  0  0  0  0  0  0
    1.7102   63.3787   68.7460 H   0  0  0  0  0  0  0  0  0  0  0  0
    0.8633   62.0617   69.5049 H   0  0  0  0  0  0  0  0  0  0  0  0
    0.5338   63.5920   71.0851 H   0  0  0  0  0  0  0  0  0  0  0  0
    2.3620   65.2703   71.6638 H   0  0  0  0  0  0  0  0  0  0  0  0
    3.1294   64.7792   70.1158 H   0  0  0  0  0  0  0  0  0  0  0  0
    1.4749   65.4787   70.1158 H   0  0  0  0  0  0  0  0  0  0  0  0
    3.2666   62.9010   72.1059 H   0  0  0  0  0  0  0  0  0  0  0  0
    1.6741   62.8280   72.9147 H   0  0  0  0  0  0  0  0  0  0  0  0
    4.0297   60.7478   70.8636 H   0  0  0  0  0  0  0  0  0  0  0  0
    2.6736   59.7718   70.1772 H   0  0  0  0  0  0  0  0  0  0  0  0
    4.5250   57.8346   75.7503 H   0  0  0  0  0  0  0  0  0  0  0  0
    5.3873   58.9283   74.6353 H   0  0  0  0  0  0  0  0  0  0  0  0
   -1.3779   58.6593   73.3739 H   0  0  0  0  0  0  0  0  0  0  0  0
   -3.9156   58.4079   74.6683 H   0  0  0  0  0  0  0  0  0  0  0  0
   -3.2673   58.1192   76.0539 H   0  0  0  0  0  0  0  0  0  0  0  0
   -3.0026   60.8086   74.3175 H   0  0  0  0  0  0  0  0  0  0  0  0
   -2.1948   60.9398   75.6414 H   0  0  0  0  0  0  0  0  0  0  0  0
  2  1  2  0
  3  2  1  0
  4  2  1  0
  5  4  2  0
  6  5  1  0
  7  1  1  0
  7  6  2  0
  8  7  1  0
  9  6  1  0
 10  9  1  0
 11 10  2  0
 12  5  1  0
 12 11  1  0
 13 12  2  0
 15 14  1  0
 16 15  1  0
 17 16  1  0
 18 17  1  0
 19 17  1  0
 20 19  1  0
 20  1  1  0
 21 20  1  0
 21 15  1  0
 22  4  1  0
 23 11  1  0
 24 23  2  0
 25 23  1  0
 26  9  1  0
 27 26  1  0
 28 27  1  0
 28 26  1  0
 10 29  1  0
 14 30  1  0
 14 31  1  0
 14 32  1  0
 15 33  1  6
 16 34  1  0
 16 35  1  0
 17 36  1  1
 18 37  1  0
 18 38  1  0
 18 39  1  0
 19 40  1  0
 19 41  1  0
 21 42  1  0
 21 43  1  0
 22 44  1  0
 22 45  1  0
 26 46  1  0
 27 47  1  0
 27 48  1  0
 28 49  1  0
 28 50  1  0
M  CHG  2  16   1  25  -1
M  END
>  <score>  (7) 
-6.943

$$$$
=
     RDKit          3D

 50 53  0  0  0  0  0  0  0  0999 V2000
    0.8380   59.1570   73.4690 C   0  0  0  0  0  0  0  0  0  0  0  0
    1.6730   58.0650   73.1850 C   0  0  0  0  0  0  0  0  0  0  0  0
    2.8630   58.2800   72.5940 F   0  0  0  0  0  0  0  0  0  0  0  0
    1.3110   56.7390   73.4680 C   0  0  0  0  0  0  0  0  0  0  0  0
    0.0670   56.5050   74.0950 C   0  0  0  0  0  0  0  0  0  0  0  0
   -0.8250   57.5640   74.3880 C   0  0  0  0  0  0  0  0  0  0  0  0
   -0.4060   58.8680   74.0710 C   0  0  0  0  0  0  0  0  0  0  0  0
   -1.1830   59.9220   74.3870 F   0  0  0  0  0  0  0  0  0  0  0  0
   -2.0840   57.2740   74.9920 N   0  0  0  0  0  0  0  0  0  0  0  0
   -2.3040   56.0060   75.4920 C   0  0  0  0  0  0  0  0  0  0  0  0
   -1.5290   54.9390   75.2720 C   0  0  0  0  0  0  0  0  0  0  0  0
   -0.3600   55.1050   74.4000 C   0  0  0  0  0  0  0  0  0  0  0  0
    0.2320   54.1660   73.8750 O   0  0  0  0  0  0  0  0  0  0  0  0
    0.8790   63.7790   74.5340 C   0  0  0  0  0  0  0  0  0  0  0  0
    1.8960   62.7190   74.1410 C   0  0  2  0  0  0  0  0  0  0  0  0
    2.2620   62.8490   72.6750 N   0  0  0  0  0  4  0  0  0  0  0  0
    1.2280   62.4050   71.6530 C   0  0  2  0  0  0  0  0  0  0  0  0
    0.4090   63.5910   71.1710 C   0  0  0  0  0  0  0  0  0  0  0  0
    0.3760   61.2360   72.2080 C   0  0  0  0  0  0  0  0  0  0  0  0
    1.1810   60.5100   73.2080 N   0  0  0  0  0  0  0  0  0  0  0  0
    1.4280   61.2700   74.4590 C   0  0  0  0  0  0  0  0  0  0  0  0
    2.2840   55.7260   73.3160 N   0  0  0  0  0  0  0  0  0  0  0  0
   -1.8820   53.6260   75.9320 C   0  0  0  0  0  0  0  0  0  0  0  0
   -1.1000   53.2550   76.8510 O   0  0  0  0  0  0  0  0  0  0  0  0
   -2.9730   53.1100   75.5480 O   0  0  0  0  0  1  0  0  0  0  0  0
   -3.0720   58.3160   75.3210 C   0  0  0  0  0  0  0  0  0  0  0  0
   -4.3260   57.9930   76.0990 C   0  0  0  0  0  0  0  0  0  0  0  0
   -3.2600   58.8290   76.7300 C   0  0  0  0  0  0  0  0  0  0  0  0
   -3.1920   55.8614   76.1249 H   0  0  0  0  0  0  0  0  0  0  0  0
    0.8193   63.8412   75.6306 H   0  0  0  0  0  0  0  0  0  0  0  0
    1.1891   64.7531   74.1278 H   0  0  0  0  0  0  0  0  0  0  0  0
   -0.1071   63.5095   74.1278 H   0  0  0  0  0  0  0  0  0  0  0  0
    2.7882   62.9012   74.7581 H   0  0  0  0  0  0  0  0  0  0  0  0
    2.4675   63.8421   72.4949 H   0  0  0  0  0  0  0  0  0  0  0  0
    3.0550   62.2050   72.5437 H   0  0  0  0  0  0  0  0  0  0  0  0
    1.7379   62.0082   70.7627 H   0  0  0  0  0  0  0  0  0  0  0  0
    0.0245   64.1478   72.0383 H   0  0  0  0  0  0  0  0  0  0  0  0
    1.0439   64.2522   70.5629 H   0  0  0  0  0  0  0  0  0  0  0  0
   -0.4342   63.2315   70.5629 H   0  0  0  0  0  0  0  0  0  0  0  0
   -0.5353   61.6315   72.6803 H   0  0  0  0  0  0  0  0  0  0  0  0
    0.0848   60.5585   71.3918 H   0  0  0  0  0  0  0  0  0  0  0  0
    0.4982   61.3117   75.0453 H   0  0  0  0  0  0  0  0  0  0  0  0
    2.2183   60.7614   75.0306 H   0  0  0  0  0  0  0  0  0  0  0  0
    2.0423   54.7453   73.5176 H   0  0  0  0  0  0  0  0  0  0  0  0
    3.2351   55.9682   73.0035 H   0  0  0  0  0  0  0  0  0  0  0  0
   -2.8465   58.7781   74.3486 H   0  0  0  0  0  0  0  0  0  0  0  0
   -5.2839   58.4506   75.8109 H   0  0  0  0  0  0  0  0  0  0  0  0
   -4.8501   57.0662   76.3754 H   0  0  0  0  0  0  0  0  0  0  0  0
   -3.4346   59.9008   76.9054 H   0  0  0  0  0  0  0  0  0  0  0  0
   -2.6775   58.7702   77.6612 H   0  0  0  0  0  0  0  0  0  0  0  0
  2  1  2  0
  3  2  1  0
  4  2  1  0
  5  4  2  0
  6  5  1  0
  7  1  1  0
  7  6  2  0
  8  7  1  0
  9  6  1  0
 10  9  1  0
 11 10  2  0
 12  5  1  0
 12 11  1  0
 13 12  2  0
 15 14  1  0
 16 15  1  0
 17 16  1  0
 18 17  1  0
 19 17  1  0
 20 19  1  0
 20  1  1  0
 21 20  1  0
 21 15  1  0
 22  4  1  0
 23 11  1  0
 24 23  2  0
 25 23  1  0
 26  9  1  0
 27 26  1  0
 28 27  1  0
 28 26  1  0
 10 29  1  0
 14 30  1  0
 14 31  1  0
 14 32  1  0
 15 33  1  1
 16 34  1  0
 16 35  1  0
 17 36  1  6
 18 37  1  0
 18 38  1  0
 18 39  1  0
 19 40  1  0
 19 41  1  0
 21 42  1  0
 21 43  1  0
 22 44  1  0
 22 45  1  0
 26 46  1  0
 27 47  1  0
 27 48  1  0
 28 49  1  0
 28 50  1  0
M  CHG  2  16   1  25  -1
M  END
>  <score>  (8) 
-6.397

$$$$
=
     RDKit          3D

 50 53  0  0  0  0  0  0  0  0999 V2000
   -0.2520   61.0050   75.4380 C   0  0  0  0  0  0  0  0  0  0  0  0
    0.7190   60.1160   75.9240 C   0  0  0  0  0  0  0  0  0  0  0  0
    0.5640   59.5740   77.1470 F   0  0  0  0  0  0  0  0  0  0  0  0
    1.8730   59.7800   75.2000 C   0  0  0  0  0  0  0  0  0  0  0  0
    2.0400   60.3380   73.9130 C   0  0  0  0  0  0  0  0  0  0  0  0
    1.1050   61.2560   73.3770 C   0  0  0  0  0  0  0  0  0  0  0  0
   -0.0250   61.5570   74.1580 C   0  0  0  0  0  0  0  0  0  0  0  0
   -0.9820   62.3720   73.6740 F   0  0  0  0  0  0  0  0  0  0  0  0
    1.3340   61.8190   72.0870 N   0  0  0  0  0  0  0  0  0  0  0  0
    2.3290   61.2800   71.2960 C   0  0  0  0  0  0  0  0  0  0  0  0
    3.2620   60.4130   71.7030 C   0  0  0  0  0  0  0  0  0  0  0  0
    3.2630   60.0150   73.1150 C   0  0  0  0  0  0  0  0  0  0  0  0
    4.2250   59.4940   73.6720 O   0  0  0  0  0  0  0  0  0  0  0  0
   -4.8840   62.0010   75.6650 C   0  0  0  0  0  0  0  0  0  0  0  0
   -3.9100   61.0670   76.3690 C   0  0  2  0  0  0  0  0  0  0  0  0
   -3.5200   61.6290   77.7230 N   0  0  0  0  0  4  0  0  0  0  0  0
   -2.5750   62.8200   77.7420 C   0  0  2  0  0  0  0  0  0  0  0  0
   -3.3560   64.1190   77.8430 C   0  0  0  0  0  0  0  0  0  0  0  0
   -1.6000   62.7650   76.5390 C   0  0  0  0  0  0  0  0  0  0  0  0
   -1.4350   61.3540   76.1400 N   0  0  0  0  0  0  0  0  0  0  0  0
   -2.6430   60.7500   75.5250 C   0  0  0  0  0  0  0  0  0  0  0  0
    2.6990   58.7430   75.6870 N   0  0  0  0  0  0  0  0  0  0  0  0
    4.2570   59.8780   70.6990 C   0  0  0  0  0  0  0  0  0  0  0  0
    3.8150   58.9900   69.9180 O   0  0  0  0  0  0  0  0  0  0  0  0
    5.3820   60.4590   70.7000 O   0  0  0  0  0  1  0  0  0  0  0  0
    0.4160   62.7860   71.4610 C   0  0  0  0  0  0  0  0  0  0  0  0
    0.5560   64.2710   71.6990 C   0  0  0  0  0  0  0  0  0  0  0  0
    0.8560   63.7080   70.3480 C   0  0  0  0  0  0  0  0  0  0  0  0
    2.3565   61.5903   70.2410 H   0  0  0  0  0  0  0  0  0  0  0  0
   -5.4649   62.5580   76.4149 H   0  0  0  0  0  0  0  0  0  0  0  0
   -4.3239   62.7083   75.0357 H   0  0  0  0  0  0  0  0  0  0  0  0
   -5.5672   61.4117   75.0357 H   0  0  0  0  0  0  0  0  0  0  0  0
   -4.4386   60.1122   76.5069 H   0  0  0  0  0  0  0  0  0  0  0  0
   -4.3870   61.9152   78.1998 H   0  0  0  0  0  0  0  0  0  0  0  0
   -2.9956   60.8702   78.1813 H   0  0  0  0  0  0  0  0  0  0  0  0
   -1.9441   62.7747   78.6420 H   0  0  0  0  0  0  0  0  0  0  0  0
   -3.5090   64.3734   78.9022 H   0  0  0  0  0  0  0  0  0  0  0  0
   -2.7925   64.9249   77.3500 H   0  0  0  0  0  0  0  0  0  0  0  0
   -4.3320   63.9993   77.3500 H   0  0  0  0  0  0  0  0  0  0  0  0
   -2.0127   63.3431   75.6991 H   0  0  0  0  0  0  0  0  0  0  0  0
   -0.6274   63.1955   76.8196 H   0  0  0  0  0  0  0  0  0  0  0  0
   -2.7737   61.1573   74.5116 H   0  0  0  0  0  0  0  0  0  0  0  0
   -2.5100   59.6588   75.4851 H   0  0  0  0  0  0  0  0  0  0  0  0
    3.5513   58.4788   75.1725 H   0  0  0  0  0  0  0  0  0  0  0  0
    2.4491   58.2509   76.5567 H   0  0  0  0  0  0  0  0  0  0  0  0
   -0.3844   62.0414   71.5835 H   0  0  0  0  0  0  0  0  0  0  0  0
   -0.3409   64.8899   71.8490 H   0  0  0  0  0  0  0  0  0  0  0  0
    1.1072   64.8924   72.4202 H   0  0  0  0  0  0  0  0  0  0  0  0
    0.1795   63.9130   69.5052 H   0  0  0  0  0  0  0  0  0  0  0  0
    1.7186   63.7447   69.6664 H   0  0  0  0  0  0  0  0  0  0  0  0
  2  1  2  0
  3  2  1  0
  4  2  1  0
  5  4  2  0
  6  5  1  0
  7  1  1  0
  7  6  2  0
  8  7  1  0
  9  6  1  0
 10  9  1  0
 11 10  2  0
 12  5  1  0
 12 11  1  0
 13 12  2  0
 15 14  1  0
 16 15  1  0
 17 16  1  0
 18 17  1  0
 19 17  1  0
 20 19  1  0
 20  1  1  0
 21 20  1  0
 21 15  1  0
 22  4  1  0
 23 11  1  0
 24 23  2  0
 25 23  1  0
 26  9  1  0
 27 26  1  0
 28 27  1  0
 28 26  1  0
 10 29  1  0
 14 30  1  0
 14 31  1  0
 14 32  1  0
 15 33  1  1
 16 34  1  0
 16 35  1  0
 17 36  1  1
 18 37  1  0
 18 38  1  0
 18 39  1  0
 19 40  1  0
 19 41  1  0
 21 42  1  0
 21 43  1  0
 22 44  1  0
 22 45  1  0
 26 46  1  0
 27 47  1  0
 27 48  1  0
 28 49  1  0
 28 50  1  0
M  CHG  2  16   1  25  -1
M  END
>  <score>  (9) 
-5.869

$$$$
