=
     RDKit          3D

 73 77  0  0  0  0  0  0  0  0999 V2000
    0.2880   64.0160   71.6100 C   0  0  0  0  0  0  0  0  0  0  0  0
   -0.6420   63.2190   71.5050 O   0  0  0  0  0  0  0  0  0  0  0  0
    0.4420   65.0670   70.6970 N   0  0  0  0  0  0  0  0  0  0  0  0
   -0.4410   65.0390   69.5240 C   0  0  0  0  0  0  0  0  0  0  0  0
   -0.6180   66.4060   68.8510 C   0  0  0  0  0  0  0  0  0  0  0  0
    0.7200   67.0840   68.6160 N   0  0  0  0  0  4  0  0  0  0  0  0
    1.4960   67.2010   69.9060 C   0  0  0  0  0  0  0  0  0  0  0  0
    1.6940   65.8260   70.5610 C   0  0  0  0  0  0  0  0  0  0  0  0
    1.3040   63.9230   72.7270 C   0  0  0  0  0  0  0  0  0  0  0  0
    1.5500   62.4750   73.1490 C   0  0  0  0  0  0  0  0  0  0  0  0
    3.5820   61.0530   73.3930 C   0  0  0  0  0  0  0  0  0  0  0  0
    2.8260   62.0100   72.5860 N   0  0  0  0  0  0  0  0  0  0  0  0
    3.1700   62.2250   71.2520 C   0  0  0  0  0  0  0  0  0  0  0  0
    4.1810   63.1240   70.8680 C   0  0  0  0  0  0  0  0  0  0  0  0
    4.5340   63.3320   69.5260 C   0  0  0  0  0  0  0  0  0  0  0  0
    3.8840   62.6350   68.5180 C   0  0  0  0  0  0  0  0  0  0  0  0
    2.8830   61.7350   68.8550 C   0  0  0  0  0  0  0  0  0  0  0  0
    2.5380   61.5370   70.2000 C   0  0  0  0  0  0  0  0  0  0  0  0
    1.5090   66.5360   67.4370 C   0  0  0  0  0  0  0  0  0  0  0  0
    1.1830   67.3930   66.1940 C   0  0  0  0  0  0  0  0  0  0  0  0
    1.4090   68.8260   66.5370 N   0  0  0  0  0  0  0  0  0  0  0  0
    2.7230   69.2140   66.0820 C   0  0  0  0  0  0  0  0  0  0  0  0
    3.7130   69.6380   66.9860 C   0  0  0  0  0  0  0  0  0  0  0  0
    3.5210   69.8680   68.4630 C   0  0  0  0  0  0  0  0  0  0  0  0
    4.2250   71.1450   68.9350 C   0  0  0  0  0  0  0  0  0  0  0  0
    5.6320   71.3510   68.3590 C   0  0  0  0  0  0  0  0  0  0  0  0
    6.1000   70.2200   67.4480 C   0  0  0  0  0  0  0  0  0  0  0  0
    5.0070   69.8200   66.4910 C   0  0  0  0  0  0  0  0  0  0  0  0
    5.3530   69.6170   65.2050 N   0  0  0  0  0  0  0  0  0  0  0  0
    4.4060   69.2580   64.3320 C   0  0  0  0  0  0  0  0  0  0  0  0
    3.0620   69.0470   64.7070 C   0  0  0  0  0  0  0  0  0  0  0  0
    2.1280   68.7080   63.6990 C   0  0  0  0  0  0  0  0  0  0  0  0
    2.5170   68.5450   62.3700 C   0  0  0  0  0  0  0  0  0  0  0  0
    3.8460   68.7260   62.0230 C   0  0  0  0  0  0  0  0  0  0  0  0
    4.7720   69.0840   63.0040 C   0  0  0  0  0  0  0  0  0  0  0  0
   -0.0166   64.3416   68.7868 H   0  0  0  0  0  0  0  0  0  0  0  0
   -1.4340   64.7243   69.8773 H   0  0  0  0  0  0  0  0  0  0  0  0
   -1.1234   66.2663   67.8840 H   0  0  0  0  0  0  0  0  0  0  0  0
   -1.2182   67.0446   69.5158 H   0  0  0  0  0  0  0  0  0  0  0  0
    0.5202   68.0462   68.3075 H   0  0  0  0  0  0  0  0  0  0  0  0
    2.4808   67.6426   69.6936 H   0  0  0  0  0  0  0  0  0  0  0  0
    0.9267   67.8383   70.5986 H   0  0  0  0  0  0  0  0  0  0  0  0
    2.1245   65.9738   71.5624 H   0  0  0  0  0  0  0  0  0  0  0  0
    2.3613   65.2443   69.9080 H   0  0  0  0  0  0  0  0  0  0  0  0
    2.2530   64.3600   72.3829 H   0  0  0  0  0  0  0  0  0  0  0  0
    0.9094   64.4707   73.5955 H   0  0  0  0  0  0  0  0  0  0  0  0
    1.5900   62.4148   74.2466 H   0  0  0  0  0  0  0  0  0  0  0  0
    0.7322   61.8407   72.7763 H   0  0  0  0  0  0  0  0  0  0  0  0
    3.4168   61.2621   74.4602 H   0  0  0  0  0  0  0  0  0  0  0  0
    3.2442   60.0318   73.1629 H   0  0  0  0  0  0  0  0  0  0  0  0
    4.6537   61.1453   73.1629 H   0  0  0  0  0  0  0  0  0  0  0  0
    4.7151   63.6851   71.6490 H   0  0  0  0  0  0  0  0  0  0  0  0
    5.3282   64.0496   69.2726 H   0  0  0  0  0  0  0  0  0  0  0  0
    4.1586   62.7938   67.4647 H   0  0  0  0  0  0  0  0  0  0  0  0
    2.3591   61.1758   68.0658 H   0  0  0  0  0  0  0  0  0  0  0  0
    1.7429   60.8163   70.4416 H   0  0  0  0  0  0  0  0  0  0  0  0
    2.5862   66.5895   67.6534 H   0  0  0  0  0  0  0  0  0  0  0  0
    1.2372   65.4858   67.2548 H   0  0  0  0  0  0  0  0  0  0  0  0
    1.8393   67.1027   65.3603 H   0  0  0  0  0  0  0  0  0  0  0  0
    0.1368   67.2375   65.8920 H   0  0  0  0  0  0  0  0  0  0  0  0
    0.7371   69.4394   67.0199 H   0  0  0  0  0  0  0  0  0  0  0  0
    2.4448   69.9560   68.6730 H   0  0  0  0  0  0  0  0  0  0  0  0
    3.9599   69.0156   69.0023 H   0  0  0  0  0  0  0  0  0  0  0  0
    3.6056   72.0058   68.6428 H   0  0  0  0  0  0  0  0  0  0  0  0
    4.3459   71.0490   70.0241 H   0  0  0  0  0  0  0  0  0  0  0  0
    5.6353   72.2860   67.7796 H   0  0  0  0  0  0  0  0  0  0  0  0
    6.3249   71.3801   69.2128 H   0  0  0  0  0  0  0  0  0  0  0  0
    6.9763   70.5571   66.8748 H   0  0  0  0  0  0  0  0  0  0  0  0
    6.3617   69.3508   68.0693 H   0  0  0  0  0  0  0  0  0  0  0  0
    1.0710   68.5700   63.9703 H   0  0  0  0  0  0  0  0  0  0  0  0
    1.7753   68.2751   61.6038 H   0  0  0  0  0  0  0  0  0  0  0  0
    4.1694   68.5884   60.9807 H   0  0  0  0  0  0  0  0  0  0  0  0
    5.8233   69.2328   62.7164 H   0  0  0  0  0  0  0  0  0  0  0  0
  2  1  2  0
  3  1  1  0
  4  3  1  0
  5  4  1  0
  6  5  1  0
  7  6  1  0
  8  3  1  0
  8  7  1  0
  9  1  1  0
 10  9  1  0
 12 11  1  0
 12 10  1  0
 13 12  1  0
 14 13  2  0
 15 14  1  0
 16 15  2  0
 17 16  1  0
 18 17  2  0
 18 13  1  0
 19  6  1  0
 20 19  1  0
 21 20  1  0
 22 21  1  0
 23 22  1  0
 24 23  1  0
 25 24  1  0
 26 25  1  0
 27 26  1  0
 28 23  2  0
 28 27  1  0
 29 28  1  0
 30 29  2  0
 31 30  1  0
 31 22  2  0
 32 31  1  0
 33 32  2  0
 34 33  1  0
 35 34  2  0
 35 30  1  0
  4 36  1  0
  4 37  1  0
  5 38  1  0
  5 39  1  0
  6 40  1  0
  7 41  1  0
  7 42  1  0
  8 43  1  0
  8 44  1  0
  9 45  1  0
  9 46  1  0
 10 47  1  0
 10 48  1  0
 11 49  1  0
 11 50  1  0
 11 51  1  0
 14 52  1  0
 15 53  1  0
 16 54  1  0
 17 55  1  0
 18 56  1  0
 19 57  1  0
 19 58  1  0
 20 59  1  0
 20 60  1  0
 21 61  1  0
 24 62  1  0
 24 63  1  0
 25 64  1  0
 25 65  1  0
 26 66  1  0
 26 67  1  0
 27 68  1  0
 27 69  1  0
 32 70  1  0
 33 71  1  0
 34 72  1  0
 35 73  1  0
M  CHG  1   6   1
M  END
>  <score>  (1) 
-10.316

$$$$
=
     RDKit          3D

 73 77  0  0  0  0  0  0  0  0999 V2000
    1.5190   63.3980   73.0690 C   0  0  0  0  0  0  0  0  0  0  0  0
    2.6070   62.8640   73.2710 O   0  0  0  0  0  0  0  0  0  0  0  0
    1.2660   64.0880   71.8760 N   0  0  0  0  0  0  0  0  0  0  0  0
    2.4200   64.2940   70.9910 C   0  0  0  0  0  0  0  0  0  0  0  0
    2.0380   64.5610   69.5300 C   0  0  0  0  0  0  0  0  0  0  0  0
    0.9650   65.6310   69.4250 N   0  0  0  0  0  4  0  0  0  0  0  0
   -0.2430   65.2610   70.2530 C   0  0  0  0  0  0  0  0  0  0  0  0
    0.1410   65.0220   71.7210 C   0  0  0  0  0  0  0  0  0  0  0  0
    0.3920   63.3330   74.0770 C   0  0  0  0  0  0  0  0  0  0  0  0
    0.3030   61.9580   74.7370 C   0  0  0  0  0  0  0  0  0  0  0  0
   -1.3430   61.4870   72.9270 C   0  0  0  0  0  0  0  0  0  0  0  0
   -0.2700   60.9930   73.7880 N   0  0  0  0  0  0  0  0  0  0  0  0
    0.3470   59.7740   73.5080 C   0  0  0  0  0  0  0  0  0  0  0  0
   -0.1810   58.5430   73.9400 C   0  0  0  0  0  0  0  0  0  0  0  0
    0.4340   57.3170   73.6480 C   0  0  0  0  0  0  0  0  0  0  0  0
    1.6050   57.2830   72.9030 C   0  0  0  0  0  0  0  0  0  0  0  0
    2.1550   58.4750   72.4550 C   0  0  0  0  0  0  0  0  0  0  0  0
    1.5320   59.6950   72.7540 C   0  0  0  0  0  0  0  0  0  0  0  0
    1.4680   67.0530   69.6200 C   0  0  0  0  0  0  0  0  0  0  0  0
    1.0870   67.8770   68.3710 C   0  0  0  0  0  0  0  0  0  0  0  0
    1.7360   69.2150   68.4740 N   0  0  0  0  0  0  0  0  0  0  0  0
    2.8330   69.2760   67.5370 C   0  0  0  0  0  0  0  0  0  0  0  0
    2.6710   68.8750   66.1990 C   0  0  0  0  0  0  0  0  0  0  0  0
    1.4410   68.2320   65.6110 C   0  0  0  0  0  0  0  0  0  0  0  0
    1.8010   67.0770   64.6690 C   0  0  0  0  0  0  0  0  0  0  0  0
    2.9770   67.3610   63.7260 C   0  0  0  0  0  0  0  0  0  0  0  0
    3.5550   68.7660   63.8630 C   0  0  0  0  0  0  0  0  0  0  0  0
    3.7220   69.1340   65.3150 C   0  0  0  0  0  0  0  0  0  0  0  0
    4.8710   69.7390   65.6730 N   0  0  0  0  0  0  0  0  0  0  0  0
    5.0470   70.0810   66.9530 C   0  0  0  0  0  0  0  0  0  0  0  0
    4.0640   69.8680   67.9430 C   0  0  0  0  0  0  0  0  0  0  0  0
    4.3650   70.2290   69.2780 C   0  0  0  0  0  0  0  0  0  0  0  0
    5.5830   70.8170   69.6170 C   0  0  0  0  0  0  0  0  0  0  0  0
    6.5260   71.0470   68.6290 C   0  0  0  0  0  0  0  0  0  0  0  0
    6.2510   70.6730   67.3130 C   0  0  0  0  0  0  0  0  0  0  0  0
    2.9931   65.1561   71.3630 H   0  0  0  0  0  0  0  0  0  0  0  0
    3.0052   63.3627   71.0047 H   0  0  0  0  0  0  0  0  0  0  0  0
    2.9313   64.8947   68.9817 H   0  0  0  0  0  0  0  0  0  0  0  0
    1.6416   63.6295   69.0997 H   0  0  0  0  0  0  0  0  0  0  0  0
    0.6525   65.6499   68.4437 H   0  0  0  0  0  0  0  0  0  0  0  0
   -0.9766   66.0792   70.2028 H   0  0  0  0  0  0  0  0  0  0  0  0
   -0.6702   64.3313   69.8492 H   0  0  0  0  0  0  0  0  0  0  0  0
   -0.7317   64.6102   72.2490 H   0  0  0  0  0  0  0  0  0  0  0  0
    0.4561   65.9889   72.1402 H   0  0  0  0  0  0  0  0  0  0  0  0
    0.5652   64.0913   74.8548 H   0  0  0  0  0  0  0  0  0  0  0  0
   -0.5534   63.5209   73.5470 H   0  0  0  0  0  0  0  0  0  0  0  0
    1.3098   61.6276   75.0324 H   0  0  0  0  0  0  0  0  0  0  0  0
   -0.3394   62.0207   75.6277 H   0  0  0  0  0  0  0  0  0  0  0  0
   -2.1670   61.8664   73.5491 H   0  0  0  0  0  0  0  0  0  0  0  0
   -0.9591   62.2990   72.2920 H   0  0  0  0  0  0  0  0  0  0  0  0
   -1.7103   60.6673   72.2920 H   0  0  0  0  0  0  0  0  0  0  0  0
   -1.1104   58.5425   74.5284 H   0  0  0  0  0  0  0  0  0  0  0  0
   -0.0128   56.3794   74.0103 H   0  0  0  0  0  0  0  0  0  0  0  0
    2.0902   56.3235   72.6711 H   0  0  0  0  0  0  0  0  0  0  0  0
    3.0824   58.4631   71.8636 H   0  0  0  0  0  0  0  0  0  0  0  0
    1.9872   60.6259   72.3849 H   0  0  0  0  0  0  0  0  0  0  0  0
    1.0009   67.4937   70.5131 H   0  0  0  0  0  0  0  0  0  0  0  0
    2.5595   67.0538   69.7564 H   0  0  0  0  0  0  0  0  0  0  0  0
    1.4389   67.3622   67.4648 H   0  0  0  0  0  0  0  0  0  0  0  0
   -0.0055   67.9905   68.3119 H   0  0  0  0  0  0  0  0  0  0  0  0
    1.4487   69.9726   69.1099 H   0  0  0  0  0  0  0  0  0  0  0  0
    0.8161   67.8437   66.4287 H   0  0  0  0  0  0  0  0  0  0  0  0
    0.9004   68.9933   65.0295 H   0  0  0  0  0  0  0  0  0  0  0  0
    2.0582   66.2015   65.2833 H   0  0  0  0  0  0  0  0  0  0  0  0
    0.9219   66.9134   64.0284 H   0  0  0  0  0  0  0  0  0  0  0  0
    3.7757   66.6357   63.9405 H   0  0  0  0  0  0  0  0  0  0  0  0
    2.5910   67.2737   62.6997 H   0  0  0  0  0  0  0  0  0  0  0  0
    4.5356   68.8031   63.3660 H   0  0  0  0  0  0  0  0  0  0  0  0
    2.8624   69.4806   63.3944 H   0  0  0  0  0  0  0  0  0  0  0  0
    3.6210   70.0414   70.0662 H   0  0  0  0  0  0  0  0  0  0  0  0
    5.7931   71.0958   70.6601 H   0  0  0  0  0  0  0  0  0  0  0  0
    7.4860   71.5217   68.8802 H   0  0  0  0  0  0  0  0  0  0  0  0
    7.0103   70.8523   66.5376 H   0  0  0  0  0  0  0  0  0  0  0  0
  2  1  2  0
  3  1  1  0
  4  3  1  0
  5  4  1  0
  6  5  1  0
  7  6  1  0
  8  3  1  0
  8  7  1  0
  9  1  1  0
 10  9  1  0
 12 11  1  0
 12 10  1  0
 13 12  1  0
 14 13  2  0
 15 14  1  0
 16 15  2  0
 17 16  1  0
 18 17  2  0
 18 13  1  0
 19  6  1  0
 20 19  1  0
 21 20  1  0
 22 21  1  0
 23 22  1  0
 24 23  1  0
 25 24  1  0
 26 25  1  0
 27 26  1  0
 28 23  2  0
 28 27  1  0
 29 28  1  0
 30 29  2  0
 31 30  1  0
 31 22  2  0
 32 31  1  0
 33 32  2  0
 34 33  1  0
 35 34  2  0
 35 30  1  0
  4 36  1  0
  4 37  1  0
  5 38  1  0
  5 39  1  0
  6 40  1  0
  7 41  1  0
  7 42  1  0
  8 43  1  0
  8 44  1  0
  9 45  1  0
  9 46  1  0
 10 47  1  0
 10 48  1  0
 11 49  1  0
 11 50  1  0
 11 51  1  0
 14 52  1  0
 15 53  1  0
 16 54  1  0
 17 55  1  0
 18 56  1  0
 19 57  1  0
 19 58  1  0
 20 59  1  0
 20 60  1  0
 21 61  1  0
 24 62  1  0
 24 63  1  0
 25 64  1  0
 25 65  1  0
 26 66  1  0
 26 67  1  0
 27 68  1  0
 27 69  1  0
 32 70  1  0
 33 71  1  0
 34 72  1  0
 35 73  1  0
M  CHG  1   6   1
M  END
>  <score>  (2) 
-9.685

$$$$
=
     RDKit          3D

 73 77  0  0  0  0  0  0  0  0999 V2000
    0.4710   66.2440   69.7320 C   0  0  0  0  0  0  0  0  0  0  0  0
   -0.7360   66.4740   69.7010 O   0  0  0  0  0  0  0  0  0  0  0  0
    0.9680   65.0820   70.3360 N   0  0  0  0  0  0  0  0  0  0  0  0
   -0.0060   64.2760   71.0830 C   0  0  0  0  0  0  0  0  0  0  0  0
    0.4190   62.8130   71.2720 C   0  0  0  0  0  0  0  0  0  0  0  0
    1.8440   62.7140   71.7840 N   0  0  0  0  0  4  0  0  0  0  0  0
    2.7950   63.4510   70.8710 C   0  0  0  0  0  0  0  0  0  0  0  0
    2.3810   64.9210   70.7080 C   0  0  0  0  0  0  0  0  0  0  0  0
    1.4840   67.1840   69.1140 C   0  0  0  0  0  0  0  0  0  0  0  0
    1.1660   67.4730   67.6480 C   0  0  0  0  0  0  0  0  0  0  0  0
    0.5040   69.8740   67.6960 C   0  0  0  0  0  0  0  0  0  0  0  0
    1.5040   68.8700   67.3380 N   0  0  0  0  0  0  0  0  0  0  0  0
    2.7980   69.2600   66.9970 C   0  0  0  0  0  0  0  0  0  0  0  0
    3.6700   69.8730   67.9160 C   0  0  0  0  0  0  0  0  0  0  0  0
    4.9750   70.2550   67.5740 C   0  0  0  0  0  0  0  0  0  0  0  0
    5.4570   70.0280   66.2930 C   0  0  0  0  0  0  0  0  0  0  0  0
    4.6300   69.4210   65.3580 C   0  0  0  0  0  0  0  0  0  0  0  0
    3.3260   69.0460   65.7100 C   0  0  0  0  0  0  0  0  0  0  0  0
    2.0080   63.0180   73.2650 C   0  0  0  0  0  0  0  0  0  0  0  0
    1.2070   61.9700   74.0680 C   0  0  0  0  0  0  0  0  0  0  0  0
    2.1410   60.8920   74.5000 N   0  0  0  0  0  0  0  0  0  0  0  0
    1.8630   59.6990   73.7370 C   0  0  0  0  0  0  0  0  0  0  0  0
    2.7020   59.2950   72.6820 C   0  0  0  0  0  0  0  0  0  0  0  0
    3.8700   60.0740   72.1340 C   0  0  0  0  0  0  0  0  0  0  0  0
    3.9100   60.0330   70.6030 C   0  0  0  0  0  0  0  0  0  0  0  0
    3.6210   58.6570   69.9900 C   0  0  0  0  0  0  0  0  0  0  0  0
    3.3870   57.5560   71.0210 C   0  0  0  0  0  0  0  0  0  0  0  0
    2.4690   58.0400   72.1150 C   0  0  0  0  0  0  0  0  0  0  0  0
    1.4920   57.2040   72.5180 N   0  0  0  0  0  0  0  0  0  0  0  0
    0.6640   57.6020   73.4890 C   0  0  0  0  0  0  0  0  0  0  0  0
    0.7910   58.8490   74.1380 C   0  0  0  0  0  0  0  0  0  0  0  0
   -0.1620   59.1930   75.1260 C   0  0  0  0  0  0  0  0  0  0  0  0
   -1.1850   58.3170   75.4890 C   0  0  0  0  0  0  0  0  0  0  0  0
   -1.2780   57.0840   74.8640 C   0  0  0  0  0  0  0  0  0  0  0  0
   -0.3580   56.7430   73.8710 C   0  0  0  0  0  0  0  0  0  0  0  0
   -0.1427   64.7289   72.0760 H   0  0  0  0  0  0  0  0  0  0  0  0
   -0.9350   64.2673   70.4941 H   0  0  0  0  0  0  0  0  0  0  0  0
   -0.2561   62.3346   71.9968 H   0  0  0  0  0  0  0  0  0  0  0  0
    0.3648   62.3072   70.2967 H   0  0  0  0  0  0  0  0  0  0  0  0
    2.1101   61.7199   71.7418 H   0  0  0  0  0  0  0  0  0  0  0  0
    3.8078   63.4087   71.2982 H   0  0  0  0  0  0  0  0  0  0  0  0
    2.7710   62.9705   69.8818 H   0  0  0  0  0  0  0  0  0  0  0  0
    3.0039   65.3757   69.9237 H   0  0  0  0  0  0  0  0  0  0  0  0
    2.5229   65.4127   71.6817 H   0  0  0  0  0  0  0  0  0  0  0  0
    1.4790   68.1312   69.6733 H   0  0  0  0  0  0  0  0  0  0  0  0
    2.4721   66.7030   69.1621 H   0  0  0  0  0  0  0  0  0  0  0  0
    1.7558   66.8022   67.0060 H   0  0  0  0  0  0  0  0  0  0  0  0
    0.0939   67.3067   67.4663 H   0  0  0  0  0  0  0  0  0  0  0  0
    0.4324   69.9459   68.7913 H   0  0  0  0  0  0  0  0  0  0  0  0
    0.7998   70.8497   67.2831 H   0  0  0  0  0  0  0  0  0  0  0  0
   -0.4729   69.5821   67.2831 H   0  0  0  0  0  0  0  0  0  0  0  0
    3.3147   70.0593   68.9402 H   0  0  0  0  0  0  0  0  0  0  0  0
    5.6192   70.7366   68.3244 H   0  0  0  0  0  0  0  0  0  0  0  0
    6.4809   70.3251   66.0220 H   0  0  0  0  0  0  0  0  0  0  0  0
    4.9987   69.2338   64.3387 H   0  0  0  0  0  0  0  0  0  0  0  0
    2.6908   68.5659   64.9510 H   0  0  0  0  0  0  0  0  0  0  0  0
    3.0717   62.9636   73.5401 H   0  0  0  0  0  0  0  0  0  0  0  0
    1.6370   64.0294   73.4871 H   0  0  0  0  0  0  0  0  0  0  0  0
    0.7547   62.4452   74.9509 H   0  0  0  0  0  0  0  0  0  0  0  0
    0.4061   61.5475   73.4434 H   0  0  0  0  0  0  0  0  0  0  0  0
    2.8668   60.9835   75.2251 H   0  0  0  0  0  0  0  0  0  0  0  0
    3.7849   61.1210   72.4605 H   0  0  0  0  0  0  0  0  0  0  0  0
    4.7956   59.6167   72.5136 H   0  0  0  0  0  0  0  0  0  0  0  0
    3.1604   60.7420   70.2217 H   0  0  0  0  0  0  0  0  0  0  0  0
    4.9388   60.2922   70.3125 H   0  0  0  0  0  0  0  0  0  0  0  0
    2.7217   58.7399   69.3620 H   0  0  0  0  0  0  0  0  0  0  0  0
    4.5137   58.3705   69.4148 H   0  0  0  0  0  0  0  0  0  0  0  0
    2.9309   56.6868   70.5245 H   0  0  0  0  0  0  0  0  0  0  0  0
    4.3530   57.2761   71.4665 H   0  0  0  0  0  0  0  0  0  0  0  0
   -0.0945   60.1739   75.6191 H   0  0  0  0  0  0  0  0  0  0  0  0
   -1.9112   58.6025   76.2643 H   0  0  0  0  0  0  0  0  0  0  0  0
   -2.0721   56.3780   75.1486 H   0  0  0  0  0  0  0  0  0  0  0  0
   -0.4453   55.7644   73.3763 H   0  0  0  0  0  0  0  0  0  0  0  0
  2  1  2  0
  3  1  1  0
  4  3  1  0
  5  4  1  0
  6  5  1  0
  7  6  1  0
  8  3  1  0
  8  7  1  0
  9  1  1  0
 10  9  1  0
 12 11  1  0
 12 10  1  0
 13 12  1  0
 14 13  2  0
 15 14  1  0
 16 15  2  0
 17 16  1  0
 18 17  2  0
 18 13  1  0
 19  6  1  0
 20 19  1  0
 21 20  1  0
 22 21  1  0
 23 22  1  0
 24 23  1  0
 25 24  1  0
 26 25  1  0
 27 26  1  0
 28 23  2  0
 28 27  1  0
 29 28  1  0
 30 29  2  0
 31 30  1  0
 31 22  2  0
 32 31  1  0
 33 32  2  0
 34 33  1  0
 35 34  2  0
 35 30  1  0
  4 36  1  0
  4 37  1  0
  5 38  1  0
  5 39  1  0
  6 40  1  0
  7 41  1  0
  7 42  1  0
  8 43  1  0
  8 44  1  0
  9 45  1  0
  9 46  1  0
 10 47  1  0
 10 48  1  0
 11 49  1  0
 11 50  1  0
 11 51  1  0
 14 52  1  0
 15 53  1  0
 16 54  1  0
 17 55  1  0
 18 56  1  0
 19 57  1  0
 19 58  1  0
 20 59  1  0
 20 60  1  0
 21 61  1  0
 24 62  1  0
 24 63  1  0
 25 64  1  0
 25 65  1  0
 26 66  1  0
 26 67  1  0
 27 68  1  0
 27 69  1  0
 32 70  1  0
 33 71  1  0
 34 72  1  0
 35 73  1  0
M  CHG  1   6   1
M  END
>  <score>  (3) 
-9.53

$$$$
=
     RDKit          3D

 73 77  0  0  0  0  0  0  0  0999 V2000
    0.4680   68.3230   68.0330 C   0  0  0  0  0  0  0  0  0  0  0  0
   -0.6060   68.6690   67.5470 O   0  0  0  0  0  0  0  0  0  0  0  0
    0.5740   67.1440   68.7810 N   0  0  0  0  0  0  0  0  0  0  0  0
   -0.6900   66.4690   69.1060 C   0  0  0  0  0  0  0  0  0  0  0  0
   -0.5250   64.9810   69.4440 C   0  0  0  0  0  0  0  0  0  0  0  0
    0.5830   64.7630   70.4570 N   0  0  0  0  0  4  0  0  0  0  0  0
    1.8810   65.3650   69.9710 C   0  0  0  0  0  0  0  0  0  0  0  0
    1.7180   66.8600   69.6600 C   0  0  0  0  0  0  0  0  0  0  0  0
    1.7330   69.1310   67.8420 C   0  0  0  0  0  0  0  0  0  0  0  0
    2.0850   69.2920   66.3640 C   0  0  0  0  0  0  0  0  0  0  0  0
    3.9300   68.3980   64.9480 C   0  0  0  0  0  0  0  0  0  0  0  0
    3.5270   69.0800   66.1760 N   0  0  0  0  0  0  0  0  0  0  0  0
    4.4790   69.7330   66.9580 C   0  0  0  0  0  0  0  0  0  0  0  0
    4.1810   70.2590   68.2290 C   0  0  0  0  0  0  0  0  0  0  0  0
    5.1420   70.9060   69.0200 C   0  0  0  0  0  0  0  0  0  0  0  0
    6.4460   71.0430   68.5630 C   0  0  0  0  0  0  0  0  0  0  0  0
    6.7810   70.5330   67.3160 C   0  0  0  0  0  0  0  0  0  0  0  0
    5.8110   69.8900   66.5340 C   0  0  0  0  0  0  0  0  0  0  0  0
    0.2090   65.1120   71.8890 C   0  0  0  0  0  0  0  0  0  0  0  0
    0.2700   63.8210   72.7350 C   0  0  0  0  0  0  0  0  0  0  0  0
   -0.4380   62.7390   71.9950 N   0  0  0  0  0  0  0  0  0  0  0  0
    0.0980   61.4630   72.4060 C   0  0  0  0  0  0  0  0  0  0  0  0
    1.4060   61.0760   72.0610 C   0  0  0  0  0  0  0  0  0  0  0  0
    2.3400   61.8310   71.1500 C   0  0  0  0  0  0  0  0  0  0  0  0
    3.0840   60.8910   70.1950 C   0  0  0  0  0  0  0  0  0  0  0  0
    3.6060   59.6020   70.8430 C   0  0  0  0  0  0  0  0  0  0  0  0
    3.3310   59.5050   72.3400 C   0  0  0  0  0  0  0  0  0  0  0  0
    1.9130   59.9140   72.6470 C   0  0  0  0  0  0  0  0  0  0  0  0
    1.2210   59.1490   73.5140 N   0  0  0  0  0  0  0  0  0  0  0  0
   -0.0380   59.4870   73.8100 C   0  0  0  0  0  0  0  0  0  0  0  0
   -0.6650   60.6350   73.2790 C   0  0  0  0  0  0  0  0  0  0  0  0
   -2.0150   60.8830   73.6240 C   0  0  0  0  0  0  0  0  0  0  0  0
   -2.7110   60.0450   74.4940 C   0  0  0  0  0  0  0  0  0  0  0  0
   -2.0720   58.9380   75.0300 C   0  0  0  0  0  0  0  0  0  0  0  0
   -0.7480   58.6700   74.6800 C   0  0  0  0  0  0  0  0  0  0  0  0
   -1.1407   66.9743   69.9729 H   0  0  0  0  0  0  0  0  0  0  0  0
   -1.3253   66.5268   68.2099 H   0  0  0  0  0  0  0  0  0  0  0  0
   -1.4700   64.6016   69.8600 H   0  0  0  0  0  0  0  0  0  0  0  0
   -0.2610   64.4436   68.5212 H   0  0  0  0  0  0  0  0  0  0  0  0
    0.7376   63.7466   70.5198 H   0  0  0  0  0  0  0  0  0  0  0  0
    2.6474   65.2422   70.7504 H   0  0  0  0  0  0  0  0  0  0  0  0
    2.1804   64.8478   69.0475 H   0  0  0  0  0  0  0  0  0  0  0  0
    2.6347   67.2174   69.1683 H   0  0  0  0  0  0  0  0  0  0  0  0
    1.5350   67.3759   70.6141 H   0  0  0  0  0  0  0  0  0  0  0  0
    1.5892   70.1278   68.2845 H   0  0  0  0  0  0  0  0  0  0  0  0
    2.5585   68.5957   68.3340 H   0  0  0  0  0  0  0  0  0  0  0  0
    1.5258   68.5528   65.7716 H   0  0  0  0  0  0  0  0  0  0  0  0
    1.8181   70.3064   66.0328 H   0  0  0  0  0  0  0  0  0  0  0  0
    4.4745   67.4766   65.2021 H   0  0  0  0  0  0  0  0  0  0  0  0
    3.0362   68.1451   64.3588 H   0  0  0  0  0  0  0  0  0  0  0  0
    4.5827   69.0589   64.3588 H   0  0  0  0  0  0  0  0  0  0  0  0
    3.1564   70.1590   68.6165 H   0  0  0  0  0  0  0  0  0  0  0  0
    4.8616   71.3061   70.0055 H   0  0  0  0  0  0  0  0  0  0  0  0
    7.2031   71.5486   69.1804 H   0  0  0  0  0  0  0  0  0  0  0  0
    7.8100   70.6336   66.9405 H   0  0  0  0  0  0  0  0  0  0  0  0
    6.1030   69.4929   65.5506 H   0  0  0  0  0  0  0  0  0  0  0  0
    0.9177   65.8523   72.2886 H   0  0  0  0  0  0  0  0  0  0  0  0
   -0.8040   65.5394   71.9225 H   0  0  0  0  0  0  0  0  0  0  0  0
    1.3191   63.5337   72.8990 H   0  0  0  0  0  0  0  0  0  0  0  0
   -0.2088   63.9864   73.7114 H   0  0  0  0  0  0  0  0  0  0  0  0
   -1.1879   62.8786   71.3028 H   0  0  0  0  0  0  0  0  0  0  0  0
    1.7559   62.5511   70.5582 H   0  0  0  0  0  0  0  0  0  0  0  0
    3.0854   62.3459   71.7739 H   0  0  0  0  0  0  0  0  0  0  0  0
    2.3961   60.6123   69.3832 H   0  0  0  0  0  0  0  0  0  0  0  0
    3.9683   61.4420   69.8422 H   0  0  0  0  0  0  0  0  0  0  0  0
    3.1252   58.7461   70.3468 H   0  0  0  0  0  0  0  0  0  0  0  0
    4.6991   59.6038   70.7196 H   0  0  0  0  0  0  0  0  0  0  0  0
    3.4873   58.4673   72.6697 H   0  0  0  0  0  0  0  0  0  0  0  0
    4.0176   60.1807   72.8710 H   0  0  0  0  0  0  0  0  0  0  0  0
   -2.5270   61.7573   73.1957 H   0  0  0  0  0  0  0  0  0  0  0  0
   -3.7582   60.2605   74.7528 H   0  0  0  0  0  0  0  0  0  0  0  0
   -2.6053   58.2748   75.7270 H   0  0  0  0  0  0  0  0  0  0  0  0
   -0.2520   57.7853   75.1059 H   0  0  0  0  0  0  0  0  0  0  0  0
  2  1  2  0
  3  1  1  0
  4  3  1  0
  5  4  1  0
  6  5  1  0
  7  6  1  0
  8  3  1  0
  8  7  1  0
  9  1  1  0
 10  9  1  0
 12 11  1  0
 12 10  1  0
 13 12  1  0
 14 13  2  0
 15 14  1  0
 16 15  2  0
 17 16  1  0
 18 17  2  0
 18 13  1  0
 19  6  1  0
 20 19  1  0
 21 20  1  0
 22 21  1  0
 23 22  1  0
 24 23  1  0
 25 24  1  0
 26 25  1  0
 27 26  1  0
 28 23  2  0
 28 27  1  0
 29 28  1  0
 30 29  2  0
 31 30  1  0
 31 22  2  0
 32 31  1  0
 33 32  2  0
 34 33  1  0
 35 34  2  0
 35 30  1  0
  4 36  1  0
  4 37  1  0
  5 38  1  0
  5 39  1  0
  6 40  1  0
  7 41  1  0
  7 42  1  0
  8 43  1  0
  8 44  1  0
  9 45  1  0
  9 46  1  0
 10 47  1  0
 10 48  1  0
 11 49  1  0
 11 50  1  0
 11 51  1  0
 14 52  1  0
 15 53  1  0
 16 54  1  0
 17 55  1  0
 18 56  1  0
 19 57  1  0
 19 58  1  0
 20 59  1  0
 20 60  1  0
 21 61  1  0
 24 62  1  0
 24 63  1  0
 25 64  1  0
 25 65  1  0
 26 66  1  0
 26 67  1  0
 27 68  1  0
 27 69  1  0
 32 70  1  0
 33 71  1  0
 34 72  1  0
 35 73  1  0
M  CHG  1   6   1
M  END
>  <score>  (4) 
-9.357

$$$$
=
     RDKit          3D

 73 77  0  0  0  0  0  0  0  0999 V2000
    0.6030   66.0290   70.3140 C   0  0  0  0  0  0  0  0  0  0  0  0
   -0.4110   66.3540   70.9290 O   0  0  0  0  0  0  0  0  0  0  0  0
    1.1850   64.7690   70.4990 N   0  0  0  0  0  0  0  0  0  0  0  0
    0.6350   63.9580   71.5930 C   0  0  0  0  0  0  0  0  0  0  0  0
    0.9060   62.4550   71.4430 C   0  0  0  0  0  0  0  0  0  0  0  0
    2.3670   62.1850   71.1320 N   0  0  0  0  0  4  0  0  0  0  0  0
    2.8050   62.9500   69.9050 C   0  0  0  0  0  0  0  0  0  0  0  0
    2.5560   64.4560   70.0710 C   0  0  0  0  0  0  0  0  0  0  0  0
    1.2680   66.9540   69.3180 C   0  0  0  0  0  0  0  0  0  0  0  0
    0.3410   67.2930   68.1520 C   0  0  0  0  0  0  0  0  0  0  0  0
   -0.3960   69.6260   67.6790 C   0  0  0  0  0  0  0  0  0  0  0  0
    0.6710   68.6270   67.6330 N   0  0  0  0  0  0  0  0  0  0  0  0
    1.9850   69.0190   67.3800 C   0  0  0  0  0  0  0  0  0  0  0  0
    2.6460   68.7170   66.1750 C   0  0  0  0  0  0  0  0  0  0  0  0
    3.9640   69.1220   65.9170 C   0  0  0  0  0  0  0  0  0  0  0  0
    4.6670   69.8530   66.8640 C   0  0  0  0  0  0  0  0  0  0  0  0
    4.0500   70.1750   68.0640 C   0  0  0  0  0  0  0  0  0  0  0  0
    2.7330   69.7640   68.3120 C   0  0  0  0  0  0  0  0  0  0  0  0
    3.3010   62.2990   72.3270 C   0  0  0  0  0  0  0  0  0  0  0  0
    3.3250   60.9370   73.0550 C   0  0  0  0  0  0  0  0  0  0  0  0
    3.0370   61.1700   74.4990 N   0  0  0  0  0  0  0  0  0  0  0  0
    1.6310   60.9450   74.7370 C   0  0  0  0  0  0  0  0  0  0  0  0
    1.0860   59.6480   74.7220 C   0  0  0  0  0  0  0  0  0  0  0  0
    1.8200   58.3870   74.3430 C   0  0  0  0  0  0  0  0  0  0  0  0
    0.9590   57.4740   73.4630 C   0  0  0  0  0  0  0  0  0  0  0  0
   -0.5020   57.3420   73.9110 C   0  0  0  0  0  0  0  0  0  0  0  0
   -0.8310   58.1120   75.1870 C   0  0  0  0  0  0  0  0  0  0  0  0
   -0.2380   59.4970   75.1390 C   0  0  0  0  0  0  0  0  0  0  0  0
   -1.0160   60.5180   75.5480 N   0  0  0  0  0  0  0  0  0  0  0  0
   -0.5180   61.7590   75.5210 C   0  0  0  0  0  0  0  0  0  0  0  0
    0.8030   62.0420   75.1150 C   0  0  0  0  0  0  0  0  0  0  0  0
    1.2210   63.3940   75.0840 C   0  0  0  0  0  0  0  0  0  0  0  0
    0.3730   64.4290   75.4770 C   0  0  0  0  0  0  0  0  0  0  0  0
   -0.9120   64.1310   75.9010 C   0  0  0  0  0  0  0  0  0  0  0  0
   -1.3430   62.8040   75.9140 C   0  0  0  0  0  0  0  0  0  0  0  0
    1.0835   64.2992   72.5377 H   0  0  0  0  0  0  0  0  0  0  0  0
   -0.4567   64.0913   71.5746 H   0  0  0  0  0  0  0  0  0  0  0  0
    0.6401   61.9477   72.3821 H   0  0  0  0  0  0  0  0  0  0  0  0
    0.2980   62.0747   70.6089 H   0  0  0  0  0  0  0  0  0  0  0  0
    2.4441   61.1851   70.8970 H   0  0  0  0  0  0  0  0  0  0  0  0
    3.8793   62.7800   69.7407 H   0  0  0  0  0  0  0  0  0  0  0  0
    2.2197   62.5930   69.0448 H   0  0  0  0  0  0  0  0  0  0  0  0
    2.7433   64.9504   69.1064 H   0  0  0  0  0  0  0  0  0  0  0  0
    3.2359   64.8167   70.8569 H   0  0  0  0  0  0  0  0  0  0  0  0
    1.5506   67.8853   69.8306 H   0  0  0  0  0  0  0  0  0  0  0  0
    2.1531   66.4413   68.9133 H   0  0  0  0  0  0  0  0  0  0  0  0
    0.4691   66.5474   67.3535 H   0  0  0  0  0  0  0  0  0  0  0  0
   -0.7025   67.2838   68.4998 H   0  0  0  0  0  0  0  0  0  0  0  0
   -0.6397   69.8542   68.7271 H   0  0  0  0  0  0  0  0  0  0  0  0
   -0.0616   70.5433   67.1722 H   0  0  0  0  0  0  0  0  0  0  0  0
   -1.2893   69.2320   67.1722 H   0  0  0  0  0  0  0  0  0  0  0  0
    2.1090   68.1417   65.4065 H   0  0  0  0  0  0  0  0  0  0  0  0
    4.4415   68.8594   64.9615 H   0  0  0  0  0  0  0  0  0  0  0  0
    5.7005   70.1731   66.6657 H   0  0  0  0  0  0  0  0  0  0  0  0
    4.5958   70.7545   68.8231 H   0  0  0  0  0  0  0  0  0  0  0  0
    2.2661   70.0336   69.2708 H   0  0  0  0  0  0  0  0  0  0  0  0
    4.3142   62.5554   71.9841 H   0  0  0  0  0  0  0  0  0  0  0  0
    2.9496   63.0873   73.0090 H   0  0  0  0  0  0  0  0  0  0  0  0
    2.5601   60.2730   72.6261 H   0  0  0  0  0  0  0  0  0  0  0  0
    4.3108   60.4633   72.9379 H   0  0  0  0  0  0  0  0  0  0  0  0
    3.7283   61.4464   75.2107 H   0  0  0  0  0  0  0  0  0  0  0  0
    2.7323   58.6575   73.7911 H   0  0  0  0  0  0  0  0  0  0  0  0
    2.0656   57.8419   75.2663 H   0  0  0  0  0  0  0  0  0  0  0  0
    0.9682   57.8770   72.4395 H   0  0  0  0  0  0  0  0  0  0  0  0
    1.3981   56.4681   73.5368 H   0  0  0  0  0  0  0  0  0  0  0  0
   -1.1470   57.7187   73.1035 H   0  0  0  0  0  0  0  0  0  0  0  0
   -0.6738   56.2774   74.1280 H   0  0  0  0  0  0  0  0  0  0  0  0
   -1.9233   58.1899   75.2907 H   0  0  0  0  0  0  0  0  0  0  0  0
   -0.4045   57.5733   76.0461 H   0  0  0  0  0  0  0  0  0  0  0  0
    2.2386   63.6339   74.7419 H   0  0  0  0  0  0  0  0  0  0  0  0
    0.7210   65.4722   75.4506 H   0  0  0  0  0  0  0  0  0  0  0  0
   -1.5882   64.9357   76.2254 H   0  0  0  0  0  0  0  0  0  0  0  0
   -2.3674   62.5791   76.2457 H   0  0  0  0  0  0  0  0  0  0  0  0
  2  1  2  0
  3  1  1  0
  4  3  1  0
  5  4  1  0
  6  5  1  0
  7  6  1  0
  8  3  1  0
  8  7  1  0
  9  1  1  0
 10  9  1  0
 12 11  1  0
 12 10  1  0
 13 12  1  0
 14 13  2  0
 15 14  1  0
 16 15  2  0
 17 16  1  0
 18 17  2  0
 18 13  1  0
 19  6  1  0
 20 19  1  0
 21 20  1  0
 22 21  1  0
 23 22  1  0
 24 23  1  0
 25 24  1  0
 26 25  1  0
 27 26  1  0
 28 23  2  0
 28 27  1  0
 29 28  1  0
 30 29  2  0
 31 30  1  0
 31 22  2  0
 32 31  1  0
 33 32  2  0
 34 33  1  0
 35 34  2  0
 35 30  1  0
  4 36  1  0
  4 37  1  0
  5 38  1  0
  5 39  1  0
  6 40  1  0
  7 41  1  0
  7 42  1  0
  8 43  1  0
  8 44  1  0
  9 45  1  0
  9 46  1  0
 10 47  1  0
 10 48  1  0
 11 49  1  0
 11 50  1  0
 11 51  1  0
 14 52  1  0
 15 53  1  0
 16 54  1  0
 17 55  1  0
 18 56  1  0
 19 57  1  0
 19 58  1  0
 20 59  1  0
 20 60  1  0
 21 61  1  0
 24 62  1  0
 24 63  1  0
 25 64  1  0
 25 65  1  0
 26 66  1  0
 26 67  1  0
 27 68  1  0
 27 69  1  0
 32 70  1  0
 33 71  1  0
 34 72  1  0
 35 73  1  0
M  CHG  1   6   1
M  END
>  <score>  (5) 
-9.337

$$$$
=
     RDKit          3D

 73 77  0  0  0  0  0  0  0  0999 V2000
    2.8930   63.0650   70.0150 C   0  0  0  0  0  0  0  0  0  0  0  0
    3.4530   63.1880   68.9280 O   0  0  0  0  0  0  0  0  0  0  0  0
    3.4190   62.2250   71.0050 N   0  0  0  0  0  0  0  0  0  0  0  0
    4.5440   61.3720   70.5970 C   0  0  0  0  0  0  0  0  0  0  0  0
    5.4030   60.8820   71.7710 C   0  0  0  0  0  0  0  0  0  0  0  0
    4.5440   60.3050   72.8820 N   0  0  0  0  0  4  0  0  0  0  0  0
    3.5100   61.3080   73.3360 C   0  0  0  0  0  0  0  0  0  0  0  0
    2.6350   61.7740   72.1630 C   0  0  0  0  0  0  0  0  0  0  0  0
    1.6250   63.8160   70.3540 C   0  0  0  0  0  0  0  0  0  0  0  0
    1.8180   65.3290   70.2550 C   0  0  0  0  0  0  0  0  0  0  0  0
   -0.2930   66.0540   71.3610 C   0  0  0  0  0  0  0  0  0  0  0  0
    0.5080   65.9860   70.1410 N   0  0  0  0  0  0  0  0  0  0  0  0
    0.1590   66.7540   69.0310 C   0  0  0  0  0  0  0  0  0  0  0  0
    1.0440   67.6760   68.4410 C   0  0  0  0  0  0  0  0  0  0  0  0
    0.6960   68.4400   67.3180 C   0  0  0  0  0  0  0  0  0  0  0  0
   -0.5570   68.3000   66.7390 C   0  0  0  0  0  0  0  0  0  0  0  0
   -1.4570   67.3970   67.2870 C   0  0  0  0  0  0  0  0  0  0  0  0
   -1.0990   66.6400   68.4120 C   0  0  0  0  0  0  0  0  0  0  0  0
    4.0090   58.9080   72.6080 C   0  0  0  0  0  0  0  0  0  0  0  0
    2.7650   58.6820   73.4940 C   0  0  0  0  0  0  0  0  0  0  0  0
    1.7330   57.9740   72.6840 N   0  0  0  0  0  0  0  0  0  0  0  0
    0.5580   57.7710   73.4990 C   0  0  0  0  0  0  0  0  0  0  0  0
    0.3470   56.5630   74.1860 C   0  0  0  0  0  0  0  0  0  0  0  0
    1.1950   55.3220   74.0720 C   0  0  0  0  0  0  0  0  0  0  0  0
    0.3380   54.0530   74.0010 C   0  0  0  0  0  0  0  0  0  0  0  0
   -0.8440   54.0220   74.9790 C   0  0  0  0  0  0  0  0  0  0  0  0
   -0.9300   55.2460   75.8850 C   0  0  0  0  0  0  0  0  0  0  0  0
   -0.7140   56.5100   75.0930 C   0  0  0  0  0  0  0  0  0  0  0  0
   -1.5400   57.5460   75.3410 N   0  0  0  0  0  0  0  0  0  0  0  0
   -1.3710   58.6820   74.6570 C   0  0  0  0  0  0  0  0  0  0  0  0
   -0.3400   58.8570   73.7100 C   0  0  0  0  0  0  0  0  0  0  0  0
   -0.2730   60.0860   73.0100 C   0  0  0  0  0  0  0  0  0  0  0  0
   -1.1710   61.1210   73.2650 C   0  0  0  0  0  0  0  0  0  0  0  0
   -2.1600   60.9440   74.2200 C   0  0  0  0  0  0  0  0  0  0  0  0
   -2.2510   59.7280   74.9000 C   0  0  0  0  0  0  0  0  0  0  0  0
    4.1413   60.4939   70.0709 H   0  0  0  0  0  0  0  0  0  0  0  0
    5.1951   61.9833   69.9548 H   0  0  0  0  0  0  0  0  0  0  0  0
    6.0919   60.1040   71.4103 H   0  0  0  0  0  0  0  0  0  0  0  0
    5.9606   61.7402   72.1743 H   0  0  0  0  0  0  0  0  0  0  0  0
    5.1641   60.1396   73.6876 H   0  0  0  0  0  0  0  0  0  0  0  0
    2.8689   60.8420   74.0988 H   0  0  0  0  0  0  0  0  0  0  0  0
    4.0322   62.1832   73.7499 H   0  0  0  0  0  0  0  0  0  0  0  0
    2.0047   62.6078   72.5056 H   0  0  0  0  0  0  0  0  0  0  0  0
    2.0345   60.9116   71.8378 H   0  0  0  0  0  0  0  0  0  0  0  0
    0.8329   63.5115   69.6541 H   0  0  0  0  0  0  0  0  0  0  0  0
    1.3507   63.5733   71.3912 H   0  0  0  0  0  0  0  0  0  0  0  0
    2.3327   65.6923   71.1567 H   0  0  0  0  0  0  0  0  0  0  0  0
    2.4230   65.5631   69.3666 H   0  0  0  0  0  0  0  0  0  0  0  0
    0.3689   65.9978   72.2378 H   0  0  0  0  0  0  0  0  0  0  0  0
   -0.8495   67.0026   71.3819 H   0  0  0  0  0  0  0  0  0  0  0  0
   -1.0014   65.2128   71.3819 H   0  0  0  0  0  0  0  0  0  0  0  0
    2.0459   67.8018   68.8772 H   0  0  0  0  0  0  0  0  0  0  0  0
    1.4189   69.1528   66.8946 H   0  0  0  0  0  0  0  0  0  0  0  0
   -0.8334   68.8968   65.8573 H   0  0  0  0  0  0  0  0  0  0  0  0
   -2.4537   67.2747   66.8379 H   0  0  0  0  0  0  0  0  0  0  0  0
   -1.8299   65.9299   68.8262 H   0  0  0  0  0  0  0  0  0  0  0  0
    3.7315   58.8175   71.5474 H   0  0  0  0  0  0  0  0  0  0  0  0
    4.7786   58.1561   72.8370 H   0  0  0  0  0  0  0  0  0  0  0  0
    3.0366   58.0699   74.3667 H   0  0  0  0  0  0  0  0  0  0  0  0
    2.3720   59.6468   73.8471 H   0  0  0  0  0  0  0  0  0  0  0  0
    1.8404   57.6780   71.7033 H   0  0  0  0  0  0  0  0  0  0  0  0
    1.8062   55.3907   73.1600 H   0  0  0  0  0  0  0  0  0  0  0  0
    1.8293   55.2571   74.9683 H   0  0  0  0  0  0  0  0  0  0  0  0
   -0.0602   53.9652   72.9794 H   0  0  0  0  0  0  0  0  0  0  0  0
    0.9960   53.2176   74.2823 H   0  0  0  0  0  0  0  0  0  0  0  0
   -1.7743   53.9570   74.3957 H   0  0  0  0  0  0  0  0  0  0  0  0
   -0.6936   53.1508   75.6335 H   0  0  0  0  0  0  0  0  0  0  0  0
   -1.9244   55.2791   76.3541 H   0  0  0  0  0  0  0  0  0  0  0  0
   -0.1477   55.1724   76.6548 H   0  0  0  0  0  0  0  0  0  0  0  0
    0.5064   60.2273   72.2467 H   0  0  0  0  0  0  0  0  0  0  0  0
   -1.0956   62.0697   72.7134 H   0  0  0  0  0  0  0  0  0  0  0  0
   -2.8684   61.7561   74.4406 H   0  0  0  0  0  0  0  0  0  0  0  0
   -3.0438   59.5947   75.6508 H   0  0  0  0  0  0  0  0  0  0  0  0
  2  1  2  0
  3  1  1  0
  4  3  1  0
  5  4  1  0
  6  5  1  0
  7  6  1  0
  8  3  1  0
  8  7  1  0
  9  1  1  0
 10  9  1  0
 12 11  1  0
 12 10  1  0
 13 12  1  0
 14 13  2  0
 15 14  1  0
 16 15  2  0
 17 16  1  0
 18 17  2  0
 18 13  1  0
 19  6  1  0
 20 19  1  0
 21 20  1  0
 22 21  1  0
 23 22  1  0
 24 23  1  0
 25 24  1  0
 26 25  1  0
 27 26  1  0
 28 23  2  0
 28 27  1  0
 29 28  1  0
 30 29  2  0
 31 30  1  0
 31 22  2  0
 32 31  1  0
 33 32  2  0
 34 33  1  0
 35 34  2  0
 35 30  1  0
  4 36  1  0
  4 37  1  0
  5 38  1  0
  5 39  1  0
  6 40  1  0
  7 41  1  0
  7 42  1  0
  8 43  1  0
  8 44  1  0
  9 45  1  0
  9 46  1  0
 10 47  1  0
 10 48  1  0
 11 49  1  0
 11 50  1  0
 11 51  1  0
 14 52  1  0
 15 53  1  0
 16 54  1  0
 17 55  1  0
 18 56  1  0
 19 57  1  0
 19 58  1  0
 20 59  1  0
 20 60  1  0
 21 61  1  0
 24 62  1  0
 24 63  1  0
 25 64  1  0
 25 65  1  0
 26 66  1  0
 26 67  1  0
 27 68  1  0
 27 69  1  0
 32 70  1  0
 33 71  1  0
 34 72  1  0
 35 73  1  0
M  CHG  1   6   1
M  END
>  <score>  (6) 
-9.311

$$$$
=
     RDKit          3D

 73 77  0  0  0  0  0  0  0  0999 V2000
    0.6190   66.0950   70.2900 C   0  0  0  0  0  0  0  0  0  0  0  0
   -0.4230   66.4260   70.8500 O   0  0  0  0  0  0  0  0  0  0  0  0
    1.1740   64.8240   70.4930 N   0  0  0  0  0  0  0  0  0  0  0  0
    0.5510   64.0080   71.5440 C   0  0  0  0  0  0  0  0  0  0  0  0
    0.8110   62.5040   71.3920 C   0  0  0  0  0  0  0  0  0  0  0  0
    2.2830   62.2170   71.1620 N   0  0  0  0  0  4  0  0  0  0  0  0
    2.8010   62.9890   69.9710 C   0  0  0  0  0  0  0  0  0  0  0  0
    2.5630   64.4970   70.1410 C   0  0  0  0  0  0  0  0  0  0  0  0
    1.3540   67.0210   69.3450 C   0  0  0  0  0  0  0  0  0  0  0  0
    0.5310   67.3210   68.0930 C   0  0  0  0  0  0  0  0  0  0  0  0
   -0.1850   69.6810   67.7360 C   0  0  0  0  0  0  0  0  0  0  0  0
    0.8580   68.6660   67.6010 N   0  0  0  0  0  0  0  0  0  0  0  0
    2.1650   69.0440   67.2910 C   0  0  0  0  0  0  0  0  0  0  0  0
    2.7690   68.7350   66.0580 C   0  0  0  0  0  0  0  0  0  0  0  0
    4.0790   69.1250   65.7440 C   0  0  0  0  0  0  0  0  0  0  0  0
    4.8310   69.8480   66.6590 C   0  0  0  0  0  0  0  0  0  0  0  0
    4.2700   70.1770   67.8850 C   0  0  0  0  0  0  0  0  0  0  0  0
    2.9600   69.7800   68.1890 C   0  0  0  0  0  0  0  0  0  0  0  0
    3.1480   62.3040   72.4100 C   0  0  0  0  0  0  0  0  0  0  0  0
    3.4170   60.8700   72.9150 C   0  0  0  0  0  0  0  0  0  0  0  0
    3.0900   60.8130   74.3680 N   0  0  0  0  0  0  0  0  0  0  0  0
    1.7120   60.4090   74.5220 C   0  0  0  0  0  0  0  0  0  0  0  0
    0.7150   61.3360   74.8760 C   0  0  0  0  0  0  0  0  0  0  0  0
    0.9430   62.7760   75.2600 C   0  0  0  0  0  0  0  0  0  0  0  0
    0.0800   63.1860   76.4580 C   0  0  0  0  0  0  0  0  0  0  0  0
   -1.3680   62.6820   76.4080 C   0  0  0  0  0  0  0  0  0  0  0  0
   -1.7070   61.8950   75.1460 C   0  0  0  0  0  0  0  0  0  0  0  0
   -0.6130   60.9080   74.8260 C   0  0  0  0  0  0  0  0  0  0  0  0
   -0.9870   59.6650   74.4630 N   0  0  0  0  0  0  0  0  0  0  0  0
   -0.0410   58.7680   74.1690 C   0  0  0  0  0  0  0  0  0  0  0  0
    1.3360   59.0760   74.1880 C   0  0  0  0  0  0  0  0  0  0  0  0
    2.2590   58.0430   73.9000 C   0  0  0  0  0  0  0  0  0  0  0  0
    1.8350   56.7570   73.5670 C   0  0  0  0  0  0  0  0  0  0  0  0
    0.4780   56.4780   73.5240 C   0  0  0  0  0  0  0  0  0  0  0  0
   -0.4420   57.4830   73.8280 C   0  0  0  0  0  0  0  0  0  0  0  0
    0.9483   64.3326   72.5170 H   0  0  0  0  0  0  0  0  0  0  0  0
   -0.5361   64.1561   71.4641 H   0  0  0  0  0  0  0  0  0  0  0  0
    0.4851   61.9901   72.3083 H   0  0  0  0  0  0  0  0  0  0  0  0
    0.2473   62.1417   70.5197 H   0  0  0  0  0  0  0  0  0  0  0  0
    2.3602   61.2189   70.9197 H   0  0  0  0  0  0  0  0  0  0  0  0
    3.8805   62.8056   69.8663 H   0  0  0  0  0  0  0  0  0  0  0  0
    2.2615   62.6499   69.0744 H   0  0  0  0  0  0  0  0  0  0  0  0
    2.8124   64.9999   69.1950 H   0  0  0  0  0  0  0  0  0  0  0  0
    3.2011   64.8391   70.9691 H   0  0  0  0  0  0  0  0  0  0  0  0
    1.5674   67.9659   69.8661 H   0  0  0  0  0  0  0  0  0  0  0  0
    2.2843   66.5240   69.0327 H   0  0  0  0  0  0  0  0  0  0  0  0
    0.7643   66.5794   67.3148 H   0  0  0  0  0  0  0  0  0  0  0  0
   -0.5401   67.2714   68.3385 H   0  0  0  0  0  0  0  0  0  0  0  0
   -0.3780   69.8688   68.8025 H   0  0  0  0  0  0  0  0  0  0  0  0
    0.1454   70.6127   67.2535 H   0  0  0  0  0  0  0  0  0  0  0  0
   -1.1074   69.3254   67.2535 H   0  0  0  0  0  0  0  0  0  0  0  0
    2.1924   68.1667   65.3132 H   0  0  0  0  0  0  0  0  0  0  0  0
    4.5119   68.8568   64.7690 H   0  0  0  0  0  0  0  0  0  0  0  0
    5.8585   70.1564   66.4158 H   0  0  0  0  0  0  0  0  0  0  0  0
    4.8542   70.7504   68.6198 H   0  0  0  0  0  0  0  0  0  0  0  0
    2.5376   70.0544   69.1669 H   0  0  0  0  0  0  0  0  0  0  0  0
    4.1007   62.7980   72.1684 H   0  0  0  0  0  0  0  0  0  0  0  0
    2.6341   62.8890   73.1870 H   0  0  0  0  0  0  0  0  0  0  0  0
    2.7854   60.1576   72.3640 H   0  0  0  0  0  0  0  0  0  0  0  0
    4.4725   60.6050   72.7548 H   0  0  0  0  0  0  0  0  0  0  0  0
    3.7408   61.0269   75.1371 H   0  0  0  0  0  0  0  0  0  0  0  0
    2.0029   62.9119   75.5209 H   0  0  0  0  0  0  0  0  0  0  0  0
    0.6639   63.4078   74.4038 H   0  0  0  0  0  0  0  0  0  0  0  0
    0.5495   62.7891   77.3702 H   0  0  0  0  0  0  0  0  0  0  0  0
    0.0271   64.2846   76.4410 H   0  0  0  0  0  0  0  0  0  0  0  0
   -1.5380   62.0308   77.2781 H   0  0  0  0  0  0  0  0  0  0  0  0
   -2.0152   63.5714   76.4123 H   0  0  0  0  0  0  0  0  0  0  0  0
   -2.6504   61.3511   75.3017 H   0  0  0  0  0  0  0  0  0  0  0  0
   -1.8071   62.5980   74.3059 H   0  0  0  0  0  0  0  0  0  0  0  0
    3.3367   58.2595   73.9397 H   0  0  0  0  0  0  0  0  0  0  0  0
    2.5707   55.9712   73.3405 H   0  0  0  0  0  0  0  0  0  0  0  0
    0.1282   55.4712   73.2521 H   0  0  0  0  0  0  0  0  0  0  0  0
   -1.5166   57.2501   73.7965 H   0  0  0  0  0  0  0  0  0  0  0  0
  2  1  2  0
  3  1  1  0
  4  3  1  0
  5  4  1  0
  6  5  1  0
  7  6  1  0
  8  3  1  0
  8  7  1  0
  9  1  1  0
 10  9  1  0
 12 11  1  0
 12 10  1  0
 13 12  1  0
 14 13  2  0
 15 14  1  0
 16 15  2  0
 17 16  1  0
 18 17  2  0
 18 13  1  0
 19  6  1  0
 20 19  1  0
 21 20  1  0
 22 21  1  0
 23 22  1  0
 24 23  1  0
 25 24  1  0
 26 25  1  0
 27 26  1  0
 28 23  2  0
 28 27  1  0
 29 28  1  0
 30 29  2  0
 31 30  1  0
 31 22  2  0
 32 31  1  0
 33 32  2  0
 34 33  1  0
 35 34  2  0
 35 30  1  0
  4 36  1  0
  4 37  1  0
  5 38  1  0
  5 39  1  0
  6 40  1  0
  7 41  1  0
  7 42  1  0
  8 43  1  0
  8 44  1  0
  9 45  1  0
  9 46  1  0
 10 47  1  0
 10 48  1  0
 11 49  1  0
 11 50  1  0
 11 51  1  0
 14 52  1  0
 15 53  1  0
 16 54  1  0
 17 55  1  0
 18 56  1  0
 19 57  1  0
 19 58  1  0
 20 59  1  0
 20 60  1  0
 21 61  1  0
 24 62  1  0
 24 63  1  0
 25 64  1  0
 25 65  1  0
 26 66  1  0
 26 67  1  0
 27 68  1  0
 27 69  1  0
 32 70  1  0
 33 71  1  0
 34 72  1  0
 35 73  1  0
M  CHG  1   6   1
M  END
>  <score>  (7) 
-9.093

$$$$
=
     RDKit          3D

 73 77  0  0  0  0  0  0  0  0999 V2000
    3.6230   58.7450   71.1760 C   0  0  0  0  0  0  0  0  0  0  0  0
    3.8440   57.9830   70.2380 O   0  0  0  0  0  0  0  0  0  0  0  0
    2.8390   58.3400   72.2640 N   0  0  0  0  0  0  0  0  0  0  0  0
    2.1530   57.0490   72.1210 C   0  0  0  0  0  0  0  0  0  0  0  0
    1.7570   56.4090   73.4580 C   0  0  0  0  0  0  0  0  0  0  0  0
    1.0450   57.4040   74.3570 N   0  0  0  0  0  4  0  0  0  0  0  0
    1.8890   58.6390   74.5650 C   0  0  0  0  0  0  0  0  0  0  0  0
    2.2600   59.2910   73.2250 C   0  0  0  0  0  0  0  0  0  0  0  0
    4.1890   60.1480   71.2220 C   0  0  0  0  0  0  0  0  0  0  0  0
    3.5820   61.0390   70.1410 C   0  0  0  0  0  0  0  0  0  0  0  0
    4.9510   63.0490   70.6820 C   0  0  0  0  0  0  0  0  0  0  0  0
    3.6260   62.4420   70.5780 N   0  0  0  0  0  0  0  0  0  0  0  0
    2.4850   63.2430   70.6140 C   0  0  0  0  0  0  0  0  0  0  0  0
    2.5290   64.6330   70.4000 C   0  0  0  0  0  0  0  0  0  0  0  0
    1.3800   65.4350   70.4250 C   0  0  0  0  0  0  0  0  0  0  0  0
    0.1360   64.8660   70.6610 C   0  0  0  0  0  0  0  0  0  0  0  0
    0.0480   63.4970   70.8710 C   0  0  0  0  0  0  0  0  0  0  0  0
    1.2050   62.7050   70.8460 C   0  0  0  0  0  0  0  0  0  0  0  0
   -0.4050   57.6710   73.9830 C   0  0  0  0  0  0  0  0  0  0  0  0
   -0.8810   58.9240   74.7490 C   0  0  0  0  0  0  0  0  0  0  0  0
   -1.3550   59.9310   73.7570 N   0  0  0  0  0  0  0  0  0  0  0  0
   -1.8190   61.1010   74.4640 C   0  0  0  0  0  0  0  0  0  0  0  0
   -3.1290   61.1750   74.9720 C   0  0  0  0  0  0  0  0  0  0  0  0
   -4.2220   60.1600   74.7490 C   0  0  0  0  0  0  0  0  0  0  0  0
   -5.5680   60.8330   74.4590 C   0  0  0  0  0  0  0  0  0  0  0  0
   -5.8870   62.0400   75.3490 C   0  0  0  0  0  0  0  0  0  0  0  0
   -4.8220   62.3330   76.4020 C   0  0  0  0  0  0  0  0  0  0  0  0
   -3.4430   62.2570   75.7970 C   0  0  0  0  0  0  0  0  0  0  0  0
   -2.5680   63.2260   76.1270 N   0  0  0  0  0  0  0  0  0  0  0  0
   -1.3350   63.1850   75.6110 C   0  0  0  0  0  0  0  0  0  0  0  0
   -0.8980   62.1470   74.7600 C   0  0  0  0  0  0  0  0  0  0  0  0
    0.4130   62.2180   74.2330 C   0  0  0  0  0  0  0  0  0  0  0  0
    1.2780   63.2600   74.5660 C   0  0  0  0  0  0  0  0  0  0  0  0
    0.8440   64.2550   75.4270 C   0  0  0  0  0  0  0  0  0  0  0  0
   -0.4550   64.2090   75.9340 C   0  0  0  0  0  0  0  0  0  0  0  0
    1.2405   57.2047   71.5268 H   0  0  0  0  0  0  0  0  0  0  0  0
    2.8599   56.3619   71.6328 H   0  0  0  0  0  0  0  0  0  0  0  0
    1.0869   55.5586   73.2635 H   0  0  0  0  0  0  0  0  0  0  0  0
    2.6728   56.0746   73.9674 H   0  0  0  0  0  0  0  0  0  0  0  0
    0.9467   56.9584   75.2804 H   0  0  0  0  0  0  0  0  0  0  0  0
    1.3235   59.3620   75.1713 H   0  0  0  0  0  0  0  0  0  0  0  0
    2.8167   58.3443   75.0774 H   0  0  0  0  0  0  0  0  0  0  0  0
    2.9937   60.0884   73.4144 H   0  0  0  0  0  0  0  0  0  0  0  0
    1.3326   59.6830   72.7819 H   0  0  0  0  0  0  0  0  0  0  0  0
    3.9739   60.5868   72.2075 H   0  0  0  0  0  0  0  0  0  0  0  0
    5.2730   60.0858   71.0455 H   0  0  0  0  0  0  0  0  0  0  0  0
    4.1560   60.9273   69.2093 H   0  0  0  0  0  0  0  0  0  0  0  0
    2.5371   60.7427   69.9668 H   0  0  0  0  0  0  0  0  0  0  0  0
    5.2164   63.1706   71.7426 H   0  0  0  0  0  0  0  0  0  0  0  0
    5.6911   62.4002   70.1909 H   0  0  0  0  0  0  0  0  0  0  0  0
    4.9430   64.0332   70.1909 H   0  0  0  0  0  0  0  0  0  0  0  0
    3.5019   65.1081   70.2058 H   0  0  0  0  0  0  0  0  0  0  0  0
    1.4642   66.5188   70.2571 H   0  0  0  0  0  0  0  0  0  0  0  0
   -0.7682   65.4921   70.6813 H   0  0  0  0  0  0  0  0  0  0  0  0
   -0.9314   63.0322   71.0575 H   0  0  0  0  0  0  0  0  0  0  0  0
    1.1087   61.6222   71.0141 H   0  0  0  0  0  0  0  0  0  0  0  0
   -0.4836   57.8452   72.8997 H   0  0  0  0  0  0  0  0  0  0  0  0
   -1.0299   56.8053   74.2475 H   0  0  0  0  0  0  0  0  0  0  0  0
   -1.7043   58.6544   75.4269 H   0  0  0  0  0  0  0  0  0  0  0  0
   -0.0543   59.3398   75.3437 H   0  0  0  0  0  0  0  0  0  0  0  0
   -1.3519   59.8114   72.7340 H   0  0  0  0  0  0  0  0  0  0  0  0
   -3.9494   59.5243   73.8937 H   0  0  0  0  0  0  0  0  0  0  0  0
   -4.3276   59.5618   75.6661 H   0  0  0  0  0  0  0  0  0  0  0  0
   -5.5633   61.1711   73.4123 H   0  0  0  0  0  0  0  0  0  0  0  0
   -6.3425   60.0803   74.6678 H   0  0  0  0  0  0  0  0  0  0  0  0
   -5.9907   62.9263   74.7058 H   0  0  0  0  0  0  0  0  0  0  0  0
   -6.8134   61.7998   75.8913 H   0  0  0  0  0  0  0  0  0  0  0  0
   -4.9834   63.3423   76.8084 H   0  0  0  0  0  0  0  0  0  0  0  0
   -4.8997   61.5834   77.2033 H   0  0  0  0  0  0  0  0  0  0  0  0
    0.7582   61.4328   73.5443 H   0  0  0  0  0  0  0  0  0  0  0  0
    2.2954   63.2916   74.1490 H   0  0  0  0  0  0  0  0  0  0  0  0
    1.5194   65.0761   75.7091 H   0  0  0  0  0  0  0  0  0  0  0  0
   -0.7921   65.0084   76.6102 H   0  0  0  0  0  0  0  0  0  0  0  0
  2  1  2  0
  3  1  1  0
  4  3  1  0
  5  4  1  0
  6  5  1  0
  7  6  1  0
  8  3  1  0
  8  7  1  0
  9  1  1  0
 10  9  1  0
 12 11  1  0
 12 10  1  0
 13 12  1  0
 14 13  2  0
 15 14  1  0
 16 15  2  0
 17 16  1  0
 18 17  2  0
 18 13  1  0
 19  6  1  0
 20 19  1  0
 21 20  1  0
 22 21  1  0
 23 22  1  0
 24 23  1  0
 25 24  1  0
 26 25  1  0
 27 26  1  0
 28 23  2  0
 28 27  1  0
 29 28  1  0
 30 29  2  0
 31 30  1  0
 31 22  2  0
 32 31  1  0
 33 32  2  0
 34 33  1  0
 35 34  2  0
 35 30  1  0
  4 36  1  0
  4 37  1  0
  5 38  1  0
  5 39  1  0
  6 40  1  0
  7 41  1  0
  7 42  1  0
  8 43  1  0
  8 44  1  0
  9 45  1  0
  9 46  1  0
 10 47  1  0
 10 48  1  0
 11 49  1  0
 11 50  1  0
 11 51  1  0
 14 52  1  0
 15 53  1  0
 16 54  1  0
 17 55  1  0
 18 56  1  0
 19 57  1  0
 19 58  1  0
 20 59  1  0
 20 60  1  0
 21 61  1  0
 24 62  1  0
 24 63  1  0
 25 64  1  0
 25 65  1  0
 26 66  1  0
 26 67  1  0
 27 68  1  0
 27 69  1  0
 32 70  1  0
 33 71  1  0
 34 72  1  0
 35 73  1  0
M  CHG  1   6   1
M  END
>  <score>  (8) 
-9.03

$$$$
=
     RDKit          3D

 73 77  0  0  0  0  0  0  0  0999 V2000
    2.9730   63.3410   70.0280 C   0  0  0  0  0  0  0  0  0  0  0  0
    3.4140   63.4410   68.8860 O   0  0  0  0  0  0  0  0  0  0  0  0
    3.5170   62.4210   70.9330 N   0  0  0  0  0  0  0  0  0  0  0  0
    4.4910   61.4700   70.3810 C   0  0  0  0  0  0  0  0  0  0  0  0
    5.4220   60.8580   71.4350 C   0  0  0  0  0  0  0  0  0  0  0  0
    4.6400   60.3370   72.6280 N   0  0  0  0  0  4  0  0  0  0  0  0
    3.7760   61.4260   73.2200 C   0  0  0  0  0  0  0  0  0  0  0  0
    2.8270   62.0160   72.1670 C   0  0  0  0  0  0  0  0  0  0  0  0
    1.8370   64.2080   70.5290 C   0  0  0  0  0  0  0  0  0  0  0  0
    1.8770   65.6050   69.9120 C   0  0  0  0  0  0  0  0  0  0  0  0
   -0.2710   66.0900   71.0790 C   0  0  0  0  0  0  0  0  0  0  0  0
    0.5140   66.1520   69.8470 N   0  0  0  0  0  0  0  0  0  0  0  0
    0.0840   66.9430   68.7830 C   0  0  0  0  0  0  0  0  0  0  0  0
   -1.2010   66.8230   68.2220 C   0  0  0  0  0  0  0  0  0  0  0  0
   -1.6360   67.6270   67.1590 C   0  0  0  0  0  0  0  0  0  0  0  0
   -0.7940   68.5900   66.6210 C   0  0  0  0  0  0  0  0  0  0  0  0
    0.4800   68.7440   67.1490 C   0  0  0  0  0  0  0  0  0  0  0  0
    0.9050   67.9330   68.2110 C   0  0  0  0  0  0  0  0  0  0  0  0
    3.9330   59.0110   72.3910 C   0  0  0  0  0  0  0  0  0  0  0  0
    2.7430   58.9150   73.3690 C   0  0  0  0  0  0  0  0  0  0  0  0
    1.5730   58.3560   72.6340 N   0  0  0  0  0  0  0  0  0  0  0  0
    0.4430   58.2940   73.5310 C   0  0  0  0  0  0  0  0  0  0  0  0
   -0.4590   59.3670   73.6430 C   0  0  0  0  0  0  0  0  0  0  0  0
   -0.3150   60.7160   72.9850 C   0  0  0  0  0  0  0  0  0  0  0  0
   -0.6870   61.8550   73.9410 C   0  0  0  0  0  0  0  0  0  0  0  0
   -1.9450   61.6020   74.7810 C   0  0  0  0  0  0  0  0  0  0  0  0
   -2.6330   60.2730   74.4830 C   0  0  0  0  0  0  0  0  0  0  0  0
   -1.6210   59.1600   74.3910 C   0  0  0  0  0  0  0  0  0  0  0  0
   -1.9190   58.0000   75.0080 N   0  0  0  0  0  0  0  0  0  0  0  0
   -1.0430   56.9920   74.9420 C   0  0  0  0  0  0  0  0  0  0  0  0
    0.1680   57.0780   74.2220 C   0  0  0  0  0  0  0  0  0  0  0  0
    1.0460   55.9680   74.2490 C   0  0  0  0  0  0  0  0  0  0  0  0
    0.7210   54.7970   74.9320 C   0  0  0  0  0  0  0  0  0  0  0  0
   -0.4860   54.7170   75.6090 C   0  0  0  0  0  0  0  0  0  0  0  0
   -1.3490   55.8140   75.6100 C   0  0  0  0  0  0  0  0  0  0  0  0
    3.9399   60.6548   69.8894 H   0  0  0  0  0  0  0  0  0  0  0  0
    5.1255   62.0312   69.6793 H   0  0  0  0  0  0  0  0  0  0  0  0
    5.9789   60.0253   70.9806 H   0  0  0  0  0  0  0  0  0  0  0  0
    6.1098   61.6411   71.7866 H   0  0  0  0  0  0  0  0  0  0  0  0
    5.3273   60.0838   73.3521 H   0  0  0  0  0  0  0  0  0  0  0  0
    3.1808   61.0040   74.0432 H   0  0  0  0  0  0  0  0  0  0  0  0
    4.4314   62.2295   73.5874 H   0  0  0  0  0  0  0  0  0  0  0  0
    2.3315   62.8988   72.5973 H   0  0  0  0  0  0  0  0  0  0  0  0
    2.1058   61.2304   71.8976 H   0  0  0  0  0  0  0  0  0  0  0  0
    0.8816   63.7300   70.2670 H   0  0  0  0  0  0  0  0  0  0  0  0
    1.9403   64.3119   71.6192 H   0  0  0  0  0  0  0  0  0  0  0  0
    2.5062   66.2613   70.5312 H   0  0  0  0  0  0  0  0  0  0  0  0
    2.2966   65.5453   68.8969 H   0  0  0  0  0  0  0  0  0  0  0  0
    0.4033   66.1433   71.9465 H   0  0  0  0  0  0  0  0  0  0  0  0
   -0.9741   66.9354   71.1087 H   0  0  0  0  0  0  0  0  0  0  0  0
   -0.8327   65.1447   71.1087 H   0  0  0  0  0  0  0  0  0  0  0  0
   -1.8899   66.0703   68.6329 H   0  0  0  0  0  0  0  0  0  0  0  0
   -2.6484   67.4940   66.7499 H   0  0  0  0  0  0  0  0  0  0  0  0
   -1.1320   69.2228   65.7871 H   0  0  0  0  0  0  0  0  0  0  0  0
    1.1580   69.5040   66.7335 H   0  0  0  0  0  0  0  0  0  0  0  0
    1.9191   68.0760   68.6126 H   0  0  0  0  0  0  0  0  0  0  0  0
    3.5674   58.9644   71.3546 H   0  0  0  0  0  0  0  0  0  0  0  0
    4.6288   58.1754   72.5574 H   0  0  0  0  0  0  0  0  0  0  0  0
    3.0046   58.2540   74.2084 H   0  0  0  0  0  0  0  0  0  0  0  0
    2.4988   59.9115   73.7656 H   0  0  0  0  0  0  0  0  0  0  0  0
    1.5708   58.0618   71.6469 H   0  0  0  0  0  0  0  0  0  0  0  0
    0.7290   60.8465   72.6639 H   0  0  0  0  0  0  0  0  0  0  0  0
   -0.9993   60.7529   72.1245 H   0  0  0  0  0  0  0  0  0  0  0  0
    0.1571   62.0152   74.6279 H   0  0  0  0  0  0  0  0  0  0  0  0
   -0.9049   62.7302   73.3113 H   0  0  0  0  0  0  0  0  0  0  0  0
   -1.6597   61.6133   75.8433 H   0  0  0  0  0  0  0  0  0  0  0  0
   -2.6626   62.3960   74.5268 H   0  0  0  0  0  0  0  0  0  0  0  0
   -3.3467   60.0468   75.2889 H   0  0  0  0  0  0  0  0  0  0  0  0
   -3.1589   60.3542   73.5203 H   0  0  0  0  0  0  0  0  0  0  0  0
    2.0075   56.0309   73.7185 H   0  0  0  0  0  0  0  0  0  0  0  0
    1.4159   53.9443   74.9337 H   0  0  0  0  0  0  0  0  0  0  0  0
   -0.7618   53.7951   76.1419 H   0  0  0  0  0  0  0  0  0  0  0  0
   -2.3008   55.7430   76.1568 H   0  0  0  0  0  0  0  0  0  0  0  0
  2  1  2  0
  3  1  1  0
  4  3  1  0
  5  4  1  0
  6  5  1  0
  7  6  1  0
  8  3  1  0
  8  7  1  0
  9  1  1  0
 10  9  1  0
 12 11  1  0
 12 10  1  0
 13 12  1  0
 14 13  2  0
 15 14  1  0
 16 15  2  0
 17 16  1  0
 18 17  2  0
 18 13  1  0
 19  6  1  0
 20 19  1  0
 21 20  1  0
 22 21  1  0
 23 22  1  0
 24 23  1  0
 25 24  1  0
 26 25  1  0
 27 26  1  0
 28 23  2  0
 28 27  1  0
 29 28  1  0
 30 29  2  0
 31 30  1  0
 31 22  2  0
 32 31  1  0
 33 32  2  0
 34 33  1  0
 35 34  2  0
 35 30  1  0
  4 36  1  0
  4 37  1  0
  5 38  1  0
  5 39  1  0
  6 40  1  0
  7 41  1  0
  7 42  1  0
  8 43  1  0
  8 44  1  0
  9 45  1  0
  9 46  1  0
 10 47  1  0
 10 48  1  0
 11 49  1  0
 11 50  1  0
 11 51  1  0
 14 52  1  0
 15 53  1  0
 16 54  1  0
 17 55  1  0
 18 56  1  0
 19 57  1  0
 19 58  1  0
 20 59  1  0
 20 60  1  0
 21 61  1  0
 24 62  1  0
 24 63  1  0
 25 64  1  0
 25 65  1  0
 26 66  1  0
 26 67  1  0
 27 68  1  0
 27 69  1  0
 32 70  1  0
 33 71  1  0
 34 72  1  0
 35 73  1  0
M  CHG  1   6   1
M  END
>  <score>  (9) 
-8.897

$$$$
