=
     RDKit          3D

 59 62  0  0  0  0  0  0  0  0999 V2000
    0.6950   63.9720   70.9220 C   0  0  1  0  0  0  0  0  0  0  0  0
    2.2010   63.9210   70.5240 C   0  0  0  0  0  0  0  0  0  0  0  0
    2.7580   62.5830   71.0420 C   0  0  0  0  0  0  0  0  0  0  0  0
    1.5370   61.8370   71.5640 C   0  0  2  0  0  0  0  0  0  0  0  0
    0.6190   62.9650   72.1100 C   0  0  1  0  0  0  0  0  0  0  0  0
    1.1570   63.6100   73.4150 C   0  0  0  0  0  0  0  0  0  0  0  0
   -0.7520   62.3300   72.3770 C   0  0  0  0  0  0  0  0  0  0  0  0
   -0.6020   61.1550   73.3350 C   0  0  0  0  0  0  0  0  0  0  0  0
   -1.3030   61.1010   74.3450 O   0  0  0  0  0  0  0  0  0  0  0  0
    0.3950   60.0530   72.9300 C   0  0  1  0  0  0  0  0  0  0  0  0
    1.7650   60.6950   72.5660 C   0  0  1  0  0  0  0  0  0  0  0  0
    2.7060   59.6280   71.9890 C   0  0  0  0  0  0  0  0  0  0  0  0
    2.9080   58.4810   72.9710 C   0  0  0  0  0  0  0  0  0  0  0  0
    1.5950   57.8770   73.4110 C   0  0  0  0  0  0  0  0  0  0  0  0
    1.4340   56.5410   73.3580 C   0  0  0  0  0  0  0  0  0  0  0  0
    0.2230   55.8790   73.8930 C   0  0  0  0  0  0  0  0  0  0  0  0
    0.1040   54.6610   73.7850 O   0  0  0  0  0  0  0  0  0  0  0  0
   -0.7800   56.7280   74.6260 C   0  0  0  0  0  0  0  0  0  0  0  0
   -0.8530   58.1150   74.0040 C   0  0  0  0  0  0  0  0  0  0  0  0
    0.5200   58.8480   73.9310 C   0  0  2  0  0  0  0  0  0  0  0  0
    0.9470   59.2970   75.3480 C   0  0  0  0  0  0  0  0  0  0  0  0
    0.2330   65.4240   71.2230 C   0  0  0  0  0  0  0  0  0  0  0  0
   -0.2840   65.7220   72.3040 O   0  0  0  0  0  0  0  0  0  0  0  0
    0.4150   66.4910   70.1510 C   0  0  0  0  0  0  0  0  0  0  0  0
   -0.4170   66.2430   69.0250 O   0  0  0  0  0  0  0  0  0  0  0  0
    1.0860   67.8520   68.2200 C   0  0  0  0  0  0  0  0  0  0  0  0
   -0.0610   66.9410   67.9130 C   0  0  0  0  0  0  0  0  0  0  0  0
   -0.5950   66.8390   66.8180 O   0  0  0  0  0  0  0  0  0  0  0  0
   -0.0470   63.4510   69.8140 O   0  0  0  0  0  0  0  0  0  0  0  0
    2.3048   63.9754   69.4303 H   0  0  0  0  0  0  0  0  0  0  0  0
    2.7507   64.7694   70.9577 H   0  0  0  0  0  0  0  0  0  0  0  0
    3.2383   62.0206   70.2277 H   0  0  0  0  0  0  0  0  0  0  0  0
    3.5258   62.7221   71.8173 H   0  0  0  0  0  0  0  0  0  0  0  0
    1.0923   61.2519   70.7455 H   0  0  0  0  0  0  0  0  0  0  0  0
    0.7255   63.0927   74.2846 H   0  0  0  0  0  0  0  0  0  0  0  0
    2.2531   63.5219   73.4427 H   0  0  0  0  0  0  0  0  0  0  0  0
    0.8737   64.6725   73.4427 H   0  0  0  0  0  0  0  0  0  0  0  0
   -1.4210   63.0808   72.8227 H   0  0  0  0  0  0  0  0  0  0  0  0
   -1.1757   61.9710   71.4275 H   0  0  0  0  0  0  0  0  0  0  0  0
   -0.0246   59.5682   72.0362 H   0  0  0  0  0  0  0  0  0  0  0  0
    2.2378   61.1091   73.4688 H   0  0  0  0  0  0  0  0  0  0  0  0
    2.2717   59.2318   71.0592 H   0  0  0  0  0  0  0  0  0  0  0  0
    3.6827   60.0946   71.7934 H   0  0  0  0  0  0  0  0  0  0  0  0
    3.5135   57.7008   72.4866 H   0  0  0  0  0  0  0  0  0  0  0  0
    3.4144   58.8807   73.8619 H   0  0  0  0  0  0  0  0  0  0  0  0
    2.2243   55.9247   72.9046 H   0  0  0  0  0  0  0  0  0  0  0  0
   -1.7699   56.2518   74.5680 H   0  0  0  0  0  0  0  0  0  0  0  0
   -0.4685   56.8230   75.6767 H   0  0  0  0  0  0  0  0  0  0  0  0
   -1.2473   58.0158   72.9819 H   0  0  0  0  0  0  0  0  0  0  0  0
   -1.5041   58.7210   74.6512 H   0  0  0  0  0  0  0  0  0  0  0  0
    0.3934   58.7149   76.0995 H   0  0  0  0  0  0  0  0  0  0  0  0
    2.0265   59.1288   75.4762 H   0  0  0  0  0  0  0  0  0  0  0  0
    0.7248   60.3667   75.4762 H   0  0  0  0  0  0  0  0  0  0  0  0
    0.1586   67.4726   70.5761 H   0  0  0  0  0  0  0  0  0  0  0  0
    1.4631   66.4714   69.8177 H   0  0  0  0  0  0  0  0  0  0  0  0
    1.2004   67.9429   69.3103 H   0  0  0  0  0  0  0  0  0  0  0  0
    2.0089   67.4381   67.7877 H   0  0  0  0  0  0  0  0  0  0  0  0
    0.8917   68.8447   67.7877 H   0  0  0  0  0  0  0  0  0  0  0  0
   -0.8092   62.9158   70.1497 H   0  0  0  0  0  0  0  0  0  0  0  0
  2  1  1  0
  3  2  1  0
  4  3  1  0
  5  4  1  0
  5  1  1  0
  5  6  1  1
  7  5  1  0
  8  7  1  0
  9  8  2  0
 10  8  1  0
 11 10  1  0
 11  4  1  0
 12 11  1  0
 13 12  1  0
 14 13  1  0
 15 14  2  0
 16 15  1  0
 17 16  2  0
 18 16  1  0
 19 18  1  0
 20 19  1  0
 20 14  1  0
 20 10  1  0
 20 21  1  1
 22  1  1  0
 23 22  2  0
 24 22  1  0
 25 24  1  0
 27 26  1  0
 27 25  1  0
 28 27  2  0
  1 29  1  6
  2 30  1  0
  2 31  1  0
  3 32  1  0
  3 33  1  0
  4 34  1  6
  6 35  1  0
  6 36  1  0
  6 37  1  0
  7 38  1  0
  7 39  1  0
 10 40  1  6
 11 41  1  1
 12 42  1  0
 12 43  1  0
 13 44  1  0
 13 45  1  0
 15 46  1  0
 18 47  1  0
 18 48  1  0
 19 49  1  0
 19 50  1  0
 21 51  1  0
 21 52  1  0
 21 53  1  0
 24 54  1  0
 24 55  1  0
 26 56  1  0
 26 57  1  0
 26 58  1  0
 29 59  1  0
M  END
>  <score>  (1) 
-9.739

$$$$
=
     RDKit          3D

 59 62  0  0  0  0  0  0  0  0999 V2000
    3.1820   61.8100   70.3250 C   0  0  1  0  0  0  0  0  0  0  0  0
    4.2380   60.7700   69.8420 C   0  0  0  0  0  0  0  0  0  0  0  0
    3.9350   59.4500   70.5720 C   0  0  0  0  0  0  0  0  0  0  0  0
    2.6290   59.7120   71.3120 C   0  0  2  0  0  0  0  0  0  0  0  0
    2.7130   61.2170   71.6880 C   0  0  1  0  0  0  0  0  0  0  0  0
    3.7530   61.5090   72.8030 C   0  0  0  0  0  0  0  0  0  0  0  0
    1.3150   61.6320   72.1670 C   0  0  0  0  0  0  0  0  0  0  0  0
    0.8780   60.7420   73.3230 C   0  0  0  0  0  0  0  0  0  0  0  0
    0.4830   61.2550   74.3690 O   0  0  0  0  0  0  0  0  0  0  0  0
    0.8960   59.2220   73.0730 C   0  0  1  0  0  0  0  0  0  0  0  0
    2.2790   58.8020   72.4990 C   0  0  1  0  0  0  0  0  0  0  0  0
    2.2460   57.3270   72.0780 C   0  0  0  0  0  0  0  0  0  0  0  0
    1.8690   56.4280   73.2490 C   0  0  0  0  0  0  0  0  0  0  0  0
    0.5650   56.8470   73.8870 C   0  0  0  0  0  0  0  0  0  0  0  0
   -0.3890   55.9240   74.1060 C   0  0  0  0  0  0  0  0  0  0  0  0
   -1.6340   56.2450   74.8400 C   0  0  0  0  0  0  0  0  0  0  0  0
   -2.4920   55.3780   74.9810 O   0  0  0  0  0  0  0  0  0  0  0  0
   -1.7540   57.6100   75.4610 C   0  0  0  0  0  0  0  0  0  0  0  0
   -1.0670   58.6500   74.5870 C   0  0  0  0  0  0  0  0  0  0  0  0
    0.4270   58.3300   74.2800 C   0  0  2  0  0  0  0  0  0  0  0  0
    1.2800   58.5540   75.5490 C   0  0  0  0  0  0  0  0  0  0  0  0
    3.7720   63.2460   70.3670 C   0  0  0  0  0  0  0  0  0  0  0  0
    4.9710   63.4550   70.1510 O   0  0  0  0  0  0  0  0  0  0  0  0
    2.8480   64.4110   70.6970 C   0  0  0  0  0  0  0  0  0  0  0  0
    1.9090   64.6410   69.6550 O   0  0  0  0  0  0  0  0  0  0  0  0
    0.3120   66.0110   70.6890 C   0  0  0  0  0  0  0  0  0  0  0  0
    0.6160   64.6790   70.0780 C   0  0  0  0  0  0  0  0  0  0  0  0
   -0.1850   63.7630   69.9700 O   0  0  0  0  0  0  0  0  0  0  0  0
    2.0950   61.7640   69.3920 O   0  0  0  0  0  0  0  0  0  0  0  0
    4.1577   60.6273   68.7543 H   0  0  0  0  0  0  0  0  0  0  0  0
    5.2588   61.1154   70.0624 H   0  0  0  0  0  0  0  0  0  0  0  0
    3.8153   58.6267   69.8524 H   0  0  0  0  0  0  0  0  0  0  0  0
    4.7474   59.1526   71.2514 H   0  0  0  0  0  0  0  0  0  0  0  0
    1.7826   59.4588   70.6566 H   0  0  0  0  0  0  0  0  0  0  0  0
    3.2815   61.3766   73.7880 H   0  0  0  0  0  0  0  0  0  0  0  0
    4.6000   60.8139   72.7055 H   0  0  0  0  0  0  0  0  0  0  0  0
    4.1144   62.5433   72.7055 H   0  0  0  0  0  0  0  0  0  0  0  0
    1.3403   62.6793   72.5023 H   0  0  0  0  0  0  0  0  0  0  0  0
    0.6010   61.5245   71.3371 H   0  0  0  0  0  0  0  0  0  0  0  0
    0.1189   59.0217   72.3207 H   0  0  0  0  0  0  0  0  0  0  0  0
    3.0555   58.9144   73.2700 H   0  0  0  0  0  0  0  0  0  0  0  0
    1.5052   57.1996   71.2749 H   0  0  0  0  0  0  0  0  0  0  0  0
    3.2494   57.0419   71.7290 H   0  0  0  0  0  0  0  0  0  0  0  0
    1.7708   55.3943   72.8859 H   0  0  0  0  0  0  0  0  0  0  0  0
    2.6605   56.5093   74.0085 H   0  0  0  0  0  0  0  0  0  0  0  0
   -0.2397   54.9015   73.7289 H   0  0  0  0  0  0  0  0  0  0  0  0
   -2.8180   57.8691   75.5651 H   0  0  0  0  0  0  0  0  0  0  0  0
   -1.2709   57.5974   76.4492 H   0  0  0  0  0  0  0  0  0  0  0  0
   -1.6106   58.7140   73.6328 H   0  0  0  0  0  0  0  0  0  0  0  0
   -1.0821   59.5971   75.1463 H   0  0  0  0  0  0  0  0  0  0  0  0
    0.6587   58.3908   76.4419 H   0  0  0  0  0  0  0  0  0  0  0  0
    2.1224   57.8466   75.5542 H   0  0  0  0  0  0  0  0  0  0  0  0
    1.6661   59.5840   75.5542 H   0  0  0  0  0  0  0  0  0  0  0  0
    2.3035   64.1838   71.6254 H   0  0  0  0  0  0  0  0  0  0  0  0
    3.4617   65.3162   70.8152 H   0  0  0  0  0  0  0  0  0  0  0  0
    0.3317   65.9246   71.7854 H   0  0  0  0  0  0  0  0  0  0  0  0
    1.0660   66.7436   70.3653 H   0  0  0  0  0  0  0  0  0  0  0  0
   -0.6852   66.3439   70.3653 H   0  0  0  0  0  0  0  0  0  0  0  0
    1.2377   61.7277   69.8857 H   0  0  0  0  0  0  0  0  0  0  0  0
  2  1  1  0
  3  2  1  0
  4  3  1  0
  5  4  1  0
  5  1  1  0
  5  6  1  1
  7  5  1  0
  8  7  1  0
  9  8  2  0
 10  8  1  0
 11 10  1  0
 11  4  1  0
 12 11  1  0
 13 12  1  0
 14 13  1  0
 15 14  2  0
 16 15  1  0
 17 16  2  0
 18 16  1  0
 19 18  1  0
 20 19  1  0
 20 14  1  0
 20 10  1  0
 20 21  1  1
 22  1  1  0
 23 22  2  0
 24 22  1  0
 25 24  1  0
 27 26  1  0
 27 25  1  0
 28 27  2  0
  1 29  1  6
  2 30  1  0
  2 31  1  0
  3 32  1  0
  3 33  1  0
  4 34  1  6
  6 35  1  0
  6 36  1  0
  6 37  1  0
  7 38  1  0
  7 39  1  0
 10 40  1  6
 11 41  1  1
 12 42  1  0
 12 43  1  0
 13 44  1  0
 13 45  1  0
 15 46  1  0
 18 47  1  0
 18 48  1  0
 19 49  1  0
 19 50  1  0
 21 51  1  0
 21 52  1  0
 21 53  1  0
 24 54  1  0
 24 55  1  0
 26 56  1  0
 26 57  1  0
 26 58  1  0
 29 59  1  0
M  END
>  <score>  (2) 
-9.7

$$$$
=
     RDKit          3D

 59 62  0  0  0  0  0  0  0  0999 V2000
   -0.2880   56.7590   74.5980 C   0  0  1  0  0  0  0  0  0  0  0  0
   -1.4880   57.6380   75.0640 C   0  0  0  0  0  0  0  0  0  0  0  0
   -1.2660   59.0460   74.4840 C   0  0  0  0  0  0  0  0  0  0  0  0
   -0.0560   58.8980   73.5710 C   0  0  2  0  0  0  0  0  0  0  0  0
    0.8110   57.8180   74.2770 C   0  0  1  0  0  0  0  0  0  0  0  0
    1.4780   58.3310   75.5820 C   0  0  0  0  0  0  0  0  0  0  0  0
    1.8930   57.3950   73.2770 C   0  0  0  0  0  0  0  0  0  0  0  0
    2.6910   58.6130   72.8290 C   0  0  0  0  0  0  0  0  0  0  0  0
    3.9190   58.5960   72.9010 O   0  0  0  0  0  0  0  0  0  0  0  0
    1.8890   59.7890   72.2390 C   0  0  1  0  0  0  0  0  0  0  0  0
    0.7280   60.1670   73.2040 C   0  0  1  0  0  0  0  0  0  0  0  0
   -0.1820   61.2110   72.5430 C   0  0  0  0  0  0  0  0  0  0  0  0
    0.6010   62.4570   72.1500 C   0  0  0  0  0  0  0  0  0  0  0  0
    1.7860   62.1270   71.2730 C   0  0  0  0  0  0  0  0  0  0  0  0
    1.9700   62.8110   70.1290 C   0  0  0  0  0  0  0  0  0  0  0  0
    3.1770   62.6240   69.2920 C   0  0  0  0  0  0  0  0  0  0  0  0
    3.2810   63.2440   68.2360 O   0  0  0  0  0  0  0  0  0  0  0  0
    4.2710   61.7360   69.8200 C   0  0  0  0  0  0  0  0  0  0  0  0
    3.6770   60.5800   70.6130 C   0  0  0  0  0  0  0  0  0  0  0  0
    2.7390   61.0270   71.7750 C   0  0  2  0  0  0  0  0  0  0  0  0
    3.5810   61.6300   72.9220 C   0  0  0  0  0  0  0  0  0  0  0  0
    0.0810   55.6870   75.6590 C   0  0  0  0  0  0  0  0  0  0  0  0
   -0.4760   55.6560   76.7610 O   0  0  0  0  0  0  0  0  0  0  0  0
    1.1620   54.6670   75.3280 C   0  0  0  0  0  0  0  0  0  0  0  0
    0.8210   53.8990   74.1810 O   0  0  0  0  0  0  0  0  0  0  0  0
    0.8910   52.0640   75.6370 C   0  0  0  0  0  0  0  0  0  0  0  0
    0.2170   52.7150   74.4700 C   0  0  0  0  0  0  0  0  0  0  0  0
   -0.7400   52.2490   73.8700 O   0  0  0  0  0  0  0  0  0  0  0  0
   -0.6900   56.1160   73.3820 O   0  0  0  0  0  0  0  0  0  0  0  0
   -2.4324   57.2186   74.6869 H   0  0  0  0  0  0  0  0  0  0  0  0
   -1.5479   57.6705   76.1619 H   0  0  0  0  0  0  0  0  0  0  0  0
   -2.1465   59.3738   73.9120 H   0  0  0  0  0  0  0  0  0  0  0  0
   -1.1073   59.8005   75.2686 H   0  0  0  0  0  0  0  0  0  0  0  0
   -0.3945   58.6153   72.5633 H   0  0  0  0  0  0  0  0  0  0  0  0
    0.9446   57.9208   76.4522 H   0  0  0  0  0  0  0  0  0  0  0  0
    2.5285   58.0059   75.6092 H   0  0  0  0  0  0  0  0  0  0  0  0
    1.4334   59.4298   75.6092 H   0  0  0  0  0  0  0  0  0  0  0  0
    2.5695   56.6719   73.7560 H   0  0  0  0  0  0  0  0  0  0  0  0
    1.4149   56.9333   72.4005 H   0  0  0  0  0  0  0  0  0  0  0  0
    1.4659   59.4302   71.2891 H   0  0  0  0  0  0  0  0  0  0  0  0
    1.1339   60.6085   74.1262 H   0  0  0  0  0  0  0  0  0  0  0  0
   -0.6344   60.7726   71.6412 H   0  0  0  0  0  0  0  0  0  0  0  0
   -0.9588   61.5021   73.2654 H   0  0  0  0  0  0  0  0  0  0  0  0
   -0.0670   63.1385   71.6028 H   0  0  0  0  0  0  0  0  0  0  0  0
    0.9794   62.9252   73.0707 H   0  0  0  0  0  0  0  0  0  0  0  0
    1.2020   63.5294   69.8064 H   0  0  0  0  0  0  0  0  0  0  0  0
    4.8527   61.3362   68.9763 H   0  0  0  0  0  0  0  0  0  0  0  0
    4.9227   62.3259   70.4813 H   0  0  0  0  0  0  0  0  0  0  0  0
    3.0974   59.9487   69.9234 H   0  0  0  0  0  0  0  0  0  0  0  0
    4.5193   60.0415   71.0719 H   0  0  0  0  0  0  0  0  0  0  0  0
    3.1550   61.3249   73.8892 H   0  0  0  0  0  0  0  0  0  0  0  0
    4.6166   61.2670   72.8466 H   0  0  0  0  0  0  0  0  0  0  0  0
    3.5707   62.7274   72.8466 H   0  0  0  0  0  0  0  0  0  0  0  0
    2.1064   55.1970   75.1353 H   0  0  0  0  0  0  0  0  0  0  0  0
    1.2640   53.9828   76.1833 H   0  0  0  0  0  0  0  0  0  0  0  0
    0.4745   52.4663   76.5722 H   0  0  0  0  0  0  0  0  0  0  0  0
    0.7230   50.9776   75.5982 H   0  0  0  0  0  0  0  0  0  0  0  0
    1.9709   52.2696   75.5982 H   0  0  0  0  0  0  0  0  0  0  0  0
   -1.2024   55.2964   73.5959 H   0  0  0  0  0  0  0  0  0  0  0  0
  2  1  1  0
  3  2  1  0
  4  3  1  0
  5  4  1  0
  5  1  1  0
  5  6  1  1
  7  5  1  0
  8  7  1  0
  9  8  2  0
 10  8  1  0
 11 10  1  0
 11  4  1  0
 12 11  1  0
 13 12  1  0
 14 13  1  0
 15 14  2  0
 16 15  1  0
 17 16  2  0
 18 16  1  0
 19 18  1  0
 20 19  1  0
 20 14  1  0
 20 10  1  0
 20 21  1  1
 22  1  1  0
 23 22  2  0
 24 22  1  0
 25 24  1  0
 27 26  1  0
 27 25  1  0
 28 27  2  0
  1 29  1  6
  2 30  1  0
  2 31  1  0
  3 32  1  0
  3 33  1  0
  4 34  1  6
  6 35  1  0
  6 36  1  0
  6 37  1  0
  7 38  1  0
  7 39  1  0
 10 40  1  6
 11 41  1  1
 12 42  1  0
 12 43  1  0
 13 44  1  0
 13 45  1  0
 15 46  1  0
 18 47  1  0
 18 48  1  0
 19 49  1  0
 19 50  1  0
 21 51  1  0
 21 52  1  0
 21 53  1  0
 24 54  1  0
 24 55  1  0
 26 56  1  0
 26 57  1  0
 26 58  1  0
 29 59  1  0
M  END
>  <score>  (3) 
-9.35

$$$$
=
     RDKit          3D

 59 62  0  0  0  0  0  0  0  0999 V2000
    3.2050   60.3510   72.0110 C   0  0  1  0  0  0  0  0  0  0  0  0
    3.7220   58.9670   72.5090 C   0  0  0  0  0  0  0  0  0  0  0  0
    2.5870   58.3340   73.3340 C   0  0  0  0  0  0  0  0  0  0  0  0
    1.4060   59.2770   73.1470 C   0  0  2  0  0  0  0  0  0  0  0  0
    2.0660   60.6780   73.0240 C   0  0  1  0  0  0  0  0  0  0  0  0
    2.6530   61.1940   74.3660 C   0  0  0  0  0  0  0  0  0  0  0  0
    0.9760   61.6410   72.5360 C   0  0  0  0  0  0  0  0  0  0  0  0
   -0.2090   61.6110   73.4930 C   0  0  0  0  0  0  0  0  0  0  0  0
   -0.6450   62.6650   73.9530 O   0  0  0  0  0  0  0  0  0  0  0  0
   -0.8400   60.2340   73.7740 C   0  0  1  0  0  0  0  0  0  0  0  0
    0.2710   59.2230   74.1810 C   0  0  1  0  0  0  0  0  0  0  0  0
   -0.3200   57.8110   74.2860 C   0  0  0  0  0  0  0  0  0  0  0  0
   -1.4650   57.7640   75.2890 C   0  0  0  0  0  0  0  0  0  0  0  0
   -2.5330   58.7850   74.9750 C   0  0  0  0  0  0  0  0  0  0  0  0
   -3.8220   58.3980   74.9280 C   0  0  0  0  0  0  0  0  0  0  0  0
   -4.9240   59.3710   74.7520 C   0  0  0  0  0  0  0  0  0  0  0  0
   -6.0810   58.9650   74.6760 O   0  0  0  0  0  0  0  0  0  0  0  0
   -4.5800   60.8350   74.7570 C   0  0  0  0  0  0  0  0  0  0  0  0
   -3.2210   61.0620   74.1090 C   0  0  0  0  0  0  0  0  0  0  0  0
   -2.0680   60.2360   74.7550 C   0  0  2  0  0  0  0  0  0  0  0  0
   -1.7180   60.8260   76.1400 C   0  0  0  0  0  0  0  0  0  0  0  0
    4.3560   61.3890   71.9140 C   0  0  0  0  0  0  0  0  0  0  0  0
    5.2520   61.4370   72.7640 O   0  0  0  0  0  0  0  0  0  0  0  0
    4.3640   62.3730   70.7520 C   0  0  0  0  0  0  0  0  0  0  0  0
    3.5450   63.5040   71.0210 O   0  0  0  0  0  0  0  0  0  0  0  0
    1.8480   64.9790   70.3590 C   0  0  0  0  0  0  0  0  0  0  0  0
    2.5030   63.6480   70.1580 C   0  0  0  0  0  0  0  0  0  0  0  0
    2.1540   62.8170   69.3330 O   0  0  0  0  0  0  0  0  0  0  0  0
    2.6360   60.1410   70.7140 O   0  0  0  0  0  0  0  0  0  0  0  0
    3.9690   58.3247   71.6508 H   0  0  0  0  0  0  0  0  0  0  0  0
    4.6318   59.0827   73.1163 H   0  0  0  0  0  0  0  0  0  0  0  0
    2.3457   57.3295   72.9563 H   0  0  0  0  0  0  0  0  0  0  0  0
    2.8591   58.2102   74.3926 H   0  0  0  0  0  0  0  0  0  0  0  0
    0.8340   58.9704   72.2589 H   0  0  0  0  0  0  0  0  0  0  0  0
    2.1185   60.7241   75.2048 H   0  0  0  0  0  0  0  0  0  0  0  0
    3.7211   60.9371   74.4219 H   0  0  0  0  0  0  0  0  0  0  0  0
    2.5352   62.2862   74.4219 H   0  0  0  0  0  0  0  0  0  0  0  0
    1.3839   62.6616   72.4925 H   0  0  0  0  0  0  0  0  0  0  0  0
    0.6410   61.3314   71.5351 H   0  0  0  0  0  0  0  0  0  0  0  0
   -1.2992   59.9046   72.8303 H   0  0  0  0  0  0  0  0  0  0  0  0
    0.6808   59.4909   75.1661 H   0  0  0  0  0  0  0  0  0  0  0  0
   -0.6959   57.5055   73.2984 H   0  0  0  0  0  0  0  0  0  0  0  0
    0.4709   57.1280   74.6295 H   0  0  0  0  0  0  0  0  0  0  0  0
   -1.9153   56.7606   75.2675 H   0  0  0  0  0  0  0  0  0  0  0  0
   -1.0558   57.9946   76.2837 H   0  0  0  0  0  0  0  0  0  0  0  0
   -4.0629   57.3289   75.0230 H   0  0  0  0  0  0  0  0  0  0  0  0
   -5.3465   61.3896   74.1958 H   0  0  0  0  0  0  0  0  0  0  0  0
   -4.5434   61.1899   75.7975 H   0  0  0  0  0  0  0  0  0  0  0  0
   -3.2929   60.7846   73.0470 H   0  0  0  0  0  0  0  0  0  0  0  0
   -2.9722   62.1239   74.2520 H   0  0  0  0  0  0  0  0  0  0  0  0
   -2.1091   60.1667   76.9289 H   0  0  0  0  0  0  0  0  0  0  0  0
   -0.6254   60.9074   76.2384 H   0  0  0  0  0  0  0  0  0  0  0  0
   -2.1703   61.8238   76.2384 H   0  0  0  0  0  0  0  0  0  0  0  0
    5.3958   62.7122   70.5780 H   0  0  0  0  0  0  0  0  0  0  0  0
    3.9649   61.8613   69.8638 H   0  0  0  0  0  0  0  0  0  0  0  0
    1.7491   65.1801   71.4359 H   0  0  0  0  0  0  0  0  0  0  0  0
    2.4627   65.7640   69.8944 H   0  0  0  0  0  0  0  0  0  0  0  0
    0.8510   64.9709   69.8944 H   0  0  0  0  0  0  0  0  0  0  0  0
    1.7117   59.7999   70.8105 H   0  0  0  0  0  0  0  0  0  0  0  0
  2  1  1  0
  3  2  1  0
  4  3  1  0
  5  4  1  0
  5  1  1  0
  5  6  1  1
  7  5  1  0
  8  7  1  0
  9  8  2  0
 10  8  1  0
 11 10  1  0
 11  4  1  0
 12 11  1  0
 13 12  1  0
 14 13  1  0
 15 14  2  0
 16 15  1  0
 17 16  2  0
 18 16  1  0
 19 18  1  0
 20 19  1  0
 20 14  1  0
 20 10  1  0
 20 21  1  1
 22  1  1  0
 23 22  2  0
 24 22  1  0
 25 24  1  0
 27 26  1  0
 27 25  1  0
 28 27  2  0
  1 29  1  6
  2 30  1  0
  2 31  1  0
  3 32  1  0
  3 33  1  0
  4 34  1  6
  6 35  1  0
  6 36  1  0
  6 37  1  0
  7 38  1  0
  7 39  1  0
 10 40  1  6
 11 41  1  1
 12 42  1  0
 12 43  1  0
 13 44  1  0
 13 45  1  0
 15 46  1  0
 18 47  1  0
 18 48  1  0
 19 49  1  0
 19 50  1  0
 21 51  1  0
 21 52  1  0
 21 53  1  0
 24 54  1  0
 24 55  1  0
 26 56  1  0
 26 57  1  0
 26 58  1  0
 29 59  1  0
M  END
>  <score>  (4) 
-8.733

$$$$
=
     RDKit          3D

 59 62  0  0  0  0  0  0  0  0999 V2000
    2.3790   61.7920   73.5230 C   0  0  1  0  0  0  0  0  0  0  0  0
    1.5350   62.4460   74.6580 C   0  0  0  0  0  0  0  0  0  0  0  0
    0.8670   61.3000   75.4390 C   0  0  0  0  0  0  0  0  0  0  0  0
    1.4730   60.0320   74.8500 C   0  0  2  0  0  0  0  0  0  0  0  0
    1.7100   60.3930   73.3580 C   0  0  1  0  0  0  0  0  0  0  0  0
    0.3950   60.5040   72.5420 C   0  0  0  0  0  0  0  0  0  0  0  0
    2.5900   59.2830   72.7690 C   0  0  0  0  0  0  0  0  0  0  0  0
    1.9170   57.9300   72.9650 C   0  0  0  0  0  0  0  0  0  0  0  0
    1.7650   57.1810   72.0010 O   0  0  0  0  0  0  0  0  0  0  0  0
    1.5260   57.5520   74.4060 C   0  0  1  0  0  0  0  0  0  0  0  0
    0.7110   58.7130   75.0480 C   0  0  1  0  0  0  0  0  0  0  0  0
    0.4740   58.4240   76.5360 C   0  0  0  0  0  0  0  0  0  0  0  0
   -0.2540   57.1010   76.7330 C   0  0  0  0  0  0  0  0  0  0  0  0
    0.4640   55.9560   76.0590 C   0  0  0  0  0  0  0  0  0  0  0  0
    0.7110   54.8300   76.7560 C   0  0  0  0  0  0  0  0  0  0  0  0
    1.2940   53.6280   76.1190 C   0  0  0  0  0  0  0  0  0  0  0  0
    1.5370   52.6390   76.8050 O   0  0  0  0  0  0  0  0  0  0  0  0
    1.4880   53.6450   74.6270 C   0  0  0  0  0  0  0  0  0  0  0  0
    1.8640   55.0440   74.1580 C   0  0  0  0  0  0  0  0  0  0  0  0
    0.8450   56.1460   74.5800 C   0  0  2  0  0  0  0  0  0  0  0  0
   -0.4480   56.0070   73.7450 C   0  0  0  0  0  0  0  0  0  0  0  0
    2.4210   62.6860   72.2540 C   0  0  0  0  0  0  0  0  0  0  0  0
    1.5110   63.4830   71.9990 O   0  0  0  0  0  0  0  0  0  0  0  0
    3.6040   62.5600   71.3030 C   0  0  0  0  0  0  0  0  0  0  0  0
    3.3340   61.6380   70.2550 O   0  0  0  0  0  0  0  0  0  0  0  0
    5.4390   60.9470   71.0190 C   0  0  0  0  0  0  0  0  0  0  0  0
    4.2790   60.6700   70.1150 C   0  0  0  0  0  0  0  0  0  0  0  0
    4.1940   59.7080   69.3660 O   0  0  0  0  0  0  0  0  0  0  0  0
    3.7060   61.6220   74.0360 O   0  0  0  0  0  0  0  0  0  0  0  0
    2.1867   63.0286   75.3257 H   0  0  0  0  0  0  0  0  0  0  0  0
    0.7804   63.1298   74.2420 H   0  0  0  0  0  0  0  0  0  0  0  0
    1.0942   61.3770   76.5125 H   0  0  0  0  0  0  0  0  0  0  0  0
   -0.2294   61.3186   75.3524 H   0  0  0  0  0  0  0  0  0  0  0  0
    2.3903   59.7772   75.4010 H   0  0  0  0  0  0  0  0  0  0  0  0
   -0.4592   60.5761   73.2313 H   0  0  0  0  0  0  0  0  0  0  0  0
    0.4315   61.4023   71.9081 H   0  0  0  0  0  0  0  0  0  0  0  0
    0.2804   59.6123   71.9081 H   0  0  0  0  0  0  0  0  0  0  0  0
    2.7367   59.4653   71.6942 H   0  0  0  0  0  0  0  0  0  0  0  0
    3.5632   59.2815   73.2816 H   0  0  0  0  0  0  0  0  0  0  0  0
    2.4680   57.4225   74.9590 H   0  0  0  0  0  0  0  0  0  0  0  0
   -0.2716   58.7986   74.5611 H   0  0  0  0  0  0  0  0  0  0  0  0
    1.4447   58.3792   77.0515 H   0  0  0  0  0  0  0  0  0  0  0  0
   -0.1500   59.2291   76.9512 H   0  0  0  0  0  0  0  0  0  0  0  0
   -0.3246   56.8912   77.8105 H   0  0  0  0  0  0  0  0  0  0  0  0
   -1.2522   57.1909   76.2796 H   0  0  0  0  0  0  0  0  0  0  0  0
    0.4725   54.8031   77.8295 H   0  0  0  0  0  0  0  0  0  0  0  0
    2.2917   52.9439   74.3577 H   0  0  0  0  0  0  0  0  0  0  0  0
    0.5477   53.3457   74.1409 H   0  0  0  0  0  0  0  0  0  0  0  0
    2.8462   55.2994   74.5824 H   0  0  0  0  0  0  0  0  0  0  0  0
    1.8727   55.0209   73.0583 H   0  0  0  0  0  0  0  0  0  0  0  0
   -1.3119   55.9141   74.4196 H   0  0  0  0  0  0  0  0  0  0  0  0
   -0.5722   56.8970   73.1105 H   0  0  0  0  0  0  0  0  0  0  0  0
   -0.3802   55.1110   73.1105 H   0  0  0  0  0  0  0  0  0  0  0  0
    3.8173   63.5463   70.8652 H   0  0  0  0  0  0  0  0  0  0  0  0
    4.4682   62.1899   71.8742 H   0  0  0  0  0  0  0  0  0  0  0  0
    5.1139   60.8694   72.0670 H   0  0  0  0  0  0  0  0  0  0  0  0
    6.2365   60.2140   70.8272 H   0  0  0  0  0  0  0  0  0  0  0  0
    5.8193   61.9612   70.8272 H   0  0  0  0  0  0  0  0  0  0  0  0
    3.6802   61.6253   75.0257 H   0  0  0  0  0  0  0  0  0  0  0  0
  2  1  1  0
  3  2  1  0
  4  3  1  0
  5  4  1  0
  5  1  1  0
  5  6  1  6
  7  5  1  0
  8  7  1  0
  9  8  2  0
 10  8  1  0
 11 10  1  0
 11  4  1  0
 12 11  1  0
 13 12  1  0
 14 13  1  0
 15 14  2  0
 16 15  1  0
 17 16  2  0
 18 16  1  0
 19 18  1  0
 20 19  1  0
 20 14  1  0
 20 10  1  0
 20 21  1  6
 22  1  1  0
 23 22  2  0
 24 22  1  0
 25 24  1  0
 27 26  1  0
 27 25  1  0
 28 27  2  0
  1 29  1  1
  2 30  1  0
  2 31  1  0
  3 32  1  0
  3 33  1  0
  4 34  1  1
  6 35  1  0
  6 36  1  0
  6 37  1  0
  7 38  1  0
  7 39  1  0
 10 40  1  1
 11 41  1  6
 12 42  1  0
 12 43  1  0
 13 44  1  0
 13 45  1  0
 15 46  1  0
 18 47  1  0
 18 48  1  0
 19 49  1  0
 19 50  1  0
 21 51  1  0
 21 52  1  0
 21 53  1  0
 24 54  1  0
 24 55  1  0
 26 56  1  0
 26 57  1  0
 26 58  1  0
 29 59  1  0
M  END
>  <score>  (5) 
-8.109

$$$$
=
     RDKit          3D

 59 62  0  0  0  0  0  0  0  0999 V2000
   -1.3410   59.5120   75.4290 C   0  0  1  0  0  0  0  0  0  0  0  0
   -1.8670   60.9040   75.8930 C   0  0  0  0  0  0  0  0  0  0  0  0
   -1.1210   61.9660   75.0650 C   0  0  0  0  0  0  0  0  0  0  0  0
   -0.3260   61.1640   74.0430 C   0  0  2  0  0  0  0  0  0  0  0  0
    0.0440   59.8590   74.8010 C   0  0  1  0  0  0  0  0  0  0  0  0
    1.1100   60.0790   75.9070 C   0  0  0  0  0  0  0  0  0  0  0  0
    0.5820   58.8760   73.7540 C   0  0  0  0  0  0  0  0  0  0  0  0
    1.7580   59.5000   73.0130 C   0  0  0  0  0  0  0  0  0  0  0  0
    2.8200   58.8830   72.9300 O   0  0  0  0  0  0  0  0  0  0  0  0
    1.5120   60.8650   72.3450 C   0  0  1  0  0  0  0  0  0  0  0  0
    0.8780   61.8450   73.3740 C   0  0  1  0  0  0  0  0  0  0  0  0
    0.4620   63.1450   72.6720 C   0  0  0  0  0  0  0  0  0  0  0  0
    1.6500   63.8040   71.9820 C   0  0  0  0  0  0  0  0  0  0  0  0
    2.3440   62.8610   71.0280 C   0  0  0  0  0  0  0  0  0  0  0  0
    2.6070   63.2690   69.7720 C   0  0  0  0  0  0  0  0  0  0  0  0
    3.3950   62.4420   68.8300 C   0  0  0  0  0  0  0  0  0  0  0  0
    3.5750   62.8410   67.6820 O   0  0  0  0  0  0  0  0  0  0  0  0
    4.0170   61.1760   69.3540 C   0  0  0  0  0  0  0  0  0  0  0  0
    3.1110   60.5330   70.3950 C   0  0  0  0  0  0  0  0  0  0  0  0
    2.7390   61.4780   71.5780 C   0  0  2  0  0  0  0  0  0  0  0  0
    3.9690   61.6770   72.4920 C   0  0  0  0  0  0  0  0  0  0  0  0
   -1.3270   58.4880   76.5960 C   0  0  0  0  0  0  0  0  0  0  0  0
   -1.5260   58.8420   77.7630 O   0  0  0  0  0  0  0  0  0  0  0  0
   -1.0490   57.0230   76.2870 C   0  0  0  0  0  0  0  0  0  0  0  0
   -2.1980   56.3750   75.7570 O   0  0  0  0  0  0  0  0  0  0  0  0
   -0.7030   55.3620   74.2630 C   0  0  0  0  0  0  0  0  0  0  0  0
   -1.9260   55.2090   75.1130 C   0  0  0  0  0  0  0  0  0  0  0  0
   -2.5780   54.1810   75.2140 O   0  0  0  0  0  0  0  0  0  0  0  0
   -2.2240   59.0550   74.3980 O   0  0  0  0  0  0  0  0  0  0  0  0
   -2.9498   60.9775   75.7140 H   0  0  0  0  0  0  0  0  0  0  0  0
   -1.6920   61.0510   76.9690 H   0  0  0  0  0  0  0  0  0  0  0  0
   -1.8326   62.6382   74.5633 H   0  0  0  0  0  0  0  0  0  0  0  0
   -0.4774   62.6052   75.6872 H   0  0  0  0  0  0  0  0  0  0  0  0
   -0.9445   61.0032   73.1477 H   0  0  0  0  0  0  0  0  0  0  0  0
    0.6380   59.9816   76.8958 H   0  0  0  0  0  0  0  0  0  0  0  0
    1.9054   59.3261   75.8046 H   0  0  0  0  0  0  0  0  0  0  0  0
    1.5423   61.0853   75.8046 H   0  0  0  0  0  0  0  0  0  0  0  0
    0.9140   57.9548   74.2552 H   0  0  0  0  0  0  0  0  0  0  0  0
   -0.2159   58.6408   73.0343 H   0  0  0  0  0  0  0  0  0  0  0  0
    0.7959   60.6861   71.5294 H   0  0  0  0  0  0  0  0  0  0  0  0
    1.6135   62.1019   74.1505 H   0  0  0  0  0  0  0  0  0  0  0  0
   -0.3077   62.9162   71.9202 H   0  0  0  0  0  0  0  0  0  0  0  0
    0.0704   63.8397   73.4296 H   0  0  0  0  0  0  0  0  0  0  0  0
    1.2933   64.6795   71.4195 H   0  0  0  0  0  0  0  0  0  0  0  0
    2.3736   64.0971   72.7569 H   0  0  0  0  0  0  0  0  0  0  0  0
    2.2255   64.2446   69.4362 H   0  0  0  0  0  0  0  0  0  0  0  0
    4.1675   60.4739   68.5207 H   0  0  0  0  0  0  0  0  0  0  0  0
    4.9826   61.4189   69.8215 H   0  0  0  0  0  0  0  0  0  0  0  0
    2.1817   60.2176   69.8981 H   0  0  0  0  0  0  0  0  0  0  0  0
    3.6679   59.6872   70.8246 H   0  0  0  0  0  0  0  0  0  0  0  0
    3.6553   61.6262   73.5451 H   0  0  0  0  0  0  0  0  0  0  0  0
    4.7071   60.8866   72.2908 H   0  0  0  0  0  0  0  0  0  0  0  0
    4.4202   62.6598   72.2908 H   0  0  0  0  0  0  0  0  0  0  0  0
   -0.2330   56.9614   75.5519 H   0  0  0  0  0  0  0  0  0  0  0  0
   -0.7705   56.5194   77.2245 H   0  0  0  0  0  0  0  0  0  0  0  0
    0.1807   55.4726   74.9086 H   0  0  0  0  0  0  0  0  0  0  0  0
   -0.5841   54.4717   73.6280 H   0  0  0  0  0  0  0  0  0  0  0  0
   -0.8071   56.2541   73.6280 H   0  0  0  0  0  0  0  0  0  0  0  0
   -3.0241   58.6409   74.8084 H   0  0  0  0  0  0  0  0  0  0  0  0
  2  1  1  0
  3  2  1  0
  4  3  1  0
  5  4  1  0
  5  1  1  0
  5  6  1  1
  7  5  1  0
  8  7  1  0
  9  8  2  0
 10  8  1  0
 11 10  1  0
 11  4  1  0
 12 11  1  0
 13 12  1  0
 14 13  1  0
 15 14  2  0
 16 15  1  0
 17 16  2  0
 18 16  1  0
 19 18  1  0
 20 19  1  0
 20 14  1  0
 20 10  1  0
 20 21  1  1
 22  1  1  0
 23 22  2  0
 24 22  1  0
 25 24  1  0
 27 26  1  0
 27 25  1  0
 28 27  2  0
  1 29  1  6
  2 30  1  0
  2 31  1  0
  3 32  1  0
  3 33  1  0
  4 34  1  6
  6 35  1  0
  6 36  1  0
  6 37  1  0
  7 38  1  0
  7 39  1  0
 10 40  1  6
 11 41  1  1
 12 42  1  0
 12 43  1  0
 13 44  1  0
 13 45  1  0
 15 46  1  0
 18 47  1  0
 18 48  1  0
 19 49  1  0
 19 50  1  0
 21 51  1  0
 21 52  1  0
 21 53  1  0
 24 54  1  0
 24 55  1  0
 26 56  1  0
 26 57  1  0
 26 58  1  0
 29 59  1  0
M  END
>  <score>  (6) 
-8.058

$$$$
=
     RDKit          3D

 59 62  0  0  0  0  0  0  0  0999 V2000
    2.7190   61.0190   73.4380 C   0  0  1  0  0  0  0  0  0  0  0  0
    1.4710   61.3900   72.5800 C   0  0  0  0  0  0  0  0  0  0  0  0
    0.3970   60.3250   72.8650 C   0  0  0  0  0  0  0  0  0  0  0  0
    0.9830   59.4820   73.9910 C   0  0  2  0  0  0  0  0  0  0  0  0
    2.5110   59.4980   73.7090 C   0  0  1  0  0  0  0  0  0  0  0  0
    2.9090   58.6580   72.4670 C   0  0  0  0  0  0  0  0  0  0  0  0
    3.1970   58.9290   74.9580 C   0  0  0  0  0  0  0  0  0  0  0  0
    2.6520   57.5390   75.2610 C   0  0  0  0  0  0  0  0  0  0  0  0
    3.4320   56.6010   75.4180 O   0  0  0  0  0  0  0  0  0  0  0  0
    1.1250   57.4130   75.4230 C   0  0  1  0  0  0  0  0  0  0  0  0
    0.4140   58.0710   74.2050 C   0  0  1  0  0  0  0  0  0  0  0  0
   -1.1020   58.1130   74.4430 C   0  0  0  0  0  0  0  0  0  0  0  0
   -1.6600   56.7160   74.6860 C   0  0  0  0  0  0  0  0  0  0  0  0
   -0.9450   56.0090   75.8130 C   0  0  0  0  0  0  0  0  0  0  0  0
   -1.6670   55.4320   76.7920 C   0  0  0  0  0  0  0  0  0  0  0  0
   -1.0330   54.6170   77.8530 C   0  0  0  0  0  0  0  0  0  0  0  0
   -1.7300   54.1430   78.7470 O   0  0  0  0  0  0  0  0  0  0  0  0
    0.4400   54.3350   77.7410 C   0  0  0  0  0  0  0  0  0  0  0  0
    1.1620   55.5280   77.1290 C   0  0  0  0  0  0  0  0  0  0  0  0
    0.5920   55.9700   75.7480 C   0  0  2  0  0  0  0  0  0  0  0  0
    0.9840   54.9370   74.6670 C   0  0  0  0  0  0  0  0  0  0  0  0
    4.0400   61.4150   72.7250 C   0  0  0  0  0  0  0  0  0  0  0  0
    5.1380   61.0530   73.1600 O   0  0  0  0  0  0  0  0  0  0  0  0
    3.9700   62.2780   71.4720 C   0  0  0  0  0  0  0  0  0  0  0  0
    4.6960   61.6950   70.3970 O   0  0  0  0  0  0  0  0  0  0  0  0
    2.7750   61.6870   69.0540 C   0  0  0  0  0  0  0  0  0  0  0  0
    3.9400   60.9110   69.5820 C   0  0  0  0  0  0  0  0  0  0  0  0
    4.1780   59.7430   69.3130 O   0  0  0  0  0  0  0  0  0  0  0  0
    2.6040   61.7370   74.6720 O   0  0  0  0  0  0  0  0  0  0  0  0
    1.1001   62.3860   72.8635 H   0  0  0  0  0  0  0  0  0  0  0  0
    1.7238   61.4163   71.5098 H   0  0  0  0  0  0  0  0  0  0  0  0
   -0.5441   60.7976   73.1827 H   0  0  0  0  0  0  0  0  0  0  0  0
    0.1574   59.7247   71.9749 H   0  0  0  0  0  0  0  0  0  0  0  0
    0.7000   59.9217   74.9588 H   0  0  0  0  0  0  0  0  0  0  0  0
    3.3586   57.7091   72.7949 H   0  0  0  0  0  0  0  0  0  0  0  0
    2.0137   58.4501   71.8627 H   0  0  0  0  0  0  0  0  0  0  0  0
    3.6370   59.2192   71.8627 H   0  0  0  0  0  0  0  0  0  0  0  0
    4.2809   58.8654   74.7818 H   0  0  0  0  0  0  0  0  0  0  0  0
    2.9977   59.5907   75.8138 H   0  0  0  0  0  0  0  0  0  0  0  0
    0.8632   57.9672   76.3364 H   0  0  0  0  0  0  0  0  0  0  0  0
    0.5962   57.4766   73.2975 H   0  0  0  0  0  0  0  0  0  0  0  0
   -1.3100   58.7405   75.3222 H   0  0  0  0  0  0  0  0  0  0  0  0
   -1.5842   58.5298   73.5465 H   0  0  0  0  0  0  0  0  0  0  0  0
   -2.7272   56.7990   74.9393 H   0  0  0  0  0  0  0  0  0  0  0  0
   -1.5133   56.1273   73.7684 H   0  0  0  0  0  0  0  0  0  0  0  0
   -2.7583   55.5699   76.8039 H   0  0  0  0  0  0  0  0  0  0  0  0
    0.8490   54.1385   78.7431 H   0  0  0  0  0  0  0  0  0  0  0  0
    0.5879   53.4574   77.0945 H   0  0  0  0  0  0  0  0  0  0  0  0
    1.0809   56.3762   77.8247 H   0  0  0  0  0  0  0  0  0  0  0  0
    2.2040   55.2185   76.9602 H   0  0  0  0  0  0  0  0  0  0  0  0
    1.3343   54.0139   75.1519 H   0  0  0  0  0  0  0  0  0  0  0  0
    0.1086   54.7124   74.0399 H   0  0  0  0  0  0  0  0  0  0  0  0
    1.7880   55.3497   74.0399 H   0  0  0  0  0  0  0  0  0  0  0  0
    2.9173   62.3900   71.1733 H   0  0  0  0  0  0  0  0  0  0  0  0
    4.4180   63.2562   71.7009 H   0  0  0  0  0  0  0  0  0  0  0  0
    2.1848   62.0801   69.8949 H   0  0  0  0  0  0  0  0  0  0  0  0
    3.1397   62.5232   68.4394 H   0  0  0  0  0  0  0  0  0  0  0  0
    2.1439   61.0282   68.4394 H   0  0  0  0  0  0  0  0  0  0  0  0
    2.7047   61.1084   75.4302 H   0  0  0  0  0  0  0  0  0  0  0  0
  2  1  1  0
  3  2  1  0
  4  3  1  0
  5  4  1  0
  5  1  1  0
  5  6  1  6
  7  5  1  0
  8  7  1  0
  9  8  2  0
 10  8  1  0
 11 10  1  0
 11  4  1  0
 12 11  1  0
 13 12  1  0
 14 13  1  0
 15 14  2  0
 16 15  1  0
 17 16  2  0
 18 16  1  0
 19 18  1  0
 20 19  1  0
 20 14  1  0
 20 10  1  0
 20 21  1  6
 22  1  1  0
 23 22  2  0
 24 22  1  0
 25 24  1  0
 27 26  1  0
 27 25  1  0
 28 27  2  0
  1 29  1  1
  2 30  1  0
  2 31  1  0
  3 32  1  0
  3 33  1  0
  4 34  1  1
  6 35  1  0
  6 36  1  0
  6 37  1  0
  7 38  1  0
  7 39  1  0
 10 40  1  1
 11 41  1  6
 12 42  1  0
 12 43  1  0
 13 44  1  0
 13 45  1  0
 15 46  1  0
 18 47  1  0
 18 48  1  0
 19 49  1  0
 19 50  1  0
 21 51  1  0
 21 52  1  0
 21 53  1  0
 24 54  1  0
 24 55  1  0
 26 56  1  0
 26 57  1  0
 26 58  1  0
 29 59  1  0
M  END
>  <score>  (7) 
-7.862

$$$$
=
     RDKit          3D

 59 62  0  0  0  0  0  0  0  0999 V2000
    3.3200   59.8710   71.2460 C   0  0  1  0  0  0  0  0  0  0  0  0
    3.7400   58.4330   70.8160 C   0  0  0  0  0  0  0  0  0  0  0  0
    2.8730   57.4510   71.6240 C   0  0  0  0  0  0  0  0  0  0  0  0
    1.8740   58.3360   72.3580 C   0  0  2  0  0  0  0  0  0  0  0  0
    2.6740   59.6370   72.6460 C   0  0  1  0  0  0  0  0  0  0  0  0
    3.7660   59.4520   73.7320 C   0  0  0  0  0  0  0  0  0  0  0  0
    1.6570   60.6880   73.1110 C   0  0  0  0  0  0  0  0  0  0  0  0
    0.8910   60.1680   74.3200 C   0  0  0  0  0  0  0  0  0  0  0  0
    0.8230   60.8560   75.3380 O   0  0  0  0  0  0  0  0  0  0  0  0
    0.1780   58.8120   74.1600 C   0  0  1  0  0  0  0  0  0  0  0  0
    1.1770   57.7590   73.5990 C   0  0  1  0  0  0  0  0  0  0  0  0
    0.4340   56.4580   73.2660 C   0  0  0  0  0  0  0  0  0  0  0  0
   -0.2830   55.9020   74.4900 C   0  0  0  0  0  0  0  0  0  0  0  0
   -1.2090   56.9200   75.1130 C   0  0  0  0  0  0  0  0  0  0  0  0
   -2.4790   56.5720   75.3930 C   0  0  0  0  0  0  0  0  0  0  0  0
   -3.3960   57.4800   76.1190 C   0  0  0  0  0  0  0  0  0  0  0  0
   -4.5570   57.1320   76.3170 O   0  0  0  0  0  0  0  0  0  0  0  0
   -2.8330   58.7670   76.6590 C   0  0  0  0  0  0  0  0  0  0  0  0
   -1.7670   59.3130   75.7200 C   0  0  0  0  0  0  0  0  0  0  0  0
   -0.6140   58.3070   75.4200 C   0  0  2  0  0  0  0  0  0  0  0  0
    0.2870   58.1600   76.6670 C   0  0  0  0  0  0  0  0  0  0  0  0
    4.5200   60.8550   71.2000 C   0  0  0  0  0  0  0  0  0  0  0  0
    5.6760   60.4500   71.0360 O   0  0  0  0  0  0  0  0  0  0  0  0
    4.2580   62.3440   71.3760 C   0  0  0  0  0  0  0  0  0  0  0  0
    2.9490   62.6970   70.9450 O   0  0  0  0  0  0  0  0  0  0  0  0
    3.7940   63.0550   68.7880 C   0  0  0  0  0  0  0  0  0  0  0  0
    2.9290   63.5650   69.8980 C   0  0  0  0  0  0  0  0  0  0  0  0
    2.2940   64.6080   69.8620 O   0  0  0  0  0  0  0  0  0  0  0  0
    2.3090   60.3020   70.3270 O   0  0  0  0  0  0  0  0  0  0  0  0
    3.5643   58.2942   69.7390 H   0  0  0  0  0  0  0  0  0  0  0  0
    4.8096   58.2623   71.0080 H   0  0  0  0  0  0  0  0  0  0  0  0
    2.3526   56.7505   70.9543 H   0  0  0  0  0  0  0  0  0  0  0  0
    3.4706   56.8358   72.3128 H   0  0  0  0  0  0  0  0  0  0  0  0
    0.9867   58.4841   71.7249 H   0  0  0  0  0  0  0  0  0  0  0  0
    3.3082   59.5296   74.7292 H   0  0  0  0  0  0  0  0  0  0  0  0
    4.2321   58.4621   73.6185 H   0  0  0  0  0  0  0  0  0  0  0  0
    4.5321   60.2332   73.6185 H   0  0  0  0  0  0  0  0  0  0  0  0
    2.1869   61.6123   73.3848 H   0  0  0  0  0  0  0  0  0  0  0  0
    0.9491   60.8934   72.2945 H   0  0  0  0  0  0  0  0  0  0  0  0
   -0.6283   58.9699   73.4286 H   0  0  0  0  0  0  0  0  0  0  0  0
    1.9416   57.5262   74.3548 H   0  0  0  0  0  0  0  0  0  0  0  0
   -0.3063   56.6597   72.4778 H   0  0  0  0  0  0  0  0  0  0  0  0
    1.1702   55.7144   72.9269 H   0  0  0  0  0  0  0  0  0  0  0  0
   -0.8722   55.0235   74.1881 H   0  0  0  0  0  0  0  0  0  0  0  0
    0.4782   55.6324   75.2369 H   0  0  0  0  0  0  0  0  0  0  0  0
   -2.8458   55.5854   75.0735 H   0  0  0  0  0  0  0  0  0  0  0  0
   -3.6431   59.5048   76.7563 H   0  0  0  0  0  0  0  0  0  0  0  0
   -2.3787   58.5739   77.6420 H   0  0  0  0  0  0  0  0  0  0  0  0
   -2.2486   59.5817   74.7682 H   0  0  0  0  0  0  0  0  0  0  0  0
   -1.3122   60.1793   76.2226 H   0  0  0  0  0  0  0  0  0  0  0  0
   -0.3251   58.2599   77.5755 H   0  0  0  0  0  0  0  0  0  0  0  0
    0.7691   57.1713   76.6565 H   0  0  0  0  0  0  0  0  0  0  0  0
    1.0583   58.9442   76.6565 H   0  0  0  0  0  0  0  0  0  0  0  0
    4.3662   62.6028   72.4396 H   0  0  0  0  0  0  0  0  0  0  0  0
    4.9845   62.8974   70.7628 H   0  0  0  0  0  0  0  0  0  0  0  0
    4.6684   62.5395   69.2118 H   0  0  0  0  0  0  0  0  0  0  0  0
    3.2185   62.3517   68.1682 H   0  0  0  0  0  0  0  0  0  0  0  0
    4.1308   63.8991   68.1682 H   0  0  0  0  0  0  0  0  0  0  0  0
    1.5253   60.6361   70.8314 H   0  0  0  0  0  0  0  0  0  0  0  0
  2  1  1  0
  3  2  1  0
  4  3  1  0
  5  4  1  0
  5  1  1  0
  5  6  1  1
  7  5  1  0
  8  7  1  0
  9  8  2  0
 10  8  1  0
 11 10  1  0
 11  4  1  0
 12 11  1  0
 13 12  1  0
 14 13  1  0
 15 14  2  0
 16 15  1  0
 17 16  2  0
 18 16  1  0
 19 18  1  0
 20 19  1  0
 20 14  1  0
 20 10  1  0
 20 21  1  1
 22  1  1  0
 23 22  2  0
 24 22  1  0
 25 24  1  0
 27 26  1  0
 27 25  1  0
 28 27  2  0
  1 29  1  6
  2 30  1  0
  2 31  1  0
  3 32  1  0
  3 33  1  0
  4 34  1  6
  6 35  1  0
  6 36  1  0
  6 37  1  0
  7 38  1  0
  7 39  1  0
 10 40  1  6
 11 41  1  1
 12 42  1  0
 12 43  1  0
 13 44  1  0
 13 45  1  0
 15 46  1  0
 18 47  1  0
 18 48  1  0
 19 49  1  0
 19 50  1  0
 21 51  1  0
 21 52  1  0
 21 53  1  0
 24 54  1  0
 24 55  1  0
 26 56  1  0
 26 57  1  0
 26 58  1  0
 29 59  1  0
M  END
>  <score>  (8) 
-7.457

$$$$
=
     RDKit          3D

 59 62  0  0  0  0  0  0  0  0999 V2000
    3.3530   61.8710   70.6680 C   0  0  1  0  0  0  0  0  0  0  0  0
    4.8150   61.9900   71.1940 C   0  0  0  0  0  0  0  0  0  0  0  0
    4.8940   61.1680   72.4930 C   0  0  0  0  0  0  0  0  0  0  0  0
    3.5440   60.4670   72.5850 C   0  0  2  0  0  0  0  0  0  0  0  0
    2.5550   61.4840   71.9510 C   0  0  1  0  0  0  0  0  0  0  0  0
    2.3090   62.7300   72.8420 C   0  0  0  0  0  0  0  0  0  0  0  0
    1.2330   60.7380   71.7310 C   0  0  0  0  0  0  0  0  0  0  0  0
    0.7410   60.1570   73.0510 C   0  0  0  0  0  0  0  0  0  0  0  0
   -0.4080   60.3870   73.4250 O   0  0  0  0  0  0  0  0  0  0  0  0
    1.7170   59.2410   73.8120 C   0  0  1  0  0  0  0  0  0  0  0  0
    3.0940   59.9510   73.9600 C   0  0  1  0  0  0  0  0  0  0  0  0
    4.1230   58.9800   74.5540 C   0  0  0  0  0  0  0  0  0  0  0  0
    3.6610   58.4440   75.9030 C   0  0  0  0  0  0  0  0  0  0  0  0
    2.2920   57.8120   75.8220 C   0  0  0  0  0  0  0  0  0  0  0  0
    2.1000   56.5850   76.3410 C   0  0  0  0  0  0  0  0  0  0  0  0
    0.7570   55.9650   76.4080 C   0  0  0  0  0  0  0  0  0  0  0  0
    0.6390   54.8280   76.8550 O   0  0  0  0  0  0  0  0  0  0  0  0
   -0.4250   56.8000   75.9960 C   0  0  0  0  0  0  0  0  0  0  0  0
   -0.0440   57.7290   74.8520 C   0  0  0  0  0  0  0  0  0  0  0  0
    1.1770   58.6460   75.1630 C   0  0  2  0  0  0  0  0  0  0  0  0
    0.7630   59.7430   76.1700 C   0  0  0  0  0  0  0  0  0  0  0  0
    2.8990   63.1670   69.9430 C   0  0  0  0  0  0  0  0  0  0  0  0
    3.1520   63.3570   68.7480 O   0  0  0  0  0  0  0  0  0  0  0  0
    2.1400   64.2250   70.7330 C   0  0  0  0  0  0  0  0  0  0  0  0
    1.7230   65.2980   69.8990 O   0  0  0  0  0  0  0  0  0  0  0  0
    0.0510   65.5850   71.5160 C   0  0  0  0  0  0  0  0  0  0  0  0
    0.4200   65.6530   70.0680 C   0  0  0  0  0  0  0  0  0  0  0  0
   -0.3390   65.9850   69.1700 O   0  0  0  0  0  0  0  0  0  0  0  0
    3.3290   60.7720   69.7490 O   0  0  0  0  0  0  0  0  0  0  0  0
    5.5182   61.5885   70.4495 H   0  0  0  0  0  0  0  0  0  0  0  0
    5.0818   63.0412   71.3777 H   0  0  0  0  0  0  0  0  0  0  0  0
    5.7106   60.4330   72.4387 H   0  0  0  0  0  0  0  0  0  0  0  0
    5.0998   61.7955   73.3727 H   0  0  0  0  0  0  0  0  0  0  0  0
    3.5979   59.5036   72.0569 H   0  0  0  0  0  0  0  0  0  0  0  0
    2.3662   62.4401   73.9016 H   0  0  0  0  0  0  0  0  0  0  0  0
    3.0743   63.4906   72.6281 H   0  0  0  0  0  0  0  0  0  0  0  0
    1.3120   63.1427   72.6281 H   0  0  0  0  0  0  0  0  0  0  0  0
    0.4806   61.4371   71.3369 H   0  0  0  0  0  0  0  0  0  0  0  0
    1.3929   59.9208   71.0122 H   0  0  0  0  0  0  0  0  0  0  0  0
    1.8412   58.3391   73.1947 H   0  0  0  0  0  0  0  0  0  0  0  0
    3.0045   60.8067   74.6454 H   0  0  0  0  0  0  0  0  0  0  0  0
    4.2619   58.1367   73.8615 H   0  0  0  0  0  0  0  0  0  0  0  0
    5.0689   59.5220   74.7003 H   0  0  0  0  0  0  0  0  0  0  0  0
    4.3810   57.6884   76.2503 H   0  0  0  0  0  0  0  0  0  0  0  0
    3.6035   59.2904   76.6032 H   0  0  0  0  0  0  0  0  0  0  0  0
    2.9658   56.0267   76.7265 H   0  0  0  0  0  0  0  0  0  0  0  0
   -1.2405   56.1380   75.6693 H   0  0  0  0  0  0  0  0  0  0  0  0
   -0.7513   57.4055   76.8544 H   0  0  0  0  0  0  0  0  0  0  0  0
    0.1997   57.1141   73.9730 H   0  0  0  0  0  0  0  0  0  0  0  0
   -0.9048   58.3915   74.6785 H   0  0  0  0  0  0  0  0  0  0  0  0
    0.9034   59.3711   77.1957 H   0  0  0  0  0  0  0  0  0  0  0  0
    1.3858   60.6365   76.0155 H   0  0  0  0  0  0  0  0  0  0  0  0
   -0.2948   60.0022   76.0155 H   0  0  0  0  0  0  0  0  0  0  0  0
    1.2531   63.7620   71.1902 H   0  0  0  0  0  0  0  0  0  0  0  0
    2.8124   64.6284   71.5044 H   0  0  0  0  0  0  0  0  0  0  0  0
    0.9479   65.7503   72.1311 H   0  0  0  0  0  0  0  0  0  0  0  0
   -0.6959   66.3606   71.7409 H   0  0  0  0  0  0  0  0  0  0  0  0
   -0.3703   64.5941   71.7409 H   0  0  0  0  0  0  0  0  0  0  0  0
    3.3104   59.9204   70.2534 H   0  0  0  0  0  0  0  0  0  0  0  0
  2  1  1  0
  3  2  1  0
  4  3  1  0
  5  4  1  0
  5  1  1  0
  5  6  1  1
  7  5  1  0
  8  7  1  0
  9  8  2  0
 10  8  1  0
 11 10  1  0
 11  4  1  0
 12 11  1  0
 13 12  1  0
 14 13  1  0
 15 14  2  0
 16 15  1  0
 17 16  2  0
 18 16  1  0
 19 18  1  0
 20 19  1  0
 20 14  1  0
 20 10  1  0
 20 21  1  1
 22  1  1  0
 23 22  2  0
 24 22  1  0
 25 24  1  0
 27 26  1  0
 27 25  1  0
 28 27  2  0
  1 29  1  6
  2 30  1  0
  2 31  1  0
  3 32  1  0
  3 33  1  0
  4 34  1  6
  6 35  1  0
  6 36  1  0
  6 37  1  0
  7 38  1  0
  7 39  1  0
 10 40  1  6
 11 41  1  1
 12 42  1  0
 12 43  1  0
 13 44  1  0
 13 45  1  0
 15 46  1  0
 18 47  1  0
 18 48  1  0
 19 49  1  0
 19 50  1  0
 21 51  1  0
 21 52  1  0
 21 53  1  0
 24 54  1  0
 24 55  1  0
 26 56  1  0
 26 57  1  0
 26 58  1  0
 29 59  1  0
M  END
>  <score>  (9) 
-7.429

$$$$
