=
     RDKit          3D

 46 48  0  0  0  0  0  0  0  0999 V2000
   -0.6690   67.6850   66.7780 C   0  0  0  0  0  0  0  0  0  0  0  0
   -0.6180   68.6800   67.7480 C   0  0  0  0  0  0  0  0  0  0  0  0
    0.5590   69.4020   67.9790 C   0  0  0  0  0  0  0  0  0  0  0  0
    1.7030   69.1170   67.2070 C   0  0  0  0  0  0  0  0  0  0  0  0
    1.6750   68.1190   66.2320 C   0  0  0  0  0  0  0  0  0  0  0  0
    0.4750   67.4010   66.0240 C   0  0  0  0  0  0  0  0  0  0  0  0
    2.9610   68.0690   65.6260 C   0  0  0  0  0  0  0  0  0  0  0  0
    3.7330   69.0640   66.2140 C   0  0  0  0  0  0  0  0  0  0  0  0
    3.0040   69.6400   67.2550 N   0  0  0  0  0  0  0  0  0  0  0  0
    3.4670   70.5780   68.2170 C   0  0  0  0  0  0  0  0  0  0  0  0
    2.6410   71.3030   68.7760 O   0  0  0  0  0  0  0  0  0  0  0  0
    5.0870   69.5260   65.7690 C   0  0  0  0  0  0  0  0  0  0  0  0
    4.8720   70.7260   68.6600 C   0  0  0  0  0  0  0  0  0  0  0  0
    5.7640   71.4520   67.8590 C   0  0  0  0  0  0  0  0  0  0  0  0
    7.0820   71.6420   68.2800 C   0  0  0  0  0  0  0  0  0  0  0  0
    7.4990   71.1200   69.5050 C   0  0  0  0  0  0  0  0  0  0  0  0
    6.6090   70.4150   70.3150 C   0  0  0  0  0  0  0  0  0  0  0  0
    5.2890   70.2240   69.8990 C   0  0  0  0  0  0  0  0  0  0  0  0
    9.1200   71.3650   70.0280 Cl  0  0  0  0  0  0  0  0  0  0  0  0
   -2.9260   67.1210   67.2550 C   0  0  0  0  0  0  0  0  0  0  0  0
   -1.7580   66.9160   66.4720 O   0  0  0  0  0  0  0  0  0  0  0  0
    3.3920   67.1390   64.5230 C   0  0  0  0  0  0  0  0  0  0  0  0
    3.5390   67.8060   63.1720 C   0  0  0  0  0  0  0  0  0  0  0  0
    4.3570   67.5230   62.3050 O   0  0  0  0  0  0  0  0  0  0  0  0
    2.6140   68.8100   63.0830 O   0  0  0  0  0  0  0  0  0  0  0  0
    1.7940   68.7510   61.8950 C   0  0  0  0  0  0  0  0  0  0  0  0
    0.3020   68.9780   62.2400 C   0  0  0  0  0  0  0  0  0  0  0  0
   -0.1620   70.1370   62.0230 O   0  0  0  0  0  0  0  0  0  0  0  0
   -0.2950   67.9530   62.6840 O   0  0  0  0  0  1  0  0  0  0  0  0
   -1.5160   68.9032   68.3428 H   0  0  0  0  0  0  0  0  0  0  0  0
    0.5904   70.1823   68.7537 H   0  0  0  0  0  0  0  0  0  0  0  0
    0.4403   66.6099   65.2605 H   0  0  0  0  0  0  0  0  0  0  0  0
    5.7099   69.7385   66.6504 H   0  0  0  0  0  0  0  0  0  0  0  0
    5.5626   68.7393   65.1649 H   0  0  0  0  0  0  0  0  0  0  0  0
    4.9826   70.4394   65.1649 H   0  0  0  0  0  0  0  0  0  0  0  0
    5.4264   71.8717   66.8999 H   0  0  0  0  0  0  0  0  0  0  0  0
    7.7884   72.2008   67.6485 H   0  0  0  0  0  0  0  0  0  0  0  0
    6.9460   70.0097   71.2805 H   0  0  0  0  0  0  0  0  0  0  0  0
    4.5803   69.6816   70.5420 H   0  0  0  0  0  0  0  0  0  0  0  0
   -2.6645   67.0751   68.3225 H   0  0  0  0  0  0  0  0  0  0  0  0
   -3.3535   68.1079   67.0243 H   0  0  0  0  0  0  0  0  0  0  0  0
   -3.6641   66.3387   67.0243 H   0  0  0  0  0  0  0  0  0  0  0  0
    4.3629   66.7021   64.7996 H   0  0  0  0  0  0  0  0  0  0  0  0
    2.5994   66.3835   64.4183 H   0  0  0  0  0  0  0  0  0  0  0  0
    2.1232   69.5298   61.1914 H   0  0  0  0  0  0  0  0  0  0  0  0
    1.9019   67.7538   61.4434 H   0  0  0  0  0  0  0  0  0  0  0  0
  2  1  2  0
  3  2  1  0
  4  3  2  0
  5  4  1  0
  6  5  2  0
  6  1  1  0
  7  5  1  0
  8  7  2  0
  9  8  1  0
  9  4  1  0
 10  9  1  0
 11 10  2  0
 12  8  1  0
 13 10  1  0
 14 13  2  0
 15 14  1  0
 16 15  2  0
 17 16  1  0
 18 13  1  0
 18 17  2  0
 19 16  1  0
 21 20  1  0
 21  1  1  0
 22  7  1  0
 23 22  1  0
 24 23  2  0
 25 23  1  0
 26 25  1  0
 27 26  1  0
 28 27  2  0
 29 27  1  0
  2 30  1  0
  3 31  1  0
  6 32  1  0
 12 33  1  0
 12 34  1  0
 12 35  1  0
 14 36  1  0
 15 37  1  0
 17 38  1  0
 18 39  1  0
 20 40  1  0
 20 41  1  0
 20 42  1  0
 22 43  1  0
 22 44  1  0
 26 45  1  0
 26 46  1  0
M  CHG  1  29  -1
M  END
>  <score>  (1) 
-8.566

$$$$
=
     RDKit          3D

 46 48  0  0  0  0  0  0  0  0999 V2000
    1.2380   65.7050   69.9030 C   0  0  0  0  0  0  0  0  0  0  0  0
    0.1090   65.6240   70.7100 C   0  0  0  0  0  0  0  0  0  0  0  0
    0.0250   64.6780   71.7390 C   0  0  0  0  0  0  0  0  0  0  0  0
    1.1080   63.8040   71.9590 C   0  0  0  0  0  0  0  0  0  0  0  0
    2.2490   63.8660   71.1570 C   0  0  0  0  0  0  0  0  0  0  0  0
    2.3050   64.8260   70.1220 C   0  0  0  0  0  0  0  0  0  0  0  0
    3.1580   62.8730   71.6200 C   0  0  0  0  0  0  0  0  0  0  0  0
    2.5710   62.2570   72.7180 C   0  0  0  0  0  0  0  0  0  0  0  0
    1.2730   62.7480   72.8670 N   0  0  0  0  0  0  0  0  0  0  0  0
    0.2700   62.2790   73.7590 C   0  0  0  0  0  0  0  0  0  0  0  0
   -0.6350   63.0510   74.0830 O   0  0  0  0  0  0  0  0  0  0  0  0
    3.2260   61.2920   73.6580 C   0  0  0  0  0  0  0  0  0  0  0  0
    0.1790   60.9020   74.2960 C   0  0  0  0  0  0  0  0  0  0  0  0
    0.3270   60.6990   75.6750 C   0  0  0  0  0  0  0  0  0  0  0  0
    0.1990   59.4140   76.2070 C   0  0  0  0  0  0  0  0  0  0  0  0
   -0.0900   58.3420   75.3640 C   0  0  0  0  0  0  0  0  0  0  0  0
   -0.2580   58.5410   73.9940 C   0  0  0  0  0  0  0  0  0  0  0  0
   -0.1330   59.8250   73.4570 C   0  0  0  0  0  0  0  0  0  0  0  0
   -0.2580   56.7600   76.0230 Cl  0  0  0  0  0  0  0  0  0  0  0  0
    0.3170   67.3960   68.5110 C   0  0  0  0  0  0  0  0  0  0  0  0
    1.4270   66.5840   68.8710 O   0  0  0  0  0  0  0  0  0  0  0  0
    4.5190   62.5760   71.0510 C   0  0  0  0  0  0  0  0  0  0  0  0
    4.7150   61.1330   70.6360 C   0  0  0  0  0  0  0  0  0  0  0  0
    5.7540   60.4880   70.7130 O   0  0  0  0  0  0  0  0  0  0  0  0
    3.5330   60.6650   70.1300 O   0  0  0  0  0  0  0  0  0  0  0  0
    3.6130   59.3290   69.5880 C   0  0  0  0  0  0  0  0  0  0  0  0
    3.3460   58.2690   70.6840 C   0  0  0  0  0  0  0  0  0  0  0  0
    2.6090   58.6250   71.6510 O   0  0  0  0  0  0  0  0  0  0  0  0
    3.8870   57.1450   70.4690 O   0  0  0  0  0  1  0  0  0  0  0  0
   -0.7308   66.3132   70.5377 H   0  0  0  0  0  0  0  0  0  0  0  0
   -0.8755   64.6180   72.3679 H   0  0  0  0  0  0  0  0  0  0  0  0
    3.1971   64.8833   69.4811 H   0  0  0  0  0  0  0  0  0  0  0  0
    3.0208   61.5943   74.6956 H   0  0  0  0  0  0  0  0  0  0  0  0
    2.8259   60.2821   73.4844 H   0  0  0  0  0  0  0  0  0  0  0  0
    4.3122   61.2910   73.4844 H   0  0  0  0  0  0  0  0  0  0  0  0
    0.5436   61.5503   76.3371 H   0  0  0  0  0  0  0  0  0  0  0  0
    0.3257   59.2485   77.2871 H   0  0  0  0  0  0  0  0  0  0  0  0
   -0.4884   57.6890   73.3375 H   0  0  0  0  0  0  0  0  0  0  0  0
   -0.2791   59.9892   72.3792 H   0  0  0  0  0  0  0  0  0  0  0  0
   -0.1812   67.7605   69.4214 H   0  0  0  0  0  0  0  0  0  0  0  0
    0.6670   68.2528   67.9165 H   0  0  0  0  0  0  0  0  0  0  0  0
   -0.3936   66.8030   67.9165 H   0  0  0  0  0  0  0  0  0  0  0  0
    4.6703   63.2131   70.1671 H   0  0  0  0  0  0  0  0  0  0  0  0
    5.2474   62.7776   71.8502 H   0  0  0  0  0  0  0  0  0  0  0  0
    2.8633   59.2188   68.7906 H   0  0  0  0  0  0  0  0  0  0  0  0
    4.6260   59.1728   69.1887 H   0  0  0  0  0  0  0  0  0  0  0  0
  2  1  2  0
  3  2  1  0
  4  3  2  0
  5  4  1  0
  6  5  2  0
  6  1  1  0
  7  5  1  0
  8  7  2  0
  9  8  1  0
  9  4  1  0
 10  9  1  0
 11 10  2  0
 12  8  1  0
 13 10  1  0
 14 13  2  0
 15 14  1  0
 16 15  2  0
 17 16  1  0
 18 13  1  0
 18 17  2  0
 19 16  1  0
 21 20  1  0
 21  1  1  0
 22  7  1  0
 23 22  1  0
 24 23  2  0
 25 23  1  0
 26 25  1  0
 27 26  1  0
 28 27  2  0
 29 27  1  0
  2 30  1  0
  3 31  1  0
  6 32  1  0
 12 33  1  0
 12 34  1  0
 12 35  1  0
 14 36  1  0
 15 37  1  0
 17 38  1  0
 18 39  1  0
 20 40  1  0
 20 41  1  0
 20 42  1  0
 22 43  1  0
 22 44  1  0
 26 45  1  0
 26 46  1  0
M  CHG  1  29  -1
M  END
>  <score>  (2) 
-8.559

$$$$
=
     RDKit          3D

 46 48  0  0  0  0  0  0  0  0999 V2000
    0.4220   62.7260   71.4910 C   0  0  0  0  0  0  0  0  0  0  0  0
   -0.7580   62.3530   72.1230 C   0  0  0  0  0  0  0  0  0  0  0  0
   -0.8120   61.2130   72.9340 C   0  0  0  0  0  0  0  0  0  0  0  0
    0.3540   60.4420   73.1150 C   0  0  0  0  0  0  0  0  0  0  0  0
    1.5480   60.7970   72.4860 C   0  0  0  0  0  0  0  0  0  0  0  0
    1.5730   61.9490   71.6670 C   0  0  0  0  0  0  0  0  0  0  0  0
    2.5340   59.8420   72.8590 C   0  0  0  0  0  0  0  0  0  0  0  0
    1.9330   58.9510   73.7390 C   0  0  0  0  0  0  0  0  0  0  0  0
    0.5720   59.2490   73.8190 N   0  0  0  0  0  0  0  0  0  0  0  0
   -0.4400   58.4960   74.4740 C   0  0  0  0  0  0  0  0  0  0  0  0
   -1.4690   59.0760   74.8270 O   0  0  0  0  0  0  0  0  0  0  0  0
    2.6190   57.8950   74.5510 C   0  0  0  0  0  0  0  0  0  0  0  0
   -0.3940   57.0370   74.7240 C   0  0  0  0  0  0  0  0  0  0  0  0
   -0.4690   56.5700   76.0430 C   0  0  0  0  0  0  0  0  0  0  0  0
   -0.4730   55.1970   76.2980 C   0  0  0  0  0  0  0  0  0  0  0  0
   -0.4170   54.2970   75.2330 C   0  0  0  0  0  0  0  0  0  0  0  0
   -0.3620   54.7560   73.9170 C   0  0  0  0  0  0  0  0  0  0  0  0
   -0.3600   56.1290   73.6590 C   0  0  0  0  0  0  0  0  0  0  0  0
   -0.4330   52.6040   75.5470 Cl  0  0  0  0  0  0  0  0  0  0  0  0
    0.3530   65.0890   71.2540 C   0  0  0  0  0  0  0  0  0  0  0  0
    0.5890   63.8130   70.6760 O   0  0  0  0  0  0  0  0  0  0  0  0
    3.9730   59.8250   72.4140 C   0  0  0  0  0  0  0  0  0  0  0  0
    4.1690   59.4160   70.9690 C   0  0  0  0  0  0  0  0  0  0  0  0
    3.8340   58.3540   70.4610 O   0  0  0  0  0  0  0  0  0  0  0  0
    4.8150   60.4320   70.3190 O   0  0  0  0  0  0  0  0  0  0  0  0
    4.0720   60.9880   69.2120 C   0  0  0  0  0  0  0  0  0  0  0  0
    4.0220   62.5330   69.2980 C   0  0  0  0  0  0  0  0  0  0  0  0
    3.3630   63.1310   68.3970 O   0  0  0  0  0  0  0  0  0  0  0  0
    4.6380   63.0220   70.2900 O   0  0  0  0  0  1  0  0  0  0  0  0
   -1.6631   62.9625   71.9840 H   0  0  0  0  0  0  0  0  0  0  0  0
   -1.7530   60.9225   73.4240 H   0  0  0  0  0  0  0  0  0  0  0  0
    2.5069   62.2379   71.1626 H   0  0  0  0  0  0  0  0  0  0  0  0
    2.4807   58.1079   75.6213 H   0  0  0  0  0  0  0  0  0  0  0  0
    2.1868   56.9116   74.3139 H   0  0  0  0  0  0  0  0  0  0  0  0
    3.6931   57.8902   74.3139 H   0  0  0  0  0  0  0  0  0  0  0  0
   -0.5247   57.2847   76.8773 H   0  0  0  0  0  0  0  0  0  0  0  0
   -0.5200   54.8269   77.3328 H   0  0  0  0  0  0  0  0  0  0  0  0
   -0.3203   54.0385   73.0842 H   0  0  0  0  0  0  0  0  0  0  0  0
   -0.3318   56.4955   72.6222 H   0  0  0  0  0  0  0  0  0  0  0  0
    0.3688   65.0034   72.3506 H   0  0  0  0  0  0  0  0  0  0  0  0
    1.1369   65.7892   70.9295 H   0  0  0  0  0  0  0  0  0  0  0  0
   -0.6295   65.4625   70.9295 H   0  0  0  0  0  0  0  0  0  0  0  0
    4.3873   60.8354   72.5462 H   0  0  0  0  0  0  0  0  0  0  0  0
    4.4862   59.0713   73.0292 H   0  0  0  0  0  0  0  0  0  0  0  0
    4.5580   60.6957   68.2695 H   0  0  0  0  0  0  0  0  0  0  0  0
    3.0430   60.6012   69.2509 H   0  0  0  0  0  0  0  0  0  0  0  0
  2  1  2  0
  3  2  1  0
  4  3  2  0
  5  4  1  0
  6  5  2  0
  6  1  1  0
  7  5  1  0
  8  7  2  0
  9  8  1  0
  9  4  1  0
 10  9  1  0
 11 10  2  0
 12  8  1  0
 13 10  1  0
 14 13  2  0
 15 14  1  0
 16 15  2  0
 17 16  1  0
 18 13  1  0
 18 17  2  0
 19 16  1  0
 21 20  1  0
 21  1  1  0
 22  7  1  0
 23 22  1  0
 24 23  2  0
 25 23  1  0
 26 25  1  0
 27 26  1  0
 28 27  2  0
 29 27  1  0
  2 30  1  0
  3 31  1  0
  6 32  1  0
 12 33  1  0
 12 34  1  0
 12 35  1  0
 14 36  1  0
 15 37  1  0
 17 38  1  0
 18 39  1  0
 20 40  1  0
 20 41  1  0
 20 42  1  0
 22 43  1  0
 22 44  1  0
 26 45  1  0
 26 46  1  0
M  CHG  1  29  -1
M  END
>  <score>  (3) 
-8.306

$$$$
=
     RDKit          3D

 46 48  0  0  0  0  0  0  0  0999 V2000
    0.3650   64.5150   71.9920 C   0  0  0  0  0  0  0  0  0  0  0  0
    0.0770   64.0780   73.2800 C   0  0  0  0  0  0  0  0  0  0  0  0
    0.4350   62.7910   73.7020 C   0  0  0  0  0  0  0  0  0  0  0  0
    1.1050   61.9350   72.8040 C   0  0  0  0  0  0  0  0  0  0  0  0
    1.3980   62.3530   71.5050 C   0  0  0  0  0  0  0  0  0  0  0  0
    1.0200   63.6540   71.1040 C   0  0  0  0  0  0  0  0  0  0  0  0
    2.0720   61.2850   70.8490 C   0  0  0  0  0  0  0  0  0  0  0  0
    2.2110   60.2560   71.7730 C   0  0  0  0  0  0  0  0  0  0  0  0
    1.5290   60.6060   72.9390 N   0  0  0  0  0  0  0  0  0  0  0  0
    1.2810   59.7840   74.0720 C   0  0  0  0  0  0  0  0  0  0  0  0
    1.0670   60.3290   75.1570 O   0  0  0  0  0  0  0  0  0  0  0  0
    3.0270   59.0100   71.6070 C   0  0  0  0  0  0  0  0  0  0  0  0
    1.1940   58.3060   74.0550 C   0  0  0  0  0  0  0  0  0  0  0  0
    2.1990   57.5590   74.6850 C   0  0  0  0  0  0  0  0  0  0  0  0
    2.1130   56.1650   74.7190 C   0  0  0  0  0  0  0  0  0  0  0  0
    1.0180   55.5260   74.1380 C   0  0  0  0  0  0  0  0  0  0  0  0
    0.0060   56.2650   73.5270 C   0  0  0  0  0  0  0  0  0  0  0  0
    0.0870   57.6600   73.4920 C   0  0  0  0  0  0  0  0  0  0  0  0
    0.9080   53.8090   74.1900 Cl  0  0  0  0  0  0  0  0  0  0  0  0
    0.7240   66.1160   70.2740 C   0  0  0  0  0  0  0  0  0  0  0  0
    0.0580   65.7430   71.4730 O   0  0  0  0  0  0  0  0  0  0  0  0
    2.5750   61.2860   69.4300 C   0  0  0  0  0  0  0  0  0  0  0  0
    3.4670   62.4620   69.0910 C   0  0  0  0  0  0  0  0  0  0  0  0
    3.1310   63.4870   68.5100 O   0  0  0  0  0  0  0  0  0  0  0  0
    4.7350   62.1800   69.5210 O   0  0  0  0  0  0  0  0  0  0  0  0
    5.0260   62.6650   70.8500 C   0  0  0  0  0  0  0  0  0  0  0  0
    5.4790   61.5090   71.7740 C   0  0  0  0  0  0  0  0  0  0  0  0
    5.1110   61.5720   72.9860 O   0  0  0  0  0  0  0  0  0  0  0  0
    6.1550   60.6080   71.1950 O   0  0  0  0  0  1  0  0  0  0  0  0
   -0.4397   64.7529   73.9782 H   0  0  0  0  0  0  0  0  0  0  0  0
    0.1964   62.4525   74.7211 H   0  0  0  0  0  0  0  0  0  0  0  0
    1.2431   63.9942   70.0820 H   0  0  0  0  0  0  0  0  0  0  0  0
    3.2896   58.6090   72.5971 H   0  0  0  0  0  0  0  0  0  0  0  0
    2.4438   58.2611   71.0510 H   0  0  0  0  0  0  0  0  0  0  0  0
    3.9465   59.2453   71.0510 H   0  0  0  0  0  0  0  0  0  0  0  0
    3.0541   58.0696   75.1519 H   0  0  0  0  0  0  0  0  0  0  0  0
    2.9053   55.5741   75.2018 H   0  0  0  0  0  0  0  0  0  0  0  0
   -0.8545   55.7513   73.0734 H   0  0  0  0  0  0  0  0  0  0  0  0
   -0.7161   58.2480   73.0238 H   0  0  0  0  0  0  0  0  0  0  0  0
    1.6591   66.6397   70.5217 H   0  0  0  0  0  0  0  0  0  0  0  0
    0.9530   65.2149   69.6862 H   0  0  0  0  0  0  0  0  0  0  0  0
    0.0753   66.7821   69.6862 H   0  0  0  0  0  0  0  0  0  0  0  0
    3.1462   60.3604   69.2653 H   0  0  0  0  0  0  0  0  0  0  0  0
    1.6907   61.3609   68.7801 H   0  0  0  0  0  0  0  0  0  0  0  0
    5.8286   63.4149   70.7918 H   0  0  0  0  0  0  0  0  0  0  0  0
    4.1120   63.1114   71.2687 H   0  0  0  0  0  0  0  0  0  0  0  0
  2  1  2  0
  3  2  1  0
  4  3  2  0
  5  4  1  0
  6  5  2  0
  6  1  1  0
  7  5  1  0
  8  7  2  0
  9  8  1  0
  9  4  1  0
 10  9  1  0
 11 10  2  0
 12  8  1  0
 13 10  1  0
 14 13  2  0
 15 14  1  0
 16 15  2  0
 17 16  1  0
 18 13  1  0
 18 17  2  0
 19 16  1  0
 21 20  1  0
 21  1  1  0
 22  7  1  0
 23 22  1  0
 24 23  2  0
 25 23  1  0
 26 25  1  0
 27 26  1  0
 28 27  2  0
 29 27  1  0
  2 30  1  0
  3 31  1  0
  6 32  1  0
 12 33  1  0
 12 34  1  0
 12 35  1  0
 14 36  1  0
 15 37  1  0
 17 38  1  0
 18 39  1  0
 20 40  1  0
 20 41  1  0
 20 42  1  0
 22 43  1  0
 22 44  1  0
 26 45  1  0
 26 46  1  0
M  CHG  1  29  -1
M  END
>  <score>  (4) 
-8.302

$$$$
=
     RDKit          3D

 46 48  0  0  0  0  0  0  0  0999 V2000
    1.4750   64.5220   70.7120 C   0  0  0  0  0  0  0  0  0  0  0  0
    0.1600   64.4300   71.1520 C   0  0  0  0  0  0  0  0  0  0  0  0
   -0.2020   63.5230   72.1550 C   0  0  0  0  0  0  0  0  0  0  0  0
    0.7880   62.6990   72.7280 C   0  0  0  0  0  0  0  0  0  0  0  0
    2.1130   62.7730   72.2960 C   0  0  0  0  0  0  0  0  0  0  0  0
    2.4500   63.6930   71.2780 C   0  0  0  0  0  0  0  0  0  0  0  0
    2.8680   61.8340   73.0550 C   0  0  0  0  0  0  0  0  0  0  0  0
    1.9960   61.2400   73.9600 C   0  0  0  0  0  0  0  0  0  0  0  0
    0.7010   61.6880   73.6950 N   0  0  0  0  0  0  0  0  0  0  0  0
   -0.5090   61.2170   74.2720 C   0  0  0  0  0  0  0  0  0  0  0  0
   -1.4880   61.9660   74.2780 O   0  0  0  0  0  0  0  0  0  0  0  0
    2.3670   60.3380   75.0980 C   0  0  0  0  0  0  0  0  0  0  0  0
   -0.7220   59.8600   74.8260 C   0  0  0  0  0  0  0  0  0  0  0  0
   -1.0780   59.7230   76.1740 C   0  0  0  0  0  0  0  0  0  0  0  0
   -1.3280   58.4560   76.7040 C   0  0  0  0  0  0  0  0  0  0  0  0
   -1.2350   57.3320   75.8830 C   0  0  0  0  0  0  0  0  0  0  0  0
   -0.9000   57.4640   74.5350 C   0  0  0  0  0  0  0  0  0  0  0  0
   -0.6520   58.7310   74.0000 C   0  0  0  0  0  0  0  0  0  0  0  0
   -1.5530   55.7710   76.5340 Cl  0  0  0  0  0  0  0  0  0  0  0  0
    1.2470   66.5940   69.5720 C   0  0  0  0  0  0  0  0  0  0  0  0
    1.9400   65.3650   69.7390 O   0  0  0  0  0  0  0  0  0  0  0  0
    4.3440   61.5660   72.9280 C   0  0  0  0  0  0  0  0  0  0  0  0
    4.6780   60.2250   72.3100 C   0  0  0  0  0  0  0  0  0  0  0  0
    4.3020   59.1280   72.7030 O   0  0  0  0  0  0  0  0  0  0  0  0
    5.5020   60.4370   71.2390 O   0  0  0  0  0  0  0  0  0  0  0  0
    4.8900   61.1830   70.1640 C   0  0  0  0  0  0  0  0  0  0  0  0
    3.7260   60.3860   69.5290 C   0  0  0  0  0  0  0  0  0  0  0  0
    2.6650   61.0320   69.2770 O   0  0  0  0  0  0  0  0  0  0  0  0
    3.9830   59.1650   69.3110 O   0  0  0  0  0  1  0  0  0  0  0  0
   -0.6076   65.0793   70.7057 H   0  0  0  0  0  0  0  0  0  0  0  0
   -1.2468   63.4541   72.4921 H   0  0  0  0  0  0  0  0  0  0  0  0
    3.4903   63.7583   70.9265 H   0  0  0  0  0  0  0  0  0  0  0  0
    2.1582   60.8456   76.0513 H   0  0  0  0  0  0  0  0  0  0  0  0
    1.7769   59.4116   75.0390 H   0  0  0  0  0  0  0  0  0  0  0  0
    3.4382   60.0948   75.0390 H   0  0  0  0  0  0  0  0  0  0  0  0
   -1.1605   60.6134   76.8145 H   0  0  0  0  0  0  0  0  0  0  0  0
   -1.5972   58.3444   77.7647 H   0  0  0  0  0  0  0  0  0  0  0  0
   -0.8312   56.5724   73.8945 H   0  0  0  0  0  0  0  0  0  0  0  0
   -0.4028   58.8412   72.9343 H   0  0  0  0  0  0  0  0  0  0  0  0
    1.0083   67.0174   70.5588 H   0  0  0  0  0  0  0  0  0  0  0  0
    1.8804   67.2992   69.0139 H   0  0  0  0  0  0  0  0  0  0  0  0
    0.3157   66.4169   69.0139 H   0  0  0  0  0  0  0  0  0  0  0  0
    4.7856   62.3548   72.3012 H   0  0  0  0  0  0  0  0  0  0  0  0
    4.7534   61.5554   73.9489 H   0  0  0  0  0  0  0  0  0  0  0  0
    4.5016   62.1326   70.5607 H   0  0  0  0  0  0  0  0  0  0  0  0
    5.6495   61.3705   69.3906 H   0  0  0  0  0  0  0  0  0  0  0  0
  2  1  2  0
  3  2  1  0
  4  3  2  0
  5  4  1  0
  6  5  2  0
  6  1  1  0
  7  5  1  0
  8  7  2  0
  9  8  1  0
  9  4  1  0
 10  9  1  0
 11 10  2  0
 12  8  1  0
 13 10  1  0
 14 13  2  0
 15 14  1  0
 16 15  2  0
 17 16  1  0
 18 13  1  0
 18 17  2  0
 19 16  1  0
 21 20  1  0
 21  1  1  0
 22  7  1  0
 23 22  1  0
 24 23  2  0
 25 23  1  0
 26 25  1  0
 27 26  1  0
 28 27  2  0
 29 27  1  0
  2 30  1  0
  3 31  1  0
  6 32  1  0
 12 33  1  0
 12 34  1  0
 12 35  1  0
 14 36  1  0
 15 37  1  0
 17 38  1  0
 18 39  1  0
 20 40  1  0
 20 41  1  0
 20 42  1  0
 22 43  1  0
 22 44  1  0
 26 45  1  0
 26 46  1  0
M  CHG  1  29  -1
M  END
>  <score>  (5) 
-7.987

$$$$
=
     RDKit          3D

 46 48  0  0  0  0  0  0  0  0999 V2000
    4.0170   61.7660   70.3290 C   0  0  0  0  0  0  0  0  0  0  0  0
    4.1530   60.4410   69.9310 C   0  0  0  0  0  0  0  0  0  0  0  0
    3.4690   59.4160   70.5970 C   0  0  0  0  0  0  0  0  0  0  0  0
    2.6270   59.7410   71.6790 C   0  0  0  0  0  0  0  0  0  0  0  0
    2.4810   61.0650   72.0970 C   0  0  0  0  0  0  0  0  0  0  0  0
    3.1870   62.0790   71.4110 C   0  0  0  0  0  0  0  0  0  0  0  0
    1.5750   61.0750   73.1940 C   0  0  0  0  0  0  0  0  0  0  0  0
    1.1570   59.7660   73.3950 C   0  0  0  0  0  0  0  0  0  0  0  0
    1.8760   58.9290   72.5410 N   0  0  0  0  0  0  0  0  0  0  0  0
    1.8790   57.5080   72.5270 C   0  0  0  0  0  0  0  0  0  0  0  0
    2.1970   56.9310   71.4850 O   0  0  0  0  0  0  0  0  0  0  0  0
    0.0560   59.3090   74.3040 C   0  0  0  0  0  0  0  0  0  0  0  0
    1.5880   56.6400   73.6920 C   0  0  0  0  0  0  0  0  0  0  0  0
    0.4900   55.7710   73.6340 C   0  0  0  0  0  0  0  0  0  0  0  0
    0.2240   54.9130   74.7030 C   0  0  0  0  0  0  0  0  0  0  0  0
    1.0640   54.9140   75.8170 C   0  0  0  0  0  0  0  0  0  0  0  0
    2.1700   55.7630   75.8700 C   0  0  0  0  0  0  0  0  0  0  0  0
    2.4410   56.6220   74.8020 C   0  0  0  0  0  0  0  0  0  0  0  0
    0.7420   53.8480   77.1290 Cl  0  0  0  0  0  0  0  0  0  0  0  0
    5.2530   63.7710   70.6410 C   0  0  0  0  0  0  0  0  0  0  0  0
    4.6380   62.8440   69.7570 O   0  0  0  0  0  0  0  0  0  0  0  0
    1.1240   62.2860   73.9660 C   0  0  0  0  0  0  0  0  0  0  0  0
   -0.3080   62.6970   73.6920 C   0  0  0  0  0  0  0  0  0  0  0  0
   -1.2460   62.6340   74.4770 O   0  0  0  0  0  0  0  0  0  0  0  0
   -0.3920   63.1330   72.3980 O   0  0  0  0  0  0  0  0  0  0  0  0
    0.3070   64.3720   72.1490 C   0  0  0  0  0  0  0  0  0  0  0  0
    0.7150   64.4880   70.6600 C   0  0  0  0  0  0  0  0  0  0  0  0
    1.6930   65.2500   70.3960 O   0  0  0  0  0  0  0  0  0  0  0  0
    0.0250   63.7780   69.8710 O   0  0  0  0  0  1  0  0  0  0  0  0
    4.8067   60.1941   69.0815 H   0  0  0  0  0  0  0  0  0  0  0  0
    3.5878   58.3697   70.2791 H   0  0  0  0  0  0  0  0  0  0  0  0
    3.0828   63.1262   71.7313 H   0  0  0  0  0  0  0  0  0  0  0  0
    0.3675   59.4383   75.3510 H   0  0  0  0  0  0  0  0  0  0  0  0
   -0.8480   59.9062   74.1140 H   0  0  0  0  0  0  0  0  0  0  0  0
   -0.1594   58.2472   74.1140 H   0  0  0  0  0  0  0  0  0  0  0  0
   -0.1613   55.7649   72.7476 H   0  0  0  0  0  0  0  0  0  0  0  0
   -0.6445   54.2389   74.6670 H   0  0  0  0  0  0  0  0  0  0  0  0
    2.8278   55.7560   76.7516 H   0  0  0  0  0  0  0  0  0  0  0  0
    3.3209   57.2814   74.8331 H   0  0  0  0  0  0  0  0  0  0  0  0
    5.0550   63.4726   71.6811 H   0  0  0  0  0  0  0  0  0  0  0  0
    6.3385   63.7825   70.4631 H   0  0  0  0  0  0  0  0  0  0  0  0
    4.8416   64.7756   70.4631 H   0  0  0  0  0  0  0  0  0  0  0  0
    1.2210   62.0669   75.0396 H   0  0  0  0  0  0  0  0  0  0  0  0
    1.7611   63.1227   73.6435 H   0  0  0  0  0  0  0  0  0  0  0  0
   -0.3506   65.2147   72.4087 H   0  0  0  0  0  0  0  0  0  0  0  0
    1.2181   64.3908   72.7650 H   0  0  0  0  0  0  0  0  0  0  0  0
  2  1  2  0
  3  2  1  0
  4  3  2  0
  5  4  1  0
  6  5  2  0
  6  1  1  0
  7  5  1  0
  8  7  2  0
  9  8  1  0
  9  4  1  0
 10  9  1  0
 11 10  2  0
 12  8  1  0
 13 10  1  0
 14 13  2  0
 15 14  1  0
 16 15  2  0
 17 16  1  0
 18 13  1  0
 18 17  2  0
 19 16  1  0
 21 20  1  0
 21  1  1  0
 22  7  1  0
 23 22  1  0
 24 23  2  0
 25 23  1  0
 26 25  1  0
 27 26  1  0
 28 27  2  0
 29 27  1  0
  2 30  1  0
  3 31  1  0
  6 32  1  0
 12 33  1  0
 12 34  1  0
 12 35  1  0
 14 36  1  0
 15 37  1  0
 17 38  1  0
 18 39  1  0
 20 40  1  0
 20 41  1  0
 20 42  1  0
 22 43  1  0
 22 44  1  0
 26 45  1  0
 26 46  1  0
M  CHG  1  29  -1
M  END
>  <score>  (6) 
-7.948

$$$$
=
     RDKit          3D

 46 48  0  0  0  0  0  0  0  0999 V2000
    3.6990   61.7810   70.0970 C   0  0  0  0  0  0  0  0  0  0  0  0
    4.1160   60.4550   70.1110 C   0  0  0  0  0  0  0  0  0  0  0  0
    3.4480   59.4980   70.8860 C   0  0  0  0  0  0  0  0  0  0  0  0
    2.3330   59.8910   71.6530 C   0  0  0  0  0  0  0  0  0  0  0  0
    1.9020   61.2180   71.6560 C   0  0  0  0  0  0  0  0  0  0  0  0
    2.5980   62.1650   70.8710 C   0  0  0  0  0  0  0  0  0  0  0  0
    0.7670   61.3030   72.5110 C   0  0  0  0  0  0  0  0  0  0  0  0
    0.5060   60.0200   72.9770 C   0  0  0  0  0  0  0  0  0  0  0  0
    1.5220   59.1690   72.5410 N   0  0  0  0  0  0  0  0  0  0  0  0
    1.7350   57.8150   72.9170 C   0  0  0  0  0  0  0  0  0  0  0  0
    2.3730   57.0870   72.1550 O   0  0  0  0  0  0  0  0  0  0  0  0
   -0.7020   59.5760   73.7430 C   0  0  0  0  0  0  0  0  0  0  0  0
    1.3010   57.2040   74.1940 C   0  0  0  0  0  0  0  0  0  0  0  0
    0.3290   56.1950   74.1700 C   0  0  0  0  0  0  0  0  0  0  0  0
   -0.0610   55.5740   75.3580 C   0  0  0  0  0  0  0  0  0  0  0  0
    0.5310   55.9530   76.5630 C   0  0  0  0  0  0  0  0  0  0  0  0
    1.5130   56.9430   76.5910 C   0  0  0  0  0  0  0  0  0  0  0  0
    1.9080   57.5650   75.4030 C   0  0  0  0  0  0  0  0  0  0  0  0
    0.0580   55.1790   78.0260 Cl  0  0  0  0  0  0  0  0  0  0  0  0
    3.7580   63.0430   68.0850 C   0  0  0  0  0  0  0  0  0  0  0  0
    4.2770   62.7970   69.3850 O   0  0  0  0  0  0  0  0  0  0  0  0
   -0.0270   62.5440   72.8200 C   0  0  0  0  0  0  0  0  0  0  0  0
    0.5500   63.3860   73.9390 C   0  0  0  0  0  0  0  0  0  0  0  0
    1.7000   63.3500   74.3580 O   0  0  0  0  0  0  0  0  0  0  0  0
   -0.4430   64.1870   74.4320 O   0  0  0  0  0  0  0  0  0  0  0  0
   -0.6310   64.0810   75.8600 C   0  0  0  0  0  0  0  0  0  0  0  0
   -1.5130   62.8590   76.2140 C   0  0  0  0  0  0  0  0  0  0  0  0
   -1.1160   62.1310   77.1720 O   0  0  0  0  0  0  0  0  0  0  0  0
   -2.5570   62.7440   75.5070 O   0  0  0  0  0  1  0  0  0  0  0  0
    4.9828   60.1528   69.5049 H   0  0  0  0  0  0  0  0  0  0  0  0
    3.7897   58.4525   70.8957 H   0  0  0  0  0  0  0  0  0  0  0  0
    2.2708   63.2152   70.8683 H   0  0  0  0  0  0  0  0  0  0  0  0
   -0.4999   59.6503   74.8217 H   0  0  0  0  0  0  0  0  0  0  0  0
   -1.5565   60.2188   73.4849 H   0  0  0  0  0  0  0  0  0  0  0  0
   -0.9368   58.5328   73.4849 H   0  0  0  0  0  0  0  0  0  0  0  0
   -0.1265   55.8924   73.2156 H   0  0  0  0  0  0  0  0  0  0  0  0
   -0.8317   54.7893   75.3439 H   0  0  0  0  0  0  0  0  0  0  0  0
    1.9756   57.2337   77.5457 H   0  0  0  0  0  0  0  0  0  0  0  0
    2.6930   58.3354   75.4180 H   0  0  0  0  0  0  0  0  0  0  0  0
    2.7669   63.5128   68.1687 H   0  0  0  0  0  0  0  0  0  0  0  0
    4.4374   63.7149   67.5401 H   0  0  0  0  0  0  0  0  0  0  0  0
    3.6680   62.0917   67.5401 H   0  0  0  0  0  0  0  0  0  0  0  0
   -0.0705   63.1614   71.9106 H   0  0  0  0  0  0  0  0  0  0  0  0
   -1.0199   62.2095   73.1550 H   0  0  0  0  0  0  0  0  0  0  0  0
    0.3501   63.9691   76.3447 H   0  0  0  0  0  0  0  0  0  0  0  0
   -1.1348   64.9918   76.2158 H   0  0  0  0  0  0  0  0  0  0  0  0
  2  1  2  0
  3  2  1  0
  4  3  2  0
  5  4  1  0
  6  5  2  0
  6  1  1  0
  7  5  1  0
  8  7  2  0
  9  8  1  0
  9  4  1  0
 10  9  1  0
 11 10  2  0
 12  8  1  0
 13 10  1  0
 14 13  2  0
 15 14  1  0
 16 15  2  0
 17 16  1  0
 18 13  1  0
 18 17  2  0
 19 16  1  0
 21 20  1  0
 21  1  1  0
 22  7  1  0
 23 22  1  0
 24 23  2  0
 25 23  1  0
 26 25  1  0
 27 26  1  0
 28 27  2  0
 29 27  1  0
  2 30  1  0
  3 31  1  0
  6 32  1  0
 12 33  1  0
 12 34  1  0
 12 35  1  0
 14 36  1  0
 15 37  1  0
 17 38  1  0
 18 39  1  0
 20 40  1  0
 20 41  1  0
 20 42  1  0
 22 43  1  0
 22 44  1  0
 26 45  1  0
 26 46  1  0
M  CHG  1  29  -1
M  END
>  <score>  (7) 
-7.703

$$$$
=
     RDKit          3D

 46 48  0  0  0  0  0  0  0  0999 V2000
    1.6520   63.1730   70.8680 C   0  0  0  0  0  0  0  0  0  0  0  0
    0.7660   63.9850   71.5670 C   0  0  0  0  0  0  0  0  0  0  0  0
    0.0200   63.4820   72.6400 C   0  0  0  0  0  0  0  0  0  0  0  0
    0.1820   62.1330   73.0170 C   0  0  0  0  0  0  0  0  0  0  0  0
    1.0620   61.3000   72.3250 C   0  0  0  0  0  0  0  0  0  0  0  0
    1.7980   61.8330   71.2420 C   0  0  0  0  0  0  0  0  0  0  0  0
    1.0100   60.0150   72.9340 C   0  0  0  0  0  0  0  0  0  0  0  0
    0.1330   60.1020   74.0070 C   0  0  0  0  0  0  0  0  0  0  0  0
   -0.4590   61.3670   74.0010 N   0  0  0  0  0  0  0  0  0  0  0  0
   -1.5260   61.8240   74.8200 C   0  0  0  0  0  0  0  0  0  0  0  0
   -1.6450   63.0360   75.0080 O   0  0  0  0  0  0  0  0  0  0  0  0
   -0.0940   59.0640   75.0640 C   0  0  0  0  0  0  0  0  0  0  0  0
   -2.5650   60.9630   75.4310 C   0  0  0  0  0  0  0  0  0  0  0  0
   -3.4730   60.2970   74.5970 C   0  0  0  0  0  0  0  0  0  0  0  0
   -4.4310   59.4450   75.1500 C   0  0  0  0  0  0  0  0  0  0  0  0
   -4.4680   59.2490   76.5310 C   0  0  0  0  0  0  0  0  0  0  0  0
   -3.5530   59.8930   77.3640 C   0  0  0  0  0  0  0  0  0  0  0  0
   -2.5920   60.7450   76.8140 C   0  0  0  0  0  0  0  0  0  0  0  0
   -5.6420   58.1890   77.2110 Cl  0  0  0  0  0  0  0  0  0  0  0  0
    3.0480   62.5180   69.0610 C   0  0  0  0  0  0  0  0  0  0  0  0
    2.4240   63.5560   69.8050 O   0  0  0  0  0  0  0  0  0  0  0  0
    1.7930   58.7980   72.5160 C   0  0  0  0  0  0  0  0  0  0  0  0
    3.1120   58.6320   73.2420 C   0  0  0  0  0  0  0  0  0  0  0  0
    3.2680   58.2080   74.3800 O   0  0  0  0  0  0  0  0  0  0  0  0
    4.1150   59.0610   72.4170 O   0  0  0  0  0  0  0  0  0  0  0  0
    4.7210   60.3070   72.8260 C   0  0  0  0  0  0  0  0  0  0  0  0
    5.2820   61.0770   71.6060 C   0  0  0  0  0  0  0  0  0  0  0  0
    5.6190   60.3820   70.6010 O   0  0  0  0  0  0  0  0  0  0  0  0
    5.3150   62.3340   71.7490 O   0  0  0  0  0  1  0  0  0  0  0  0
    0.6493   65.0385   71.2727 H   0  0  0  0  0  0  0  0  0  0  0  0
   -0.6835   64.1311   73.1820 H   0  0  0  0  0  0  0  0  0  0  0  0
    2.4936   61.1864   70.6870 H   0  0  0  0  0  0  0  0  0  0  0  0
    0.0067   59.5246   76.0578 H   0  0  0  0  0  0  0  0  0  0  0  0
   -1.1051   58.6447   74.9550 H   0  0  0  0  0  0  0  0  0  0  0  0
    0.6497   58.2609   74.9550 H   0  0  0  0  0  0  0  0  0  0  0  0
   -3.4311   60.4453   73.5078 H   0  0  0  0  0  0  0  0  0  0  0  0
   -5.1536   58.9304   74.4996 H   0  0  0  0  0  0  0  0  0  0  0  0
   -3.5880   59.7304   78.4514 H   0  0  0  0  0  0  0  0  0  0  0  0
   -1.8588   61.2431   77.4654 H   0  0  0  0  0  0  0  0  0  0  0  0
    3.4887   61.7850   69.7528 H   0  0  0  0  0  0  0  0  0  0  0  0
    2.2994   62.0201   68.4272 H   0  0  0  0  0  0  0  0  0  0  0  0
    3.8389   62.9456   68.4272 H   0  0  0  0  0  0  0  0  0  0  0  0
    1.1772   57.9075   72.7104 H   0  0  0  0  0  0  0  0  0  0  0  0
    2.0315   58.9250   71.4497 H   0  0  0  0  0  0  0  0  0  0  0  0
    3.9637   60.9283   73.3264 H   0  0  0  0  0  0  0  0  0  0  0  0
    5.5513   60.0845   73.5124 H   0  0  0  0  0  0  0  0  0  0  0  0
  2  1  2  0
  3  2  1  0
  4  3  2  0
  5  4  1  0
  6  5  2  0
  6  1  1  0
  7  5  1  0
  8  7  2  0
  9  8  1  0
  9  4  1  0
 10  9  1  0
 11 10  2  0
 12  8  1  0
 13 10  1  0
 14 13  2  0
 15 14  1  0
 16 15  2  0
 17 16  1  0
 18 13  1  0
 18 17  2  0
 19 16  1  0
 21 20  1  0
 21  1  1  0
 22  7  1  0
 23 22  1  0
 24 23  2  0
 25 23  1  0
 26 25  1  0
 27 26  1  0
 28 27  2  0
 29 27  1  0
  2 30  1  0
  3 31  1  0
  6 32  1  0
 12 33  1  0
 12 34  1  0
 12 35  1  0
 14 36  1  0
 15 37  1  0
 17 38  1  0
 18 39  1  0
 20 40  1  0
 20 41  1  0
 20 42  1  0
 22 43  1  0
 22 44  1  0
 26 45  1  0
 26 46  1  0
M  CHG  1  29  -1
M  END
>  <score>  (8) 
-7.672

$$$$
=
     RDKit          3D

 46 48  0  0  0  0  0  0  0  0999 V2000
   -1.4050   56.0330   74.9090 C   0  0  0  0  0  0  0  0  0  0  0  0
   -0.7230   55.6460   73.7620 C   0  0  0  0  0  0  0  0  0  0  0  0
    0.3540   56.3980   73.2760 C   0  0  0  0  0  0  0  0  0  0  0  0
    0.7510   57.5580   73.9700 C   0  0  0  0  0  0  0  0  0  0  0  0
    0.0760   57.9670   75.1210 C   0  0  0  0  0  0  0  0  0  0  0  0
   -1.0110   57.1920   75.5860 C   0  0  0  0  0  0  0  0  0  0  0  0
    0.7020   59.1540   75.5930 C   0  0  0  0  0  0  0  0  0  0  0  0
    1.7700   59.4210   74.7450 C   0  0  0  0  0  0  0  0  0  0  0  0
    1.7430   58.5090   73.6890 N   0  0  0  0  0  0  0  0  0  0  0  0
    2.5500   58.5190   72.5190 C   0  0  0  0  0  0  0  0  0  0  0  0
    2.7210   57.4590   71.9140 O   0  0  0  0  0  0  0  0  0  0  0  0
    2.8400   60.4490   74.9520 C   0  0  0  0  0  0  0  0  0  0  0  0
    3.1690   59.7220   71.9170 C   0  0  0  0  0  0  0  0  0  0  0  0
    2.3390   60.7360   71.4180 C   0  0  0  0  0  0  0  0  0  0  0  0
    2.9020   61.8990   70.8880 C   0  0  0  0  0  0  0  0  0  0  0  0
    4.2880   62.0510   70.8710 C   0  0  0  0  0  0  0  0  0  0  0  0
    5.1180   61.0540   71.3850 C   0  0  0  0  0  0  0  0  0  0  0  0
    4.5590   59.8900   71.9190 C   0  0  0  0  0  0  0  0  0  0  0  0
    4.9800   63.4900   70.2280 Cl  0  0  0  0  0  0  0  0  0  0  0  0
   -2.3970   53.9610   75.5170 C   0  0  0  0  0  0  0  0  0  0  0  0
   -2.4700   55.3800   75.4690 O   0  0  0  0  0  0  0  0  0  0  0  0
    0.3060   59.9490   76.8080 C   0  0  0  0  0  0  0  0  0  0  0  0
   -0.6520   61.0870   76.5190 C   0  0  0  0  0  0  0  0  0  0  0  0
   -1.8710   61.0090   76.4440 O   0  0  0  0  0  0  0  0  0  0  0  0
    0.0790   62.2270   76.3280 O   0  0  0  0  0  0  0  0  0  0  0  0
   -0.4560   63.1050   75.3140 C   0  0  0  0  0  0  0  0  0  0  0  0
    0.1680   62.7990   73.9310 C   0  0  0  0  0  0  0  0  0  0  0  0
   -0.5000   62.0460   73.1610 O   0  0  0  0  0  0  0  0  0  0  0  0
    1.2790   63.3670   73.7190 O   0  0  0  0  0  1  0  0  0  0  0  0
   -1.0334   54.7358   73.2279 H   0  0  0  0  0  0  0  0  0  0  0  0
    0.8835   56.0867   72.3635 H   0  0  0  0  0  0  0  0  0  0  0  0
   -1.5533   57.5040   76.4907 H   0  0  0  0  0  0  0  0  0  0  0  0
    2.9985   60.6013   76.0298 H   0  0  0  0  0  0  0  0  0  0  0  0
    3.7758   60.1026   74.4891 H   0  0  0  0  0  0  0  0  0  0  0  0
    2.5313   61.3979   74.4891 H   0  0  0  0  0  0  0  0  0  0  0  0
    1.2459   60.6156   71.4439 H   0  0  0  0  0  0  0  0  0  0  0  0
    2.2546   62.6920   70.4855 H   0  0  0  0  0  0  0  0  0  0  0  0
    6.2102   61.1841   71.3698 H   0  0  0  0  0  0  0  0  0  0  0  0
    5.2088   59.1084   72.3395 H   0  0  0  0  0  0  0  0  0  0  0  0
   -2.3800   53.6300   76.5659 H   0  0  0  0  0  0  0  0  0  0  0  0
   -3.2742   53.5314   75.0111 H   0  0  0  0  0  0  0  0  0  0  0  0
   -1.4803   53.6237   75.0111 H   0  0  0  0  0  0  0  0  0  0  0  0
   -0.1743   59.2671   77.5252 H   0  0  0  0  0  0  0  0  0  0  0  0
    1.2267   60.4028   77.2034 H   0  0  0  0  0  0  0  0  0  0  0  0
   -1.5456   62.9658   75.2559 H   0  0  0  0  0  0  0  0  0  0  0  0
   -0.2144   64.1431   75.5859 H   0  0  0  0  0  0  0  0  0  0  0  0
  2  1  2  0
  3  2  1  0
  4  3  2  0
  5  4  1  0
  6  5  2  0
  6  1  1  0
  7  5  1  0
  8  7  2  0
  9  8  1  0
  9  4  1  0
 10  9  1  0
 11 10  2  0
 12  8  1  0
 13 10  1  0
 14 13  2  0
 15 14  1  0
 16 15  2  0
 17 16  1  0
 18 13  1  0
 18 17  2  0
 19 16  1  0
 21 20  1  0
 21  1  1  0
 22  7  1  0
 23 22  1  0
 24 23  2  0
 25 23  1  0
 26 25  1  0
 27 26  1  0
 28 27  2  0
 29 27  1  0
  2 30  1  0
  3 31  1  0
  6 32  1  0
 12 33  1  0
 12 34  1  0
 12 35  1  0
 14 36  1  0
 15 37  1  0
 17 38  1  0
 18 39  1  0
 20 40  1  0
 20 41  1  0
 20 42  1  0
 22 43  1  0
 22 44  1  0
 26 45  1  0
 26 46  1  0
M  CHG  1  29  -1
M  END
>  <score>  (9) 
-7.507

$$$$
