=
     RDKit          3D

 34 34  0  0  0  0  0  0  0  0999 V2000
    4.3110   69.4570   63.9550 O   0  0  0  0  0  0  0  0  0  0  0  0
    3.5640   68.9830   64.7970 C   0  0  0  0  0  0  0  0  0  0  0  0
    3.6370   69.0760   66.1540 N   0  0  0  0  0  0  0  0  0  0  0  0
    4.5950   69.7590   66.9280 C   0  0  0  0  0  0  0  0  0  0  0  0
    5.9130   69.9570   66.5290 C   0  0  0  0  0  0  0  0  0  0  0  0
    6.7630   70.6450   67.3820 C   0  0  0  0  0  0  0  0  0  0  0  0
    6.3890   71.1340   68.5820 N   0  0  0  0  0  0  0  0  0  0  0  0
    5.1070   70.9330   68.9470 C   0  0  0  0  0  0  0  0  0  0  0  0
    4.1840   70.2600   68.1640 C   0  0  0  0  0  0  0  0  0  0  0  0
    2.4840   68.2170   64.4680 O   0  0  0  0  0  0  0  0  0  0  0  0
    1.8360   67.5870   65.5880 C   0  0  0  0  0  0  0  0  0  0  0  0
    0.3410   67.9480   65.6510 C   0  0  0  0  0  0  0  0  0  0  0  0
   -0.2300   68.0970   67.0790 N   0  0  0  0  0  4  0  0  0  0  0  0
   -0.6920   69.5180   67.3580 C   0  0  0  0  0  0  0  0  0  0  0  0
   -1.3860   67.1170   67.2990 C   0  0  0  0  0  0  0  0  0  0  0  0
    0.8800   67.7400   68.0710 C   0  0  0  0  0  0  0  0  0  0  0  0
    2.8994   68.5855   66.6797 H   0  0  0  0  0  0  0  0  0  0  0  0
    6.2720   69.5773   65.5610 H   0  0  0  0  0  0  0  0  0  0  0  0
    7.8035   70.8010   67.0609 H   0  0  0  0  0  0  0  0  0  0  0  0
    4.7759   71.3250   69.9200 H   0  0  0  0  0  0  0  0  0  0  0  0
    3.1485   70.1232   68.5091 H   0  0  0  0  0  0  0  0  0  0  0  0
    1.9365   66.4958   65.4916 H   0  0  0  0  0  0  0  0  0  0  0  0
    2.3166   67.9445   66.5106 H   0  0  0  0  0  0  0  0  0  0  0  0
    0.1969   68.9025   65.1235 H   0  0  0  0  0  0  0  0  0  0  0  0
   -0.1997   67.1099   65.1872 H   0  0  0  0  0  0  0  0  0  0  0  0
   -0.7446   69.6797   68.4448 H   0  0  0  0  0  0  0  0  0  0  0  0
    0.0213   70.2290   66.9156 H   0  0  0  0  0  0  0  0  0  0  0  0
   -1.6870   69.6736   66.9156 H   0  0  0  0  0  0  0  0  0  0  0  0
   -1.5491   66.9787   68.3780 H   0  0  0  0  0  0  0  0  0  0  0  0
   -2.3004   67.5193   66.8385 H   0  0  0  0  0  0  0  0  0  0  0  0
   -1.1388   66.1491   66.8385 H   0  0  0  0  0  0  0  0  0  0  0  0
    0.5061   67.8603   69.0985 H   0  0  0  0  0  0  0  0  0  0  0  0
    1.1907   66.6966   67.9136 H   0  0  0  0  0  0  0  0  0  0  0  0
    1.7407   68.4066   67.9136 H   0  0  0  0  0  0  0  0  0  0  0  0
  2  1  2  0
  3  2  1  0
  4  3  1  0
  5  4  2  0
  6  5  1  0
  7  6  2  0
  8  7  1  0
  9  4  1  0
  9  8  2  0
 10  2  1  0
 11 10  1  0
 12 11  1  0
 13 12  1  0
 14 13  1  0
 15 13  1  0
 16 13  1  0
  3 17  1  0
  5 18  1  0
  6 19  1  0
  8 20  1  0
  9 21  1  0
 11 22  1  0
 11 23  1  0
 12 24  1  0
 12 25  1  0
 14 26  1  0
 14 27  1  0
 14 28  1  0
 15 29  1  0
 15 30  1  0
 15 31  1  0
 16 32  1  0
 16 33  1  0
 16 34  1  0
M  CHG  1  13   1
M  END
>  <score>  (1) 
-6.461

$$$$
=
     RDKit          3D

 34 34  0  0  0  0  0  0  0  0999 V2000
    1.5380   69.2230   67.6800 O   0  0  0  0  0  0  0  0  0  0  0  0
    2.1580   68.9810   66.6550 C   0  0  0  0  0  0  0  0  0  0  0  0
    3.4670   69.2280   66.3690 N   0  0  0  0  0  0  0  0  0  0  0  0
    4.4410   69.8170   67.1990 C   0  0  0  0  0  0  0  0  0  0  0  0
    4.1800   70.2940   68.4800 C   0  0  0  0  0  0  0  0  0  0  0  0
    5.2240   70.8570   69.1980 C   0  0  0  0  0  0  0  0  0  0  0  0
    6.4830   70.9730   68.7280 N   0  0  0  0  0  0  0  0  0  0  0  0
    6.7140   70.5030   67.4860 C   0  0  0  0  0  0  0  0  0  0  0  0
    5.7370   69.9240   66.6920 C   0  0  0  0  0  0  0  0  0  0  0  0
    1.5720   68.4070   65.5640 O   0  0  0  0  0  0  0  0  0  0  0  0
    2.0520   68.9030   64.3010 C   0  0  0  0  0  0  0  0  0  0  0  0
    2.5980   67.7650   63.4190 C   0  0  0  0  0  0  0  0  0  0  0  0
    3.7570   68.1700   62.4830 N   0  0  0  0  0  4  0  0  0  0  0  0
    3.2500   68.7500   61.1730 C   0  0  0  0  0  0  0  0  0  0  0  0
    4.6820   69.1740   63.1780 C   0  0  0  0  0  0  0  0  0  0  0  0
    4.5780   66.9150   62.1760 C   0  0  0  0  0  0  0  0  0  0  0  0
    3.7837   68.9495   65.4293 H   0  0  0  0  0  0  0  0  0  0  0  0
    3.1707   70.2261   68.9121 H   0  0  0  0  0  0  0  0  0  0  0  0
    5.0131   71.2311   70.2107 H   0  0  0  0  0  0  0  0  0  0  0  0
    7.7334   70.5834   67.0807 H   0  0  0  0  0  0  0  0  0  0  0  0
    5.9777   69.5565   65.6835 H   0  0  0  0  0  0  0  0  0  0  0  0
    1.2236   69.3983   63.7733 H   0  0  0  0  0  0  0  0  0  0  0  0
    2.8706   69.6113   64.4967 H   0  0  0  0  0  0  0  0  0  0  0  0
    2.9565   66.9620   64.0798 H   0  0  0  0  0  0  0  0  0  0  0  0
    1.7684   67.4533   62.7674 H   0  0  0  0  0  0  0  0  0  0  0  0
    2.5393   69.5630   61.3826 H   0  0  0  0  0  0  0  0  0  0  0  0
    4.0981   69.1445   60.5941 H   0  0  0  0  0  0  0  0  0  0  0  0
    2.7456   67.9623   60.5941 H   0  0  0  0  0  0  0  0  0  0  0  0
    4.5846   69.0683   64.2686 H   0  0  0  0  0  0  0  0  0  0  0  0
    5.7234   68.9788   62.8822 H   0  0  0  0  0  0  0  0  0  0  0  0
    4.4023   70.1959   62.8822 H   0  0  0  0  0  0  0  0  0  0  0  0
    4.8885   66.4403   63.1185 H   0  0  0  0  0  0  0  0  0  0  0  0
    3.9661   66.2097   61.5945 H   0  0  0  0  0  0  0  0  0  0  0  0
    5.4693   67.1931   61.5945 H   0  0  0  0  0  0  0  0  0  0  0  0
  2  1  2  0
  3  2  1  0
  4  3  1  0
  5  4  2  0
  6  5  1  0
  7  6  2  0
  8  7  1  0
  9  4  1  0
  9  8  2  0
 10  2  1  0
 11 10  1  0
 12 11  1  0
 13 12  1  0
 14 13  1  0
 15 13  1  0
 16 13  1  0
  3 17  1  0
  5 18  1  0
  6 19  1  0
  8 20  1  0
  9 21  1  0
 11 22  1  0
 11 23  1  0
 12 24  1  0
 12 25  1  0
 14 26  1  0
 14 27  1  0
 14 28  1  0
 15 29  1  0
 15 30  1  0
 15 31  1  0
 16 32  1  0
 16 33  1  0
 16 34  1  0
M  CHG  1  13   1
M  END
>  <score>  (2) 
-6.372

$$$$
=
     RDKit          3D

 34 34  0  0  0  0  0  0  0  0999 V2000
    2.1970   69.3030   68.4530 O   0  0  0  0  0  0  0  0  0  0  0  0
    2.2440   69.0720   67.2530 C   0  0  0  0  0  0  0  0  0  0  0  0
    1.2670   68.5850   66.4380 N   0  0  0  0  0  0  0  0  0  0  0  0
   -0.0540   68.2370   66.7780 C   0  0  0  0  0  0  0  0  0  0  0  0
   -1.1800   68.8320   66.2170 C   0  0  0  0  0  0  0  0  0  0  0  0
   -2.4300   68.4040   66.6370 C   0  0  0  0  0  0  0  0  0  0  0  0
   -2.6230   67.4420   67.5630 N   0  0  0  0  0  0  0  0  0  0  0  0
   -1.5190   66.8770   68.0900 C   0  0  0  0  0  0  0  0  0  0  0  0
   -0.2290   67.2360   67.7350 C   0  0  0  0  0  0  0  0  0  0  0  0
    3.3760   69.2620   66.5160 O   0  0  0  0  0  0  0  0  0  0  0  0
    3.2020   69.0770   65.0990 C   0  0  0  0  0  0  0  0  0  0  0  0
    4.4470   68.4360   64.4570 C   0  0  0  0  0  0  0  0  0  0  0  0
    4.3450   68.2100   62.9330 N   0  0  0  0  0  4  0  0  0  0  0  0
    4.6720   66.7740   62.5520 C   0  0  0  0  0  0  0  0  0  0  0  0
    2.9490   68.5820   62.4270 C   0  0  0  0  0  0  0  0  0  0  0  0
    5.3530   69.1380   62.2500 C   0  0  0  0  0  0  0  0  0  0  0  0
    1.5273   68.4552   65.4499 H   0  0  0  0  0  0  0  0  0  0  0  0
   -1.0807   69.6227   65.4587 H   0  0  0  0  0  0  0  0  0  0  0  0
   -3.3165   68.8765   66.1889 H   0  0  0  0  0  0  0  0  0  0  0  0
   -1.6494   66.0868   68.8440 H   0  0  0  0  0  0  0  0  0  0  0  0
    0.6388   66.7428   68.1973 H   0  0  0  0  0  0  0  0  0  0  0  0
    2.3344   68.4228   64.9277 H   0  0  0  0  0  0  0  0  0  0  0  0
    3.0451   70.0636   64.6385 H   0  0  0  0  0  0  0  0  0  0  0  0
    5.3079   69.0933   64.6487 H   0  0  0  0  0  0  0  0  0  0  0  0
    4.5522   67.4399   64.9117 H   0  0  0  0  0  0  0  0  0  0  0  0
    4.8085   66.1746   63.4642 H   0  0  0  0  0  0  0  0  0  0  0  0
    3.8463   66.3551   61.9581 H   0  0  0  0  0  0  0  0  0  0  0  0
    5.5977   66.7539   61.9581 H   0  0  0  0  0  0  0  0  0  0  0  0
    2.2834   68.7594   63.2846 H   0  0  0  0  0  0  0  0  0  0  0  0
    3.0115   69.4948   61.8164 H   0  0  0  0  0  0  0  0  0  0  0  0
    2.5490   67.7591   61.8164 H   0  0  0  0  0  0  0  0  0  0  0  0
    5.9348   69.6736   63.0146 H   0  0  0  0  0  0  0  0  0  0  0  0
    6.0325   68.5428   61.6223 H   0  0  0  0  0  0  0  0  0  0  0  0
    4.8159   69.8643   61.6223 H   0  0  0  0  0  0  0  0  0  0  0  0
  2  1  2  0
  3  2  1  0
  4  3  1  0
  5  4  2  0
  6  5  1  0
  7  6  2  0
  8  7  1  0
  9  4  1  0
  9  8  2  0
 10  2  1  0
 11 10  1  0
 12 11  1  0
 13 12  1  0
 14 13  1  0
 15 13  1  0
 16 13  1  0
  3 17  1  0
  5 18  1  0
  6 19  1  0
  8 20  1  0
  9 21  1  0
 11 22  1  0
 11 23  1  0
 12 24  1  0
 12 25  1  0
 14 26  1  0
 14 27  1  0
 14 28  1  0
 15 29  1  0
 15 30  1  0
 15 31  1  0
 16 32  1  0
 16 33  1  0
 16 34  1  0
M  CHG  1  13   1
M  END
>  <score>  (3) 
-6.129

$$$$
=
     RDKit          3D

 34 34  0  0  0  0  0  0  0  0999 V2000
    1.5070   67.2080   69.8880 O   0  0  0  0  0  0  0  0  0  0  0  0
    0.6100   66.3780   69.9120 C   0  0  0  0  0  0  0  0  0  0  0  0
   -0.4440   66.2340   69.0620 N   0  0  0  0  0  0  0  0  0  0  0  0
   -0.7540   67.0050   67.9240 C   0  0  0  0  0  0  0  0  0  0  0  0
    0.2030   67.5360   67.0640 C   0  0  0  0  0  0  0  0  0  0  0  0
   -0.2290   68.2810   65.9780 C   0  0  0  0  0  0  0  0  0  0  0  0
   -1.5270   68.5270   65.7040 N   0  0  0  0  0  0  0  0  0  0  0  0
   -2.4370   68.0010   66.5470 C   0  0  0  0  0  0  0  0  0  0  0  0
   -2.1030   67.2430   67.6580 C   0  0  0  0  0  0  0  0  0  0  0  0
    0.5220   65.4250   70.8850 O   0  0  0  0  0  0  0  0  0  0  0  0
    1.0120   64.1300   70.4950 C   0  0  0  0  0  0  0  0  0  0  0  0
    2.5510   64.1010   70.4450 C   0  0  0  0  0  0  0  0  0  0  0  0
    3.1750   62.6900   70.5150 N   0  0  0  0  0  4  0  0  0  0  0  0
    2.6360   61.8910   71.6910 C   0  0  0  0  0  0  0  0  0  0  0  0
    2.9300   61.9300   69.2080 C   0  0  0  0  0  0  0  0  0  0  0  0
    4.6880   62.8500   70.6850 C   0  0  0  0  0  0  0  0  0  0  0  0
   -1.0957   65.4661   69.2777 H   0  0  0  0  0  0  0  0  0  0  0  0
    1.2755   67.3685   67.2418 H   0  0  0  0  0  0  0  0  0  0  0  0
    0.5310   68.6961   65.2997 H   0  0  0  0  0  0  0  0  0  0  0  0
   -3.5024   68.1830   66.3423 H   0  0  0  0  0  0  0  0  0  0  0  0
   -2.8851   66.8373   68.3166 H   0  0  0  0  0  0  0  0  0  0  0  0
    0.6638   63.3820   71.2225 H   0  0  0  0  0  0  0  0  0  0  0  0
    0.6295   63.9047   69.4886 H   0  0  0  0  0  0  0  0  0  0  0  0
    2.8717   64.5706   69.5034 H   0  0  0  0  0  0  0  0  0  0  0  0
    2.9000   64.6385   71.3390 H   0  0  0  0  0  0  0  0  0  0  0  0
    2.9546   62.3633   72.6320 H   0  0  0  0  0  0  0  0  0  0  0  0
    1.5372   61.8681   71.6459 H   0  0  0  0  0  0  0  0  0  0  0  0
    3.0263   60.8636   71.6459 H   0  0  0  0  0  0  0  0  0  0  0  0
    2.5998   60.9058   69.4358 H   0  0  0  0  0  0  0  0  0  0  0  0
    2.1523   62.4448   68.6248 H   0  0  0  0  0  0  0  0  0  0  0  0
    3.8619   61.8936   68.6248 H   0  0  0  0  0  0  0  0  0  0  0  0
    4.9358   62.8762   71.7564 H   0  0  0  0  0  0  0  0  0  0  0  0
    5.2021   62.0012   70.2104 H   0  0  0  0  0  0  0  0  0  0  0  0
    5.0132   63.7875   70.2104 H   0  0  0  0  0  0  0  0  0  0  0  0
  2  1  2  0
  3  2  1  0
  4  3  1  0
  5  4  2  0
  6  5  1  0
  7  6  2  0
  8  7  1  0
  9  4  1  0
  9  8  2  0
 10  2  1  0
 11 10  1  0
 12 11  1  0
 13 12  1  0
 14 13  1  0
 15 13  1  0
 16 13  1  0
  3 17  1  0
  5 18  1  0
  6 19  1  0
  8 20  1  0
  9 21  1  0
 11 22  1  0
 11 23  1  0
 12 24  1  0
 12 25  1  0
 14 26  1  0
 14 27  1  0
 14 28  1  0
 15 29  1  0
 15 30  1  0
 15 31  1  0
 16 32  1  0
 16 33  1  0
 16 34  1  0
M  CHG  1  13   1
M  END
>  <score>  (4) 
-6.012

$$$$
=
     RDKit          3D

 34 34  0  0  0  0  0  0  0  0999 V2000
    4.6200   69.7490   67.2680 O   0  0  0  0  0  0  0  0  0  0  0  0
    3.4760   69.5190   66.9050 C   0  0  0  0  0  0  0  0  0  0  0  0
    3.0430   68.9890   65.7270 N   0  0  0  0  0  0  0  0  0  0  0  0
    3.8180   68.5600   64.6310 C   0  0  0  0  0  0  0  0  0  0  0  0
    3.7260   67.2910   64.0690 C   0  0  0  0  0  0  0  0  0  0  0  0
    4.5450   66.9870   62.9920 C   0  0  0  0  0  0  0  0  0  0  0  0
    5.4320   67.8500   62.4550 N   0  0  0  0  0  0  0  0  0  0  0  0
    5.5020   69.0750   63.0130 C   0  0  0  0  0  0  0  0  0  0  0  0
    4.7250   69.4720   64.0900 C   0  0  0  0  0  0  0  0  0  0  0  0
    2.3910   69.8050   67.6810 O   0  0  0  0  0  0  0  0  0  0  0  0
    1.5380   68.6780   67.9510 C   0  0  0  0  0  0  0  0  0  0  0  0
    0.0590   69.0130   67.6830 C   0  0  0  0  0  0  0  0  0  0  0  0
   -0.6760   68.0120   66.7660 N   0  0  0  0  0  4  0  0  0  0  0  0
    0.2960   67.1430   65.9840 C   0  0  0  0  0  0  0  0  0  0  0  0
   -1.6250   67.1310   67.5840 C   0  0  0  0  0  0  0  0  0  0  0  0
   -1.5220   68.8130   65.7730 C   0  0  0  0  0  0  0  0  0  0  0  0
    2.0229   68.8896   65.6248 H   0  0  0  0  0  0  0  0  0  0  0  0
    3.0212   66.5471   64.4689 H   0  0  0  0  0  0  0  0  0  0  0  0
    4.4668   65.9830   62.5495 H   0  0  0  0  0  0  0  0  0  0  0  0
    6.2144   69.7990   62.5907 H   0  0  0  0  0  0  0  0  0  0  0  0
    4.8213   70.4844   64.5093 H   0  0  0  0  0  0  0  0  0  0  0  0
    1.8375   67.8399   67.3045 H   0  0  0  0  0  0  0  0  0  0  0  0
    1.6446   68.4109   69.0127 H   0  0  0  0  0  0  0  0  0  0  0  0
   -0.4660   69.0409   68.6492 H   0  0  0  0  0  0  0  0  0  0  0  0
    0.0509   69.9787   67.1563 H   0  0  0  0  0  0  0  0  0  0  0  0
    0.9281   66.5779   66.6848 H   0  0  0  0  0  0  0  0  0  0  0  0
   -0.2670   66.4416   65.3507 H   0  0  0  0  0  0  0  0  0  0  0  0
    0.9302   67.7808   65.3507 H   0  0  0  0  0  0  0  0  0  0  0  0
   -1.4463   67.2969   68.6566 H   0  0  0  0  0  0  0  0  0  0  0  0
   -2.6662   67.3899   67.3414 H   0  0  0  0  0  0  0  0  0  0  0  0
   -1.4441   66.0734   67.3414 H   0  0  0  0  0  0  0  0  0  0  0  0
   -2.2131   69.4674   66.3244 H   0  0  0  0  0  0  0  0  0  0  0  0
   -0.8629   69.4258   65.1405 H   0  0  0  0  0  0  0  0  0  0  0  0
   -2.0979   68.1214   65.1405 H   0  0  0  0  0  0  0  0  0  0  0  0
  2  1  2  0
  3  2  1  0
  4  3  1  0
  5  4  2  0
  6  5  1  0
  7  6  2  0
  8  7  1  0
  9  4  1  0
  9  8  2  0
 10  2  1  0
 11 10  1  0
 12 11  1  0
 13 12  1  0
 14 13  1  0
 15 13  1  0
 16 13  1  0
  3 17  1  0
  5 18  1  0
  6 19  1  0
  8 20  1  0
  9 21  1  0
 11 22  1  0
 11 23  1  0
 12 24  1  0
 12 25  1  0
 14 26  1  0
 14 27  1  0
 14 28  1  0
 15 29  1  0
 15 30  1  0
 15 31  1  0
 16 32  1  0
 16 33  1  0
 16 34  1  0
M  CHG  1  13   1
M  END
>  <score>  (5) 
-5.991

$$$$
=
     RDKit          3D

 34 34  0  0  0  0  0  0  0  0999 V2000
    0.3520   64.4060   71.7260 O   0  0  0  0  0  0  0  0  0  0  0  0
    0.8460   65.0310   70.7990 C   0  0  0  0  0  0  0  0  0  0  0  0
    1.9090   64.6990   70.0140 N   0  0  0  0  0  0  0  0  0  0  0  0
    2.7000   63.5350   70.0710 C   0  0  0  0  0  0  0  0  0  0  0  0
    2.3080   62.3060   69.5470 C   0  0  0  0  0  0  0  0  0  0  0  0
    3.1760   61.2320   69.6670 C   0  0  0  0  0  0  0  0  0  0  0  0
    4.3820   61.3040   70.2670 N   0  0  0  0  0  0  0  0  0  0  0  0
    4.7430   62.5030   70.7640 C   0  0  0  0  0  0  0  0  0  0  0  0
    3.9460   63.6340   70.6920 C   0  0  0  0  0  0  0  0  0  0  0  0
    0.3790   66.2520   70.4090 O   0  0  0  0  0  0  0  0  0  0  0  0
    1.0390   66.8020   69.2550 C   0  0  0  0  0  0  0  0  0  0  0  0
    0.0250   67.2610   68.1900 C   0  0  0  0  0  0  0  0  0  0  0  0
    0.5990   68.2070   67.1140 N   0  0  0  0  0  4  0  0  0  0  0  0
    1.2760   69.4210   67.7310 C   0  0  0  0  0  0  0  0  0  0  0  0
    1.5860   67.4590   66.2130 C   0  0  0  0  0  0  0  0  0  0  0  0
   -0.5610   68.6870   66.2380 C   0  0  0  0  0  0  0  0  0  0  0  0
    2.1660   65.3841   69.2891 H   0  0  0  0  0  0  0  0  0  0  0  0
    1.3335   62.1902   69.0501 H   0  0  0  0  0  0  0  0  0  0  0  0
    2.8630   60.2641   69.2484 H   0  0  0  0  0  0  0  0  0  0  0  0
    5.7242   62.5887   71.2538 H   0  0  0  0  0  0  0  0  0  0  0  0
    4.2881   64.5899   71.1154 H   0  0  0  0  0  0  0  0  0  0  0  0
    1.6448   67.6654   69.5674 H   0  0  0  0  0  0  0  0  0  0  0  0
    1.6723   66.0184   68.8135 H   0  0  0  0  0  0  0  0  0  0  0  0
   -0.3686   66.3668   67.6845 H   0  0  0  0  0  0  0  0  0  0  0  0
   -0.7475   67.8331   68.7247 H   0  0  0  0  0  0  0  0  0  0  0  0
    1.2343   69.3462   68.8277 H   0  0  0  0  0  0  0  0  0  0  0  0
    2.3261   69.4600   67.4058 H   0  0  0  0  0  0  0  0  0  0  0  0
    0.7573   70.3349   67.4058 H   0  0  0  0  0  0  0  0  0  0  0  0
    2.3086   66.9114   66.8359 H   0  0  0  0  0  0  0  0  0  0  0  0
    1.0367   66.7484   65.5780 H   0  0  0  0  0  0  0  0  0  0  0  0
    2.1216   68.1800   65.5780 H   0  0  0  0  0  0  0  0  0  0  0  0
   -1.3872   69.0289   66.8787 H   0  0  0  0  0  0  0  0  0  0  0  0
   -0.2213   69.5184   65.6029 H   0  0  0  0  0  0  0  0  0  0  0  0
   -0.9081   67.8586   65.6029 H   0  0  0  0  0  0  0  0  0  0  0  0
  2  1  2  0
  3  2  1  0
  4  3  1  0
  5  4  2  0
  6  5  1  0
  7  6  2  0
  8  7  1  0
  9  4  1  0
  9  8  2  0
 10  2  1  0
 11 10  1  0
 12 11  1  0
 13 12  1  0
 14 13  1  0
 15 13  1  0
 16 13  1  0
  3 17  1  0
  5 18  1  0
  6 19  1  0
  8 20  1  0
  9 21  1  0
 11 22  1  0
 11 23  1  0
 12 24  1  0
 12 25  1  0
 14 26  1  0
 14 27  1  0
 14 28  1  0
 15 29  1  0
 15 30  1  0
 15 31  1  0
 16 32  1  0
 16 33  1  0
 16 34  1  0
M  CHG  1  13   1
M  END
>  <score>  (6) 
-5.977

$$$$
=
     RDKit          3D

 34 34  0  0  0  0  0  0  0  0999 V2000
    0.1220   69.8550   62.6280 O   0  0  0  0  0  0  0  0  0  0  0  0
    0.2960   68.9600   63.4420 C   0  0  0  0  0  0  0  0  0  0  0  0
    1.4610   68.3650   63.8220 N   0  0  0  0  0  0  0  0  0  0  0  0
    2.7660   68.6460   63.3750 C   0  0  0  0  0  0  0  0  0  0  0  0
    3.1550   68.5970   62.0400 C   0  0  0  0  0  0  0  0  0  0  0  0
    4.4720   68.8930   61.7260 C   0  0  0  0  0  0  0  0  0  0  0  0
    5.4060   69.2260   62.6400 N   0  0  0  0  0  0  0  0  0  0  0  0
    5.0080   69.2710   63.9260 C   0  0  0  0  0  0  0  0  0  0  0  0
    3.7150   68.9920   64.3390 C   0  0  0  0  0  0  0  0  0  0  0  0
   -0.7360   68.3740   64.1160 O   0  0  0  0  0  0  0  0  0  0  0  0
   -0.8820   68.8130   65.4790 C   0  0  0  0  0  0  0  0  0  0  0  0
   -0.7510   67.6380   66.4660 C   0  0  0  0  0  0  0  0  0  0  0  0
    0.4180   67.7610   67.4680 N   0  0  0  0  0  4  0  0  0  0  0  0
    0.7400   69.2130   67.7860 C   0  0  0  0  0  0  0  0  0  0  0  0
    0.1020   66.9990   68.7580 C   0  0  0  0  0  0  0  0  0  0  0  0
    1.6530   67.1150   66.8340 C   0  0  0  0  0  0  0  0  0  0  0  0
    1.3765   67.6160   64.5240 H   0  0  0  0  0  0  0  0  0  0  0  0
    2.4346   68.3298   61.2528 H   0  0  0  0  0  0  0  0  0  0  0  0
    4.7733   68.8540   60.6688 H   0  0  0  0  0  0  0  0  0  0  0  0
    5.7502   69.5443   64.6905 H   0  0  0  0  0  0  0  0  0  0  0  0
    3.4421   69.0420   65.4034 H   0  0  0  0  0  0  0  0  0  0  0  0
   -0.1014   69.5555   65.7012 H   0  0  0  0  0  0  0  0  0  0  0  0
   -1.8838   69.2522   65.5953 H   0  0  0  0  0  0  0  0  0  0  0  0
   -1.6871   67.5667   67.0393 H   0  0  0  0  0  0  0  0  0  0  0  0
   -0.5452   66.7446   65.8582 H   0  0  0  0  0  0  0  0  0  0  0  0
    0.7707   69.3514   68.8768 H   0  0  0  0  0  0  0  0  0  0  0  0
    1.7179   69.4745   67.3556 H   0  0  0  0  0  0  0  0  0  0  0  0
   -0.0357   69.8634   67.3556 H   0  0  0  0  0  0  0  0  0  0  0  0
    0.3610   67.6236   69.6256 H   0  0  0  0  0  0  0  0  0  0  0  0
   -0.9707   66.7570   68.7875 H   0  0  0  0  0  0  0  0  0  0  0  0
    0.6886   66.0689   68.7875 H   0  0  0  0  0  0  0  0  0  0  0  0
    2.3292   66.7613   67.6262 H   0  0  0  0  0  0  0  0  0  0  0  0
    1.3422   66.2640   66.2102 H   0  0  0  0  0  0  0  0  0  0  0  0
    2.1748   67.8557   66.2102 H   0  0  0  0  0  0  0  0  0  0  0  0
  2  1  2  0
  3  2  1  0
  4  3  1  0
  5  4  2  0
  6  5  1  0
  7  6  2  0
  8  7  1  0
  9  4  1  0
  9  8  2  0
 10  2  1  0
 11 10  1  0
 12 11  1  0
 13 12  1  0
 14 13  1  0
 15 13  1  0
 16 13  1  0
  3 17  1  0
  5 18  1  0
  6 19  1  0
  8 20  1  0
  9 21  1  0
 11 22  1  0
 11 23  1  0
 12 24  1  0
 12 25  1  0
 14 26  1  0
 14 27  1  0
 14 28  1  0
 15 29  1  0
 15 30  1  0
 15 31  1  0
 16 32  1  0
 16 33  1  0
 16 34  1  0
M  CHG  1  13   1
M  END
>  <score>  (7) 
-5.884

$$$$
=
     RDKit          3D

 34 34  0  0  0  0  0  0  0  0999 V2000
    1.4450   66.8460   69.9070 O   0  0  0  0  0  0  0  0  0  0  0  0
    0.5520   66.0930   69.5480 C   0  0  0  0  0  0  0  0  0  0  0  0
    0.3130   64.8070   69.9280 N   0  0  0  0  0  0  0  0  0  0  0  0
    1.0370   64.0250   70.8490 C   0  0  0  0  0  0  0  0  0  0  0  0
    0.6060   63.7560   72.1440 C   0  0  0  0  0  0  0  0  0  0  0  0
    1.4110   62.9740   72.9580 C   0  0  0  0  0  0  0  0  0  0  0  0
    2.5940   62.4570   72.5700 N   0  0  0  0  0  0  0  0  0  0  0  0
    2.9920   62.7260   71.3110 C   0  0  0  0  0  0  0  0  0  0  0  0
    2.2570   63.4970   70.4240 C   0  0  0  0  0  0  0  0  0  0  0  0
   -0.3860   66.4590   68.6270 O   0  0  0  0  0  0  0  0  0  0  0  0
   -0.0790   67.6700   67.9130 C   0  0  0  0  0  0  0  0  0  0  0  0
    0.0830   67.4090   66.4040 C   0  0  0  0  0  0  0  0  0  0  0  0
    1.4020   67.9330   65.7950 N   0  0  0  0  0  4  0  0  0  0  0  0
    2.1130   68.8980   66.7300 C   0  0  0  0  0  0  0  0  0  0  0  0
    2.3300   66.7670   65.4400 C   0  0  0  0  0  0  0  0  0  0  0  0
    1.0620   68.6710   64.4970 C   0  0  0  0  0  0  0  0  0  0  0  0
   -0.4978   64.3496   69.4871 H   0  0  0  0  0  0  0  0  0  0  0  0
   -0.3506   64.1542   72.5133 H   0  0  0  0  0  0  0  0  0  0  0  0
    1.0641   62.7631   73.9803 H   0  0  0  0  0  0  0  0  0  0  0  0
    3.9517   62.3115   70.9688 H   0  0  0  0  0  0  0  0  0  0  0  0
    2.6276   63.6887   69.4062 H   0  0  0  0  0  0  0  0  0  0  0  0
   -0.8951   68.3916   68.0655 H   0  0  0  0  0  0  0  0  0  0  0  0
    0.8715   68.0670   68.2989 H   0  0  0  0  0  0  0  0  0  0  0  0
    0.0368   66.3226   66.2375 H   0  0  0  0  0  0  0  0  0  0  0  0
   -0.7288   67.9589   65.9053 H   0  0  0  0  0  0  0  0  0  0  0  0
    1.9061   68.6172   67.7732 H   0  0  0  0  0  0  0  0  0  0  0  0
    3.1968   68.8548   66.5467 H   0  0  0  0  0  0  0  0  0  0  0  0
    1.7506   69.9203   66.5467 H   0  0  0  0  0  0  0  0  0  0  0  0
    2.7018   66.2999   66.3639 H   0  0  0  0  0  0  0  0  0  0  0  0
    1.7745   66.0226   64.8506 H   0  0  0  0  0  0  0  0  0  0  0  0
    3.1800   67.1412   64.8506 H   0  0  0  0  0  0  0  0  0  0  0  0
    0.6128   69.6461   64.7365 H   0  0  0  0  0  0  0  0  0  0  0  0
    1.9802   68.8243   63.9111 H   0  0  0  0  0  0  0  0  0  0  0  0
    0.3488   68.0727   63.9111 H   0  0  0  0  0  0  0  0  0  0  0  0
  2  1  2  0
  3  2  1  0
  4  3  1  0
  5  4  2  0
  6  5  1  0
  7  6  2  0
  8  7  1  0
  9  4  1  0
  9  8  2  0
 10  2  1  0
 11 10  1  0
 12 11  1  0
 13 12  1  0
 14 13  1  0
 15 13  1  0
 16 13  1  0
  3 17  1  0
  5 18  1  0
  6 19  1  0
  8 20  1  0
  9 21  1  0
 11 22  1  0
 11 23  1  0
 12 24  1  0
 12 25  1  0
 14 26  1  0
 14 27  1  0
 14 28  1  0
 15 29  1  0
 15 30  1  0
 15 31  1  0
 16 32  1  0
 16 33  1  0
 16 34  1  0
M  CHG  1  13   1
M  END
>  <score>  (8) 
-5.619

$$$$
=
     RDKit          3D

 34 34  0  0  0  0  0  0  0  0999 V2000
    2.4050   64.1800   69.5420 O   0  0  0  0  0  0  0  0  0  0  0  0
    1.7030   64.5740   70.4620 C   0  0  0  0  0  0  0  0  0  0  0  0
    0.8100   65.6020   70.4770 N   0  0  0  0  0  0  0  0  0  0  0  0
    0.4630   66.4660   69.4200 C   0  0  0  0  0  0  0  0  0  0  0  0
   -0.7340   66.3850   68.7150 C   0  0  0  0  0  0  0  0  0  0  0  0
   -0.9580   67.2930   67.6920 C   0  0  0  0  0  0  0  0  0  0  0  0
   -0.0820   68.2540   67.3340 N   0  0  0  0  0  0  0  0  0  0  0  0
    1.0690   68.3170   68.0310 C   0  0  0  0  0  0  0  0  0  0  0  0
    1.3840   67.4550   69.0700 C   0  0  0  0  0  0  0  0  0  0  0  0
    1.7390   64.0070   71.7030 O   0  0  0  0  0  0  0  0  0  0  0  0
    1.6430   62.5710   71.7040 C   0  0  0  0  0  0  0  0  0  0  0  0
    2.8520   61.9260   72.4070 C   0  0  0  0  0  0  0  0  0  0  0  0
    3.8870   61.2850   71.4560 N   0  0  0  0  0  4  0  0  0  0  0  0
    4.9560   62.2800   71.0300 C   0  0  0  0  0  0  0  0  0  0  0  0
    4.5380   60.0660   72.1160 C   0  0  0  0  0  0  0  0  0  0  0  0
    3.1460   60.8010   70.2080 C   0  0  0  0  0  0  0  0  0  0  0  0
    0.3286   65.7684   71.3723 H   0  0  0  0  0  0  0  0  0  0  0  0
   -1.4838   65.6194   68.9634 H   0  0  0  0  0  0  0  0  0  0  0  0
   -1.9066   67.2258   67.1392 H   0  0  0  0  0  0  0  0  0  0  0  0
    1.7986   69.0947   67.7611 H   0  0  0  0  0  0  0  0  0  0  0  0
    2.3393   67.5483   69.6072 H   0  0  0  0  0  0  0  0  0  0  0  0
    0.7235   62.2744   72.2298 H   0  0  0  0  0  0  0  0  0  0  0  0
    1.6254   62.2251   70.6599 H   0  0  0  0  0  0  0  0  0  0  0  0
    3.3621   62.7041   72.9938 H   0  0  0  0  0  0  0  0  0  0  0  0
    2.4516   61.1092   73.0255 H   0  0  0  0  0  0  0  0  0  0  0  0
    5.4262   62.7177   71.9229 H   0  0  0  0  0  0  0  0  0  0  0  0
    5.7193   61.7635   70.4295 H   0  0  0  0  0  0  0  0  0  0  0  0
    4.4954   63.0783   70.4295 H   0  0  0  0  0  0  0  0  0  0  0  0
    4.4833   60.1684   73.2099 H   0  0  0  0  0  0  0  0  0  0  0  0
    4.0069   59.1539   71.8061 H   0  0  0  0  0  0  0  0  0  0  0  0
    5.5914   60.0001   71.8061 H   0  0  0  0  0  0  0  0  0  0  0  0
    2.2602   60.2224   70.5089 H   0  0  0  0  0  0  0  0  0  0  0  0
    2.8314   61.6683   69.6089 H   0  0  0  0  0  0  0  0  0  0  0  0
    3.8137   60.1644   69.6089 H   0  0  0  0  0  0  0  0  0  0  0  0
  2  1  2  0
  3  2  1  0
  4  3  1  0
  5  4  2  0
  6  5  1  0
  7  6  2  0
  8  7  1  0
  9  4  1  0
  9  8  2  0
 10  2  1  0
 11 10  1  0
 12 11  1  0
 13 12  1  0
 14 13  1  0
 15 13  1  0
 16 13  1  0
  3 17  1  0
  5 18  1  0
  6 19  1  0
  8 20  1  0
  9 21  1  0
 11 22  1  0
 11 23  1  0
 12 24  1  0
 12 25  1  0
 14 26  1  0
 14 27  1  0
 14 28  1  0
 15 29  1  0
 15 30  1  0
 15 31  1  0
 16 32  1  0
 16 33  1  0
 16 34  1  0
M  CHG  1  13   1
M  END
>  <score>  (9) 
-5.609

$$$$
