=
     RDKit          3D

 26 27  0  0  0  0  0  0  0  0999 V2000
    1.7170   69.0840   63.9490 O   0  0  0  0  0  0  0  0  0  0  0  0
    2.2880   68.4100   64.7980 C   0  0  0  0  0  0  0  0  0  0  0  0
    2.9630   67.1310   64.4540 C   0  0  0  0  0  0  0  0  0  0  0  0
    2.6240   65.9820   65.1850 C   0  0  0  0  0  0  0  0  0  0  0  0
    3.2400   64.7590   64.9090 C   0  0  0  0  0  0  0  0  0  0  0  0
    4.1980   64.6810   63.9000 C   0  0  0  0  0  0  0  0  0  0  0  0
    4.5420   65.8140   63.1660 C   0  0  0  0  0  0  0  0  0  0  0  0
    3.9270   67.0410   63.4410 C   0  0  0  0  0  0  0  0  0  0  0  0
    4.9600   63.1770   63.5580 Cl  0  0  0  0  0  0  0  0  0  0  0  0
    2.2650   68.8900   66.2310 C   0  0  0  0  0  0  0  0  0  0  0  0
    1.2140   68.8050   66.8560 O   0  0  0  0  0  0  0  0  0  0  0  0
    3.4880   69.4790   66.8390 C   0  0  0  0  0  0  0  0  0  0  0  0
    3.4060   69.9760   68.1480 C   0  0  0  0  0  0  0  0  0  0  0  0
    4.5250   70.5520   68.7570 C   0  0  0  0  0  0  0  0  0  0  0  0
    5.7270   70.6340   68.0580 C   0  0  0  0  0  0  0  0  0  0  0  0
    5.8200   70.1430   66.7570 C   0  0  0  0  0  0  0  0  0  0  0  0
    4.7020   69.5660   66.1450 C   0  0  0  0  0  0  0  0  0  0  0  0
    7.1040   71.3430   68.8050 Cl  0  0  0  0  0  0  0  0  0  0  0  0
    1.8676   66.0449   65.9812 H   0  0  0  0  0  0  0  0  0  0  0  0
    2.9701   63.8618   65.4854 H   0  0  0  0  0  0  0  0  0  0  0  0
    5.2976   65.7443   62.3696 H   0  0  0  0  0  0  0  0  0  0  0  0
    4.2006   67.9351   62.8616 H   0  0  0  0  0  0  0  0  0  0  0  0
    2.4559   69.9122   68.6986 H   0  0  0  0  0  0  0  0  0  0  0  0
    4.4564   70.9390   69.7844 H   0  0  0  0  0  0  0  0  0  0  0  0
    6.7727   70.2091   66.2111 H   0  0  0  0  0  0  0  0  0  0  0  0
    4.7762   69.1801   65.1176 H   0  0  0  0  0  0  0  0  0  0  0  0
  2  1  2  0
  3  2  1  0
  4  3  2  0
  5  4  1  0
  6  5  2  0
  7  6  1  0
  8  7  2  0
  8  3  1  0
  9  6  1  0
 10  2  1  0
 11 10  2  0
 12 10  1  0
 13 12  2  0
 14 13  1  0
 15 14  2  0
 16 15  1  0
 17 12  1  0
 17 16  2  0
 18 15  1  0
  4 19  1  0
  5 20  1  0
  7 21  1  0
  8 22  1  0
 13 23  1  0
 14 24  1  0
 16 25  1  0
 17 26  1  0
M  END
>  <score>  (1) 
-9.539

$$$$
=
     RDKit          3D

 26 27  0  0  0  0  0  0  0  0999 V2000
    1.2300   68.7950   66.8650 O   0  0  0  0  0  0  0  0  0  0  0  0
    2.2790   68.8800   66.2360 C   0  0  0  0  0  0  0  0  0  0  0  0
    3.5050   69.4650   66.8400 C   0  0  0  0  0  0  0  0  0  0  0  0
    3.4290   69.9620   68.1500 C   0  0  0  0  0  0  0  0  0  0  0  0
    4.5500   70.5350   68.7570 C   0  0  0  0  0  0  0  0  0  0  0  0
    5.7510   70.6130   68.0550 C   0  0  0  0  0  0  0  0  0  0  0  0
    5.8390   70.1220   66.7530 C   0  0  0  0  0  0  0  0  0  0  0  0
    4.7180   69.5490   66.1430 C   0  0  0  0  0  0  0  0  0  0  0  0
    7.1320   71.3190   68.7980 Cl  0  0  0  0  0  0  0  0  0  0  0  0
    2.2960   68.4050   64.8010 C   0  0  0  0  0  0  0  0  0  0  0  0
    1.7170   69.0800   63.9580 O   0  0  0  0  0  0  0  0  0  0  0  0
    2.9750   67.1300   64.4480 C   0  0  0  0  0  0  0  0  0  0  0  0
    2.6560   65.9810   65.1870 C   0  0  0  0  0  0  0  0  0  0  0  0
    3.2780   64.7610   64.9030 C   0  0  0  0  0  0  0  0  0  0  0  0
    4.2210   64.6890   63.8800 C   0  0  0  0  0  0  0  0  0  0  0  0
    4.5450   65.8230   63.1390 C   0  0  0  0  0  0  0  0  0  0  0  0
    3.9240   67.0460   63.4220 C   0  0  0  0  0  0  0  0  0  0  0  0
    4.9880   63.1900   63.5300 Cl  0  0  0  0  0  0  0  0  0  0  0  0
    2.4803   69.9002   68.7032 H   0  0  0  0  0  0  0  0  0  0  0  0
    4.4844   70.9226   69.7843 H   0  0  0  0  0  0  0  0  0  0  0  0
    6.7907   70.1852   66.2050 H   0  0  0  0  0  0  0  0  0  0  0  0
    4.7887   69.1639   65.1150 H   0  0  0  0  0  0  0  0  0  0  0  0
    1.9119   66.0400   65.9950 H   0  0  0  0  0  0  0  0  0  0  0  0
    3.0239   63.8626   65.4846 H   0  0  0  0  0  0  0  0  0  0  0  0
    5.2889   65.7580   62.3313 H   0  0  0  0  0  0  0  0  0  0  0  0
    4.1821   67.9415   62.8376 H   0  0  0  0  0  0  0  0  0  0  0  0
  2  1  2  0
  3  2  1  0
  4  3  2  0
  5  4  1  0
  6  5  2  0
  7  6  1  0
  8  7  2  0
  8  3  1  0
  9  6  1  0
 10  2  1  0
 11 10  2  0
 12 10  1  0
 13 12  2  0
 14 13  1  0
 15 14  2  0
 16 15  1  0
 17 12  1  0
 17 16  2  0
 18 15  1  0
  4 19  1  0
  5 20  1  0
  7 21  1  0
  8 22  1  0
 13 23  1  0
 14 24  1  0
 16 25  1  0
 17 26  1  0
M  END
>  <score>  (2) 
-9.528

$$$$
=
     RDKit          3D

 26 27  0  0  0  0  0  0  0  0999 V2000
    0.6940   69.2930   67.6520 O   0  0  0  0  0  0  0  0  0  0  0  0
    1.7220   68.9610   67.0720 C   0  0  0  0  0  0  0  0  0  0  0  0
    3.0450   69.5280   67.4450 C   0  0  0  0  0  0  0  0  0  0  0  0
    3.1930   70.0860   68.7240 C   0  0  0  0  0  0  0  0  0  0  0  0
    4.4130   70.6430   69.1160 C   0  0  0  0  0  0  0  0  0  0  0  0
    5.4890   70.6450   68.2300 C   0  0  0  0  0  0  0  0  0  0  0  0
    5.3540   70.0920   66.9580 C   0  0  0  0  0  0  0  0  0  0  0  0
    4.1330   69.5340   66.5620 C   0  0  0  0  0  0  0  0  0  0  0  0
    6.9910   71.3320   68.7100 Cl  0  0  0  0  0  0  0  0  0  0  0  0
    1.6150   67.9780   65.9300 C   0  0  0  0  0  0  0  0  0  0  0  0
    1.8710   66.8000   66.1510 O   0  0  0  0  0  0  0  0  0  0  0  0
    1.2400   68.4530   64.5720 C   0  0  0  0  0  0  0  0  0  0  0  0
   -0.1000   68.7940   64.3340 C   0  0  0  0  0  0  0  0  0  0  0  0
   -0.5050   69.2330   63.0690 C   0  0  0  0  0  0  0  0  0  0  0  0
    0.4280   69.3300   62.0410 C   0  0  0  0  0  0  0  0  0  0  0  0
    1.7620   68.9940   62.2650 C   0  0  0  0  0  0  0  0  0  0  0  0
    2.1700   68.5550   63.5300 C   0  0  0  0  0  0  0  0  0  0  0  0
   -0.0680   69.8680   60.4840 Cl  0  0  0  0  0  0  0  0  0  0  0  0
    2.3432   70.0849   69.4224 H   0  0  0  0  0  0  0  0  0  0  0  0
    4.5239   71.0783   70.1201 H   0  0  0  0  0  0  0  0  0  0  0  0
    6.2079   70.0940   66.2645 H   0  0  0  0  0  0  0  0  0  0  0  0
    4.0274   69.0998   65.5568 H   0  0  0  0  0  0  0  0  0  0  0  0
   -0.8367   68.7157   65.1471 H   0  0  0  0  0  0  0  0  0  0  0  0
   -1.5565   69.5004   62.8876 H   0  0  0  0  0  0  0  0  0  0  0  0
    2.4941   69.0738   61.4479 H   0  0  0  0  0  0  0  0  0  0  0  0
    3.2229   68.2897   63.7059 H   0  0  0  0  0  0  0  0  0  0  0  0
  2  1  2  0
  3  2  1  0
  4  3  2  0
  5  4  1  0
  6  5  2  0
  7  6  1  0
  8  7  2  0
  8  3  1  0
  9  6  1  0
 10  2  1  0
 11 10  2  0
 12 10  1  0
 13 12  2  0
 14 13  1  0
 15 14  2  0
 16 15  1  0
 17 12  1  0
 17 16  2  0
 18 15  1  0
  4 19  1  0
  5 20  1  0
  7 21  1  0
  8 22  1  0
 13 23  1  0
 14 24  1  0
 16 25  1  0
 17 26  1  0
M  END
>  <score>  (3) 
-9.505

$$$$
=
     RDKit          3D

 26 27  0  0  0  0  0  0  0  0999 V2000
    1.9080   66.7960   66.1490 O   0  0  0  0  0  0  0  0  0  0  0  0
    1.6490   67.9730   65.9290 C   0  0  0  0  0  0  0  0  0  0  0  0
    1.2810   68.4500   64.5690 C   0  0  0  0  0  0  0  0  0  0  0  0
   -0.0660   68.7500   64.3120 C   0  0  0  0  0  0  0  0  0  0  0  0
   -0.4630   69.1890   63.0460 C   0  0  0  0  0  0  0  0  0  0  0  0
    0.4840   69.3270   62.0330 C   0  0  0  0  0  0  0  0  0  0  0  0
    1.8240   69.0330   62.2780 C   0  0  0  0  0  0  0  0  0  0  0  0
    2.2250   68.5930   63.5440 C   0  0  0  0  0  0  0  0  0  0  0  0
   -0.0030   69.8640   60.4740 Cl  0  0  0  0  0  0  0  0  0  0  0  0
    1.7450   68.9550   67.0740 C   0  0  0  0  0  0  0  0  0  0  0  0
    0.7130   69.2790   67.6510 O   0  0  0  0  0  0  0  0  0  0  0  0
    3.0640   69.5290   67.4530 C   0  0  0  0  0  0  0  0  0  0  0  0
    3.2040   70.0820   68.7340 C   0  0  0  0  0  0  0  0  0  0  0  0
    4.4200   70.6460   69.1320 C   0  0  0  0  0  0  0  0  0  0  0  0
    5.4970   70.6590   68.2500 C   0  0  0  0  0  0  0  0  0  0  0  0
    5.3700   70.1120   66.9740 C   0  0  0  0  0  0  0  0  0  0  0  0
    4.1540   69.5470   66.5730 C   0  0  0  0  0  0  0  0  0  0  0  0
    6.9930   71.3530   68.7360 Cl  0  0  0  0  0  0  0  0  0  0  0  0
   -0.8132   68.6389   65.1116 H   0  0  0  0  0  0  0  0  0  0  0  0
   -1.5194   69.4248   62.8498 H   0  0  0  0  0  0  0  0  0  0  0  0
    2.5672   69.1470   61.4751 H   0  0  0  0  0  0  0  0  0  0  0  0
    3.2828   68.3591   63.7347 H   0  0  0  0  0  0  0  0  0  0  0  0
    2.3522   70.0720   69.4299 H   0  0  0  0  0  0  0  0  0  0  0  0
    4.5252   71.0778   70.1382 H   0  0  0  0  0  0  0  0  0  0  0  0
    6.2254   70.1245   66.2825 H   0  0  0  0  0  0  0  0  0  0  0  0
    4.0539   69.1165   65.5657 H   0  0  0  0  0  0  0  0  0  0  0  0
  2  1  2  0
  3  2  1  0
  4  3  2  0
  5  4  1  0
  6  5  2  0
  7  6  1  0
  8  7  2  0
  8  3  1  0
  9  6  1  0
 10  2  1  0
 11 10  2  0
 12 10  1  0
 13 12  2  0
 14 13  1  0
 15 14  2  0
 16 15  1  0
 17 12  1  0
 17 16  2  0
 18 15  1  0
  4 19  1  0
  5 20  1  0
  7 21  1  0
  8 22  1  0
 13 23  1  0
 14 24  1  0
 16 25  1  0
 17 26  1  0
M  END
>  <score>  (4) 
-9.49

$$$$
=
     RDKit          3D

 26 27  0  0  0  0  0  0  0  0999 V2000
    1.0860   68.7390   66.7150 O   0  0  0  0  0  0  0  0  0  0  0  0
    2.1730   68.8360   66.1580 C   0  0  0  0  0  0  0  0  0  0  0  0
    3.3400   69.4660   66.8300 C   0  0  0  0  0  0  0  0  0  0  0  0
    4.5510   69.5430   66.1250 C   0  0  0  0  0  0  0  0  0  0  0  0
    5.6800   70.1140   66.7180 C   0  0  0  0  0  0  0  0  0  0  0  0
    5.6020   70.6090   68.0180 C   0  0  0  0  0  0  0  0  0  0  0  0
    4.4050   70.5390   68.7280 C   0  0  0  0  0  0  0  0  0  0  0  0
    3.2720   69.9670   68.1360 C   0  0  0  0  0  0  0  0  0  0  0  0
    6.9910   71.3100   68.7520 Cl  0  0  0  0  0  0  0  0  0  0  0  0
    2.3000   68.3280   64.7400 C   0  0  0  0  0  0  0  0  0  0  0  0
    1.8210   69.0020   63.8360 O   0  0  0  0  0  0  0  0  0  0  0  0
    2.9640   67.0240   64.4740 C   0  0  0  0  0  0  0  0  0  0  0  0
    3.9070   66.9590   63.4370 C   0  0  0  0  0  0  0  0  0  0  0  0
    4.5480   65.7520   63.1390 C   0  0  0  0  0  0  0  0  0  0  0  0
    4.2460   64.6090   63.8750 C   0  0  0  0  0  0  0  0  0  0  0  0
    3.3120   64.6630   64.9080 C   0  0  0  0  0  0  0  0  0  0  0  0
    2.6690   65.8690   65.2080 C   0  0  0  0  0  0  0  0  0  0  0  0
    5.0320   63.1240   63.5090 Cl  0  0  0  0  0  0  0  0  0  0  0  0
    4.6118   69.1513   65.0989 H   0  0  0  0  0  0  0  0  0  0  0  0
    6.6266   70.1725   66.1607 H   0  0  0  0  0  0  0  0  0  0  0  0
    4.3500   70.9330   69.7535 H   0  0  0  0  0  0  0  0  0  0  0  0
    2.3277   69.9112   68.6974 H   0  0  0  0  0  0  0  0  0  0  0  0
    4.1435   67.8621   62.8552 H   0  0  0  0  0  0  0  0  0  0  0  0
    5.2879   65.7058   62.3263 H   0  0  0  0  0  0  0  0  0  0  0  0
    3.0802   63.7573   65.4876 H   0  0  0  0  0  0  0  0  0  0  0  0
    1.9303   65.9096   66.0221 H   0  0  0  0  0  0  0  0  0  0  0  0
  2  1  2  0
  3  2  1  0
  4  3  2  0
  5  4  1  0
  6  5  2  0
  7  6  1  0
  8  7  2  0
  8  3  1  0
  9  6  1  0
 10  2  1  0
 11 10  2  0
 12 10  1  0
 13 12  2  0
 14 13  1  0
 15 14  2  0
 16 15  1  0
 17 12  1  0
 17 16  2  0
 18 15  1  0
  4 19  1  0
  5 20  1  0
  7 21  1  0
  8 22  1  0
 13 23  1  0
 14 24  1  0
 16 25  1  0
 17 26  1  0
M  END
>  <score>  (5) 
-9.439

$$$$
=
     RDKit          3D

 26 27  0  0  0  0  0  0  0  0999 V2000
    1.5710   66.8570   66.6970 O   0  0  0  0  0  0  0  0  0  0  0  0
    1.8130   67.9750   66.2550 C   0  0  0  0  0  0  0  0  0  0  0  0
    2.1050   68.1960   64.8140 C   0  0  0  0  0  0  0  0  0  0  0  0
    3.3820   67.8650   64.3360 C   0  0  0  0  0  0  0  0  0  0  0  0
    3.7100   68.0680   62.9930 C   0  0  0  0  0  0  0  0  0  0  0  0
    2.7620   68.6030   62.1230 C   0  0  0  0  0  0  0  0  0  0  0  0
    1.4900   68.9350   62.5860 C   0  0  0  0  0  0  0  0  0  0  0  0
    1.1590   68.7340   63.9310 C   0  0  0  0  0  0  0  0  0  0  0  0
    3.1630   68.8550   60.4700 Cl  0  0  0  0  0  0  0  0  0  0  0  0
    1.8450   69.1370   67.2200 C   0  0  0  0  0  0  0  0  0  0  0  0
    0.7790   69.6300   67.5730 O   0  0  0  0  0  0  0  0  0  0  0  0
    3.1480   69.6770   67.6910 C   0  0  0  0  0  0  0  0  0  0  0  0
    4.2310   69.6720   66.7990 C   0  0  0  0  0  0  0  0  0  0  0  0
    5.4800   70.1550   67.2000 C   0  0  0  0  0  0  0  0  0  0  0  0
    5.6490   70.6430   68.4920 C   0  0  0  0  0  0  0  0  0  0  0  0
    4.5810   70.6540   69.3870 C   0  0  0  0  0  0  0  0  0  0  0  0
    3.3290   70.1710   68.9890 C   0  0  0  0  0  0  0  0  0  0  0  0
    7.1850   71.2370   68.9880 Cl  0  0  0  0  0  0  0  0  0  0  0  0
    4.1300   67.4428   65.0232 H   0  0  0  0  0  0  0  0  0  0  0  0
    4.7127   67.8065   62.6239 H   0  0  0  0  0  0  0  0  0  0  0  0
    0.7456   69.3554   61.8938 H   0  0  0  0  0  0  0  0  0  0  0  0
    0.1554   68.9986   64.2953 H   0  0  0  0  0  0  0  0  0  0  0  0
    4.0964   69.2857   65.7779 H   0  0  0  0  0  0  0  0  0  0  0  0
    6.3259   70.1493   66.4969 H   0  0  0  0  0  0  0  0  0  0  0  0
    4.7219   71.0423   70.4065 H   0  0  0  0  0  0  0  0  0  0  0  0
    2.4865   70.1794   69.6962 H   0  0  0  0  0  0  0  0  0  0  0  0
  2  1  2  0
  3  2  1  0
  4  3  2  0
  5  4  1  0
  6  5  2  0
  7  6  1  0
  8  7  2  0
  8  3  1  0
  9  6  1  0
 10  2  1  0
 11 10  2  0
 12 10  1  0
 13 12  2  0
 14 13  1  0
 15 14  2  0
 16 15  1  0
 17 12  1  0
 17 16  2  0
 18 15  1  0
  4 19  1  0
  5 20  1  0
  7 21  1  0
  8 22  1  0
 13 23  1  0
 14 24  1  0
 16 25  1  0
 17 26  1  0
M  END
>  <score>  (6) 
-9.097

$$$$
=
     RDKit          3D

 26 27  0  0  0  0  0  0  0  0999 V2000
    3.3560   66.7240   64.8470 O   0  0  0  0  0  0  0  0  0  0  0  0
    2.9390   67.8750   64.9180 C   0  0  0  0  0  0  0  0  0  0  0  0
    1.4920   68.1700   65.0890 C   0  0  0  0  0  0  0  0  0  0  0  0
    0.9070   67.9230   66.3410 C   0  0  0  0  0  0  0  0  0  0  0  0
   -0.4530   68.1710   66.5480 C   0  0  0  0  0  0  0  0  0  0  0  0
   -1.2320   68.6670   65.5040 C   0  0  0  0  0  0  0  0  0  0  0  0
   -0.6610   68.9180   64.2580 C   0  0  0  0  0  0  0  0  0  0  0  0
    0.7000   68.6690   64.0470 C   0  0  0  0  0  0  0  0  0  0  0  0
   -2.9060   68.9720   65.7560 Cl  0  0  0  0  0  0  0  0  0  0  0  0
    3.9310   69.0070   64.7890 C   0  0  0  0  0  0  0  0  0  0  0  0
    4.1560   69.4600   63.6730 O   0  0  0  0  0  0  0  0  0  0  0  0
    4.6330   69.5220   65.9950 C   0  0  0  0  0  0  0  0  0  0  0  0
    6.0220   69.7050   65.9290 C   0  0  0  0  0  0  0  0  0  0  0  0
    6.7280   70.1730   67.0410 C   0  0  0  0  0  0  0  0  0  0  0  0
    6.0470   70.4580   68.2220 C   0  0  0  0  0  0  0  0  0  0  0  0
    4.6670   70.2800   68.3000 C   0  0  0  0  0  0  0  0  0  0  0  0
    3.9580   69.8120   67.1880 C   0  0  0  0  0  0  0  0  0  0  0  0
    6.9140   71.0320   69.5910 Cl  0  0  0  0  0  0  0  0  0  0  0  0
    1.5227   67.5318   67.1643 H   0  0  0  0  0  0  0  0  0  0  0  0
   -0.9066   67.9755   67.5309 H   0  0  0  0  0  0  0  0  0  0  0  0
   -1.2807   69.3123   63.4392 H   0  0  0  0  0  0  0  0  0  0  0  0
    1.1482   68.8654   63.0618 H   0  0  0  0  0  0  0  0  0  0  0  0
    6.5593   69.4788   64.9962 H   0  0  0  0  0  0  0  0  0  0  0  0
    7.8172   70.3156   66.9835 H   0  0  0  0  0  0  0  0  0  0  0  0
    4.1351   70.5074   69.2356 H   0  0  0  0  0  0  0  0  0  0  0  0
    2.8688   69.6716   67.2507 H   0  0  0  0  0  0  0  0  0  0  0  0
  2  1  2  0
  3  2  1  0
  4  3  2  0
  5  4  1  0
  6  5  2  0
  7  6  1  0
  8  7  2  0
  8  3  1  0
  9  6  1  0
 10  2  1  0
 11 10  2  0
 12 10  1  0
 13 12  2  0
 14 13  1  0
 15 14  2  0
 16 15  1  0
 17 12  1  0
 17 16  2  0
 18 15  1  0
  4 19  1  0
  5 20  1  0
  7 21  1  0
  8 22  1  0
 13 23  1  0
 14 24  1  0
 16 25  1  0
 17 26  1  0
M  END
>  <score>  (7) 
-8.911

$$$$
=
     RDKit          3D

 26 27  0  0  0  0  0  0  0  0999 V2000
    4.1530   69.4410   63.5480 O   0  0  0  0  0  0  0  0  0  0  0  0
    3.9340   68.9790   64.6620 C   0  0  0  0  0  0  0  0  0  0  0  0
    4.6240   69.5010   65.8720 C   0  0  0  0  0  0  0  0  0  0  0  0
    6.0120   69.7030   65.8100 C   0  0  0  0  0  0  0  0  0  0  0  0
    6.7080   70.1780   66.9250 C   0  0  0  0  0  0  0  0  0  0  0  0
    6.0190   70.4520   68.1050 C   0  0  0  0  0  0  0  0  0  0  0  0
    4.6410   70.2570   68.1770 C   0  0  0  0  0  0  0  0  0  0  0  0
    3.9410   69.7800   67.0630 C   0  0  0  0  0  0  0  0  0  0  0  0
    6.8730   71.0360   69.4780 Cl  0  0  0  0  0  0  0  0  0  0  0  0
    2.9620   67.8280   64.7840 C   0  0  0  0  0  0  0  0  0  0  0  0
    3.3880   66.6890   64.6320 O   0  0  0  0  0  0  0  0  0  0  0  0
    1.5230   68.0950   65.0490 C   0  0  0  0  0  0  0  0  0  0  0  0
    0.7520   68.6570   64.0210 C   0  0  0  0  0  0  0  0  0  0  0  0
   -0.6020   68.9400   64.2260 C   0  0  0  0  0  0  0  0  0  0  0  0
   -1.1870   68.6620   65.4590 C   0  0  0  0  0  0  0  0  0  0  0  0
   -0.4300   68.1020   66.4870 C   0  0  0  0  0  0  0  0  0  0  0  0
    0.9250   67.8190   66.2850 C   0  0  0  0  0  0  0  0  0  0  0  0
   -2.8510   69.0100   65.7140 Cl  0  0  0  0  0  0  0  0  0  0  0  0
    6.5549   69.4861   64.8782 H   0  0  0  0  0  0  0  0  0  0  0  0
    7.7954   70.3350   66.8714 H   0  0  0  0  0  0  0  0  0  0  0  0
    4.1029   70.4783   69.1105 H   0  0  0  0  0  0  0  0  0  0  0  0
    2.8537   69.6240   67.1225 H   0  0  0  0  0  0  0  0  0  0  0  0
    1.2152   68.8765   63.0477 H   0  0  0  0  0  0  0  0  0  0  0  0
   -1.2027   69.3805   63.4166 H   0  0  0  0  0  0  0  0  0  0  0  0
   -0.8985   67.8825   67.4577 H   0  0  0  0  0  0  0  0  0  0  0  0
    1.5215   67.3792   67.0979 H   0  0  0  0  0  0  0  0  0  0  0  0
  2  1  2  0
  3  2  1  0
  4  3  2  0
  5  4  1  0
  6  5  2  0
  7  6  1  0
  8  7  2  0
  8  3  1  0
  9  6  1  0
 10  2  1  0
 11 10  2  0
 12 10  1  0
 13 12  2  0
 14 13  1  0
 15 14  2  0
 16 15  1  0
 17 12  1  0
 17 16  2  0
 18 15  1  0
  4 19  1  0
  5 20  1  0
  7 21  1  0
  8 22  1  0
 13 23  1  0
 14 24  1  0
 16 25  1  0
 17 26  1  0
M  END
>  <score>  (8) 
-8.857

$$$$
=
     RDKit          3D

 26 27  0  0  0  0  0  0  0  0999 V2000
    0.7150   69.1650   66.9270 O   0  0  0  0  0  0  0  0  0  0  0  0
    1.8420   68.8070   66.6010 C   0  0  0  0  0  0  0  0  0  0  0  0
    3.0570   69.4570   67.1590 C   0  0  0  0  0  0  0  0  0  0  0  0
    4.2190   69.4820   66.3710 C   0  0  0  0  0  0  0  0  0  0  0  0
    5.3900   70.0680   66.8560 C   0  0  0  0  0  0  0  0  0  0  0  0
    5.4050   70.6320   68.1310 C   0  0  0  0  0  0  0  0  0  0  0  0
    4.2580   70.6140   68.9210 C   0  0  0  0  0  0  0  0  0  0  0  0
    3.0830   70.0260   68.4390 C   0  0  0  0  0  0  0  0  0  0  0  0
    6.8470   71.3530   68.7300 Cl  0  0  0  0  0  0  0  0  0  0  0  0
    1.9770   67.7010   65.5810 C   0  0  0  0  0  0  0  0  0  0  0  0
    1.8650   66.5410   65.9610 O   0  0  0  0  0  0  0  0  0  0  0  0
    2.2710   68.0310   64.1610 C   0  0  0  0  0  0  0  0  0  0  0  0
    3.5090   67.6370   63.6300 C   0  0  0  0  0  0  0  0  0  0  0  0
    3.8380   67.9380   62.3050 C   0  0  0  0  0  0  0  0  0  0  0  0
    2.9310   68.6320   61.5080 C   0  0  0  0  0  0  0  0  0  0  0  0
    1.6990   69.0290   62.0240 C   0  0  0  0  0  0  0  0  0  0  0  0
    1.3670   68.7300   63.3510 C   0  0  0  0  0  0  0  0  0  0  0  0
    3.3350   69.0040   59.8780 Cl  0  0  0  0  0  0  0  0  0  0  0  0
    4.2067   69.0371   65.3651 H   0  0  0  0  0  0  0  0  0  0  0  0
    6.2974   70.0846   66.2344 H   0  0  0  0  0  0  0  0  0  0  0  0
    4.2757   71.0626   69.9252 H   0  0  0  0  0  0  0  0  0  0  0  0
    2.1791   70.0106   69.0657 H   0  0  0  0  0  0  0  0  0  0  0  0
    4.2245   67.0882   64.2600 H   0  0  0  0  0  0  0  0  0  0  0  0
    4.8098   67.6278   61.8934 H   0  0  0  0  0  0  0  0  0  0  0  0
    0.9874   69.5772   61.3890 H   0  0  0  0  0  0  0  0  0  0  0  0
    0.3947   69.0446   63.7580 H   0  0  0  0  0  0  0  0  0  0  0  0
  2  1  2  0
  3  2  1  0
  4  3  2  0
  5  4  1  0
  6  5  2  0
  7  6  1  0
  8  7  2  0
  8  3  1  0
  9  6  1  0
 10  2  1  0
 11 10  2  0
 12 10  1  0
 13 12  2  0
 14 13  1  0
 15 14  2  0
 16 15  1  0
 17 12  1  0
 17 16  2  0
 18 15  1  0
  4 19  1  0
  5 20  1  0
  7 21  1  0
  8 22  1  0
 13 23  1  0
 14 24  1  0
 16 25  1  0
 17 26  1  0
M  END
>  <score>  (9) 
-8.777

$$$$
