=
     RDKit          3D

 26 27  0  0  0  0  0  0  0  0999 V2000
    0.3260   68.9700   67.2070 O   0  0  0  0  0  0  0  0  0  0  0  0
    1.3290   68.7210   66.5460 C   0  0  0  0  0  0  0  0  0  0  0  0
    2.6300   69.3000   67.0140 C   0  0  0  0  0  0  0  0  0  0  0  0
    2.6420   69.8900   68.2910 C   0  0  0  0  0  0  0  0  0  0  0  0
    3.8090   70.4530   68.8030 C   0  0  0  0  0  0  0  0  0  0  0  0
    3.7930   71.0090   70.0210 F   0  0  0  0  0  0  0  0  0  0  0  0
    4.9850   70.4460   68.0720 C   0  0  0  0  0  0  0  0  0  0  0  0
    4.9760   69.8650   66.8150 C   0  0  0  0  0  0  0  0  0  0  0  0
    3.8190   69.2950   66.2790 C   0  0  0  0  0  0  0  0  0  0  0  0
    6.1050   69.8500   66.0940 F   0  0  0  0  0  0  0  0  0  0  0  0
    1.1980   67.8440   65.2990 C   0  0  0  0  0  0  0  0  0  0  0  0
    1.0550   66.6330   65.4350 O   0  0  0  0  0  0  0  0  0  0  0  0
    1.2360   68.3860   63.9030 C   0  0  0  0  0  0  0  0  0  0  0  0
    2.3320   68.2950   63.0380 C   0  0  0  0  0  0  0  0  0  0  0  0
    2.2570   68.8370   61.7530 C   0  0  0  0  0  0  0  0  0  0  0  0
    3.3170   68.7380   60.9400 F   0  0  0  0  0  0  0  0  0  0  0  0
    1.1130   69.4740   61.2990 C   0  0  0  0  0  0  0  0  0  0  0  0
    0.0280   69.5670   62.1520 C   0  0  0  0  0  0  0  0  0  0  0  0
    0.0770   69.0330   63.4380 C   0  0  0  0  0  0  0  0  0  0  0  0
   -1.0880   70.1780   61.7350 F   0  0  0  0  0  0  0  0  0  0  0  0
    1.7205   69.9070   68.8915 H   0  0  0  0  0  0  0  0  0  0  0  0
    5.9044   70.8913   68.4800 H   0  0  0  0  0  0  0  0  0  0  0  0
    3.8435   68.8415   65.2771 H   0  0  0  0  0  0  0  0  0  0  0  0
    3.2541   67.7958   63.3705 H   0  0  0  0  0  0  0  0  0  0  0  0
    1.0688   69.8958   60.2840 H   0  0  0  0  0  0  0  0  0  0  0  0
   -0.8000   69.1183   64.0965 H   0  0  0  0  0  0  0  0  0  0  0  0
  2  1  2  0
  3  2  1  0
  4  3  2  0
  5  4  1  0
  6  5  1  0
  7  5  2  0
  8  7  1  0
  9  8  2  0
  9  3  1  0
 10  8  1  0
 11  2  1  0
 12 11  2  0
 13 11  1  0
 14 13  2  0
 15 14  1  0
 16 15  1  0
 17 15  2  0
 18 17  1  0
 19 18  2  0
 19 13  1  0
 20 18  1  0
  4 21  1  0
  7 22  1  0
  9 23  1  0
 14 24  1  0
 17 25  1  0
 19 26  1  0
M  END
>  <score>  (1) 
-10.088

$$$$
=
     RDKit          3D

 26 27  0  0  0  0  0  0  0  0999 V2000
    0.3910   68.8390   67.2900 O   0  0  0  0  0  0  0  0  0  0  0  0
    1.3590   68.6380   66.5650 C   0  0  0  0  0  0  0  0  0  0  0  0
    2.6690   69.2390   66.9750 C   0  0  0  0  0  0  0  0  0  0  0  0
    2.7260   69.8380   68.2470 C   0  0  0  0  0  0  0  0  0  0  0  0
    3.9050   70.4210   68.7060 C   0  0  0  0  0  0  0  0  0  0  0  0
    3.9310   70.9850   69.9200 F   0  0  0  0  0  0  0  0  0  0  0  0
    5.0500   70.4260   67.9270 C   0  0  0  0  0  0  0  0  0  0  0  0
    4.9970   69.8360   66.6750 C   0  0  0  0  0  0  0  0  0  0  0  0
    3.8270   69.2460   66.1910 C   0  0  0  0  0  0  0  0  0  0  0  0
    6.0950   69.8320   65.9080 F   0  0  0  0  0  0  0  0  0  0  0  0
    1.1780   67.7960   65.3000 C   0  0  0  0  0  0  0  0  0  0  0  0
    1.1040   66.5760   65.4020 O   0  0  0  0  0  0  0  0  0  0  0  0
    1.0860   68.3840   63.9250 C   0  0  0  0  0  0  0  0  0  0  0  0
   -0.0300   69.0540   63.4130 C   0  0  0  0  0  0  0  0  0  0  0  0
   -0.0060   69.5630   62.1130 C   0  0  0  0  0  0  0  0  0  0  0  0
   -1.0850   70.2020   61.6420 F   0  0  0  0  0  0  0  0  0  0  0  0
    1.1060   69.4230   61.2980 C   0  0  0  0  0  0  0  0  0  0  0  0
    2.2120   68.7600   61.8010 C   0  0  0  0  0  0  0  0  0  0  0  0
    2.2140   68.2440   63.0940 C   0  0  0  0  0  0  0  0  0  0  0  0
    3.2980   68.6130   61.0320 F   0  0  0  0  0  0  0  0  0  0  0  0
    1.8303   69.8460   68.8855 H   0  0  0  0  0  0  0  0  0  0  0  0
    5.9789   70.8873   68.2936 H   0  0  0  0  0  0  0  0  0  0  0  0
    3.8165   68.7862   65.1917 H   0  0  0  0  0  0  0  0  0  0  0  0
   -0.9281   69.1801   64.0355 H   0  0  0  0  0  0  0  0  0  0  0  0
    1.1096   69.8291   60.2757 H   0  0  0  0  0  0  0  0  0  0  0  0
    3.1059   67.7216   63.4703 H   0  0  0  0  0  0  0  0  0  0  0  0
  2  1  2  0
  3  2  1  0
  4  3  2  0
  5  4  1  0
  6  5  1  0
  7  5  2  0
  8  7  1  0
  9  8  2  0
  9  3  1  0
 10  8  1  0
 11  2  1  0
 12 11  2  0
 13 11  1  0
 14 13  2  0
 15 14  1  0
 16 15  1  0
 17 15  2  0
 18 17  1  0
 19 18  2  0
 19 13  1  0
 20 18  1  0
  4 21  1  0
  7 22  1  0
  9 23  1  0
 14 24  1  0
 17 25  1  0
 19 26  1  0
M  END
>  <score>  (2) 
-10.037

$$$$
=
     RDKit          3D

 26 27  0  0  0  0  0  0  0  0999 V2000
    1.1320   66.5150   65.3900 O   0  0  0  0  0  0  0  0  0  0  0  0
    1.1870   67.7390   65.3160 C   0  0  0  0  0  0  0  0  0  0  0  0
    1.1120   68.3550   63.9520 C   0  0  0  0  0  0  0  0  0  0  0  0
    2.2490   68.2330   63.1330 C   0  0  0  0  0  0  0  0  0  0  0  0
    2.2630   68.7780   61.8510 C   0  0  0  0  0  0  0  0  0  0  0  0
    3.3590   68.6470   61.0930 F   0  0  0  0  0  0  0  0  0  0  0  0
    1.1630   69.4520   61.3490 C   0  0  0  0  0  0  0  0  0  0  0  0
    0.0420   69.5740   62.1530 C   0  0  0  0  0  0  0  0  0  0  0  0
    0.0020   69.0370   63.4430 C   0  0  0  0  0  0  0  0  0  0  0  0
   -1.0320   70.2220   61.6840 F   0  0  0  0  0  0  0  0  0  0  0  0
    1.3270   68.5550   66.6030 C   0  0  0  0  0  0  0  0  0  0  0  0
    0.3460   68.7030   67.3240 O   0  0  0  0  0  0  0  0  0  0  0  0
    2.6110   69.1940   67.0380 C   0  0  0  0  0  0  0  0  0  0  0  0
    3.7950   69.1980   66.2950 C   0  0  0  0  0  0  0  0  0  0  0  0
    4.9360   69.8270   66.8000 C   0  0  0  0  0  0  0  0  0  0  0  0
    6.0610   69.8200   66.0730 F   0  0  0  0  0  0  0  0  0  0  0  0
    4.9330   70.4560   68.0350 C   0  0  0  0  0  0  0  0  0  0  0  0
    3.7630   70.4530   68.7720 C   0  0  0  0  0  0  0  0  0  0  0  0
    2.6110   69.8350   68.2910 C   0  0  0  0  0  0  0  0  0  0  0  0
    3.7360   71.0550   69.9680 F   0  0  0  0  0  0  0  0  0  0  0  0
    3.1361   67.7019   63.5086 H   0  0  0  0  0  0  0  0  0  0  0  0
    1.1789   69.8803   60.3359 H   0  0  0  0  0  0  0  0  0  0  0  0
   -0.9028   69.1508   64.0581 H   0  0  0  0  0  0  0  0  0  0  0  0
    3.8286   68.7056   65.3119 H   0  0  0  0  0  0  0  0  0  0  0  0
    5.8397   70.9459   68.4197 H   0  0  0  0  0  0  0  0  0  0  0  0
    1.6926   69.8481   68.8962 H   0  0  0  0  0  0  0  0  0  0  0  0
  2  1  2  0
  3  2  1  0
  4  3  2  0
  5  4  1  0
  6  5  1  0
  7  5  2  0
  8  7  1  0
  9  8  2  0
  9  3  1  0
 10  8  1  0
 11  2  1  0
 12 11  2  0
 13 11  1  0
 14 13  2  0
 15 14  1  0
 16 15  1  0
 17 15  2  0
 18 17  1  0
 19 18  2  0
 19 13  1  0
 20 18  1  0
  4 21  1  0
  7 22  1  0
  9 23  1  0
 14 24  1  0
 17 25  1  0
 19 26  1  0
M  END
>  <score>  (3) 
-10.018

$$$$
=
     RDKit          3D

 26 27  0  0  0  0  0  0  0  0999 V2000
    5.3820   69.8230   64.0190 O   0  0  0  0  0  0  0  0  0  0  0  0
    4.6490   69.3030   64.8540 C   0  0  0  0  0  0  0  0  0  0  0  0
    4.7740   69.7690   66.2720 C   0  0  0  0  0  0  0  0  0  0  0  0
    6.0500   70.1800   66.6990 C   0  0  0  0  0  0  0  0  0  0  0  0
    6.2530   70.6270   68.0030 C   0  0  0  0  0  0  0  0  0  0  0  0
    7.4780   71.0120   68.3830 F   0  0  0  0  0  0  0  0  0  0  0  0
    5.2090   70.6810   68.9110 C   0  0  0  0  0  0  0  0  0  0  0  0
    3.9520   70.2780   68.4930 C   0  0  0  0  0  0  0  0  0  0  0  0
    3.7220   69.8240   67.1920 C   0  0  0  0  0  0  0  0  0  0  0  0
    2.9300   70.3230   69.3580 F   0  0  0  0  0  0  0  0  0  0  0  0
    3.6620   68.2230   64.4060 C   0  0  0  0  0  0  0  0  0  0  0  0
    4.0310   67.0530   64.3780 O   0  0  0  0  0  0  0  0  0  0  0  0
    2.2510   68.5160   63.9920 C   0  0  0  0  0  0  0  0  0  0  0  0
    1.1440   68.4790   64.8450 C   0  0  0  0  0  0  0  0  0  0  0  0
   -0.1300   68.7710   64.3510 C   0  0  0  0  0  0  0  0  0  0  0  0
   -1.1780   68.7310   65.1840 F   0  0  0  0  0  0  0  0  0  0  0  0
   -0.3360   69.1000   63.0210 C   0  0  0  0  0  0  0  0  0  0  0  0
    0.7580   69.1370   62.1750 C   0  0  0  0  0  0  0  0  0  0  0  0
    2.0390   68.8510   62.6430 C   0  0  0  0  0  0  0  0  0  0  0  0
    0.5840   69.4530   60.8860 F   0  0  0  0  0  0  0  0  0  0  0  0
    6.8958   70.1481   65.9964 H   0  0  0  0  0  0  0  0  0  0  0  0
    5.3742   71.0354   69.9392 H   0  0  0  0  0  0  0  0  0  0  0  0
    2.7120   69.5093   66.8907 H   0  0  0  0  0  0  0  0  0  0  0  0
    1.2760   68.2198   65.9058 H   0  0  0  0  0  0  0  0  0  0  0  0
   -1.3453   69.3264   62.6467 H   0  0  0  0  0  0  0  0  0  0  0  0
    2.8927   68.8877   61.9503 H   0  0  0  0  0  0  0  0  0  0  0  0
  2  1  2  0
  3  2  1  0
  4  3  2  0
  5  4  1  0
  6  5  1  0
  7  5  2  0
  8  7  1  0
  9  8  2  0
  9  3  1  0
 10  8  1  0
 11  2  1  0
 12 11  2  0
 13 11  1  0
 14 13  2  0
 15 14  1  0
 16 15  1  0
 17 15  2  0
 18 17  1  0
 19 18  2  0
 19 13  1  0
 20 18  1  0
  4 21  1  0
  7 22  1  0
  9 23  1  0
 14 24  1  0
 17 25  1  0
 19 26  1  0
M  END
>  <score>  (4) 
-9.98

$$$$
=
     RDKit          3D

 26 27  0  0  0  0  0  0  0  0999 V2000
    5.3930   69.8050   63.9130 O   0  0  0  0  0  0  0  0  0  0  0  0
    4.6940   69.3040   64.7880 C   0  0  0  0  0  0  0  0  0  0  0  0
    4.9050   69.7710   66.1960 C   0  0  0  0  0  0  0  0  0  0  0  0
    3.7800   69.7740   67.0420 C   0  0  0  0  0  0  0  0  0  0  0  0
    3.8880   70.1950   68.3660 C   0  0  0  0  0  0  0  0  0  0  0  0
    2.8020   70.1880   69.1490 F   0  0  0  0  0  0  0  0  0  0  0  0
    5.1000   70.6180   68.8840 C   0  0  0  0  0  0  0  0  0  0  0  0
    6.2090   70.6160   68.0540 C   0  0  0  0  0  0  0  0  0  0  0  0
    6.1270   70.2000   66.7230 C   0  0  0  0  0  0  0  0  0  0  0  0
    7.3890   71.0220   68.5390 F   0  0  0  0  0  0  0  0  0  0  0  0
    3.6610   68.2450   64.3980 C   0  0  0  0  0  0  0  0  0  0  0  0
    3.9360   67.0590   64.5520 O   0  0  0  0  0  0  0  0  0  0  0  0
    2.3140   68.5770   63.8300 C   0  0  0  0  0  0  0  0  0  0  0  0
    2.0630   68.8760   62.4880 C   0  0  0  0  0  0  0  0  0  0  0  0
    0.7640   69.1710   62.0670 C   0  0  0  0  0  0  0  0  0  0  0  0
    0.5450   69.4550   60.7760 F   0  0  0  0  0  0  0  0  0  0  0  0
   -0.3020   69.1790   62.9520 C   0  0  0  0  0  0  0  0  0  0  0  0
   -0.0570   68.8840   64.2810 C   0  0  0  0  0  0  0  0  0  0  0  0
    1.2290   68.5850   64.7260 C   0  0  0  0  0  0  0  0  0  0  0  0
   -1.0720   68.8850   65.1540 F   0  0  0  0  0  0  0  0  0  0  0  0
    2.8061   69.4408   66.6542 H   0  0  0  0  0  0  0  0  0  0  0  0
    5.1806   70.9480   69.9302 H   0  0  0  0  0  0  0  0  0  0  0  0
    7.0254   70.2099   66.0884 H   0  0  0  0  0  0  0  0  0  0  0  0
    2.8895   68.8791   61.7622 H   0  0  0  0  0  0  0  0  0  0  0  0
   -1.3192   69.4144   62.6059 H   0  0  0  0  0  0  0  0  0  0  0  0
    1.3978   68.3530   65.7879 H   0  0  0  0  0  0  0  0  0  0  0  0
  2  1  2  0
  3  2  1  0
  4  3  2  0
  5  4  1  0
  6  5  1  0
  7  5  2  0
  8  7  1  0
  9  8  2  0
  9  3  1  0
 10  8  1  0
 11  2  1  0
 12 11  2  0
 13 11  1  0
 14 13  2  0
 15 14  1  0
 16 15  1  0
 17 15  2  0
 18 17  1  0
 19 18  2  0
 19 13  1  0
 20 18  1  0
  4 21  1  0
  7 22  1  0
  9 23  1  0
 14 24  1  0
 17 25  1  0
 19 26  1  0
M  END
>  <score>  (5) 
-9.962

$$$$
=
     RDKit          3D

 26 27  0  0  0  0  0  0  0  0999 V2000
    3.8890   67.0000   64.6130 O   0  0  0  0  0  0  0  0  0  0  0  0
    3.5860   68.1840   64.5050 C   0  0  0  0  0  0  0  0  0  0  0  0
    2.1990   68.5050   64.0380 C   0  0  0  0  0  0  0  0  0  0  0  0
    2.0460   68.8460   62.6810 C   0  0  0  0  0  0  0  0  0  0  0  0
    0.7910   69.1600   62.1650 C   0  0  0  0  0  0  0  0  0  0  0  0
    0.6730   69.4810   60.8700 F   0  0  0  0  0  0  0  0  0  0  0  0
   -0.3370   69.1430   62.9680 C   0  0  0  0  0  0  0  0  0  0  0  0
   -0.1890   68.8070   64.3040 C   0  0  0  0  0  0  0  0  0  0  0  0
    1.0590   68.4900   64.8460 C   0  0  0  0  0  0  0  0  0  0  0  0
   -1.2690   68.7870   65.0950 F   0  0  0  0  0  0  0  0  0  0  0  0
    4.6270   69.2510   64.8490 C   0  0  0  0  0  0  0  0  0  0  0  0
    5.3140   69.7260   63.9500 O   0  0  0  0  0  0  0  0  0  0  0  0
    4.8600   69.7560   66.2410 C   0  0  0  0  0  0  0  0  0  0  0  0
    6.0900   70.2020   66.7350 C   0  0  0  0  0  0  0  0  0  0  0  0
    6.1940   70.6540   68.0530 C   0  0  0  0  0  0  0  0  0  0  0  0
    7.3810   71.0770   68.5060 F   0  0  0  0  0  0  0  0  0  0  0  0
    5.0990   70.6740   68.9020 C   0  0  0  0  0  0  0  0  0  0  0  0
    3.8810   70.2330   68.4170 C   0  0  0  0  0  0  0  0  0  0  0  0
    3.7510   69.7790   67.1060 C   0  0  0  0  0  0  0  0  0  0  0  0
    2.8090   70.2430   69.2190 F   0  0  0  0  0  0  0  0  0  0  0  0
    2.9262   68.8647   62.0216 H   0  0  0  0  0  0  0  0  0  0  0  0
   -1.3263   69.3902   62.5553 H   0  0  0  0  0  0  0  0  0  0  0  0
    1.1444   68.2281   65.9109 H   0  0  0  0  0  0  0  0  0  0  0  0
    6.9772   70.1969   66.0847 H   0  0  0  0  0  0  0  0  0  0  0  0
    5.1961   71.0322   69.9375 H   0  0  0  0  0  0  0  0  0  0  0  0
    2.7710   69.4350   66.7438 H   0  0  0  0  0  0  0  0  0  0  0  0
  2  1  2  0
  3  2  1  0
  4  3  2  0
  5  4  1  0
  6  5  1  0
  7  5  2  0
  8  7  1  0
  9  8  2  0
  9  3  1  0
 10  8  1  0
 11  2  1  0
 12 11  2  0
 13 11  1  0
 14 13  2  0
 15 14  1  0
 16 15  1  0
 17 15  2  0
 18 17  1  0
 19 18  2  0
 19 13  1  0
 20 18  1  0
  4 21  1  0
  7 22  1  0
  9 23  1  0
 14 24  1  0
 17 25  1  0
 19 26  1  0
M  END
>  <score>  (6) 
-9.938

$$$$
=
     RDKit          3D

 26 27  0  0  0  0  0  0  0  0999 V2000
    1.2680   69.0900   63.7000 O   0  0  0  0  0  0  0  0  0  0  0  0
    1.3540   68.5910   64.8170 C   0  0  0  0  0  0  0  0  0  0  0  0
    0.0800   68.3480   65.5680 C   0  0  0  0  0  0  0  0  0  0  0  0
    0.1370   67.4470   66.6470 C   0  0  0  0  0  0  0  0  0  0  0  0
   -1.0020   67.1640   67.3980 C   0  0  0  0  0  0  0  0  0  0  0  0
   -0.9190   66.3030   68.4190 F   0  0  0  0  0  0  0  0  0  0  0  0
   -2.2170   67.7600   67.1050 C   0  0  0  0  0  0  0  0  0  0  0  0
   -2.2760   68.6480   66.0430 C   0  0  0  0  0  0  0  0  0  0  0  0
   -1.1490   68.9480   65.2740 C   0  0  0  0  0  0  0  0  0  0  0  0
   -3.4440   69.2330   65.7460 F   0  0  0  0  0  0  0  0  0  0  0  0
    2.7370   68.2480   65.3730 C   0  0  0  0  0  0  0  0  0  0  0  0
    3.3020   67.2330   64.9790 O   0  0  0  0  0  0  0  0  0  0  0  0
    3.4510   69.0910   66.3850 C   0  0  0  0  0  0  0  0  0  0  0  0
    2.8840   69.5720   67.5700 C   0  0  0  0  0  0  0  0  0  0  0  0
    3.6450   70.3520   68.4440 C   0  0  0  0  0  0  0  0  0  0  0  0
    3.0830   70.8020   69.5730 F   0  0  0  0  0  0  0  0  0  0  0  0
    4.9650   70.6710   68.1720 C   0  0  0  0  0  0  0  0  0  0  0  0
    5.5290   70.1970   67.0010 C   0  0  0  0  0  0  0  0  0  0  0  0
    4.7920   69.4160   66.1130 C   0  0  0  0  0  0  0  0  0  0  0  0
    6.8040   70.4920   66.7160 F   0  0  0  0  0  0  0  0  0  0  0  0
    1.0907   66.9609   66.9004 H   0  0  0  0  0  0  0  0  0  0  0  0
   -3.1136   67.5340   67.7009 H   0  0  0  0  0  0  0  0  0  0  0  0
   -1.2281   69.6567   64.4365 H   0  0  0  0  0  0  0  0  0  0  0  0
    1.8377   69.3357   67.8138 H   0  0  0  0  0  0  0  0  0  0  0  0
    5.5510   71.2866   68.8704 H   0  0  0  0  0  0  0  0  0  0  0  0
    5.2641   69.0498   65.1894 H   0  0  0  0  0  0  0  0  0  0  0  0
  2  1  2  0
  3  2  1  0
  4  3  2  0
  5  4  1  0
  6  5  1  0
  7  5  2  0
  8  7  1  0
  9  8  2  0
  9  3  1  0
 10  8  1  0
 11  2  1  0
 12 11  2  0
 13 11  1  0
 14 13  2  0
 15 14  1  0
 16 15  1  0
 17 15  2  0
 18 17  1  0
 19 18  2  0
 19 13  1  0
 20 18  1  0
  4 21  1  0
  7 22  1  0
  9 23  1  0
 14 24  1  0
 17 25  1  0
 19 26  1  0
M  END
>  <score>  (7) 
-9.825

$$$$
=
     RDKit          3D

 26 27  0  0  0  0  0  0  0  0999 V2000
    3.3800   69.0940   64.2260 O   0  0  0  0  0  0  0  0  0  0  0  0
    3.1530   68.7240   65.3740 C   0  0  0  0  0  0  0  0  0  0  0  0
    3.8460   69.4520   66.4860 C   0  0  0  0  0  0  0  0  0  0  0  0
    5.1970   69.7880   66.2840 C   0  0  0  0  0  0  0  0  0  0  0  0
    5.9160   70.4640   67.2680 C   0  0  0  0  0  0  0  0  0  0  0  0
    7.2010   70.7710   67.0500 F   0  0  0  0  0  0  0  0  0  0  0  0
    5.3220   70.8240   68.4660 C   0  0  0  0  0  0  0  0  0  0  0  0
    3.9920   70.4950   68.6670 C   0  0  0  0  0  0  0  0  0  0  0  0
    3.2500   69.8160   67.6970 C   0  0  0  0  0  0  0  0  0  0  0  0
    3.4020   70.8350   69.8200 F   0  0  0  0  0  0  0  0  0  0  0  0
    2.1880   67.5590   65.6030 C   0  0  0  0  0  0  0  0  0  0  0  0
    2.5770   66.4140   65.3940 O   0  0  0  0  0  0  0  0  0  0  0  0
    0.7760   67.7380   66.0720 C   0  0  0  0  0  0  0  0  0  0  0  0
   -0.1950   68.5010   65.4160 C   0  0  0  0  0  0  0  0  0  0  0  0
   -1.4840   68.5980   65.9450 C   0  0  0  0  0  0  0  0  0  0  0  0
   -2.4000   69.3340   65.3020 F   0  0  0  0  0  0  0  0  0  0  0  0
   -1.8380   67.9520   67.1200 C   0  0  0  0  0  0  0  0  0  0  0  0
   -0.8800   67.1970   67.7710 C   0  0  0  0  0  0  0  0  0  0  0  0
    0.4130   67.0830   67.2640 C   0  0  0  0  0  0  0  0  0  0  0  0
   -1.1990   66.5640   68.9070 F   0  0  0  0  0  0  0  0  0  0  0  0
    5.6908   69.5144   65.3399 H   0  0  0  0  0  0  0  0  0  0  0  0
    5.8930   71.3585   69.2395 H   0  0  0  0  0  0  0  0  0  0  0  0
    2.1953   69.5675   67.8866 H   0  0  0  0  0  0  0  0  0  0  0  0
    0.0566   69.0254   64.4823 H   0  0  0  0  0  0  0  0  0  0  0  0
   -2.8572   68.0383   67.5246 H   0  0  0  0  0  0  0  0  0  0  0  0
    1.1569   66.4755   67.8002 H   0  0  0  0  0  0  0  0  0  0  0  0
  2  1  2  0
  3  2  1  0
  4  3  2  0
  5  4  1  0
  6  5  1  0
  7  5  2  0
  8  7  1  0
  9  8  2  0
  9  3  1  0
 10  8  1  0
 11  2  1  0
 12 11  2  0
 13 11  1  0
 14 13  2  0
 15 14  1  0
 16 15  1  0
 17 15  2  0
 18 17  1  0
 19 18  2  0
 19 13  1  0
 20 18  1  0
  4 21  1  0
  7 22  1  0
  9 23  1  0
 14 24  1  0
 17 25  1  0
 19 26  1  0
M  END
>  <score>  (8) 
-9.725

$$$$
=
     RDKit          3D

 26 27  0  0  0  0  0  0  0  0999 V2000
    0.8340   68.6110   67.2350 O   0  0  0  0  0  0  0  0  0  0  0  0
    1.8220   68.7450   66.5200 C   0  0  0  0  0  0  0  0  0  0  0  0
    3.0290   69.4010   67.1190 C   0  0  0  0  0  0  0  0  0  0  0  0
    2.8790   69.9640   68.3990 C   0  0  0  0  0  0  0  0  0  0  0  0
    3.9500   70.5940   69.0290 C   0  0  0  0  0  0  0  0  0  0  0  0
    3.7800   71.1220   70.2470 F   0  0  0  0  0  0  0  0  0  0  0  0
    5.1880   70.6810   68.4150 C   0  0  0  0  0  0  0  0  0  0  0  0
    5.3390   70.1270   67.1550 C   0  0  0  0  0  0  0  0  0  0  0  0
    4.2800   69.4910   66.5020 C   0  0  0  0  0  0  0  0  0  0  0  0
    6.5290   70.2030   66.5460 F   0  0  0  0  0  0  0  0  0  0  0  0
    1.7670   68.2410   65.0760 C   0  0  0  0  0  0  0  0  0  0  0  0
    0.9610   68.7430   64.3000 O   0  0  0  0  0  0  0  0  0  0  0  0
    2.6530   67.1540   64.5480 C   0  0  0  0  0  0  0  0  0  0  0  0
    2.6460   65.8280   64.9930 C   0  0  0  0  0  0  0  0  0  0  0  0
    3.5180   64.8950   64.4280 C   0  0  0  0  0  0  0  0  0  0  0  0
    3.4940   63.6300   64.8680 F   0  0  0  0  0  0  0  0  0  0  0  0
    4.4070   65.2450   63.4240 C   0  0  0  0  0  0  0  0  0  0  0  0
    4.4170   66.5560   62.9820 C   0  0  0  0  0  0  0  0  0  0  0  0
    3.5570   67.5060   63.5290 C   0  0  0  0  0  0  0  0  0  0  0  0
    5.2670   66.9180   62.0130 F   0  0  0  0  0  0  0  0  0  0  0  0
    1.9056   69.9063   68.9082 H   0  0  0  0  0  0  0  0  0  0  0  0
    6.0314   71.1784   68.9162 H   0  0  0  0  0  0  0  0  0  0  0  0
    4.4310   69.0606   65.5010 H   0  0  0  0  0  0  0  0  0  0  0  0
    1.9525   65.5196   65.7893 H   0  0  0  0  0  0  0  0  0  0  0  0
    5.0881   64.4986   62.9891 H   0  0  0  0  0  0  0  0  0  0  0  0
    3.5851   68.5420   63.1603 H   0  0  0  0  0  0  0  0  0  0  0  0
  2  1  2  0
  3  2  1  0
  4  3  2  0
  5  4  1  0
  6  5  1  0
  7  5  2  0
  8  7  1  0
  9  8  2  0
  9  3  1  0
 10  8  1  0
 11  2  1  0
 12 11  2  0
 13 11  1  0
 14 13  2  0
 15 14  1  0
 16 15  1  0
 17 15  2  0
 18 17  1  0
 19 18  2  0
 19 13  1  0
 20 18  1  0
  4 21  1  0
  7 22  1  0
  9 23  1  0
 14 24  1  0
 17 25  1  0
 19 26  1  0
M  END
>  <score>  (9) 
-9.683

$$$$
