=
     RDKit          3D

 52 55  0  0  0  0  0  0  0  0999 V2000
    5.0210   68.8230   64.3720 N   0  0  0  0  0  4  0  0  0  0  0  0
    5.2650   69.4920   63.0390 C   0  0  0  0  0  0  0  0  0  0  0  0
    4.7160   68.6580   61.8830 C   0  0  0  0  0  0  0  0  0  0  0  0
    3.4250   67.9000   62.2180 C   0  0  0  0  0  0  0  0  0  0  0  0
    3.6290   67.0090   63.4630 C   0  0  0  0  0  0  0  0  0  0  0  0
    4.8890   67.3310   64.2630 C   0  0  0  0  0  0  0  0  0  0  0  0
    6.0240   69.2370   65.4290 C   0  0  0  0  0  0  0  0  0  0  0  0
    4.1590   70.7570   69.0040 C   0  0  0  0  0  0  0  0  0  0  0  0
    3.3900   70.1150   68.0370 C   0  0  0  0  0  0  0  0  0  0  0  0
    3.9880   69.6320   66.8730 C   0  0  0  0  0  0  0  0  0  0  0  0
    5.3670   69.7880   66.6650 C   0  0  0  0  0  0  0  0  0  0  0  0
    6.1320   70.4420   67.6450 C   0  0  0  0  0  0  0  0  0  0  0  0
    5.5290   70.9230   68.8070 C   0  0  0  0  0  0  0  0  0  0  0  0
    2.2360   68.8770   62.3580 C   0  0  0  0  0  0  0  0  0  0  0  0
    1.1020   68.3220   63.2280 C   0  0  0  0  0  0  0  0  0  0  0  0
    0.9990   69.0720   64.5610 C   0  0  0  0  0  0  0  0  0  0  0  0
   -0.0310   68.4760   65.4560 C   0  0  0  0  0  0  0  0  0  0  0  0
   -1.3200   68.5090   65.0890 N   0  0  0  0  0  0  0  0  0  0  0  0
   -2.0160   67.8900   66.1160 O   0  0  0  0  0  0  0  0  0  0  0  0
   -1.1450   67.4970   67.0840 C   0  0  0  0  0  0  0  0  0  0  0  0
    0.1420   67.8460   66.7140 C   0  0  0  0  0  0  0  0  0  0  0  0
    1.2040   67.5310   67.5790 C   0  0  0  0  0  0  0  0  0  0  0  0
    0.9090   66.8720   68.7830 C   0  0  0  0  0  0  0  0  0  0  0  0
   -0.4060   66.5340   69.1190 C   0  0  0  0  0  0  0  0  0  0  0  0
   -1.4720   66.8420   68.2680 C   0  0  0  0  0  0  0  0  0  0  0  0
    4.1049   69.1686   64.6918 H   0  0  0  0  0  0  0  0  0  0  0  0
    4.7705   70.4746   63.0368 H   0  0  0  0  0  0  0  0  0  0  0  0
    6.3511   69.5988   62.9011 H   0  0  0  0  0  0  0  0  0  0  0  0
    4.5123   69.3311   61.0372 H   0  0  0  0  0  0  0  0  0  0  0  0
    5.4778   67.9002   61.6476 H   0  0  0  0  0  0  0  0  0  0  0  0
    3.1745   67.2258   61.3857 H   0  0  0  0  0  0  0  0  0  0  0  0
    2.7589   67.1353   64.1240 H   0  0  0  0  0  0  0  0  0  0  0  0
    3.7409   65.9772   63.0986 H   0  0  0  0  0  0  0  0  0  0  0  0
    4.8116   66.8917   65.2685 H   0  0  0  0  0  0  0  0  0  0  0  0
    5.7716   66.9123   63.7574 H   0  0  0  0  0  0  0  0  0  0  0  0
    6.6227   68.3581   65.7102 H   0  0  0  0  0  0  0  0  0  0  0  0
    6.6499   70.0338   65.0008 H   0  0  0  0  0  0  0  0  0  0  0  0
    3.6857   71.1330   69.9230 H   0  0  0  0  0  0  0  0  0  0  0  0
    2.3083   69.9884   68.1913 H   0  0  0  0  0  0  0  0  0  0  0  0
    3.3746   69.1255   66.1132 H   0  0  0  0  0  0  0  0  0  0  0  0
    7.2135   70.5756   67.4950 H   0  0  0  0  0  0  0  0  0  0  0  0
    6.1354   71.4342   69.5692 H   0  0  0  0  0  0  0  0  0  0  0  0
    2.6010   69.8102   62.8118 H   0  0  0  0  0  0  0  0  0  0  0  0
    1.8263   69.0422   61.3506 H   0  0  0  0  0  0  0  0  0  0  0  0
    0.1511   68.4258   62.6849 H   0  0  0  0  0  0  0  0  0  0  0  0
    1.3168   67.2647   63.4422 H   0  0  0  0  0  0  0  0  0  0  0  0
    1.9750   69.0334   65.0670 H   0  0  0  0  0  0  0  0  0  0  0  0
    0.7042   70.1097   64.3461 H   0  0  0  0  0  0  0  0  0  0  0  0
    2.2400   67.7941   67.3192 H   0  0  0  0  0  0  0  0  0  0  0  0
    1.7260   66.6171   69.4740 H   0  0  0  0  0  0  0  0  0  0  0  0
   -0.6051   66.0169   70.0692 H   0  0  0  0  0  0  0  0  0  0  0  0
   -2.5105   66.5814   68.5200 H   0  0  0  0  0  0  0  0  0  0  0  0
  2  1  1  0
  3  2  1  0
  4  3  1  0
  5  4  1  0
  6  5  1  0
  6  1  1  0
  7  1  1  0
  9  8  2  0
 10  9  1  0
 11 10  2  0
 11  7  1  0
 12 11  1  0
 13  8  1  0
 13 12  2  0
 14  4  1  0
 15 14  1  0
 16 15  1  0
 17 16  1  0
 18 17  2  0
 19 18  1  0
 20 19  1  0
 21 20  2  0
 21 17  1  0
 22 21  1  0
 23 22  2  0
 24 23  1  0
 25 24  2  0
 25 20  1  0
  1 26  1  0
  2 27  1  0
  2 28  1  0
  3 29  1  0
  3 30  1  0
  4 31  1  0
  5 32  1  0
  5 33  1  0
  6 34  1  0
  6 35  1  0
  7 36  1  0
  7 37  1  0
  8 38  1  0
  9 39  1  0
 10 40  1  0
 12 41  1  0
 13 42  1  0
 14 43  1  0
 14 44  1  0
 15 45  1  0
 15 46  1  0
 16 47  1  0
 16 48  1  0
 22 49  1  0
 23 50  1  0
 24 51  1  0
 25 52  1  0
M  CHG  1   1   1
M  END
>  <score>  (1) 
-10.291

$$$$
=
     RDKit          3D

 52 55  0  0  0  0  0  0  0  0999 V2000
    5.2450   68.8540   64.4820 N   0  0  0  0  0  4  0  0  0  0  0  0
    5.3220   69.6600   63.2050 C   0  0  0  0  0  0  0  0  0  0  0  0
    4.8440   68.8500   62.0010 C   0  0  0  0  0  0  0  0  0  0  0  0
    3.6970   67.8810   62.3140 C   0  0  0  0  0  0  0  0  0  0  0  0
    4.0910   66.9330   63.4670 C   0  0  0  0  0  0  0  0  0  0  0  0
    5.3280   67.3740   64.2460 C   0  0  0  0  0  0  0  0  0  0  0  0
    6.2270   69.3260   65.5340 C   0  0  0  0  0  0  0  0  0  0  0  0
    4.2610   70.7510   69.0940 C   0  0  0  0  0  0  0  0  0  0  0  0
    5.6370   70.9120   68.9470 C   0  0  0  0  0  0  0  0  0  0  0  0
    6.2780   70.4410   67.8000 C   0  0  0  0  0  0  0  0  0  0  0  0
    5.5460   69.8020   66.7880 C   0  0  0  0  0  0  0  0  0  0  0  0
    4.1600   69.6410   66.9500 C   0  0  0  0  0  0  0  0  0  0  0  0
    3.5240   70.1140   68.0980 C   0  0  0  0  0  0  0  0  0  0  0  0
    2.3860   68.6530   62.5840 C   0  0  0  0  0  0  0  0  0  0  0  0
    1.4860   67.9650   63.6180 C   0  0  0  0  0  0  0  0  0  0  0  0
    1.7200   68.5250   65.0260 C   0  0  0  0  0  0  0  0  0  0  0  0
    0.7770   67.9420   66.0190 C   0  0  0  0  0  0  0  0  0  0  0  0
    1.2520   67.1510   66.9920 N   0  0  0  0  0  0  0  0  0  0  0  0
    0.1460   66.7700   67.7370 O   0  0  0  0  0  0  0  0  0  0  0  0
   -0.9740   67.3280   67.2060 C   0  0  0  0  0  0  0  0  0  0  0  0
   -0.6300   68.0900   66.1030 C   0  0  0  0  0  0  0  0  0  0  0  0
   -1.6460   68.7590   65.3990 C   0  0  0  0  0  0  0  0  0  0  0  0
   -2.9690   68.6240   65.8500 C   0  0  0  0  0  0  0  0  0  0  0  0
   -3.2740   67.8460   66.9710 C   0  0  0  0  0  0  0  0  0  0  0  0
   -2.2740   67.1740   67.6810 C   0  0  0  0  0  0  0  0  0  0  0  0
    4.3050   69.0300   64.8646 H   0  0  0  0  0  0  0  0  0  0  0  0
    4.6894   70.5540   63.3081 H   0  0  0  0  0  0  0  0  0  0  0  0
    6.3723   69.9402   63.0370 H   0  0  0  0  0  0  0  0  0  0  0  0
    4.5016   69.5519   61.2263 H   0  0  0  0  0  0  0  0  0  0  0  0
    5.6963   68.2372   61.6722 H   0  0  0  0  0  0  0  0  0  0  0  0
    3.5076   67.2473   61.4350 H   0  0  0  0  0  0  0  0  0  0  0  0
    3.2454   66.8726   64.1680 H   0  0  0  0  0  0  0  0  0  0  0  0
    4.3355   65.9633   63.0089 H   0  0  0  0  0  0  0  0  0  0  0  0
    5.3655   66.8468   65.2107 H   0  0  0  0  0  0  0  0  0  0  0  0
    6.2365   67.1359   63.6733 H   0  0  0  0  0  0  0  0  0  0  0  0
    6.8960   68.4916   65.7913 H   0  0  0  0  0  0  0  0  0  0  0  0
    6.7832   70.1766   65.1132 H   0  0  0  0  0  0  0  0  0  0  0  0
    3.7565   71.1268   69.9964 H   0  0  0  0  0  0  0  0  0  0  0  0
    6.2190   71.4109   69.7359 H   0  0  0  0  0  0  0  0  0  0  0  0
    7.3645   70.5717   67.6888 H   0  0  0  0  0  0  0  0  0  0  0  0
    3.5727   69.1390   66.1670 H   0  0  0  0  0  0  0  0  0  0  0  0
    2.4382   69.9837   68.2171 H   0  0  0  0  0  0  0  0  0  0  0  0
    2.6406   69.6571   62.9541 H   0  0  0  0  0  0  0  0  0  0  0  0
    1.8274   68.6931   61.6372 H   0  0  0  0  0  0  0  0  0  0  0  0
    0.4340   68.1254   63.3396 H   0  0  0  0  0  0  0  0  0  0  0  0
    1.7286   66.8921   63.6280 H   0  0  0  0  0  0  0  0  0  0  0  0
    2.7499   68.2925   65.3346 H   0  0  0  0  0  0  0  0  0  0  0  0
    1.5516   69.6115   64.9931 H   0  0  0  0  0  0  0  0  0  0  0  0
   -1.4108   69.3728   64.5170 H   0  0  0  0  0  0  0  0  0  0  0  0
   -3.7789   69.1389   65.3124 H   0  0  0  0  0  0  0  0  0  0  0  0
   -4.3200   67.7609   67.3006 H   0  0  0  0  0  0  0  0  0  0  0  0
   -2.5013   66.5589   68.5642 H   0  0  0  0  0  0  0  0  0  0  0  0
  2  1  1  0
  3  2  1  0
  4  3  1  0
  5  4  1  0
  6  5  1  0
  6  1  1  0
  7  1  1  0
  9  8  2  0
 10  9  1  0
 11 10  2  0
 11  7  1  0
 12 11  1  0
 13  8  1  0
 13 12  2  0
 14  4  1  0
 15 14  1  0
 16 15  1  0
 17 16  1  0
 18 17  2  0
 19 18  1  0
 20 19  1  0
 21 20  2  0
 21 17  1  0
 22 21  1  0
 23 22  2  0
 24 23  1  0
 25 24  2  0
 25 20  1  0
  1 26  1  0
  2 27  1  0
  2 28  1  0
  3 29  1  0
  3 30  1  0
  4 31  1  0
  5 32  1  0
  5 33  1  0
  6 34  1  0
  6 35  1  0
  7 36  1  0
  7 37  1  0
  8 38  1  0
  9 39  1  0
 10 40  1  0
 12 41  1  0
 13 42  1  0
 14 43  1  0
 14 44  1  0
 15 45  1  0
 15 46  1  0
 16 47  1  0
 16 48  1  0
 22 49  1  0
 23 50  1  0
 24 51  1  0
 25 52  1  0
M  CHG  1   1   1
M  END
>  <score>  (2) 
-9.752

$$$$
=
     RDKit          3D

 52 55  0  0  0  0  0  0  0  0999 V2000
    0.9300   65.6890   69.6140 N   0  0  0  0  0  4  0  0  0  0  0  0
   -0.4940   65.7380   69.1070 C   0  0  0  0  0  0  0  0  0  0  0  0
   -0.8450   67.1170   68.5520 C   0  0  0  0  0  0  0  0  0  0  0  0
    0.3210   67.8230   67.8480 C   0  0  0  0  0  0  0  0  0  0  0  0
    1.5380   67.9270   68.7930 C   0  0  0  0  0  0  0  0  0  0  0  0
    1.4490   67.0350   70.0290 C   0  0  0  0  0  0  0  0  0  0  0  0
    1.1370   64.6370   70.6830 C   0  0  0  0  0  0  0  0  0  0  0  0
    4.3590   61.9590   69.6770 C   0  0  0  0  0  0  0  0  0  0  0  0
    3.0560   61.6580   69.2860 C   0  0  0  0  0  0  0  0  0  0  0  0
    2.0090   62.5170   69.6200 C   0  0  0  0  0  0  0  0  0  0  0  0
    2.2560   63.6880   70.3520 C   0  0  0  0  0  0  0  0  0  0  0  0
    3.5730   63.9780   70.7460 C   0  0  0  0  0  0  0  0  0  0  0  0
    4.6170   63.1160   70.4080 C   0  0  0  0  0  0  0  0  0  0  0  0
    0.6520   67.1320   66.5060 C   0  0  0  0  0  0  0  0  0  0  0  0
    2.1010   67.3530   66.0570 C   0  0  0  0  0  0  0  0  0  0  0  0
    2.3450   68.8100   65.6490 C   0  0  0  0  0  0  0  0  0  0  0  0
    3.7660   69.2100   65.8400 C   0  0  0  0  0  0  0  0  0  0  0  0
    4.6430   69.0170   64.8440 N   0  0  0  0  0  0  0  0  0  0  0  0
    5.8600   69.4780   65.3250 O   0  0  0  0  0  0  0  0  0  0  0  0
    5.7030   69.9380   66.5950 C   0  0  0  0  0  0  0  0  0  0  0  0
    4.3810   69.7910   66.9770 C   0  0  0  0  0  0  0  0  0  0  0  0
    3.9990   70.2050   68.2650 C   0  0  0  0  0  0  0  0  0  0  0  0
    4.9790   70.7530   69.1070 C   0  0  0  0  0  0  0  0  0  0  0  0
    6.3050   70.8860   68.6810 C   0  0  0  0  0  0  0  0  0  0  0  0
    6.7000   70.4780   67.4030 C   0  0  0  0  0  0  0  0  0  0  0  0
    1.5015   65.3974   68.8082 H   0  0  0  0  0  0  0  0  0  0  0  0
   -0.6150   64.9905   68.3091 H   0  0  0  0  0  0  0  0  0  0  0  0
   -1.1674   65.5244   69.9501 H   0  0  0  0  0  0  0  0  0  0  0  0
   -1.6655   66.9999   67.8288 H   0  0  0  0  0  0  0  0  0  0  0  0
   -1.1235   67.7440   69.4118 H   0  0  0  0  0  0  0  0  0  0  0  0
    0.0241   68.8527   67.5999 H   0  0  0  0  0  0  0  0  0  0  0  0
    2.4386   67.6446   68.2280 H   0  0  0  0  0  0  0  0  0  0  0  0
    1.5696   68.9655   69.1544 H   0  0  0  0  0  0  0  0  0  0  0  0
    2.4469   66.9246   70.4785 H   0  0  0  0  0  0  0  0  0  0  0  0
    0.7718   67.4862   70.7692 H   0  0  0  0  0  0  0  0  0  0  0  0
    1.3716   65.1408   71.6323 H   0  0  0  0  0  0  0  0  0  0  0  0
    0.2108   64.0479   70.7543 H   0  0  0  0  0  0  0  0  0  0  0  0
    5.1839   61.2828   69.4083 H   0  0  0  0  0  0  0  0  0  0  0  0
    2.8526   60.7414   68.7129 H   0  0  0  0  0  0  0  0  0  0  0  0
    0.9826   62.2746   69.3073 H   0  0  0  0  0  0  0  0  0  0  0  0
    3.7824   64.8900   71.3243 H   0  0  0  0  0  0  0  0  0  0  0  0
    5.6455   63.3507   70.7195 H   0  0  0  0  0  0  0  0  0  0  0  0
    0.4810   66.0511   66.6173 H   0  0  0  0  0  0  0  0  0  0  0  0
   -0.0002   67.5754   65.7392 H   0  0  0  0  0  0  0  0  0  0  0  0
    2.7758   67.0961   66.8869 H   0  0  0  0  0  0  0  0  0  0  0  0
    2.2939   66.7125   65.1838 H   0  0  0  0  0  0  0  0  0  0  0  0
    2.0811   68.9310   64.5880 H   0  0  0  0  0  0  0  0  0  0  0  0
    1.7215   69.4519   66.2887 H   0  0  0  0  0  0  0  0  0  0  0  0
    2.9578   70.1020   68.6045 H   0  0  0  0  0  0  0  0  0  0  0  0
    4.7000   71.0834   70.1184 H   0  0  0  0  0  0  0  0  0  0  0  0
    7.0505   71.3195   69.3638 H   0  0  0  0  0  0  0  0  0  0  0  0
    7.7390   70.5780   67.0560 H   0  0  0  0  0  0  0  0  0  0  0  0
  2  1  1  0
  3  2  1  0
  4  3  1  0
  5  4  1  0
  6  5  1  0
  6  1  1  0
  7  1  1  0
  9  8  2  0
 10  9  1  0
 11 10  2  0
 11  7  1  0
 12 11  1  0
 13  8  1  0
 13 12  2  0
 14  4  1  0
 15 14  1  0
 16 15  1  0
 17 16  1  0
 18 17  2  0
 19 18  1  0
 20 19  1  0
 21 20  2  0
 21 17  1  0
 22 21  1  0
 23 22  2  0
 24 23  1  0
 25 24  2  0
 25 20  1  0
  1 26  1  0
  2 27  1  0
  2 28  1  0
  3 29  1  0
  3 30  1  0
  4 31  1  0
  5 32  1  0
  5 33  1  0
  6 34  1  0
  6 35  1  0
  7 36  1  0
  7 37  1  0
  8 38  1  0
  9 39  1  0
 10 40  1  0
 12 41  1  0
 13 42  1  0
 14 43  1  0
 14 44  1  0
 15 45  1  0
 15 46  1  0
 16 47  1  0
 16 48  1  0
 22 49  1  0
 23 50  1  0
 24 51  1  0
 25 52  1  0
M  CHG  1   1   1
M  END
>  <score>  (3) 
-9.681

$$$$
=
     RDKit          3D

 52 55  0  0  0  0  0  0  0  0999 V2000
    2.7090   68.7950   66.7700 N   0  0  0  0  0  4  0  0  0  0  0  0
    1.7810   69.6880   67.5620 C   0  0  0  0  0  0  0  0  0  0  0  0
    0.3680   69.1110   67.6290 C   0  0  0  0  0  0  0  0  0  0  0  0
    0.3210   67.5800   67.7000 C   0  0  0  0  0  0  0  0  0  0  0  0
    1.0890   66.9600   66.5120 C   0  0  0  0  0  0  0  0  0  0  0  0
    1.9860   67.9450   65.7660 C   0  0  0  0  0  0  0  0  0  0  0  0
    3.8700   69.5500   66.1580 C   0  0  0  0  0  0  0  0  0  0  0  0
    6.7390   70.8910   69.0800 C   0  0  0  0  0  0  0  0  0  0  0  0
    7.1620   70.5340   67.8020 C   0  0  0  0  0  0  0  0  0  0  0  0
    6.2380   70.0880   66.8570 C   0  0  0  0  0  0  0  0  0  0  0  0
    4.8760   69.9940   67.1840 C   0  0  0  0  0  0  0  0  0  0  0  0
    4.4620   70.3530   68.4780 C   0  0  0  0  0  0  0  0  0  0  0  0
    5.3910   70.7980   69.4180 C   0  0  0  0  0  0  0  0  0  0  0  0
    0.8210   67.0780   69.0730 C   0  0  0  0  0  0  0  0  0  0  0  0
   -0.1100   66.0380   69.7090 C   0  0  0  0  0  0  0  0  0  0  0  0
    0.3340   65.6850   71.1330 C   0  0  0  0  0  0  0  0  0  0  0  0
    0.7060   64.2490   71.2590 C   0  0  0  0  0  0  0  0  0  0  0  0
   -0.1770   63.3840   71.7780 N   0  0  0  0  0  0  0  0  0  0  0  0
    0.4570   62.1510   71.7650 O   0  0  0  0  0  0  0  0  0  0  0  0
    1.7070   62.2870   71.2450 C   0  0  0  0  0  0  0  0  0  0  0  0
    1.9200   63.6110   70.9030 C   0  0  0  0  0  0  0  0  0  0  0  0
    3.1580   63.9740   70.3450 C   0  0  0  0  0  0  0  0  0  0  0  0
    4.1240   62.9730   70.1580 C   0  0  0  0  0  0  0  0  0  0  0  0
    3.8680   61.6460   70.5150 C   0  0  0  0  0  0  0  0  0  0  0  0
    2.6410   61.2690   71.0720 C   0  0  0  0  0  0  0  0  0  0  0  0
    3.1185   68.1432   67.4544 H   0  0  0  0  0  0  0  0  0  0  0  0
    2.1728   69.7929   68.5845 H   0  0  0  0  0  0  0  0  0  0  0  0
    1.7306   70.6649   67.0589 H   0  0  0  0  0  0  0  0  0  0  0  0
   -0.1278   69.5140   68.5244 H   0  0  0  0  0  0  0  0  0  0  0  0
   -0.1384   69.4015   66.6967 H   0  0  0  0  0  0  0  0  0  0  0  0
   -0.7233   67.2463   67.6102 H   0  0  0  0  0  0  0  0  0  0  0  0
    1.7177   66.1431   66.8959 H   0  0  0  0  0  0  0  0  0  0  0  0
    0.3328   66.6128   65.7926 H   0  0  0  0  0  0  0  0  0  0  0  0
    2.7154   67.3921   65.1558 H   0  0  0  0  0  0  0  0  0  0  0  0
    1.3767   68.5809   65.1069 H   0  0  0  0  0  0  0  0  0  0  0  0
    4.3731   68.8945   65.4319 H   0  0  0  0  0  0  0  0  0  0  0  0
    3.4643   70.4522   65.6768 H   0  0  0  0  0  0  0  0  0  0  0  0
    7.4691   71.2462   69.8221 H   0  0  0  0  0  0  0  0  0  0  0  0
    8.2274   70.6039   67.5372 H   0  0  0  0  0  0  0  0  0  0  0  0
    6.5787   69.8082   65.8492 H   0  0  0  0  0  0  0  0  0  0  0  0
    3.3988   70.2826   68.7511 H   0  0  0  0  0  0  0  0  0  0  0  0
    5.0584   71.0763   70.4289 H   0  0  0  0  0  0  0  0  0  0  0  0
    1.8139   66.6237   68.9393 H   0  0  0  0  0  0  0  0  0  0  0  0
    0.8527   67.9461   69.7479 H   0  0  0  0  0  0  0  0  0  0  0  0
   -1.1311   66.4456   69.7434 H   0  0  0  0  0  0  0  0  0  0  0  0
   -0.0746   65.1233   69.0990 H   0  0  0  0  0  0  0  0  0  0  0  0
    1.2052   66.3025   71.3972 H   0  0  0  0  0  0  0  0  0  0  0  0
   -0.5101   65.8791   71.8111 H   0  0  0  0  0  0  0  0  0  0  0  0
    3.3646   65.0167   70.0619 H   0  0  0  0  0  0  0  0  0  0  0  0
    5.0992   63.2373   69.7231 H   0  0  0  0  0  0  0  0  0  0  0  0
    4.6453   60.8842   70.3551 H   0  0  0  0  0  0  0  0  0  0  0  0
    2.4267   60.2283   71.3568 H   0  0  0  0  0  0  0  0  0  0  0  0
  2  1  1  0
  3  2  1  0
  4  3  1  0
  5  4  1  0
  6  5  1  0
  6  1  1  0
  7  1  1  0
  9  8  2  0
 10  9  1  0
 11 10  2  0
 11  7  1  0
 12 11  1  0
 13  8  1  0
 13 12  2  0
 14  4  1  0
 15 14  1  0
 16 15  1  0
 17 16  1  0
 18 17  2  0
 19 18  1  0
 20 19  1  0
 21 20  2  0
 21 17  1  0
 22 21  1  0
 23 22  2  0
 24 23  1  0
 25 24  2  0
 25 20  1  0
  1 26  1  0
  2 27  1  0
  2 28  1  0
  3 29  1  0
  3 30  1  0
  4 31  1  0
  5 32  1  0
  5 33  1  0
  6 34  1  0
  6 35  1  0
  7 36  1  0
  7 37  1  0
  8 38  1  0
  9 39  1  0
 10 40  1  0
 12 41  1  0
 13 42  1  0
 14 43  1  0
 14 44  1  0
 15 45  1  0
 15 46  1  0
 16 47  1  0
 16 48  1  0
 22 49  1  0
 23 50  1  0
 24 51  1  0
 25 52  1  0
M  CHG  1   1   1
M  END
>  <score>  (4) 
-9.635

$$$$
=
     RDKit          3D

 52 55  0  0  0  0  0  0  0  0999 V2000
    0.7680   68.1550   64.4190 N   0  0  0  0  0  4  0  0  0  0  0  0
   -0.4390   69.0660   64.3820 C   0  0  0  0  0  0  0  0  0  0  0  0
   -1.4330   68.7270   65.4920 C   0  0  0  0  0  0  0  0  0  0  0  0
   -0.7760   68.2560   66.7960 C   0  0  0  0  0  0  0  0  0  0  0  0
    0.1510   67.0500   66.5290 C   0  0  0  0  0  0  0  0  0  0  0  0
    0.4780   66.8270   65.0550 C   0  0  0  0  0  0  0  0  0  0  0  0
    1.4390   68.0150   63.0690 C   0  0  0  0  0  0  0  0  0  0  0  0
    5.5200   69.3950   63.0720 C   0  0  0  0  0  0  0  0  0  0  0  0
    4.8500   69.2030   64.2770 C   0  0  0  0  0  0  0  0  0  0  0  0
    3.5240   68.7680   64.2800 C   0  0  0  0  0  0  0  0  0  0  0  0
    2.8550   68.5200   63.0710 C   0  0  0  0  0  0  0  0  0  0  0  0
    3.5410   68.7210   61.8620 C   0  0  0  0  0  0  0  0  0  0  0  0
    4.8660   69.1560   61.8650 C   0  0  0  0  0  0  0  0  0  0  0  0
   -0.0590   69.4280   67.5030 C   0  0  0  0  0  0  0  0  0  0  0  0
    1.2910   69.0280   68.1100 C   0  0  0  0  0  0  0  0  0  0  0  0
    2.4570   69.7010   67.3760 C   0  0  0  0  0  0  0  0  0  0  0  0
    3.5340   70.1220   68.3140 C   0  0  0  0  0  0  0  0  0  0  0  0
    3.2230   70.4200   69.5830 N   0  0  0  0  0  0  0  0  0  0  0  0
    4.4190   70.7740   70.1880 O   0  0  0  0  0  0  0  0  0  0  0  0
    5.4300   70.6890   69.2820 C   0  0  0  0  0  0  0  0  0  0  0  0
    4.9210   70.2750   68.0630 C   0  0  0  0  0  0  0  0  0  0  0  0
    5.8020   70.1220   66.9780 C   0  0  0  0  0  0  0  0  0  0  0  0
    7.1640   70.3950   67.1830 C   0  0  0  0  0  0  0  0  0  0  0  0
    7.6380   70.8090   68.4320 C   0  0  0  0  0  0  0  0  0  0  0  0
    6.7730   70.9670   69.5190 C   0  0  0  0  0  0  0  0  0  0  0  0
    1.4508   68.6224   65.0324 H   0  0  0  0  0  0  0  0  0  0  0  0
   -0.1050   70.1066   64.5073 H   0  0  0  0  0  0  0  0  0  0  0  0
   -0.9438   68.9296   63.4142 H   0  0  0  0  0  0  0  0  0  0  0  0
   -2.0282   69.6261   65.7097 H   0  0  0  0  0  0  0  0  0  0  0  0
   -2.0468   67.8911   65.1250 H   0  0  0  0  0  0  0  0  0  0  0  0
   -1.5558   67.9071   67.4890 H   0  0  0  0  0  0  0  0  0  0  0  0
    1.0943   67.2133   67.0708 H   0  0  0  0  0  0  0  0  0  0  0  0
   -0.3880   66.1547   66.8723 H   0  0  0  0  0  0  0  0  0  0  0  0
    1.3588   66.1741   64.9661 H   0  0  0  0  0  0  0  0  0  0  0  0
   -0.3746   66.3487   64.5507 H   0  0  0  0  0  0  0  0  0  0  0  0
    1.4448   66.9517   62.7872 H   0  0  0  0  0  0  0  0  0  0  0  0
    0.8700   68.6227   62.3500 H   0  0  0  0  0  0  0  0  0  0  0  0
    6.5660   69.7355   63.0726 H   0  0  0  0  0  0  0  0  0  0  0  0
    5.3669   69.3946   65.2289 H   0  0  0  0  0  0  0  0  0  0  0  0
    2.9998   68.6185   65.2355 H   0  0  0  0  0  0  0  0  0  0  0  0
    3.0296   68.5340   60.9062 H   0  0  0  0  0  0  0  0  0  0  0  0
    5.3955   69.3106   60.9133 H   0  0  0  0  0  0  0  0  0  0  0  0
    0.1109   70.2289   66.7684 H   0  0  0  0  0  0  0  0  0  0  0  0
   -0.7057   69.7579   68.3294 H   0  0  0  0  0  0  0  0  0  0  0  0
    1.3115   69.3306   69.1674 H   0  0  0  0  0  0  0  0  0  0  0  0
    1.4044   67.9382   68.0131 H   0  0  0  0  0  0  0  0  0  0  0  0
    2.8766   68.9908   66.6483 H   0  0  0  0  0  0  0  0  0  0  0  0
    2.0706   70.6005   66.8744 H   0  0  0  0  0  0  0  0  0  0  0  0
    5.4337   69.7968   65.9938 H   0  0  0  0  0  0  0  0  0  0  0  0
    7.8701   70.2813   66.3472 H   0  0  0  0  0  0  0  0  0  0  0  0
    8.7109   71.0140   68.5615 H   0  0  0  0  0  0  0  0  0  0  0  0
    7.1336   71.2927   70.5059 H   0  0  0  0  0  0  0  0  0  0  0  0
  2  1  1  0
  3  2  1  0
  4  3  1  0
  5  4  1  0
  6  5  1  0
  6  1  1  0
  7  1  1  0
  9  8  2  0
 10  9  1  0
 11 10  2  0
 11  7  1  0
 12 11  1  0
 13  8  1  0
 13 12  2  0
 14  4  1  0
 15 14  1  0
 16 15  1  0
 17 16  1  0
 18 17  2  0
 19 18  1  0
 20 19  1  0
 21 20  2  0
 21 17  1  0
 22 21  1  0
 23 22  2  0
 24 23  1  0
 25 24  2  0
 25 20  1  0
  1 26  1  0
  2 27  1  0
  2 28  1  0
  3 29  1  0
  3 30  1  0
  4 31  1  0
  5 32  1  0
  5 33  1  0
  6 34  1  0
  6 35  1  0
  7 36  1  0
  7 37  1  0
  8 38  1  0
  9 39  1  0
 10 40  1  0
 12 41  1  0
 13 42  1  0
 14 43  1  0
 14 44  1  0
 15 45  1  0
 15 46  1  0
 16 47  1  0
 16 48  1  0
 22 49  1  0
 23 50  1  0
 24 51  1  0
 25 52  1  0
M  CHG  1   1   1
M  END
>  <score>  (5) 
-9.271

$$$$
=
     RDKit          3D

 52 55  0  0  0  0  0  0  0  0999 V2000
    2.7800   68.8630   66.9730 N   0  0  0  0  0  4  0  0  0  0  0  0
    1.7170   69.6960   67.6540 C   0  0  0  0  0  0  0  0  0  0  0  0
    0.3850   68.9530   67.7300 C   0  0  0  0  0  0  0  0  0  0  0  0
    0.5250   67.4390   67.9340 C   0  0  0  0  0  0  0  0  0  0  0  0
    1.4110   66.8240   66.8300 C   0  0  0  0  0  0  0  0  0  0  0  0
    2.2090   67.8480   66.0260 C   0  0  0  0  0  0  0  0  0  0  0  0
    3.8630   69.7050   66.3310 C   0  0  0  0  0  0  0  0  0  0  0  0
    6.9540   70.8780   69.0940 C   0  0  0  0  0  0  0  0  0  0  0  0
    7.2820   70.5570   67.7790 C   0  0  0  0  0  0  0  0  0  0  0  0
    6.2850   70.1650   66.8840 C   0  0  0  0  0  0  0  0  0  0  0  0
    4.9470   70.0900   67.3000 C   0  0  0  0  0  0  0  0  0  0  0  0
    4.6300   70.4120   68.6300 C   0  0  0  0  0  0  0  0  0  0  0  0
    5.6300   70.8030   69.5200 C   0  0  0  0  0  0  0  0  0  0  0  0
    1.0260   67.1210   69.3610 C   0  0  0  0  0  0  0  0  0  0  0  0
    0.4390   65.8250   69.9310 C   0  0  0  0  0  0  0  0  0  0  0  0
    1.5300   64.9320   70.5330 C   0  0  0  0  0  0  0  0  0  0  0  0
    0.9600   63.8780   71.4170 C   0  0  0  0  0  0  0  0  0  0  0  0
   -0.0950   64.1690   72.1910 N   0  0  0  0  0  0  0  0  0  0  0  0
   -0.3800   63.0040   72.8860 O   0  0  0  0  0  0  0  0  0  0  0  0
    0.5020   62.0320   72.5270 C   0  0  0  0  0  0  0  0  0  0  0  0
    1.3840   62.5360   71.5880 C   0  0  0  0  0  0  0  0  0  0  0  0
    2.3870   61.6930   71.0800 C   0  0  0  0  0  0  0  0  0  0  0  0
    2.4460   60.3710   71.5490 C   0  0  0  0  0  0  0  0  0  0  0  0
    1.5340   59.9000   72.4980 C   0  0  0  0  0  0  0  0  0  0  0  0
    0.5310   60.7280   73.0130 C   0  0  0  0  0  0  0  0  0  0  0  0
    3.2378   68.3278   67.7246 H   0  0  0  0  0  0  0  0  0  0  0  0
    2.0507   69.9362   68.6743 H   0  0  0  0  0  0  0  0  0  0  0  0
    1.5671   70.6124   67.0642 H   0  0  0  0  0  0  0  0  0  0  0  0
   -0.1923   69.3634   68.5716 H   0  0  0  0  0  0  0  0  0  0  0  0
   -0.1158   69.0983   66.7615 H   0  0  0  0  0  0  0  0  0  0  0  0
   -0.4654   66.9693   67.8419 H   0  0  0  0  0  0  0  0  0  0  0  0
    2.1198   66.1288   67.3036 H   0  0  0  0  0  0  0  0  0  0  0  0
    0.7333   66.3244   66.1221 H   0  0  0  0  0  0  0  0  0  0  0  0
    3.0250   67.3425   65.4888 H   0  0  0  0  0  0  0  0  0  0  0  0
    1.5537   68.3440   65.2949 H   0  0  0  0  0  0  0  0  0  0  0  0
    4.3138   69.1313   65.5078 H   0  0  0  0  0  0  0  0  0  0  0  0
    3.3941   70.6323   65.9701 H   0  0  0  0  0  0  0  0  0  0  0  0
    7.7407   71.1908   69.7963 H   0  0  0  0  0  0  0  0  0  0  0  0
    8.3286   70.6125   67.4451 H   0  0  0  0  0  0  0  0  0  0  0  0
    6.5499   69.9134   65.8464 H   0  0  0  0  0  0  0  0  0  0  0  0
    3.5860   70.3554   68.9718 H   0  0  0  0  0  0  0  0  0  0  0  0
    5.3727   71.0525   70.5600 H   0  0  0  0  0  0  0  0  0  0  0  0
    2.1216   67.0266   69.3342 H   0  0  0  0  0  0  0  0  0  0  0  0
    0.6985   67.9436   70.0138 H   0  0  0  0  0  0  0  0  0  0  0  0
   -0.2898   66.0772   70.7154 H   0  0  0  0  0  0  0  0  0  0  0  0
   -0.0442   65.2744   69.1104 H   0  0  0  0  0  0  0  0  0  0  0  0
    2.0850   64.4486   69.7155 H   0  0  0  0  0  0  0  0  0  0  0  0
    2.1919   65.5658   71.1414 H   0  0  0  0  0  0  0  0  0  0  0  0
    3.1075   62.0595   70.3340 H   0  0  0  0  0  0  0  0  0  0  0  0
    3.2229   59.6945   71.1632 H   0  0  0  0  0  0  0  0  0  0  0  0
    1.6064   58.8591   72.8462 H   0  0  0  0  0  0  0  0  0  0  0  0
   -0.1932   60.3692   73.7592 H   0  0  0  0  0  0  0  0  0  0  0  0
  2  1  1  0
  3  2  1  0
  4  3  1  0
  5  4  1  0
  6  5  1  0
  6  1  1  0
  7  1  1  0
  9  8  2  0
 10  9  1  0
 11 10  2  0
 11  7  1  0
 12 11  1  0
 13  8  1  0
 13 12  2  0
 14  4  1  0
 15 14  1  0
 16 15  1  0
 17 16  1  0
 18 17  2  0
 19 18  1  0
 20 19  1  0
 21 20  2  0
 21 17  1  0
 22 21  1  0
 23 22  2  0
 24 23  1  0
 25 24  2  0
 25 20  1  0
  1 26  1  0
  2 27  1  0
  2 28  1  0
  3 29  1  0
  3 30  1  0
  4 31  1  0
  5 32  1  0
  5 33  1  0
  6 34  1  0
  6 35  1  0
  7 36  1  0
  7 37  1  0
  8 38  1  0
  9 39  1  0
 10 40  1  0
 12 41  1  0
 13 42  1  0
 14 43  1  0
 14 44  1  0
 15 45  1  0
 15 46  1  0
 16 47  1  0
 16 48  1  0
 22 49  1  0
 23 50  1  0
 24 51  1  0
 25 52  1  0
M  CHG  1   1   1
M  END
>  <score>  (6) 
-9.169

$$$$
=
     RDKit          3D

 52 55  0  0  0  0  0  0  0  0999 V2000
    2.7500   68.8500   66.9850 N   0  0  0  0  0  4  0  0  0  0  0  0
    1.6520   69.6420   67.6590 C   0  0  0  0  0  0  0  0  0  0  0  0
    0.3540   68.8400   67.7460 C   0  0  0  0  0  0  0  0  0  0  0  0
    0.5630   67.3370   67.9680 C   0  0  0  0  0  0  0  0  0  0  0  0
    1.4740   66.7490   66.8690 C   0  0  0  0  0  0  0  0  0  0  0  0
    2.2250   67.7980   66.0520 C   0  0  0  0  0  0  0  0  0  0  0  0
    3.7930   69.7320   66.3310 C   0  0  0  0  0  0  0  0  0  0  0  0
    6.9200   70.8450   69.0790 C   0  0  0  0  0  0  0  0  0  0  0  0
    5.5890   70.8800   69.4880 C   0  0  0  0  0  0  0  0  0  0  0  0
    4.5730   70.5310   68.5980 C   0  0  0  0  0  0  0  0  0  0  0  0
    4.8810   70.1450   67.2840 C   0  0  0  0  0  0  0  0  0  0  0  0
    6.2270   70.1180   66.8820 C   0  0  0  0  0  0  0  0  0  0  0  0
    7.2380   70.4670   67.7760 C   0  0  0  0  0  0  0  0  0  0  0  0
    1.0800   67.0600   69.3980 C   0  0  0  0  0  0  0  0  0  0  0  0
    0.8130   65.6250   69.8670 C   0  0  0  0  0  0  0  0  0  0  0  0
    2.0030   65.0600   70.6510 C   0  0  0  0  0  0  0  0  0  0  0  0
    2.5020   63.7870   70.0630 C   0  0  0  0  0  0  0  0  0  0  0  0
    2.9940   63.7860   68.8160 N   0  0  0  0  0  0  0  0  0  0  0  0
    3.3640   62.4740   68.5610 O   0  0  0  0  0  0  0  0  0  0  0  0
    3.0910   61.7050   69.6490 C   0  0  0  0  0  0  0  0  0  0  0  0
    2.5370   62.4940   70.6420 C   0  0  0  0  0  0  0  0  0  0  0  0
    2.1760   61.8930   71.8610 C   0  0  0  0  0  0  0  0  0  0  0  0
    2.3960   60.5160   72.0160 C   0  0  0  0  0  0  0  0  0  0  0  0
    2.9600   59.7540   70.9870 C   0  0  0  0  0  0  0  0  0  0  0  0
    3.3230   60.3380   69.7690 C   0  0  0  0  0  0  0  0  0  0  0  0
    3.2323   68.3452   67.7422 H   0  0  0  0  0  0  0  0  0  0  0  0
    1.9762   69.9083   68.6758 H   0  0  0  0  0  0  0  0  0  0  0  0
    1.4602   70.5442   67.0597 H   0  0  0  0  0  0  0  0  0  0  0  0
   -0.2405   69.2339   68.5835 H   0  0  0  0  0  0  0  0  0  0  0  0
   -0.1541   68.9509   66.7767 H   0  0  0  0  0  0  0  0  0  0  0  0
   -0.4050   66.8213   67.8838 H   0  0  0  0  0  0  0  0  0  0  0  0
    2.2134   66.0912   67.3491 H   0  0  0  0  0  0  0  0  0  0  0  0
    0.8180   66.2121   66.1680 H   0  0  0  0  0  0  0  0  0  0  0  0
    3.0629   67.3230   65.5207 H   0  0  0  0  0  0  0  0  0  0  0  0
    1.5475   68.2548   65.3156 H   0  0  0  0  0  0  0  0  0  0  0  0
    4.2475   69.1798   65.4953 H   0  0  0  0  0  0  0  0  0  0  0  0
    3.2875   70.6461   65.9860 H   0  0  0  0  0  0  0  0  0  0  0  0
    7.7197   71.1156   69.7842 H   0  0  0  0  0  0  0  0  0  0  0  0
    5.3384   71.1835   70.5152 H   0  0  0  0  0  0  0  0  0  0  0  0
    3.5240   70.5585   68.9280 H   0  0  0  0  0  0  0  0  0  0  0  0
    6.4847   69.8195   65.8551 H   0  0  0  0  0  0  0  0  0  0  0  0
    8.2890   70.4440   67.4522 H   0  0  0  0  0  0  0  0  0  0  0  0
    2.1652   67.2388   69.4186 H   0  0  0  0  0  0  0  0  0  0  0  0
    0.5384   67.7334   70.0786 H   0  0  0  0  0  0  0  0  0  0  0  0
   -0.0763   65.6201   70.5143 H   0  0  0  0  0  0  0  0  0  0  0  0
    0.6543   64.9954   68.9791 H   0  0  0  0  0  0  0  0  0  0  0  0
    2.8177   65.7991   70.6421 H   0  0  0  0  0  0  0  0  0  0  0  0
    1.6667   64.8522   71.6775 H   0  0  0  0  0  0  0  0  0  0  0  0
    1.7321   62.4877   72.6729 H   0  0  0  0  0  0  0  0  0  0  0  0
    2.1205   60.0274   72.9622 H   0  0  0  0  0  0  0  0  0  0  0  0
    3.1208   58.6764   71.1386 H   0  0  0  0  0  0  0  0  0  0  0  0
    3.7668   59.7500   68.9521 H   0  0  0  0  0  0  0  0  0  0  0  0
  2  1  1  0
  3  2  1  0
  4  3  1  0
  5  4  1  0
  6  5  1  0
  6  1  1  0
  7  1  1  0
  9  8  2  0
 10  9  1  0
 11 10  2  0
 11  7  1  0
 12 11  1  0
 13  8  1  0
 13 12  2  0
 14  4  1  0
 15 14  1  0
 16 15  1  0
 17 16  1  0
 18 17  2  0
 19 18  1  0
 20 19  1  0
 21 20  2  0
 21 17  1  0
 22 21  1  0
 23 22  2  0
 24 23  1  0
 25 24  2  0
 25 20  1  0
  1 26  1  0
  2 27  1  0
  2 28  1  0
  3 29  1  0
  3 30  1  0
  4 31  1  0
  5 32  1  0
  5 33  1  0
  6 34  1  0
  6 35  1  0
  7 36  1  0
  7 37  1  0
  8 38  1  0
  9 39  1  0
 10 40  1  0
 12 41  1  0
 13 42  1  0
 14 43  1  0
 14 44  1  0
 15 45  1  0
 15 46  1  0
 16 47  1  0
 16 48  1  0
 22 49  1  0
 23 50  1  0
 24 51  1  0
 25 52  1  0
M  CHG  1   1   1
M  END
>  <score>  (7) 
-9.142

$$$$
=
     RDKit          3D

 52 55  0  0  0  0  0  0  0  0999 V2000
    1.4110   63.5780   69.8900 N   0  0  0  0  0  4  0  0  0  0  0  0
    0.1400   63.6620   70.7050 C   0  0  0  0  0  0  0  0  0  0  0  0
   -0.0100   65.0280   71.3730 C   0  0  0  0  0  0  0  0  0  0  0  0
    0.5310   66.1950   70.5380 C   0  0  0  0  0  0  0  0  0  0  0  0
    2.0070   65.9500   70.1590 C   0  0  0  0  0  0  0  0  0  0  0  0
    2.4800   64.5140   70.3760 C   0  0  0  0  0  0  0  0  0  0  0  0
    1.9160   62.1590   69.7340 C   0  0  0  0  0  0  0  0  0  0  0  0
    4.9760   61.0970   72.5750 C   0  0  0  0  0  0  0  0  0  0  0  0
    3.6580   61.2520   72.9980 C   0  0  0  0  0  0  0  0  0  0  0  0
    2.6660   61.6080   72.0830 C   0  0  0  0  0  0  0  0  0  0  0  0
    2.9860   61.8120   70.7320 C   0  0  0  0  0  0  0  0  0  0  0  0
    4.3200   61.6570   70.3190 C   0  0  0  0  0  0  0  0  0  0  0  0
    5.3070   61.3020   71.2380 C   0  0  0  0  0  0  0  0  0  0  0  0
   -0.3740   66.4580   69.3130 C   0  0  0  0  0  0  0  0  0  0  0  0
    0.4160   66.7810   68.0390 C   0  0  0  0  0  0  0  0  0  0  0  0
    0.4860   68.2920   67.7910 C   0  0  0  0  0  0  0  0  0  0  0  0
    1.7770   68.6930   67.1670 C   0  0  0  0  0  0  0  0  0  0  0  0
    2.0180   68.3700   65.8880 N   0  0  0  0  0  0  0  0  0  0  0  0
    3.2810   68.8700   65.6090 O   0  0  0  0  0  0  0  0  0  0  0  0
    3.7830   69.4820   66.7140 C   0  0  0  0  0  0  0  0  0  0  0  0
    2.8620   69.3990   67.7440 C   0  0  0  0  0  0  0  0  0  0  0  0
    3.1830   69.9720   68.9870 C   0  0  0  0  0  0  0  0  0  0  0  0
    4.4290   70.6040   69.1270 C   0  0  0  0  0  0  0  0  0  0  0  0
    5.3310   70.6670   68.0600 C   0  0  0  0  0  0  0  0  0  0  0  0
    5.0250   70.1020   66.8180 C   0  0  0  0  0  0  0  0  0  0  0  0
    1.1562   63.8993   68.9451 H   0  0  0  0  0  0  0  0  0  0  0  0
   -0.7212   63.4923   70.0420 H   0  0  0  0  0  0  0  0  0  0  0  0
    0.1854   62.8963   71.4935 H   0  0  0  0  0  0  0  0  0  0  0  0
   -1.0791   65.2047   71.5621 H   0  0  0  0  0  0  0  0  0  0  0  0
    0.5849   64.9964   72.2977 H   0  0  0  0  0  0  0  0  0  0  0  0
    0.5090   67.1135   71.1429 H   0  0  0  0  0  0  0  0  0  0  0  0
    2.1356   66.1983   69.0951 H   0  0  0  0  0  0  0  0  0  0  0  0
    2.6128   66.5855   70.8217 H   0  0  0  0  0  0  0  0  0  0  0  0
    3.4085   64.3406   69.8122 H   0  0  0  0  0  0  0  0  0  0  0  0
    2.6739   64.3400   71.4447 H   0  0  0  0  0  0  0  0  0  0  0  0
    1.0711   61.4677   69.8690 H   0  0  0  0  0  0  0  0  0  0  0  0
    2.3564   62.0710   68.7299 H   0  0  0  0  0  0  0  0  0  0  0  0
    5.7555   60.8126   73.2972 H   0  0  0  0  0  0  0  0  0  0  0  0
    3.3985   61.0935   74.0551 H   0  0  0  0  0  0  0  0  0  0  0  0
    1.6269   61.7294   72.4230 H   0  0  0  0  0  0  0  0  0  0  0  0
    4.5875   61.8167   69.2641 H   0  0  0  0  0  0  0  0  0  0  0  0
    6.3490   61.1837   70.9061 H   0  0  0  0  0  0  0  0  0  0  0  0
   -0.9833   65.5608   69.1290 H   0  0  0  0  0  0  0  0  0  0  0  0
   -0.9937   67.3365   69.5459 H   0  0  0  0  0  0  0  0  0  0  0  0
    1.4381   66.3878   68.1426 H   0  0  0  0  0  0  0  0  0  0  0  0
   -0.0979   66.3141   67.1858 H   0  0  0  0  0  0  0  0  0  0  0  0
   -0.3375   68.5810   67.1215 H   0  0  0  0  0  0  0  0  0  0  0  0
    0.4044   68.8011   68.7627 H   0  0  0  0  0  0  0  0  0  0  0  0
    2.4760   69.9264   69.8285 H   0  0  0  0  0  0  0  0  0  0  0  0
    4.7002   71.0571   70.0919 H   0  0  0  0  0  0  0  0  0  0  0  0
    6.2990   71.1703   68.2004 H   0  0  0  0  0  0  0  0  0  0  0  0
    5.7259   70.1450   65.9713 H   0  0  0  0  0  0  0  0  0  0  0  0
  2  1  1  0
  3  2  1  0
  4  3  1  0
  5  4  1  0
  6  5  1  0
  6  1  1  0
  7  1  1  0
  9  8  2  0
 10  9  1  0
 11 10  2  0
 11  7  1  0
 12 11  1  0
 13  8  1  0
 13 12  2  0
 14  4  1  0
 15 14  1  0
 16 15  1  0
 17 16  1  0
 18 17  2  0
 19 18  1  0
 20 19  1  0
 21 20  2  0
 21 17  1  0
 22 21  1  0
 23 22  2  0
 24 23  1  0
 25 24  2  0
 25 20  1  0
  1 26  1  0
  2 27  1  0
  2 28  1  0
  3 29  1  0
  3 30  1  0
  4 31  1  0
  5 32  1  0
  5 33  1  0
  6 34  1  0
  6 35  1  0
  7 36  1  0
  7 37  1  0
  8 38  1  0
  9 39  1  0
 10 40  1  0
 12 41  1  0
 13 42  1  0
 14 43  1  0
 14 44  1  0
 15 45  1  0
 15 46  1  0
 16 47  1  0
 16 48  1  0
 22 49  1  0
 23 50  1  0
 24 51  1  0
 25 52  1  0
M  CHG  1   1   1
M  END
>  <score>  (8) 
-9.064

$$$$
=
     RDKit          3D

 52 55  0  0  0  0  0  0  0  0999 V2000
    3.4860   60.9200   71.0160 N   0  0  0  0  0  4  0  0  0  0  0  0
    4.5050   61.8880   71.5730 C   0  0  0  0  0  0  0  0  0  0  0  0
    4.7470   63.0590   70.6220 C   0  0  0  0  0  0  0  0  0  0  0  0
    3.4990   63.5060   69.8510 C   0  0  0  0  0  0  0  0  0  0  0  0
    2.8840   62.3170   69.0820 C   0  0  0  0  0  0  0  0  0  0  0  0
    3.4090   60.9510   69.5170 C   0  0  0  0  0  0  0  0  0  0  0  0
    3.6530   59.5160   71.5560 C   0  0  0  0  0  0  0  0  0  0  0  0
    0.1700   58.1510   73.6940 C   0  0  0  0  0  0  0  0  0  0  0  0
    0.3420   59.5100   73.4400 C   0  0  0  0  0  0  0  0  0  0  0  0
    1.4750   59.9560   72.7580 C   0  0  0  0  0  0  0  0  0  0  0  0
    2.4490   59.0440   72.3240 C   0  0  0  0  0  0  0  0  0  0  0  0
    2.2660   57.6770   72.5910 C   0  0  0  0  0  0  0  0  0  0  0  0
    1.1320   57.2360   73.2730 C   0  0  0  0  0  0  0  0  0  0  0  0
    2.4930   64.2040   70.7940 C   0  0  0  0  0  0  0  0  0  0  0  0
    1.1040   64.3800   70.1680 C   0  0  0  0  0  0  0  0  0  0  0  0
    0.4720   65.7160   70.5740 C   0  0  0  0  0  0  0  0  0  0  0  0
    0.6320   66.7500   69.5150 C   0  0  0  0  0  0  0  0  0  0  0  0
    1.7700   67.4560   69.4530 N   0  0  0  0  0  0  0  0  0  0  0  0
    1.6120   68.3250   68.3840 O   0  0  0  0  0  0  0  0  0  0  0  0
    0.3880   68.1360   67.8210 C   0  0  0  0  0  0  0  0  0  0  0  0
   -0.2830   67.1390   68.5050 C   0  0  0  0  0  0  0  0  0  0  0  0
   -1.5770   66.7830   68.0860 C   0  0  0  0  0  0  0  0  0  0  0  0
   -2.1300   67.4580   66.9860 C   0  0  0  0  0  0  0  0  0  0  0  0
   -1.4170   68.4590   66.3200 C   0  0  0  0  0  0  0  0  0  0  0  0
   -0.1290   68.8240   66.7270 C   0  0  0  0  0  0  0  0  0  0  0  0
    2.5725   61.2524   71.3565 H   0  0  0  0  0  0  0  0  0  0  0  0
    4.1385   62.2784   72.5339 H   0  0  0  0  0  0  0  0  0  0  0  0
    5.4551   61.3495   71.7044 H   0  0  0  0  0  0  0  0  0  0  0  0
    5.1136   63.9126   71.2110 H   0  0  0  0  0  0  0  0  0  0  0  0
    5.4765   62.7153   69.8739 H   0  0  0  0  0  0  0  0  0  0  0  0
    3.7876   64.2536   69.0975 H   0  0  0  0  0  0  0  0  0  0  0  0
    1.7949   62.3329   69.2360 H   0  0  0  0  0  0  0  0  0  0  0  0
    3.1673   62.4429   68.0266 H   0  0  0  0  0  0  0  0  0  0  0  0
    2.7269   60.1631   69.1650 H   0  0  0  0  0  0  0  0  0  0  0  0
    4.4066   60.7785   69.0868 H   0  0  0  0  0  0  0  0  0  0  0  0
    3.8226   58.8317   70.7116 H   0  0  0  0  0  0  0  0  0  0  0  0
    4.5072   59.5253   72.2490 H   0  0  0  0  0  0  0  0  0  0  0  0
   -0.7260   57.8005   74.2273 H   0  0  0  0  0  0  0  0  0  0  0  0
   -0.4160   60.2322   73.7774 H   0  0  0  0  0  0  0  0  0  0  0  0
    1.6053   61.0300   72.5593 H   0  0  0  0  0  0  0  0  0  0  0  0
    3.0219   56.9496   72.2601 H   0  0  0  0  0  0  0  0  0  0  0  0
    0.9972   56.1638   73.4787 H   0  0  0  0  0  0  0  0  0  0  0  0
    2.3914   63.5991   71.7071 H   0  0  0  0  0  0  0  0  0  0  0  0
    2.8863   65.2089   71.0073 H   0  0  0  0  0  0  0  0  0  0  0  0
    1.1985   64.3472   69.0726 H   0  0  0  0  0  0  0  0  0  0  0  0
    0.4565   63.5673   70.5288 H   0  0  0  0  0  0  0  0  0  0  0  0
   -0.6009   65.5601   70.7596 H   0  0  0  0  0  0  0  0  0  0  0  0
    0.9831   66.0737   71.4800 H   0  0  0  0  0  0  0  0  0  0  0  0
   -2.1418   65.9957   68.6067 H   0  0  0  0  0  0  0  0  0  0  0  0
   -3.1413   67.1947   66.6426 H   0  0  0  0  0  0  0  0  0  0  0  0
   -1.8767   68.9689   65.4605 H   0  0  0  0  0  0  0  0  0  0  0  0
    0.4425   69.6100   66.2117 H   0  0  0  0  0  0  0  0  0  0  0  0
  2  1  1  0
  3  2  1  0
  4  3  1  0
  5  4  1  0
  6  5  1  0
  6  1  1  0
  7  1  1  0
  9  8  2  0
 10  9  1  0
 11 10  2  0
 11  7  1  0
 12 11  1  0
 13  8  1  0
 13 12  2  0
 14  4  1  0
 15 14  1  0
 16 15  1  0
 17 16  1  0
 18 17  2  0
 19 18  1  0
 20 19  1  0
 21 20  2  0
 21 17  1  0
 22 21  1  0
 23 22  2  0
 24 23  1  0
 25 24  2  0
 25 20  1  0
  1 26  1  0
  2 27  1  0
  2 28  1  0
  3 29  1  0
  3 30  1  0
  4 31  1  0
  5 32  1  0
  5 33  1  0
  6 34  1  0
  6 35  1  0
  7 36  1  0
  7 37  1  0
  8 38  1  0
  9 39  1  0
 10 40  1  0
 12 41  1  0
 13 42  1  0
 14 43  1  0
 14 44  1  0
 15 45  1  0
 15 46  1  0
 16 47  1  0
 16 48  1  0
 22 49  1  0
 23 50  1  0
 24 51  1  0
 25 52  1  0
M  CHG  1   1   1
M  END
>  <score>  (9) 
-9.017

$$$$
