=
     RDKit          3D

 29 31  0  0  0  0  0  0  0  0999 V2000
    3.1620   69.3550   66.2640 N   0  0  0  0  0  0  0  0  0  0  0  0
    4.4300   69.8110   66.6640 C   0  0  0  0  0  0  0  0  0  0  0  0
    5.5940   69.9080   65.9260 C   0  0  0  0  0  0  0  0  0  0  0  0
    6.7410   70.3970   66.5650 C   0  0  0  0  0  0  0  0  0  0  0  0
    6.7130   70.7790   67.9200 C   0  0  0  0  0  0  0  0  0  0  0  0
    5.5360   70.6780   68.6620 C   0  0  0  0  0  0  0  0  0  0  0  0
    4.4210   70.1920   68.0050 C   0  0  0  0  0  0  0  0  0  0  0  0
    3.0660   69.9790   68.5120 C   0  0  0  0  0  0  0  0  0  0  0  0
    2.6660   70.1880   69.6340 O   0  0  0  0  0  0  0  0  0  0  0  0
    2.2580   69.4280   67.3130 C   0  0  0  0  0  0  0  0  0  0  0  0
    1.0800   69.1440   67.3340 O   0  0  0  0  0  0  0  0  0  0  0  0
    2.8030   68.9340   64.9300 C   0  0  0  0  0  0  0  0  0  0  0  0
    4.6680   63.3280   63.6880 Cl  0  0  0  0  0  0  0  0  0  0  0  0
    4.1350   64.9250   64.0400 C   0  0  0  0  0  0  0  0  0  0  0  0
    4.8020   66.0160   63.4880 C   0  0  0  0  0  0  0  0  0  0  0  0
    4.3670   67.3120   63.7740 C   0  0  0  0  0  0  0  0  0  0  0  0
    3.2650   67.5280   64.6180 C   0  0  0  0  0  0  0  0  0  0  0  0
    2.5990   66.4170   65.1590 C   0  0  0  0  0  0  0  0  0  0  0  0
    3.0350   65.1200   64.8730 C   0  0  0  0  0  0  0  0  0  0  0  0
    5.6195   69.6100   64.8675 H   0  0  0  0  0  0  0  0  0  0  0  0
    7.6798   70.4840   65.9983 H   0  0  0  0  0  0  0  0  0  0  0  0
    7.6275   71.1605   68.3977 H   0  0  0  0  0  0  0  0  0  0  0  0
    5.4969   70.9716   69.7214 H   0  0  0  0  0  0  0  0  0  0  0  0
    1.7083   68.9750   64.8306 H   0  0  0  0  0  0  0  0  0  0  0  0
    3.3012   69.6125   64.2219 H   0  0  0  0  0  0  0  0  0  0  0  0
    5.6684   65.8575   62.8291 H   0  0  0  0  0  0  0  0  0  0  0  0
    4.8926   68.1723   63.3339 H   0  0  0  0  0  0  0  0  0  0  0  0
    1.7275   66.5682   65.8129 H   0  0  0  0  0  0  0  0  0  0  0  0
    2.5107   64.2548   65.3048 H   0  0  0  0  0  0  0  0  0  0  0  0
  2  1  1  0
  3  2  2  0
  4  3  1  0
  5  4  2  0
  6  5  1  0
  7  2  1  0
  7  6  2  0
  8  7  1  0
  9  8  2  0
 10  8  1  0
 10  1  1  0
 11 10  2  0
 12  1  1  0
 14 13  1  0
 15 14  2  0
 16 15  1  0
 17 16  2  0
 17 12  1  0
 18 17  1  0
 19 14  1  0
 19 18  2  0
  3 20  1  0
  4 21  1  0
  5 22  1  0
  6 23  1  0
 12 24  1  0
 12 25  1  0
 15 26  1  0
 16 27  1  0
 18 28  1  0
 19 29  1  0
M  END
>  <score>  (1) 
-9.806

$$$$
=
     RDKit          3D

 29 31  0  0  0  0  0  0  0  0999 V2000
    1.7440   68.9930   66.3070 N   0  0  0  0  0  0  0  0  0  0  0  0
    3.0800   69.3650   66.5350 C   0  0  0  0  0  0  0  0  0  0  0  0
    3.6380   69.9750   67.6420 C   0  0  0  0  0  0  0  0  0  0  0  0
    5.0120   70.2460   67.6220 C   0  0  0  0  0  0  0  0  0  0  0  0
    5.8050   69.9110   66.5070 C   0  0  0  0  0  0  0  0  0  0  0  0
    5.2380   69.2980   65.3910 C   0  0  0  0  0  0  0  0  0  0  0  0
    3.8810   69.0410   65.4390 C   0  0  0  0  0  0  0  0  0  0  0  0
    3.0190   68.4160   64.4370 C   0  0  0  0  0  0  0  0  0  0  0  0
    3.3470   68.0050   63.3480 O   0  0  0  0  0  0  0  0  0  0  0  0
    1.6040   68.3970   65.0630 C   0  0  0  0  0  0  0  0  0  0  0  0
    0.6120   67.9360   64.5380 O   0  0  0  0  0  0  0  0  0  0  0  0
    0.6600   69.1330   67.2500 C   0  0  0  0  0  0  0  0  0  0  0  0
    0.1870   64.4130   70.9840 Cl  0  0  0  0  0  0  0  0  0  0  0  0
    0.3230   65.7560   69.9180 C   0  0  0  0  0  0  0  0  0  0  0  0
    1.4600   66.5580   69.9560 C   0  0  0  0  0  0  0  0  0  0  0  0
    1.5700   67.6480   69.0890 C   0  0  0  0  0  0  0  0  0  0  0  0
    0.5400   67.9470   68.1810 C   0  0  0  0  0  0  0  0  0  0  0  0
   -0.5950   67.1230   68.1510 C   0  0  0  0  0  0  0  0  0  0  0  0
   -0.7050   66.0330   69.0190 C   0  0  0  0  0  0  0  0  0  0  0  0
    3.0213   70.2400   68.5134 H   0  0  0  0  0  0  0  0  0  0  0  0
    5.4801   70.7290   68.4924 H   0  0  0  0  0  0  0  0  0  0  0  0
    6.8818   70.1353   66.5172 H   0  0  0  0  0  0  0  0  0  0  0  0
    5.8431   69.0309   64.5121 H   0  0  0  0  0  0  0  0  0  0  0  0
    0.8320   70.0373   67.8523 H   0  0  0  0  0  0  0  0  0  0  0  0
   -0.2749   69.1997   66.6743 H   0  0  0  0  0  0  0  0  0  0  0  0
    2.2694   66.3343   70.6665 H   0  0  0  0  0  0  0  0  0  0  0  0
    2.4713   68.2780   69.1174 H   0  0  0  0  0  0  0  0  0  0  0  0
   -1.4052   67.3365   67.4383 H   0  0  0  0  0  0  0  0  0  0  0  0
   -1.6009   65.3954   68.9925 H   0  0  0  0  0  0  0  0  0  0  0  0
  2  1  1  0
  3  2  2  0
  4  3  1  0
  5  4  2  0
  6  5  1  0
  7  2  1  0
  7  6  2  0
  8  7  1  0
  9  8  2  0
 10  8  1  0
 10  1  1  0
 11 10  2  0
 12  1  1  0
 14 13  1  0
 15 14  2  0
 16 15  1  0
 17 16  2  0
 17 12  1  0
 18 17  1  0
 19 14  1  0
 19 18  2  0
  3 20  1  0
  4 21  1  0
  5 22  1  0
  6 23  1  0
 12 24  1  0
 12 25  1  0
 15 26  1  0
 16 27  1  0
 18 28  1  0
 19 29  1  0
M  END
>  <score>  (2) 
-9.084

$$$$
=
     RDKit          3D

 29 31  0  0  0  0  0  0  0  0999 V2000
    1.6180   68.6540   65.2870 N   0  0  0  0  0  0  0  0  0  0  0  0
    2.5320   69.1720   66.2210 C   0  0  0  0  0  0  0  0  0  0  0  0
    3.8940   69.3680   66.0910 C   0  0  0  0  0  0  0  0  0  0  0  0
    4.5890   69.9040   67.1830 C   0  0  0  0  0  0  0  0  0  0  0  0
    3.9240   70.2320   68.3810 C   0  0  0  0  0  0  0  0  0  0  0  0
    2.5500   70.0310   68.5080 C   0  0  0  0  0  0  0  0  0  0  0  0
    1.8900   69.5020   67.4150 C   0  0  0  0  0  0  0  0  0  0  0  0
    0.4720   69.1870   67.2510 C   0  0  0  0  0  0  0  0  0  0  0  0
   -0.4060   69.3290   68.0710 O   0  0  0  0  0  0  0  0  0  0  0  0
    0.3350   68.6320   65.8130 C   0  0  0  0  0  0  0  0  0  0  0  0
   -0.7020   68.2750   65.2970 O   0  0  0  0  0  0  0  0  0  0  0  0
    1.9310   68.2610   63.9340 C   0  0  0  0  0  0  0  0  0  0  0  0
    5.2750   63.2410   63.6790 Cl  0  0  0  0  0  0  0  0  0  0  0  0
    4.3240   64.6720   63.7540 C   0  0  0  0  0  0  0  0  0  0  0  0
    3.2490   64.7450   64.6360 C   0  0  0  0  0  0  0  0  0  0  0  0
    2.4780   65.9090   64.6960 C   0  0  0  0  0  0  0  0  0  0  0  0
    2.7740   67.0060   63.8700 C   0  0  0  0  0  0  0  0  0  0  0  0
    3.8660   66.9190   62.9930 C   0  0  0  0  0  0  0  0  0  0  0  0
    4.6360   65.7550   62.9340 C   0  0  0  0  0  0  0  0  0  0  0  0
    4.4167   69.1108   65.1579 H   0  0  0  0  0  0  0  0  0  0  0  0
    5.6732   70.0718   67.1036 H   0  0  0  0  0  0  0  0  0  0  0  0
    4.4938   70.6504   69.2237 H   0  0  0  0  0  0  0  0  0  0  0  0
    2.0156   70.2821   69.4361 H   0  0  0  0  0  0  0  0  0  0  0  0
    0.9901   68.0807   63.3934 H   0  0  0  0  0  0  0  0  0  0  0  0
    2.5129   69.0755   63.4779 H   0  0  0  0  0  0  0  0  0  0  0  0
    3.0074   63.8892   65.2835 H   0  0  0  0  0  0  0  0  0  0  0  0
    1.6317   65.9667   65.3963 H   0  0  0  0  0  0  0  0  0  0  0  0
    4.1174   67.7734   62.3474 H   0  0  0  0  0  0  0  0  0  0  0  0
    5.4879   65.6932   62.2409 H   0  0  0  0  0  0  0  0  0  0  0  0
  2  1  1  0
  3  2  2  0
  4  3  1  0
  5  4  2  0
  6  5  1  0
  7  2  1  0
  7  6  2  0
  8  7  1  0
  9  8  2  0
 10  8  1  0
 10  1  1  0
 11 10  2  0
 12  1  1  0
 14 13  1  0
 15 14  2  0
 16 15  1  0
 17 16  2  0
 17 12  1  0
 18 17  1  0
 19 14  1  0
 19 18  2  0
  3 20  1  0
  4 21  1  0
  5 22  1  0
  6 23  1  0
 12 24  1  0
 12 25  1  0
 15 26  1  0
 16 27  1  0
 18 28  1  0
 19 29  1  0
M  END
>  <score>  (3) 
-9.065

$$$$
=
     RDKit          3D

 29 31  0  0  0  0  0  0  0  0999 V2000
    3.9210   68.6650   65.6300 N   0  0  0  0  0  0  0  0  0  0  0  0
    3.5770   69.2760   66.8480 C   0  0  0  0  0  0  0  0  0  0  0  0
    2.4330   69.1210   67.6080 C   0  0  0  0  0  0  0  0  0  0  0  0
    2.3290   69.8540   68.7980 C   0  0  0  0  0  0  0  0  0  0  0  0
    3.3550   70.7260   69.2090 C   0  0  0  0  0  0  0  0  0  0  0  0
    4.5070   70.8810   68.4380 C   0  0  0  0  0  0  0  0  0  0  0  0
    4.5830   70.1450   67.2710 C   0  0  0  0  0  0  0  0  0  0  0  0
    5.6510   70.0960   66.2740 C   0  0  0  0  0  0  0  0  0  0  0  0
    6.6890   70.7160   66.2860 O   0  0  0  0  0  0  0  0  0  0  0  0
    5.1700   69.0890   65.2010 C   0  0  0  0  0  0  0  0  0  0  0  0
    5.7960   68.7640   64.2150 O   0  0  0  0  0  0  0  0  0  0  0  0
    3.1350   67.6730   64.9360 C   0  0  0  0  0  0  0  0  0  0  0  0
   -0.3090   70.0700   60.5960 Cl  0  0  0  0  0  0  0  0  0  0  0  0
    0.6710   69.3850   61.8310 C   0  0  0  0  0  0  0  0  0  0  0  0
    0.1440   69.1880   63.1050 C   0  0  0  0  0  0  0  0  0  0  0  0
    0.9410   68.6300   64.1080 C   0  0  0  0  0  0  0  0  0  0  0  0
    2.2740   68.2700   63.8450 C   0  0  0  0  0  0  0  0  0  0  0  0
    2.7860   68.4670   62.5530 C   0  0  0  0  0  0  0  0  0  0  0  0
    1.9880   69.0260   61.5510 C   0  0  0  0  0  0  0  0  0  0  0  0
    1.6282   68.4426   67.2884 H   0  0  0  0  0  0  0  0  0  0  0  0
    1.4296   69.7460   69.4220 H   0  0  0  0  0  0  0  0  0  0  0  0
    3.2472   71.2904   70.1470 H   0  0  0  0  0  0  0  0  0  0  0  0
    5.3178   71.5581   68.7449 H   0  0  0  0  0  0  0  0  0  0  0  0
    3.8163   66.9373   64.4838 H   0  0  0  0  0  0  0  0  0  0  0  0
    2.4634   67.2065   65.6718 H   0  0  0  0  0  0  0  0  0  0  0  0
   -0.8968   69.4709   63.3211 H   0  0  0  0  0  0  0  0  0  0  0  0
    0.5215   68.4711   65.1124 H   0  0  0  0  0  0  0  0  0  0  0  0
    3.8234   68.1792   62.3274 H   0  0  0  0  0  0  0  0  0  0  0  0
    2.3990   69.1824   60.5427 H   0  0  0  0  0  0  0  0  0  0  0  0
  2  1  1  0
  3  2  2  0
  4  3  1  0
  5  4  2  0
  6  5  1  0
  7  2  1  0
  7  6  2  0
  8  7  1  0
  9  8  2  0
 10  8  1  0
 10  1  1  0
 11 10  2  0
 12  1  1  0
 14 13  1  0
 15 14  2  0
 16 15  1  0
 17 16  2  0
 17 12  1  0
 18 17  1  0
 19 14  1  0
 19 18  2  0
  3 20  1  0
  4 21  1  0
  5 22  1  0
  6 23  1  0
 12 24  1  0
 12 25  1  0
 15 26  1  0
 16 27  1  0
 18 28  1  0
 19 29  1  0
M  END
>  <score>  (4) 
-8.989

$$$$
=
     RDKit          3D

 29 31  0  0  0  0  0  0  0  0999 V2000
    2.2600   67.6510   66.1270 N   0  0  0  0  0  0  0  0  0  0  0  0
    3.3570   68.5250   66.0390 C   0  0  0  0  0  0  0  0  0  0  0  0
    3.8370   69.4190   66.9770 C   0  0  0  0  0  0  0  0  0  0  0  0
    4.9590   70.1880   66.6410 C   0  0  0  0  0  0  0  0  0  0  0  0
    5.5810   70.0590   65.3840 C   0  0  0  0  0  0  0  0  0  0  0  0
    5.0920   69.1560   64.4390 C   0  0  0  0  0  0  0  0  0  0  0  0
    3.9850   68.4110   64.7990 C   0  0  0  0  0  0  0  0  0  0  0  0
    3.2610   67.3990   64.0320 C   0  0  0  0  0  0  0  0  0  0  0  0
    3.5010   67.0250   62.9070 O   0  0  0  0  0  0  0  0  0  0  0  0
    2.1220   66.9130   64.9620 C   0  0  0  0  0  0  0  0  0  0  0  0
    1.3110   66.0550   64.6850 O   0  0  0  0  0  0  0  0  0  0  0  0
    1.4190   67.4720   67.2880 C   0  0  0  0  0  0  0  0  0  0  0  0
   -4.3900   68.6370   66.1340 Cl  0  0  0  0  0  0  0  0  0  0  0  0
   -2.7360   68.3070   66.4650 C   0  0  0  0  0  0  0  0  0  0  0  0
   -1.7420   69.0870   65.8780 C   0  0  0  0  0  0  0  0  0  0  0  0
   -0.3980   68.8180   66.1480 C   0  0  0  0  0  0  0  0  0  0  0  0
   -0.0380   67.7640   67.0040 C   0  0  0  0  0  0  0  0  0  0  0  0
   -1.0510   66.9930   67.5940 C   0  0  0  0  0  0  0  0  0  0  0  0
   -2.3960   67.2620   67.3220 C   0  0  0  0  0  0  0  0  0  0  0  0
    3.3523   69.5239   67.9589 H   0  0  0  0  0  0  0  0  0  0  0  0
    5.3611   70.9051   67.3718 H   0  0  0  0  0  0  0  0  0  0  0  0
    6.4601   70.6755   65.1450 H   0  0  0  0  0  0  0  0  0  0  0  0
    5.5659   69.0424   63.4528 H   0  0  0  0  0  0  0  0  0  0  0  0
    1.5089   66.4306   67.6305 H   0  0  0  0  0  0  0  0  0  0  0  0
    1.7569   68.1834   68.0560 H   0  0  0  0  0  0  0  0  0  0  0  0
   -2.0147   69.9123   65.2038 H   0  0  0  0  0  0  0  0  0  0  0  0
    0.3853   69.4370   65.6862 H   0  0  0  0  0  0  0  0  0  0  0  0
   -0.7853   66.1712   68.2752 H   0  0  0  0  0  0  0  0  0  0  0  0
   -3.1845   66.6496   67.7838 H   0  0  0  0  0  0  0  0  0  0  0  0
  2  1  1  0
  3  2  2  0
  4  3  1  0
  5  4  2  0
  6  5  1  0
  7  2  1  0
  7  6  2  0
  8  7  1  0
  9  8  2  0
 10  8  1  0
 10  1  1  0
 11 10  2  0
 12  1  1  0
 14 13  1  0
 15 14  2  0
 16 15  1  0
 17 16  2  0
 17 12  1  0
 18 17  1  0
 19 14  1  0
 19 18  2  0
  3 20  1  0
  4 21  1  0
  5 22  1  0
  6 23  1  0
 12 24  1  0
 12 25  1  0
 15 26  1  0
 16 27  1  0
 18 28  1  0
 19 29  1  0
M  END
>  <score>  (5) 
-8.752

$$$$
=
     RDKit          3D

 29 31  0  0  0  0  0  0  0  0999 V2000
    1.8120   68.1390   64.5880 N   0  0  0  0  0  0  0  0  0  0  0  0
    0.6340   68.1270   65.3550 C   0  0  0  0  0  0  0  0  0  0  0  0
    0.4260   67.6210   66.6240 C   0  0  0  0  0  0  0  0  0  0  0  0
   -0.8580   67.7320   67.1750 C   0  0  0  0  0  0  0  0  0  0  0  0
   -1.9090   68.3370   66.4580 C   0  0  0  0  0  0  0  0  0  0  0  0
   -1.6950   68.8440   65.1770 C   0  0  0  0  0  0  0  0  0  0  0  0
   -0.4190   68.7220   64.6600 C   0  0  0  0  0  0  0  0  0  0  0  0
    0.1010   69.1550   63.3640 C   0  0  0  0  0  0  0  0  0  0  0  0
   -0.5110   69.7070   62.4800 O   0  0  0  0  0  0  0  0  0  0  0  0
    1.5960   68.7530   63.3640 C   0  0  0  0  0  0  0  0  0  0  0  0
    2.3770   68.9620   62.4600 O   0  0  0  0  0  0  0  0  0  0  0  0
    3.1010   67.6540   65.0200 C   0  0  0  0  0  0  0  0  0  0  0  0
    6.1850   71.7400   68.2190 Cl  0  0  0  0  0  0  0  0  0  0  0  0
    5.3050   70.5780   67.3060 C   0  0  0  0  0  0  0  0  0  0  0  0
    4.0800   70.1120   67.7750 C   0  0  0  0  0  0  0  0  0  0  0  0
    3.3660   69.1680   67.0320 C   0  0  0  0  0  0  0  0  0  0  0  0
    3.8740   68.6810   65.8170 C   0  0  0  0  0  0  0  0  0  0  0  0
    5.1070   69.1680   65.3550 C   0  0  0  0  0  0  0  0  0  0  0  0
    5.8210   70.1110   66.0990 C   0  0  0  0  0  0  0  0  0  0  0  0
    1.2438   67.1452   67.1851 H   0  0  0  0  0  0  0  0  0  0  0  0
   -1.0484   67.3399   68.1849 H   0  0  0  0  0  0  0  0  0  0  0  0
   -2.9078   68.4101   66.9131 H   0  0  0  0  0  0  0  0  0  0  0  0
   -2.5047   69.3194   64.6039 H   0  0  0  0  0  0  0  0  0  0  0  0
    2.9496   66.7630   65.6471 H   0  0  0  0  0  0  0  0  0  0  0  0
    3.6878   67.4224   64.1189 H   0  0  0  0  0  0  0  0  0  0  0  0
    3.6754   70.4855   68.7272 H   0  0  0  0  0  0  0  0  0  0  0  0
    2.3967   68.8030   67.4026 H   0  0  0  0  0  0  0  0  0  0  0  0
    5.5142   68.8045   64.4000 H   0  0  0  0  0  0  0  0  0  0  0  0
    6.7887   70.4840   65.7324 H   0  0  0  0  0  0  0  0  0  0  0  0
  2  1  1  0
  3  2  2  0
  4  3  1  0
  5  4  2  0
  6  5  1  0
  7  2  1  0
  7  6  2  0
  8  7  1  0
  9  8  2  0
 10  8  1  0
 10  1  1  0
 11 10  2  0
 12  1  1  0
 14 13  1  0
 15 14  2  0
 16 15  1  0
 17 16  2  0
 17 12  1  0
 18 17  1  0
 19 14  1  0
 19 18  2  0
  3 20  1  0
  4 21  1  0
  5 22  1  0
  6 23  1  0
 12 24  1  0
 12 25  1  0
 15 26  1  0
 16 27  1  0
 18 28  1  0
 19 29  1  0
M  END
>  <score>  (6) 
-8.751

$$$$
=
     RDKit          3D

 29 31  0  0  0  0  0  0  0  0999 V2000
    3.8460   69.2970   65.3310 N   0  0  0  0  0  0  0  0  0  0  0  0
    3.5750   69.5410   66.6880 C   0  0  0  0  0  0  0  0  0  0  0  0
    2.4470   69.2260   67.4220 C   0  0  0  0  0  0  0  0  0  0  0  0
    2.4220   69.5840   68.7770 C   0  0  0  0  0  0  0  0  0  0  0  0
    3.5100   70.2460   69.3760 C   0  0  0  0  0  0  0  0  0  0  0  0
    4.6460   70.5630   68.6320 C   0  0  0  0  0  0  0  0  0  0  0  0
    4.6440   70.1970   67.2990 C   0  0  0  0  0  0  0  0  0  0  0  0
    5.6770   70.3900   66.2830 C   0  0  0  0  0  0  0  0  0  0  0  0
    6.7500   70.9280   66.4270 O   0  0  0  0  0  0  0  0  0  0  0  0
    5.1050   69.7660   64.9870 C   0  0  0  0  0  0  0  0  0  0  0  0
    5.6810   69.7130   63.9220 O   0  0  0  0  0  0  0  0  0  0  0  0
    2.9810   68.5910   64.4150 C   0  0  0  0  0  0  0  0  0  0  0  0
    4.6510   62.8520   63.5670 Cl  0  0  0  0  0  0  0  0  0  0  0  0
    4.1780   64.4870   63.8100 C   0  0  0  0  0  0  0  0  0  0  0  0
    3.3910   64.8250   64.9090 C   0  0  0  0  0  0  0  0  0  0  0  0
    3.0080   66.1540   65.1050 C   0  0  0  0  0  0  0  0  0  0  0  0
    3.4050   67.1540   64.2020 C   0  0  0  0  0  0  0  0  0  0  0  0
    4.2050   66.7980   63.1050 C   0  0  0  0  0  0  0  0  0  0  0  0
    4.5870   65.4680   62.9090 C   0  0  0  0  0  0  0  0  0  0  0  0
    1.5943   68.7098   66.9567 H   0  0  0  0  0  0  0  0  0  0  0  0
    1.5361   69.3432   69.3830 H   0  0  0  0  0  0  0  0  0  0  0  0
    3.4638   70.5160   70.4414 H   0  0  0  0  0  0  0  0  0  0  0  0
    5.5044   71.0806   69.0851 H   0  0  0  0  0  0  0  0  0  0  0  0
    1.9580   68.5999   64.8192 H   0  0  0  0  0  0  0  0  0  0  0  0
    3.0385   69.1022   63.4427 H   0  0  0  0  0  0  0  0  0  0  0  0
    3.0725   64.0482   65.6197 H   0  0  0  0  0  0  0  0  0  0  0  0
    2.3895   66.4200   65.9749 H   0  0  0  0  0  0  0  0  0  0  0  0
    4.5335   67.5711   62.3947 H   0  0  0  0  0  0  0  0  0  0  0  0
    5.2100   65.1959   62.0442 H   0  0  0  0  0  0  0  0  0  0  0  0
  2  1  1  0
  3  2  2  0
  4  3  1  0
  5  4  2  0
  6  5  1  0
  7  2  1  0
  7  6  2  0
  8  7  1  0
  9  8  2  0
 10  8  1  0
 10  1  1  0
 11 10  2  0
 12  1  1  0
 14 13  1  0
 15 14  2  0
 16 15  1  0
 17 16  2  0
 17 12  1  0
 18 17  1  0
 19 14  1  0
 19 18  2  0
  3 20  1  0
  4 21  1  0
  5 22  1  0
  6 23  1  0
 12 24  1  0
 12 25  1  0
 15 26  1  0
 16 27  1  0
 18 28  1  0
 19 29  1  0
M  END
>  <score>  (7) 
-8.671

$$$$
=
     RDKit          3D

 29 31  0  0  0  0  0  0  0  0999 V2000
    0.7520   68.6350   67.8740 N   0  0  0  0  0  0  0  0  0  0  0  0
    0.7880   67.5100   68.7170 C   0  0  0  0  0  0  0  0  0  0  0  0
    1.7790   67.1060   69.5900 C   0  0  0  0  0  0  0  0  0  0  0  0
    1.5720   65.9310   70.3240 C   0  0  0  0  0  0  0  0  0  0  0  0
    0.3900   65.1790   70.1780 C   0  0  0  0  0  0  0  0  0  0  0  0
   -0.6080   65.5900   69.2950 C   0  0  0  0  0  0  0  0  0  0  0  0
   -0.3760   66.7530   68.5850 C   0  0  0  0  0  0  0  0  0  0  0  0
   -1.2260   67.4240   67.6020 C   0  0  0  0  0  0  0  0  0  0  0  0
   -2.3150   67.0680   67.2150 O   0  0  0  0  0  0  0  0  0  0  0  0
   -0.4360   68.6800   67.1620 C   0  0  0  0  0  0  0  0  0  0  0  0
   -0.8240   69.5070   66.3640 O   0  0  0  0  0  0  0  0  0  0  0  0
    1.7670   69.6590   67.7970 C   0  0  0  0  0  0  0  0  0  0  0  0
    5.7010   68.7100   63.3180 Cl  0  0  0  0  0  0  0  0  0  0  0  0
    4.5800   68.9830   64.5920 C   0  0  0  0  0  0  0  0  0  0  0  0
    5.0090   69.5750   65.7780 C   0  0  0  0  0  0  0  0  0  0  0  0
    4.0960   69.7970   66.8120 C   0  0  0  0  0  0  0  0  0  0  0  0
    2.7490   69.4230   66.6710 C   0  0  0  0  0  0  0  0  0  0  0  0
    2.3330   68.8350   65.4670 C   0  0  0  0  0  0  0  0  0  0  0  0
    3.2460   68.6130   64.4320 C   0  0  0  0  0  0  0  0  0  0  0  0
    2.7040   67.6900   69.7056 H   0  0  0  0  0  0  0  0  0  0  0  0
    2.3462   65.5896   71.0268 H   0  0  0  0  0  0  0  0  0  0  0  0
    0.2529   64.2593   70.7657 H   0  0  0  0  0  0  0  0  0  0  0  0
   -1.5373   65.0150   69.1693 H   0  0  0  0  0  0  0  0  0  0  0  0
    1.2758   70.6303   67.6380 H   0  0  0  0  0  0  0  0  0  0  0  0
    2.3319   69.6389   68.7406 H   0  0  0  0  0  0  0  0  0  0  0  0
    6.0626   69.8665   65.8998 H   0  0  0  0  0  0  0  0  0  0  0  0
    4.4351   70.2693   67.7458 H   0  0  0  0  0  0  0  0  0  0  0  0
    1.2796   68.5463   65.3364 H   0  0  0  0  0  0  0  0  0  0  0  0
    2.9121   68.1472   63.4931 H   0  0  0  0  0  0  0  0  0  0  0  0
  2  1  1  0
  3  2  2  0
  4  3  1  0
  5  4  2  0
  6  5  1  0
  7  2  1  0
  7  6  2  0
  8  7  1  0
  9  8  2  0
 10  8  1  0
 10  1  1  0
 11 10  2  0
 12  1  1  0
 14 13  1  0
 15 14  2  0
 16 15  1  0
 17 16  2  0
 17 12  1  0
 18 17  1  0
 19 14  1  0
 19 18  2  0
  3 20  1  0
  4 21  1  0
  5 22  1  0
  6 23  1  0
 12 24  1  0
 12 25  1  0
 15 26  1  0
 16 27  1  0
 18 28  1  0
 19 29  1  0
M  END
>  <score>  (8) 
-8.147

$$$$
=
     RDKit          3D

 29 31  0  0  0  0  0  0  0  0999 V2000
    3.4060   60.3770   72.3430 N   0  0  0  0  0  0  0  0  0  0  0  0
    2.4700   59.4610   72.8530 C   0  0  0  0  0  0  0  0  0  0  0  0
    1.5870   59.6120   73.9050 C   0  0  0  0  0  0  0  0  0  0  0  0
    0.7480   58.5350   74.2220 C   0  0  0  0  0  0  0  0  0  0  0  0
    0.8020   57.3310   73.4930 C   0  0  0  0  0  0  0  0  0  0  0  0
    1.6950   57.1820   72.4320 C   0  0  0  0  0  0  0  0  0  0  0  0
    2.5090   58.2610   72.1430 C   0  0  0  0  0  0  0  0  0  0  0  0
    3.5280   58.4010   71.1030 C   0  0  0  0  0  0  0  0  0  0  0  0
    3.8580   57.5700   70.2890 O   0  0  0  0  0  0  0  0  0  0  0  0
    4.0930   59.8320   71.2690 C   0  0  0  0  0  0  0  0  0  0  0  0
    4.9520   60.3300   70.5730 O   0  0  0  0  0  0  0  0  0  0  0  0
    3.5950   61.7310   72.8060 C   0  0  0  0  0  0  0  0  0  0  0  0
    0.1280   65.7150   69.8830 Cl  0  0  0  0  0  0  0  0  0  0  0  0
    1.1150   64.5780   70.7140 C   0  0  0  0  0  0  0  0  0  0  0  0
    0.6080   63.8950   71.8170 C   0  0  0  0  0  0  0  0  0  0  0  0
    1.4100   62.9710   72.4900 C   0  0  0  0  0  0  0  0  0  0  0  0
    2.7280   62.7270   72.0690 C   0  0  0  0  0  0  0  0  0  0  0  0
    3.2200   63.4170   70.9510 C   0  0  0  0  0  0  0  0  0  0  0  0
    2.4170   64.3420   70.2770 C   0  0  0  0  0  0  0  0  0  0  0  0
    1.5438   60.5505   74.4772 H   0  0  0  0  0  0  0  0  0  0  0  0
    0.0352   58.6316   75.0542 H   0  0  0  0  0  0  0  0  0  0  0  0
    0.1335   56.5003   73.7631 H   0  0  0  0  0  0  0  0  0  0  0  0
    1.7490   56.2489   71.8520 H   0  0  0  0  0  0  0  0  0  0  0  0
    3.3478   61.7743   73.8770 H   0  0  0  0  0  0  0  0  0  0  0  0
    4.6445   62.0023   72.6190 H   0  0  0  0  0  0  0  0  0  0  0  0
   -0.4211   64.0829   72.1569 H   0  0  0  0  0  0  0  0  0  0  0  0
    1.0061   62.4291   73.3579 H   0  0  0  0  0  0  0  0  0  0  0  0
    4.2460   63.2287   70.6018 H   0  0  0  0  0  0  0  0  0  0  0  0
    2.8120   64.8821   69.4039 H   0  0  0  0  0  0  0  0  0  0  0  0
  2  1  1  0
  3  2  2  0
  4  3  1  0
  5  4  2  0
  6  5  1  0
  7  2  1  0
  7  6  2  0
  8  7  1  0
  9  8  2  0
 10  8  1  0
 10  1  1  0
 11 10  2  0
 12  1  1  0
 14 13  1  0
 15 14  2  0
 16 15  1  0
 17 16  2  0
 17 12  1  0
 18 17  1  0
 19 14  1  0
 19 18  2  0
  3 20  1  0
  4 21  1  0
  5 22  1  0
  6 23  1  0
 12 24  1  0
 12 25  1  0
 15 26  1  0
 16 27  1  0
 18 28  1  0
 19 29  1  0
M  END
>  <score>  (9) 
-7.953

$$$$
