=
     RDKit          3D

 26 27  0  0  0  0  0  0  0  0999 V2000
    2.1030   66.7380   65.8270 O   0  0  0  0  0  0  0  0  0  0  0  0
    1.9930   67.9230   65.5420 C   0  0  0  0  0  0  0  0  0  0  0  0
    1.6100   68.3920   64.1910 C   0  0  0  0  0  0  0  0  0  0  0  0
    0.3540   68.9660   63.9420 C   0  0  0  0  0  0  0  0  0  0  0  0
    0.0220   69.4040   62.6560 C   0  0  0  0  0  0  0  0  0  0  0  0
    0.9400   69.2670   61.6150 C   0  0  0  0  0  0  0  0  0  0  0  0
    2.1810   68.6930   61.8670 C   0  0  0  0  0  0  0  0  0  0  0  0
    2.5200   68.2570   63.1440 C   0  0  0  0  0  0  0  0  0  0  0  0
    3.7130   67.6720   63.3320 F   0  0  0  0  0  0  0  0  0  0  0  0
    3.0520   68.5510   60.8570 F   0  0  0  0  0  0  0  0  0  0  0  0
    2.2230   68.9440   66.6310 C   0  0  0  0  0  0  0  0  0  0  0  0
    1.2740   69.2630   67.3350 O   0  0  0  0  0  0  0  0  0  0  0  0
    3.5850   69.4890   66.8240 C   0  0  0  0  0  0  0  0  0  0  0  0
    4.5080   69.5510   65.7690 C   0  0  0  0  0  0  0  0  0  0  0  0
    5.7880   70.0730   65.9820 C   0  0  0  0  0  0  0  0  0  0  0  0
    6.1510   70.5320   67.2470 C   0  0  0  0  0  0  0  0  0  0  0  0
    5.2340   70.4640   68.2900 C   0  0  0  0  0  0  0  0  0  0  0  0
    3.9590   69.9480   68.0870 C   0  0  0  0  0  0  0  0  0  0  0  0
    3.1220   69.8630   69.1310 F   0  0  0  0  0  0  0  0  0  0  0  0
    5.5980   70.8930   69.5080 F   0  0  0  0  0  0  0  0  0  0  0  0
   -0.3722   69.0719   64.7614 H   0  0  0  0  0  0  0  0  0  0  0  0
   -0.9625   69.8563   62.4657 H   0  0  0  0  0  0  0  0  0  0  0  0
    0.6840   69.6106   60.6019 H   0  0  0  0  0  0  0  0  0  0  0  0
    4.2238   69.1876   64.7704 H   0  0  0  0  0  0  0  0  0  0  0  0
    6.5078   70.1213   65.1516 H   0  0  0  0  0  0  0  0  0  0  0  0
    7.1559   70.9451   67.4190 H   0  0  0  0  0  0  0  0  0  0  0  0
  2  1  2  0
  3  2  1  0
  4  3  2  0
  5  4  1  0
  6  5  2  0
  7  6  1  0
  8  7  2  0
  8  3  1  0
  9  8  1  0
 10  7  1  0
 11  2  1  0
 12 11  2  0
 13 11  1  0
 14 13  2  0
 15 14  1  0
 16 15  2  0
 17 16  1  0
 18 17  2  0
 18 13  1  0
 19 18  1  0
 20 17  1  0
  4 21  1  0
  5 22  1  0
  6 23  1  0
 14 24  1  0
 15 25  1  0
 16 26  1  0
M  END
>  <score>  (1) 
-10.032

$$$$
=
     RDKit          3D

 26 27  0  0  0  0  0  0  0  0999 V2000
    1.1270   69.2710   67.3620 O   0  0  0  0  0  0  0  0  0  0  0  0
    2.0780   68.9450   66.6650 C   0  0  0  0  0  0  0  0  0  0  0  0
    3.4440   69.4790   66.8690 C   0  0  0  0  0  0  0  0  0  0  0  0
    4.3820   69.5110   65.8260 C   0  0  0  0  0  0  0  0  0  0  0  0
    5.6640   70.0250   66.0480 C   0  0  0  0  0  0  0  0  0  0  0  0
    6.0140   70.5040   67.3100 C   0  0  0  0  0  0  0  0  0  0  0  0
    5.0810   70.4660   68.3400 C   0  0  0  0  0  0  0  0  0  0  0  0
    3.8030   69.9580   68.1280 C   0  0  0  0  0  0  0  0  0  0  0  0
    2.9500   69.9030   69.1610 F   0  0  0  0  0  0  0  0  0  0  0  0
    5.4310   70.9150   69.5540 F   0  0  0  0  0  0  0  0  0  0  0  0
    1.8490   67.9240   65.5760 C   0  0  0  0  0  0  0  0  0  0  0  0
    1.9430   66.7380   65.8640 O   0  0  0  0  0  0  0  0  0  0  0  0
    1.4870   68.3940   64.2200 C   0  0  0  0  0  0  0  0  0  0  0  0
    0.2410   68.9810   63.9550 C   0  0  0  0  0  0  0  0  0  0  0  0
   -0.0720   69.4180   62.6630 C   0  0  0  0  0  0  0  0  0  0  0  0
    0.8570   69.2690   61.6330 C   0  0  0  0  0  0  0  0  0  0  0  0
    2.0890   68.6830   61.9010 C   0  0  0  0  0  0  0  0  0  0  0  0
    2.4090   68.2470   63.1830 C   0  0  0  0  0  0  0  0  0  0  0  0
    3.5920   67.6500   63.3860 F   0  0  0  0  0  0  0  0  0  0  0  0
    2.9690   68.5300   60.9020 F   0  0  0  0  0  0  0  0  0  0  0  0
    4.1085   69.1308   64.8307 H   0  0  0  0  0  0  0  0  0  0  0  0
    6.3958   70.0513   65.2272 H   0  0  0  0  0  0  0  0  0  0  0  0
    7.0209   70.9089   67.4892 H   0  0  0  0  0  0  0  0  0  0  0  0
   -0.4930   69.0983   64.7659 H   0  0  0  0  0  0  0  0  0  0  0  0
   -1.0500   69.8787   62.4597 H   0  0  0  0  0  0  0  0  0  0  0  0
    0.6165   69.6127   60.6161 H   0  0  0  0  0  0  0  0  0  0  0  0
  2  1  2  0
  3  2  1  0
  4  3  2  0
  5  4  1  0
  6  5  2  0
  7  6  1  0
  8  7  2  0
  8  3  1  0
  9  8  1  0
 10  7  1  0
 11  2  1  0
 12 11  2  0
 13 11  1  0
 14 13  2  0
 15 14  1  0
 16 15  2  0
 17 16  1  0
 18 17  2  0
 18 13  1  0
 19 18  1  0
 20 17  1  0
  4 21  1  0
  5 22  1  0
  6 23  1  0
 14 24  1  0
 15 25  1  0
 16 26  1  0
M  END
>  <score>  (2) 
-10.023

$$$$
=
     RDKit          3D

 26 27  0  0  0  0  0  0  0  0999 V2000
    2.0260   66.8410   66.0590 O   0  0  0  0  0  0  0  0  0  0  0  0
    1.9930   68.0090   65.6950 C   0  0  0  0  0  0  0  0  0  0  0  0
    1.6550   68.4090   64.3100 C   0  0  0  0  0  0  0  0  0  0  0  0
    2.6100   68.3740   63.2820 C   0  0  0  0  0  0  0  0  0  0  0  0
    2.2600   68.7540   61.9830 C   0  0  0  0  0  0  0  0  0  0  0  0
    0.9590   69.1730   61.7060 C   0  0  0  0  0  0  0  0  0  0  0  0
    0.0180   69.2100   62.7290 C   0  0  0  0  0  0  0  0  0  0  0  0
    0.3570   68.8310   64.0240 C   0  0  0  0  0  0  0  0  0  0  0  0
   -0.5720   68.9210   64.9880 F   0  0  0  0  0  0  0  0  0  0  0  0
   -1.2260   69.6280   62.4570 F   0  0  0  0  0  0  0  0  0  0  0  0
    2.2730   69.0860   66.7170 C   0  0  0  0  0  0  0  0  0  0  0  0
    1.3420   69.4940   67.3980 O   0  0  0  0  0  0  0  0  0  0  0  0
    3.6610   69.5750   66.8770 C   0  0  0  0  0  0  0  0  0  0  0  0
    4.5610   69.5960   65.8010 C   0  0  0  0  0  0  0  0  0  0  0  0
    5.8660   70.0670   65.9830 C   0  0  0  0  0  0  0  0  0  0  0  0
    6.2760   70.5160   67.2370 C   0  0  0  0  0  0  0  0  0  0  0  0
    5.3800   70.4890   68.3010 C   0  0  0  0  0  0  0  0  0  0  0  0
    4.0810   70.0240   68.1290 C   0  0  0  0  0  0  0  0  0  0  0  0
    3.2650   69.9780   69.1920 F   0  0  0  0  0  0  0  0  0  0  0  0
    5.7880   70.9080   69.5070 F   0  0  0  0  0  0  0  0  0  0  0  0
    3.6374   68.0464   63.4992 H   0  0  0  0  0  0  0  0  0  0  0  0
    3.0106   68.7225   61.1795 H   0  0  0  0  0  0  0  0  0  0  0  0
    0.6791   69.4722   60.6851 H   0  0  0  0  0  0  0  0  0  0  0  0
    4.2396   69.2409   64.8107 H   0  0  0  0  0  0  0  0  0  0  0  0
    6.5682   70.0829   65.1364 H   0  0  0  0  0  0  0  0  0  0  0  0
    7.3003   70.8889   67.3844 H   0  0  0  0  0  0  0  0  0  0  0  0
  2  1  2  0
  3  2  1  0
  4  3  2  0
  5  4  1  0
  6  5  2  0
  7  6  1  0
  8  7  2  0
  8  3  1  0
  9  8  1  0
 10  7  1  0
 11  2  1  0
 12 11  2  0
 13 11  1  0
 14 13  2  0
 15 14  1  0
 16 15  2  0
 17 16  1  0
 18 17  2  0
 18 13  1  0
 19 18  1  0
 20 17  1  0
  4 21  1  0
  5 22  1  0
  6 23  1  0
 14 24  1  0
 15 25  1  0
 16 26  1  0
M  END
>  <score>  (3) 
-9.945

$$$$
=
     RDKit          3D

 26 27  0  0  0  0  0  0  0  0999 V2000
    2.3220   66.4120   65.6760 O   0  0  0  0  0  0  0  0  0  0  0  0
    1.7760   67.4890   65.8730 C   0  0  0  0  0  0  0  0  0  0  0  0
    0.3910   67.6070   66.3830 C   0  0  0  0  0  0  0  0  0  0  0  0
    0.0030   67.0190   67.5960 C   0  0  0  0  0  0  0  0  0  0  0  0
   -1.3120   67.1520   68.0530 C   0  0  0  0  0  0  0  0  0  0  0  0
   -2.2430   67.8660   67.3000 C   0  0  0  0  0  0  0  0  0  0  0  0
   -1.8540   68.4430   66.0970 C   0  0  0  0  0  0  0  0  0  0  0  0
   -0.5470   68.3190   65.6360 C   0  0  0  0  0  0  0  0  0  0  0  0
   -0.2260   68.8570   64.4490 F   0  0  0  0  0  0  0  0  0  0  0  0
   -2.7590   69.1160   65.3720 F   0  0  0  0  0  0  0  0  0  0  0  0
    2.5690   68.7500   65.6180 C   0  0  0  0  0  0  0  0  0  0  0  0
    2.5730   69.2120   64.4850 O   0  0  0  0  0  0  0  0  0  0  0  0
    3.2760   69.3910   66.7500 C   0  0  0  0  0  0  0  0  0  0  0  0
    2.6010   69.7570   67.9240 C   0  0  0  0  0  0  0  0  0  0  0  0
    3.2970   70.3600   68.9770 C   0  0  0  0  0  0  0  0  0  0  0  0
    4.6660   70.5990   68.8620 C   0  0  0  0  0  0  0  0  0  0  0  0
    5.3280   70.2370   67.6940 C   0  0  0  0  0  0  0  0  0  0  0  0
    4.6450   69.6370   66.6420 C   0  0  0  0  0  0  0  0  0  0  0  0
    5.3160   69.3430   65.5190 F   0  0  0  0  0  0  0  0  0  0  0  0
    6.6410   70.4860   67.5850 F   0  0  0  0  0  0  0  0  0  0  0  0
    0.7351   66.4517   68.1894 H   0  0  0  0  0  0  0  0  0  0  0  0
   -1.6118   66.6932   69.0067 H   0  0  0  0  0  0  0  0  0  0  0  0
   -3.2785   67.9720   67.6556 H   0  0  0  0  0  0  0  0  0  0  0  0
    1.5211   69.5693   68.0168 H   0  0  0  0  0  0  0  0  0  0  0  0
    2.7642   70.6457   69.8960 H   0  0  0  0  0  0  0  0  0  0  0  0
    5.2179   71.0702   69.6887 H   0  0  0  0  0  0  0  0  0  0  0  0
  2  1  2  0
  3  2  1  0
  4  3  2  0
  5  4  1  0
  6  5  2  0
  7  6  1  0
  8  7  2  0
  8  3  1  0
  9  8  1  0
 10  7  1  0
 11  2  1  0
 12 11  2  0
 13 11  1  0
 14 13  2  0
 15 14  1  0
 16 15  2  0
 17 16  1  0
 18 17  2  0
 18 13  1  0
 19 18  1  0
 20 17  1  0
  4 21  1  0
  5 22  1  0
  6 23  1  0
 14 24  1  0
 15 25  1  0
 16 26  1  0
M  END
>  <score>  (4) 
-9.835

$$$$
=
     RDKit          3D

 26 27  0  0  0  0  0  0  0  0999 V2000
    1.5100   70.0270   67.9160 O   0  0  0  0  0  0  0  0  0  0  0  0
    2.3510   69.4250   67.2640 C   0  0  0  0  0  0  0  0  0  0  0  0
    3.7880   69.7820   67.2800 C   0  0  0  0  0  0  0  0  0  0  0  0
    4.5720   69.7230   66.1170 C   0  0  0  0  0  0  0  0  0  0  0  0
    5.9250   70.0710   66.1630 C   0  0  0  0  0  0  0  0  0  0  0  0
    6.5010   70.4760   67.3670 C   0  0  0  0  0  0  0  0  0  0  0  0
    5.7200   70.5280   68.5160 C   0  0  0  0  0  0  0  0  0  0  0  0
    4.3720   70.1860   68.4790 C   0  0  0  0  0  0  0  0  0  0  0  0
    3.6670   70.2130   69.6210 F   0  0  0  0  0  0  0  0  0  0  0  0
    6.2850   70.9040   69.6720 F   0  0  0  0  0  0  0  0  0  0  0  0
    1.9030   68.2420   66.4380 C   0  0  0  0  0  0  0  0  0  0  0  0
    1.8590   67.1430   66.9750 O   0  0  0  0  0  0  0  0  0  0  0  0
    1.5040   68.4630   65.0300 C   0  0  0  0  0  0  0  0  0  0  0  0
    2.4480   68.4670   63.9910 C   0  0  0  0  0  0  0  0  0  0  0  0
    2.0390   68.6770   62.6700 C   0  0  0  0  0  0  0  0  0  0  0  0
    0.6920   68.8850   62.3810 C   0  0  0  0  0  0  0  0  0  0  0  0
   -0.2380   68.8840   63.4150 C   0  0  0  0  0  0  0  0  0  0  0  0
    0.1580   68.6750   64.7320 C   0  0  0  0  0  0  0  0  0  0  0  0
   -0.7670   68.7230   65.7010 F   0  0  0  0  0  0  0  0  0  0  0  0
   -1.5310   69.1000   63.1310 F   0  0  0  0  0  0  0  0  0  0  0  0
    4.1203   69.4020   65.1668 H   0  0  0  0  0  0  0  0  0  0  0  0
    6.5357   70.0254   65.2493 H   0  0  0  0  0  0  0  0  0  0  0  0
    7.5650   70.7521   67.4071 H   0  0  0  0  0  0  0  0  0  0  0  0
    3.5123   68.3045   64.2164 H   0  0  0  0  0  0  0  0  0  0  0  0
    2.7816   68.6779   61.8585 H   0  0  0  0  0  0  0  0  0  0  0  0
    0.3667   69.0487   61.3430 H   0  0  0  0  0  0  0  0  0  0  0  0
  2  1  2  0
  3  2  1  0
  4  3  2  0
  5  4  1  0
  6  5  2  0
  7  6  1  0
  8  7  2  0
  8  3  1  0
  9  8  1  0
 10  7  1  0
 11  2  1  0
 12 11  2  0
 13 11  1  0
 14 13  2  0
 15 14  1  0
 16 15  2  0
 17 16  1  0
 18 17  2  0
 18 13  1  0
 19 18  1  0
 20 17  1  0
  4 21  1  0
  5 22  1  0
  6 23  1  0
 14 24  1  0
 15 25  1  0
 16 26  1  0
M  END
>  <score>  (5) 
-9.788

$$$$
=
     RDKit          3D

 26 27  0  0  0  0  0  0  0  0999 V2000
    5.1800   69.8080   64.3830 O   0  0  0  0  0  0  0  0  0  0  0  0
    4.4240   69.2780   65.1850 C   0  0  0  0  0  0  0  0  0  0  0  0
    4.3260   69.7040   66.6000 C   0  0  0  0  0  0  0  0  0  0  0  0
    3.1080   69.6680   67.2940 C   0  0  0  0  0  0  0  0  0  0  0  0
    3.0480   70.0740   68.6320 C   0  0  0  0  0  0  0  0  0  0  0  0
    4.2010   70.5190   69.2770 C   0  0  0  0  0  0  0  0  0  0  0  0
    5.4040   70.5560   68.5830 C   0  0  0  0  0  0  0  0  0  0  0  0
    5.4740   70.1520   67.2530 C   0  0  0  0  0  0  0  0  0  0  0  0
    6.6470   70.2440   66.6100 F   0  0  0  0  0  0  0  0  0  0  0  0
    6.5050   71.0000   69.2070 F   0  0  0  0  0  0  0  0  0  0  0  0
    3.5270   68.1660   64.6950 C   0  0  0  0  0  0  0  0  0  0  0  0
    3.7580   67.0260   65.0760 O   0  0  0  0  0  0  0  0  0  0  0  0
    2.3910   68.5010   63.8080 C   0  0  0  0  0  0  0  0  0  0  0  0
    2.5810   68.7830   62.4470 C   0  0  0  0  0  0  0  0  0  0  0  0
    1.4870   69.0950   61.6320 C   0  0  0  0  0  0  0  0  0  0  0  0
    0.2030   69.1280   62.1740 C   0  0  0  0  0  0  0  0  0  0  0  0
    0.0210   68.8520   63.5250 C   0  0  0  0  0  0  0  0  0  0  0  0
    1.1030   68.5400   64.3410 C   0  0  0  0  0  0  0  0  0  0  0  0
    0.8860   68.3220   65.6460 F   0  0  0  0  0  0  0  0  0  0  0  0
   -1.2160   68.9030   64.0400 F   0  0  0  0  0  0  0  0  0  0  0  0
    2.1971   69.3196   66.7853 H   0  0  0  0  0  0  0  0  0  0  0  0
    2.0916   70.0420   69.1744 H   0  0  0  0  0  0  0  0  0  0  0  0
    4.1586   70.8388   70.3286 H   0  0  0  0  0  0  0  0  0  0  0  0
    3.5939   68.7588   62.0187 H   0  0  0  0  0  0  0  0  0  0  0  0
    1.6400   69.3140   60.5649 H   0  0  0  0  0  0  0  0  0  0  0  0
   -0.6606   69.3707   61.5373 H   0  0  0  0  0  0  0  0  0  0  0  0
  2  1  2  0
  3  2  1  0
  4  3  2  0
  5  4  1  0
  6  5  2  0
  7  6  1  0
  8  7  2  0
  8  3  1  0
  9  8  1  0
 10  7  1  0
 11  2  1  0
 12 11  2  0
 13 11  1  0
 14 13  2  0
 15 14  1  0
 16 15  2  0
 17 16  1  0
 18 17  2  0
 18 13  1  0
 19 18  1  0
 20 17  1  0
  4 21  1  0
  5 22  1  0
  6 23  1  0
 14 24  1  0
 15 25  1  0
 16 26  1  0
M  END
>  <score>  (6) 
-9.775

$$$$
=
     RDKit          3D

 26 27  0  0  0  0  0  0  0  0999 V2000
    1.8820   66.7770   66.1390 O   0  0  0  0  0  0  0  0  0  0  0  0
    1.2510   67.7570   66.5090 C   0  0  0  0  0  0  0  0  0  0  0  0
   -0.2190   67.7450   66.6870 C   0  0  0  0  0  0  0  0  0  0  0  0
   -0.8300   66.9820   67.6940 C   0  0  0  0  0  0  0  0  0  0  0  0
   -2.2210   66.9950   67.8400 C   0  0  0  0  0  0  0  0  0  0  0  0
   -3.0050   67.7650   66.9810 C   0  0  0  0  0  0  0  0  0  0  0  0
   -2.3940   68.5160   65.9840 C   0  0  0  0  0  0  0  0  0  0  0  0
   -1.0110   68.5110   65.8330 C   0  0  0  0  0  0  0  0  0  0  0  0
   -0.4680   69.2190   64.8310 F   0  0  0  0  0  0  0  0  0  0  0  0
   -3.1560   69.2420   65.1540 F   0  0  0  0  0  0  0  0  0  0  0  0
    2.0150   69.0200   66.8320 C   0  0  0  0  0  0  0  0  0  0  0  0
    1.5560   69.7730   67.6810 O   0  0  0  0  0  0  0  0  0  0  0  0
    3.2970   69.2770   66.1400 C   0  0  0  0  0  0  0  0  0  0  0  0
    4.4600   69.6110   66.8490 C   0  0  0  0  0  0  0  0  0  0  0  0
    5.6580   69.8470   66.1660 C   0  0  0  0  0  0  0  0  0  0  0  0
    5.6990   69.7500   64.7760 C   0  0  0  0  0  0  0  0  0  0  0  0
    4.5420   69.4220   64.0780 C   0  0  0  0  0  0  0  0  0  0  0  0
    3.3460   69.1850   64.7490 C   0  0  0  0  0  0  0  0  0  0  0  0
    2.2460   68.9130   64.0320 F   0  0  0  0  0  0  0  0  0  0  0  0
    4.5860   69.3480   62.7400 F   0  0  0  0  0  0  0  0  0  0  0  0
   -0.2132   66.3720   68.3704 H   0  0  0  0  0  0  0  0  0  0  0  0
   -2.6966   66.3981   68.6321 H   0  0  0  0  0  0  0  0  0  0  0  0
   -4.0993   67.7777   67.0919 H   0  0  0  0  0  0  0  0  0  0  0  0
    4.4302   69.6877   67.9459 H   0  0  0  0  0  0  0  0  0  0  0  0
    6.5678   70.1092   66.7260 H   0  0  0  0  0  0  0  0  0  0  0  0
    6.6396   69.9316   64.2354 H   0  0  0  0  0  0  0  0  0  0  0  0
  2  1  2  0
  3  2  1  0
  4  3  2  0
  5  4  1  0
  6  5  2  0
  7  6  1  0
  8  7  2  0
  8  3  1  0
  9  8  1  0
 10  7  1  0
 11  2  1  0
 12 11  2  0
 13 11  1  0
 14 13  2  0
 15 14  1  0
 16 15  2  0
 17 16  1  0
 18 17  2  0
 18 13  1  0
 19 18  1  0
 20 17  1  0
  4 21  1  0
  5 22  1  0
  6 23  1  0
 14 24  1  0
 15 25  1  0
 16 26  1  0
M  END
>  <score>  (7) 
-9.72

$$$$
=
     RDKit          3D

 26 27  0  0  0  0  0  0  0  0999 V2000
    1.9100   66.8180   66.4680 O   0  0  0  0  0  0  0  0  0  0  0  0
    1.3300   67.8770   66.6620 C   0  0  0  0  0  0  0  0  0  0  0  0
   -0.1370   68.0260   66.5290 C   0  0  0  0  0  0  0  0  0  0  0  0
   -0.7070   68.8190   65.5210 C   0  0  0  0  0  0  0  0  0  0  0  0
   -2.0970   68.9370   65.4200 C   0  0  0  0  0  0  0  0  0  0  0  0
   -2.9210   68.2670   66.3230 C   0  0  0  0  0  0  0  0  0  0  0  0
   -2.3510   67.4860   67.3220 C   0  0  0  0  0  0  0  0  0  0  0  0
   -0.9690   67.3610   67.4290 C   0  0  0  0  0  0  0  0  0  0  0  0
   -0.4620   66.6300   68.4340 F   0  0  0  0  0  0  0  0  0  0  0  0
   -3.1500   66.8580   68.1960 F   0  0  0  0  0  0  0  0  0  0  0  0
    2.1480   69.0730   67.0900 C   0  0  0  0  0  0  0  0  0  0  0  0
    1.7300   69.7600   68.0120 O   0  0  0  0  0  0  0  0  0  0  0  0
    3.4320   69.3430   66.4050 C   0  0  0  0  0  0  0  0  0  0  0  0
    3.5790   69.1600   65.0220 C   0  0  0  0  0  0  0  0  0  0  0  0
    4.8050   69.4260   64.4020 C   0  0  0  0  0  0  0  0  0  0  0  0
    5.8860   69.8730   65.1600 C   0  0  0  0  0  0  0  0  0  0  0  0
    5.7350   70.0500   66.5310 C   0  0  0  0  0  0  0  0  0  0  0  0
    4.5200   69.7890   67.1560 C   0  0  0  0  0  0  0  0  0  0  0  0
    4.4320   69.9330   68.4860 F   0  0  0  0  0  0  0  0  0  0  0  0
    6.7850   70.4650   67.2550 F   0  0  0  0  0  0  0  0  0  0  0  0
   -0.0585   69.3494   64.8082 H   0  0  0  0  0  0  0  0  0  0  0  0
   -2.5400   69.5586   64.6279 H   0  0  0  0  0  0  0  0  0  0  0  0
   -4.0147   68.3556   66.2457 H   0  0  0  0  0  0  0  0  0  0  0  0
    2.7273   68.8060   64.4226 H   0  0  0  0  0  0  0  0  0  0  0  0
    4.9156   69.2824   63.3170 H   0  0  0  0  0  0  0  0  0  0  0  0
    6.8515   70.0842   64.6772 H   0  0  0  0  0  0  0  0  0  0  0  0
  2  1  2  0
  3  2  1  0
  4  3  2  0
  5  4  1  0
  6  5  2  0
  7  6  1  0
  8  7  2  0
  8  3  1  0
  9  8  1  0
 10  7  1  0
 11  2  1  0
 12 11  2  0
 13 11  1  0
 14 13  2  0
 15 14  1  0
 16 15  2  0
 17 16  1  0
 18 17  2  0
 18 13  1  0
 19 18  1  0
 20 17  1  0
  4 21  1  0
  5 22  1  0
  6 23  1  0
 14 24  1  0
 15 25  1  0
 16 26  1  0
M  END
>  <score>  (8) 
-9.568

$$$$
=
     RDKit          3D

 26 27  0  0  0  0  0  0  0  0999 V2000
    2.1990   69.3910   66.8720 O   0  0  0  0  0  0  0  0  0  0  0  0
    1.6380   68.3970   66.4320 C   0  0  0  0  0  0  0  0  0  0  0  0
    0.2140   68.0920   66.7010 C   0  0  0  0  0  0  0  0  0  0  0  0
   -0.1720   67.2900   67.7860 C   0  0  0  0  0  0  0  0  0  0  0  0
   -1.5260   67.0230   68.0160 C   0  0  0  0  0  0  0  0  0  0  0  0
   -2.4960   67.5520   67.1650 C   0  0  0  0  0  0  0  0  0  0  0  0
   -2.1060   68.3430   66.0900 C   0  0  0  0  0  0  0  0  0  0  0  0
   -0.7620   68.6160   65.8540 C   0  0  0  0  0  0  0  0  0  0  0  0
   -0.4300   69.3490   64.7810 F   0  0  0  0  0  0  0  0  0  0  0  0
   -3.0440   68.8350   65.2680 F   0  0  0  0  0  0  0  0  0  0  0  0
    2.4280   67.4630   65.5460 C   0  0  0  0  0  0  0  0  0  0  0  0
    2.3430   66.2600   65.7510 O   0  0  0  0  0  0  0  0  0  0  0  0
    3.2410   68.0360   64.4490 C   0  0  0  0  0  0  0  0  0  0  0  0
    4.5680   68.4410   64.6530 C   0  0  0  0  0  0  0  0  0  0  0  0
    5.3120   68.9760   63.5960 C   0  0  0  0  0  0  0  0  0  0  0  0
    4.7330   69.1100   62.3350 C   0  0  0  0  0  0  0  0  0  0  0  0
    3.4160   68.7100   62.1390 C   0  0  0  0  0  0  0  0  0  0  0  0
    2.6690   68.1760   63.1840 C   0  0  0  0  0  0  0  0  0  0  0  0
    1.3900   67.8430   62.9600 F   0  0  0  0  0  0  0  0  0  0  0  0
    2.8630   68.8580   60.9270 F   0  0  0  0  0  0  0  0  0  0  0  0
    0.5918   66.8703   68.4572 H   0  0  0  0  0  0  0  0  0  0  0  0
   -1.8256   66.3956   68.8684 H   0  0  0  0  0  0  0  0  0  0  0  0
   -3.5616   67.3450   67.3429 H   0  0  0  0  0  0  0  0  0  0  0  0
    5.0256   68.3376   65.6479 H   0  0  0  0  0  0  0  0  0  0  0  0
    6.3532   69.2907   63.7598 H   0  0  0  0  0  0  0  0  0  0  0  0
    5.3143   69.5294   61.5006 H   0  0  0  0  0  0  0  0  0  0  0  0
  2  1  2  0
  3  2  1  0
  4  3  2  0
  5  4  1  0
  6  5  2  0
  7  6  1  0
  8  7  2  0
  8  3  1  0
  9  8  1  0
 10  7  1  0
 11  2  1  0
 12 11  2  0
 13 11  1  0
 14 13  2  0
 15 14  1  0
 16 15  2  0
 17 16  1  0
 18 17  2  0
 18 13  1  0
 19 18  1  0
 20 17  1  0
  4 21  1  0
  5 22  1  0
  6 23  1  0
 14 24  1  0
 15 25  1  0
 16 26  1  0
M  END
>  <score>  (9) 
-9.322

$$$$
