=
     RDKit          3D

 49 51  0  0  0  0  0  0  0  0999 V2000
    1.5070   61.4870   72.3080 C   0  0  0  0  0  0  0  0  0  0  0  0
    0.7930   62.6370   72.6550 C   0  0  0  0  0  0  0  0  0  0  0  0
    0.9220   63.7430   71.8350 C   0  0  0  0  0  0  0  0  0  0  0  0
    1.7180   63.7590   70.7010 C   0  0  0  0  0  0  0  0  0  0  0  0
    2.4350   62.6270   70.3450 C   0  0  0  0  0  0  0  0  0  0  0  0
    2.3290   61.4800   71.1480 C   0  0  0  0  0  0  0  0  0  0  0  0
    1.7140   65.0890   70.0140 C   0  0  0  0  0  0  0  0  0  0  0  0
    0.6450   65.9200   70.7690 C   0  0  2  0  0  0  0  0  0  0  0  0
    0.2790   65.0440   71.9700 C   0  0  0  0  0  0  0  0  0  0  0  0
   -0.4520   65.3370   72.9030 O   0  0  0  0  0  0  0  0  0  0  0  0
    0.2060   59.8280   73.4400 C   0  0  0  0  0  0  0  0  0  0  0  0
    1.4740   60.3150   73.0240 O   0  0  0  0  0  0  0  0  0  0  0  0
    2.9870   60.3010   70.8940 O   0  0  0  0  0  0  0  0  0  0  0  0
    3.4440   60.0630   69.5710 C   0  0  0  0  0  0  0  0  0  0  0  0
   -0.4470   66.1390   69.8820 O   0  0  0  0  0  0  0  0  0  0  0  0
   -0.2300   66.8280   68.7250 C   0  0  0  0  0  0  0  0  0  0  0  0
    0.9260   67.5250   68.3810 C   0  0  0  0  0  0  0  0  0  0  0  0
    0.9950   68.2230   67.1700 C   0  0  0  0  0  0  0  0  0  0  0  0
   -0.0910   68.2360   66.2830 C   0  0  0  0  0  0  0  0  0  0  0  0
   -1.2350   67.5000   66.6180 C   0  0  0  0  0  0  0  0  0  0  0  0
   -1.2980   66.8040   67.8280 C   0  0  0  0  0  0  0  0  0  0  0  0
   -0.0380   69.0480   65.0180 C   0  0  0  0  0  0  0  0  0  0  0  0
    0.3850   68.2930   63.7730 N   0  0  0  0  0  4  0  0  0  0  0  0
   -0.1780   68.8620   62.5040 C   0  0  0  0  0  0  0  0  0  0  0  0
    1.8700   68.0810   63.6720 C   0  0  0  0  0  0  0  0  0  0  0  0
    0.1515   62.6616   73.5482 H   0  0  0  0  0  0  0  0  0  0  0  0
    3.0749   62.6274   69.4503 H   0  0  0  0  0  0  0  0  0  0  0  0
    2.7016   65.5674   70.0896 H   0  0  0  0  0  0  0  0  0  0  0  0
    1.4908   65.0017   68.9404 H   0  0  0  0  0  0  0  0  0  0  0  0
    0.9744   66.9133   71.1078 H   0  0  0  0  0  0  0  0  0  0  0  0
    0.1622   59.8112   74.5390 H   0  0  0  0  0  0  0  0  0  0  0  0
   -0.5851   60.4863   73.0516 H   0  0  0  0  0  0  0  0  0  0  0  0
    0.0590   58.8094   73.0516 H   0  0  0  0  0  0  0  0  0  0  0  0
    4.4191   59.5552   69.6057 H   0  0  0  0  0  0  0  0  0  0  0  0
    2.7186   59.4281   69.0411 H   0  0  0  0  0  0  0  0  0  0  0  0
    3.5483   61.0213   69.0411 H   0  0  0  0  0  0  0  0  0  0  0  0
    1.7882   67.5268   69.0641 H   0  0  0  0  0  0  0  0  0  0  0  0
    1.9139   68.7690   66.9103 H   0  0  0  0  0  0  0  0  0  0  0  0
   -2.0884   67.4698   65.9246 H   0  0  0  0  0  0  0  0  0  0  0  0
   -2.2023   66.2292   68.0766 H   0  0  0  0  0  0  0  0  0  0  0  0
   -1.0415   69.4614   64.8387 H   0  0  0  0  0  0  0  0  0  0  0  0
    0.7347   69.8132   65.1834 H   0  0  0  0  0  0  0  0  0  0  0  0
   -0.0373   67.3608   63.8893 H   0  0  0  0  0  0  0  0  0  0  0  0
   -0.9325   69.6246   62.7472 H   0  0  0  0  0  0  0  0  0  0  0  0
    0.6313   69.3210   61.9172 H   0  0  0  0  0  0  0  0  0  0  0  0
   -0.6456   68.0576   61.9172 H   0  0  0  0  0  0  0  0  0  0  0  0
    2.3011   68.0195   64.6821 H   0  0  0  0  0  0  0  0  0  0  0  0
    2.0707   67.1451   63.1300 H   0  0  0  0  0  0  0  0  0  0  0  0
    2.3246   68.9233   63.1300 H   0  0  0  0  0  0  0  0  0  0  0  0
  2  1  2  0
  3  2  1  0
  4  3  2  0
  5  4  1  0
  6  5  2  0
  6  1  1  0
  7  4  1  0
  8  7  1  0
  9  3  1  0
  9  8  1  0
 10  9  2  0
 12 11  1  0
 12  1  1  0
 13  6  1  0
 14 13  1  0
 15  8  1  0
 16 15  1  0
 17 16  2  0
 18 17  1  0
 19 18  2  0
 20 19  1  0
 21 20  2  0
 21 16  1  0
 22 19  1  0
 23 22  1  0
 24 23  1  0
 25 23  1  0
  2 26  1  0
  5 27  1  0
  7 28  1  0
  7 29  1  0
  8 30  1  1
 11 31  1  0
 11 32  1  0
 11 33  1  0
 14 34  1  0
 14 35  1  0
 14 36  1  0
 17 37  1  0
 18 38  1  0
 20 39  1  0
 21 40  1  0
 22 41  1  0
 22 42  1  0
 23 43  1  0
 24 44  1  0
 24 45  1  0
 24 46  1  0
 25 47  1  0
 25 48  1  0
 25 49  1  0
M  CHG  1  23   1
M  END
>  <score>  (1) 
-8.147

$$$$
=
     RDKit          3D

 49 51  0  0  0  0  0  0  0  0999 V2000
    1.8810   68.7270   66.2500 C   0  0  0  0  0  0  0  0  0  0  0  0
    2.0970   68.1830   67.5190 C   0  0  0  0  0  0  0  0  0  0  0  0
    1.0430   67.5200   68.1210 C   0  0  0  0  0  0  0  0  0  0  0  0
   -0.2010   67.3760   67.5270 C   0  0  0  0  0  0  0  0  0  0  0  0
   -0.4320   67.9130   66.2700 C   0  0  0  0  0  0  0  0  0  0  0  0
    0.6130   68.5900   65.6210 C   0  0  0  0  0  0  0  0  0  0  0  0
   -1.1760   66.6540   68.4040 C   0  0  0  0  0  0  0  0  0  0  0  0
   -0.3370   66.1770   69.6180 C   0  0  2  0  0  0  0  0  0  0  0  0
    1.0170   66.8610   69.4190 C   0  0  0  0  0  0  0  0  0  0  0  0
    1.9650   66.8600   70.1890 O   0  0  0  0  0  0  0  0  0  0  0  0
    4.1600   69.4240   66.0390 C   0  0  0  0  0  0  0  0  0  0  0  0
    2.8340   69.4070   65.5310 O   0  0  0  0  0  0  0  0  0  0  0  0
    0.5040   69.1590   64.3750 O   0  0  0  0  0  0  0  0  0  0  0  0
    0.3690   68.2940   63.2570 C   0  0  0  0  0  0  0  0  0  0  0  0
   -0.2600   64.7570   69.5650 O   0  0  0  0  0  0  0  0  0  0  0  0
    0.4090   64.0940   70.5520 C   0  0  0  0  0  0  0  0  0  0  0  0
    0.2560   64.2780   71.9240 C   0  0  0  0  0  0  0  0  0  0  0  0
    1.0420   63.5540   72.8260 C   0  0  0  0  0  0  0  0  0  0  0  0
    1.9960   62.6320   72.3710 C   0  0  0  0  0  0  0  0  0  0  0  0
    2.1180   62.4240   70.9910 C   0  0  0  0  0  0  0  0  0  0  0  0
    1.3290   63.1500   70.0950 C   0  0  0  0  0  0  0  0  0  0  0  0
    2.8890   61.9100   73.3420 C   0  0  0  0  0  0  0  0  0  0  0  0
    3.7420   60.8050   72.7490 N   0  0  0  0  0  4  0  0  0  0  0  0
    5.1580   61.2200   72.4750 C   0  0  0  0  0  0  0  0  0  0  0  0
    3.6830   59.5180   73.5230 C   0  0  0  0  0  0  0  0  0  0  0  0
    3.0709   68.2787   68.0213 H   0  0  0  0  0  0  0  0  0  0  0  0
   -1.4163   67.8106   65.7897 H   0  0  0  0  0  0  0  0  0  0  0  0
   -1.9794   67.3310   68.7299 H   0  0  0  0  0  0  0  0  0  0  0  0
   -1.6647   65.8180   67.8821 H   0  0  0  0  0  0  0  0  0  0  0  0
   -0.7507   66.4297   70.6054 H   0  0  0  0  0  0  0  0  0  0  0  0
    4.1314   69.4236   67.1386 H   0  0  0  0  0  0  0  0  0  0  0  0
    4.6994   68.5327   65.6859 H   0  0  0  0  0  0  0  0  0  0  0  0
    4.6763   70.3288   65.6859 H   0  0  0  0  0  0  0  0  0  0  0  0
    0.2082   67.2639   63.6077 H   0  0  0  0  0  0  0  0  0  0  0  0
   -0.4903   68.6125   62.6486 H   0  0  0  0  0  0  0  0  0  0  0  0
    1.2845   68.3355   62.6486 H   0  0  0  0  0  0  0  0  0  0  0  0
   -0.4870   64.9966   72.3001 H   0  0  0  0  0  0  0  0  0  0  0  0
    0.9103   63.7097   73.9069 H   0  0  0  0  0  0  0  0  0  0  0  0
    2.8388   61.6852   70.6107 H   0  0  0  0  0  0  0  0  0  0  0  0
    1.4347   62.9748   69.0142 H   0  0  0  0  0  0  0  0  0  0  0  0
    3.5629   62.6506   73.7974 H   0  0  0  0  0  0  0  0  0  0  0  0
    2.2173   61.4191   74.0616 H   0  0  0  0  0  0  0  0  0  0  0  0
    3.3094   60.6167   71.8334 H   0  0  0  0  0  0  0  0  0  0  0  0
    5.6856   61.3746   73.4277 H   0  0  0  0  0  0  0  0  0  0  0  0
    5.6657   60.4329   71.8982 H   0  0  0  0  0  0  0  0  0  0  0  0
    5.1605   62.1567   71.8982 H   0  0  0  0  0  0  0  0  0  0  0  0
    3.6931   59.7375   74.6008 H   0  0  0  0  0  0  0  0  0  0  0  0
    2.7592   58.9784   73.2673 H   0  0  0  0  0  0  0  0  0  0  0  0
    4.5536   58.8961   73.2673 H   0  0  0  0  0  0  0  0  0  0  0  0
  2  1  2  0
  3  2  1  0
  4  3  2  0
  5  4  1  0
  6  5  2  0
  6  1  1  0
  7  4  1  0
  8  7  1  0
  9  3  1  0
  9  8  1  0
 10  9  2  0
 12 11  1  0
 12  1  1  0
 13  6  1  0
 14 13  1  0
 15  8  1  0
 16 15  1  0
 17 16  2  0
 18 17  1  0
 19 18  2  0
 20 19  1  0
 21 20  2  0
 21 16  1  0
 22 19  1  0
 23 22  1  0
 24 23  1  0
 25 23  1  0
  2 26  1  0
  5 27  1  0
  7 28  1  0
  7 29  1  0
  8 30  1  1
 11 31  1  0
 11 32  1  0
 11 33  1  0
 14 34  1  0
 14 35  1  0
 14 36  1  0
 17 37  1  0
 18 38  1  0
 20 39  1  0
 21 40  1  0
 22 41  1  0
 22 42  1  0
 23 43  1  0
 24 44  1  0
 24 45  1  0
 24 46  1  0
 25 47  1  0
 25 48  1  0
 25 49  1  0
M  CHG  1  23   1
M  END
>  <score>  (2) 
-8.098

$$$$
=
     RDKit          3D

 49 51  0  0  0  0  0  0  0  0999 V2000
    3.1470   61.4210   73.2090 C   0  0  0  0  0  0  0  0  0  0  0  0
    3.0860   61.9420   71.9130 C   0  0  0  0  0  0  0  0  0  0  0  0
    2.0370   62.7910   71.6120 C   0  0  0  0  0  0  0  0  0  0  0  0
    1.0570   63.1410   72.5270 C   0  0  0  0  0  0  0  0  0  0  0  0
    1.1020   62.6310   73.8160 C   0  0  0  0  0  0  0  0  0  0  0  0
    2.1540   61.7680   74.1660 C   0  0  0  0  0  0  0  0  0  0  0  0
    0.0140   64.0390   71.9380 C   0  0  0  0  0  0  0  0  0  0  0  0
    0.5440   64.3830   70.5220 C   0  0  2  0  0  0  0  0  0  0  0  0
    1.7590   63.4670   70.3530 C   0  0  0  0  0  0  0  0  0  0  0  0
    2.4350   63.3150   69.3470 O   0  0  0  0  0  0  0  0  0  0  0  0
    4.1500   59.2500   73.1300 C   0  0  0  0  0  0  0  0  0  0  0  0
    4.1320   60.5710   73.6520 O   0  0  0  0  0  0  0  0  0  0  0  0
    2.3050   61.2050   75.4090 O   0  0  0  0  0  0  0  0  0  0  0  0
    1.2870   60.3330   75.8750 C   0  0  0  0  0  0  0  0  0  0  0  0
    0.8780   65.7660   70.5040 O   0  0  0  0  0  0  0  0  0  0  0  0
    0.4980   66.5240   69.4350 C   0  0  0  0  0  0  0  0  0  0  0  0
   -0.7090   66.4350   68.7450 C   0  0  0  0  0  0  0  0  0  0  0  0
   -0.9500   67.2530   67.6360 C   0  0  0  0  0  0  0  0  0  0  0  0
    0.0120   68.1740   67.1990 C   0  0  0  0  0  0  0  0  0  0  0  0
    1.2070   68.2860   67.9210 C   0  0  0  0  0  0  0  0  0  0  0  0
    1.4420   67.4670   69.0290 C   0  0  0  0  0  0  0  0  0  0  0  0
   -0.2220   68.9990   65.9630 C   0  0  0  0  0  0  0  0  0  0  0  0
    0.0960   68.3130   64.6480 N   0  0  0  0  0  4  0  0  0  0  0  0
   -0.6000   68.9240   63.4670 C   0  0  0  0  0  0  0  0  0  0  0  0
    1.5670   68.1450   64.3960 C   0  0  0  0  0  0  0  0  0  0  0  0
    3.8455   61.6856   71.1597 H   0  0  0  0  0  0  0  0  0  0  0  0
    0.3281   62.8973   74.5509 H   0  0  0  0  0  0  0  0  0  0  0  0
   -0.9537   63.5198   71.8743 H   0  0  0  0  0  0  0  0  0  0  0  0
   -0.1540   64.9381   72.5490 H   0  0  0  0  0  0  0  0  0  0  0  0
   -0.1700   64.2251   69.7002 H   0  0  0  0  0  0  0  0  0  0  0  0
    4.1598   58.5280   73.9598 H   0  0  0  0  0  0  0  0  0  0  0  0
    3.2540   59.0873   72.5130 H   0  0  0  0  0  0  0  0  0  0  0  0
    5.0501   59.1118   72.5130 H   0  0  0  0  0  0  0  0  0  0  0  0
    1.2826   60.3292   76.9750 H   0  0  0  0  0  0  0  0  0  0  0  0
    0.3104   60.6790   75.5056 H   0  0  0  0  0  0  0  0  0  0  0  0
    1.4789   59.3148   75.5056 H   0  0  0  0  0  0  0  0  0  0  0  0
   -1.4760   65.7183   69.0737 H   0  0  0  0  0  0  0  0  0  0  0  0
   -1.9071   67.1723   67.0999 H   0  0  0  0  0  0  0  0  0  0  0  0
    1.9645   69.0223   67.6144 H   0  0  0  0  0  0  0  0  0  0  0  0
    2.3839   67.5675   69.5882 H   0  0  0  0  0  0  0  0  0  0  0  0
   -1.2829   69.2893   65.9455 H   0  0  0  0  0  0  0  0  0  0  0  0
    0.4707   69.8506   66.0337 H   0  0  0  0  0  0  0  0  0  0  0  0
   -0.2920   67.3654   64.7593 H   0  0  0  0  0  0  0  0  0  0  0  0
   -1.3833   69.6117   63.8184 H   0  0  0  0  0  0  0  0  0  0  0  0
    0.1291   69.4790   62.8585 H   0  0  0  0  0  0  0  0  0  0  0  0
   -1.0559   68.1291   62.8585 H   0  0  0  0  0  0  0  0  0  0  0  0
    2.0990   68.0842   65.3569 H   0  0  0  0  0  0  0  0  0  0  0  0
    1.7378   67.2215   63.8233 H   0  0  0  0  0  0  0  0  0  0  0  0
    1.9416   69.0062   63.8233 H   0  0  0  0  0  0  0  0  0  0  0  0
  2  1  2  0
  3  2  1  0
  4  3  2  0
  5  4  1  0
  6  5  2  0
  6  1  1  0
  7  4  1  0
  8  7  1  0
  9  3  1  0
  9  8  1  0
 10  9  2  0
 12 11  1  0
 12  1  1  0
 13  6  1  0
 14 13  1  0
 15  8  1  0
 16 15  1  0
 17 16  2  0
 18 17  1  0
 19 18  2  0
 20 19  1  0
 21 20  2  0
 21 16  1  0
 22 19  1  0
 23 22  1  0
 24 23  1  0
 25 23  1  0
  2 26  1  0
  5 27  1  0
  7 28  1  0
  7 29  1  0
  8 30  1  6
 11 31  1  0
 11 32  1  0
 11 33  1  0
 14 34  1  0
 14 35  1  0
 14 36  1  0
 17 37  1  0
 18 38  1  0
 20 39  1  0
 21 40  1  0
 22 41  1  0
 22 42  1  0
 23 43  1  0
 24 44  1  0
 24 45  1  0
 24 46  1  0
 25 47  1  0
 25 48  1  0
 25 49  1  0
M  CHG  1  23   1
M  END
>  <score>  (3) 
-8.055

$$$$
=
     RDKit          3D

 49 51  0  0  0  0  0  0  0  0999 V2000
    3.4630   68.6500   64.4550 C   0  0  0  0  0  0  0  0  0  0  0  0
    3.0410   69.3390   65.5950 C   0  0  0  0  0  0  0  0  0  0  0  0
    2.2530   68.6540   66.5020 C   0  0  0  0  0  0  0  0  0  0  0  0
    1.8700   67.3330   66.3300 C   0  0  0  0  0  0  0  0  0  0  0  0
    2.2790   66.6380   65.2020 C   0  0  0  0  0  0  0  0  0  0  0  0
    3.0840   67.2940   64.2580 C   0  0  0  0  0  0  0  0  0  0  0  0
    0.9860   66.8420   67.4340 C   0  0  0  0  0  0  0  0  0  0  0  0
    0.9790   67.9920   68.4750 C   0  0  2  0  0  0  0  0  0  0  0  0
    1.7020   69.1370   67.7610 C   0  0  0  0  0  0  0  0  0  0  0  0
    1.8420   70.2830   68.1580 O   0  0  0  0  0  0  0  0  0  0  0  0
    5.5480   69.6490   63.8360 C   0  0  0  0  0  0  0  0  0  0  0  0
    4.2510   69.1990   63.4720 O   0  0  0  0  0  0  0  0  0  0  0  0
    3.5520   66.7080   63.1070 O   0  0  0  0  0  0  0  0  0  0  0  0
    4.4910   65.6500   63.2320 C   0  0  0  0  0  0  0  0  0  0  0  0
    1.6620   67.5360   69.6370 O   0  0  0  0  0  0  0  0  0  0  0  0
    1.3660   66.3010   70.1350 C   0  0  0  0  0  0  0  0  0  0  0  0
    0.1750   65.9190   70.7490 C   0  0  0  0  0  0  0  0  0  0  0  0
    0.0230   64.6230   71.2510 C   0  0  0  0  0  0  0  0  0  0  0  0
    1.0610   63.6850   71.1480 C   0  0  0  0  0  0  0  0  0  0  0  0
    2.2410   64.0630   70.4950 C   0  0  0  0  0  0  0  0  0  0  0  0
    2.3860   65.3590   69.9940 C   0  0  0  0  0  0  0  0  0  0  0  0
    0.9200   62.3160   71.7550 C   0  0  0  0  0  0  0  0  0  0  0  0
    2.2150   61.6540   72.1850 N   0  0  0  0  0  4  0  0  0  0  0  0
    2.5900   61.9370   73.6110 C   0  0  0  0  0  0  0  0  0  0  0  0
    2.2710   60.1840   71.8810 C   0  0  0  0  0  0  0  0  0  0  0  0
    3.3252   70.3880   65.7649 H   0  0  0  0  0  0  0  0  0  0  0  0
    1.9778   65.5910   65.0498 H   0  0  0  0  0  0  0  0  0  0  0  0
   -0.0309   66.6508   67.0606 H   0  0  0  0  0  0  0  0  0  0  0  0
    1.3441   65.8946   67.8633 H   0  0  0  0  0  0  0  0  0  0  0  0
   -0.0169   68.3187   68.8090 H   0  0  0  0  0  0  0  0  0  0  0  0
    5.6317   69.6780   64.9324 H   0  0  0  0  0  0  0  0  0  0  0  0
    6.3028   68.9602   63.4287 H   0  0  0  0  0  0  0  0  0  0  0  0
    5.7140   70.6573   63.4287 H   0  0  0  0  0  0  0  0  0  0  0  0
    4.6728   65.4451   64.2973 H   0  0  0  0  0  0  0  0  0  0  0  0
    4.0920   64.7465   62.7477 H   0  0  0  0  0  0  0  0  0  0  0  0
    5.4355   65.9389   62.7477 H   0  0  0  0  0  0  0  0  0  0  0  0
   -0.6500   66.6409   70.8393 H   0  0  0  0  0  0  0  0  0  0  0  0
   -0.9229   64.3351   71.7330 H   0  0  0  0  0  0  0  0  0  0  0  0
    3.0577   63.3358   70.3760 H   0  0  0  0  0  0  0  0  0  0  0  0
    3.3174   65.6410   69.4811 H   0  0  0  0  0  0  0  0  0  0  0  0
    0.2740   62.4034   72.6410 H   0  0  0  0  0  0  0  0  0  0  0  0
    0.5035   61.6767   70.9627 H   0  0  0  0  0  0  0  0  0  0  0  0
    2.9328   62.1018   71.5975 H   0  0  0  0  0  0  0  0  0  0  0  0
    1.8953   61.4128   74.2838 H   0  0  0  0  0  0  0  0  0  0  0  0
    3.6157   61.5859   73.7970 H   0  0  0  0  0  0  0  0  0  0  0  0
    2.5337   63.0197   73.7970 H   0  0  0  0  0  0  0  0  0  0  0  0
    2.2927   59.6155   72.8224 H   0  0  0  0  0  0  0  0  0  0  0  0
    1.3832   59.8959   71.2990 H   0  0  0  0  0  0  0  0  0  0  0  0
    3.1782   59.9642   71.2990 H   0  0  0  0  0  0  0  0  0  0  0  0
  2  1  2  0
  3  2  1  0
  4  3  2  0
  5  4  1  0
  6  5  2  0
  6  1  1  0
  7  4  1  0
  8  7  1  0
  9  3  1  0
  9  8  1  0
 10  9  2  0
 12 11  1  0
 12  1  1  0
 13  6  1  0
 14 13  1  0
 15  8  1  0
 16 15  1  0
 17 16  2  0
 18 17  1  0
 19 18  2  0
 20 19  1  0
 21 20  2  0
 21 16  1  0
 22 19  1  0
 23 22  1  0
 24 23  1  0
 25 23  1  0
  2 26  1  0
  5 27  1  0
  7 28  1  0
  7 29  1  0
  8 30  1  1
 11 31  1  0
 11 32  1  0
 11 33  1  0
 14 34  1  0
 14 35  1  0
 14 36  1  0
 17 37  1  0
 18 38  1  0
 20 39  1  0
 21 40  1  0
 22 41  1  0
 22 42  1  0
 23 43  1  0
 24 44  1  0
 24 45  1  0
 24 46  1  0
 25 47  1  0
 25 48  1  0
 25 49  1  0
M  CHG  1  23   1
M  END
>  <score>  (4) 
-7.966

$$$$
=
     RDKit          3D

 49 51  0  0  0  0  0  0  0  0999 V2000
    2.8100   62.4030   70.1060 C   0  0  0  0  0  0  0  0  0  0  0  0
    3.2170   61.0720   69.9760 C   0  0  0  0  0  0  0  0  0  0  0  0
    2.9390   60.2120   71.0230 C   0  0  0  0  0  0  0  0  0  0  0  0
    2.2850   60.6090   72.1790 C   0  0  0  0  0  0  0  0  0  0  0  0
    1.8780   61.9270   72.3230 C   0  0  0  0  0  0  0  0  0  0  0  0
    2.1360   62.8320   71.2820 C   0  0  0  0  0  0  0  0  0  0  0  0
    2.1450   59.4970   73.1720 C   0  0  0  0  0  0  0  0  0  0  0  0
    2.6540   58.2360   72.4260 C   0  0  2  0  0  0  0  0  0  0  0  0
    3.2430   58.7910   71.1260 C   0  0  0  0  0  0  0  0  0  0  0  0
    3.8550   58.1730   70.2690 O   0  0  0  0  0  0  0  0  0  0  0  0
    3.7710   63.0110   68.0010 C   0  0  0  0  0  0  0  0  0  0  0  0
    3.0130   63.3670   69.1480 O   0  0  0  0  0  0  0  0  0  0  0  0
    1.7770   64.1580   71.3100 O   0  0  0  0  0  0  0  0  0  0  0  0
    0.3960   64.4730   71.4070 C   0  0  0  0  0  0  0  0  0  0  0  0
    1.5420   57.3740   72.2140 O   0  0  0  0  0  0  0  0  0  0  0  0
    1.1060   56.5940   73.2450 C   0  0  0  0  0  0  0  0  0  0  0  0
    1.8950   55.8070   74.0800 C   0  0  0  0  0  0  0  0  0  0  0  0
    1.3050   55.0220   75.0760 C   0  0  0  0  0  0  0  0  0  0  0  0
   -0.0850   55.0110   75.2550 C   0  0  0  0  0  0  0  0  0  0  0  0
   -0.8700   55.8350   74.4370 C   0  0  0  0  0  0  0  0  0  0  0  0
   -0.2750   56.6180   73.4440 C   0  0  0  0  0  0  0  0  0  0  0  0
   -0.7200   54.1110   76.2790 C   0  0  0  0  0  0  0  0  0  0  0  0
   -2.0480   53.4990   75.8780 N   0  0  0  0  0  4  0  0  0  0  0  0
   -1.9130   52.1950   75.1470 C   0  0  0  0  0  0  0  0  0  0  0  0
   -3.0320   53.3970   77.0090 C   0  0  0  0  0  0  0  0  0  0  0  0
    3.7394   60.7213   69.0737 H   0  0  0  0  0  0  0  0  0  0  0  0
    1.3622   62.2570   73.2368 H   0  0  0  0  0  0  0  0  0  0  0  0
    2.7581   59.6939   74.0638 H   0  0  0  0  0  0  0  0  0  0  0  0
    1.1094   59.3821   73.5246 H   0  0  0  0  0  0  0  0  0  0  0  0
    3.4085   57.6433   72.9640 H   0  0  0  0  0  0  0  0  0  0  0  0
    4.7248   62.5630   68.3164 H   0  0  0  0  0  0  0  0  0  0  0  0
    3.2058   62.2842   67.3991 H   0  0  0  0  0  0  0  0  0  0  0  0
    3.9694   63.9101   67.3991 H   0  0  0  0  0  0  0  0  0  0  0  0
    0.1084   64.5386   72.4667 H   0  0  0  0  0  0  0  0  0  0  0  0
    0.2045   65.4379   70.9147 H   0  0  0  0  0  0  0  0  0  0  0  0
   -0.1949   63.6866   70.9147 H   0  0  0  0  0  0  0  0  0  0  0  0
    2.9879   55.8027   73.9556 H   0  0  0  0  0  0  0  0  0  0  0  0
    1.9407   54.4048   75.7278 H   0  0  0  0  0  0  0  0  0  0  0  0
   -1.9606   55.8656   74.5774 H   0  0  0  0  0  0  0  0  0  0  0  0
   -0.9035   57.2616   72.8110 H   0  0  0  0  0  0  0  0  0  0  0  0
   -0.0187   53.2902   76.4898 H   0  0  0  0  0  0  0  0  0  0  0  0
   -0.9325   54.7483   77.1500 H   0  0  0  0  0  0  0  0  0  0  0  0
   -2.4417   54.1738   75.2068 H   0  0  0  0  0  0  0  0  0  0  0  0
   -1.8280   51.3741   75.8742 H   0  0  0  0  0  0  0  0  0  0  0  0
   -2.7994   52.0352   74.5155 H   0  0  0  0  0  0  0  0  0  0  0  0
   -1.0127   52.2201   74.5155 H   0  0  0  0  0  0  0  0  0  0  0  0
   -2.4957   53.4526   77.9678 H   0  0  0  0  0  0  0  0  0  0  0  0
   -3.7529   54.2252   76.9436 H   0  0  0  0  0  0  0  0  0  0  0  0
   -3.5677   52.4385   76.9436 H   0  0  0  0  0  0  0  0  0  0  0  0
  2  1  2  0
  3  2  1  0
  4  3  2  0
  5  4  1  0
  6  5  2  0
  6  1  1  0
  7  4  1  0
  8  7  1  0
  9  3  1  0
  9  8  1  0
 10  9  2  0
 12 11  1  0
 12  1  1  0
 13  6  1  0
 14 13  1  0
 15  8  1  0
 16 15  1  0
 17 16  2  0
 18 17  1  0
 19 18  2  0
 20 19  1  0
 21 20  2  0
 21 16  1  0
 22 19  1  0
 23 22  1  0
 24 23  1  0
 25 23  1  0
  2 26  1  0
  5 27  1  0
  7 28  1  0
  7 29  1  0
  8 30  1  1
 11 31  1  0
 11 32  1  0
 11 33  1  0
 14 34  1  0
 14 35  1  0
 14 36  1  0
 17 37  1  0
 18 38  1  0
 20 39  1  0
 21 40  1  0
 22 41  1  0
 22 42  1  0
 23 43  1  0
 24 44  1  0
 24 45  1  0
 24 46  1  0
 25 47  1  0
 25 48  1  0
 25 49  1  0
M  CHG  1  23   1
M  END
>  <score>  (5) 
-7.255

$$$$
=
     RDKit          3D

 49 51  0  0  0  0  0  0  0  0999 V2000
    0.9910   64.0540   71.5510 C   0  0  0  0  0  0  0  0  0  0  0  0
    2.0480   63.4930   70.8290 C   0  0  0  0  0  0  0  0  0  0  0  0
    2.9050   62.6420   71.5040 C   0  0  0  0  0  0  0  0  0  0  0  0
    2.7610   62.3270   72.8450 C   0  0  0  0  0  0  0  0  0  0  0  0
    1.7180   62.8770   73.5760 C   0  0  0  0  0  0  0  0  0  0  0  0
    0.8220   63.7430   72.9280 C   0  0  0  0  0  0  0  0  0  0  0  0
    3.8420   61.4180   73.3420 C   0  0  0  0  0  0  0  0  0  0  0  0
    4.6420   61.0260   72.0730 C   0  0  2  0  0  0  0  0  0  0  0  0
    4.0620   61.9290   70.9800 C   0  0  0  0  0  0  0  0  0  0  0  0
    4.4570   62.0450   69.8310 O   0  0  0  0  0  0  0  0  0  0  0  0
    0.5370   66.0320   70.2830 C   0  0  0  0  0  0  0  0  0  0  0  0
    0.0610   64.9100   71.0140 O   0  0  0  0  0  0  0  0  0  0  0  0
   -0.2480   64.3430   73.5450 O   0  0  0  0  0  0  0  0  0  0  0  0
   -0.0350   64.9430   74.8150 C   0  0  0  0  0  0  0  0  0  0  0  0
    4.4250   59.6410   71.8280 O   0  0  0  0  0  0  0  0  0  0  0  0
    3.6220   58.9380   72.6780 C   0  0  0  0  0  0  0  0  0  0  0  0
    3.8590   58.6920   74.0280 C   0  0  0  0  0  0  0  0  0  0  0  0
    2.9630   57.9180   74.7730 C   0  0  0  0  0  0  0  0  0  0  0  0
    1.8140   57.3760   74.1790 C   0  0  0  0  0  0  0  0  0  0  0  0
    1.5610   57.6600   72.8310 C   0  0  0  0  0  0  0  0  0  0  0  0
    2.4590   58.4350   72.0920 C   0  0  0  0  0  0  0  0  0  0  0  0
    0.8930   56.4830   74.9650 C   0  0  0  0  0  0  0  0  0  0  0  0
    0.6410   55.1130   74.3660 N   0  0  0  0  0  4  0  0  0  0  0  0
    1.8560   54.2320   74.3470 C   0  0  0  0  0  0  0  0  0  0  0  0
   -0.5450   54.4050   74.9580 C   0  0  0  0  0  0  0  0  0  0  0  0
    2.1933   63.7199   69.7625 H   0  0  0  0  0  0  0  0  0  0  0  0
    1.5951   62.6393   74.6430 H   0  0  0  0  0  0  0  0  0  0  0  0
    4.4885   61.9416   74.0616 H   0  0  0  0  0  0  0  0  0  0  0  0
    3.4382   60.5397   73.8669 H   0  0  0  0  0  0  0  0  0  0  0  0
    5.7313   61.1622   72.1429 H   0  0  0  0  0  0  0  0  0  0  0  0
    0.8681   66.8125   70.9838 H   0  0  0  0  0  0  0  0  0  0  0  0
    1.3825   65.7252   69.6497 H   0  0  0  0  0  0  0  0  0  0  0  0
   -0.2712   66.4267   69.6497 H   0  0  0  0  0  0  0  0  0  0  0  0
   -0.2902   64.2242   75.6076 H   0  0  0  0  0  0  0  0  0  0  0  0
    1.0214   65.2342   74.9104 H   0  0  0  0  0  0  0  0  0  0  0  0
   -0.6713   65.8352   74.9104 H   0  0  0  0  0  0  0  0  0  0  0  0
    4.7553   59.1084   74.5110 H   0  0  0  0  0  0  0  0  0  0  0  0
    3.1623   57.7321   75.8387 H   0  0  0  0  0  0  0  0  0  0  0  0
    0.6507   57.2710   72.3515 H   0  0  0  0  0  0  0  0  0  0  0  0
    2.2466   58.6515   71.0346 H   0  0  0  0  0  0  0  0  0  0  0  0
    1.3308   56.3404   75.9640 H   0  0  0  0  0  0  0  0  0  0  0  0
   -0.0825   56.9911   74.9757 H   0  0  0  0  0  0  0  0  0  0  0  0
    0.4048   55.3088   73.3828 H   0  0  0  0  0  0  0  0  0  0  0  0
    2.1634   54.0091   75.3794 H   0  0  0  0  0  0  0  0  0  0  0  0
    1.6203   53.2935   73.8239 H   0  0  0  0  0  0  0  0  0  0  0  0
    2.6747   54.7477   73.8239 H   0  0  0  0  0  0  0  0  0  0  0  0
   -0.4836   54.4417   76.0557 H   0  0  0  0  0  0  0  0  0  0  0  0
   -1.4701   54.8987   74.6258 H   0  0  0  0  0  0  0  0  0  0  0  0
   -0.5494   53.3564   74.6258 H   0  0  0  0  0  0  0  0  0  0  0  0
  2  1  2  0
  3  2  1  0
  4  3  2  0
  5  4  1  0
  6  5  2  0
  6  1  1  0
  7  4  1  0
  8  7  1  0
  9  3  1  0
  9  8  1  0
 10  9  2  0
 12 11  1  0
 12  1  1  0
 13  6  1  0
 14 13  1  0
 15  8  1  0
 16 15  1  0
 17 16  2  0
 18 17  1  0
 19 18  2  0
 20 19  1  0
 21 20  2  0
 21 16  1  0
 22 19  1  0
 23 22  1  0
 24 23  1  0
 25 23  1  0
  2 26  1  0
  5 27  1  0
  7 28  1  0
  7 29  1  0
  8 30  1  1
 11 31  1  0
 11 32  1  0
 11 33  1  0
 14 34  1  0
 14 35  1  0
 14 36  1  0
 17 37  1  0
 18 38  1  0
 20 39  1  0
 21 40  1  0
 22 41  1  0
 22 42  1  0
 23 43  1  0
 24 44  1  0
 24 45  1  0
 24 46  1  0
 25 47  1  0
 25 48  1  0
 25 49  1  0
M  CHG  1  23   1
M  END
>  <score>  (6) 
-7.112

$$$$
=
     RDKit          3D

 49 51  0  0  0  0  0  0  0  0999 V2000
    1.9150   62.5780   70.3000 C   0  0  0  0  0  0  0  0  0  0  0  0
    2.2810   61.4280   71.0050 C   0  0  0  0  0  0  0  0  0  0  0  0
    1.4850   61.0490   72.0700 C   0  0  0  0  0  0  0  0  0  0  0  0
    0.3570   61.7510   72.4630 C   0  0  0  0  0  0  0  0  0  0  0  0
   -0.0180   62.8950   71.7750 C   0  0  0  0  0  0  0  0  0  0  0  0
    0.7590   63.3140   70.6840 C   0  0  0  0  0  0  0  0  0  0  0  0
   -0.3020   61.1540   73.6680 C   0  0  0  0  0  0  0  0  0  0  0  0
    0.4630   59.8290   73.9200 C   0  0  2  0  0  0  0  0  0  0  0  0
    1.6430   59.8960   72.9460 C   0  0  0  0  0  0  0  0  0  0  0  0
    2.5770   59.1140   72.8630 O   0  0  0  0  0  0  0  0  0  0  0  0
    4.0240   63.0750   69.2860 C   0  0  0  0  0  0  0  0  0  0  0  0
    2.6050   63.0720   69.2200 O   0  0  0  0  0  0  0  0  0  0  0  0
    0.4850   64.4260   69.9260 O   0  0  0  0  0  0  0  0  0  0  0  0
    0.3830   65.6760   70.5900 C   0  0  0  0  0  0  0  0  0  0  0  0
   -0.4260   58.7510   73.6500 O   0  0  0  0  0  0  0  0  0  0  0  0
   -0.1060   57.5030   74.0980 C   0  0  0  0  0  0  0  0  0  0  0  0
    0.0090   56.3500   73.3260 C   0  0  0  0  0  0  0  0  0  0  0  0
    0.3050   55.1230   73.9280 C   0  0  0  0  0  0  0  0  0  0  0  0
    0.4920   55.0280   75.3150 C   0  0  0  0  0  0  0  0  0  0  0  0
    0.4130   56.1980   76.0810 C   0  0  0  0  0  0  0  0  0  0  0  0
    0.1180   57.4210   75.4730 C   0  0  0  0  0  0  0  0  0  0  0  0
    0.7370   53.6950   75.9660 C   0  0  0  0  0  0  0  0  0  0  0  0
    0.3430   53.5980   77.4270 N   0  0  0  0  0  4  0  0  0  0  0  0
   -1.0420   53.0610   77.6420 C   0  0  0  0  0  0  0  0  0  0  0  0
    1.3520   52.8790   78.2780 C   0  0  0  0  0  0  0  0  0  0  0  0
    3.1703   60.8454   70.7227 H   0  0  0  0  0  0  0  0  0  0  0  0
   -0.9089   63.4641   72.0790 H   0  0  0  0  0  0  0  0  0  0  0  0
   -0.2090   61.8261   74.5338 H   0  0  0  0  0  0  0  0  0  0  0  0
   -1.3788   60.9898   73.5147 H   0  0  0  0  0  0  0  0  0  0  0  0
    0.8247   59.6825   74.9484 H   0  0  0  0  0  0  0  0  0  0  0  0
    4.3421   63.0757   70.3390 H   0  0  0  0  0  0  0  0  0  0  0  0
    4.4163   62.1777   68.7851 H   0  0  0  0  0  0  0  0  0  0  0  0
    4.4125   63.9740   68.7851 H   0  0  0  0  0  0  0  0  0  0  0  0
    0.3961   65.5153   71.6781 H   0  0  0  0  0  0  0  0  0  0  0  0
    1.2321   66.3139   70.3033 H   0  0  0  0  0  0  0  0  0  0  0  0
   -0.5583   66.1678   70.3033 H   0  0  0  0  0  0  0  0  0  0  0  0
   -0.1338   56.4046   72.2367 H   0  0  0  0  0  0  0  0  0  0  0  0
    0.3924   54.2203   73.3056 H   0  0  0  0  0  0  0  0  0  0  0  0
    0.5841   56.1538   77.1667 H   0  0  0  0  0  0  0  0  0  0  0  0
    0.0615   58.3320   76.0869 H   0  0  0  0  0  0  0  0  0  0  0  0
    0.1659   52.9367   75.4102 H   0  0  0  0  0  0  0  0  0  0  0  0
    1.8258   53.5410   75.9367 H   0  0  0  0  0  0  0  0  0  0  0  0
    0.3324   54.5763   77.7490 H   0  0  0  0  0  0  0  0  0  0  0  0
   -1.2418   52.9835   78.7209 H   0  0  0  0  0  0  0  0  0  0  0  0
   -1.7743   53.7404   77.1813 H   0  0  0  0  0  0  0  0  0  0  0  0
   -1.1249   52.0656   77.1813 H   0  0  0  0  0  0  0  0  0  0  0  0
    1.1200   53.0444   79.3405 H   0  0  0  0  0  0  0  0  0  0  0  0
    1.3160   51.8018   78.0582 H   0  0  0  0  0  0  0  0  0  0  0  0
    2.3584   53.2647   78.0582 H   0  0  0  0  0  0  0  0  0  0  0  0
  2  1  2  0
  3  2  1  0
  4  3  2  0
  5  4  1  0
  6  5  2  0
  6  1  1  0
  7  4  1  0
  8  7  1  0
  9  3  1  0
  9  8  1  0
 10  9  2  0
 12 11  1  0
 12  1  1  0
 13  6  1  0
 14 13  1  0
 15  8  1  0
 16 15  1  0
 17 16  2  0
 18 17  1  0
 19 18  2  0
 20 19  1  0
 21 20  2  0
 21 16  1  0
 22 19  1  0
 23 22  1  0
 24 23  1  0
 25 23  1  0
  2 26  1  0
  5 27  1  0
  7 28  1  0
  7 29  1  0
  8 30  1  1
 11 31  1  0
 11 32  1  0
 11 33  1  0
 14 34  1  0
 14 35  1  0
 14 36  1  0
 17 37  1  0
 18 38  1  0
 20 39  1  0
 21 40  1  0
 22 41  1  0
 22 42  1  0
 23 43  1  0
 24 44  1  0
 24 45  1  0
 24 46  1  0
 25 47  1  0
 25 48  1  0
 25 49  1  0
M  CHG  1  23   1
M  END
>  <score>  (7) 
-6.815

$$$$
=
     RDKit          3D

 49 51  0  0  0  0  0  0  0  0999 V2000
    2.2170   63.4550   70.4900 C   0  0  0  0  0  0  0  0  0  0  0  0
    2.7800   62.6060   71.4470 C   0  0  0  0  0  0  0  0  0  0  0  0
    2.1640   62.5360   72.6830 C   0  0  0  0  0  0  0  0  0  0  0  0
    1.0290   63.2620   73.0080 C   0  0  0  0  0  0  0  0  0  0  0  0
    0.4600   64.1100   72.0710 C   0  0  0  0  0  0  0  0  0  0  0  0
    1.0510   64.2080   70.8010 C   0  0  0  0  0  0  0  0  0  0  0  0
    0.5870   63.0360   74.4210 C   0  0  0  0  0  0  0  0  0  0  0  0
    1.5050   61.9020   74.9450 C   0  0  2  0  0  0  0  0  0  0  0  0
    2.5420   61.7250   73.8330 C   0  0  0  0  0  0  0  0  0  0  0  0
    3.5320   61.0100   73.8520 O   0  0  0  0  0  0  0  0  0  0  0  0
    3.7770   62.7740   68.8090 C   0  0  0  0  0  0  0  0  0  0  0  0
    2.7160   63.6230   69.2210 O   0  0  0  0  0  0  0  0  0  0  0  0
    0.5770   65.0100   69.7920 O   0  0  0  0  0  0  0  0  0  0  0  0
    0.7110   66.4160   69.9390 C   0  0  0  0  0  0  0  0  0  0  0  0
    0.7000   60.7460   75.1480 O   0  0  0  0  0  0  0  0  0  0  0  0
   -0.6530   60.8500   75.0070 C   0  0  0  0  0  0  0  0  0  0  0  0
   -1.3770   60.6830   73.8290 C   0  0  0  0  0  0  0  0  0  0  0  0
   -2.7650   60.8590   73.8230 C   0  0  0  0  0  0  0  0  0  0  0  0
   -3.4520   61.2050   74.9960 C   0  0  0  0  0  0  0  0  0  0  0  0
   -2.7220   61.3320   76.1850 C   0  0  0  0  0  0  0  0  0  0  0  0
   -1.3360   61.1540   76.1850 C   0  0  0  0  0  0  0  0  0  0  0  0
   -4.9330   61.4650   74.9680 C   0  0  0  0  0  0  0  0  0  0  0  0
   -5.7820   60.3520   74.3840 N   0  0  0  0  0  4  0  0  0  0  0  0
   -6.1690   59.3020   75.3840 C   0  0  0  0  0  0  0  0  0  0  0  0
   -6.9740   60.8450   73.6120 C   0  0  0  0  0  0  0  0  0  0  0  0
    3.6807   62.0148   71.2249 H   0  0  0  0  0  0  0  0  0  0  0  0
   -0.4380   64.6955   72.3176 H   0  0  0  0  0  0  0  0  0  0  0  0
    0.7191   63.9495   75.0194 H   0  0  0  0  0  0  0  0  0  0  0  0
   -0.4788   62.7717   74.4860 H   0  0  0  0  0  0  0  0  0  0  0  0
    2.0045   62.1062   75.9035 H   0  0  0  0  0  0  0  0  0  0  0  0
    4.2859   62.3668   69.6951 H   0  0  0  0  0  0  0  0  0  0  0  0
    3.3724   61.9475   68.2064 H   0  0  0  0  0  0  0  0  0  0  0  0
    4.4946   63.3500   68.2064 H   0  0  0  0  0  0  0  0  0  0  0  0
    0.7354   66.6722   71.0085 H   0  0  0  0  0  0  0  0  0  0  0  0
    1.6448   66.7473   69.4612 H   0  0  0  0  0  0  0  0  0  0  0  0
   -0.1434   66.9177   69.4612 H   0  0  0  0  0  0  0  0  0  0  0  0
   -0.8553   60.4116   72.8994 H   0  0  0  0  0  0  0  0  0  0  0  0
   -3.3250   60.7242   72.8859 H   0  0  0  0  0  0  0  0  0  0  0  0
   -3.2426   61.5731   77.1235 H   0  0  0  0  0  0  0  0  0  0  0  0
   -0.7759   61.2549   77.1264 H   0  0  0  0  0  0  0  0  0  0  0  0
   -5.2660   61.6379   76.0020 H   0  0  0  0  0  0  0  0  0  0  0  0
   -5.0743   62.3313   74.3050 H   0  0  0  0  0  0  0  0  0  0  0  0
   -5.1601   59.8934   73.7029 H   0  0  0  0  0  0  0  0  0  0  0  0
   -6.0246   59.6939   76.4016 H   0  0  0  0  0  0  0  0  0  0  0  0
   -7.2258   59.0319   75.2417 H   0  0  0  0  0  0  0  0  0  0  0  0
   -5.5403   58.4107   75.2417 H   0  0  0  0  0  0  0  0  0  0  0  0
   -7.7569   61.1688   74.3136 H   0  0  0  0  0  0  0  0  0  0  0  0
   -6.6754   61.6934   72.9788 H   0  0  0  0  0  0  0  0  0  0  0  0
   -7.3619   60.0335   72.9788 H   0  0  0  0  0  0  0  0  0  0  0  0
  2  1  2  0
  3  2  1  0
  4  3  2  0
  5  4  1  0
  6  5  2  0
  6  1  1  0
  7  4  1  0
  8  7  1  0
  9  3  1  0
  9  8  1  0
 10  9  2  0
 12 11  1  0
 12  1  1  0
 13  6  1  0
 14 13  1  0
 15  8  1  0
 16 15  1  0
 17 16  2  0
 18 17  1  0
 19 18  2  0
 20 19  1  0
 21 20  2  0
 21 16  1  0
 22 19  1  0
 23 22  1  0
 24 23  1  0
 25 23  1  0
  2 26  1  0
  5 27  1  0
  7 28  1  0
  7 29  1  0
  8 30  1  1
 11 31  1  0
 11 32  1  0
 11 33  1  0
 14 34  1  0
 14 35  1  0
 14 36  1  0
 17 37  1  0
 18 38  1  0
 20 39  1  0
 21 40  1  0
 22 41  1  0
 22 42  1  0
 23 43  1  0
 24 44  1  0
 24 45  1  0
 24 46  1  0
 25 47  1  0
 25 48  1  0
 25 49  1  0
M  CHG  1  23   1
M  END
>  <score>  (8) 
-6.787

$$$$
=
     RDKit          3D

 49 51  0  0  0  0  0  0  0  0999 V2000
    1.2840   62.7230   74.1790 C   0  0  0  0  0  0  0  0  0  0  0  0
    1.3560   62.8270   72.7880 C   0  0  0  0  0  0  0  0  0  0  0  0
    0.7630   63.9280   72.1960 C   0  0  0  0  0  0  0  0  0  0  0  0
    0.1090   64.9160   72.9140 C   0  0  0  0  0  0  0  0  0  0  0  0
    0.0270   64.8260   74.2950 C   0  0  0  0  0  0  0  0  0  0  0  0
    0.6200   63.7270   74.9370 C   0  0  0  0  0  0  0  0  0  0  0  0
   -0.4790   65.9740   72.0320 C   0  0  0  0  0  0  0  0  0  0  0  0
    0.0360   65.6330   70.6100 C   0  0  2  0  0  0  0  0  0  0  0  0
    0.7120   64.2700   70.7810 C   0  0  0  0  0  0  0  0  0  0  0  0
    1.1730   63.5590   69.9020 O   0  0  0  0  0  0  0  0  0  0  0  0
    1.2920   60.3900   74.7110 C   0  0  0  0  0  0  0  0  0  0  0  0
    1.8300   61.6910   74.9040 O   0  0  0  0  0  0  0  0  0  0  0  0
    0.6070   63.5320   76.2970 O   0  0  0  0  0  0  0  0  0  0  0  0
   -0.6530   63.4500   76.9460 C   0  0  0  0  0  0  0  0  0  0  0  0
    0.9390   66.6600   70.2140 O   0  0  0  0  0  0  0  0  0  0  0  0
    0.8480   67.1680   68.9510 C   0  0  0  0  0  0  0  0  0  0  0  0
   -0.1100   66.8420   67.9940 C   0  0  0  0  0  0  0  0  0  0  0  0
   -0.0570   67.4150   66.7190 C   0  0  0  0  0  0  0  0  0  0  0  0
    0.9550   68.3230   66.3790 C   0  0  0  0  0  0  0  0  0  0  0  0
    1.8920   68.6760   67.3580 C   0  0  0  0  0  0  0  0  0  0  0  0
    1.8350   68.1020   68.6310 C   0  0  0  0  0  0  0  0  0  0  0  0
    1.0490   68.8790   64.9840 C   0  0  0  0  0  0  0  0  0  0  0  0
    2.2400   68.4080   64.1710 N   0  0  0  0  0  4  0  0  0  0  0  0
    3.5290   69.0750   64.5520 C   0  0  0  0  0  0  0  0  0  0  0  0
    2.3840   66.9130   64.1250 C   0  0  0  0  0  0  0  0  0  0  0  0
    1.8658   62.0612   72.1849 H   0  0  0  0  0  0  0  0  0  0  0  0
   -0.4930   65.6012   74.8770 H   0  0  0  0  0  0  0  0  0  0  0  0
   -1.5780   65.9397   72.0650 H   0  0  0  0  0  0  0  0  0  0  0  0
   -0.1888   66.9870   72.3476 H   0  0  0  0  0  0  0  0  0  0  0  0
   -0.7372   65.5799   69.8294 H   0  0  0  0  0  0  0  0  0  0  0  0
    1.0994   59.9241   75.6887 H   0  0  0  0  0  0  0  0  0  0  0  0
    0.3501   60.4626   74.1475 H   0  0  0  0  0  0  0  0  0  0  0  0
    2.0101   59.7762   74.1475 H   0  0  0  0  0  0  0  0  0  0  0  0
   -0.5053   63.4596   78.0360 H   0  0  0  0  0  0  0  0  0  0  0  0
   -1.2733   64.3097   76.6524 H   0  0  0  0  0  0  0  0  0  0  0  0
   -1.1566   62.5172   76.6524 H   0  0  0  0  0  0  0  0  0  0  0  0
   -0.9118   66.1309   68.2419 H   0  0  0  0  0  0  0  0  0  0  0  0
   -0.8203   67.1492   65.9728 H   0  0  0  0  0  0  0  0  0  0  0  0
    2.6776   69.4094   67.1237 H   0  0  0  0  0  0  0  0  0  0  0  0
    2.5771   68.3898   69.3903 H   0  0  0  0  0  0  0  0  0  0  0  0
    0.1351   68.5927   64.4430 H   0  0  0  0  0  0  0  0  0  0  0  0
    1.1741   69.9657   65.1003 H   0  0  0  0  0  0  0  0  0  0  0  0
    2.0252   68.7116   63.2105 H   0  0  0  0  0  0  0  0  0  0  0  0
    3.6101   69.1170   65.6482 H   0  0  0  0  0  0  0  0  0  0  0  0
    4.3737   68.5008   64.1435 H   0  0  0  0  0  0  0  0  0  0  0  0
    3.5482   70.0962   64.1435 H   0  0  0  0  0  0  0  0  0  0  0  0
    2.4222   66.5166   65.1504 H   0  0  0  0  0  0  0  0  0  0  0  0
    1.5236   66.4779   63.5955 H   0  0  0  0  0  0  0  0  0  0  0  0
    3.3116   66.6501   63.5955 H   0  0  0  0  0  0  0  0  0  0  0  0
  2  1  2  0
  3  2  1  0
  4  3  2  0
  5  4  1  0
  6  5  2  0
  6  1  1  0
  7  4  1  0
  8  7  1  0
  9  3  1  0
  9  8  1  0
 10  9  2  0
 12 11  1  0
 12  1  1  0
 13  6  1  0
 14 13  1  0
 15  8  1  0
 16 15  1  0
 17 16  2  0
 18 17  1  0
 19 18  2  0
 20 19  1  0
 21 20  2  0
 21 16  1  0
 22 19  1  0
 23 22  1  0
 24 23  1  0
 25 23  1  0
  2 26  1  0
  5 27  1  0
  7 28  1  0
  7 29  1  0
  8 30  1  6
 11 31  1  0
 11 32  1  0
 11 33  1  0
 14 34  1  0
 14 35  1  0
 14 36  1  0
 17 37  1  0
 18 38  1  0
 20 39  1  0
 21 40  1  0
 22 41  1  0
 22 42  1  0
 23 43  1  0
 24 44  1  0
 24 45  1  0
 24 46  1  0
 25 47  1  0
 25 48  1  0
 25 49  1  0
M  CHG  1  23   1
M  END
>  <score>  (9) 
-6.6

$$$$
