=
     RDKit          3D

 57 60  0  0  0  0  0  0  0  0999 V2000
    1.6350   66.5330   66.4120 O   0  0  0  0  0  0  0  0  0  0  0  0
    1.1560   67.5580   66.8980 C   0  0  0  0  0  0  0  0  0  0  0  0
    1.6910   68.8330   66.8180 N   0  0  0  0  0  0  0  0  0  0  0  0
    2.9000   69.1350   66.1280 C   0  0  0  0  0  0  0  0  0  0  0  0
    3.9830   69.6340   66.8700 C   0  0  0  0  0  0  0  0  0  0  0  0
    4.0140   69.8570   68.3620 C   0  0  0  0  0  0  0  0  0  0  0  0
    4.7670   71.1400   68.7360 C   0  0  0  0  0  0  0  0  0  0  0  0
    6.0450   71.3960   67.9290 C   0  0  0  0  0  0  0  0  0  0  0  0
    6.4030   70.2660   66.9700 C   0  0  0  0  0  0  0  0  0  0  0  0
    5.1860   69.8330   66.1900 C   0  0  0  0  0  0  0  0  0  0  0  0
    5.3480   69.6160   64.8710 N   0  0  0  0  0  0  0  0  0  0  0  0
    4.2920   69.2260   64.1500 C   0  0  0  0  0  0  0  0  0  0  0  0
    3.0210   68.9810   64.7140 C   0  0  0  0  0  0  0  0  0  0  0  0
    1.9590   68.6680   63.8220 C   0  0  0  0  0  0  0  0  0  0  0  0
    2.1620   68.5420   62.4470 C   0  0  0  0  0  0  0  0  0  0  0  0
    3.4300   68.7390   61.9260 C   0  0  0  0  0  0  0  0  0  0  0  0
    4.4750   69.0830   62.7810 C   0  0  0  0  0  0  0  0  0  0  0  0
   -0.1430   67.4980   67.7170 C   0  0  0  0  0  0  0  0  0  0  0  0
   -0.0100   66.4150   68.6900 N   0  0  0  0  0  0  0  0  0  0  0  0
    0.8390   66.5910   69.7580 C   0  0  0  0  0  0  0  0  0  0  0  0
    1.7400   67.4310   69.7810 O   0  0  0  0  0  0  0  0  0  0  0  0
    0.6490   65.6640   70.9680 C   0  0  1  0  0  0  0  0  0  0  0  0
   -0.5930   66.1000   71.7120 N   0  0  0  0  0  4  0  0  0  0  0  0
    0.5040   64.1960   70.5410 C   0  0  0  0  0  0  0  0  0  0  0  0
    1.8370   63.5300   70.2950 C   0  0  0  0  0  0  0  0  0  0  0  0
    3.0250   64.1190   70.7510 C   0  0  0  0  0  0  0  0  0  0  0  0
    4.2470   63.4720   70.5650 C   0  0  0  0  0  0  0  0  0  0  0  0
    4.2960   62.2390   69.9180 C   0  0  0  0  0  0  0  0  0  0  0  0
    3.1230   61.6550   69.4450 C   0  0  0  0  0  0  0  0  0  0  0  0
    1.8970   62.2980   69.6290 C   0  0  0  0  0  0  0  0  0  0  0  0
    1.1883   69.6032   67.2817 H   0  0  0  0  0  0  0  0  0  0  0  0
    2.9806   69.9313   68.7315 H   0  0  0  0  0  0  0  0  0  0  0  0
    4.5409   69.0077   68.8215 H   0  0  0  0  0  0  0  0  0  0  0  0
    4.0886   71.9920   68.5813 H   0  0  0  0  0  0  0  0  0  0  0  0
    5.0819   71.0192   69.7830 H   0  0  0  0  0  0  0  0  0  0  0  0
    5.9071   72.3171   67.3438 H   0  0  0  0  0  0  0  0  0  0  0  0
    6.8701   71.4766   68.6520 H   0  0  0  0  0  0  0  0  0  0  0  0
    7.1765   70.6157   66.2704 H   0  0  0  0  0  0  0  0  0  0  0  0
    6.7778   69.4103   67.5507 H   0  0  0  0  0  0  0  0  0  0  0  0
    0.9472   68.5208   64.2277 H   0  0  0  0  0  0  0  0  0  0  0  0
    1.3224   68.2885   61.7830 H   0  0  0  0  0  0  0  0  0  0  0  0
    3.6105   68.6249   60.8469 H   0  0  0  0  0  0  0  0  0  0  0  0
    5.4771   69.2465   62.3579 H   0  0  0  0  0  0  0  0  0  0  0  0
   -0.2999   68.4531   68.2397 H   0  0  0  0  0  0  0  0  0  0  0  0
   -1.0044   67.3173   67.0572 H   0  0  0  0  0  0  0  0  0  0  0  0
   -0.5405   65.5392   68.5783 H   0  0  0  0  0  0  0  0  0  0  0  0
    1.5380   65.7359   71.6118 H   0  0  0  0  0  0  0  0  0  0  0  0
   -0.4242   66.0407   72.7263 H   0  0  0  0  0  0  0  0  0  0  0  0
   -0.8219   67.0717   71.4582 H   0  0  0  0  0  0  0  0  0  0  0  0
   -1.3790   65.4846   71.4582 H   0  0  0  0  0  0  0  0  0  0  0  0
   -0.0226   63.6479   71.3361 H   0  0  0  0  0  0  0  0  0  0  0  0
   -0.0581   64.1772   69.5957 H   0  0  0  0  0  0  0  0  0  0  0  0
    2.9934   65.0950   71.2574 H   0  0  0  0  0  0  0  0  0  0  0  0
    5.1747   63.9368   70.9303 H   0  0  0  0  0  0  0  0  0  0  0  0
    5.2600   61.7272   69.7808 H   0  0  0  0  0  0  0  0  0  0  0  0
    3.1625   60.6860   68.9258 H   0  0  0  0  0  0  0  0  0  0  0  0
    0.9740   61.8354   69.2495 H   0  0  0  0  0  0  0  0  0  0  0  0
  2  1  2  0
  3  2  1  0
  4  3  1  0
  5  4  1  0
  6  5  1  0
  7  6  1  0
  8  7  1  0
  9  8  1  0
 10  5  2  0
 10  9  1  0
 11 10  1  0
 12 11  2  0
 13 12  1  0
 13  4  2  0
 14 13  1  0
 15 14  2  0
 16 15  1  0
 17 16  2  0
 17 12  1  0
 18  2  1  0
 19 18  1  0
 20 19  1  0
 21 20  2  0
 22 20  1  0
 23 22  1  0
 24 22  1  0
 25 24  1  0
 26 25  2  0
 27 26  1  0
 28 27  2  0
 29 28  1  0
 30 29  2  0
 30 25  1  0
  3 31  1  0
  6 32  1  0
  6 33  1  0
  7 34  1  0
  7 35  1  0
  8 36  1  0
  8 37  1  0
  9 38  1  0
  9 39  1  0
 14 40  1  0
 15 41  1  0
 16 42  1  0
 17 43  1  0
 18 44  1  0
 18 45  1  0
 19 46  1  0
 22 47  1  1
 23 48  1  0
 23 49  1  0
 23 50  1  0
 24 51  1  0
 24 52  1  0
 26 53  1  0
 27 54  1  0
 28 55  1  0
 29 56  1  0
 30 57  1  0
M  CHG  1  23   1
M  END
>  <score>  (1) 
-12.43

$$$$
=
     RDKit          3D

 57 60  0  0  0  0  0  0  0  0999 V2000
   -0.3190   63.7360   69.8400 O   0  0  0  0  0  0  0  0  0  0  0  0
    0.4020   64.3600   70.6190 C   0  0  0  0  0  0  0  0  0  0  0  0
    1.2400   63.8170   71.5790 N   0  0  0  0  0  0  0  0  0  0  0  0
    1.3910   62.4170   71.7860 C   0  0  0  0  0  0  0  0  0  0  0  0
    2.5040   61.7750   71.2180 C   0  0  0  0  0  0  0  0  0  0  0  0
    3.6010   62.4360   70.4210 C   0  0  0  0  0  0  0  0  0  0  0  0
    4.0570   61.5680   69.2410 C   0  0  0  0  0  0  0  0  0  0  0  0
    4.1740   60.0710   69.5490 C   0  0  0  0  0  0  0  0  0  0  0  0
    3.9210   59.7230   71.0120 C   0  0  0  0  0  0  0  0  0  0  0  0
    2.6830   60.4220   71.5130 C   0  0  0  0  0  0  0  0  0  0  0  0
    1.8330   59.7000   72.2670 N   0  0  0  0  0  0  0  0  0  0  0  0
    0.7270   60.2900   72.7330 C   0  0  0  0  0  0  0  0  0  0  0  0
    0.4290   61.6520   72.5140 C   0  0  0  0  0  0  0  0  0  0  0  0
   -0.8270   62.1300   72.9790 C   0  0  0  0  0  0  0  0  0  0  0  0
   -1.7150   61.3130   73.6800 C   0  0  0  0  0  0  0  0  0  0  0  0
   -1.3760   59.9930   73.9240 C   0  0  0  0  0  0  0  0  0  0  0  0
   -0.1650   59.4970   73.4440 C   0  0  0  0  0  0  0  0  0  0  0  0
    0.4050   65.8970   70.6140 C   0  0  0  0  0  0  0  0  0  0  0  0
    1.1000   66.3400   69.4060 N   0  0  0  0  0  0  0  0  0  0  0  0
    0.3520   66.8180   68.3550 C   0  0  0  0  0  0  0  0  0  0  0  0
   -0.8510   66.5900   68.2150 O   0  0  0  0  0  0  0  0  0  0  0  0
    1.0820   67.6610   67.2990 C   0  0  1  0  0  0  0  0  0  0  0  0
    0.2750   67.6270   66.0210 N   0  0  0  0  0  4  0  0  0  0  0  0
    1.2600   69.1160   67.7570 C   0  0  0  0  0  0  0  0  0  0  0  0
    2.6980   69.5730   67.6900 C   0  0  0  0  0  0  0  0  0  0  0  0
    3.2950   70.2180   68.7820 C   0  0  0  0  0  0  0  0  0  0  0  0
    4.6380   70.5900   68.7310 C   0  0  0  0  0  0  0  0  0  0  0  0
    5.3940   70.3300   67.5900 C   0  0  0  0  0  0  0  0  0  0  0  0
    4.8040   69.7070   66.4930 C   0  0  0  0  0  0  0  0  0  0  0  0
    3.4610   69.3320   66.5390 C   0  0  0  0  0  0  0  0  0  0  0  0
    1.7820   64.4598   72.1739 H   0  0  0  0  0  0  0  0  0  0  0  0
    3.2292   63.3958   70.0330 H   0  0  0  0  0  0  0  0  0  0  0  0
    4.4635   62.5836   71.0875 H   0  0  0  0  0  0  0  0  0  0  0  0
    3.3311   61.6932   68.4240 H   0  0  0  0  0  0  0  0  0  0  0  0
    5.0695   61.9095   68.9796 H   0  0  0  0  0  0  0  0  0  0  0  0
    3.4403   59.5314   68.9321 H   0  0  0  0  0  0  0  0  0  0  0  0
    5.2098   59.7772   69.3239 H   0  0  0  0  0  0  0  0  0  0  0  0
    3.7867   58.6354   71.1077 H   0  0  0  0  0  0  0  0  0  0  0  0
    4.7830   60.0521   71.6108 H   0  0  0  0  0  0  0  0  0  0  0  0
   -1.1070   63.1750   72.7802 H   0  0  0  0  0  0  0  0  0  0  0  0
   -2.6756   61.7141   74.0355 H   0  0  0  0  0  0  0  0  0  0  0  0
   -2.0564   59.3413   74.4917 H   0  0  0  0  0  0  0  0  0  0  0  0
    0.0925   58.4446   73.6341 H   0  0  0  0  0  0  0  0  0  0  0  0
   -0.6287   66.2730   70.6098 H   0  0  0  0  0  0  0  0  0  0  0  0
    0.9113   66.2826   71.5112 H   0  0  0  0  0  0  0  0  0  0  0  0
    2.1271   66.2951   69.3434 H   0  0  0  0  0  0  0  0  0  0  0  0
    2.0853   67.2386   67.1412 H   0  0  0  0  0  0  0  0  0  0  0  0
   -0.7284   67.5847   66.2496 H   0  0  0  0  0  0  0  0  0  0  0  0
    0.4664   68.4768   65.4714 H   0  0  0  0  0  0  0  0  0  0  0  0
    0.5372   66.7963   65.4714 H   0  0  0  0  0  0  0  0  0  0  0  0
    0.6530   69.7661   67.1097 H   0  0  0  0  0  0  0  0  0  0  0  0
    0.9392   69.1768   68.8074 H   0  0  0  0  0  0  0  0  0  0  0  0
    2.7015   70.4317   69.6832 H   0  0  0  0  0  0  0  0  0  0  0  0
    5.1018   71.0901   69.5940 H   0  0  0  0  0  0  0  0  0  0  0  0
    6.4555   70.6164   67.5556 H   0  0  0  0  0  0  0  0  0  0  0  0
    5.3981   69.5102   65.5884 H   0  0  0  0  0  0  0  0  0  0  0  0
    2.9986   68.8449   65.6679 H   0  0  0  0  0  0  0  0  0  0  0  0
  2  1  2  0
  3  2  1  0
  4  3  1  0
  5  4  1  0
  6  5  1  0
  7  6  1  0
  8  7  1  0
  9  8  1  0
 10  5  2  0
 10  9  1  0
 11 10  1  0
 12 11  2  0
 13 12  1  0
 13  4  2  0
 14 13  1  0
 15 14  2  0
 16 15  1  0
 17 16  2  0
 17 12  1  0
 18  2  1  0
 19 18  1  0
 20 19  1  0
 21 20  2  0
 22 20  1  0
 23 22  1  0
 24 22  1  0
 25 24  1  0
 26 25  2  0
 27 26  1  0
 28 27  2  0
 29 28  1  0
 30 29  2  0
 30 25  1  0
  3 31  1  0
  6 32  1  0
  6 33  1  0
  7 34  1  0
  7 35  1  0
  8 36  1  0
  8 37  1  0
  9 38  1  0
  9 39  1  0
 14 40  1  0
 15 41  1  0
 16 42  1  0
 17 43  1  0
 18 44  1  0
 18 45  1  0
 19 46  1  0
 22 47  1  6
 23 48  1  0
 23 49  1  0
 23 50  1  0
 24 51  1  0
 24 52  1  0
 26 53  1  0
 27 54  1  0
 28 55  1  0
 29 56  1  0
 30 57  1  0
M  CHG  1  23   1
M  END
>  <score>  (2) 
-11.888

$$$$
=
     RDKit          3D

 57 60  0  0  0  0  0  0  0  0999 V2000
   -0.2880   63.6510   69.8340 O   0  0  0  0  0  0  0  0  0  0  0  0
    0.4050   64.2660   70.6450 C   0  0  0  0  0  0  0  0  0  0  0  0
    1.2150   63.7120   71.6210 N   0  0  0  0  0  0  0  0  0  0  0  0
    1.3660   62.3090   71.8110 C   0  0  0  0  0  0  0  0  0  0  0  0
    2.4670   61.6710   71.2170 C   0  0  0  0  0  0  0  0  0  0  0  0
    3.5520   62.3370   70.4070 C   0  0  0  0  0  0  0  0  0  0  0  0
    3.9840   61.4800   69.2100 C   0  0  0  0  0  0  0  0  0  0  0  0
    4.1020   59.9790   69.5010 C   0  0  0  0  0  0  0  0  0  0  0  0
    3.8750   59.6170   70.9640 C   0  0  0  0  0  0  0  0  0  0  0  0
    2.6480   60.3140   71.4950 C   0  0  0  0  0  0  0  0  0  0  0  0
    1.8100   59.5860   72.2570 N   0  0  0  0  0  0  0  0  0  0  0  0
    0.7140   60.1740   72.7490 C   0  0  0  0  0  0  0  0  0  0  0  0
    0.4160   61.5390   72.5490 C   0  0  0  0  0  0  0  0  0  0  0  0
   -0.8300   62.0160   73.0420 C   0  0  0  0  0  0  0  0  0  0  0  0
   -1.7070   61.1940   73.7500 C   0  0  0  0  0  0  0  0  0  0  0  0
   -1.3680   59.8700   73.9740 C   0  0  0  0  0  0  0  0  0  0  0  0
   -0.1670   59.3770   73.4670 C   0  0  0  0  0  0  0  0  0  0  0  0
    0.4010   65.8030   70.6630 C   0  0  0  0  0  0  0  0  0  0  0  0
    0.2190   66.2680   69.2890 N   0  0  0  0  0  0  0  0  0  0  0  0
    1.0710   67.2330   68.8030 C   0  0  0  0  0  0  0  0  0  0  0  0
    1.7460   67.9710   69.5220 O   0  0  0  0  0  0  0  0  0  0  0  0
    1.1520   67.3950   67.2770 C   0  0  1  0  0  0  0  0  0  0  0  0
   -0.1410   66.8940   66.6750 N   0  0  0  0  0  4  0  0  0  0  0  0
    1.3750   68.8590   66.8730 C   0  0  0  0  0  0  0  0  0  0  0  0
    2.7440   69.0950   66.2810 C   0  0  0  0  0  0  0  0  0  0  0  0
    2.9830   68.8660   64.9180 C   0  0  0  0  0  0  0  0  0  0  0  0
    4.2370   69.1350   64.3690 C   0  0  0  0  0  0  0  0  0  0  0  0
    5.2630   69.6250   65.1740 C   0  0  0  0  0  0  0  0  0  0  0  0
    5.0410   69.8370   66.5320 C   0  0  0  0  0  0  0  0  0  0  0  0
    3.7880   69.5700   67.0860 C   0  0  0  0  0  0  0  0  0  0  0  0
    1.7356   64.3477   72.2421 H   0  0  0  0  0  0  0  0  0  0  0  0
    3.1764   63.3019   70.0357 H   0  0  0  0  0  0  0  0  0  0  0  0
    4.4268   62.4749   71.0594 H   0  0  0  0  0  0  0  0  0  0  0  0
    3.2439   61.6156   68.4076 H   0  0  0  0  0  0  0  0  0  0  0  0
    4.9925   61.8213   68.9336 H   0  0  0  0  0  0  0  0  0  0  0  0
    3.3554   59.4479   68.8923 H   0  0  0  0  0  0  0  0  0  0  0  0
    5.1327   59.6845   69.2540 H   0  0  0  0  0  0  0  0  0  0  0  0
    3.7396   58.5288   71.0511 H   0  0  0  0  0  0  0  0  0  0  0  0
    4.7487   59.9380   71.5501 H   0  0  0  0  0  0  0  0  0  0  0  0
   -1.1103   63.0639   72.8596 H   0  0  0  0  0  0  0  0  0  0  0  0
   -2.6597   61.5941   74.1272 H   0  0  0  0  0  0  0  0  0  0  0  0
   -2.0401   59.2139   74.5465 H   0  0  0  0  0  0  0  0  0  0  0  0
    0.0911   58.3221   73.6415 H   0  0  0  0  0  0  0  0  0  0  0  0
   -0.4238   66.1672   71.2932 H   0  0  0  0  0  0  0  0  0  0  0  0
    1.3475   66.1838   71.0742 H   0  0  0  0  0  0  0  0  0  0  0  0
   -0.5306   65.8817   68.6976 H   0  0  0  0  0  0  0  0  0  0  0  0
    2.0088   66.8144   66.9045 H   0  0  0  0  0  0  0  0  0  0  0  0
   -0.7953   66.6405   67.4291 H   0  0  0  0  0  0  0  0  0  0  0  0
   -0.5582   67.6343   66.0929 H   0  0  0  0  0  0  0  0  0  0  0  0
    0.0495   66.0659   66.0929 H   0  0  0  0  0  0  0  0  0  0  0  0
    0.6157   69.1386   66.1278 H   0  0  0  0  0  0  0  0  0  0  0  0
    1.2948   69.4720   67.7828 H   0  0  0  0  0  0  0  0  0  0  0  0
    2.1784   68.4727   64.2793 H   0  0  0  0  0  0  0  0  0  0  0  0
    4.4161   68.9598   63.2979 H   0  0  0  0  0  0  0  0  0  0  0  0
    6.2483   69.8443   64.7368 H   0  0  0  0  0  0  0  0  0  0  0  0
    5.8540   70.2154   67.1691 H   0  0  0  0  0  0  0  0  0  0  0  0
    3.6191   69.7334   68.1606 H   0  0  0  0  0  0  0  0  0  0  0  0
  2  1  2  0
  3  2  1  0
  4  3  1  0
  5  4  1  0
  6  5  1  0
  7  6  1  0
  8  7  1  0
  9  8  1  0
 10  5  2  0
 10  9  1  0
 11 10  1  0
 12 11  2  0
 13 12  1  0
 13  4  2  0
 14 13  1  0
 15 14  2  0
 16 15  1  0
 17 16  2  0
 17 12  1  0
 18  2  1  0
 19 18  1  0
 20 19  1  0
 21 20  2  0
 22 20  1  0
 23 22  1  0
 24 22  1  0
 25 24  1  0
 26 25  2  0
 27 26  1  0
 28 27  2  0
 29 28  1  0
 30 29  2  0
 30 25  1  0
  3 31  1  0
  6 32  1  0
  6 33  1  0
  7 34  1  0
  7 35  1  0
  8 36  1  0
  8 37  1  0
  9 38  1  0
  9 39  1  0
 14 40  1  0
 15 41  1  0
 16 42  1  0
 17 43  1  0
 18 44  1  0
 18 45  1  0
 19 46  1  0
 22 47  1  6
 23 48  1  0
 23 49  1  0
 23 50  1  0
 24 51  1  0
 24 52  1  0
 26 53  1  0
 27 54  1  0
 28 55  1  0
 29 56  1  0
 30 57  1  0
M  CHG  1  23   1
M  END
>  <score>  (3) 
-11.799

$$$$
=
     RDKit          3D

 57 60  0  0  0  0  0  0  0  0999 V2000
    0.5510   63.6770   69.6330 O   0  0  0  0  0  0  0  0  0  0  0  0
    0.7160   64.3330   70.6620 C   0  0  0  0  0  0  0  0  0  0  0  0
    1.1920   63.8570   71.8720 N   0  0  0  0  0  0  0  0  0  0  0  0
    1.5750   62.5020   72.0860 C   0  0  0  0  0  0  0  0  0  0  0  0
    0.6370   61.6270   72.6580 C   0  0  0  0  0  0  0  0  0  0  0  0
   -0.7790   61.9700   73.0470 C   0  0  0  0  0  0  0  0  0  0  0  0
   -1.1960   61.2910   74.3580 C   0  0  0  0  0  0  0  0  0  0  0  0
   -0.7230   59.8410   74.5130 C   0  0  0  0  0  0  0  0  0  0  0  0
   -0.0140   59.2920   73.2800 C   0  0  0  0  0  0  0  0  0  0  0  0
    1.0020   60.2830   72.7710 C   0  0  0  0  0  0  0  0  0  0  0  0
    2.2030   59.7980   72.4060 N   0  0  0  0  0  0  0  0  0  0  0  0
    3.1260   60.6490   71.9450 C   0  0  0  0  0  0  0  0  0  0  0  0
    2.8860   62.0290   71.7740 C   0  0  0  0  0  0  0  0  0  0  0  0
    3.9830   62.8390   71.3700 C   0  0  0  0  0  0  0  0  0  0  0  0
    5.2370   62.2970   71.0900 C   0  0  0  0  0  0  0  0  0  0  0  0
    5.4330   60.9320   71.2170 C   0  0  0  0  0  0  0  0  0  0  0  0
    4.3790   60.1280   71.6480 C   0  0  0  0  0  0  0  0  0  0  0  0
    0.3530   65.8250   70.7000 C   0  0  0  0  0  0  0  0  0  0  0  0
    0.2060   66.2870   69.3210 N   0  0  0  0  0  0  0  0  0  0  0  0
    1.0790   67.2410   68.8500 C   0  0  0  0  0  0  0  0  0  0  0  0
    1.7460   67.9750   69.5810 O   0  0  0  0  0  0  0  0  0  0  0  0
    1.1950   67.3960   67.3260 C   0  0  1  0  0  0  0  0  0  0  0  0
   -0.0670   66.8530   66.6940 N   0  0  0  0  0  4  0  0  0  0  0  0
    1.3850   68.8640   66.9180 C   0  0  0  0  0  0  0  0  0  0  0  0
    2.7770   69.1470   66.4040 C   0  0  0  0  0  0  0  0  0  0  0  0
    3.7550   69.6900   67.2510 C   0  0  0  0  0  0  0  0  0  0  0  0
    5.0520   69.9010   66.7820 C   0  0  0  0  0  0  0  0  0  0  0  0
    5.3820   69.5800   65.4680 C   0  0  0  0  0  0  0  0  0  0  0  0
    4.4130   69.0570   64.6140 C   0  0  0  0  0  0  0  0  0  0  0  0
    3.1140   68.8440   65.0780 C   0  0  0  0  0  0  0  0  0  0  0  0
    1.2733   64.5173   72.6583 H   0  0  0  0  0  0  0  0  0  0  0  0
   -0.8591   63.0601   73.1707 H   0  0  0  0  0  0  0  0  0  0  0  0
   -1.4467   61.6095   72.2506 H   0  0  0  0  0  0  0  0  0  0  0  0
   -0.7825   61.8763   75.1925 H   0  0  0  0  0  0  0  0  0  0  0  0
   -2.2955   61.2578   74.3520 H   0  0  0  0  0  0  0  0  0  0  0  0
   -0.0278   59.7917   75.3640 H   0  0  0  0  0  0  0  0  0  0  0  0
   -1.6210   59.2250   74.6681 H   0  0  0  0  0  0  0  0  0  0  0  0
    0.4959   58.3535   73.5433 H   0  0  0  0  0  0  0  0  0  0  0  0
   -0.7596   59.1099   72.4920 H   0  0  0  0  0  0  0  0  0  0  0  0
    3.8380   63.9253   71.2756 H   0  0  0  0  0  0  0  0  0  0  0  0
    6.0638   62.9485   70.7708 H   0  0  0  0  0  0  0  0  0  0  0  0
    6.4106   60.4867   70.9802 H   0  0  0  0  0  0  0  0  0  0  0  0
    4.5448   59.0460   71.7564 H   0  0  0  0  0  0  0  0  0  0  0  0
   -0.5926   65.9658   71.2441 H   0  0  0  0  0  0  0  0  0  0  0  0
    1.1390   66.3976   71.2141 H   0  0  0  0  0  0  0  0  0  0  0  0
   -0.5349   65.9068   68.7149 H   0  0  0  0  0  0  0  0  0  0  0  0
    2.0780   66.8389   66.9797 H   0  0  0  0  0  0  0  0  0  0  0  0
   -0.7263   66.5693   67.4327 H   0  0  0  0  0  0  0  0  0  0  0  0
   -0.4995   67.5824   66.1094 H   0  0  0  0  0  0  0  0  0  0  0  0
    0.1653   66.0374   66.1094 H   0  0  0  0  0  0  0  0  0  0  0  0
    0.6608   69.1065   66.1264 H   0  0  0  0  0  0  0  0  0  0  0  0
    1.2278   69.4825   67.8139 H   0  0  0  0  0  0  0  0  0  0  0  0
    3.4983   69.9503   68.2885 H   0  0  0  0  0  0  0  0  0  0  0  0
    5.8159   70.3221   67.4522 H   0  0  0  0  0  0  0  0  0  0  0  0
    6.4077   69.7393   65.1040 H   0  0  0  0  0  0  0  0  0  0  0  0
    4.6720   68.8118   63.5734 H   0  0  0  0  0  0  0  0  0  0  0  0
    2.3506   68.4361   64.3991 H   0  0  0  0  0  0  0  0  0  0  0  0
  2  1  2  0
  3  2  1  0
  4  3  1  0
  5  4  1  0
  6  5  1  0
  7  6  1  0
  8  7  1  0
  9  8  1  0
 10  5  2  0
 10  9  1  0
 11 10  1  0
 12 11  2  0
 13 12  1  0
 13  4  2  0
 14 13  1  0
 15 14  2  0
 16 15  1  0
 17 16  2  0
 17 12  1  0
 18  2  1  0
 19 18  1  0
 20 19  1  0
 21 20  2  0
 22 20  1  0
 23 22  1  0
 24 22  1  0
 25 24  1  0
 26 25  2  0
 27 26  1  0
 28 27  2  0
 29 28  1  0
 30 29  2  0
 30 25  1  0
  3 31  1  0
  6 32  1  0
  6 33  1  0
  7 34  1  0
  7 35  1  0
  8 36  1  0
  8 37  1  0
  9 38  1  0
  9 39  1  0
 14 40  1  0
 15 41  1  0
 16 42  1  0
 17 43  1  0
 18 44  1  0
 18 45  1  0
 19 46  1  0
 22 47  1  6
 23 48  1  0
 23 49  1  0
 23 50  1  0
 24 51  1  0
 24 52  1  0
 26 53  1  0
 27 54  1  0
 28 55  1  0
 29 56  1  0
 30 57  1  0
M  CHG  1  23   1
M  END
>  <score>  (4) 
-11.227

$$$$
=
     RDKit          3D

 57 60  0  0  0  0  0  0  0  0999 V2000
   -0.4030   64.1180   69.8310 O   0  0  0  0  0  0  0  0  0  0  0  0
    0.3830   64.9380   70.3050 C   0  0  0  0  0  0  0  0  0  0  0  0
    1.4220   64.6700   71.1800 N   0  0  0  0  0  0  0  0  0  0  0  0
    1.7330   63.3620   71.6510 C   0  0  0  0  0  0  0  0  0  0  0  0
    1.2790   62.9880   72.9260 C   0  0  0  0  0  0  0  0  0  0  0  0
    0.4460   63.8330   73.8580 C   0  0  0  0  0  0  0  0  0  0  0  0
    0.8740   63.6660   75.3220 C   0  0  0  0  0  0  0  0  0  0  0  0
    1.2080   62.2290   75.7360 C   0  0  0  0  0  0  0  0  0  0  0  0
    0.9480   61.1980   74.6440 C   0  0  0  0  0  0  0  0  0  0  0  0
    1.5130   61.6710   73.3280 C   0  0  0  0  0  0  0  0  0  0  0  0
    2.1800   60.7680   72.5860 N   0  0  0  0  0  0  0  0  0  0  0  0
    2.6900   61.1510   71.4110 C   0  0  0  0  0  0  0  0  0  0  0  0
    2.5200   62.4500   70.8840 C   0  0  0  0  0  0  0  0  0  0  0  0
    3.1970   62.7580   69.6720 C   0  0  0  0  0  0  0  0  0  0  0  0
    3.9520   61.8070   68.9860 C   0  0  0  0  0  0  0  0  0  0  0  0
    4.0620   60.5250   69.4990 C   0  0  0  0  0  0  0  0  0  0  0  0
    3.4350   60.2160   70.7050 C   0  0  0  0  0  0  0  0  0  0  0  0
    0.2470   66.4320   69.9690 C   0  0  0  0  0  0  0  0  0  0  0  0
    1.2180   66.7470   68.9230 N   0  0  0  0  0  0  0  0  0  0  0  0
    0.7510   67.1140   67.6820 C   0  0  0  0  0  0  0  0  0  0  0  0
   -0.3900   66.8730   67.2840 O   0  0  0  0  0  0  0  0  0  0  0  0
    1.7310   67.8430   66.7500 C   0  0  1  0  0  0  0  0  0  0  0  0
    1.1520   67.8390   65.3520 N   0  0  0  0  0  4  0  0  0  0  0  0
    1.9750   69.2900   67.2010 C   0  0  0  0  0  0  0  0  0  0  0  0
    3.4380   69.6640   67.1810 C   0  0  0  0  0  0  0  0  0  0  0  0
    4.0470   70.2290   68.3100 C   0  0  0  0  0  0  0  0  0  0  0  0
    5.4110   70.5240   68.3000 C   0  0  0  0  0  0  0  0  0  0  0  0
    6.1750   70.2660   67.1640 C   0  0  0  0  0  0  0  0  0  0  0  0
    5.5740   69.7220   66.0310 C   0  0  0  0  0  0  0  0  0  0  0  0
    4.2110   69.4240   66.0360 C   0  0  0  0  0  0  0  0  0  0  0  0
    2.0000   65.4571   71.5074 H   0  0  0  0  0  0  0  0  0  0  0  0
    0.5569   64.8899   73.5739 H   0  0  0  0  0  0  0  0  0  0  0  0
   -0.6003   63.5052   73.7703 H   0  0  0  0  0  0  0  0  0  0  0  0
    1.7667   64.2864   75.4900 H   0  0  0  0  0  0  0  0  0  0  0  0
    0.0112   63.9706   75.9326 H   0  0  0  0  0  0  0  0  0  0  0  0
    2.2729   62.1851   76.0080 H   0  0  0  0  0  0  0  0  0  0  0  0
    0.5475   61.9766   76.5787 H   0  0  0  0  0  0  0  0  0  0  0  0
    1.4256   60.2470   74.9225 H   0  0  0  0  0  0  0  0  0  0  0  0
   -0.1378   61.0588   74.5364 H   0  0  0  0  0  0  0  0  0  0  0  0
    3.1230   63.7766   69.2634 H   0  0  0  0  0  0  0  0  0  0  0  0
    4.4561   62.0728   68.0451 H   0  0  0  0  0  0  0  0  0  0  0  0
    4.6383   59.7585   68.9601 H   0  0  0  0  0  0  0  0  0  0  0  0
    3.5337   59.1983   71.1106 H   0  0  0  0  0  0  0  0  0  0  0  0
   -0.7710   66.6432   69.6099 H   0  0  0  0  0  0  0  0  0  0  0  0
    0.4345   67.0446   70.8632 H   0  0  0  0  0  0  0  0  0  0  0  0
    2.2294   66.6954   69.1108 H   0  0  0  0  0  0  0  0  0  0  0  0
    2.6985   67.3203   66.7764 H   0  0  0  0  0  0  0  0  0  0  0  0
    0.1235   67.8319   65.4064 H   0  0  0  0  0  0  0  0  0  0  0  0
    1.4634   68.6822   64.8490 H   0  0  0  0  0  0  0  0  0  0  0  0
    1.4750   67.0002   64.8490 H   0  0  0  0  0  0  0  0  0  0  0  0
    1.4289   69.9663   66.5269 H   0  0  0  0  0  0  0  0  0  0  0  0
    1.6215   69.3804   68.2387 H   0  0  0  0  0  0  0  0  0  0  0  0
    3.4474   70.4407   69.2075 H   0  0  0  0  0  0  0  0  0  0  0  0
    5.8841   70.9614   69.1915 H   0  0  0  0  0  0  0  0  0  0  0  0
    7.2516   70.4916   67.1616 H   0  0  0  0  0  0  0  0  0  0  0  0
    6.1752   69.5270   65.1307 H   0  0  0  0  0  0  0  0  0  0  0  0
    3.7405   68.9987   65.1373 H   0  0  0  0  0  0  0  0  0  0  0  0
  2  1  2  0
  3  2  1  0
  4  3  1  0
  5  4  1  0
  6  5  1  0
  7  6  1  0
  8  7  1  0
  9  8  1  0
 10  5  2  0
 10  9  1  0
 11 10  1  0
 12 11  2  0
 13 12  1  0
 13  4  2  0
 14 13  1  0
 15 14  2  0
 16 15  1  0
 17 16  2  0
 17 12  1  0
 18  2  1  0
 19 18  1  0
 20 19  1  0
 21 20  2  0
 22 20  1  0
 23 22  1  0
 24 22  1  0
 25 24  1  0
 26 25  2  0
 27 26  1  0
 28 27  2  0
 29 28  1  0
 30 29  2  0
 30 25  1  0
  3 31  1  0
  6 32  1  0
  6 33  1  0
  7 34  1  0
  7 35  1  0
  8 36  1  0
  8 37  1  0
  9 38  1  0
  9 39  1  0
 14 40  1  0
 15 41  1  0
 16 42  1  0
 17 43  1  0
 18 44  1  0
 18 45  1  0
 19 46  1  0
 22 47  1  6
 23 48  1  0
 23 49  1  0
 23 50  1  0
 24 51  1  0
 24 52  1  0
 26 53  1  0
 27 54  1  0
 28 55  1  0
 29 56  1  0
 30 57  1  0
M  CHG  1  23   1
M  END
>  <score>  (5) 
-11.204

$$$$
=
     RDKit          3D

 57 60  0  0  0  0  0  0  0  0999 V2000
    2.1120   65.6620   70.6080 O   0  0  0  0  0  0  0  0  0  0  0  0
    0.9940   65.2480   70.3020 C   0  0  0  0  0  0  0  0  0  0  0  0
    0.4800   63.9920   70.5760 N   0  0  0  0  0  0  0  0  0  0  0  0
    1.2000   62.9860   71.2820 C   0  0  0  0  0  0  0  0  0  0  0  0
    0.9470   62.8270   72.6550 C   0  0  0  0  0  0  0  0  0  0  0  0
   -0.0550   63.6040   73.4720 C   0  0  0  0  0  0  0  0  0  0  0  0
    0.4780   63.9350   74.8720 C   0  0  0  0  0  0  0  0  0  0  0  0
    1.2570   62.8030   75.5500 C   0  0  0  0  0  0  0  0  0  0  0  0
    1.2690   61.5030   74.7540 C   0  0  0  0  0  0  0  0  0  0  0  0
    1.5930   61.7740   73.3060 C   0  0  0  0  0  0  0  0  0  0  0  0
    2.4660   60.9430   72.7070 N   0  0  0  0  0  0  0  0  0  0  0  0
    2.7730   61.1510   71.4220 C   0  0  0  0  0  0  0  0  0  0  0  0
    2.1870   62.1740   70.6460 C   0  0  0  0  0  0  0  0  0  0  0  0
    2.6740   62.3510   69.3210 C   0  0  0  0  0  0  0  0  0  0  0  0
    3.6480   61.5150   68.7750 C   0  0  0  0  0  0  0  0  0  0  0  0
    4.1710   60.4870   69.5420 C   0  0  0  0  0  0  0  0  0  0  0  0
    3.7320   60.3230   70.8550 C   0  0  0  0  0  0  0  0  0  0  0  0
    0.0240   66.1380   69.5090 C   0  0  0  0  0  0  0  0  0  0  0  0
    0.7730   67.2970   69.0240 N   0  0  0  0  0  0  0  0  0  0  0  0
    0.5340   67.7450   67.7460 C   0  0  0  0  0  0  0  0  0  0  0  0
    0.0030   67.0600   66.8700 O   0  0  0  0  0  0  0  0  0  0  0  0
    0.9840   69.1750   67.4080 C   0  0  1  0  0  0  0  0  0  0  0  0
    0.0120   70.1430   68.0450 N   0  0  0  0  0  4  0  0  0  0  0  0
    2.4030   69.4600   67.9180 C   0  0  0  0  0  0  0  0  0  0  0  0
    3.4190   69.5230   66.8020 C   0  0  0  0  0  0  0  0  0  0  0  0
    4.7350   69.9330   67.0550 C   0  0  0  0  0  0  0  0  0  0  0  0
    5.6790   69.9390   66.0280 C   0  0  0  0  0  0  0  0  0  0  0  0
    5.3170   69.5450   64.7410 C   0  0  0  0  0  0  0  0  0  0  0  0
    4.0070   69.1540   64.4760 C   0  0  0  0  0  0  0  0  0  0  0  0
    3.0590   69.1460   65.5010 C   0  0  0  0  0  0  0  0  0  0  0  0
   -0.4731   63.7736   70.2523 H   0  0  0  0  0  0  0  0  0  0  0  0
   -0.2874   64.5435   72.9492 H   0  0  0  0  0  0  0  0  0  0  0  0
   -0.9540   62.9810   73.5892 H   0  0  0  0  0  0  0  0  0  0  0  0
    1.1451   64.8055   74.7867 H   0  0  0  0  0  0  0  0  0  0  0  0
   -0.4043   64.1226   75.5016 H   0  0  0  0  0  0  0  0  0  0  0  0
    2.2968   63.1332   75.6909 H   0  0  0  0  0  0  0  0  0  0  0  0
    0.7503   62.5909   76.5031 H   0  0  0  0  0  0  0  0  0  0  0  0
    2.0286   60.8277   75.1748 H   0  0  0  0  0  0  0  0  0  0  0  0
    0.2737   61.0388   74.8153 H   0  0  0  0  0  0  0  0  0  0  0  0
    2.2706   63.1713   68.7091 H   0  0  0  0  0  0  0  0  0  0  0  0
    3.9979   61.6708   67.7438 H   0  0  0  0  0  0  0  0  0  0  0  0
    4.9252   59.8068   69.1194 H   0  0  0  0  0  0  0  0  0  0  0  0
    4.1595   59.5109   71.4614 H   0  0  0  0  0  0  0  0  0  0  0  0
   -0.3880   65.5762   68.6578 H   0  0  0  0  0  0  0  0  0  0  0  0
   -0.8104   66.4610   70.1488 H   0  0  0  0  0  0  0  0  0  0  0  0
    1.4639   67.7670   69.6262 H   0  0  0  0  0  0  0  0  0  0  0  0
    0.9961   69.2927   66.3144 H   0  0  0  0  0  0  0  0  0  0  0  0
    0.0812   70.0741   69.0704 H   0  0  0  0  0  0  0  0  0  0  0  0
    0.2399   71.1029   67.7492 H   0  0  0  0  0  0  0  0  0  0  0  0
   -0.9470   69.9111   67.7492 H   0  0  0  0  0  0  0  0  0  0  0  0
    2.4003   70.4245   68.4470 H   0  0  0  0  0  0  0  0  0  0  0  0
    2.6902   68.6331   68.5841 H   0  0  0  0  0  0  0  0  0  0  0  0
    5.0247   70.2513   68.0673 H   0  0  0  0  0  0  0  0  0  0  0  0
    6.7120   70.2556   66.2345 H   0  0  0  0  0  0  0  0  0  0  0  0
    6.0657   69.5429   63.9351 H   0  0  0  0  0  0  0  0  0  0  0  0
    3.7189   68.8513   63.4585 H   0  0  0  0  0  0  0  0  0  0  0  0
    2.0238   68.8421   65.2863 H   0  0  0  0  0  0  0  0  0  0  0  0
  2  1  2  0
  3  2  1  0
  4  3  1  0
  5  4  1  0
  6  5  1  0
  7  6  1  0
  8  7  1  0
  9  8  1  0
 10  5  2  0
 10  9  1  0
 11 10  1  0
 12 11  2  0
 13 12  1  0
 13  4  2  0
 14 13  1  0
 15 14  2  0
 16 15  1  0
 17 16  2  0
 17 12  1  0
 18  2  1  0
 19 18  1  0
 20 19  1  0
 21 20  2  0
 22 20  1  0
 23 22  1  0
 24 22  1  0
 25 24  1  0
 26 25  2  0
 27 26  1  0
 28 27  2  0
 29 28  1  0
 30 29  2  0
 30 25  1  0
  3 31  1  0
  6 32  1  0
  6 33  1  0
  7 34  1  0
  7 35  1  0
  8 36  1  0
  8 37  1  0
  9 38  1  0
  9 39  1  0
 14 40  1  0
 15 41  1  0
 16 42  1  0
 17 43  1  0
 18 44  1  0
 18 45  1  0
 19 46  1  0
 22 47  1  6
 23 48  1  0
 23 49  1  0
 23 50  1  0
 24 51  1  0
 24 52  1  0
 26 53  1  0
 27 54  1  0
 28 55  1  0
 29 56  1  0
 30 57  1  0
M  CHG  1  23   1
M  END
>  <score>  (6) 
-11.111

$$$$
=
     RDKit          3D

 57 60  0  0  0  0  0  0  0  0999 V2000
    1.9740   68.3660   67.2890 O   0  0  0  0  0  0  0  0  0  0  0  0
    1.0240   67.6220   67.0460 C   0  0  0  0  0  0  0  0  0  0  0  0
    0.8270   66.8920   65.8860 N   0  0  0  0  0  0  0  0  0  0  0  0
    1.7380   66.9000   64.7910 C   0  0  0  0  0  0  0  0  0  0  0  0
    1.5880   67.8910   63.8070 C   0  0  0  0  0  0  0  0  0  0  0  0
    0.5600   68.9960   63.8050 C   0  0  0  0  0  0  0  0  0  0  0  0
    0.0090   69.2660   62.3990 C   0  0  0  0  0  0  0  0  0  0  0  0
    1.0550   69.2360   61.2800 C   0  0  0  0  0  0  0  0  0  0  0  0
    2.4840   69.0510   61.7790 C   0  0  0  0  0  0  0  0  0  0  0  0
    2.5480   67.9380   62.7940 C   0  0  0  0  0  0  0  0  0  0  0  0
    3.5700   67.0680   62.6880 N   0  0  0  0  0  0  0  0  0  0  0  0
    3.6600   66.0720   63.5750 C   0  0  0  0  0  0  0  0  0  0  0  0
    2.7610   65.9140   64.6510 C   0  0  0  0  0  0  0  0  0  0  0  0
    2.9090   64.7550   65.4630 C   0  0  0  0  0  0  0  0  0  0  0  0
    3.9360   63.8340   65.2550 C   0  0  0  0  0  0  0  0  0  0  0  0
    4.8350   64.0390   64.2220 C   0  0  0  0  0  0  0  0  0  0  0  0
    4.6830   65.1500   63.3930 C   0  0  0  0  0  0  0  0  0  0  0  0
   -0.1150   67.4560   68.0650 C   0  0  0  0  0  0  0  0  0  0  0  0
    0.0560   66.1620   68.7230 N   0  0  0  0  0  0  0  0  0  0  0  0
    0.7570   66.1140   69.9060 C   0  0  0  0  0  0  0  0  0  0  0  0
    1.5310   66.9970   70.2770 O   0  0  0  0  0  0  0  0  0  0  0  0
    0.5640   64.8700   70.7860 C   0  0  1  0  0  0  0  0  0  0  0  0
    0.0030   63.7590   69.9270 N   0  0  0  0  0  4  0  0  0  0  0  0
    1.8860   64.4110   71.4200 C   0  0  0  0  0  0  0  0  0  0  0  0
    2.5020   63.2410   70.6910 C   0  0  0  0  0  0  0  0  0  0  0  0
    2.3580   61.9360   71.1830 C   0  0  0  0  0  0  0  0  0  0  0  0
    2.8860   60.8550   70.4770 C   0  0  0  0  0  0  0  0  0  0  0  0
    3.5690   61.0670   69.2810 C   0  0  0  0  0  0  0  0  0  0  0  0
    3.7330   62.3620   68.7940 C   0  0  0  0  0  0  0  0  0  0  0  0
    3.2050   63.4460   69.4960 C   0  0  0  0  0  0  0  0  0  0  0  0
   -0.0219   66.3135   65.8111 H   0  0  0  0  0  0  0  0  0  0  0  0
   -0.2727   68.7076   64.4634 H   0  0  0  0  0  0  0  0  0  0  0  0
    1.0486   69.9151   64.1607 H   0  0  0  0  0  0  0  0  0  0  0  0
   -0.7508   68.5022   62.1772 H   0  0  0  0  0  0  0  0  0  0  0  0
   -0.3947   70.2891   62.4169 H   0  0  0  0  0  0  0  0  0  0  0  0
    0.8139   68.4041   60.6019 H   0  0  0  0  0  0  0  0  0  0  0  0
    1.0149   70.2136   60.7773 H   0  0  0  0  0  0  0  0  0  0  0  0
    3.1355   68.8030   60.9281 H   0  0  0  0  0  0  0  0  0  0  0  0
    2.8194   69.9852   62.2532 H   0  0  0  0  0  0  0  0  0  0  0  0
    2.1924   64.5800   66.2790 H   0  0  0  0  0  0  0  0  0  0  0  0
    4.0308   62.9525   65.9061 H   0  0  0  0  0  0  0  0  0  0  0  0
    5.6614   63.3321   64.0568 H   0  0  0  0  0  0  0  0  0  0  0  0
    5.3957   65.3011   62.5689 H   0  0  0  0  0  0  0  0  0  0  0  0
   -0.0699   68.2634   68.8107 H   0  0  0  0  0  0  0  0  0  0  0  0
   -1.0910   67.5030   67.5598 H   0  0  0  0  0  0  0  0  0  0  0  0
   -0.3395   65.3052   68.3103 H   0  0  0  0  0  0  0  0  0  0  0  0
   -0.1271   65.1211   71.6041 H   0  0  0  0  0  0  0  0  0  0  0  0
   -0.3730   63.0144   70.5312 H   0  0  0  0  0  0  0  0  0  0  0  0
   -0.7508   64.1320   69.3324 H   0  0  0  0  0  0  0  0  0  0  0  0
    0.7507   63.3739   69.3324 H   0  0  0  0  0  0  0  0  0  0  0  0
    2.5960   65.2510   71.4022 H   0  0  0  0  0  0  0  0  0  0  0  0
    1.6684   64.0867   72.4483 H   0  0  0  0  0  0  0  0  0  0  0  0
    1.8261   61.7638   72.1303 H   0  0  0  0  0  0  0  0  0  0  0  0
    2.7630   59.8331   70.8651 H   0  0  0  0  0  0  0  0  0  0  0  0
    3.9783   60.2127   68.7219 H   0  0  0  0  0  0  0  0  0  0  0  0
    4.2797   62.5301   67.8544 H   0  0  0  0  0  0  0  0  0  0  0  0
    3.3412   64.4668   69.1095 H   0  0  0  0  0  0  0  0  0  0  0  0
  2  1  2  0
  3  2  1  0
  4  3  1  0
  5  4  1  0
  6  5  1  0
  7  6  1  0
  8  7  1  0
  9  8  1  0
 10  5  2  0
 10  9  1  0
 11 10  1  0
 12 11  2  0
 13 12  1  0
 13  4  2  0
 14 13  1  0
 15 14  2  0
 16 15  1  0
 17 16  2  0
 17 12  1  0
 18  2  1  0
 19 18  1  0
 20 19  1  0
 21 20  2  0
 22 20  1  0
 23 22  1  0
 24 22  1  0
 25 24  1  0
 26 25  2  0
 27 26  1  0
 28 27  2  0
 29 28  1  0
 30 29  2  0
 30 25  1  0
  3 31  1  0
  6 32  1  0
  6 33  1  0
  7 34  1  0
  7 35  1  0
  8 36  1  0
  8 37  1  0
  9 38  1  0
  9 39  1  0
 14 40  1  0
 15 41  1  0
 16 42  1  0
 17 43  1  0
 18 44  1  0
 18 45  1  0
 19 46  1  0
 22 47  1  1
 23 48  1  0
 23 49  1  0
 23 50  1  0
 24 51  1  0
 24 52  1  0
 26 53  1  0
 27 54  1  0
 28 55  1  0
 29 56  1  0
 30 57  1  0
M  CHG  1  23   1
M  END
>  <score>  (7) 
-10.938

$$$$
=
     RDKit          3D

 57 60  0  0  0  0  0  0  0  0999 V2000
    2.0100   64.7000   64.5330 O   0  0  0  0  0  0  0  0  0  0  0  0
    2.9050   65.5450   64.5760 C   0  0  0  0  0  0  0  0  0  0  0  0
    2.7380   66.9130   64.7070 N   0  0  0  0  0  0  0  0  0  0  0  0
    1.4650   67.5400   64.8260 C   0  0  0  0  0  0  0  0  0  0  0  0
    0.9250   68.1720   63.6940 C   0  0  0  0  0  0  0  0  0  0  0  0
    1.5510   68.2280   62.3220 C   0  0  0  0  0  0  0  0  0  0  0  0
    1.3430   69.5920   61.6510 C   0  0  0  0  0  0  0  0  0  0  0  0
   -0.0490   70.2020   61.8470 C   0  0  0  0  0  0  0  0  0  0  0  0
   -1.0210   69.2880   62.5850 C   0  0  0  0  0  0  0  0  0  0  0  0
   -0.3640   68.6970   63.8070 C   0  0  0  0  0  0  0  0  0  0  0  0
   -1.0890   68.6680   64.9410 N   0  0  0  0  0  0  0  0  0  0  0  0
   -0.5390   68.1460   66.0420 C   0  0  0  0  0  0  0  0  0  0  0  0
    0.7520   67.5750   66.0630 C   0  0  0  0  0  0  0  0  0  0  0  0
    1.2570   67.1450   67.3210 C   0  0  0  0  0  0  0  0  0  0  0  0
    0.4950   67.2200   68.4870 C   0  0  0  0  0  0  0  0  0  0  0  0
   -0.7880   67.7390   68.4300 C   0  0  0  0  0  0  0  0  0  0  0  0
   -1.2850   68.1990   67.2120 C   0  0  0  0  0  0  0  0  0  0  0  0
    4.3780   65.1260   64.4450 C   0  0  0  0  0  0  0  0  0  0  0  0
    5.1870   66.3410   64.3840 N   0  0  0  0  0  0  0  0  0  0  0  0
    5.1170   67.1210   63.2530 C   0  0  0  0  0  0  0  0  0  0  0  0
    4.7010   66.7130   62.1670 O   0  0  0  0  0  0  0  0  0  0  0  0
    5.6130   68.5710   63.3670 C   0  0  1  0  0  0  0  0  0  0  0  0
    5.9120   69.0840   61.9760 N   0  0  0  0  0  4  0  0  0  0  0  0
    4.5690   69.4770   64.0360 C   0  0  0  0  0  0  0  0  0  0  0  0
    4.9070   69.7860   65.4750 C   0  0  0  0  0  0  0  0  0  0  0  0
    6.1800   70.2590   65.8250 C   0  0  0  0  0  0  0  0  0  0  0  0
    6.4670   70.5900   67.1490 C   0  0  0  0  0  0  0  0  0  0  0  0
    5.4940   70.4440   68.1350 C   0  0  0  0  0  0  0  0  0  0  0  0
    4.2320   69.9570   67.8000 C   0  0  0  0  0  0  0  0  0  0  0  0
    3.9390   69.6250   66.4760 C   0  0  0  0  0  0  0  0  0  0  0  0
    3.5784   67.5084   64.7190 H   0  0  0  0  0  0  0  0  0  0  0  0
    2.6306   68.0394   62.4162 H   0  0  0  0  0  0  0  0  0  0  0  0
    1.0669   67.4639   61.6960 H   0  0  0  0  0  0  0  0  0  0  0  0
    2.0841   70.2923   62.0636 H   0  0  0  0  0  0  0  0  0  0  0  0
    1.4569   69.4245   60.5698 H   0  0  0  0  0  0  0  0  0  0  0  0
    0.0579   71.1328   62.4233 H   0  0  0  0  0  0  0  0  0  0  0  0
   -0.4682   70.3743   60.8447 H   0  0  0  0  0  0  0  0  0  0  0  0
   -1.9023   69.8697   62.8931 H   0  0  0  0  0  0  0  0  0  0  0  0
   -1.3226   68.4714   61.9125 H   0  0  0  0  0  0  0  0  0  0  0  0
    2.2788   66.7413   67.3762 H   0  0  0  0  0  0  0  0  0  0  0  0
    0.9096   66.8699   69.4438 H   0  0  0  0  0  0  0  0  0  0  0  0
   -1.4084   67.7876   69.3371 H   0  0  0  0  0  0  0  0  0  0  0  0
   -2.3015   68.6178   67.1763 H   0  0  0  0  0  0  0  0  0  0  0  0
    4.6740   64.5233   65.3163 H   0  0  0  0  0  0  0  0  0  0  0  0
    4.5252   64.5218   63.5376 H   0  0  0  0  0  0  0  0  0  0  0  0
    5.7963   66.6077   65.1704 H   0  0  0  0  0  0  0  0  0  0  0  0
    6.5168   68.5872   63.9938 H   0  0  0  0  0  0  0  0  0  0  0  0
    6.4296   69.9721   62.0415 H   0  0  0  0  0  0  0  0  0  0  0  0
    6.4816   68.3912   61.4696 H   0  0  0  0  0  0  0  0  0  0  0  0
    5.0284   69.2381   61.4696 H   0  0  0  0  0  0  0  0  0  0  0  0
    4.5122   70.4223   63.4764 H   0  0  0  0  0  0  0  0  0  0  0  0
    3.6078   68.9422   64.0264 H   0  0  0  0  0  0  0  0  0  0  0  0
    6.9551   70.3693   65.0523 H   0  0  0  0  0  0  0  0  0  0  0  0
    7.4652   70.9677   67.4156 H   0  0  0  0  0  0  0  0  0  0  0  0
    5.7215   70.7129   69.1771 H   0  0  0  0  0  0  0  0  0  0  0  0
    3.4658   69.8340   68.5797 H   0  0  0  0  0  0  0  0  0  0  0  0
    2.9436   69.2351   66.2170 H   0  0  0  0  0  0  0  0  0  0  0  0
  2  1  2  0
  3  2  1  0
  4  3  1  0
  5  4  1  0
  6  5  1  0
  7  6  1  0
  8  7  1  0
  9  8  1  0
 10  5  2  0
 10  9  1  0
 11 10  1  0
 12 11  2  0
 13 12  1  0
 13  4  2  0
 14 13  1  0
 15 14  2  0
 16 15  1  0
 17 16  2  0
 17 12  1  0
 18  2  1  0
 19 18  1  0
 20 19  1  0
 21 20  2  0
 22 20  1  0
 23 22  1  0
 24 22  1  0
 25 24  1  0
 26 25  2  0
 27 26  1  0
 28 27  2  0
 29 28  1  0
 30 29  2  0
 30 25  1  0
  3 31  1  0
  6 32  1  0
  6 33  1  0
  7 34  1  0
  7 35  1  0
  8 36  1  0
  8 37  1  0
  9 38  1  0
  9 39  1  0
 14 40  1  0
 15 41  1  0
 16 42  1  0
 17 43  1  0
 18 44  1  0
 18 45  1  0
 19 46  1  0
 22 47  1  1
 23 48  1  0
 23 49  1  0
 23 50  1  0
 24 51  1  0
 24 52  1  0
 26 53  1  0
 27 54  1  0
 28 55  1  0
 29 56  1  0
 30 57  1  0
M  CHG  1  23   1
M  END
>  <score>  (8) 
-10.275

$$$$
=
     RDKit          3D

 57 60  0  0  0  0  0  0  0  0999 V2000
    1.9310   66.3280   70.6400 O   0  0  0  0  0  0  0  0  0  0  0  0
    0.9930   65.6890   70.1630 C   0  0  0  0  0  0  0  0  0  0  0  0
    0.7090   64.3530   70.3900 N   0  0  0  0  0  0  0  0  0  0  0  0
    1.4870   63.5200   71.2430 C   0  0  0  0  0  0  0  0  0  0  0  0
    2.5150   62.7540   70.6700 C   0  0  0  0  0  0  0  0  0  0  0  0
    2.9150   62.7470   69.2150 C   0  0  0  0  0  0  0  0  0  0  0  0
    3.2810   61.3400   68.7260 C   0  0  0  0  0  0  0  0  0  0  0  0
    4.1020   60.5060   69.7160 C   0  0  0  0  0  0  0  0  0  0  0  0
    4.5060   61.2680   70.9730 C   0  0  0  0  0  0  0  0  0  0  0  0
    3.3250   62.0180   71.5370 C   0  0  0  0  0  0  0  0  0  0  0  0
    3.1470   61.9700   72.8700 N   0  0  0  0  0  0  0  0  0  0  0  0
    2.1130   62.6280   73.4050 C   0  0  0  0  0  0  0  0  0  0  0  0
    1.2230   63.4150   72.6430 C   0  0  0  0  0  0  0  0  0  0  0  0
    0.1080   63.9820   73.3190 C   0  0  0  0  0  0  0  0  0  0  0  0
   -0.0800   63.8260   74.6920 C   0  0  0  0  0  0  0  0  0  0  0  0
    0.8350   63.0900   75.4260 C   0  0  0  0  0  0  0  0  0  0  0  0
    1.9150   62.4970   74.7730 C   0  0  0  0  0  0  0  0  0  0  0  0
    0.0130   66.3580   69.1860 C   0  0  0  0  0  0  0  0  0  0  0  0
    0.5970   67.6300   68.7650 N   0  0  0  0  0  0  0  0  0  0  0  0
    1.2580   67.6830   67.5600 C   0  0  0  0  0  0  0  0  0  0  0  0
    1.6890   66.6880   66.9740 O   0  0  0  0  0  0  0  0  0  0  0  0
    1.4800   69.0710   66.9400 C   0  0  1  0  0  0  0  0  0  0  0  0
    1.2270   70.1150   68.0050 N   0  0  0  0  0  4  0  0  0  0  0  0
    2.9070   69.2280   66.3950 C   0  0  0  0  0  0  0  0  0  0  0  0
    2.9840   69.0100   64.9020 C   0  0  0  0  0  0  0  0  0  0  0  0
    1.8210   68.7870   64.1520 C   0  0  0  0  0  0  0  0  0  0  0  0
    1.8950   68.6360   62.7670 C   0  0  0  0  0  0  0  0  0  0  0  0
    3.1280   68.6990   62.1210 C   0  0  0  0  0  0  0  0  0  0  0  0
    4.2910   68.9010   62.8610 C   0  0  0  0  0  0  0  0  0  0  0  0
    4.2220   69.0530   64.2460 C   0  0  0  0  0  0  0  0  0  0  0  0
   -0.1077   63.9403   69.9171 H   0  0  0  0  0  0  0  0  0  0  0  0
    2.0746   63.1244   68.6139 H   0  0  0  0  0  0  0  0  0  0  0  0
    3.8029   63.3868   69.1038 H   0  0  0  0  0  0  0  0  0  0  0  0
    2.3474   60.7981   68.5146 H   0  0  0  0  0  0  0  0  0  0  0  0
    3.9154   61.4773   67.8379 H   0  0  0  0  0  0  0  0  0  0  0  0
    3.5023   59.6341   70.0163 H   0  0  0  0  0  0  0  0  0  0  0  0
    5.0312   60.2197   69.2015 H   0  0  0  0  0  0  0  0  0  0  0  0
    4.8756   60.5557   71.7253 H   0  0  0  0  0  0  0  0  0  0  0  0
    5.2955   61.9890   70.7143 H   0  0  0  0  0  0  0  0  0  0  0  0
   -0.6281   64.5608   72.7419 H   0  0  0  0  0  0  0  0  0  0  0  0
   -0.9484   64.2840   75.1881 H   0  0  0  0  0  0  0  0  0  0  0  0
    0.7111   62.9744   76.5129 H   0  0  0  0  0  0  0  0  0  0  0  0
    2.6332   61.9064   75.3606 H   0  0  0  0  0  0  0  0  0  0  0  0
   -0.1428   65.7103   68.3107 H   0  0  0  0  0  0  0  0  0  0  0  0
   -0.9593   66.5250   69.6726 H   0  0  0  0  0  0  0  0  0  0  0  0
    0.5153   68.4684   69.3578 H   0  0  0  0  0  0  0  0  0  0  0  0
    0.7868   69.1957   66.0951 H   0  0  0  0  0  0  0  0  0  0  0  0
    1.3306   69.6875   68.9363 H   0  0  0  0  0  0  0  0  0  0  0  0
    1.9064   70.8823   67.9019 H   0  0  0  0  0  0  0  0  0  0  0  0
    0.2717   70.4861   67.9019 H   0  0  0  0  0  0  0  0  0  0  0  0
    3.2612   70.2444   66.6217 H   0  0  0  0  0  0  0  0  0  0  0  0
    3.5345   68.4638   66.8769 H   0  0  0  0  0  0  0  0  0  0  0  0
    0.8457   68.7308   64.6576 H   0  0  0  0  0  0  0  0  0  0  0  0
    0.9779   68.4668   62.1837 H   0  0  0  0  0  0  0  0  0  0  0  0
    3.1831   68.5894   61.0279 H   0  0  0  0  0  0  0  0  0  0  0  0
    5.2655   68.9407   62.3522 H   0  0  0  0  0  0  0  0  0  0  0  0
    5.1437   69.2074   64.8262 H   0  0  0  0  0  0  0  0  0  0  0  0
  2  1  2  0
  3  2  1  0
  4  3  1  0
  5  4  1  0
  6  5  1  0
  7  6  1  0
  8  7  1  0
  9  8  1  0
 10  5  2  0
 10  9  1  0
 11 10  1  0
 12 11  2  0
 13 12  1  0
 13  4  2  0
 14 13  1  0
 15 14  2  0
 16 15  1  0
 17 16  2  0
 17 12  1  0
 18  2  1  0
 19 18  1  0
 20 19  1  0
 21 20  2  0
 22 20  1  0
 23 22  1  0
 24 22  1  0
 25 24  1  0
 26 25  2  0
 27 26  1  0
 28 27  2  0
 29 28  1  0
 30 29  2  0
 30 25  1  0
  3 31  1  0
  6 32  1  0
  6 33  1  0
  7 34  1  0
  7 35  1  0
  8 36  1  0
  8 37  1  0
  9 38  1  0
  9 39  1  0
 14 40  1  0
 15 41  1  0
 16 42  1  0
 17 43  1  0
 18 44  1  0
 18 45  1  0
 19 46  1  0
 22 47  1  6
 23 48  1  0
 23 49  1  0
 23 50  1  0
 24 51  1  0
 24 52  1  0
 26 53  1  0
 27 54  1  0
 28 55  1  0
 29 56  1  0
 30 57  1  0
M  CHG  1  23   1
M  END
>  <score>  (9) 
-10.158

$$$$
