=
     RDKit          3D

 50 52  0  0  0  0  0  0  0  0999 V2000
    0.3130   64.5160   70.2850 C   0  0  0  0  0  0  0  0  0  0  0  0
    0.0320   66.0100   70.0520 C   0  0  0  0  0  0  0  0  0  0  0  0
   -0.8200   66.2380   68.7900 C   0  0  0  0  0  0  0  0  0  0  0  0
   -0.6240   67.6370   68.2430 C   0  0  0  0  0  0  0  0  0  0  0  0
    0.8050   67.8020   67.7760 N   0  0  0  0  0  4  0  0  0  0  0  0
    1.8310   67.0390   68.5930 C   0  0  0  0  0  0  0  0  0  0  0  0
    1.3350   66.8270   70.0150 C   0  0  0  0  0  0  0  0  0  0  0  0
    1.1520   69.2620   67.5660 C   0  0  0  0  0  0  0  0  0  0  0  0
    2.5990   69.4760   67.2160 C   0  0  0  0  0  0  0  0  0  0  0  0
    3.0870   69.1340   65.9460 C   0  0  0  0  0  0  0  0  0  0  0  0
    4.4260   69.3540   65.6190 C   0  0  0  0  0  0  0  0  0  0  0  0
    5.2910   69.9140   66.5570 C   0  0  0  0  0  0  0  0  0  0  0  0
    4.8220   70.2500   67.8250 C   0  0  0  0  0  0  0  0  0  0  0  0
    3.4840   70.0320   68.1560 C   0  0  0  0  0  0  0  0  0  0  0  0
    1.5410   64.3660   70.9940 O   0  0  0  0  0  0  0  0  0  0  0  0
    3.7270   61.4880   70.7790 C   0  0  0  0  0  0  0  0  0  0  0  0
    4.1060   61.5580   69.4400 C   0  0  0  0  0  0  0  0  0  0  0  0
    3.6000   62.5950   68.6760 C   0  0  0  0  0  0  0  0  0  0  0  0
    2.7550   63.5400   69.1470 N   0  0  0  0  0  0  0  0  0  0  0  0
    2.4240   63.4560   70.4530 C   0  0  0  0  0  0  0  0  0  0  0  0
    2.8570   62.4500   71.2940 C   0  0  0  0  0  0  0  0  0  0  0  0
    4.1870   60.4090   71.6850 C   0  0  0  0  0  0  0  0  0  0  0  0
    5.0460   60.6190   72.5340 O   0  0  0  0  0  0  0  0  0  0  0  0
    3.8600   58.2430   70.6360 N   0  0  0  0  0  0  0  0  0  0  0  0
    3.6080   59.0280   71.6320 C   0  0  0  0  0  0  0  0  0  0  0  0
    3.1970   57.0280   70.8480 O   0  0  0  0  0  0  0  0  0  0  0  0
   -0.5058   64.0768   70.8737 H   0  0  0  0  0  0  0  0  0  0  0  0
    0.3855   64.0020   69.3152 H   0  0  0  0  0  0  0  0  0  0  0  0
   -0.5570   66.3714   70.9079 H   0  0  0  0  0  0  0  0  0  0  0  0
   -0.5260   65.5077   68.0217 H   0  0  0  0  0  0  0  0  0  0  0  0
   -1.8797   66.1136   69.0576 H   0  0  0  0  0  0  0  0  0  0  0  0
   -1.3071   67.7982   67.3960 H   0  0  0  0  0  0  0  0  0  0  0  0
   -0.8380   68.3720   69.0329 H   0  0  0  0  0  0  0  0  0  0  0  0
    0.8566   67.3448   66.8545 H   0  0  0  0  0  0  0  0  0  0  0  0
    2.0113   66.0606   68.1237 H   0  0  0  0  0  0  0  0  0  0  0  0
    2.7624   67.6233   68.6264 H   0  0  0  0  0  0  0  0  0  0  0  0
    2.1077   66.2902   70.5849 H   0  0  0  0  0  0  0  0  0  0  0  0
    1.1313   67.8140   70.4558 H   0  0  0  0  0  0  0  0  0  0  0  0
    0.5312   69.6560   66.7479 H   0  0  0  0  0  0  0  0  0  0  0  0
    0.9611   69.7860   68.5142 H   0  0  0  0  0  0  0  0  0  0  0  0
    2.4094   68.6892   65.2024 H   0  0  0  0  0  0  0  0  0  0  0  0
    4.7988   69.0850   64.6197 H   0  0  0  0  0  0  0  0  0  0  0  0
    6.3449   70.0909   66.2961 H   0  0  0  0  0  0  0  0  0  0  0  0
    5.5071   70.6876   68.5661 H   0  0  0  0  0  0  0  0  0  0  0  0
    3.1193   70.2971   69.1594 H   0  0  0  0  0  0  0  0  0  0  0  0
    4.7865   60.8120   69.0036 H   0  0  0  0  0  0  0  0  0  0  0  0
    3.9039   62.6543   67.6205 H   0  0  0  0  0  0  0  0  0  0  0  0
    2.5250   62.4080   72.3419 H   0  0  0  0  0  0  0  0  0  0  0  0
    2.9611   58.6780   72.4499 H   0  0  0  0  0  0  0  0  0  0  0  0
    3.2750   56.2989   70.1828 H   0  0  0  0  0  0  0  0  0  0  0  0
  2  1  1  0
  3  2  1  0
  4  3  1  0
  5  4  1  0
  6  5  1  0
  7  6  1  0
  7  2  1  0
  8  5  1  0
  9  8  1  0
 10  9  2  0
 11 10  1  0
 12 11  2  0
 13 12  1  0
 14 13  2  0
 14  9  1  0
 15  1  1  0
 17 16  2  0
 18 17  1  0
 19 18  2  0
 20 19  1  0
 20 15  1  0
 21 20  2  0
 21 16  1  0
 22 16  1  0
 23 22  2  0
 25 24  2  0
 25 22  1  0
 26 24  1  0
  1 27  1  0
  1 28  1  0
  2 29  1  0
  3 30  1  0
  3 31  1  0
  4 32  1  0
  4 33  1  0
  5 34  1  0
  6 35  1  0
  6 36  1  0
  7 37  1  0
  7 38  1  0
  8 39  1  0
  8 40  1  0
 10 41  1  0
 11 42  1  0
 12 43  1  0
 13 44  1  0
 14 45  1  0
 17 46  1  0
 18 47  1  0
 21 48  1  0
 25 49  1  0
 26 50  1  0
M  CHG  1   5   1
M  END
>  <score>  (1) 
-9.316

$$$$
=
     RDKit          3D

 50 52  0  0  0  0  0  0  0  0999 V2000
   -0.1030   65.9970   69.2170 C   0  0  0  0  0  0  0  0  0  0  0  0
   -0.1730   67.2980   68.4000 C   0  0  0  0  0  0  0  0  0  0  0  0
   -1.1590   67.1780   67.2240 C   0  0  0  0  0  0  0  0  0  0  0  0
   -0.8270   68.1700   66.1280 C   0  0  0  0  0  0  0  0  0  0  0  0
    0.5220   67.8320   65.5320 N   0  0  0  0  0  4  0  0  0  0  0  0
    1.5250   67.2610   66.5170 C   0  0  0  0  0  0  0  0  0  0  0  0
    1.2230   67.7410   67.9290 C   0  0  0  0  0  0  0  0  0  0  0  0
    1.0620   68.9810   64.7050 C   0  0  0  0  0  0  0  0  0  0  0  0
    2.5510   68.9080   64.5040 C   0  0  0  0  0  0  0  0  0  0  0  0
    3.0880   68.3840   63.3180 C   0  0  0  0  0  0  0  0  0  0  0  0
    4.4700   68.3390   63.1270 C   0  0  0  0  0  0  0  0  0  0  0  0
    5.3280   68.8100   64.1170 C   0  0  0  0  0  0  0  0  0  0  0  0
    4.8090   69.3240   65.3030 C   0  0  0  0  0  0  0  0  0  0  0  0
    3.4280   69.3720   65.4980 C   0  0  0  0  0  0  0  0  0  0  0  0
    1.0840   65.9930   70.0080 O   0  0  0  0  0  0  0  0  0  0  0  0
    2.7660   62.9320   70.9630 C   0  0  0  0  0  0  0  0  0  0  0  0
    1.9610   62.5210   72.0220 C   0  0  0  0  0  0  0  0  0  0  0  0
    0.8720   63.3100   72.3550 C   0  0  0  0  0  0  0  0  0  0  0  0
    0.5480   64.4580   71.7180 N   0  0  0  0  0  0  0  0  0  0  0  0
    1.3360   64.8170   70.6820 C   0  0  0  0  0  0  0  0  0  0  0  0
    2.4550   64.1120   70.2850 C   0  0  0  0  0  0  0  0  0  0  0  0
    3.9700   62.1800   70.5340 C   0  0  0  0  0  0  0  0  0  0  0  0
    5.0950   62.5580   70.8440 O   0  0  0  0  0  0  0  0  0  0  0  0
    4.0060   59.7620   70.3090 N   0  0  0  0  0  0  0  0  0  0  0  0
    3.8730   60.9160   69.7380 C   0  0  0  0  0  0  0  0  0  0  0  0
    3.8700   58.7660   69.3350 O   0  0  0  0  0  0  0  0  0  0  0  0
   -0.9819   65.9300   69.8751 H   0  0  0  0  0  0  0  0  0  0  0  0
   -0.0894   65.1358   68.5328 H   0  0  0  0  0  0  0  0  0  0  0  0
   -0.5590   68.0839   69.0659 H   0  0  0  0  0  0  0  0  0  0  0  0
   -1.1059   66.1588   66.8137 H   0  0  0  0  0  0  0  0  0  0  0  0
   -2.1718   67.3943   67.5948 H   0  0  0  0  0  0  0  0  0  0  0  0
   -1.5968   68.1209   65.3438 H   0  0  0  0  0  0  0  0  0  0  0  0
   -0.7969   69.1854   66.5499 H   0  0  0  0  0  0  0  0  0  0  0  0
    0.3587   67.0461   64.8865 H   0  0  0  0  0  0  0  0  0  0  0  0
    1.4730   66.1626   66.4899 H   0  0  0  0  0  0  0  0  0  0  0  0
    2.5321   67.6017   66.2348 H   0  0  0  0  0  0  0  0  0  0  0  0
    1.9774   67.3269   68.6142 H   0  0  0  0  0  0  0  0  0  0  0  0
    1.2490   68.8407   67.9278 H   0  0  0  0  0  0  0  0  0  0  0  0
    0.5735   68.9642   63.7196 H   0  0  0  0  0  0  0  0  0  0  0  0
    0.8478   69.9109   65.2521 H   0  0  0  0  0  0  0  0  0  0  0  0
    2.4154   68.0063   62.5338 H   0  0  0  0  0  0  0  0  0  0  0  0
    4.8820   67.9306   62.1924 H   0  0  0  0  0  0  0  0  0  0  0  0
    6.4166   68.7762   63.9625 H   0  0  0  0  0  0  0  0  0  0  0  0
    5.4880   69.6922   66.0862 H   0  0  0  0  0  0  0  0  0  0  0  0
    3.0232   69.7764   66.4375 H   0  0  0  0  0  0  0  0  0  0  0  0
    2.1829   61.5978   72.5774 H   0  0  0  0  0  0  0  0  0  0  0  0
    0.2322   62.9829   73.1879 H   0  0  0  0  0  0  0  0  0  0  0  0
    3.0842   64.4705   69.4570 H   0  0  0  0  0  0  0  0  0  0  0  0
    3.6865   60.9685   68.6552 H   0  0  0  0  0  0  0  0  0  0  0  0
    3.9427   57.8119   69.5891 H   0  0  0  0  0  0  0  0  0  0  0  0
  2  1  1  0
  3  2  1  0
  4  3  1  0
  5  4  1  0
  6  5  1  0
  7  6  1  0
  7  2  1  0
  8  5  1  0
  9  8  1  0
 10  9  2  0
 11 10  1  0
 12 11  2  0
 13 12  1  0
 14 13  2  0
 14  9  1  0
 15  1  1  0
 17 16  2  0
 18 17  1  0
 19 18  2  0
 20 19  1  0
 20 15  1  0
 21 20  2  0
 21 16  1  0
 22 16  1  0
 23 22  2  0
 25 24  2  0
 25 22  1  0
 26 24  1  0
  1 27  1  0
  1 28  1  0
  2 29  1  0
  3 30  1  0
  3 31  1  0
  4 32  1  0
  4 33  1  0
  5 34  1  0
  6 35  1  0
  6 36  1  0
  7 37  1  0
  7 38  1  0
  8 39  1  0
  8 40  1  0
 10 41  1  0
 11 42  1  0
 12 43  1  0
 13 44  1  0
 14 45  1  0
 17 46  1  0
 18 47  1  0
 21 48  1  0
 25 49  1  0
 26 50  1  0
M  CHG  1   5   1
M  END
>  <score>  (2) 
-9.152

$$$$
=
     RDKit          3D

 50 52  0  0  0  0  0  0  0  0999 V2000
    0.3400   64.6510   70.3140 C   0  0  0  0  0  0  0  0  0  0  0  0
    0.0220   66.1150   69.9660 C   0  0  0  0  0  0  0  0  0  0  0  0
   -0.8670   66.2210   68.7130 C   0  0  0  0  0  0  0  0  0  0  0  0
   -0.7140   67.5740   68.0480 C   0  0  0  0  0  0  0  0  0  0  0  0
    0.6980   67.7250   67.5290 N   0  0  0  0  0  4  0  0  0  0  0  0
    1.7610   67.0520   68.3770 C   0  0  0  0  0  0  0  0  0  0  0  0
    1.3060   66.9500   69.8250 C   0  0  0  0  0  0  0  0  0  0  0  0
    1.0090   69.1690   67.1900 C   0  0  0  0  0  0  0  0  0  0  0  0
    2.4830   69.4340   67.0510 C   0  0  0  0  0  0  0  0  0  0  0  0
    3.2140   69.9900   68.1120 C   0  0  0  0  0  0  0  0  0  0  0  0
    4.5860   70.2130   67.9860 C   0  0  0  0  0  0  0  0  0  0  0  0
    5.2400   69.8880   66.8000 C   0  0  0  0  0  0  0  0  0  0  0  0
    4.5260   69.3440   65.7360 C   0  0  0  0  0  0  0  0  0  0  0  0
    3.1540   69.1180   65.8570 C   0  0  0  0  0  0  0  0  0  0  0  0
    0.1390   64.4370   71.7100 O   0  0  0  0  0  0  0  0  0  0  0  0
    2.9790   62.2210   72.0710 C   0  0  0  0  0  0  0  0  0  0  0  0
    2.8700   61.8870   73.4180 C   0  0  0  0  0  0  0  0  0  0  0  0
    1.8210   62.4330   74.1390 C   0  0  0  0  0  0  0  0  0  0  0  0
    0.9010   63.2740   73.6160 N   0  0  0  0  0  0  0  0  0  0  0  0
    1.0220   63.5610   72.3020 C   0  0  0  0  0  0  0  0  0  0  0  0
    2.0430   63.0860   71.5020 C   0  0  0  0  0  0  0  0  0  0  0  0
    4.0740   61.7170   71.2080 C   0  0  0  0  0  0  0  0  0  0  0  0
    5.0020   62.4450   70.8720 O   0  0  0  0  0  0  0  0  0  0  0  0
    3.6130   59.9630   69.5920 N   0  0  0  0  0  0  0  0  0  0  0  0
    4.1210   60.2970   70.7340 C   0  0  0  0  0  0  0  0  0  0  0  0
    3.7970   58.5880   69.4080 O   0  0  0  0  0  0  0  0  0  0  0  0
   -0.3241   63.9861   69.7423 H   0  0  0  0  0  0  0  0  0  0  0  0
    1.3875   64.4336   70.0580 H   0  0  0  0  0  0  0  0  0  0  0  0
   -0.5517   66.5354   70.8051 H   0  0  0  0  0  0  0  0  0  0  0  0
   -0.5774   65.4353   67.9996 H   0  0  0  0  0  0  0  0  0  0  0  0
   -1.9167   66.0986   69.0182 H   0  0  0  0  0  0  0  0  0  0  0  0
   -1.4227   67.6529   67.2104 H   0  0  0  0  0  0  0  0  0  0  0  0
   -0.9216   68.3677   68.7807 H   0  0  0  0  0  0  0  0  0  0  0  0
    0.7345   67.1932   66.6476 H   0  0  0  0  0  0  0  0  0  0  0  0
    1.9496   66.0415   67.9854 H   0  0  0  0  0  0  0  0  0  0  0  0
    2.6808   67.6540   68.3360 H   0  0  0  0  0  0  0  0  0  0  0  0
    2.1042   66.4772   70.4160 H   0  0  0  0  0  0  0  0  0  0  0  0
    1.0928   67.9665   70.1874 H   0  0  0  0  0  0  0  0  0  0  0  0
    0.5162   69.4201   66.2392 H   0  0  0  0  0  0  0  0  0  0  0  0
    0.6392   69.7895   68.0196 H   0  0  0  0  0  0  0  0  0  0  0  0
    2.7020   70.2520   69.0497 H   0  0  0  0  0  0  0  0  0  0  0  0
    5.1515   70.6459   68.8243 H   0  0  0  0  0  0  0  0  0  0  0  0
    6.3220   70.0614   66.7040 H   0  0  0  0  0  0  0  0  0  0  0  0
    5.0437   69.0919   64.7987 H   0  0  0  0  0  0  0  0  0  0  0  0
    2.5942   68.6898   65.0125 H   0  0  0  0  0  0  0  0  0  0  0  0
    3.5945   61.2105   73.8949 H   0  0  0  0  0  0  0  0  0  0  0  0
    1.7310   62.1659   75.2023 H   0  0  0  0  0  0  0  0  0  0  0  0
    2.1164   63.3815   70.4450 H   0  0  0  0  0  0  0  0  0  0  0  0
    4.5930   59.5290   71.3643 H   0  0  0  0  0  0  0  0  0  0  0  0
    3.4692   58.1508   68.5825 H   0  0  0  0  0  0  0  0  0  0  0  0
  2  1  1  0
  3  2  1  0
  4  3  1  0
  5  4  1  0
  6  5  1  0
  7  6  1  0
  7  2  1  0
  8  5  1  0
  9  8  1  0
 10  9  2  0
 11 10  1  0
 12 11  2  0
 13 12  1  0
 14 13  2  0
 14  9  1  0
 15  1  1  0
 17 16  2  0
 18 17  1  0
 19 18  2  0
 20 19  1  0
 20 15  1  0
 21 20  2  0
 21 16  1  0
 22 16  1  0
 23 22  2  0
 25 24  2  0
 25 22  1  0
 26 24  1  0
  1 27  1  0
  1 28  1  0
  2 29  1  0
  3 30  1  0
  3 31  1  0
  4 32  1  0
  4 33  1  0
  5 34  1  0
  6 35  1  0
  6 36  1  0
  7 37  1  0
  7 38  1  0
  8 39  1  0
  8 40  1  0
 10 41  1  0
 11 42  1  0
 12 43  1  0
 13 44  1  0
 14 45  1  0
 17 46  1  0
 18 47  1  0
 21 48  1  0
 25 49  1  0
 26 50  1  0
M  CHG  1   5   1
M  END
>  <score>  (3) 
-8.998

$$$$
=
     RDKit          3D

 50 52  0  0  0  0  0  0  0  0999 V2000
    3.7720   67.6240   61.1660 C   0  0  0  0  0  0  0  0  0  0  0  0
    4.9190   67.6100   62.1900 C   0  0  0  0  0  0  0  0  0  0  0  0
    4.5000   66.9200   63.5020 C   0  0  0  0  0  0  0  0  0  0  0  0
    5.3560   67.3870   64.6620 C   0  0  0  0  0  0  0  0  0  0  0  0
    5.1120   68.8590   64.9090 N   0  0  0  0  0  4  0  0  0  0  0  0
    4.8270   69.6730   63.6610 C   0  0  0  0  0  0  0  0  0  0  0  0
    5.4650   69.0260   62.4420 C   0  0  0  0  0  0  0  0  0  0  0  0
    6.1880   69.4540   65.7960 C   0  0  0  0  0  0  0  0  0  0  0  0
    5.6520   69.9560   67.1090 C   0  0  0  0  0  0  0  0  0  0  0  0
    4.2820   69.8790   67.4000 C   0  0  0  0  0  0  0  0  0  0  0  0
    3.7940   70.3260   68.6290 C   0  0  0  0  0  0  0  0  0  0  0  0
    4.6650   70.8580   69.5750 C   0  0  0  0  0  0  0  0  0  0  0  0
    6.0270   70.9500   69.2960 C   0  0  0  0  0  0  0  0  0  0  0  0
    6.5200   70.5030   68.0690 C   0  0  0  0  0  0  0  0  0  0  0  0
    3.2150   68.9350   61.0900 O   0  0  0  0  0  0  0  0  0  0  0  0
    0.5010   68.7000   63.4750 C   0  0  0  0  0  0  0  0  0  0  0  0
   -0.5070   69.3610   62.7770 C   0  0  0  0  0  0  0  0  0  0  0  0
   -0.2100   69.8500   61.5160 C   0  0  0  0  0  0  0  0  0  0  0  0
    1.0000   69.7310   60.9250 N   0  0  0  0  0  0  0  0  0  0  0  0
    1.9490   69.0670   61.6180 C   0  0  0  0  0  0  0  0  0  0  0  0
    1.7600   68.5600   62.8890 C   0  0  0  0  0  0  0  0  0  0  0  0
    0.3050   68.1570   64.8400 C   0  0  0  0  0  0  0  0  0  0  0  0
    1.0250   67.2660   65.2760 O   0  0  0  0  0  0  0  0  0  0  0  0
   -1.6850   67.9120   66.2120 N   0  0  0  0  0  0  0  0  0  0  0  0
   -0.7520   68.6870   65.7600 C   0  0  0  0  0  0  0  0  0  0  0  0
   -2.5260   68.6650   67.0400 O   0  0  0  0  0  0  0  0  0  0  0  0
    4.1592   67.3328   60.1784 H   0  0  0  0  0  0  0  0  0  0  0  0
    2.9931   66.9136   61.4799 H   0  0  0  0  0  0  0  0  0  0  0  0
    5.7376   67.0154   61.7584 H   0  0  0  0  0  0  0  0  0  0  0  0
    3.4473   67.1591   63.7133 H   0  0  0  0  0  0  0  0  0  0  0  0
    4.6339   65.8346   63.3839 H   0  0  0  0  0  0  0  0  0  0  0  0
    5.0936   66.8155   65.5645 H   0  0  0  0  0  0  0  0  0  0  0  0
    6.4174   67.2268   64.4218 H   0  0  0  0  0  0  0  0  0  0  0  0
    4.2251   68.9165   65.4295 H   0  0  0  0  0  0  0  0  0  0  0  0
    3.7391   69.7340   63.5100 H   0  0  0  0  0  0  0  0  0  0  0  0
    5.2507   70.6799   63.7903 H   0  0  0  0  0  0  0  0  0  0  0  0
    5.2575   69.6491   61.5596 H   0  0  0  0  0  0  0  0  0  0  0  0
    6.5464   68.9457   62.6264 H   0  0  0  0  0  0  0  0  0  0  0  0
    6.9439   68.6808   65.9979 H   0  0  0  0  0  0  0  0  0  0  0  0
    6.6165   70.3156   65.2630 H   0  0  0  0  0  0  0  0  0  0  0  0
    3.5876   69.4636   66.6548 H   0  0  0  0  0  0  0  0  0  0  0  0
    2.7186   70.2576   68.8502 H   0  0  0  0  0  0  0  0  0  0  0  0
    4.2778   71.2062   70.5439 H   0  0  0  0  0  0  0  0  0  0  0  0
    6.7138   71.3749   70.0428 H   0  0  0  0  0  0  0  0  0  0  0  0
    7.5957   70.5795   67.8521 H   0  0  0  0  0  0  0  0  0  0  0  0
   -1.5081   69.4906   63.2140 H   0  0  0  0  0  0  0  0  0  0  0  0
   -1.0071   70.3667   60.9614 H   0  0  0  0  0  0  0  0  0  0  0  0
    2.5798   68.0593   63.4249 H   0  0  0  0  0  0  0  0  0  0  0  0
   -0.7350   69.7467   66.0547 H   0  0  0  0  0  0  0  0  0  0  0  0
   -3.3026   68.2355   67.4787 H   0  0  0  0  0  0  0  0  0  0  0  0
  2  1  1  0
  3  2  1  0
  4  3  1  0
  5  4  1  0
  6  5  1  0
  7  6  1  0
  7  2  1  0
  8  5  1  0
  9  8  1  0
 10  9  2  0
 11 10  1  0
 12 11  2  0
 13 12  1  0
 14 13  2  0
 14  9  1  0
 15  1  1  0
 17 16  2  0
 18 17  1  0
 19 18  2  0
 20 19  1  0
 20 15  1  0
 21 20  2  0
 21 16  1  0
 22 16  1  0
 23 22  2  0
 25 24  2  0
 25 22  1  0
 26 24  1  0
  1 27  1  0
  1 28  1  0
  2 29  1  0
  3 30  1  0
  3 31  1  0
  4 32  1  0
  4 33  1  0
  5 34  1  0
  6 35  1  0
  6 36  1  0
  7 37  1  0
  7 38  1  0
  8 39  1  0
  8 40  1  0
 10 41  1  0
 11 42  1  0
 12 43  1  0
 13 44  1  0
 14 45  1  0
 17 46  1  0
 18 47  1  0
 21 48  1  0
 25 49  1  0
 26 50  1  0
M  CHG  1   5   1
M  END
>  <score>  (4) 
-8.829

$$$$
=
     RDKit          3D

 50 52  0  0  0  0  0  0  0  0999 V2000
    0.3070   69.0380   64.9710 C   0  0  0  0  0  0  0  0  0  0  0  0
    0.2900   69.0550   66.5090 C   0  0  0  0  0  0  0  0  0  0  0  0
    1.6600   68.6650   67.0950 C   0  0  0  0  0  0  0  0  0  0  0  0
    1.5180   68.1310   68.5070 C   0  0  0  0  0  0  0  0  0  0  0  0
    0.7310   66.8400   68.4810 N   0  0  0  0  0  4  0  0  0  0  0  0
   -0.3500   66.7760   67.4180 C   0  0  0  0  0  0  0  0  0  0  0  0
   -0.8400   68.1730   67.0680 C   0  0  0  0  0  0  0  0  0  0  0  0
    0.2500   66.4610   69.8670 C   0  0  0  0  0  0  0  0  0  0  0  0
    0.8590   65.1800   70.3680 C   0  0  0  0  0  0  0  0  0  0  0  0
    0.0530   64.1690   70.9130 C   0  0  0  0  0  0  0  0  0  0  0  0
    0.6210   62.9740   71.3560 C   0  0  0  0  0  0  0  0  0  0  0  0
    1.9970   62.7780   71.2650 C   0  0  0  0  0  0  0  0  0  0  0  0
    2.8100   63.7770   70.7360 C   0  0  0  0  0  0  0  0  0  0  0  0
    2.2470   64.9730   70.2900 C   0  0  0  0  0  0  0  0  0  0  0  0
    0.4400   67.6960   64.5090 O   0  0  0  0  0  0  0  0  0  0  0  0
    3.4010   65.6190   64.3390 C   0  0  0  0  0  0  0  0  0  0  0  0
    4.2260   66.4180   63.5520 C   0  0  0  0  0  0  0  0  0  0  0  0
    3.7300   67.6380   63.1230 C   0  0  0  0  0  0  0  0  0  0  0  0
    2.4920   68.0960   63.4150 N   0  0  0  0  0  0  0  0  0  0  0  0
    1.7250   67.3070   64.1970 C   0  0  0  0  0  0  0  0  0  0  0  0
    2.1180   66.0660   64.6590 C   0  0  0  0  0  0  0  0  0  0  0  0
    3.8160   64.2850   64.8350 C   0  0  0  0  0  0  0  0  0  0  0  0
    3.5810   63.9370   65.9870 O   0  0  0  0  0  0  0  0  0  0  0  0
    5.7080   63.5130   63.5210 N   0  0  0  0  0  0  0  0  0  0  0  0
    4.5090   63.2910   63.9540 C   0  0  0  0  0  0  0  0  0  0  0  0
    6.1020   62.4290   62.7280 O   0  0  0  0  0  0  0  0  0  0  0  0
   -0.6323   69.4650   64.5898 H   0  0  0  0  0  0  0  0  0  0  0  0
    1.1568   69.6350   64.6085 H   0  0  0  0  0  0  0  0  0  0  0  0
    0.0851   70.0885   66.8250 H   0  0  0  0  0  0  0  0  0  0  0  0
    2.1139   67.8888   66.4614 H   0  0  0  0  0  0  0  0  0  0  0  0
    2.2960   69.5621   67.1232 H   0  0  0  0  0  0  0  0  0  0  0  0
    2.5159   67.9436   68.9302 H   0  0  0  0  0  0  0  0  0  0  0  0
    0.9896   68.8701   69.1271 H   0  0  0  0  0  0  0  0  0  0  0  0
    1.3930   66.1104   68.1803 H   0  0  0  0  0  0  0  0  0  0  0  0
    0.0589   66.2995   66.5148 H   0  0  0  0  0  0  0  0  0  0  0  0
   -1.1960   66.1906   67.8073 H   0  0  0  0  0  0  0  0  0  0  0  0
   -1.6347   68.0919   66.3118 H   0  0  0  0  0  0  0  0  0  0  0  0
   -1.2149   68.6431   67.9891 H   0  0  0  0  0  0  0  0  0  0  0  0
    0.5132   67.2707   70.5635 H   0  0  0  0  0  0  0  0  0  0  0  0
   -0.8378   66.3087   69.8087 H   0  0  0  0  0  0  0  0  0  0  0  0
   -1.0338   64.3195   70.9915 H   0  0  0  0  0  0  0  0  0  0  0  0
   -0.0191   62.1852   71.7779 H   0  0  0  0  0  0  0  0  0  0  0  0
    2.4417   61.8334   71.6113 H   0  0  0  0  0  0  0  0  0  0  0  0
    3.8972   63.6231   70.6697 H   0  0  0  0  0  0  0  0  0  0  0  0
    2.8940   65.7596   69.8744 H   0  0  0  0  0  0  0  0  0  0  0  0
    5.2401   66.0906   63.2794 H   0  0  0  0  0  0  0  0  0  0  0  0
    4.3835   68.2732   62.5069 H   0  0  0  0  0  0  0  0  0  0  0  0
    1.4383   65.4468   65.2628 H   0  0  0  0  0  0  0  0  0  0  0  0
    3.9926   62.3616   63.6719 H   0  0  0  0  0  0  0  0  0  0  0  0
    6.9983   62.4231   62.3077 H   0  0  0  0  0  0  0  0  0  0  0  0
  2  1  1  0
  3  2  1  0
  4  3  1  0
  5  4  1  0
  6  5  1  0
  7  6  1  0
  7  2  1  0
  8  5  1  0
  9  8  1  0
 10  9  2  0
 11 10  1  0
 12 11  2  0
 13 12  1  0
 14 13  2  0
 14  9  1  0
 15  1  1  0
 17 16  2  0
 18 17  1  0
 19 18  2  0
 20 19  1  0
 20 15  1  0
 21 20  2  0
 21 16  1  0
 22 16  1  0
 23 22  2  0
 25 24  2  0
 25 22  1  0
 26 24  1  0
  1 27  1  0
  1 28  1  0
  2 29  1  0
  3 30  1  0
  3 31  1  0
  4 32  1  0
  4 33  1  0
  5 34  1  0
  6 35  1  0
  6 36  1  0
  7 37  1  0
  7 38  1  0
  8 39  1  0
  8 40  1  0
 10 41  1  0
 11 42  1  0
 12 43  1  0
 13 44  1  0
 14 45  1  0
 17 46  1  0
 18 47  1  0
 21 48  1  0
 25 49  1  0
 26 50  1  0
M  CHG  1   5   1
M  END
>  <score>  (5) 
-8.688

$$$$
=
     RDKit          3D

 50 52  0  0  0  0  0  0  0  0999 V2000
    0.6510   64.4160   70.4680 C   0  0  0  0  0  0  0  0  0  0  0  0
    1.8730   63.7930   71.1630 C   0  0  0  0  0  0  0  0  0  0  0  0
    3.1900   64.2270   70.4930 C   0  0  0  0  0  0  0  0  0  0  0  0
    4.2970   63.2280   70.7640 C   0  0  0  0  0  0  0  0  0  0  0  0
    3.9550   61.9060   70.1130 N   0  0  0  0  0  4  0  0  0  0  0  0
    2.4750   61.5750   70.0910 C   0  0  0  0  0  0  0  0  0  0  0  0
    1.7540   62.2610   71.2420 C   0  0  0  0  0  0  0  0  0  0  0  0
    4.8250   60.7880   70.6480 C   0  0  0  0  0  0  0  0  0  0  0  0
    4.0390   59.7320   71.3780 C   0  0  0  0  0  0  0  0  0  0  0  0
    3.8480   59.8140   72.7650 C   0  0  0  0  0  0  0  0  0  0  0  0
    3.1000   58.8440   73.4340 C   0  0  0  0  0  0  0  0  0  0  0  0
    2.5390   57.7830   72.7270 C   0  0  0  0  0  0  0  0  0  0  0  0
    2.7290   57.6850   71.3510 C   0  0  0  0  0  0  0  0  0  0  0  0
    3.4760   58.6520   70.6770 C   0  0  0  0  0  0  0  0  0  0  0  0
    0.6680   65.8300   70.6510 O   0  0  0  0  0  0  0  0  0  0  0  0
    1.2520   68.2170   67.9920 C   0  0  0  0  0  0  0  0  0  0  0  0
    0.1080   68.0230   67.2220 C   0  0  0  0  0  0  0  0  0  0  0  0
   -0.8150   67.0860   67.6550 C   0  0  0  0  0  0  0  0  0  0  0  0
   -0.6700   66.3450   68.7770 N   0  0  0  0  0  0  0  0  0  0  0  0
    0.4380   66.5720   69.5120 C   0  0  0  0  0  0  0  0  0  0  0  0
    1.4280   67.4680   69.1560 C   0  0  0  0  0  0  0  0  0  0  0  0
    2.3180   69.1750   67.6130 C   0  0  0  0  0  0  0  0  0  0  0  0
    2.7360   70.0060   68.4110 O   0  0  0  0  0  0  0  0  0  0  0  0
    4.1320   69.6640   66.0730 N   0  0  0  0  0  0  0  0  0  0  0  0
    2.9570   69.1540   66.2580 C   0  0  0  0  0  0  0  0  0  0  0  0
    4.4780   69.5060   64.7250 O   0  0  0  0  0  0  0  0  0  0  0  0
    0.6837   64.1853   69.3930 H   0  0  0  0  0  0  0  0  0  0  0  0
   -0.2695   64.0014   70.9049 H   0  0  0  0  0  0  0  0  0  0  0  0
    1.8938   64.1741   72.1947 H   0  0  0  0  0  0  0  0  0  0  0  0
    3.0324   64.3023   69.4070 H   0  0  0  0  0  0  0  0  0  0  0  0
    3.4889   65.2002   70.9096 H   0  0  0  0  0  0  0  0  0  0  0  0
    5.2425   63.6072   70.3490 H   0  0  0  0  0  0  0  0  0  0  0  0
    4.4037   63.0850   71.8494 H   0  0  0  0  0  0  0  0  0  0  0  0
    4.1825   62.0133   69.1142 H   0  0  0  0  0  0  0  0  0  0  0  0
    2.0426   61.9166   69.1390 H   0  0  0  0  0  0  0  0  0  0  0  0
    2.3541   60.4867   70.1960 H   0  0  0  0  0  0  0  0  0  0  0  0
    0.6897   61.9850   71.2097 H   0  0  0  0  0  0  0  0  0  0  0  0
    2.2213   61.9311   72.1816 H   0  0  0  0  0  0  0  0  0  0  0  0
    5.3478   60.3153   69.8034 H   0  0  0  0  0  0  0  0  0  0  0  0
    5.5281   61.2326   71.3677 H   0  0  0  0  0  0  0  0  0  0  0  0
    4.2906   60.6482   73.3292 H   0  0  0  0  0  0  0  0  0  0  0  0
    2.9532   58.9175   74.5217 H   0  0  0  0  0  0  0  0  0  0  0  0
    1.9458   57.0224   73.2557 H   0  0  0  0  0  0  0  0  0  0  0  0
    2.2896   56.8441   70.7945 H   0  0  0  0  0  0  0  0  0  0  0  0
    3.6250   58.5683   69.5904 H   0  0  0  0  0  0  0  0  0  0  0  0
   -0.0574   68.5966   66.2981 H   0  0  0  0  0  0  0  0  0  0  0  0
   -1.7210   66.9352   67.0497 H   0  0  0  0  0  0  0  0  0  0  0  0
    2.3304   67.5875   69.7736 H   0  0  0  0  0  0  0  0  0  0  0  0
    2.4216   68.7001   65.4111 H   0  0  0  0  0  0  0  0  0  0  0  0
    5.3502   69.8388   64.3955 H   0  0  0  0  0  0  0  0  0  0  0  0
  2  1  1  0
  3  2  1  0
  4  3  1  0
  5  4  1  0
  6  5  1  0
  7  6  1  0
  7  2  1  0
  8  5  1  0
  9  8  1  0
 10  9  2  0
 11 10  1  0
 12 11  2  0
 13 12  1  0
 14 13  2  0
 14  9  1  0
 15  1  1  0
 17 16  2  0
 18 17  1  0
 19 18  2  0
 20 19  1  0
 20 15  1  0
 21 20  2  0
 21 16  1  0
 22 16  1  0
 23 22  2  0
 25 24  2  0
 25 22  1  0
 26 24  1  0
  1 27  1  0
  1 28  1  0
  2 29  1  0
  3 30  1  0
  3 31  1  0
  4 32  1  0
  4 33  1  0
  5 34  1  0
  6 35  1  0
  6 36  1  0
  7 37  1  0
  7 38  1  0
  8 39  1  0
  8 40  1  0
 10 41  1  0
 11 42  1  0
 12 43  1  0
 13 44  1  0
 14 45  1  0
 17 46  1  0
 18 47  1  0
 21 48  1  0
 25 49  1  0
 26 50  1  0
M  CHG  1   5   1
M  END
>  <score>  (6) 
-8.569

$$$$
=
     RDKit          3D

 50 52  0  0  0  0  0  0  0  0999 V2000
    1.1490   65.5740   70.2110 C   0  0  0  0  0  0  0  0  0  0  0  0
    0.3620   66.7200   69.5510 C   0  0  0  0  0  0  0  0  0  0  0  0
   -0.7650   66.1870   68.6470 C   0  0  0  0  0  0  0  0  0  0  0  0
   -1.1480   67.2060   67.5930 C   0  0  0  0  0  0  0  0  0  0  0  0
    0.0200   67.4280   66.6580 N   0  0  0  0  0  4  0  0  0  0  0  0
    1.3850   67.3310   67.3130 C   0  0  0  0  0  0  0  0  0  0  0  0
    1.2960   67.6780   68.7920 C   0  0  0  0  0  0  0  0  0  0  0  0
   -0.1710   68.6800   65.8260 C   0  0  0  0  0  0  0  0  0  0  0  0
    0.6480   68.6750   64.5640 C   0  0  0  0  0  0  0  0  0  0  0  0
    2.0190   68.3800   64.6010 C   0  0  0  0  0  0  0  0  0  0  0  0
    2.7690   68.3560   63.4250 C   0  0  0  0  0  0  0  0  0  0  0  0
    2.1610   68.6280   62.2020 C   0  0  0  0  0  0  0  0  0  0  0  0
    0.8030   68.9310   62.1510 C   0  0  0  0  0  0  0  0  0  0  0  0
    0.0480   68.9560   63.3250 C   0  0  0  0  0  0  0  0  0  0  0  0
    0.2380   64.6090   70.7340 O   0  0  0  0  0  0  0  0  0  0  0  0
    2.2330   62.1360   72.4690 C   0  0  0  0  0  0  0  0  0  0  0  0
    1.8110   62.3440   73.7800 C   0  0  0  0  0  0  0  0  0  0  0  0
    0.8540   63.3190   74.0060 C   0  0  0  0  0  0  0  0  0  0  0  0
    0.3110   64.0850   73.0340 N   0  0  0  0  0  0  0  0  0  0  0  0
    0.7260   63.8440   71.7720 C   0  0  0  0  0  0  0  0  0  0  0  0
    1.6890   62.9100   71.4440 C   0  0  0  0  0  0  0  0  0  0  0  0
    3.2690   61.1370   72.1120 C   0  0  0  0  0  0  0  0  0  0  0  0
    4.2570   60.9690   72.8180 O   0  0  0  0  0  0  0  0  0  0  0  0
    4.1740   59.6400   70.4260 N   0  0  0  0  0  0  0  0  0  0  0  0
    3.1450   60.2660   70.8990 C   0  0  0  0  0  0  0  0  0  0  0  0
    3.7720   58.9090   69.3030 O   0  0  0  0  0  0  0  0  0  0  0  0
    1.7984   65.0968   69.4623 H   0  0  0  0  0  0  0  0  0  0  0  0
    1.7651   65.9765   71.0286 H   0  0  0  0  0  0  0  0  0  0  0  0
   -0.1157   67.2980   70.3558 H   0  0  0  0  0  0  0  0  0  0  0  0
   -0.4221   65.2676   68.1498 H   0  0  0  0  0  0  0  0  0  0  0  0
   -1.6469   65.9831   69.2721 H   0  0  0  0  0  0  0  0  0  0  0  0
   -2.0106   66.8346   67.0203 H   0  0  0  0  0  0  0  0  0  0  0  0
   -1.4129   68.1558   68.0806 H   0  0  0  0  0  0  0  0  0  0  0  0
    0.0181   66.6291   66.0079 H   0  0  0  0  0  0  0  0  0  0  0  0
    1.7656   66.3046   67.2049 H   0  0  0  0  0  0  0  0  0  0  0  0
    2.0649   68.0430   66.8223 H   0  0  0  0  0  0  0  0  0  0  0  0
    2.3020   67.6172   69.2327 H   0  0  0  0  0  0  0  0  0  0  0  0
    0.8854   68.6948   68.8794 H   0  0  0  0  0  0  0  0  0  0  0  0
   -1.2338   68.7621   65.5544 H   0  0  0  0  0  0  0  0  0  0  0  0
    0.1636   69.5340   66.4332 H   0  0  0  0  0  0  0  0  0  0  0  0
    2.5059   68.1662   65.5639 H   0  0  0  0  0  0  0  0  0  0  0  0
    3.8431   68.1217   63.4638 H   0  0  0  0  0  0  0  0  0  0  0  0
    2.7539   68.6035   61.2758 H   0  0  0  0  0  0  0  0  0  0  0  0
    0.3247   69.1508   61.1851 H   0  0  0  0  0  0  0  0  0  0  0  0
   -1.0242   69.1974   63.2797 H   0  0  0  0  0  0  0  0  0  0  0  0
    2.2250   61.7523   74.6098 H   0  0  0  0  0  0  0  0  0  0  0  0
    0.5150   63.4799   75.0400 H   0  0  0  0  0  0  0  0  0  0  0  0
    2.0182   62.7800   70.4025 H   0  0  0  0  0  0  0  0  0  0  0  0
    2.1682   60.1575   70.4050 H   0  0  0  0  0  0  0  0  0  0  0  0
    4.4313   58.3630   68.8057 H   0  0  0  0  0  0  0  0  0  0  0  0
  2  1  1  0
  3  2  1  0
  4  3  1  0
  5  4  1  0
  6  5  1  0
  7  6  1  0
  7  2  1  0
  8  5  1  0
  9  8  1  0
 10  9  2  0
 11 10  1  0
 12 11  2  0
 13 12  1  0
 14 13  2  0
 14  9  1  0
 15  1  1  0
 17 16  2  0
 18 17  1  0
 19 18  2  0
 20 19  1  0
 20 15  1  0
 21 20  2  0
 21 16  1  0
 22 16  1  0
 23 22  2  0
 25 24  2  0
 25 22  1  0
 26 24  1  0
  1 27  1  0
  1 28  1  0
  2 29  1  0
  3 30  1  0
  3 31  1  0
  4 32  1  0
  4 33  1  0
  5 34  1  0
  6 35  1  0
  6 36  1  0
  7 37  1  0
  7 38  1  0
  8 39  1  0
  8 40  1  0
 10 41  1  0
 11 42  1  0
 12 43  1  0
 13 44  1  0
 14 45  1  0
 17 46  1  0
 18 47  1  0
 21 48  1  0
 25 49  1  0
 26 50  1  0
M  CHG  1   5   1
M  END
>  <score>  (7) 
-8.468

$$$$
=
     RDKit          3D

 50 52  0  0  0  0  0  0  0  0999 V2000
    0.2980   67.0840   68.7910 C   0  0  0  0  0  0  0  0  0  0  0  0
    0.9940   66.3480   69.9480 C   0  0  0  0  0  0  0  0  0  0  0  0
    2.2110   65.5420   69.4590 C   0  0  0  0  0  0  0  0  0  0  0  0
    2.5370   64.4100   70.4130 C   0  0  0  0  0  0  0  0  0  0  0  0
    1.3980   63.4160   70.4250 N   0  0  0  0  0  4  0  0  0  0  0  0
    0.0210   64.0260   70.2440 C   0  0  0  0  0  0  0  0  0  0  0  0
    0.0050   65.4670   70.7300 C   0  0  0  0  0  0  0  0  0  0  0  0
    1.5000   62.4770   71.6100 C   0  0  0  0  0  0  0  0  0  0  0  0
    2.2150   61.1950   71.2810 C   0  0  0  0  0  0  0  0  0  0  0  0
    2.1910   60.1120   72.1730 C   0  0  0  0  0  0  0  0  0  0  0  0
    2.8390   58.9180   71.8520 C   0  0  0  0  0  0  0  0  0  0  0  0
    3.5190   58.7930   70.6440 C   0  0  0  0  0  0  0  0  0  0  0  0
    3.5590   59.8640   69.7530 C   0  0  0  0  0  0  0  0  0  0  0  0
    2.9120   61.0600   70.0680 C   0  0  0  0  0  0  0  0  0  0  0  0
    1.0010   68.2910   68.5010 O   0  0  0  0  0  0  0  0  0  0  0  0
    3.0480   69.0320   65.6090 C   0  0  0  0  0  0  0  0  0  0  0  0
    2.1480   68.7520   64.5830 C   0  0  0  0  0  0  0  0  0  0  0  0
    0.8770   68.3300   64.9330 C   0  0  0  0  0  0  0  0  0  0  0  0
    0.4590   68.1660   66.2080 N   0  0  0  0  0  0  0  0  0  0  0  0
    1.3480   68.4660   67.1780 C   0  0  0  0  0  0  0  0  0  0  0  0
    2.6440   68.8740   66.9350 C   0  0  0  0  0  0  0  0  0  0  0  0
    4.4420   69.4680   65.3530 C   0  0  0  0  0  0  0  0  0  0  0  0
    5.1710   69.8290   66.2700 O   0  0  0  0  0  0  0  0  0  0  0  0
    5.5640   68.3810   63.4930 N   0  0  0  0  0  0  0  0  0  0  0  0
    5.0360   69.4580   63.9780 C   0  0  0  0  0  0  0  0  0  0  0  0
    6.0350   68.6580   62.2040 O   0  0  0  0  0  0  0  0  0  0  0  0
    0.2915   66.4406   67.8988 H   0  0  0  0  0  0  0  0  0  0  0  0
   -0.7362   67.3234   69.0794 H   0  0  0  0  0  0  0  0  0  0  0  0
    1.3715   67.1125   70.6430 H   0  0  0  0  0  0  0  0  0  0  0  0
    1.9885   65.1224   68.4668 H   0  0  0  0  0  0  0  0  0  0  0  0
    3.0785   66.2164   69.4088 H   0  0  0  0  0  0  0  0  0  0  0  0
    3.4586   63.9074   70.0841 H   0  0  0  0  0  0  0  0  0  0  0  0
    2.6808   64.8145   71.4258 H   0  0  0  0  0  0  0  0  0  0  0  0
    1.5110   62.8450   69.5753 H   0  0  0  0  0  0  0  0  0  0  0  0
   -0.2479   64.0013   69.1777 H   0  0  0  0  0  0  0  0  0  0  0  0
   -0.7040   63.4453   70.8332 H   0  0  0  0  0  0  0  0  0  0  0  0
   -1.0094   65.8734   70.6040 H   0  0  0  0  0  0  0  0  0  0  0  0
    0.3066   65.4730   71.7878 H   0  0  0  0  0  0  0  0  0  0  0  0
    2.0474   62.9873   72.4161 H   0  0  0  0  0  0  0  0  0  0  0  0
    0.4755   62.2153   71.9130 H   0  0  0  0  0  0  0  0  0  0  0  0
    1.6583   60.2045   73.1310 H   0  0  0  0  0  0  0  0  0  0  0  0
    2.8121   58.0732   72.5560 H   0  0  0  0  0  0  0  0  0  0  0  0
    4.0248   57.8491   70.3926 H   0  0  0  0  0  0  0  0  0  0  0  0
    4.1009   59.7666   68.8007 H   0  0  0  0  0  0  0  0  0  0  0  0
    2.9479   61.9028   69.3620 H   0  0  0  0  0  0  0  0  0  0  0  0
    2.4384   68.8628   63.5278 H   0  0  0  0  0  0  0  0  0  0  0  0
    0.1634   68.1149   64.1240 H   0  0  0  0  0  0  0  0  0  0  0  0
    3.3396   69.0693   67.7645 H   0  0  0  0  0  0  0  0  0  0  0  0
    5.0232   70.3770   63.3736 H   0  0  0  0  0  0  0  0  0  0  0  0
    6.4739   67.9464   61.6738 H   0  0  0  0  0  0  0  0  0  0  0  0
  2  1  1  0
  3  2  1  0
  4  3  1  0
  5  4  1  0
  6  5  1  0
  7  6  1  0
  7  2  1  0
  8  5  1  0
  9  8  1  0
 10  9  2  0
 11 10  1  0
 12 11  2  0
 13 12  1  0
 14 13  2  0
 14  9  1  0
 15  1  1  0
 17 16  2  0
 18 17  1  0
 19 18  2  0
 20 19  1  0
 20 15  1  0
 21 20  2  0
 21 16  1  0
 22 16  1  0
 23 22  2  0
 25 24  2  0
 25 22  1  0
 26 24  1  0
  1 27  1  0
  1 28  1  0
  2 29  1  0
  3 30  1  0
  3 31  1  0
  4 32  1  0
  4 33  1  0
  5 34  1  0
  6 35  1  0
  6 36  1  0
  7 37  1  0
  7 38  1  0
  8 39  1  0
  8 40  1  0
 10 41  1  0
 11 42  1  0
 12 43  1  0
 13 44  1  0
 14 45  1  0
 17 46  1  0
 18 47  1  0
 21 48  1  0
 25 49  1  0
 26 50  1  0
M  CHG  1   5   1
M  END
>  <score>  (8) 
-8.356

$$$$
=
     RDKit          3D

 50 52  0  0  0  0  0  0  0  0999 V2000
    1.6610   64.6520   69.9040 C   0  0  0  0  0  0  0  0  0  0  0  0
    2.6870   64.0680   70.8910 C   0  0  0  0  0  0  0  0  0  0  0  0
    4.0170   63.7300   70.1930 C   0  0  0  0  0  0  0  0  0  0  0  0
    4.7860   62.6750   70.9630 C   0  0  0  0  0  0  0  0  0  0  0  0
    4.0080   61.3780   70.9560 N   0  0  0  0  0  4  0  0  0  0  0  0
    2.5000   61.5410   70.9800 C   0  0  0  0  0  0  0  0  0  0  0  0
    2.1140   62.8550   71.6430 C   0  0  0  0  0  0  0  0  0  0  0  0
    4.5370   60.4130   71.9980 C   0  0  0  0  0  0  0  0  0  0  0  0
    3.6200   59.2440   72.2320 C   0  0  0  0  0  0  0  0  0  0  0  0
    2.9630   59.0830   73.4610 C   0  0  0  0  0  0  0  0  0  0  0  0
    2.0960   58.0080   73.6650 C   0  0  0  0  0  0  0  0  0  0  0  0
    1.8810   57.0820   72.6470 C   0  0  0  0  0  0  0  0  0  0  0  0
    2.5340   57.2240   71.4250 C   0  0  0  0  0  0  0  0  0  0  0  0
    3.4000   58.2970   71.2160 C   0  0  0  0  0  0  0  0  0  0  0  0
    1.2260   65.9290   70.3670 O   0  0  0  0  0  0  0  0  0  0  0  0
   -0.6220   67.7730   67.8590 C   0  0  0  0  0  0  0  0  0  0  0  0
    0.3350   68.7100   67.4780 C   0  0  0  0  0  0  0  0  0  0  0  0
    1.5740   68.6600   68.0940 C   0  0  0  0  0  0  0  0  0  0  0  0
    1.9080   67.7620   69.0470 N   0  0  0  0  0  0  0  0  0  0  0  0
    0.9660   66.8540   69.3790 C   0  0  0  0  0  0  0  0  0  0  0  0
   -0.3050   66.8320   68.8400 C   0  0  0  0  0  0  0  0  0  0  0  0
   -1.9890   67.7470   67.2850 C   0  0  0  0  0  0  0  0  0  0  0  0
   -2.9140   67.2020   67.8770 O   0  0  0  0  0  0  0  0  0  0  0  0
   -3.4970   68.8810   65.7560 N   0  0  0  0  0  0  0  0  0  0  0  0
   -2.3140   68.4080   65.9810 C   0  0  0  0  0  0  0  0  0  0  0  0
   -3.5160   69.4370   64.4710 O   0  0  0  0  0  0  0  0  0  0  0  0
    2.1266   64.7607   68.9134 H   0  0  0  0  0  0  0  0  0  0  0  0
    0.7968   63.9753   69.8320 H   0  0  0  0  0  0  0  0  0  0  0  0
    2.9037   64.8446   71.6393 H   0  0  0  0  0  0  0  0  0  0  0  0
    3.8059   63.3535   69.1812 H   0  0  0  0  0  0  0  0  0  0  0  0
    4.6286   64.6431   70.1466 H   0  0  0  0  0  0  0  0  0  0  0  0
    5.7662   62.5171   70.4894 H   0  0  0  0  0  0  0  0  0  0  0  0
    4.9298   63.0106   72.0007 H   0  0  0  0  0  0  0  0  0  0  0  0
    4.1781   60.9507   70.0344 H   0  0  0  0  0  0  0  0  0  0  0  0
    2.1188   61.5310   69.9482 H   0  0  0  0  0  0  0  0  0  0  0  0
    2.0627   60.7116   71.5552 H   0  0  0  0  0  0  0  0  0  0  0  0
    1.0171   62.9346   71.6624 H   0  0  0  0  0  0  0  0  0  0  0  0
    2.5304   62.8578   72.6611 H   0  0  0  0  0  0  0  0  0  0  0  0
    5.5122   60.0321   71.6606 H   0  0  0  0  0  0  0  0  0  0  0  0
    4.6186   60.9637   72.9467 H   0  0  0  0  0  0  0  0  0  0  0  0
    3.1322   59.8091   74.2698 H   0  0  0  0  0  0  0  0  0  0  0  0
    1.5821   57.8922   74.6307 H   0  0  0  0  0  0  0  0  0  0  0  0
    1.1947   56.2376   72.8083 H   0  0  0  0  0  0  0  0  0  0  0  0
    2.3665   56.4890   70.6239 H   0  0  0  0  0  0  0  0  0  0  0  0
    3.9146   58.4033   70.2496 H   0  0  0  0  0  0  0  0  0  0  0  0
    0.1134   69.4668   66.7111 H   0  0  0  0  0  0  0  0  0  0  0  0
    2.3326   69.3960   67.7891 H   0  0  0  0  0  0  0  0  0  0  0  0
   -1.0477   66.0928   69.1747 H   0  0  0  0  0  0  0  0  0  0  0  0
   -1.5381   68.4923   65.2058 H   0  0  0  0  0  0  0  0  0  0  0  0
   -4.3455   69.8502   64.1227 H   0  0  0  0  0  0  0  0  0  0  0  0
  2  1  1  0
  3  2  1  0
  4  3  1  0
  5  4  1  0
  6  5  1  0
  7  6  1  0
  7  2  1  0
  8  5  1  0
  9  8  1  0
 10  9  2  0
 11 10  1  0
 12 11  2  0
 13 12  1  0
 14 13  2  0
 14  9  1  0
 15  1  1  0
 17 16  2  0
 18 17  1  0
 19 18  2  0
 20 19  1  0
 20 15  1  0
 21 20  2  0
 21 16  1  0
 22 16  1  0
 23 22  2  0
 25 24  2  0
 25 22  1  0
 26 24  1  0
  1 27  1  0
  1 28  1  0
  2 29  1  0
  3 30  1  0
  3 31  1  0
  4 32  1  0
  4 33  1  0
  5 34  1  0
  6 35  1  0
  6 36  1  0
  7 37  1  0
  7 38  1  0
  8 39  1  0
  8 40  1  0
 10 41  1  0
 11 42  1  0
 12 43  1  0
 13 44  1  0
 14 45  1  0
 17 46  1  0
 18 47  1  0
 21 48  1  0
 25 49  1  0
 26 50  1  0
M  CHG  1   5   1
M  END
>  <score>  (9) 
-8.21

$$$$
