=
     RDKit          3D

 62 65  0  0  0  0  0  0  0  0999 V2000
    3.3640   62.5160   67.9780 O   0  0  0  0  0  0  0  0  0  0  0  0
    3.3290   62.0850   69.1280 C   0  0  0  0  0  0  0  0  0  0  0  0
    4.4670   61.3170   69.7370 C   0  0  0  0  0  0  0  0  0  0  0  0
    3.9310   60.2970   70.7270 C   0  0  0  0  0  0  0  0  0  0  0  0
    3.0380   60.9130   71.8460 C   0  0  1  0  0  0  0  0  0  0  0  0
    2.0360   61.9240   71.2430 C   0  0  0  0  0  0  0  0  0  0  0  0
    2.1650   62.4030   69.9890 C   0  0  0  0  0  0  0  0  0  0  0  0
    0.9070   62.3750   72.1730 C   0  0  1  0  0  0  0  0  0  0  0  0
   -0.1310   63.3300   71.5650 C   0  0  0  0  0  0  0  0  0  0  0  0
    0.1770   61.1640   72.7700 C   0  0  0  0  0  0  0  0  0  0  0  0
    1.1450   60.2340   73.5120 C   0  0  2  0  0  0  0  0  0  0  0  0
    2.2510   59.7350   72.5380 C   0  0  2  0  0  0  0  0  0  0  0  0
    3.1630   58.6720   73.2080 C   0  0  0  0  0  0  0  0  0  0  0  0
    2.3700   57.5240   73.8570 C   0  0  0  0  0  0  0  0  0  0  0  0
    1.3360   58.0390   74.8740 C   0  0  1  0  0  0  0  0  0  0  0  0
    0.4110   59.0250   74.1110 C   0  0  1  0  0  0  0  0  0  0  0  0
   -0.7140   59.2900   75.1060 C   0  0  0  0  0  0  0  0  0  0  0  0
   -0.8680   57.9700   75.8850 C   0  0  0  0  0  0  0  0  0  0  0  0
    0.2640   57.0090   75.3930 C   0  0  2  0  0  0  0  0  0  0  0  0
    2.0860   58.7300   76.0500 C   0  0  0  0  0  0  0  0  0  0  0  0
    3.9480   61.6660   72.8450 C   0  0  0  0  0  0  0  0  0  0  0  0
    0.6670   56.0870   76.5800 C   0  0  0  0  0  0  0  0  0  0  0  0
    1.6520   55.3490   76.5630 O   0  0  0  0  0  0  0  0  0  0  0  0
   -0.1810   56.1700   77.8300 C   0  0  0  0  0  0  0  0  0  0  0  0
   -0.3470   56.2860   74.2900 O   0  0  0  0  0  0  0  0  0  0  0  0
   -0.9580   55.0940   74.5140 C   0  0  0  0  0  0  0  0  0  0  0  0
   -2.0430   54.9390   75.0490 O   0  0  0  0  0  0  0  0  0  0  0  0
   -0.1060   53.9790   73.9920 C   0  0  0  0  0  0  0  0  0  0  0  0
    5.0227   60.7972   68.9426 H   0  0  0  0  0  0  0  0  0  0  0  0
    5.1352   62.0153   70.2623 H   0  0  0  0  0  0  0  0  0  0  0  0
    3.3327   59.5582   70.1736 H   0  0  0  0  0  0  0  0  0  0  0  0
    4.8022   59.8465   71.2250 H   0  0  0  0  0  0  0  0  0  0  0  0
    1.3750   63.0557   69.5891 H   0  0  0  0  0  0  0  0  0  0  0  0
    1.4284   62.9570   72.9472 H   0  0  0  0  0  0  0  0  0  0  0  0
   -0.6809   63.8359   72.3722 H   0  0  0  0  0  0  0  0  0  0  0  0
    0.3804   64.0800   70.9437 H   0  0  0  0  0  0  0  0  0  0  0  0
   -0.8358   62.7580   70.9437 H   0  0  0  0  0  0  0  0  0  0  0  0
   -0.5882   61.5200   73.4755 H   0  0  0  0  0  0  0  0  0  0  0  0
   -0.2828   60.5978   71.9466 H   0  0  0  0  0  0  0  0  0  0  0  0
    1.5996   60.8066   74.3339 H   0  0  0  0  0  0  0  0  0  0  0  0
    1.7464   59.2203   71.7071 H   0  0  0  0  0  0  0  0  0  0  0  0
    3.8294   58.2487   72.4420 H   0  0  0  0  0  0  0  0  0  0  0  0
    3.7254   59.1770   74.0072 H   0  0  0  0  0  0  0  0  0  0  0  0
    1.8445   56.9654   73.0684 H   0  0  0  0  0  0  0  0  0  0  0  0
    3.0825   56.8805   74.3938 H   0  0  0  0  0  0  0  0  0  0  0  0
   -0.0056   58.6212   73.1764 H   0  0  0  0  0  0  0  0  0  0  0  0
   -0.4449   60.1121   75.7856 H   0  0  0  0  0  0  0  0  0  0  0  0
   -1.6476   59.5898   74.6076 H   0  0  0  0  0  0  0  0  0  0  0  0
   -0.7632   58.1547   76.9643 H   0  0  0  0  0  0  0  0  0  0  0  0
   -1.8598   57.5270   75.7113 H   0  0  0  0  0  0  0  0  0  0  0  0
    1.6864   58.3619   77.0065 H   0  0  0  0  0  0  0  0  0  0  0  0
    3.1594   58.4977   75.9873 H   0  0  0  0  0  0  0  0  0  0  0  0
    1.9422   59.8188   75.9873 H   0  0  0  0  0  0  0  0  0  0  0  0
    3.6477   61.4175   73.8736 H   0  0  0  0  0  0  0  0  0  0  0  0
    4.9943   61.3660   72.6859 H   0  0  0  0  0  0  0  0  0  0  0  0
    3.8491   62.7499   72.6859 H   0  0  0  0  0  0  0  0  0  0  0  0
    0.4663   56.1066   78.7171 H   0  0  0  0  0  0  0  0  0  0  0  0
   -0.7255   57.1257   77.8409 H   0  0  0  0  0  0  0  0  0  0  0  0
   -0.9005   55.3380   77.8409 H   0  0  0  0  0  0  0  0  0  0  0  0
    0.3222   53.4186   74.8362 H   0  0  0  0  0  0  0  0  0  0  0  0
   -0.7208   53.3043   73.3782 H   0  0  0  0  0  0  0  0  0  0  0  0
    0.7065   54.3949   73.3782 H   0  0  0  0  0  0  0  0  0  0  0  0
  2  1  2  0
  3  2  1  0
  4  3  1  0
  5  4  1  0
  6  5  1  0
  7  2  1  0
  7  6  2  0
  8  6  1  0
  9  8  1  0
 10  8  1  0
 11 10  1  0
 12 11  1  0
 12  5  1  0
 13 12  1  0
 14 13  1  0
 15 14  1  0
 16 15  1  0
 16 11  1  0
 17 16  1  0
 18 17  1  0
 19 18  1  0
 19 15  1  0
 15 20  1  1
  5 21  1  1
 22 19  1  0
 23 22  2  0
 24 22  1  0
 19 25  1  6
 26 25  1  0
 27 26  2  0
 28 26  1  0
  3 29  1  0
  3 30  1  0
  4 31  1  0
  4 32  1  0
  7 33  1  0
  8 34  1  1
  9 35  1  0
  9 36  1  0
  9 37  1  0
 10 38  1  0
 10 39  1  0
 11 40  1  1
 12 41  1  6
 13 42  1  0
 13 43  1  0
 14 44  1  0
 14 45  1  0
 16 46  1  6
 17 47  1  0
 17 48  1  0
 18 49  1  0
 18 50  1  0
 20 51  1  0
 20 52  1  0
 20 53  1  0
 21 54  1  0
 21 55  1  0
 21 56  1  0
 24 57  1  0
 24 58  1  0
 24 59  1  0
 28 60  1  0
 28 61  1  0
 28 62  1  0
M  END
>  <score>  (1) 
-8.288

$$$$
=
     RDKit          3D

 62 65  0  0  0  0  0  0  0  0999 V2000
    1.5600   64.6880   69.8090 O   0  0  0  0  0  0  0  0  0  0  0  0
    1.9510   63.7570   70.5110 C   0  0  0  0  0  0  0  0  0  0  0  0
    2.9110   62.7170   70.0090 C   0  0  0  0  0  0  0  0  0  0  0  0
    2.6250   61.3830   70.6770 C   0  0  0  0  0  0  0  0  0  0  0  0
    2.6550   61.4380   72.2340 C   0  0  1  0  0  0  0  0  0  0  0  0
    1.8870   62.6770   72.7460 C   0  0  0  0  0  0  0  0  0  0  0  0
    1.5380   63.6940   71.9320 C   0  0  0  0  0  0  0  0  0  0  0  0
    1.5790   62.6950   74.2470 C   0  0  1  0  0  0  0  0  0  0  0  0
    0.7620   63.8900   74.7560 C   0  0  0  0  0  0  0  0  0  0  0  0
    0.8800   61.3980   74.6740 C   0  0  0  0  0  0  0  0  0  0  0  0
    1.7150   60.1630   74.3110 C   0  0  2  0  0  0  0  0  0  0  0  0
    1.9670   60.1260   72.7760 C   0  0  2  0  0  0  0  0  0  0  0  0
    2.6770   58.8150   72.3460 C   0  0  0  0  0  0  0  0  0  0  0  0
    1.9730   57.5510   72.8710 C   0  0  0  0  0  0  0  0  0  0  0  0
    1.8060   57.5760   74.4000 C   0  0  1  0  0  0  0  0  0  0  0  0
    1.0150   58.8660   74.7430 C   0  0  1  0  0  0  0  0  0  0  0  0
    0.6800   58.6900   76.2200 C   0  0  0  0  0  0  0  0  0  0  0  0
    0.4990   57.1710   76.4030 C   0  0  0  0  0  0  0  0  0  0  0  0
    0.8530   56.4960   75.0370 C   0  0  2  0  0  0  0  0  0  0  0  0
    3.2150   57.5600   75.0620 C   0  0  0  0  0  0  0  0  0  0  0  0
    4.1270   61.5520   72.6950 C   0  0  0  0  0  0  0  0  0  0  0  0
    1.4530   55.0910   75.3320 C   0  0  0  0  0  0  0  0  0  0  0  0
    1.6230   54.6500   76.4680 O   0  0  0  0  0  0  0  0  0  0  0  0
    1.7750   54.2190   74.1380 C   0  0  0  0  0  0  0  0  0  0  0  0
   -0.4180   56.4390   74.3340 O   0  0  0  0  0  0  0  0  0  0  0  0
   -1.4940   55.8540   74.9220 C   0  0  0  0  0  0  0  0  0  0  0  0
   -1.6290   54.6600   75.1300 O   0  0  0  0  0  0  0  0  0  0  0  0
   -2.5010   56.8970   75.2950 C   0  0  0  0  0  0  0  0  0  0  0  0
    2.7973   62.6112   68.9200 H   0  0  0  0  0  0  0  0  0  0  0  0
    3.9388   63.0281   70.2475 H   0  0  0  0  0  0  0  0  0  0  0  0
    1.6271   61.0444   70.3614 H   0  0  0  0  0  0  0  0  0  0  0  0
    3.4228   60.6924   70.3662 H   0  0  0  0  0  0  0  0  0  0  0  0
    0.9221   64.5092   72.3396 H   0  0  0  0  0  0  0  0  0  0  0  0
    2.5707   62.7939   74.7125 H   0  0  0  0  0  0  0  0  0  0  0  0
    0.7609   63.8916   75.8560 H   0  0  0  0  0  0  0  0  0  0  0  0
    1.2111   64.8244   74.3884 H   0  0  0  0  0  0  0  0  0  0  0  0
   -0.2717   63.8106   74.3884 H   0  0  0  0  0  0  0  0  0  0  0  0
    0.7252   61.4173   75.7629 H   0  0  0  0  0  0  0  0  0  0  0  0
   -0.0810   61.3330   74.1427 H   0  0  0  0  0  0  0  0  0  0  0  0
    2.6730   60.2354   74.8467 H   0  0  0  0  0  0  0  0  0  0  0  0
    0.9832   60.1118   72.2842 H   0  0  0  0  0  0  0  0  0  0  0  0
    2.7000   58.7728   71.2471 H   0  0  0  0  0  0  0  0  0  0  0  0
    3.6889   58.8317   72.7770 H   0  0  0  0  0  0  0  0  0  0  0  0
    0.9785   57.4798   72.4065 H   0  0  0  0  0  0  0  0  0  0  0  0
    2.5969   56.6828   72.6120 H   0  0  0  0  0  0  0  0  0  0  0  0
    0.0886   58.9931   74.1637 H   0  0  0  0  0  0  0  0  0  0  0  0
    1.5012   59.0614   76.8507 H   0  0  0  0  0  0  0  0  0  0  0  0
   -0.2180   59.2539   76.5126 H   0  0  0  0  0  0  0  0  0  0  0  0
    1.1726   56.8033   77.1910 H   0  0  0  0  0  0  0  0  0  0  0  0
   -0.5330   56.9334   76.7005 H   0  0  0  0  0  0  0  0  0  0  0  0
    3.1059   57.5612   76.1566 H   0  0  0  0  0  0  0  0  0  0  0  0
    3.7571   56.6556   74.7486 H   0  0  0  0  0  0  0  0  0  0  0  0
    3.7775   58.4518   74.7486 H   0  0  0  0  0  0  0  0  0  0  0  0
    4.1678   61.5552   73.7942 H   0  0  0  0  0  0  0  0  0  0  0  0
    4.6994   60.6955   72.3093 H   0  0  0  0  0  0  0  0  0  0  0  0
    4.5607   62.4864   72.3093 H   0  0  0  0  0  0  0  0  0  0  0  0
    2.1365   53.2400   74.4858 H   0  0  0  0  0  0  0  0  0  0  0  0
    0.8688   54.0804   73.5301 H   0  0  0  0  0  0  0  0  0  0  0  0
    2.5538   54.7027   73.5301 H   0  0  0  0  0  0  0  0  0  0  0  0
   -2.5682   56.9666   76.3907 H   0  0  0  0  0  0  0  0  0  0  0  0
   -2.1913   57.8693   74.8842 H   0  0  0  0  0  0  0  0  0  0  0  0
   -3.4835   56.6216   74.8842 H   0  0  0  0  0  0  0  0  0  0  0  0
  2  1  2  0
  3  2  1  0
  4  3  1  0
  5  4  1  0
  6  5  1  0
  7  2  1  0
  7  6  2  0
  8  6  1  0
  9  8  1  0
 10  8  1  0
 11 10  1  0
 12 11  1  0
 12  5  1  0
 13 12  1  0
 14 13  1  0
 15 14  1  0
 16 15  1  0
 16 11  1  0
 17 16  1  0
 18 17  1  0
 19 18  1  0
 19 15  1  0
 15 20  1  1
  5 21  1  6
 22 19  1  0
 23 22  2  0
 24 22  1  0
 19 25  1  6
 26 25  1  0
 27 26  2  0
 28 26  1  0
  3 29  1  0
  3 30  1  0
  4 31  1  0
  4 32  1  0
  7 33  1  0
  8 34  1  1
  9 35  1  0
  9 36  1  0
  9 37  1  0
 10 38  1  0
 10 39  1  0
 11 40  1  1
 12 41  1  6
 13 42  1  0
 13 43  1  0
 14 44  1  0
 14 45  1  0
 16 46  1  6
 17 47  1  0
 17 48  1  0
 18 49  1  0
 18 50  1  0
 20 51  1  0
 20 52  1  0
 20 53  1  0
 21 54  1  0
 21 55  1  0
 21 56  1  0
 24 57  1  0
 24 58  1  0
 24 59  1  0
 28 60  1  0
 28 61  1  0
 28 62  1  0
M  END
>  <score>  (2) 
-7.9

$$$$
=
     RDKit          3D

 62 65  0  0  0  0  0  0  0  0999 V2000
   -0.2430   54.5780   76.2070 O   0  0  0  0  0  0  0  0  0  0  0  0
   -0.0950   55.7820   76.0070 C   0  0  0  0  0  0  0  0  0  0  0  0
   -1.2550   56.7310   75.9050 C   0  0  0  0  0  0  0  0  0  0  0  0
   -0.9200   57.8570   74.9420 C   0  0  0  0  0  0  0  0  0  0  0  0
    0.3810   58.6330   75.3090 C   0  0  1  0  0  0  0  0  0  0  0  0
    1.5120   57.6480   75.6840 C   0  0  0  0  0  0  0  0  0  0  0  0
    1.2730   56.3480   75.9490 C   0  0  0  0  0  0  0  0  0  0  0  0
    2.9170   58.2510   75.7720 C   0  0  1  0  0  0  0  0  0  0  0  0
    4.0560   57.2700   76.0820 C   0  0  0  0  0  0  0  0  0  0  0  0
    3.2600   59.0200   74.4890 C   0  0  0  0  0  0  0  0  0  0  0  0
    2.2230   60.1130   74.1950 C   0  0  2  0  0  0  0  0  0  0  0  0
    0.8110   59.4770   74.0480 C   0  0  2  0  0  0  0  0  0  0  0  0
   -0.2420   60.5250   73.5990 C   0  0  0  0  0  0  0  0  0  0  0  0
    0.1930   61.3200   72.3550 C   0  0  0  0  0  0  0  0  0  0  0  0
    1.5570   62.0030   72.5550 C   0  0  1  0  0  0  0  0  0  0  0  0
    2.5710   60.8840   72.9130 C   0  0  1  0  0  0  0  0  0  0  0  0
    3.9180   61.5960   72.8470 C   0  0  0  0  0  0  0  0  0  0  0  0
    3.7480   62.6550   71.7410 C   0  0  0  0  0  0  0  0  0  0  0  0
    2.2550   62.6010   71.2760 C   0  0  2  0  0  0  0  0  0  0  0  0
    1.4300   63.0630   73.6880 C   0  0  0  0  0  0  0  0  0  0  0  0
    0.0910   59.5310   76.5340 C   0  0  0  0  0  0  0  0  0  0  0  0
    1.8350   64.0310   70.8290 C   0  0  0  0  0  0  0  0  0  0  0  0
    2.6270   64.9670   70.7140 O   0  0  0  0  0  0  0  0  0  0  0  0
    0.3820   64.2350   70.4620 C   0  0  0  0  0  0  0  0  0  0  0  0
    2.2640   61.6400   70.1850 O   0  0  0  0  0  0  0  0  0  0  0  0
    3.1940   61.7380   69.2000 C   0  0  0  0  0  0  0  0  0  0  0  0
    3.2920   62.6550   68.4020 O   0  0  0  0  0  0  0  0  0  0  0  0
    4.1030   60.5490   69.2400 C   0  0  0  0  0  0  0  0  0  0  0  0
   -2.1387   56.1884   75.5382 H   0  0  0  0  0  0  0  0  0  0  0  0
   -1.4641   57.1548   76.8983 H   0  0  0  0  0  0  0  0  0  0  0  0
   -0.7960   57.4281   73.9367 H   0  0  0  0  0  0  0  0  0  0  0  0
   -1.7485   58.5788   74.9927 H   0  0  0  0  0  0  0  0  0  0  0  0
    2.1284   55.6804   76.1295 H   0  0  0  0  0  0  0  0  0  0  0  0
    2.8563   58.9205   76.6426 H   0  0  0  0  0  0  0  0  0  0  0  0
    4.1694   57.1723   77.1718 H   0  0  0  0  0  0  0  0  0  0  0  0
    3.8213   56.2868   75.6482 H   0  0  0  0  0  0  0  0  0  0  0  0
    4.9936   57.6478   75.6482 H   0  0  0  0  0  0  0  0  0  0  0  0
    4.2489   59.4874   74.6058 H   0  0  0  0  0  0  0  0  0  0  0  0
    3.2601   58.3090   73.6496 H   0  0  0  0  0  0  0  0  0  0  0  0
    2.2294   60.8200   75.0377 H   0  0  0  0  0  0  0  0  0  0  0  0
    0.8694   58.7387   73.2347 H   0  0  0  0  0  0  0  0  0  0  0  0
   -1.1818   60.0014   73.3694 H   0  0  0  0  0  0  0  0  0  0  0  0
   -0.3629   61.2437   74.4230 H   0  0  0  0  0  0  0  0  0  0  0  0
    0.2627   60.6314   71.5000 H   0  0  0  0  0  0  0  0  0  0  0  0
   -0.5564   62.1046   72.1742 H   0  0  0  0  0  0  0  0  0  0  0  0
    2.5669   60.0323   72.2168 H   0  0  0  0  0  0  0  0  0  0  0  0
    4.1511   62.0746   73.8096 H   0  0  0  0  0  0  0  0  0  0  0  0
    4.7450   60.9024   72.6349 H   0  0  0  0  0  0  0  0  0  0  0  0
    3.9840   63.6541   72.1361 H   0  0  0  0  0  0  0  0  0  0  0  0
    4.4271   62.4538   70.8994 H   0  0  0  0  0  0  0  0  0  0  0  0
    1.4899   62.5632   74.6661 H   0  0  0  0  0  0  0  0  0  0  0  0
    2.2470   63.7942   73.5993 H   0  0  0  0  0  0  0  0  0  0  0  0
    0.4634   63.5805   73.5993 H   0  0  0  0  0  0  0  0  0  0  0  0
    0.2747   58.9621   77.4574 H   0  0  0  0  0  0  0  0  0  0  0  0
    0.7507   60.4109   76.5080 H   0  0  0  0  0  0  0  0  0  0  0  0
   -0.9587   59.8588   76.5080 H   0  0  0  0  0  0  0  0  0  0  0  0
   -0.2195   64.3194   71.3791 H   0  0  0  0  0  0  0  0  0  0  0  0
    0.2792   65.1564   69.8700 H   0  0  0  0  0  0  0  0  0  0  0  0
    0.0295   63.3775   69.8700 H   0  0  0  0  0  0  0  0  0  0  0  0
    4.3088   60.2798   70.2865 H   0  0  0  0  0  0  0  0  0  0  0  0
    3.6205   59.7013   68.7314 H   0  0  0  0  0  0  0  0  0  0  0  0
    5.0475   60.7923   68.7314 H   0  0  0  0  0  0  0  0  0  0  0  0
  2  1  2  0
  3  2  1  0
  4  3  1  0
  5  4  1  0
  6  5  1  0
  7  2  1  0
  7  6  2  0
  8  6  1  0
  9  8  1  0
 10  8  1  0
 11 10  1  0
 12 11  1  0
 12  5  1  0
 13 12  1  0
 14 13  1  0
 15 14  1  0
 16 15  1  0
 16 11  1  0
 17 16  1  0
 18 17  1  0
 19 18  1  0
 19 15  1  0
 15 20  1  1
  5 21  1  1
 22 19  1  0
 23 22  2  0
 24 22  1  0
 19 25  1  6
 26 25  1  0
 27 26  2  0
 28 26  1  0
  3 29  1  0
  3 30  1  0
  4 31  1  0
  4 32  1  0
  7 33  1  0
  8 34  1  1
  9 35  1  0
  9 36  1  0
  9 37  1  0
 10 38  1  0
 10 39  1  0
 11 40  1  1
 12 41  1  6
 13 42  1  0
 13 43  1  0
 14 44  1  0
 14 45  1  0
 16 46  1  6
 17 47  1  0
 17 48  1  0
 18 49  1  0
 18 50  1  0
 20 51  1  0
 20 52  1  0
 20 53  1  0
 21 54  1  0
 21 55  1  0
 21 56  1  0
 24 57  1  0
 24 58  1  0
 24 59  1  0
 28 60  1  0
 28 61  1  0
 28 62  1  0
M  END
>  <score>  (3) 
-7.821

$$$$
=
     RDKit          3D

 62 65  0  0  0  0  0  0  0  0999 V2000
    1.6690   67.2010   69.8260 O   0  0  0  0  0  0  0  0  0  0  0  0
    1.2840   66.1130   70.2490 C   0  0  0  0  0  0  0  0  0  0  0  0
    0.0340   65.9630   71.0690 C   0  0  0  0  0  0  0  0  0  0  0  0
    0.1970   64.8210   72.0570 C   0  0  0  0  0  0  0  0  0  0  0  0
    0.5730   63.4610   71.3930 C   0  0  1  0  0  0  0  0  0  0  0  0
    1.6840   63.6630   70.3390 C   0  0  0  0  0  0  0  0  0  0  0  0
    2.0200   64.8830   69.8730 C   0  0  0  0  0  0  0  0  0  0  0  0
    2.3570   62.3850   69.8300 C   0  0  1  0  0  0  0  0  0  0  0  0
    3.5060   62.5770   68.8290 C   0  0  0  0  0  0  0  0  0  0  0  0
    2.8580   61.5300   71.0010 C   0  0  0  0  0  0  0  0  0  0  0  0
    1.7210   61.1880   71.9730 C   0  0  2  0  0  0  0  0  0  0  0  0
    1.0890   62.4960   72.5290 C   0  0  2  0  0  0  0  0  0  0  0  0
    0.0370   62.1980   73.6310 C   0  0  0  0  0  0  0  0  0  0  0  0
    0.5730   61.2710   74.7370 C   0  0  0  0  0  0  0  0  0  0  0  0
    1.1210   59.9510   74.1680 C   0  0  1  0  0  0  0  0  0  0  0  0
    2.2230   60.3290   73.1430 C   0  0  1  0  0  0  0  0  0  0  0  0
    2.8760   58.9890   72.8190 C   0  0  0  0  0  0  0  0  0  0  0  0
    2.7790   58.1800   74.1270 C   0  0  0  0  0  0  0  0  0  0  0  0
    1.9590   59.0420   75.1430 C   0  0  2  0  0  0  0  0  0  0  0  0
   -0.0470   59.1610   73.5080 C   0  0  0  0  0  0  0  0  0  0  0  0
   -0.6790   62.8980   70.6800 C   0  0  0  0  0  0  0  0  0  0  0  0
    1.1760   58.0740   76.0780 C   0  0  0  0  0  0  0  0  0  0  0  0
    0.2640   58.4380   76.8200 O   0  0  0  0  0  0  0  0  0  0  0  0
    1.5370   56.6070   76.0020 C   0  0  0  0  0  0  0  0  0  0  0  0
    2.9720   59.8150   75.8420 O   0  0  0  0  0  0  0  0  0  0  0  0
    3.1800   59.6220   77.1700 C   0  0  0  0  0  0  0  0  0  0  0  0
    3.8100   58.7020   77.6660 O   0  0  0  0  0  0  0  0  0  0  0  0
    2.5290   60.7200   77.9520 C   0  0  0  0  0  0  0  0  0  0  0  0
   -0.1555   66.8966   71.6189 H   0  0  0  0  0  0  0  0  0  0  0  0
   -0.8128   65.7458   70.4014 H   0  0  0  0  0  0  0  0  0  0  0  0
    0.9907   65.0899   72.7695 H   0  0  0  0  0  0  0  0  0  0  0  0
   -0.7783   64.6794   72.5456 H   0  0  0  0  0  0  0  0  0  0  0  0
    2.8749   64.9686   69.1861 H   0  0  0  0  0  0  0  0  0  0  0  0
    1.5567   61.8783   69.2706 H   0  0  0  0  0  0  0  0  0  0  0  0
    4.4469   62.7342   69.3766 H   0  0  0  0  0  0  0  0  0  0  0  0
    3.5950   61.6813   68.1967 H   0  0  0  0  0  0  0  0  0  0  0  0
    3.2989   63.4530   68.1967 H   0  0  0  0  0  0  0  0  0  0  0  0
    3.2835   60.5959   70.6055 H   0  0  0  0  0  0  0  0  0  0  0  0
    3.6192   62.1055   71.5483 H   0  0  0  0  0  0  0  0  0  0  0  0
    0.9657   60.6120   71.4183 H   0  0  0  0  0  0  0  0  0  0  0  0
    1.8928   63.0616   73.0230 H   0  0  0  0  0  0  0  0  0  0  0  0
   -0.2703   63.1496   74.0892 H   0  0  0  0  0  0  0  0  0  0  0  0
   -0.8077   61.6832   73.1499 H   0  0  0  0  0  0  0  0  0  0  0  0
    1.3815   61.7891   75.2736 H   0  0  0  0  0  0  0  0  0  0  0  0
   -0.2616   61.0294   75.4115 H   0  0  0  0  0  0  0  0  0  0  0  0
    2.9786   61.0273   73.5322 H   0  0  0  0  0  0  0  0  0  0  0  0
    2.3354   58.4803   72.0073 H   0  0  0  0  0  0  0  0  0  0  0  0
    3.9151   59.1043   72.4771 H   0  0  0  0  0  0  0  0  0  0  0  0
    2.2656   57.2248   73.9424 H   0  0  0  0  0  0  0  0  0  0  0  0
    3.7804   57.9560   74.5233 H   0  0  0  0  0  0  0  0  0  0  0  0
   -0.6862   58.7286   74.2919 H   0  0  0  0  0  0  0  0  0  0  0  0
   -0.6432   59.8421   72.8829 H   0  0  0  0  0  0  0  0  0  0  0  0
    0.3632   58.3541   72.8829 H   0  0  0  0  0  0  0  0  0  0  0  0
   -1.4117   62.5685   71.4313 H   0  0  0  0  0  0  0  0  0  0  0  0
   -1.1261   63.6817   70.0508 H   0  0  0  0  0  0  0  0  0  0  0  0
   -0.3894   62.0434   70.0508 H   0  0  0  0  0  0  0  0  0  0  0  0
    1.6370   56.2008   77.0194 H   0  0  0  0  0  0  0  0  0  0  0  0
    0.7462   56.0621   75.4657 H   0  0  0  0  0  0  0  0  0  0  0  0
    2.4904   56.4913   75.4657 H   0  0  0  0  0  0  0  0  0  0  0  0
    2.6458   60.5229   79.0279 H   0  0  0  0  0  0  0  0  0  0  0  0
    3.0040   61.6800   77.7014 H   0  0  0  0  0  0  0  0  0  0  0  0
    1.4588   60.7639   77.7014 H   0  0  0  0  0  0  0  0  0  0  0  0
  2  1  2  0
  3  2  1  0
  4  3  1  0
  5  4  1  0
  6  5  1  0
  7  2  1  0
  7  6  2  0
  8  6  1  0
  9  8  1  0
 10  8  1  0
 11 10  1  0
 12 11  1  0
 12  5  1  0
 13 12  1  0
 14 13  1  0
 15 14  1  0
 16 15  1  0
 16 11  1  0
 17 16  1  0
 18 17  1  0
 19 18  1  0
 19 15  1  0
 15 20  1  6
  5 21  1  6
 22 19  1  0
 23 22  2  0
 24 22  1  0
 19 25  1  1
 26 25  1  0
 27 26  2  0
 28 26  1  0
  3 29  1  0
  3 30  1  0
  4 31  1  0
  4 32  1  0
  7 33  1  0
  8 34  1  6
  9 35  1  0
  9 36  1  0
  9 37  1  0
 10 38  1  0
 10 39  1  0
 11 40  1  6
 12 41  1  1
 13 42  1  0
 13 43  1  0
 14 44  1  0
 14 45  1  0
 16 46  1  1
 17 47  1  0
 17 48  1  0
 18 49  1  0
 18 50  1  0
 20 51  1  0
 20 52  1  0
 20 53  1  0
 21 54  1  0
 21 55  1  0
 21 56  1  0
 24 57  1  0
 24 58  1  0
 24 59  1  0
 28 60  1  0
 28 61  1  0
 28 62  1  0
M  END
>  <score>  (4) 
-7.53

$$$$
=
     RDKit          3D

 62 65  0  0  0  0  0  0  0  0999 V2000
    1.4930   52.2500   76.9670 O   0  0  0  0  0  0  0  0  0  0  0  0
    1.1530   53.2800   76.3880 C   0  0  0  0  0  0  0  0  0  0  0  0
    0.5930   53.2750   74.9950 C   0  0  0  0  0  0  0  0  0  0  0  0
    0.9890   54.5520   74.2730 C   0  0  0  0  0  0  0  0  0  0  0  0
    0.5690   55.8550   75.0190 C   0  0  1  0  0  0  0  0  0  0  0  0
    0.9020   55.7470   76.5240 C   0  0  0  0  0  0  0  0  0  0  0  0
    1.2110   54.5730   77.1100 C   0  0  0  0  0  0  0  0  0  0  0  0
    0.8230   57.0550   77.3170 C   0  0  1  0  0  0  0  0  0  0  0  0
    1.2140   56.9730   78.8000 C   0  0  0  0  0  0  0  0  0  0  0  0
    1.6610   58.1500   76.6440 C   0  0  0  0  0  0  0  0  0  0  0  0
    1.2260   58.3760   75.1890 C   0  0  2  0  0  0  0  0  0  0  0  0
    1.3710   57.0540   74.3830 C   0  0  2  0  0  0  0  0  0  0  0  0
    1.0880   57.2740   72.8720 C   0  0  0  0  0  0  0  0  0  0  0  0
    1.8980   58.4370   72.2730 C   0  0  0  0  0  0  0  0  0  0  0  0
    1.6780   59.7510   73.0410 C   0  0  1  0  0  0  0  0  0  0  0  0
    2.0640   59.4760   74.5190 C   0  0  1  0  0  0  0  0  0  0  0  0
    2.0580   60.8650   75.1480 C   0  0  0  0  0  0  0  0  0  0  0  0
    2.5130   61.8080   74.0180 C   0  0  0  0  0  0  0  0  0  0  0  0
    2.6570   60.9430   72.7240 C   0  0  2  0  0  0  0  0  0  0  0  0
    0.1880   60.1780   72.8950 C   0  0  0  0  0  0  0  0  0  0  0  0
   -0.9600   56.0370   74.8700 C   0  0  0  0  0  0  0  0  0  0  0  0
    2.3220   61.8430   71.4990 C   0  0  0  0  0  0  0  0  0  0  0  0
    2.2620   61.4230   70.3440 O   0  0  0  0  0  0  0  0  0  0  0  0
    1.9980   63.2930   71.7830 C   0  0  0  0  0  0  0  0  0  0  0  0
    4.0430   60.5040   72.7480 O   0  0  0  0  0  0  0  0  0  0  0  0
    4.7630   60.4590   71.5980 C   0  0  0  0  0  0  0  0  0  0  0  0
    4.7020   59.5800   70.7530 O   0  0  0  0  0  0  0  0  0  0  0  0
    5.6460   61.6640   71.5030 C   0  0  0  0  0  0  0  0  0  0  0  0
    0.9890   52.4080   74.4460 H   0  0  0  0  0  0  0  0  0  0  0  0
   -0.5041   53.2137   75.0463 H   0  0  0  0  0  0  0  0  0  0  0  0
    2.0825   54.5580   74.1542 H   0  0  0  0  0  0  0  0  0  0  0  0
    0.4597   54.5511   73.3087 H   0  0  0  0  0  0  0  0  0  0  0  0
    1.5185   54.5747   78.1662 H   0  0  0  0  0  0  0  0  0  0  0  0
   -0.2496   57.2988   77.3054 H   0  0  0  0  0  0  0  0  0  0  0  0
    0.3273   57.1590   79.4238 H   0  0  0  0  0  0  0  0  0  0  0  0
    1.6130   55.9716   79.0192 H   0  0  0  0  0  0  0  0  0  0  0  0
    1.9817   57.7297   79.0192 H   0  0  0  0  0  0  0  0  0  0  0  0
    1.5384   59.0889   77.2038 H   0  0  0  0  0  0  0  0  0  0  0  0
    2.7131   57.8290   76.6441 H   0  0  0  0  0  0  0  0  0  0  0  0
    0.1740   58.6972   75.1966 H   0  0  0  0  0  0  0  0  0  0  0  0
    2.4240   56.7435   74.4518 H   0  0  0  0  0  0  0  0  0  0  0  0
    1.3441   56.3521   72.3293 H   0  0  0  0  0  0  0  0  0  0  0  0
    0.0225   57.5274   72.7697 H   0  0  0  0  0  0  0  0  0  0  0  0
    2.9670   58.1801   72.3086 H   0  0  0  0  0  0  0  0  0  0  0  0
    1.5582   58.5887   71.2378 H   0  0  0  0  0  0  0  0  0  0  0  0
    3.0540   59.0142   74.6477 H   0  0  0  0  0  0  0  0  0  0  0  0
    1.0475   61.1308   75.4917 H   0  0  0  0  0  0  0  0  0  0  0  0
    2.7131   60.9255   76.0296 H   0  0  0  0  0  0  0  0  0  0  0  0
    1.7637   62.5980   73.8618 H   0  0  0  0  0  0  0  0  0  0  0  0
    3.4678   62.2909   74.2731 H   0  0  0  0  0  0  0  0  0  0  0  0
   -0.2564   60.3054   73.8931 H   0  0  0  0  0  0  0  0  0  0  0  0
    0.1312   61.1286   72.3444 H   0  0  0  0  0  0  0  0  0  0  0  0
   -0.3636   59.4018   72.3444 H   0  0  0  0  0  0  0  0  0  0  0  0
   -1.4216   56.0919   75.8670 H   0  0  0  0  0  0  0  0  0  0  0  0
   -1.1667   56.9661   74.3185 H   0  0  0  0  0  0  0  0  0  0  0  0
   -1.3790   55.1824   74.3185 H   0  0  0  0  0  0  0  0  0  0  0  0
    1.9619   63.4544   72.8705 H   0  0  0  0  0  0  0  0  0  0  0  0
    2.7748   63.9354   71.3425 H   0  0  0  0  0  0  0  0  0  0  0  0
    1.0217   63.5436   71.3425 H   0  0  0  0  0  0  0  0  0  0  0  0
    5.9012   62.0123   72.5147 H   0  0  0  0  0  0  0  0  0  0  0  0
    6.5673   61.4018   70.9622 H   0  0  0  0  0  0  0  0  0  0  0  0
    5.1184   62.4635   70.9622 H   0  0  0  0  0  0  0  0  0  0  0  0
  2  1  2  0
  3  2  1  0
  4  3  1  0
  5  4  1  0
  6  5  1  0
  7  2  1  0
  7  6  2  0
  8  6  1  0
  9  8  1  0
 10  8  1  0
 11 10  1  0
 12 11  1  0
 12  5  1  0
 13 12  1  0
 14 13  1  0
 15 14  1  0
 16 15  1  0
 16 11  1  0
 17 16  1  0
 18 17  1  0
 19 18  1  0
 19 15  1  0
 15 20  1  1
  5 21  1  1
 22 19  1  0
 23 22  2  0
 24 22  1  0
 19 25  1  6
 26 25  1  0
 27 26  2  0
 28 26  1  0
  3 29  1  0
  3 30  1  0
  4 31  1  0
  4 32  1  0
  7 33  1  0
  8 34  1  1
  9 35  1  0
  9 36  1  0
  9 37  1  0
 10 38  1  0
 10 39  1  0
 11 40  1  1
 12 41  1  6
 13 42  1  0
 13 43  1  0
 14 44  1  0
 14 45  1  0
 16 46  1  6
 17 47  1  0
 17 48  1  0
 18 49  1  0
 18 50  1  0
 20 51  1  0
 20 52  1  0
 20 53  1  0
 21 54  1  0
 21 55  1  0
 21 56  1  0
 24 57  1  0
 24 58  1  0
 24 59  1  0
 28 60  1  0
 28 61  1  0
 28 62  1  0
M  END
>  <score>  (5) 
-7.106

$$$$
=
     RDKit          3D

 62 65  0  0  0  0  0  0  0  0999 V2000
    1.8260   65.0900   69.8770 O   0  0  0  0  0  0  0  0  0  0  0  0
    1.5180   64.2360   70.7050 C   0  0  0  0  0  0  0  0  0  0  0  0
    0.3470   64.3980   71.6320 C   0  0  0  0  0  0  0  0  0  0  0  0
    0.6330   63.7060   72.9540 C   0  0  0  0  0  0  0  0  0  0  0  0
    1.0010   62.1980   72.8090 C   0  0  1  0  0  0  0  0  0  0  0  0
    2.0130   61.9960   71.6570 C   0  0  0  0  0  0  0  0  0  0  0  0
    2.2640   62.9570   70.7450 C   0  0  0  0  0  0  0  0  0  0  0  0
    2.6870   60.6230   71.5980 C   0  0  1  0  0  0  0  0  0  0  0  0
    3.7410   60.4320   70.4980 C   0  0  0  0  0  0  0  0  0  0  0  0
    3.3140   60.2650   72.9520 C   0  0  0  0  0  0  0  0  0  0  0  0
    2.2760   60.3060   74.0810 C   0  0  2  0  0  0  0  0  0  0  0  0
    1.6450   61.7260   74.1690 C   0  0  2  0  0  0  0  0  0  0  0  0
    0.7010   61.8550   75.3940 C   0  0  0  0  0  0  0  0  0  0  0  0
    1.3610   61.4070   76.7100 C   0  0  0  0  0  0  0  0  0  0  0  0
    1.9070   59.9720   76.6230 C   0  0  1  0  0  0  0  0  0  0  0  0
    2.9050   59.9450   75.4340 C   0  0  1  0  0  0  0  0  0  0  0  0
    3.5770   58.5820   75.5720 C   0  0  0  0  0  0  0  0  0  0  0  0
    3.6190   58.3170   77.0890 C   0  0  0  0  0  0  0  0  0  0  0  0
    2.8560   59.4920   77.7840 C   0  0  2  0  0  0  0  0  0  0  0  0
    0.7180   58.9900   76.4110 C   0  0  0  0  0  0  0  0  0  0  0  0
   -0.2840   61.4070   72.4710 C   0  0  0  0  0  0  0  0  0  0  0  0
    2.1900   58.9400   79.0770 C   0  0  0  0  0  0  0  0  0  0  0  0
    1.3670   59.5710   79.7400 O   0  0  0  0  0  0  0  0  0  0  0  0
    2.5460   57.5260   79.4810 C   0  0  0  0  0  0  0  0  0  0  0  0
    3.8960   60.4730   78.0520 O   0  0  0  0  0  0  0  0  0  0  0  0
    4.3720   60.6320   79.3140 C   0  0  0  0  0  0  0  0  0  0  0  0
    5.1100   59.8580   79.8990 O   0  0  0  0  0  0  0  0  0  0  0  0
    3.8660   61.9180   79.8890 C   0  0  0  0  0  0  0  0  0  0  0  0
    0.1698   65.4686   71.8118 H   0  0  0  0  0  0  0  0  0  0  0  0
   -0.5438   63.9452   71.1720 H   0  0  0  0  0  0  0  0  0  0  0  0
    1.4732   64.2226   73.4411 H   0  0  0  0  0  0  0  0  0  0  0  0
   -0.2921   63.7541   73.5471 H   0  0  0  0  0  0  0  0  0  0  0  0
    3.0550   62.7841   70.0004 H   0  0  0  0  0  0  0  0  0  0  0  0
    1.8616   59.9431   71.3402 H   0  0  0  0  0  0  0  0  0  0  0  0
    4.7238   60.2539   70.9588 H   0  0  0  0  0  0  0  0  0  0  0  0
    3.4670   59.5689   69.8735 H   0  0  0  0  0  0  0  0  0  0  0  0
    3.7873   61.3364   69.8735 H   0  0  0  0  0  0  0  0  0  0  0  0
    3.7378   59.2517   72.8928 H   0  0  0  0  0  0  0  0  0  0  0  0
    4.0968   61.0046   73.1760 H   0  0  0  0  0  0  0  0  0  0  0  0
    1.4983   59.5630   73.8503 H   0  0  0  0  0  0  0  0  0  0  0  0
    2.4656   62.4375   74.3429 H   0  0  0  0  0  0  0  0  0  0  0  0
    0.3981   62.9077   75.4941 H   0  0  0  0  0  0  0  0  0  0  0  0
   -0.1612   61.1954   75.2165 H   0  0  0  0  0  0  0  0  0  0  0  0
    2.1922   62.0896   76.9405 H   0  0  0  0  0  0  0  0  0  0  0  0
    0.5949   61.4311   77.4990 H   0  0  0  0  0  0  0  0  0  0  0  0
    3.6646   60.7400   75.4651 H   0  0  0  0  0  0  0  0  0  0  0  0
    2.9894   57.8063   75.0591 H   0  0  0  0  0  0  0  0  0  0  0  0
    4.5793   58.5650   75.1192 H   0  0  0  0  0  0  0  0  0  0  0  0
    3.1272   57.3602   77.3184 H   0  0  0  0  0  0  0  0  0  0  0  0
    4.6575   58.2593   77.4471 H   0  0  0  0  0  0  0  0  0  0  0  0
    0.3290   58.6687   77.3885 H   0  0  0  0  0  0  0  0  0  0  0  0
   -0.0796   59.4962   75.8473 H   0  0  0  0  0  0  0  0  0  0  0  0
    1.0643   58.1112   75.8473 H   0  0  0  0  0  0  0  0  0  0  0  0
   -0.7817   61.1006   73.4029 H   0  0  0  0  0  0  0  0  0  0  0  0
   -0.9630   62.0437   71.8848 H   0  0  0  0  0  0  0  0  0  0  0  0
   -0.0214   60.5140   71.8848 H   0  0  0  0  0  0  0  0  0  0  0  0
    2.5647   57.4519   80.5783 H   0  0  0  0  0  0  0  0  0  0  0  0
    1.7951   56.8298   79.0792 H   0  0  0  0  0  0  0  0  0  0  0  0
    3.5370   57.2684   79.0792 H   0  0  0  0  0  0  0  0  0  0  0  0
    3.8879   61.8623   80.9874 H   0  0  0  0  0  0  0  0  0  0  0  0
    4.5049   62.7472   79.5511 H   0  0  0  0  0  0  0  0  0  0  0  0
    2.8333   62.0895   79.5511 H   0  0  0  0  0  0  0  0  0  0  0  0
  2  1  2  0
  3  2  1  0
  4  3  1  0
  5  4  1  0
  6  5  1  0
  7  2  1  0
  7  6  2  0
  8  6  1  0
  9  8  1  0
 10  8  1  0
 11 10  1  0
 12 11  1  0
 12  5  1  0
 13 12  1  0
 14 13  1  0
 15 14  1  0
 16 15  1  0
 16 11  1  0
 17 16  1  0
 18 17  1  0
 19 18  1  0
 19 15  1  0
 15 20  1  6
  5 21  1  6
 22 19  1  0
 23 22  2  0
 24 22  1  0
 19 25  1  1
 26 25  1  0
 27 26  2  0
 28 26  1  0
  3 29  1  0
  3 30  1  0
  4 31  1  0
  4 32  1  0
  7 33  1  0
  8 34  1  6
  9 35  1  0
  9 36  1  0
  9 37  1  0
 10 38  1  0
 10 39  1  0
 11 40  1  6
 12 41  1  1
 13 42  1  0
 13 43  1  0
 14 44  1  0
 14 45  1  0
 16 46  1  1
 17 47  1  0
 17 48  1  0
 18 49  1  0
 18 50  1  0
 20 51  1  0
 20 52  1  0
 20 53  1  0
 21 54  1  0
 21 55  1  0
 21 56  1  0
 24 57  1  0
 24 58  1  0
 24 59  1  0
 28 60  1  0
 28 61  1  0
 28 62  1  0
M  END
>  <score>  (6) 
-7.03

$$$$
=
     RDKit          3D

 62 65  0  0  0  0  0  0  0  0999 V2000
    5.0360   61.7780   72.6870 O   0  0  0  0  0  0  0  0  0  0  0  0
    4.0220   61.1360   72.9500 C   0  0  0  0  0  0  0  0  0  0  0  0
    2.9590   61.6530   73.8760 C   0  0  0  0  0  0  0  0  0  0  0  0
    2.3080   60.4960   74.6140 C   0  0  0  0  0  0  0  0  0  0  0  0
    1.7190   59.4000   73.6750 C   0  0  1  0  0  0  0  0  0  0  0  0
    2.7190   59.0610   72.5460 C   0  0  0  0  0  0  0  0  0  0  0  0
    3.7830   59.8410   72.2710 C   0  0  0  0  0  0  0  0  0  0  0  0
    2.4040   57.8000   71.7360 C   0  0  1  0  0  0  0  0  0  0  0  0
    3.4240   57.4180   70.6540 C   0  0  0  0  0  0  0  0  0  0  0  0
    2.1910   56.5970   72.6640 C   0  0  0  0  0  0  0  0  0  0  0  0
    1.0820   56.8670   73.6900 C   0  0  2  0  0  0  0  0  0  0  0  0
    1.4470   58.1140   74.5460 C   0  0  2  0  0  0  0  0  0  0  0  0
    0.4280   58.3330   75.6960 C   0  0  0  0  0  0  0  0  0  0  0  0
    0.1970   57.0680   76.5420 C   0  0  0  0  0  0  0  0  0  0  0  0
   -0.2380   55.8690   75.6820 C   0  0  1  0  0  0  0  0  0  0  0  0
    0.8690   55.6590   74.6150 C   0  0  1  0  0  0  0  0  0  0  0  0
    0.4930   54.3260   73.9770 C   0  0  0  0  0  0  0  0  0  0  0  0
   -0.1450   53.5120   75.1190 C   0  0  0  0  0  0  0  0  0  0  0  0
   -0.2260   54.4510   76.3670 C   0  0  2  0  0  0  0  0  0  0  0  0
   -1.6200   56.1850   75.0380 C   0  0  0  0  0  0  0  0  0  0  0  0
    0.4240   59.9470   73.0300 C   0  0  0  0  0  0  0  0  0  0  0  0
   -1.4760   54.0430   77.2000 C   0  0  0  0  0  0  0  0  0  0  0  0
   -1.8510   54.6510   78.2030 O   0  0  0  0  0  0  0  0  0  0  0  0
   -2.2870   52.8720   76.6900 C   0  0  0  0  0  0  0  0  0  0  0  0
    1.0270   54.2160   77.0640 O   0  0  0  0  0  0  0  0  0  0  0  0
    1.2190   53.0560   77.7450 C   0  0  0  0  0  0  0  0  0  0  0  0
    1.2990   51.9450   77.2490 O   0  0  0  0  0  0  0  0  0  0  0  0
    1.3330   53.3400   79.2100 C   0  0  0  0  0  0  0  0  0  0  0  0
    3.4131   62.3408   74.6045 H   0  0  0  0  0  0  0  0  0  0  0  0
    2.1948   62.1838   73.2892 H   0  0  0  0  0  0  0  0  0  0  0  0
    3.0647   60.0280   75.2608 H   0  0  0  0  0  0  0  0  0  0  0  0
    1.4657   60.9144   75.1845 H   0  0  0  0  0  0  0  0  0  0  0  0
    4.5033   59.5025   71.5116 H   0  0  0  0  0  0  0  0  0  0  0  0
    1.4830   58.0640   71.1956 H   0  0  0  0  0  0  0  0  0  0  0  0
    4.3521   57.0704   71.1313 H   0  0  0  0  0  0  0  0  0  0  0  0
    3.0104   56.6138   70.0277 H   0  0  0  0  0  0  0  0  0  0  0  0
    3.6404   58.2960   70.0277 H   0  0  0  0  0  0  0  0  0  0  0  0
    1.9116   55.7229   72.0575 H   0  0  0  0  0  0  0  0  0  0  0  0
    3.1281   56.4120   73.2096 H   0  0  0  0  0  0  0  0  0  0  0  0
    0.1483   57.0504   73.1382 H   0  0  0  0  0  0  0  0  0  0  0  0
    2.4118   57.9056   75.0314 H   0  0  0  0  0  0  0  0  0  0  0  0
    0.8064   59.1301   76.3529 H   0  0  0  0  0  0  0  0  0  0  0  0
   -0.5345   58.6027   75.2367 H   0  0  0  0  0  0  0  0  0  0  0  0
    1.1329   56.8120   77.0603 H   0  0  0  0  0  0  0  0  0  0  0  0
   -0.6099   57.2819   77.2584 H   0  0  0  0  0  0  0  0  0  0  0  0
    1.8870   55.6002   75.0276 H   0  0  0  0  0  0  0  0  0  0  0  0
   -0.2268   54.4768   73.1590 H   0  0  0  0  0  0  0  0  0  0  0  0
    1.3623   53.8153   73.5371 H   0  0  0  0  0  0  0  0  0  0  0  0
   -1.1537   53.1826   74.8291 H   0  0  0  0  0  0  0  0  0  0  0  0
    0.4539   52.6167   75.3422 H   0  0  0  0  0  0  0  0  0  0  0  0
   -2.3636   56.3550   75.8306 H   0  0  0  0  0  0  0  0  0  0  0  0
   -1.5362   57.0872   74.4142 H   0  0  0  0  0  0  0  0  0  0  0  0
   -1.9366   55.3361   74.4142 H   0  0  0  0  0  0  0  0  0  0  0  0
   -0.2814   60.2450   73.8197 H   0  0  0  0  0  0  0  0  0  0  0  0
    0.6657   60.8199   72.4058 H   0  0  0  0  0  0  0  0  0  0  0  0
   -0.0333   59.1652   72.4058 H   0  0  0  0  0  0  0  0  0  0  0  0
   -2.6826   52.3008   77.5428 H   0  0  0  0  0  0  0  0  0  0  0  0
   -3.1224   53.2433   76.0782 H   0  0  0  0  0  0  0  0  0  0  0  0
   -1.6457   52.2205   76.0782 H   0  0  0  0  0  0  0  0  0  0  0  0
    0.9828   52.4675   79.7810 H   0  0  0  0  0  0  0  0  0  0  0  0
    2.3835   53.5461   79.4629 H   0  0  0  0  0  0  0  0  0  0  0  0
    0.7165   54.2152   79.4629 H   0  0  0  0  0  0  0  0  0  0  0  0
  2  1  2  0
  3  2  1  0
  4  3  1  0
  5  4  1  0
  6  5  1  0
  7  2  1  0
  7  6  2  0
  8  6  1  0
  9  8  1  0
 10  8  1  0
 11 10  1  0
 12 11  1  0
 12  5  1  0
 13 12  1  0
 14 13  1  0
 15 14  1  0
 16 15  1  0
 16 11  1  0
 17 16  1  0
 18 17  1  0
 19 18  1  0
 19 15  1  0
 15 20  1  6
  5 21  1  6
 22 19  1  0
 23 22  2  0
 24 22  1  0
 19 25  1  1
 26 25  1  0
 27 26  2  0
 28 26  1  0
  3 29  1  0
  3 30  1  0
  4 31  1  0
  4 32  1  0
  7 33  1  0
  8 34  1  6
  9 35  1  0
  9 36  1  0
  9 37  1  0
 10 38  1  0
 10 39  1  0
 11 40  1  6
 12 41  1  1
 13 42  1  0
 13 43  1  0
 14 44  1  0
 14 45  1  0
 16 46  1  1
 17 47  1  0
 17 48  1  0
 18 49  1  0
 18 50  1  0
 20 51  1  0
 20 52  1  0
 20 53  1  0
 21 54  1  0
 21 55  1  0
 21 56  1  0
 24 57  1  0
 24 58  1  0
 24 59  1  0
 28 60  1  0
 28 61  1  0
 28 62  1  0
M  END
>  <score>  (7) 
-6.627

$$$$
=
     RDKit          3D

 62 65  0  0  0  0  0  0  0  0999 V2000
   -0.0680   63.6570   69.8680 O   0  0  0  0  0  0  0  0  0  0  0  0
    0.3630   63.2490   70.9440 C   0  0  0  0  0  0  0  0  0  0  0  0
    1.7580   63.5420   71.4170 C   0  0  0  0  0  0  0  0  0  0  0  0
    2.2740   62.3850   72.2560 C   0  0  0  0  0  0  0  0  0  0  0  0
    1.3590   62.0270   73.4660 C   0  0  1  0  0  0  0  0  0  0  0  0
   -0.1240   61.9950   73.0320 C   0  0  0  0  0  0  0  0  0  0  0  0
   -0.5410   62.5140   71.8590 C   0  0  0  0  0  0  0  0  0  0  0  0
   -1.0970   61.3670   74.0350 C   0  0  1  0  0  0  0  0  0  0  0  0
   -2.5630   61.2720   73.5880 C   0  0  0  0  0  0  0  0  0  0  0  0
   -0.6170   59.9740   74.4590 C   0  0  0  0  0  0  0  0  0  0  0  0
    0.8010   60.0220   75.0440 C   0  0  2  0  0  0  0  0  0  0  0  0
    1.7880   60.6030   73.9910 C   0  0  2  0  0  0  0  0  0  0  0  0
    3.2580   60.5280   74.4850 C   0  0  0  0  0  0  0  0  0  0  0  0
    3.6560   59.1240   74.9730 C   0  0  0  0  0  0  0  0  0  0  0  0
    2.7110   58.6030   76.0680 C   0  0  1  0  0  0  0  0  0  0  0  0
    1.2780   58.6260   75.4720 C   0  0  1  0  0  0  0  0  0  0  0  0
    0.4540   57.8730   76.5110 C   0  0  0  0  0  0  0  0  0  0  0  0
    1.4190   56.8230   77.0920 C   0  0  0  0  0  0  0  0  0  0  0  0
    2.8220   57.0790   76.4490 C   0  0  2  0  0  0  0  0  0  0  0  0
    2.8380   59.5180   77.3220 C   0  0  0  0  0  0  0  0  0  0  0  0
    1.5250   63.1180   74.5500 C   0  0  0  0  0  0  0  0  0  0  0  0
    3.9110   56.6720   77.4830 C   0  0  0  0  0  0  0  0  0  0  0  0
    5.1170   56.6830   77.2380 O   0  0  0  0  0  0  0  0  0  0  0  0
    3.4350   56.3080   78.8720 C   0  0  0  0  0  0  0  0  0  0  0  0
    2.8200   56.2410   75.2610 O   0  0  0  0  0  0  0  0  0  0  0  0
    2.0560   55.1180   75.2220 C   0  0  0  0  0  0  0  0  0  0  0  0
    2.1040   54.1960   76.0200 O   0  0  0  0  0  0  0  0  0  0  0  0
    1.1240   55.1780   74.0520 C   0  0  0  0  0  0  0  0  0  0  0  0
    2.4159   63.6833   70.5468 H   0  0  0  0  0  0  0  0  0  0  0  0
    1.7482   64.4563   72.0285 H   0  0  0  0  0  0  0  0  0  0  0  0
    2.3572   61.4985   71.6101 H   0  0  0  0  0  0  0  0  0  0  0  0
    3.2441   62.6975   72.6699 H   0  0  0  0  0  0  0  0  0  0  0  0
   -1.5947   62.3864   71.5701 H   0  0  0  0  0  0  0  0  0  0  0  0
   -1.0888   62.0733   74.8783 H   0  0  0  0  0  0  0  0  0  0  0  0
   -3.2143   61.2298   74.4734 H   0  0  0  0  0  0  0  0  0  0  0  0
   -2.8205   62.1553   72.9852 H   0  0  0  0  0  0  0  0  0  0  0  0
   -2.7043   60.3628   72.9852 H   0  0  0  0  0  0  0  0  0  0  0  0
   -1.3043   59.5753   75.2197 H   0  0  0  0  0  0  0  0  0  0  0  0
   -0.6015   59.3283   73.5686 H   0  0  0  0  0  0  0  0  0  0  0  0
    0.7771   60.6687   75.9335 H   0  0  0  0  0  0  0  0  0  0  0  0
    1.7338   59.9571   73.1022 H   0  0  0  0  0  0  0  0  0  0  0  0
    3.9218   60.8122   73.6552 H   0  0  0  0  0  0  0  0  0  0  0  0
    3.3538   61.2135   75.3399 H   0  0  0  0  0  0  0  0  0  0  0  0
    3.6268   58.4304   74.1197 H   0  0  0  0  0  0  0  0  0  0  0  0
    4.6674   59.1881   75.4007 H   0  0  0  0  0  0  0  0  0  0  0  0
    1.1881   58.1289   74.4949 H   0  0  0  0  0  0  0  0  0  0  0  0
    0.1052   58.5568   77.2989 H   0  0  0  0  0  0  0  0  0  0  0  0
   -0.4455   57.4141   76.0748 H   0  0  0  0  0  0  0  0  0  0  0  0
    1.4799   56.9309   78.1850 H   0  0  0  0  0  0  0  0  0  0  0  0
    1.0676   55.8045   76.8704 H   0  0  0  0  0  0  0  0  0  0  0  0
    2.7531   58.9063   78.2323 H   0  0  0  0  0  0  0  0  0  0  0  0
    3.8149   60.0235   77.3097 H   0  0  0  0  0  0  0  0  0  0  0  0
    2.0357   60.2704   77.3097 H   0  0  0  0  0  0  0  0  0  0  0  0
    1.4550   62.6581   75.5468 H   0  0  0  0  0  0  0  0  0  0  0  0
    2.5069   63.6007   74.4370 H   0  0  0  0  0  0  0  0  0  0  0  0
    0.7311   63.8709   74.4370 H   0  0  0  0  0  0  0  0  0  0  0  0
    4.0761   56.7982   79.6195 H   0  0  0  0  0  0  0  0  0  0  0  0
    2.3958   56.6440   79.0033 H   0  0  0  0  0  0  0  0  0  0  0  0
    3.4870   55.2171   79.0033 H   0  0  0  0  0  0  0  0  0  0  0  0
    0.0869   55.2448   74.4124 H   0  0  0  0  0  0  0  0  0  0  0  0
    1.3579   56.0629   73.4419 H   0  0  0  0  0  0  0  0  0  0  0  0
    1.2425   54.2704   73.4419 H   0  0  0  0  0  0  0  0  0  0  0  0
  2  1  2  0
  3  2  1  0
  4  3  1  0
  5  4  1  0
  6  5  1  0
  7  2  1  0
  7  6  2  0
  8  6  1  0
  9  8  1  0
 10  8  1  0
 11 10  1  0
 12 11  1  0
 12  5  1  0
 13 12  1  0
 14 13  1  0
 15 14  1  0
 16 15  1  0
 16 11  1  0
 17 16  1  0
 18 17  1  0
 19 18  1  0
 19 15  1  0
 15 20  1  1
  5 21  1  1
 22 19  1  0
 23 22  2  0
 24 22  1  0
 19 25  1  6
 26 25  1  0
 27 26  2  0
 28 26  1  0
  3 29  1  0
  3 30  1  0
  4 31  1  0
  4 32  1  0
  7 33  1  0
  8 34  1  1
  9 35  1  0
  9 36  1  0
  9 37  1  0
 10 38  1  0
 10 39  1  0
 11 40  1  1
 12 41  1  6
 13 42  1  0
 13 43  1  0
 14 44  1  0
 14 45  1  0
 16 46  1  6
 17 47  1  0
 17 48  1  0
 18 49  1  0
 18 50  1  0
 20 51  1  0
 20 52  1  0
 20 53  1  0
 21 54  1  0
 21 55  1  0
 21 56  1  0
 24 57  1  0
 24 58  1  0
 24 59  1  0
 28 60  1  0
 28 61  1  0
 28 62  1  0
M  END
>  <score>  (8) 
-6.484

$$$$
=
     RDKit          3D

 62 65  0  0  0  0  0  0  0  0999 V2000
    0.8500   62.6530   70.7600 O   0  0  0  0  0  0  0  0  0  0  0  0
    0.9540   61.8830   71.7120 C   0  0  0  0  0  0  0  0  0  0  0  0
    2.2790   61.3470   72.1740 C   0  0  0  0  0  0  0  0  0  0  0  0
    2.1030   59.9480   72.7400 C   0  0  0  0  0  0  0  0  0  0  0  0
    1.0550   59.8610   73.8910 C   0  0  1  0  0  0  0  0  0  0  0  0
   -0.2200   60.6540   73.5230 C   0  0  0  0  0  0  0  0  0  0  0  0
   -0.2510   61.5290   72.4980 C   0  0  0  0  0  0  0  0  0  0  0  0
   -1.4370   60.4070   74.4190 C   0  0  1  0  0  0  0  0  0  0  0  0
   -2.7270   61.1400   74.0260 C   0  0  0  0  0  0  0  0  0  0  0  0
   -1.7340   58.9060   74.5330 C   0  0  0  0  0  0  0  0  0  0  0  0
   -0.5170   58.1300   75.0550 C   0  0  2  0  0  0  0  0  0  0  0  0
    0.6930   58.3410   74.1000 C   0  0  2  0  0  0  0  0  0  0  0  0
    1.9000   57.4520   74.5050 C   0  0  0  0  0  0  0  0  0  0  0  0
    1.5220   55.9710   74.6810 C   0  0  0  0  0  0  0  0  0  0  0  0
    0.3750   55.7830   75.6890 C   0  0  1  0  0  0  0  0  0  0  0  0
   -0.8190   56.6290   75.1710 C   0  0  1  0  0  0  0  0  0  0  0  0
   -1.9710   56.1970   76.0720 C   0  0  0  0  0  0  0  0  0  0  0  0
   -1.6880   54.7160   76.3870 C   0  0  0  0  0  0  0  0  0  0  0  0
   -0.3040   54.3640   75.7490 C   0  0  2  0  0  0  0  0  0  0  0  0
    0.8570   56.2490   77.0950 C   0  0  0  0  0  0  0  0  0  0  0  0
    1.6680   60.4900   75.1650 C   0  0  0  0  0  0  0  0  0  0  0  0
    0.3750   53.2770   76.6320 C   0  0  0  0  0  0  0  0  0  0  0  0
    1.5540   52.9450   76.5140 O   0  0  0  0  0  0  0  0  0  0  0  0
   -0.4680   52.6590   77.7260 C   0  0  0  0  0  0  0  0  0  0  0  0
   -0.6430   53.8880   74.4180 O   0  0  0  0  0  0  0  0  0  0  0  0
   -0.5230   52.5690   74.1160 C   0  0  0  0  0  0  0  0  0  0  0  0
    0.4820   52.0250   73.6910 O   0  0  0  0  0  0  0  0  0  0  0  0
   -1.8150   51.8650   74.3940 C   0  0  0  0  0  0  0  0  0  0  0  0
    2.9746   61.3110   71.3226 H   0  0  0  0  0  0  0  0  0  0  0  0
    2.6827   62.0059   72.9569 H   0  0  0  0  0  0  0  0  0  0  0  0
    1.7796   59.2828   71.9258 H   0  0  0  0  0  0  0  0  0  0  0  0
    3.0724   59.6513   73.1669 H   0  0  0  0  0  0  0  0  0  0  0  0
   -1.2099   61.9993   72.2345 H   0  0  0  0  0  0  0  0  0  0  0  0
   -1.1352   60.8351   75.3863 H   0  0  0  0  0  0  0  0  0  0  0  0
   -3.2660   61.4463   74.9346 H   0  0  0  0  0  0  0  0  0  0  0  0
   -2.4760   62.0304   73.4309 H   0  0  0  0  0  0  0  0  0  0  0  0
   -3.3634   60.4686   73.4309 H   0  0  0  0  0  0  0  0  0  0  0  0
   -2.5754   58.7597   75.2263 H   0  0  0  0  0  0  0  0  0  0  0  0
   -1.9818   58.5261   73.5309 H   0  0  0  0  0  0  0  0  0  0  0  0
   -0.2753   58.5137   76.0571 H   0  0  0  0  0  0  0  0  0  0  0  0
    0.3847   57.9966   73.1019 H   0  0  0  0  0  0  0  0  0  0  0  0
    2.6692   57.5270   73.7222 H   0  0  0  0  0  0  0  0  0  0  0  0
    2.2664   57.8163   75.4761 H   0  0  0  0  0  0  0  0  0  0  0  0
    1.2084   55.5667   73.7072 H   0  0  0  0  0  0  0  0  0  0  0  0
    2.4040   55.4397   75.0681 H   0  0  0  0  0  0  0  0  0  0  0  0
   -1.0799   56.4439   74.1185 H   0  0  0  0  0  0  0  0  0  0  0  0
   -1.9857   56.7940   76.9958 H   0  0  0  0  0  0  0  0  0  0  0  0
   -2.9504   56.3403   75.5923 H   0  0  0  0  0  0  0  0  0  0  0  0
   -1.6512   54.5626   77.4756 H   0  0  0  0  0  0  0  0  0  0  0  0
   -2.4810   54.0716   75.9797 H   0  0  0  0  0  0  0  0  0  0  0  0
    0.2975   55.7080   77.8723 H   0  0  0  0  0  0  0  0  0  0  0  0
    1.9312   56.0383   77.2028 H   0  0  0  0  0  0  0  0  0  0  0  0
    0.6827   57.3297   77.2028 H   0  0  0  0  0  0  0  0  0  0  0  0
    1.2173   60.0276   76.0555 H   0  0  0  0  0  0  0  0  0  0  0  0
    2.7544   60.3179   75.1726 H   0  0  0  0  0  0  0  0  0  0  0  0
    1.4680   61.5716   75.1726 H   0  0  0  0  0  0  0  0  0  0  0  0
   -0.0675   52.9526   78.7075 H   0  0  0  0  0  0  0  0  0  0  0  0
   -1.5057   53.0119   77.6329 H   0  0  0  0  0  0  0  0  0  0  0  0
   -0.4436   51.5632   77.6329 H   0  0  0  0  0  0  0  0  0  0  0  0
   -1.9623   51.7847   75.4811 H   0  0  0  0  0  0  0  0  0  0  0  0
   -2.6456   52.4352   73.9525 H   0  0  0  0  0  0  0  0  0  0  0  0
   -1.7862   50.8579   73.9525 H   0  0  0  0  0  0  0  0  0  0  0  0
  2  1  2  0
  3  2  1  0
  4  3  1  0
  5  4  1  0
  6  5  1  0
  7  2  1  0
  7  6  2  0
  8  6  1  0
  9  8  1  0
 10  8  1  0
 11 10  1  0
 12 11  1  0
 12  5  1  0
 13 12  1  0
 14 13  1  0
 15 14  1  0
 16 15  1  0
 16 11  1  0
 17 16  1  0
 18 17  1  0
 19 18  1  0
 19 15  1  0
 15 20  1  1
  5 21  1  1
 22 19  1  0
 23 22  2  0
 24 22  1  0
 19 25  1  6
 26 25  1  0
 27 26  2  0
 28 26  1  0
  3 29  1  0
  3 30  1  0
  4 31  1  0
  4 32  1  0
  7 33  1  0
  8 34  1  1
  9 35  1  0
  9 36  1  0
  9 37  1  0
 10 38  1  0
 10 39  1  0
 11 40  1  1
 12 41  1  6
 13 42  1  0
 13 43  1  0
 14 44  1  0
 14 45  1  0
 16 46  1  6
 17 47  1  0
 17 48  1  0
 18 49  1  0
 18 50  1  0
 20 51  1  0
 20 52  1  0
 20 53  1  0
 21 54  1  0
 21 55  1  0
 21 56  1  0
 24 57  1  0
 24 58  1  0
 24 59  1  0
 28 60  1  0
 28 61  1  0
 28 62  1  0
M  END
>  <score>  (9) 
-6.382

$$$$
