=
     RDKit          3D

 37 39  0  0  0  0  0  0  0  0999 V2000
    4.1790   68.6450   65.1190 O   0  0  0  0  0  0  0  0  0  0  0  0
    3.3610   69.0980   65.9040 C   0  0  0  0  0  0  0  0  0  0  0  0
    3.5650   69.7890   67.0590 N   0  0  0  0  0  0  0  0  0  0  0  0
    4.7900   70.1500   67.6470 C   0  0  0  0  0  0  0  0  0  0  0  0
    6.0030   70.1930   66.9560 C   0  0  0  0  0  0  0  0  0  0  0  0
    7.1790   70.5660   67.6150 C   0  0  0  0  0  0  0  0  0  0  0  0
    7.1520   70.8990   68.9670 C   0  0  0  0  0  0  0  0  0  0  0  0
    5.9490   70.8580   69.6640 C   0  0  0  0  0  0  0  0  0  0  0  0
    4.7730   70.4850   69.0070 C   0  0  0  0  0  0  0  0  0  0  0  0
    2.0160   68.9850   65.6910 O   0  0  0  0  0  0  0  0  0  0  0  0
    1.3880   67.9120   66.4180 C   0  0  2  0  0  0  0  0  0  0  0  0
    0.1970   67.2980   65.6390 C   0  0  0  0  0  0  0  0  0  0  0  0
   -1.0860   67.5430   66.4300 N   0  0  1  0  0  4  0  0  0  0  0  0
   -1.0320   66.8290   67.7640 C   0  0  0  0  0  0  0  0  0  0  0  0
    0.1780   67.3560   68.5410 C   0  0  0  0  0  0  0  0  0  0  0  0
    0.8720   68.4850   67.7590 C   0  0  2  0  0  0  0  0  0  0  0  0
   -0.1760   69.5820   67.4780 C   0  0  0  0  0  0  0  0  0  0  0  0
   -1.3130   69.0280   66.6180 C   0  0  0  0  0  0  0  0  0  0  0  0
    2.7174   70.0837   67.5645 H   0  0  0  0  0  0  0  0  0  0  0  0
    6.0337   69.9321   65.8878 H   0  0  0  0  0  0  0  0  0  0  0  0
    8.1298   70.5965   67.0627 H   0  0  0  0  0  0  0  0  0  0  0  0
    8.0785   71.1933   69.4817 H   0  0  0  0  0  0  0  0  0  0  0  0
    5.9231   71.1191   70.7322 H   0  0  0  0  0  0  0  0  0  0  0  0
    3.8247   70.4542   69.5635 H   0  0  0  0  0  0  0  0  0  0  0  0
    2.1277   67.1130   66.5740 H   0  0  0  0  0  0  0  0  0  0  0  0
    0.1180   67.7726   64.6498 H   0  0  0  0  0  0  0  0  0  0  0  0
    0.3541   66.2174   65.5063 H   0  0  0  0  0  0  0  0  0  0  0  0
   -1.8803   67.1613   65.8968 H   0  0  0  0  0  0  0  0  0  0  0  0
   -1.9537   67.0282   68.3304 H   0  0  0  0  0  0  0  0  0  0  0  0
   -0.9411   65.7436   67.6103 H   0  0  0  0  0  0  0  0  0  0  0  0
   -0.1578   67.7434   69.5142 H   0  0  0  0  0  0  0  0  0  0  0  0
    0.8930   66.5328   68.6861 H   0  0  0  0  0  0  0  0  0  0  0  0
    1.7146   68.9008   68.3310 H   0  0  0  0  0  0  0  0  0  0  0  0
   -0.5868   69.9433   68.4323 H   0  0  0  0  0  0  0  0  0  0  0  0
    0.3094   70.4080   66.9374 H   0  0  0  0  0  0  0  0  0  0  0  0
   -2.2764   69.1963   67.1216 H   0  0  0  0  0  0  0  0  0  0  0  0
   -1.3321   69.5352   65.6421 H   0  0  0  0  0  0  0  0  0  0  0  0
  2  1  2  0
  3  2  1  0
  4  3  1  0
  5  4  2  0
  6  5  1  0
  7  6  2  0
  8  7  1  0
  9  4  1  0
  9  8  2  0
 10  2  1  0
 11 10  1  0
 12 11  1  0
 13 12  1  0
 14 13  1  0
 15 14  1  0
 16 15  1  0
 16 11  1  0
 17 16  1  0
 18 17  1  0
 18 13  1  0
  3 19  1  0
  5 20  1  0
  6 21  1  0
  7 22  1  0
  8 23  1  0
  9 24  1  0
 11 25  1  1
 12 26  1  0
 12 27  1  0
 13 28  1  6
 14 29  1  0
 14 30  1  0
 15 31  1  0
 15 32  1  0
 16 33  1  1
 17 34  1  0
 17 35  1  0
 18 36  1  0
 18 37  1  0
M  CHG  1  13   1
M  END
>  <score>  (1) 
-8.439

$$$$
=
     RDKit          3D

 37 39  0  0  0  0  0  0  0  0999 V2000
    0.0420   65.9820   71.1220 O   0  0  0  0  0  0  0  0  0  0  0  0
    0.9440   65.7670   70.3280 C   0  0  0  0  0  0  0  0  0  0  0  0
    1.1180   66.2530   69.0690 N   0  0  0  0  0  0  0  0  0  0  0  0
    0.2830   67.1310   68.3560 C   0  0  0  0  0  0  0  0  0  0  0  0
   -1.0240   66.8230   67.9710 C   0  0  0  0  0  0  0  0  0  0  0  0
   -1.7910   67.7550   67.2650 C   0  0  0  0  0  0  0  0  0  0  0  0
   -1.2600   69.0000   66.9390 C   0  0  0  0  0  0  0  0  0  0  0  0
    0.0410   69.3170   67.3170 C   0  0  0  0  0  0  0  0  0  0  0  0
    0.8090   68.3860   68.0220 C   0  0  0  0  0  0  0  0  0  0  0  0
    2.0040   64.9620   70.6400 O   0  0  0  0  0  0  0  0  0  0  0  0
    1.9610   63.6600   70.0260 C   0  0  2  0  0  0  0  0  0  0  0  0
    1.5890   62.5490   71.0400 C   0  0  0  0  0  0  0  0  0  0  0  0
    2.7690   61.5890   71.1740 N   0  0  1  0  0  4  0  0  0  0  0  0
    3.0390   60.8950   69.8560 C   0  0  0  0  0  0  0  0  0  0  0  0
    3.3420   61.9640   68.8030 C   0  0  0  0  0  0  0  0  0  0  0  0
    3.3640   63.3630   69.4450 C   0  0  2  0  0  0  0  0  0  0  0  0
    4.3990   63.3450   70.5880 C   0  0  0  0  0  0  0  0  0  0  0  0
    3.9970   62.3290   71.6590 C   0  0  0  0  0  0  0  0  0  0  0  0
    1.9668   65.9386   68.5774 H   0  0  0  0  0  0  0  0  0  0  0  0
   -1.4522   65.8420   68.2246 H   0  0  0  0  0  0  0  0  0  0  0  0
   -2.8191   67.5032   66.9657 H   0  0  0  0  0  0  0  0  0  0  0  0
   -1.8670   69.7307   66.3844 H   0  0  0  0  0  0  0  0  0  0  0  0
    0.4647   70.2994   67.0612 H   0  0  0  0  0  0  0  0  0  0  0  0
    1.8373   68.6413   68.3178 H   0  0  0  0  0  0  0  0  0  0  0  0
    1.1881   63.6654   69.2434 H   0  0  0  0  0  0  0  0  0  0  0  0
    1.3670   63.0006   72.0182 H   0  0  0  0  0  0  0  0  0  0  0  0
    0.7016   62.0031   70.6871 H   0  0  0  0  0  0  0  0  0  0  0  0
    2.5319   60.8688   71.8711 H   0  0  0  0  0  0  0  0  0  0  0  0
    3.9019   60.2208   69.9606 H   0  0  0  0  0  0  0  0  0  0  0  0
    2.1631   60.3025   69.5533 H   0  0  0  0  0  0  0  0  0  0  0  0
    4.3231   61.7581   68.3502 H   0  0  0  0  0  0  0  0  0  0  0  0
    2.5561   61.9381   68.0338 H   0  0  0  0  0  0  0  0  0  0  0  0
    3.6281   64.1332   68.7053 H   0  0  0  0  0  0  0  0  0  0  0  0
    5.3834   63.0712   70.1806 H   0  0  0  0  0  0  0  0  0  0  0  0
    4.4422   64.3449   71.0445 H   0  0  0  0  0  0  0  0  0  0  0  0
    4.8193   61.6173   71.8240 H   0  0  0  0  0  0  0  0  0  0  0  0
    3.7803   62.8430   72.6071 H   0  0  0  0  0  0  0  0  0  0  0  0
  2  1  2  0
  3  2  1  0
  4  3  1  0
  5  4  2  0
  6  5  1  0
  7  6  2  0
  8  7  1  0
  9  4  1  0
  9  8  2  0
 10  2  1  0
 11 10  1  0
 12 11  1  0
 13 12  1  0
 14 13  1  0
 15 14  1  0
 16 15  1  0
 16 11  1  0
 17 16  1  0
 18 17  1  0
 18 13  1  0
  3 19  1  0
  5 20  1  0
  6 21  1  0
  7 22  1  0
  8 23  1  0
  9 24  1  0
 11 25  1  6
 12 26  1  0
 12 27  1  0
 13 28  1  1
 14 29  1  0
 14 30  1  0
 15 31  1  0
 15 32  1  0
 16 33  1  6
 17 34  1  0
 17 35  1  0
 18 36  1  0
 18 37  1  0
M  CHG  1  13   1
M  END
>  <score>  (2) 
-8.126

$$$$
=
     RDKit          3D

 37 39  0  0  0  0  0  0  0  0999 V2000
    2.1100   69.0500   67.7130 O   0  0  0  0  0  0  0  0  0  0  0  0
    2.1040   68.4980   66.6250 C   0  0  0  0  0  0  0  0  0  0  0  0
    1.0560   67.9780   65.9270 N   0  0  0  0  0  0  0  0  0  0  0  0
   -0.2990   67.9420   66.2990 C   0  0  0  0  0  0  0  0  0  0  0  0
   -0.8030   67.1420   67.3260 C   0  0  0  0  0  0  0  0  0  0  0  0
   -2.1680   67.1660   67.6350 C   0  0  0  0  0  0  0  0  0  0  0  0
   -3.0360   67.9880   66.9220 C   0  0  0  0  0  0  0  0  0  0  0  0
   -2.5430   68.7890   65.8960 C   0  0  0  0  0  0  0  0  0  0  0  0
   -1.1810   68.7650   65.5860 C   0  0  0  0  0  0  0  0  0  0  0  0
    3.2440   68.3420   65.8880 O   0  0  0  0  0  0  0  0  0  0  0  0
    3.0200   67.9120   64.5310 C   0  0  2  0  0  0  0  0  0  0  0  0
    3.8760   66.6740   64.1640 C   0  0  0  0  0  0  0  0  0  0  0  0
    4.8520   67.0630   63.0550 N   0  0  1  0  0  4  0  0  0  0  0  0
    4.1010   67.4540   61.8000 C   0  0  0  0  0  0  0  0  0  0  0  0
    3.1840   68.6330   62.1370 C   0  0  0  0  0  0  0  0  0  0  0  0
    3.3970   69.0830   63.5930 C   0  0  2  0  0  0  0  0  0  0  0  0
    4.8910   69.4220   63.7720 C   0  0  0  0  0  0  0  0  0  0  0  0
    5.7550   68.1860   63.5190 C   0  0  0  0  0  0  0  0  0  0  0  0
    1.2848   67.5596   65.0140 H   0  0  0  0  0  0  0  0  0  0  0  0
   -0.1243   66.4897   67.8951 H   0  0  0  0  0  0  0  0  0  0  0  0
   -2.5568   66.5320   68.4455 H   0  0  0  0  0  0  0  0  0  0  0  0
   -4.1079   68.0045   67.1685 H   0  0  0  0  0  0  0  0  0  0  0  0
   -3.2251   69.4403   65.3298 H   0  0  0  0  0  0  0  0  0  0  0  0
   -0.7968   69.3990   64.7734 H   0  0  0  0  0  0  0  0  0  0  0  0
    1.9631   67.6274   64.4216 H   0  0  0  0  0  0  0  0  0  0  0  0
    4.4364   66.3364   65.0483 H   0  0  0  0  0  0  0  0  0  0  0  0
    3.2245   65.8573   63.8197 H   0  0  0  0  0  0  0  0  0  0  0  0
    5.4409   66.2478   62.8325 H   0  0  0  0  0  0  0  0  0  0  0  0
    4.8142   67.7495   61.0164 H   0  0  0  0  0  0  0  0  0  0  0  0
    3.5068   66.6041   61.4332 H   0  0  0  0  0  0  0  0  0  0  0  0
    3.4101   69.4718   61.4622 H   0  0  0  0  0  0  0  0  0  0  0  0
    2.1379   68.3168   62.0120 H   0  0  0  0  0  0  0  0  0  0  0  0
    2.7769   69.9602   63.8297 H   0  0  0  0  0  0  0  0  0  0  0  0
    5.1710   70.2114   63.0590 H   0  0  0  0  0  0  0  0  0  0  0  0
    5.0564   69.7664   64.8035 H   0  0  0  0  0  0  0  0  0  0  0  0
    6.5027   68.4071   62.7430 H   0  0  0  0  0  0  0  0  0  0  0  0
    6.2797   67.8947   64.4408 H   0  0  0  0  0  0  0  0  0  0  0  0
  2  1  2  0
  3  2  1  0
  4  3  1  0
  5  4  2  0
  6  5  1  0
  7  6  2  0
  8  7  1  0
  9  4  1  0
  9  8  2  0
 10  2  1  0
 11 10  1  0
 12 11  1  0
 13 12  1  0
 14 13  1  0
 15 14  1  0
 16 15  1  0
 16 11  1  0
 17 16  1  0
 18 17  1  0
 18 13  1  0
  3 19  1  0
  5 20  1  0
  6 21  1  0
  7 22  1  0
  8 23  1  0
  9 24  1  0
 11 25  1  1
 12 26  1  0
 12 27  1  0
 13 28  1  6
 14 29  1  0
 14 30  1  0
 15 31  1  0
 15 32  1  0
 16 33  1  1
 17 34  1  0
 17 35  1  0
 18 36  1  0
 18 37  1  0
M  CHG  1  13   1
M  END
>  <score>  (3) 
-8.096

$$$$
=
     RDKit          3D

 37 39  0  0  0  0  0  0  0  0999 V2000
    2.5600   69.4070   67.4500 O   0  0  0  0  0  0  0  0  0  0  0  0
    3.3470   69.5220   66.5240 C   0  0  0  0  0  0  0  0  0  0  0  0
    4.6610   69.8760   66.5480 N   0  0  0  0  0  0  0  0  0  0  0  0
    5.4480   70.2110   67.6650 C   0  0  0  0  0  0  0  0  0  0  0  0
    4.9370   70.3830   68.9530 C   0  0  0  0  0  0  0  0  0  0  0  0
    5.7890   70.7140   70.0120 C   0  0  0  0  0  0  0  0  0  0  0  0
    7.1540   70.8740   69.7930 C   0  0  0  0  0  0  0  0  0  0  0  0
    7.6730   70.7050   68.5120 C   0  0  0  0  0  0  0  0  0  0  0  0
    6.8230   70.3750   67.4530 C   0  0  0  0  0  0  0  0  0  0  0  0
    2.9860   69.2590   65.2320 O   0  0  0  0  0  0  0  0  0  0  0  0
    3.9140   68.4230   64.5150 C   0  0  2  0  0  0  0  0  0  0  0  0
    4.6720   69.2050   63.4140 C   0  0  0  0  0  0  0  0  0  0  0  0
    4.3000   68.6230   62.0520 N   0  0  1  0  0  4  0  0  0  0  0  0
    4.7570   67.1830   61.9480 C   0  0  0  0  0  0  0  0  0  0  0  0
    4.0860   66.3840   63.0690 C   0  0  0  0  0  0  0  0  0  0  0  0
    3.1110   67.2760   63.8580 C   0  0  2  0  0  0  0  0  0  0  0  0
    2.0950   67.8680   62.8600 C   0  0  0  0  0  0  0  0  0  0  0  0
    2.8080   68.7360   61.8210 C   0  0  0  0  0  0  0  0  0  0  0  0
    5.1382   69.9018   65.6356 H   0  0  0  0  0  0  0  0  0  0  0  0
    3.8596   70.2577   69.1358 H   0  0  0  0  0  0  0  0  0  0  0  0
    5.3778   70.8485   71.0233 H   0  0  0  0  0  0  0  0  0  0  0  0
    7.8205   71.1330   70.6289 H   0  0  0  0  0  0  0  0  0  0  0  0
    8.7511   70.8311   68.3338 H   0  0  0  0  0  0  0  0  0  0  0  0
    7.2378   70.2427   66.4428 H   0  0  0  0  0  0  0  0  0  0  0  0
    4.6632   68.0409   65.2240 H   0  0  0  0  0  0  0  0  0  0  0  0
    4.3875   70.2669   63.4524 H   0  0  0  0  0  0  0  0  0  0  0  0
    5.7569   69.1183   63.5737 H   0  0  0  0  0  0  0  0  0  0  0  0
    4.7809   69.1640   61.3192 H   0  0  0  0  0  0  0  0  0  0  0  0
    4.4658   66.7699   60.9710 H   0  0  0  0  0  0  0  0  0  0  0  0
    5.8513   67.1246   62.0433 H   0  0  0  0  0  0  0  0  0  0  0  0
    3.5315   65.5411   62.6308 H   0  0  0  0  0  0  0  0  0  0  0  0
    4.8620   66.0123   63.7544 H   0  0  0  0  0  0  0  0  0  0  0  0
    2.5887   66.6987   64.6352 H   0  0  0  0  0  0  0  0  0  0  0  0
    1.5705   67.0478   62.3480 H   0  0  0  0  0  0  0  0  0  0  0  0
    1.3763   68.4917   63.4118 H   0  0  0  0  0  0  0  0  0  0  0  0
    2.5604   68.3838   60.8088 H   0  0  0  0  0  0  0  0  0  0  0  0
    2.4874   69.7838   61.9175 H   0  0  0  0  0  0  0  0  0  0  0  0
  2  1  2  0
  3  2  1  0
  4  3  1  0
  5  4  2  0
  6  5  1  0
  7  6  2  0
  8  7  1  0
  9  4  1  0
  9  8  2  0
 10  2  1  0
 11 10  1  0
 12 11  1  0
 13 12  1  0
 14 13  1  0
 15 14  1  0
 16 15  1  0
 16 11  1  0
 17 16  1  0
 18 17  1  0
 18 13  1  0
  3 19  1  0
  5 20  1  0
  6 21  1  0
  7 22  1  0
  8 23  1  0
  9 24  1  0
 11 25  1  1
 12 26  1  0
 12 27  1  0
 13 28  1  6
 14 29  1  0
 14 30  1  0
 15 31  1  0
 15 32  1  0
 16 33  1  1
 17 34  1  0
 17 35  1  0
 18 36  1  0
 18 37  1  0
M  CHG  1  13   1
M  END
>  <score>  (4) 
-7.966

$$$$
=
     RDKit          3D

 37 39  0  0  0  0  0  0  0  0999 V2000
    0.0690   66.0850   71.0500 O   0  0  0  0  0  0  0  0  0  0  0  0
    0.7160   65.5800   70.1460 C   0  0  0  0  0  0  0  0  0  0  0  0
    1.1410   64.2950   70.0030 N   0  0  0  0  0  0  0  0  0  0  0  0
    0.9430   63.2150   70.8810 C   0  0  0  0  0  0  0  0  0  0  0  0
   -0.1920   63.0570   71.6780 C   0  0  0  0  0  0  0  0  0  0  0  0
   -0.3130   61.9500   72.5250 C   0  0  0  0  0  0  0  0  0  0  0  0
    0.6980   60.9940   72.5810 C   0  0  0  0  0  0  0  0  0  0  0  0
    1.8340   61.1430   71.7910 C   0  0  0  0  0  0  0  0  0  0  0  0
    1.9560   62.2480   70.9450 C   0  0  0  0  0  0  0  0  0  0  0  0
    1.1070   66.2980   69.0500 O   0  0  0  0  0  0  0  0  0  0  0  0
    0.1880   67.3380   68.6630 C   0  0  2  0  0  0  0  0  0  0  0  0
   -0.8820   66.8290   67.6650 C   0  0  0  0  0  0  0  0  0  0  0  0
   -0.7070   67.5650   66.3380 N   0  0  1  0  0  4  0  0  0  0  0  0
   -0.9580   69.0470   66.5180 C   0  0  0  0  0  0  0  0  0  0  0  0
    0.0350   69.5800   67.5550 C   0  0  0  0  0  0  0  0  0  0  0  0
    1.0050   68.4690   67.9940 C   0  0  2  0  0  0  0  0  0  0  0  0
    1.7020   67.9200   66.7330 C   0  0  0  0  0  0  0  0  0  0  0  0
    0.6750   67.3130   65.7750 C   0  0  0  0  0  0  0  0  0  0  0  0
    1.6734   64.0883   69.1458 H   0  0  0  0  0  0  0  0  0  0  0  0
   -0.9958   63.8070   71.6399 H   0  0  0  0  0  0  0  0  0  0  0  0
   -1.2110   61.8343   73.1497 H   0  0  0  0  0  0  0  0  0  0  0  0
    0.5991   60.1243   73.2472 H   0  0  0  0  0  0  0  0  0  0  0  0
    2.6356   60.3909   71.8327 H   0  0  0  0  0  0  0  0  0  0  0  0
    2.8561   62.3605   70.3227 H   0  0  0  0  0  0  0  0  0  0  0  0
   -0.3398   67.6928   69.5605 H   0  0  0  0  0  0  0  0  0  0  0  0
   -0.7559   65.7477   67.5075 H   0  0  0  0  0  0  0  0  0  0  0  0
   -1.8882   67.0179   68.0673 H   0  0  0  0  0  0  0  0  0  0  0  0
   -1.3984   67.2038   65.6654 H   0  0  0  0  0  0  0  0  0  0  0  0
   -0.8115   69.5681   65.5604 H   0  0  0  0  0  0  0  0  0  0  0  0
   -1.9900   69.2182   66.8582 H   0  0  0  0  0  0  0  0  0  0  0  0
    0.6091   70.4082   67.1140 H   0  0  0  0  0  0  0  0  0  0  0  0
   -0.5241   69.9318   68.4346 H   0  0  0  0  0  0  0  0  0  0  0  0
    1.7519   68.8550   68.7033 H   0  0  0  0  0  0  0  0  0  0  0  0
    2.2303   68.7403   66.2251 H   0  0  0  0  0  0  0  0  0  0  0  0
    2.4152   67.1379   67.0325 H   0  0  0  0  0  0  0  0  0  0  0  0
    0.7652   67.7847   64.7854 H   0  0  0  0  0  0  0  0  0  0  0  0
    0.8493   66.2322   65.6677 H   0  0  0  0  0  0  0  0  0  0  0  0
  2  1  2  0
  3  2  1  0
  4  3  1  0
  5  4  2  0
  6  5  1  0
  7  6  2  0
  8  7  1  0
  9  4  1  0
  9  8  2  0
 10  2  1  0
 11 10  1  0
 12 11  1  0
 13 12  1  0
 14 13  1  0
 15 14  1  0
 16 15  1  0
 16 11  1  0
 17 16  1  0
 18 17  1  0
 18 13  1  0
  3 19  1  0
  5 20  1  0
  6 21  1  0
  7 22  1  0
  8 23  1  0
  9 24  1  0
 11 25  1  1
 12 26  1  0
 12 27  1  0
 13 28  1  6
 14 29  1  0
 14 30  1  0
 15 31  1  0
 15 32  1  0
 16 33  1  1
 17 34  1  0
 17 35  1  0
 18 36  1  0
 18 37  1  0
M  CHG  1  13   1
M  END
>  <score>  (5) 
-7.869

$$$$
=
     RDKit          3D

 37 39  0  0  0  0  0  0  0  0999 V2000
    2.7720   68.5120   66.2750 O   0  0  0  0  0  0  0  0  0  0  0  0
    2.4190   69.0610   67.3070 C   0  0  0  0  0  0  0  0  0  0  0  0
    3.1460   69.8220   68.1710 N   0  0  0  0  0  0  0  0  0  0  0  0
    4.5080   70.1620   68.0910 C   0  0  0  0  0  0  0  0  0  0  0  0
    5.2620   70.0840   66.9190 C   0  0  0  0  0  0  0  0  0  0  0  0
    6.6150   70.4430   66.9230 C   0  0  0  0  0  0  0  0  0  0  0  0
    7.2220   70.8820   68.0970 C   0  0  0  0  0  0  0  0  0  0  0  0
    6.4780   70.9620   69.2710 C   0  0  0  0  0  0  0  0  0  0  0  0
    5.1280   70.6030   69.2680 C   0  0  0  0  0  0  0  0  0  0  0  0
    1.1280   69.0030   67.7500 O   0  0  0  0  0  0  0  0  0  0  0  0
    0.1470   69.4120   66.7780 C   0  0  2  0  0  0  0  0  0  0  0  0
   -1.1900   69.8300   67.4390 C   0  0  0  0  0  0  0  0  0  0  0  0
   -2.2850   68.8650   66.9880 N   0  0  1  0  0  4  0  0  0  0  0  0
   -2.4950   68.9650   65.4920 C   0  0  0  0  0  0  0  0  0  0  0  0
   -1.1730   68.6290   64.7970 C   0  0  0  0  0  0  0  0  0  0  0  0
   -0.1100   68.2160   65.8310 C   0  0  2  0  0  0  0  0  0  0  0  0
   -0.6720   67.0310   66.6430 C   0  0  0  0  0  0  0  0  0  0  0  0
   -1.9380   67.4490   67.3930 C   0  0  0  0  0  0  0  0  0  0  0  0
    2.6349   70.1948   68.9838 H   0  0  0  0  0  0  0  0  0  0  0  0
    4.7905   69.7386   65.9872 H   0  0  0  0  0  0  0  0  0  0  0  0
    7.2014   70.3781   65.9946 H   0  0  0  0  0  0  0  0  0  0  0  0
    8.2851   71.1644   68.0967 H   0  0  0  0  0  0  0  0  0  0  0  0
    6.9531   71.3079   70.2008 H   0  0  0  0  0  0  0  0  0  0  0  0
    4.5456   70.6671   70.1990 H   0  0  0  0  0  0  0  0  0  0  0  0
    0.5338   70.2865   66.2343 H   0  0  0  0  0  0  0  0  0  0  0  0
   -1.0897   69.7898   68.5337 H   0  0  0  0  0  0  0  0  0  0  0  0
   -1.4499   70.8562   67.1401 H   0  0  0  0  0  0  0  0  0  0  0  0
   -3.1668   69.1250   67.4524 H   0  0  0  0  0  0  0  0  0  0  0  0
   -3.2721   68.2530   65.1772 H   0  0  0  0  0  0  0  0  0  0  0  0
   -2.8173   69.9814   65.2219 H   0  0  0  0  0  0  0  0  0  0  0  0
   -1.3348   67.7994   64.0930 H   0  0  0  0  0  0  0  0  0  0  0  0
   -0.8179   69.5198   64.2582 H   0  0  0  0  0  0  0  0  0  0  0  0
    0.8297   67.9272   65.3374 H   0  0  0  0  0  0  0  0  0  0  0  0
   -0.9130   66.2046   65.9582 H   0  0  0  0  0  0  0  0  0  0  0  0
    0.0848   66.7091   67.3735 H   0  0  0  0  0  0  0  0  0  0  0  0
   -2.7657   66.7737   67.1306 H   0  0  0  0  0  0  0  0  0  0  0  0
   -1.7700   67.3960   68.4788 H   0  0  0  0  0  0  0  0  0  0  0  0
  2  1  2  0
  3  2  1  0
  4  3  1  0
  5  4  2  0
  6  5  1  0
  7  6  2  0
  8  7  1  0
  9  4  1  0
  9  8  2  0
 10  2  1  0
 11 10  1  0
 12 11  1  0
 13 12  1  0
 14 13  1  0
 15 14  1  0
 16 15  1  0
 16 11  1  0
 17 16  1  0
 18 17  1  0
 18 13  1  0
  3 19  1  0
  5 20  1  0
  6 21  1  0
  7 22  1  0
  8 23  1  0
  9 24  1  0
 11 25  1  6
 12 26  1  0
 12 27  1  0
 13 28  1  1
 14 29  1  0
 14 30  1  0
 15 31  1  0
 15 32  1  0
 16 33  1  6
 17 34  1  0
 17 35  1  0
 18 36  1  0
 18 37  1  0
M  CHG  1  13   1
M  END
>  <score>  (6) 
-7.435

$$$$
=
     RDKit          3D

 37 39  0  0  0  0  0  0  0  0999 V2000
    2.4880   65.9890   65.2720 O   0  0  0  0  0  0  0  0  0  0  0  0
    2.1710   67.0880   65.6970 C   0  0  0  0  0  0  0  0  0  0  0  0
    2.5690   68.3220   65.2800 N   0  0  0  0  0  0  0  0  0  0  0  0
    3.4670   68.6380   64.2450 C   0  0  0  0  0  0  0  0  0  0  0  0
    4.7690   69.0960   64.4570 C   0  0  0  0  0  0  0  0  0  0  0  0
    5.6020   69.3860   63.3710 C   0  0  0  0  0  0  0  0  0  0  0  0
    5.1410   69.2220   62.0680 C   0  0  0  0  0  0  0  0  0  0  0  0
    3.8440   68.7670   61.8460 C   0  0  0  0  0  0  0  0  0  0  0  0
    3.0110   68.4760   62.9300 C   0  0  0  0  0  0  0  0  0  0  0  0
    1.2720   67.2370   66.7160 O   0  0  0  0  0  0  0  0  0  0  0  0
   -0.1070   67.1460   66.3090 C   0  0  2  0  0  0  0  0  0  0  0  0
   -0.4710   68.2070   65.2420 C   0  0  0  0  0  0  0  0  0  0  0  0
   -1.5170   69.1550   65.8270 N   0  0  1  0  0  4  0  0  0  0  0  0
   -2.7940   68.4050   66.1400 C   0  0  0  0  0  0  0  0  0  0  0  0
   -2.4650   67.2950   67.1420 C   0  0  0  0  0  0  0  0  0  0  0  0
   -0.9870   67.3680   67.5620 C   0  0  2  0  0  0  0  0  0  0  0  0
   -0.7230   68.7770   68.1310 C   0  0  0  0  0  0  0  0  0  0  0  0
   -0.9730   69.8410   67.0610 C   0  0  0  0  0  0  0  0  0  0  0  0
    2.1621   69.1223   65.7849 H   0  0  0  0  0  0  0  0  0  0  0  0
    5.1417   69.2295   65.4833 H   0  0  0  0  0  0  0  0  0  0  0  0
    6.6265   69.7454   63.5478 H   0  0  0  0  0  0  0  0  0  0  0  0
    5.7989   69.4510   61.2167 H   0  0  0  0  0  0  0  0  0  0  0  0
    3.4750   68.6366   60.8180 H   0  0  0  0  0  0  0  0  0  0  0  0
    1.9874   68.1163   62.7490 H   0  0  0  0  0  0  0  0  0  0  0  0
   -0.2772   66.1557   65.8614 H   0  0  0  0  0  0  0  0  0  0  0  0
    0.4287   68.7754   64.9639 H   0  0  0  0  0  0  0  0  0  0  0  0
   -0.8742   67.7127   64.3458 H   0  0  0  0  0  0  0  0  0  0  0  0
   -1.7361   69.8791   65.1280 H   0  0  0  0  0  0  0  0  0  0  0  0
   -3.5325   69.0935   66.5765 H   0  0  0  0  0  0  0  0  0  0  0  0
   -3.2156   67.9732   65.2203 H   0  0  0  0  0  0  0  0  0  0  0  0
   -3.1004   67.4113   68.0324 H   0  0  0  0  0  0  0  0  0  0  0  0
   -2.6518   66.3206   66.6670 H   0  0  0  0  0  0  0  0  0  0  0  0
   -0.7533   66.6034   68.3175 H   0  0  0  0  0  0  0  0  0  0  0  0
   -1.3953   68.9553   68.9832 H   0  0  0  0  0  0  0  0  0  0  0  0
    0.3258   68.8389   68.4568 H   0  0  0  0  0  0  0  0  0  0  0  0
   -1.7034   70.5758   67.4306 H   0  0  0  0  0  0  0  0  0  0  0  0
   -0.0360   70.3650   66.8214 H   0  0  0  0  0  0  0  0  0  0  0  0
  2  1  2  0
  3  2  1  0
  4  3  1  0
  5  4  2  0
  6  5  1  0
  7  6  2  0
  8  7  1  0
  9  4  1  0
  9  8  2  0
 10  2  1  0
 11 10  1  0
 12 11  1  0
 13 12  1  0
 14 13  1  0
 15 14  1  0
 16 15  1  0
 16 11  1  0
 17 16  1  0
 18 17  1  0
 18 13  1  0
  3 19  1  0
  5 20  1  0
  6 21  1  0
  7 22  1  0
  8 23  1  0
  9 24  1  0
 11 25  1  6
 12 26  1  0
 12 27  1  0
 13 28  1  6
 14 29  1  0
 14 30  1  0
 15 31  1  0
 15 32  1  0
 16 33  1  1
 17 34  1  0
 17 35  1  0
 18 36  1  0
 18 37  1  0
M  CHG  1  13   1
M  END
>  <score>  (7) 
-7.339

$$$$
=
     RDKit          3D

 37 39  0  0  0  0  0  0  0  0999 V2000
    3.8350   57.9130   70.3520 O   0  0  0  0  0  0  0  0  0  0  0  0
    3.1040   58.3850   71.2080 C   0  0  0  0  0  0  0  0  0  0  0  0
    2.8300   59.6900   71.4840 N   0  0  0  0  0  0  0  0  0  0  0  0
    3.3380   60.8360   70.8450 C   0  0  0  0  0  0  0  0  0  0  0  0
    2.9560   61.2470   69.5670 C   0  0  0  0  0  0  0  0  0  0  0  0
    3.5070   62.4020   69.0020 C   0  0  0  0  0  0  0  0  0  0  0  0
    4.4420   63.1540   69.7100 C   0  0  0  0  0  0  0  0  0  0  0  0
    4.8290   62.7510   70.9850 C   0  0  0  0  0  0  0  0  0  0  0  0
    4.2800   61.5970   71.5490 C   0  0  0  0  0  0  0  0  0  0  0  0
    2.3800   57.5950   72.0560 O   0  0  0  0  0  0  0  0  0  0  0  0
    1.8620   58.2820   73.2120 C   0  0  2  0  0  0  0  0  0  0  0  0
    2.6300   57.9080   74.5040 C   0  0  0  0  0  0  0  0  0  0  0  0
    1.6690   57.2030   75.4600 N   0  0  1  0  0  4  0  0  0  0  0  0
    0.5560   58.1400   75.8770 C   0  0  0  0  0  0  0  0  0  0  0  0
   -0.1880   58.5940   74.6180 C   0  0  0  0  0  0  0  0  0  0  0  0
    0.3760   57.8850   73.3740 C   0  0  2  0  0  0  0  0  0  0  0  0
    0.2740   56.3640   73.6070 C   0  0  0  0  0  0  0  0  0  0  0  0
    1.1120   55.9500   74.8190 C   0  0  0  0  0  0  0  0  0  0  0  0
    2.1693   59.8591   72.2559 H   0  0  0  0  0  0  0  0  0  0  0  0
    2.2179   60.6596   69.0012 H   0  0  0  0  0  0  0  0  0  0  0  0
    3.2006   62.7180   67.9939 H   0  0  0  0  0  0  0  0  0  0  0  0
    4.8726   64.0624   69.2634 H   0  0  0  0  0  0  0  0  0  0  0  0
    5.5669   63.3411   71.5482 H   0  0  0  0  0  0  0  0  0  0  0  0
    4.5906   61.2826   72.5563 H   0  0  0  0  0  0  0  0  0  0  0  0
    1.9792   59.3651   73.0601 H   0  0  0  0  0  0  0  0  0  0  0  0
    3.4650   57.2360   74.2566 H   0  0  0  0  0  0  0  0  0  0  0  0
    3.0299   58.8165   74.9779 H   0  0  0  0  0  0  0  0  0  0  0  0
    2.1877   56.9267   76.3059 H   0  0  0  0  0  0  0  0  0  0  0  0
   -0.1382   57.6163   76.5506 H   0  0  0  0  0  0  0  0  0  0  0  0
    0.9718   59.0103   76.4058 H   0  0  0  0  0  0  0  0  0  0  0  0
   -1.2557   58.3503   74.7207 H   0  0  0  0  0  0  0  0  0  0  0  0
   -0.0568   59.6796   74.4991 H   0  0  0  0  0  0  0  0  0  0  0  0
   -0.1826   58.1694   72.4701 H   0  0  0  0  0  0  0  0  0  0  0  0
   -0.7776   56.0948   73.7850 H   0  0  0  0  0  0  0  0  0  0  0  0
    0.6538   55.8414   72.7167 H   0  0  0  0  0  0  0  0  0  0  0  0
    0.4811   55.4113   75.5413 H   0  0  0  0  0  0  0  0  0  0  0  0
    1.9320   55.2874   74.5051 H   0  0  0  0  0  0  0  0  0  0  0  0
  2  1  2  0
  3  2  1  0
  4  3  1  0
  5  4  2  0
  6  5  1  0
  7  6  2  0
  8  7  1  0
  9  4  1  0
  9  8  2  0
 10  2  1  0
 11 10  1  0
 12 11  1  0
 13 12  1  0
 14 13  1  0
 15 14  1  0
 16 15  1  0
 16 11  1  0
 17 16  1  0
 18 17  1  0
 18 13  1  0
  3 19  1  0
  5 20  1  0
  6 21  1  0
  7 22  1  0
  8 23  1  0
  9 24  1  0
 11 25  1  6
 12 26  1  0
 12 27  1  0
 13 28  1  1
 14 29  1  0
 14 30  1  0
 15 31  1  0
 15 32  1  0
 16 33  1  6
 17 34  1  0
 17 35  1  0
 18 36  1  0
 18 37  1  0
M  CHG  1  13   1
M  END
>  <score>  (8) 
-7.331

$$$$
=
     RDKit          3D

 37 39  0  0  0  0  0  0  0  0999 V2000
   -0.0420   66.0410   71.4270 O   0  0  0  0  0  0  0  0  0  0  0  0
    0.4250   65.9490   70.3030 C   0  0  0  0  0  0  0  0  0  0  0  0
    1.2870   65.0220   69.8000 N   0  0  0  0  0  0  0  0  0  0  0  0
    1.8670   63.9280   70.4660 C   0  0  0  0  0  0  0  0  0  0  0  0
    3.2430   63.7630   70.6400 C   0  0  0  0  0  0  0  0  0  0  0  0
    3.7400   62.6450   71.3180 C   0  0  0  0  0  0  0  0  0  0  0  0
    2.8690   61.6860   71.8260 C   0  0  0  0  0  0  0  0  0  0  0  0
    1.4960   61.8400   71.6570 C   0  0  0  0  0  0  0  0  0  0  0  0
    0.9980   62.9570   70.9800 C   0  0  0  0  0  0  0  0  0  0  0  0
    0.0920   66.8250   69.3080 O   0  0  0  0  0  0  0  0  0  0  0  0
    1.1970   67.2290   68.4780 C   0  0  2  0  0  0  0  0  0  0  0  0
    1.8880   68.5100   69.0090 C   0  0  0  0  0  0  0  0  0  0  0  0
    1.7170   69.6240   67.9780 N   0  0  1  0  0  4  0  0  0  0  0  0
    2.4190   69.2620   66.6870 C   0  0  0  0  0  0  0  0  0  0  0  0
    1.8150   67.9570   66.1610 C   0  0  0  0  0  0  0  0  0  0  0  0
    0.6490   67.5030   67.0570 C   0  0  2  0  0  0  0  0  0  0  0  0
   -0.3790   68.6510   67.1180 C   0  0  0  0  0  0  0  0  0  0  0  0
    0.2480   69.9000   67.7390 C   0  0  0  0  0  0  0  0  0  0  0  0
    1.5458   65.1366   68.8097 H   0  0  0  0  0  0  0  0  0  0  0  0
    3.9392   64.5159   70.2419 H   0  0  0  0  0  0  0  0  0  0  0  0
    4.8252   62.5232   71.4503 H   0  0  0  0  0  0  0  0  0  0  0  0
    3.2643   60.8090   72.3594 H   0  0  0  0  0  0  0  0  0  0  0  0
    0.8038   61.0838   72.0556 H   0  0  0  0  0  0  0  0  0  0  0  0
   -0.0879   63.0747   70.8495 H   0  0  0  0  0  0  0  0  0  0  0  0
    1.9478   66.4251   68.4770 H   0  0  0  0  0  0  0  0  0  0  0  0
    1.4258   68.8123   69.9603 H   0  0  0  0  0  0  0  0  0  0  0  0
    2.9578   68.3161   69.1762 H   0  0  0  0  0  0  0  0  0  0  0  0
    2.1487   70.4839   68.3455 H   0  0  0  0  0  0  0  0  0  0  0  0
    2.2743   70.0634   65.9476 H   0  0  0  0  0  0  0  0  0  0  0  0
    3.4973   69.1362   66.8643 H   0  0  0  0  0  0  0  0  0  0  0  0
    1.4444   68.1163   65.1377 H   0  0  0  0  0  0  0  0  0  0  0  0
    2.5917   67.1781   66.1661 H   0  0  0  0  0  0  0  0  0  0  0  0
    0.1784   66.5915   66.6599 H   0  0  0  0  0  0  0  0  0  0  0  0
   -0.7201   68.8858   66.0989 H   0  0  0  0  0  0  0  0  0  0  0  0
   -1.2295   68.3339   67.7393 H   0  0  0  0  0  0  0  0  0  0  0  0
    0.1363   70.7528   67.0532 H   0  0  0  0  0  0  0  0  0  0  0  0
   -0.2517   70.1437   68.6881 H   0  0  0  0  0  0  0  0  0  0  0  0
  2  1  2  0
  3  2  1  0
  4  3  1  0
  5  4  2  0
  6  5  1  0
  7  6  2  0
  8  7  1  0
  9  4  1  0
  9  8  2  0
 10  2  1  0
 11 10  1  0
 12 11  1  0
 13 12  1  0
 14 13  1  0
 15 14  1  0
 16 15  1  0
 16 11  1  0
 17 16  1  0
 18 17  1  0
 18 13  1  0
  3 19  1  0
  5 20  1  0
  6 21  1  0
  7 22  1  0
  8 23  1  0
  9 24  1  0
 11 25  1  6
 12 26  1  0
 12 27  1  0
 13 28  1  1
 14 29  1  0
 14 30  1  0
 15 31  1  0
 15 32  1  0
 16 33  1  6
 17 34  1  0
 17 35  1  0
 18 36  1  0
 18 37  1  0
M  CHG  1  13   1
M  END
>  <score>  (9) 
-7.292

$$$$
