=
     RDKit          3D

 51 52  0  0  0  0  0  0  0  0999 V2000
   -1.7880   67.3320   67.3870 C   0  0  0  0  0  0  0  0  0  0  0  0
   -2.4120   68.2180   66.3030 C   0  0  0  0  0  0  0  0  0  0  0  0
   -1.4070   69.0680   65.5240 C   0  0  0  0  0  0  0  0  0  0  0  0
   -1.3640   68.6430   64.1620 O   0  0  0  0  0  0  0  0  0  0  0  0
    2.2630   68.7990   62.0750 C   0  0  0  0  0  0  0  0  0  0  0  0
    2.2060   68.0960   63.2870 C   0  0  0  0  0  0  0  0  0  0  0  0
    1.0140   68.0210   64.0200 C   0  0  0  0  0  0  0  0  0  0  0  0
   -0.1410   68.6460   63.5500 C   0  0  0  0  0  0  0  0  0  0  0  0
   -0.0860   69.3580   62.3510 C   0  0  0  0  0  0  0  0  0  0  0  0
    1.1010   69.4340   61.6150 C   0  0  0  0  0  0  0  0  0  0  0  0
    3.4540   68.9620   59.9920 N   0  0  0  0  0  0  0  0  0  0  0  0
    3.5120   68.8640   61.3020 C   0  0  0  0  0  0  0  0  0  0  0  0
    4.6650   68.8240   61.9350 N   0  0  0  0  0  4  0  0  0  0  0  0
   -0.2950   67.0210   67.2430 C   0  0  0  0  0  0  0  0  0  0  0  0
    0.6000   67.6530   68.3110 C   0  0  0  0  0  0  0  0  0  0  0  0
    0.9080   69.0160   68.0170 O   0  0  0  0  0  0  0  0  0  0  0  0
    2.2000   69.3880   67.7950 C   0  0  0  0  0  0  0  0  0  0  0  0
    2.7900   70.0740   68.8600 C   0  0  0  0  0  0  0  0  0  0  0  0
    4.1130   70.5200   68.7840 C   0  0  0  0  0  0  0  0  0  0  0  0
    4.8750   70.2830   67.6340 C   0  0  0  0  0  0  0  0  0  0  0  0
    4.2810   69.5890   66.5680 C   0  0  0  0  0  0  0  0  0  0  0  0
    2.9530   69.1450   66.6490 C   0  0  0  0  0  0  0  0  0  0  0  0
    6.2650   70.7510   67.5490 C   0  0  0  0  0  0  0  0  0  0  0  0
    6.7900   70.9990   66.3700 N   0  0  0  0  0  4  0  0  0  0  0  0
    6.9600   70.9140   68.6540 N   0  0  0  0  0  0  0  0  0  0  0  0
   -1.9321   67.8362   68.3540 H   0  0  0  0  0  0  0  0  0  0  0  0
   -2.2967   66.3609   67.2963 H   0  0  0  0  0  0  0  0  0  0  0  0
   -2.9389   67.5680   65.5890 H   0  0  0  0  0  0  0  0  0  0  0  0
   -3.0823   68.9205   66.8199 H   0  0  0  0  0  0  0  0  0  0  0  0
   -1.7117   70.1241   65.5671 H   0  0  0  0  0  0  0  0  0  0  0  0
   -0.4092   68.9503   65.9718 H   0  0  0  0  0  0  0  0  0  0  0  0
    3.1092   67.5966   63.6675 H   0  0  0  0  0  0  0  0  0  0  0  0
    0.9891   67.4669   64.9700 H   0  0  0  0  0  0  0  0  0  0  0  0
   -0.9882   69.8662   61.9798 H   0  0  0  0  0  0  0  0  0  0  0  0
    1.1228   69.9955   60.6694 H   0  0  0  0  0  0  0  0  0  0  0  0
    4.3224   69.0083   59.4401 H   0  0  0  0  0  0  0  0  0  0  0  0
    2.5402   68.9925   59.5178 H   0  0  0  0  0  0  0  0  0  0  0  0
    4.6863   68.7470   62.9619 H   0  0  0  0  0  0  0  0  0  0  0  0
    5.5461   68.8697   61.4036 H   0  0  0  0  0  0  0  0  0  0  0  0
   -0.1669   65.9296   67.2918 H   0  0  0  0  0  0  0  0  0  0  0  0
    0.0191   67.4534   66.2815 H   0  0  0  0  0  0  0  0  0  0  0  0
    0.0816   67.6078   69.2801 H   0  0  0  0  0  0  0  0  0  0  0  0
    1.5450   67.0905   68.3367 H   0  0  0  0  0  0  0  0  0  0  0  0
    2.2050   70.2659   69.7715 H   0  0  0  0  0  0  0  0  0  0  0  0
    4.5576   71.0602   69.6328 H   0  0  0  0  0  0  0  0  0  0  0  0
    4.8649   69.3908   65.6571 H   0  0  0  0  0  0  0  0  0  0  0  0
    2.5044   68.6025   65.8037 H   0  0  0  0  0  0  0  0  0  0  0  0
    7.7636   71.3275   66.2986 H   0  0  0  0  0  0  0  0  0  0  0  0
    6.2279   70.8648   65.5174 H   0  0  0  0  0  0  0  0  0  0  0  0
    7.9353   71.2417   68.6054 H   0  0  0  0  0  0  0  0  0  0  0  0
    6.5289   70.7139   69.5678 H   0  0  0  0  0  0  0  0  0  0  0  0
  2  1  1  0
  3  2  1  0
  4  3  1  0
  6  5  2  0
  7  6  1  0
  8  7  2  0
  8  4  1  0
  9  8  1  0
 10  9  2  0
 10  5  1  0
 12 11  1  0
 12  5  1  0
 13 12  2  3
 14  1  1  0
 15 14  1  0
 16 15  1  0
 17 16  1  0
 18 17  2  0
 19 18  1  0
 20 19  2  0
 21 20  1  0
 22 21  2  0
 22 17  1  0
 23 20  1  0
 24 23  2  3
 25 23  1  0
  1 26  1  0
  1 27  1  0
  2 28  1  0
  2 29  1  0
  3 30  1  0
  3 31  1  0
  6 32  1  0
  7 33  1  0
  9 34  1  0
 10 35  1  0
 11 36  1  0
 11 37  1  0
 13 38  1  0
 13 39  1  0
 14 40  1  0
 14 41  1  0
 15 42  1  0
 15 43  1  0
 18 44  1  0
 19 45  1  0
 21 46  1  0
 22 47  1  0
 24 48  1  0
 24 49  1  0
 25 50  1  0
 25 51  1  0
M  CHG  2  13   1  24   1
M  END
>  <score>  (1) 
-9.569

$$$$
=
     RDKit          3D

 51 52  0  0  0  0  0  0  0  0999 V2000
   -1.3100   66.9200   67.2240 C   0  0  0  0  0  0  0  0  0  0  0  0
   -0.5350   67.0230   68.5430 C   0  0  0  0  0  0  0  0  0  0  0  0
    0.9440   67.3760   68.3810 C   0  0  0  0  0  0  0  0  0  0  0  0
    1.0890   68.7830   68.1900 O   0  0  0  0  0  0  0  0  0  0  0  0
    4.9430   70.3070   67.5900 C   0  0  0  0  0  0  0  0  0  0  0  0
    4.3070   69.6330   66.5370 C   0  0  0  0  0  0  0  0  0  0  0  0
    3.0190   69.1050   66.6950 C   0  0  0  0  0  0  0  0  0  0  0  0
    2.3460   69.2440   67.9080 C   0  0  0  0  0  0  0  0  0  0  0  0
    2.9800   69.9020   68.9640 C   0  0  0  0  0  0  0  0  0  0  0  0
    4.2640   70.4340   68.8100 C   0  0  0  0  0  0  0  0  0  0  0  0
    6.9980   71.1850   68.4780 N   0  0  0  0  0  0  0  0  0  0  0  0
    6.2890   70.8730   67.4160 C   0  0  0  0  0  0  0  0  0  0  0  0
    6.7600   71.0550   66.2000 N   0  0  0  0  0  4  0  0  0  0  0  0
   -2.0330   68.1860   66.7540 C   0  0  0  0  0  0  0  0  0  0  0  0
   -1.2140   69.0880   65.8280 C   0  0  0  0  0  0  0  0  0  0  0  0
   -1.3370   68.7050   64.4580 O   0  0  0  0  0  0  0  0  0  0  0  0
   -0.2480   68.7500   63.6400 C   0  0  0  0  0  0  0  0  0  0  0  0
    0.8810   68.1050   64.1540 C   0  0  0  0  0  0  0  0  0  0  0  0
    2.0770   68.0640   63.4320 C   0  0  0  0  0  0  0  0  0  0  0  0
    2.1650   68.6670   62.1720 C   0  0  0  0  0  0  0  0  0  0  0  0
    1.0270   69.3090   61.6560 C   0  0  0  0  0  0  0  0  0  0  0  0
   -0.1700   69.3490   62.3860 C   0  0  0  0  0  0  0  0  0  0  0  0
    3.4200   68.6270   61.4090 C   0  0  0  0  0  0  0  0  0  0  0  0
    4.5160   68.2010   61.9960 N   0  0  0  0  0  4  0  0  0  0  0  0
    3.4250   69.0190   60.1530 N   0  0  0  0  0  0  0  0  0  0  0  0
   -0.5957   66.6323   66.4385 H   0  0  0  0  0  0  0  0  0  0  0  0
   -2.1055   66.1836   67.4111 H   0  0  0  0  0  0  0  0  0  0  0  0
   -1.0086   67.8005   69.1604 H   0  0  0  0  0  0  0  0  0  0  0  0
   -0.5708   66.0261   69.0067 H   0  0  0  0  0  0  0  0  0  0  0  0
    1.4927   67.0720   69.2846 H   0  0  0  0  0  0  0  0  0  0  0  0
    1.3488   66.8478   67.5051 H   0  0  0  0  0  0  0  0  0  0  0  0
    4.8265   69.5175   65.5743 H   0  0  0  0  0  0  0  0  0  0  0  0
    2.5366   68.5785   65.8583 H   0  0  0  0  0  0  0  0  0  0  0  0
    2.4627   70.0031   69.9295 H   0  0  0  0  0  0  0  0  0  0  0  0
    4.7442   70.9553   69.6512 H   0  0  0  0  0  0  0  0  0  0  0  0
    7.9420   71.5821   68.3685 H   0  0  0  0  0  0  0  0  0  0  0  0
    6.6095   71.0324   69.4196 H   0  0  0  0  0  0  0  0  0  0  0  0
    6.1863   70.8031   65.3825 H   0  0  0  0  0  0  0  0  0  0  0  0
    7.7021   71.4493   66.0663 H   0  0  0  0  0  0  0  0  0  0  0  0
   -2.9430   67.8806   66.2168 H   0  0  0  0  0  0  0  0  0  0  0  0
   -2.2398   68.7775   67.6581 H   0  0  0  0  0  0  0  0  0  0  0  0
   -1.5663   70.1241   65.9396 H   0  0  0  0  0  0  0  0  0  0  0  0
   -0.1556   68.9933   66.1123 H   0  0  0  0  0  0  0  0  0  0  0  0
    0.8271   67.6227   65.1412 H   0  0  0  0  0  0  0  0  0  0  0  0
    2.9546   67.5546   63.8567 H   0  0  0  0  0  0  0  0  0  0  0  0
    1.0753   69.7867   60.6663 H   0  0  0  0  0  0  0  0  0  0  0  0
   -1.0510   69.8560   61.9656 H   0  0  0  0  0  0  0  0  0  0  0  0
    5.4018   68.1684   61.4714 H   0  0  0  0  0  0  0  0  0  0  0  0
    4.4891   67.8997   62.9806 H   0  0  0  0  0  0  0  0  0  0  0  0
    4.2996   68.9948   59.6094 H   0  0  0  0  0  0  0  0  0  0  0  0
    2.5544   69.3500   59.7133 H   0  0  0  0  0  0  0  0  0  0  0  0
  2  1  1  0
  3  2  1  0
  4  3  1  0
  6  5  2  0
  7  6  1  0
  8  7  2  0
  8  4  1  0
  9  8  1  0
 10  9  2  0
 10  5  1  0
 12 11  1  0
 12  5  1  0
 13 12  2  3
 14  1  1  0
 15 14  1  0
 16 15  1  0
 17 16  1  0
 18 17  2  0
 19 18  1  0
 20 19  2  0
 21 20  1  0
 22 21  2  0
 22 17  1  0
 23 20  1  0
 24 23  2  3
 25 23  1  0
  1 26  1  0
  1 27  1  0
  2 28  1  0
  2 29  1  0
  3 30  1  0
  3 31  1  0
  6 32  1  0
  7 33  1  0
  9 34  1  0
 10 35  1  0
 11 36  1  0
 11 37  1  0
 13 38  1  0
 13 39  1  0
 14 40  1  0
 14 41  1  0
 15 42  1  0
 15 43  1  0
 18 44  1  0
 19 45  1  0
 21 46  1  0
 22 47  1  0
 24 48  1  0
 24 49  1  0
 25 50  1  0
 25 51  1  0
M  CHG  2  13   1  24   1
M  END
>  <score>  (2) 
-9.55

$$$$
=
     RDKit          3D

 51 52  0  0  0  0  0  0  0  0999 V2000
    0.9200   66.6060   69.4480 C   0  0  0  0  0  0  0  0  0  0  0  0
    0.4850   65.7650   70.6540 C   0  0  0  0  0  0  0  0  0  0  0  0
    0.5120   64.2550   70.4130 C   0  0  0  0  0  0  0  0  0  0  0  0
    1.7650   63.8760   69.8420 O   0  0  0  0  0  0  0  0  0  0  0  0
    3.0520   60.0630   70.9950 C   0  0  0  0  0  0  0  0  0  0  0  0
    3.4240   60.5530   69.7350 C   0  0  0  0  0  0  0  0  0  0  0  0
    3.0130   61.8230   69.3080 C   0  0  0  0  0  0  0  0  0  0  0  0
    2.2250   62.6220   70.1350 C   0  0  0  0  0  0  0  0  0  0  0  0
    1.8410   62.1330   71.3850 C   0  0  0  0  0  0  0  0  0  0  0  0
    2.2510   60.8680   71.8170 C   0  0  0  0  0  0  0  0  0  0  0  0
    3.9510   58.5910   72.6710 N   0  0  0  0  0  0  0  0  0  0  0  0
    3.4970   58.7360   71.4460 C   0  0  0  0  0  0  0  0  0  0  0  0
    3.4320   57.7170   70.6150 N   0  0  0  0  0  4  0  0  0  0  0  0
   -0.1700   66.9640   68.4330 C   0  0  0  0  0  0  0  0  0  0  0  0
    0.2540   67.9740   67.3640 C   0  0  0  0  0  0  0  0  0  0  0  0
    0.8350   69.1480   67.9320 O   0  0  0  0  0  0  0  0  0  0  0  0
    2.1390   69.4500   67.6800 C   0  0  0  0  0  0  0  0  0  0  0  0
    2.7820   70.1260   68.7210 C   0  0  0  0  0  0  0  0  0  0  0  0
    4.1230   70.5050   68.6130 C   0  0  0  0  0  0  0  0  0  0  0  0
    4.8510   70.2080   67.4560 C   0  0  0  0  0  0  0  0  0  0  0  0
    4.2040   69.5250   66.4140 C   0  0  0  0  0  0  0  0  0  0  0  0
    2.8580   69.1490   66.5260 C   0  0  0  0  0  0  0  0  0  0  0  0
    6.2610   70.6050   67.3370 C   0  0  0  0  0  0  0  0  0  0  0  0
    6.7510   70.8950   66.1520 N   0  0  0  0  0  4  0  0  0  0  0  0
    7.0090   70.6630   68.4180 N   0  0  0  0  0  0  0  0  0  0  0  0
    1.3409   67.5471   69.8317 H   0  0  0  0  0  0  0  0  0  0  0  0
    1.6338   65.9759   68.8971 H   0  0  0  0  0  0  0  0  0  0  0  0
    1.1594   65.9917   71.4929 H   0  0  0  0  0  0  0  0  0  0  0  0
   -0.5618   66.0314   70.8617 H   0  0  0  0  0  0  0  0  0  0  0  0
    0.3737   63.7304   71.3699 H   0  0  0  0  0  0  0  0  0  0  0  0
   -0.2983   63.9844   69.7200 H   0  0  0  0  0  0  0  0  0  0  0  0
    4.0463   59.9327   69.0732 H   0  0  0  0  0  0  0  0  0  0  0  0
    3.3135   62.1909   68.3159 H   0  0  0  0  0  0  0  0  0  0  0  0
    1.2077   62.7509   72.0385 H   0  0  0  0  0  0  0  0  0  0  0  0
    1.9432   60.5023   72.8077 H   0  0  0  0  0  0  0  0  0  0  0  0
    4.2654   57.6661   72.9976 H   0  0  0  0  0  0  0  0  0  0  0  0
    3.9924   59.4022   73.3043 H   0  0  0  0  0  0  0  0  0  0  0  0
    3.0727   57.8538   69.6594 H   0  0  0  0  0  0  0  0  0  0  0  0
    3.7404   56.7829   70.9204 H   0  0  0  0  0  0  0  0  0  0  0  0
   -0.4817   66.0393   67.9254 H   0  0  0  0  0  0  0  0  0  0  0  0
   -0.9803   67.4403   69.0044 H   0  0  0  0  0  0  0  0  0  0  0  0
    0.9917   67.4990   66.7005 H   0  0  0  0  0  0  0  0  0  0  0  0
   -0.6464   68.2770   66.8094 H   0  0  0  0  0  0  0  0  0  0  0  0
    2.2242   70.3632   69.6389 H   0  0  0  0  0  0  0  0  0  0  0  0
    4.6087   71.0398   69.4425 H   0  0  0  0  0  0  0  0  0  0  0  0
    4.7607   69.2815   65.4971 H   0  0  0  0  0  0  0  0  0  0  0  0
    2.3680   68.6141   65.6991 H   0  0  0  0  0  0  0  0  0  0  0  0
    7.7378   71.1744   66.0571 H   0  0  0  0  0  0  0  0  0  0  0  0
    6.1481   70.8428   65.3185 H   0  0  0  0  0  0  0  0  0  0  0  0
    7.9984   70.9401   68.3454 H   0  0  0  0  0  0  0  0  0  0  0  0
    6.6051   70.4313   69.3368 H   0  0  0  0  0  0  0  0  0  0  0  0
  2  1  1  0
  3  2  1  0
  4  3  1  0
  6  5  2  0
  7  6  1  0
  8  7  2  0
  8  4  1  0
  9  8  1  0
 10  9  2  0
 10  5  1  0
 12 11  1  0
 12  5  1  0
 13 12  2  3
 14  1  1  0
 15 14  1  0
 16 15  1  0
 17 16  1  0
 18 17  2  0
 19 18  1  0
 20 19  2  0
 21 20  1  0
 22 21  2  0
 22 17  1  0
 23 20  1  0
 24 23  2  3
 25 23  1  0
  1 26  1  0
  1 27  1  0
  2 28  1  0
  2 29  1  0
  3 30  1  0
  3 31  1  0
  6 32  1  0
  7 33  1  0
  9 34  1  0
 10 35  1  0
 11 36  1  0
 11 37  1  0
 13 38  1  0
 13 39  1  0
 14 40  1  0
 14 41  1  0
 15 42  1  0
 15 43  1  0
 18 44  1  0
 19 45  1  0
 21 46  1  0
 22 47  1  0
 24 48  1  0
 24 49  1  0
 25 50  1  0
 25 51  1  0
M  CHG  2  13   1  24   1
M  END
>  <score>  (3) 
-9.248

$$$$
=
     RDKit          3D

 51 52  0  0  0  0  0  0  0  0999 V2000
    0.9210   66.7240   69.4390 C   0  0  0  0  0  0  0  0  0  0  0  0
   -0.0870   67.1820   68.3780 C   0  0  0  0  0  0  0  0  0  0  0  0
    0.1630   68.5900   67.8360 C   0  0  0  0  0  0  0  0  0  0  0  0
    0.9810   68.5220   66.6670 O   0  0  0  0  0  0  0  0  0  0  0  0
    4.8100   70.1120   67.2510 C   0  0  0  0  0  0  0  0  0  0  0  0
    4.5230   69.4580   66.0440 C   0  0  0  0  0  0  0  0  0  0  0  0
    3.2550   68.9090   65.8080 C   0  0  0  0  0  0  0  0  0  0  0  0
    2.2550   69.0070   66.7750 C   0  0  0  0  0  0  0  0  0  0  0  0
    2.5410   69.6450   67.9830 C   0  0  0  0  0  0  0  0  0  0  0  0
    3.8030   70.1970   68.2220 C   0  0  0  0  0  0  0  0  0  0  0  0
    6.2700   71.6410   68.3970 N   0  0  0  0  0  0  0  0  0  0  0  0
    6.1370   70.7000   67.4890 C   0  0  0  0  0  0  0  0  0  0  0  0
    7.1670   70.2710   66.7900 N   0  0  0  0  0  4  0  0  0  0  0  0
    0.3670   65.8780   70.5900 C   0  0  0  0  0  0  0  0  0  0  0  0
    0.4500   64.3660   70.3740 C   0  0  0  0  0  0  0  0  0  0  0  0
    1.7200   63.9640   69.8590 O   0  0  0  0  0  0  0  0  0  0  0  0
    2.1890   62.7090   70.1080 C   0  0  0  0  0  0  0  0  0  0  0  0
    1.7720   62.1740   71.3290 C   0  0  0  0  0  0  0  0  0  0  0  0
    2.1690   60.8940   71.7280 C   0  0  0  0  0  0  0  0  0  0  0  0
    2.9930   60.1210   70.9030 C   0  0  0  0  0  0  0  0  0  0  0  0
    3.4070   60.6600   69.6740 C   0  0  0  0  0  0  0  0  0  0  0  0
    3.0070   61.9450   69.2810 C   0  0  0  0  0  0  0  0  0  0  0  0
    3.4150   58.7750   71.3180 C   0  0  0  0  0  0  0  0  0  0  0  0
    3.8400   58.5840   72.5470 N   0  0  0  0  0  4  0  0  0  0  0  0
    3.3610   57.7870   70.4510 N   0  0  0  0  0  0  0  0  0  0  0  0
    1.6946   66.1301   68.9303 H   0  0  0  0  0  0  0  0  0  0  0  0
    1.2887   67.6483   69.9086 H   0  0  0  0  0  0  0  0  0  0  0  0
   -0.0442   66.4762   67.5353 H   0  0  0  0  0  0  0  0  0  0  0  0
   -1.0712   67.2044   68.8687 H   0  0  0  0  0  0  0  0  0  0  0  0
   -0.7989   69.0591   67.5815 H   0  0  0  0  0  0  0  0  0  0  0  0
    0.6764   69.1879   68.6034 H   0  0  0  0  0  0  0  0  0  0  0  0
    5.3029   69.3748   65.2727 H   0  0  0  0  0  0  0  0  0  0  0  0
    3.0479   68.3986   64.8558 H   0  0  0  0  0  0  0  0  0  0  0  0
    1.7629   69.7144   68.7574 H   0  0  0  0  0  0  0  0  0  0  0  0
    4.0069   70.7012   69.1782 H   0  0  0  0  0  0  0  0  0  0  0  0
    7.1943   72.0603   68.5726 H   0  0  0  0  0  0  0  0  0  0  0  0
    5.4500   71.9591   68.9330 H   0  0  0  0  0  0  0  0  0  0  0  0
    7.0384   69.5324   66.0837 H   0  0  0  0  0  0  0  0  0  0  0  0
    8.1014   70.6740   66.9495 H   0  0  0  0  0  0  0  0  0  0  0  0
    0.9339   66.1251   71.4997 H   0  0  0  0  0  0  0  0  0  0  0  0
   -0.7031   66.1212   70.6652 H   0  0  0  0  0  0  0  0  0  0  0  0
    0.2819   63.8608   71.3366 H   0  0  0  0  0  0  0  0  0  0  0  0
   -0.3172   64.0874   69.6366 H   0  0  0  0  0  0  0  0  0  0  0  0
    1.1213   62.7688   71.9868 H   0  0  0  0  0  0  0  0  0  0  0  0
    1.8318   60.4929   72.6952 H   0  0  0  0  0  0  0  0  0  0  0  0
    4.0535   60.0662   69.0111 H   0  0  0  0  0  0  0  0  0  0  0  0
    3.3412   62.3510   68.3148 H   0  0  0  0  0  0  0  0  0  0  0  0
    4.1381   57.6454   72.8488 H   0  0  0  0  0  0  0  0  0  0  0  0
    3.8749   59.3729   73.2083 H   0  0  0  0  0  0  0  0  0  0  0  0
    3.6540   56.8400   70.7305 H   0  0  0  0  0  0  0  0  0  0  0  0
    3.0257   57.9605   69.4927 H   0  0  0  0  0  0  0  0  0  0  0  0
  2  1  1  0
  3  2  1  0
  4  3  1  0
  6  5  2  0
  7  6  1  0
  8  7  2  0
  8  4  1  0
  9  8  1  0
 10  9  2  0
 10  5  1  0
 12 11  1  0
 12  5  1  0
 13 12  2  3
 14  1  1  0
 15 14  1  0
 16 15  1  0
 17 16  1  0
 18 17  2  0
 19 18  1  0
 20 19  2  0
 21 20  1  0
 22 21  2  0
 22 17  1  0
 23 20  1  0
 24 23  2  3
 25 23  1  0
  1 26  1  0
  1 27  1  0
  2 28  1  0
  2 29  1  0
  3 30  1  0
  3 31  1  0
  6 32  1  0
  7 33  1  0
  9 34  1  0
 10 35  1  0
 11 36  1  0
 11 37  1  0
 13 38  1  0
 13 39  1  0
 14 40  1  0
 14 41  1  0
 15 42  1  0
 15 43  1  0
 18 44  1  0
 19 45  1  0
 21 46  1  0
 22 47  1  0
 24 48  1  0
 24 49  1  0
 25 50  1  0
 25 51  1  0
M  CHG  2  13   1  24   1
M  END
>  <score>  (4) 
-9.135

$$$$
=
     RDKit          3D

 51 52  0  0  0  0  0  0  0  0999 V2000
    5.9620   70.1470   66.5070 C   0  0  0  0  0  0  0  0  0  0  0  0
    5.4140   69.8250   65.1120 C   0  0  0  0  0  0  0  0  0  0  0  0
    5.7810   68.4340   64.5940 C   0  0  0  0  0  0  0  0  0  0  0  0
    4.6110   67.6200   64.5150 O   0  0  0  0  0  0  0  0  0  0  0  0
    1.2790   69.0780   62.4390 C   0  0  0  0  0  0  0  0  0  0  0  0
    2.4600   68.8160   61.7300 C   0  0  0  0  0  0  0  0  0  0  0  0
    3.6000   68.3300   62.3850 C   0  0  0  0  0  0  0  0  0  0  0  0
    3.5750   68.0970   63.7600 C   0  0  0  0  0  0  0  0  0  0  0  0
    2.4060   68.3690   64.4720 C   0  0  0  0  0  0  0  0  0  0  0  0
    1.2650   68.8510   63.8220 C   0  0  0  0  0  0  0  0  0  0  0  0
   -1.0290   69.7530   62.4270 N   0  0  0  0  0  0  0  0  0  0  0  0
    0.0810   69.5740   61.7460 C   0  0  0  0  0  0  0  0  0  0  0  0
    0.1420   69.8320   60.4570 N   0  0  0  0  0  4  0  0  0  0  0  0
    4.9860   70.0000   67.6790 C   0  0  0  0  0  0  0  0  0  0  0  0
    3.5150   69.8790   67.2780 C   0  0  0  0  0  0  0  0  0  0  0  0
    2.7140   69.3370   68.3280 O   0  0  0  0  0  0  0  0  0  0  0  0
    1.4790   68.8310   68.0500 C   0  0  0  0  0  0  0  0  0  0  0  0
    0.5710   69.7730   67.5590 C   0  0  0  0  0  0  0  0  0  0  0  0
   -0.7360   69.4070   67.2260 C   0  0  0  0  0  0  0  0  0  0  0  0
   -1.1600   68.0820   67.3750 C   0  0  0  0  0  0  0  0  0  0  0  0
   -0.2430   67.1370   67.8640 C   0  0  0  0  0  0  0  0  0  0  0  0
    1.0660   67.5100   68.1990 C   0  0  0  0  0  0  0  0  0  0  0  0
   -2.5340   67.6920   67.0280 C   0  0  0  0  0  0  0  0  0  0  0  0
   -3.3370   68.5800   66.4880 N   0  0  0  0  0  4  0  0  0  0  0  0
   -2.9350   66.4620   67.2660 N   0  0  0  0  0  0  0  0  0  0  0  0
    6.8123   69.4749   66.6947 H   0  0  0  0  0  0  0  0  0  0  0  0
    6.2201   71.2159   66.4772 H   0  0  0  0  0  0  0  0  0  0  0  0
    4.3172   69.9004   65.1476 H   0  0  0  0  0  0  0  0  0  0  0  0
    5.8717   70.5479   64.4207 H   0  0  0  0  0  0  0  0  0  0  0  0
    6.2306   68.5242   63.5942 H   0  0  0  0  0  0  0  0  0  0  0  0
    6.4996   67.9686   65.2846 H   0  0  0  0  0  0  0  0  0  0  0  0
    2.4923   68.9943   60.6450 H   0  0  0  0  0  0  0  0  0  0  0  0
    4.5180   68.1316   61.8124 H   0  0  0  0  0  0  0  0  0  0  0  0
    2.3815   68.2021   65.5590 H   0  0  0  0  0  0  0  0  0  0  0  0
    0.3511   69.0531   64.3999 H   0  0  0  0  0  0  0  0  0  0  0  0
   -1.8744   70.1001   61.9519 H   0  0  0  0  0  0  0  0  0  0  0  0
   -1.0534   69.5462   63.4357 H   0  0  0  0  0  0  0  0  0  0  0  0
    1.0225   69.6843   59.9433 H   0  0  0  0  0  0  0  0  0  0  0  0
   -0.6907   70.1816   59.9618 H   0  0  0  0  0  0  0  0  0  0  0  0
    5.2622   69.0969   68.2430 H   0  0  0  0  0  0  0  0  0  0  0  0
    5.0706   70.9239   68.2699 H   0  0  0  0  0  0  0  0  0  0  0  0
    3.1341   70.8786   67.0214 H   0  0  0  0  0  0  0  0  0  0  0  0
    3.4538   69.1953   66.4185 H   0  0  0  0  0  0  0  0  0  0  0  0
    0.8898   70.8182   67.4327 H   0  0  0  0  0  0  0  0  0  0  0  0
   -1.4356   70.1652   66.8444 H   0  0  0  0  0  0  0  0  0  0  0  0
   -0.5565   66.0897   67.9857 H   0  0  0  0  0  0  0  0  0  0  0  0
    1.7697   66.7558   68.5812 H   0  0  0  0  0  0  0  0  0  0  0  0
   -4.3020   68.3185   66.2405 H   0  0  0  0  0  0  0  0  0  0  0  0
   -3.0017   69.5379   66.3120 H   0  0  0  0  0  0  0  0  0  0  0  0
   -3.8958   66.1782   67.0267 H   0  0  0  0  0  0  0  0  0  0  0  0
   -2.2882   65.7827   67.6916 H   0  0  0  0  0  0  0  0  0  0  0  0
  2  1  1  0
  3  2  1  0
  4  3  1  0
  6  5  2  0
  7  6  1  0
  8  7  2  0
  8  4  1  0
  9  8  1  0
 10  9  2  0
 10  5  1  0
 12 11  1  0
 12  5  1  0
 13 12  2  3
 14  1  1  0
 15 14  1  0
 16 15  1  0
 17 16  1  0
 18 17  2  0
 19 18  1  0
 20 19  2  0
 21 20  1  0
 22 21  2  0
 22 17  1  0
 23 20  1  0
 24 23  2  3
 25 23  1  0
  1 26  1  0
  1 27  1  0
  2 28  1  0
  2 29  1  0
  3 30  1  0
  3 31  1  0
  6 32  1  0
  7 33  1  0
  9 34  1  0
 10 35  1  0
 11 36  1  0
 11 37  1  0
 13 38  1  0
 13 39  1  0
 14 40  1  0
 14 41  1  0
 15 42  1  0
 15 43  1  0
 18 44  1  0
 19 45  1  0
 21 46  1  0
 22 47  1  0
 24 48  1  0
 24 49  1  0
 25 50  1  0
 25 51  1  0
M  CHG  2  13   1  24   1
M  END
>  <score>  (5) 
-8.995

$$$$
=
     RDKit          3D

 51 52  0  0  0  0  0  0  0  0999 V2000
    1.1280   66.9140   69.1830 C   0  0  0  0  0  0  0  0  0  0  0  0
    0.3340   67.4140   67.9700 C   0  0  0  0  0  0  0  0  0  0  0  0
    0.6480   68.8530   67.5590 C   0  0  0  0  0  0  0  0  0  0  0  0
    2.0570   69.0150   67.3960 O   0  0  0  0  0  0  0  0  0  0  0  0
    3.8040   68.8960   63.5930 C   0  0  0  0  0  0  0  0  0  0  0  0
    2.4380   68.6080   63.7220 C   0  0  0  0  0  0  0  0  0  0  0  0
    1.8130   68.6340   64.9760 C   0  0  0  0  0  0  0  0  0  0  0  0
    2.5450   68.9490   66.1200 C   0  0  0  0  0  0  0  0  0  0  0  0
    3.9090   69.2230   65.9980 C   0  0  0  0  0  0  0  0  0  0  0  0
    4.5360   69.2020   64.7490 C   0  0  0  0  0  0  0  0  0  0  0  0
    5.7660   68.8590   62.2020 N   0  0  0  0  0  0  0  0  0  0  0  0
    4.4530   68.8820   62.2740 C   0  0  0  0  0  0  0  0  0  0  0  0
    3.7080   68.8910   61.1880 N   0  0  0  0  0  4  0  0  0  0  0  0
    0.3380   66.1560   70.2540 C   0  0  0  0  0  0  0  0  0  0  0  0
    1.0650   64.9540   70.8590 C   0  0  0  0  0  0  0  0  0  0  0  0
    1.9450   64.3310   69.9240 O   0  0  0  0  0  0  0  0  0  0  0  0
    2.3460   63.0430   70.1210 C   0  0  0  0  0  0  0  0  0  0  0  0
    2.1550   62.5780   71.4250 C   0  0  0  0  0  0  0  0  0  0  0  0
    2.5160   61.2760   71.7850 C   0  0  0  0  0  0  0  0  0  0  0  0
    3.0750   60.4100   70.8380 C   0  0  0  0  0  0  0  0  0  0  0  0
    3.2610   60.8790   69.5280 C   0  0  0  0  0  0  0  0  0  0  0  0
    2.8990   62.1870   69.1730 C   0  0  0  0  0  0  0  0  0  0  0  0
    3.4580   59.0410   71.2110 C   0  0  0  0  0  0  0  0  0  0  0  0
    3.4340   58.0950   70.2990 N   0  0  0  0  0  4  0  0  0  0  0  0
    3.8160   58.7870   72.4520 N   0  0  0  0  0  0  0  0  0  0  0  0
    1.9166   66.2427   68.8122 H   0  0  0  0  0  0  0  0  0  0  0  0
    1.4970   67.8219   69.6826 H   0  0  0  0  0  0  0  0  0  0  0  0
    0.5578   66.7561   67.1173 H   0  0  0  0  0  0  0  0  0  0  0  0
   -0.7270   67.3947   68.2597 H   0  0  0  0  0  0  0  0  0  0  0  0
    0.1424   69.0795   66.6087 H   0  0  0  0  0  0  0  0  0  0  0  0
    0.2926   69.5391   68.3419 H   0  0  0  0  0  0  0  0  0  0  0  0
    1.8491   68.3583   62.8271 H   0  0  0  0  0  0  0  0  0  0  0  0
    0.7403   68.4049   65.0581 H   0  0  0  0  0  0  0  0  0  0  0  0
    4.4977   69.4585   66.8969 H   0  0  0  0  0  0  0  0  0  0  0  0
    5.6101   69.4269   64.6725 H   0  0  0  0  0  0  0  0  0  0  0  0
    6.2313   68.8490   61.2831 H   0  0  0  0  0  0  0  0  0  0  0  0
    6.3290   68.8510   63.0645 H   0  0  0  0  0  0  0  0  0  0  0  0
    2.6813   68.9091   61.2679 H   0  0  0  0  0  0  0  0  0  0  0  0
    4.1521   68.8800   60.2587 H   0  0  0  0  0  0  0  0  0  0  0  0
    0.1036   66.8586   71.0673 H   0  0  0  0  0  0  0  0  0  0  0  0
   -0.5562   65.7563   69.7533 H   0  0  0  0  0  0  0  0  0  0  0  0
    1.6513   65.2937   71.7255 H   0  0  0  0  0  0  0  0  0  0  0  0
    0.3068   64.2139   71.1547 H   0  0  0  0  0  0  0  0  0  0  0  0
    1.7141   63.2462   72.1794 H   0  0  0  0  0  0  0  0  0  0  0  0
    2.3599   60.9305   72.8176 H   0  0  0  0  0  0  0  0  0  0  0  0
    3.6965   60.2118   68.7696 H   0  0  0  0  0  0  0  0  0  0  0  0
    3.0527   62.5374   68.1417 H   0  0  0  0  0  0  0  0  0  0  0  0
    3.7003   57.1319   70.5488 H   0  0  0  0  0  0  0  0  0  0  0  0
    3.1489   58.3167   69.3344 H   0  0  0  0  0  0  0  0  0  0  0  0
    4.0864   57.8313   72.7247 H   0  0  0  0  0  0  0  0  0  0  0  0
    3.8257   59.5440   73.1504 H   0  0  0  0  0  0  0  0  0  0  0  0
  2  1  1  0
  3  2  1  0
  4  3  1  0
  6  5  2  0
  7  6  1  0
  8  7  2  0
  8  4  1  0
  9  8  1  0
 10  9  2  0
 10  5  1  0
 12 11  1  0
 12  5  1  0
 13 12  2  3
 14  1  1  0
 15 14  1  0
 16 15  1  0
 17 16  1  0
 18 17  2  0
 19 18  1  0
 20 19  2  0
 21 20  1  0
 22 21  2  0
 22 17  1  0
 23 20  1  0
 24 23  2  3
 25 23  1  0
  1 26  1  0
  1 27  1  0
  2 28  1  0
  2 29  1  0
  3 30  1  0
  3 31  1  0
  6 32  1  0
  7 33  1  0
  9 34  1  0
 10 35  1  0
 11 36  1  0
 11 37  1  0
 13 38  1  0
 13 39  1  0
 14 40  1  0
 14 41  1  0
 15 42  1  0
 15 43  1  0
 18 44  1  0
 19 45  1  0
 21 46  1  0
 22 47  1  0
 24 48  1  0
 24 49  1  0
 25 50  1  0
 25 51  1  0
M  CHG  2  13   1  24   1
M  END
>  <score>  (6) 
-8.966

$$$$
=
     RDKit          3D

 51 52  0  0  0  0  0  0  0  0999 V2000
    0.9050   69.0730   62.2350 C   0  0  0  0  0  0  0  0  0  0  0  0
    2.3930   68.8810   61.9230 C   0  0  0  0  0  0  0  0  0  0  0  0
    3.1810   68.1610   63.0180 C   0  0  0  0  0  0  0  0  0  0  0  0
    4.3920   68.8670   63.2890 O   0  0  0  0  0  0  0  0  0  0  0  0
    4.7250   70.0830   67.2810 C   0  0  0  0  0  0  0  0  0  0  0  0
    5.8230   70.2520   66.4260 C   0  0  0  0  0  0  0  0  0  0  0  0
    5.7560   69.8570   65.0830 C   0  0  0  0  0  0  0  0  0  0  0  0
    4.5890   69.2870   64.5750 C   0  0  0  0  0  0  0  0  0  0  0  0
    3.4980   69.1040   65.4260 C   0  0  0  0  0  0  0  0  0  0  0  0
    3.5590   69.5000   66.7660 C   0  0  0  0  0  0  0  0  0  0  0  0
    3.6910   70.5530   69.4020 N   0  0  0  0  0  0  0  0  0  0  0  0
    4.7930   70.5120   68.6860 C   0  0  0  0  0  0  0  0  0  0  0  0
    5.9570   70.8460   69.2020 N   0  0  0  0  0  4  0  0  0  0  0  0
    0.3440   68.2750   63.4160 C   0  0  0  0  0  0  0  0  0  0  0  0
   -0.0850   69.1190   64.6180 C   0  0  0  0  0  0  0  0  0  0  0  0
   -1.1360   68.5030   65.3620 O   0  0  0  0  0  0  0  0  0  0  0  0
   -0.8580   67.8790   66.5410 C   0  0  0  0  0  0  0  0  0  0  0  0
    0.4640   68.0280   66.9710 C   0  0  0  0  0  0  0  0  0  0  0  0
    0.9030   67.4460   68.1630 C   0  0  0  0  0  0  0  0  0  0  0  0
    0.0200   66.7030   68.9550 C   0  0  0  0  0  0  0  0  0  0  0  0
   -1.3080   66.5590   68.5230 C   0  0  0  0  0  0  0  0  0  0  0  0
   -1.7430   67.1430   67.3240 C   0  0  0  0  0  0  0  0  0  0  0  0
    0.4770   66.0880   70.2090 C   0  0  0  0  0  0  0  0  0  0  0  0
    1.5860   65.3830   70.2140 N   0  0  0  0  0  4  0  0  0  0  0  0
   -0.2330   66.2540   71.3050 N   0  0  0  0  0  0  0  0  0  0  0  0
    0.7432   70.1403   62.4463 H   0  0  0  0  0  0  0  0  0  0  0  0
    0.3718   68.6955   61.3501 H   0  0  0  0  0  0  0  0  0  0  0  0
    2.4772   68.2942   60.9964 H   0  0  0  0  0  0  0  0  0  0  0  0
    2.8273   69.8877   61.8345 H   0  0  0  0  0  0  0  0  0  0  0  0
    2.5734   68.1140   63.9338 H   0  0  0  0  0  0  0  0  0  0  0  0
    3.4232   67.1426   62.6800 H   0  0  0  0  0  0  0  0  0  0  0  0
    6.7493   70.7005   66.8143 H   0  0  0  0  0  0  0  0  0  0  0  0
    6.6276   69.9972   64.4268 H   0  0  0  0  0  0  0  0  0  0  0  0
    2.5782   68.6423   65.0377 H   0  0  0  0  0  0  0  0  0  0  0  0
    2.6866   69.3530   67.4197 H   0  0  0  0  0  0  0  0  0  0  0  0
    3.7276   70.8520   70.3870 H   0  0  0  0  0  0  0  0  0  0  0  0
    2.7911   70.2861   68.9779 H   0  0  0  0  0  0  0  0  0  0  0  0
    6.8076   70.8064   68.6225 H   0  0  0  0  0  0  0  0  0  0  0  0
    6.0172   71.1469   70.1852 H   0  0  0  0  0  0  0  0  0  0  0  0
   -0.5330   67.7128   63.0627 H   0  0  0  0  0  0  0  0  0  0  0  0
    1.1619   67.6294   63.7685 H   0  0  0  0  0  0  0  0  0  0  0  0
    0.7823   69.2594   65.2799 H   0  0  0  0  0  0  0  0  0  0  0  0
   -0.4591   70.0813   64.2386 H   0  0  0  0  0  0  0  0  0  0  0  0
    1.1692   68.6123   66.3616 H   0  0  0  0  0  0  0  0  0  0  0  0
    1.9485   67.5725   68.4808 H   0  0  0  0  0  0  0  0  0  0  0  0
   -2.0172   65.9803   69.1331 H   0  0  0  0  0  0  0  0  0  0  0  0
   -2.7873   67.0189   67.0013 H   0  0  0  0  0  0  0  0  0  0  0  0
    1.9155   64.9476   71.0873 H   0  0  0  0  0  0  0  0  0  0  0  0
    2.1257   65.2659   69.3446 H   0  0  0  0  0  0  0  0  0  0  0  0
    0.0778   65.8275   72.1895 H   0  0  0  0  0  0  0  0  0  0  0  0
   -1.0994   66.8104   71.2780 H   0  0  0  0  0  0  0  0  0  0  0  0
  2  1  1  0
  3  2  1  0
  4  3  1  0
  6  5  2  0
  7  6  1  0
  8  7  2  0
  8  4  1  0
  9  8  1  0
 10  9  2  0
 10  5  1  0
 12 11  1  0
 12  5  1  0
 13 12  2  3
 14  1  1  0
 15 14  1  0
 16 15  1  0
 17 16  1  0
 18 17  2  0
 19 18  1  0
 20 19  2  0
 21 20  1  0
 22 21  2  0
 22 17  1  0
 23 20  1  0
 24 23  2  3
 25 23  1  0
  1 26  1  0
  1 27  1  0
  2 28  1  0
  2 29  1  0
  3 30  1  0
  3 31  1  0
  6 32  1  0
  7 33  1  0
  9 34  1  0
 10 35  1  0
 11 36  1  0
 11 37  1  0
 13 38  1  0
 13 39  1  0
 14 40  1  0
 14 41  1  0
 15 42  1  0
 15 43  1  0
 18 44  1  0
 19 45  1  0
 21 46  1  0
 22 47  1  0
 24 48  1  0
 24 49  1  0
 25 50  1  0
 25 51  1  0
M  CHG  2  13   1  24   1
M  END
>  <score>  (7) 
-8.906

$$$$
=
     RDKit          3D

 51 52  0  0  0  0  0  0  0  0999 V2000
   -0.3340   66.4130   69.2480 C   0  0  0  0  0  0  0  0  0  0  0  0
    0.5140   66.0790   70.4810 C   0  0  0  0  0  0  0  0  0  0  0  0
    0.7080   64.5820   70.7280 C   0  0  0  0  0  0  0  0  0  0  0  0
    1.7540   64.0840   69.8930 O   0  0  0  0  0  0  0  0  0  0  0  0
    2.9540   60.1990   70.8890 C   0  0  0  0  0  0  0  0  0  0  0  0
    3.3170   60.7220   69.6400 C   0  0  0  0  0  0  0  0  0  0  0  0
    2.9340   62.0170   69.2640 C   0  0  0  0  0  0  0  0  0  0  0  0
    2.1840   62.8080   70.1330 C   0  0  0  0  0  0  0  0  0  0  0  0
    1.8090   62.2860   71.3730 C   0  0  0  0  0  0  0  0  0  0  0  0
    2.1910   60.9960   71.7530 C   0  0  0  0  0  0  0  0  0  0  0  0
    3.7180   58.6180   72.5330 N   0  0  0  0  0  0  0  0  0  0  0  0
    3.3700   58.8450   71.2850 C   0  0  0  0  0  0  0  0  0  0  0  0
    3.3840   57.8850   70.3850 N   0  0  0  0  0  4  0  0  0  0  0  0
    0.2700   67.4040   68.2490 C   0  0  0  0  0  0  0  0  0  0  0  0
   -0.2730   67.2910   66.8230 C   0  0  0  0  0  0  0  0  0  0  0  0
    0.0310   68.4440   66.0380 O   0  0  0  0  0  0  0  0  0  0  0  0
    0.9650   68.3670   65.0480 C   0  0  0  0  0  0  0  0  0  0  0  0
    0.5020   68.7670   63.7920 C   0  0  0  0  0  0  0  0  0  0  0  0
    1.3420   68.7450   62.6750 C   0  0  0  0  0  0  0  0  0  0  0  0
    2.6710   68.3230   62.7980 C   0  0  0  0  0  0  0  0  0  0  0  0
    3.1340   67.9260   64.0620 C   0  0  0  0  0  0  0  0  0  0  0  0
    2.2860   67.9480   65.1790 C   0  0  0  0  0  0  0  0  0  0  0  0
    3.5580   68.2960   61.6260 C   0  0  0  0  0  0  0  0  0  0  0  0
    4.6190   67.5210   61.6400 N   0  0  0  0  0  4  0  0  0  0  0  0
    3.2750   69.0500   60.5850 N   0  0  0  0  0  0  0  0  0  0  0  0
   -0.5265   65.4727   68.7106 H   0  0  0  0  0  0  0  0  0  0  0  0
   -1.2341   66.9088   69.6404 H   0  0  0  0  0  0  0  0  0  0  0  0
    1.5054   66.5376   70.3512 H   0  0  0  0  0  0  0  0  0  0  0  0
   -0.0300   66.4729   71.3521 H   0  0  0  0  0  0  0  0  0  0  0  0
    0.9735   64.4176   71.7827 H   0  0  0  0  0  0  0  0  0  0  0  0
   -0.2267   64.0517   70.4933 H   0  0  0  0  0  0  0  0  0  0  0  0
    3.9100   60.1082   68.9460 H   0  0  0  0  0  0  0  0  0  0  0  0
    3.2264   62.4106   68.2793 H   0  0  0  0  0  0  0  0  0  0  0  0
    1.2053   62.8978   72.0595 H   0  0  0  0  0  0  0  0  0  0  0  0
    1.8909   60.6042   72.7361 H   0  0  0  0  0  0  0  0  0  0  0  0
    4.0112   57.6739   72.8223 H   0  0  0  0  0  0  0  0  0  0  0  0
    3.6973   59.3843   73.2209 H   0  0  0  0  0  0  0  0  0  0  0  0
    3.1074   58.0859   69.4134 H   0  0  0  0  0  0  0  0  0  0  0  0
    3.6716   56.9327   70.6522 H   0  0  0  0  0  0  0  0  0  0  0  0
    0.0673   68.4223   68.6124 H   0  0  0  0  0  0  0  0  0  0  0  0
    1.3430   67.1688   68.1907 H   0  0  0  0  0  0  0  0  0  0  0  0
    0.1732   66.4076   66.3428 H   0  0  0  0  0  0  0  0  0  0  0  0
   -1.3677   67.2028   66.8842 H   0  0  0  0  0  0  0  0  0  0  0  0
   -0.5391   69.1043   63.6805 H   0  0  0  0  0  0  0  0  0  0  0  0
    0.9567   69.0609   61.6943 H   0  0  0  0  0  0  0  0  0  0  0  0
    4.1760   67.5931   64.1782 H   0  0  0  0  0  0  0  0  0  0  0  0
    2.6662   67.6330   66.1620 H   0  0  0  0  0  0  0  0  0  0  0  0
    5.2477   67.4938   60.8246 H   0  0  0  0  0  0  0  0  0  0  0  0
    4.8220   66.9407   62.4664 H   0  0  0  0  0  0  0  0  0  0  0  0
    3.8897   69.0388   59.7586 H   0  0  0  0  0  0  0  0  0  0  0  0
    2.4388   69.6513   60.5967 H   0  0  0  0  0  0  0  0  0  0  0  0
  2  1  1  0
  3  2  1  0
  4  3  1  0
  6  5  2  0
  7  6  1  0
  8  7  2  0
  8  4  1  0
  9  8  1  0
 10  9  2  0
 10  5  1  0
 12 11  1  0
 12  5  1  0
 13 12  2  3
 14  1  1  0
 15 14  1  0
 16 15  1  0
 17 16  1  0
 18 17  2  0
 19 18  1  0
 20 19  2  0
 21 20  1  0
 22 21  2  0
 22 17  1  0
 23 20  1  0
 24 23  2  3
 25 23  1  0
  1 26  1  0
  1 27  1  0
  2 28  1  0
  2 29  1  0
  3 30  1  0
  3 31  1  0
  6 32  1  0
  7 33  1  0
  9 34  1  0
 10 35  1  0
 11 36  1  0
 11 37  1  0
 13 38  1  0
 13 39  1  0
 14 40  1  0
 14 41  1  0
 15 42  1  0
 15 43  1  0
 18 44  1  0
 19 45  1  0
 21 46  1  0
 22 47  1  0
 24 48  1  0
 24 49  1  0
 25 50  1  0
 25 51  1  0
M  CHG  2  13   1  24   1
M  END
>  <score>  (8) 
-8.677

$$$$
=
     RDKit          3D

 51 52  0  0  0  0  0  0  0  0999 V2000
   -0.6330   66.4260   68.2620 C   0  0  0  0  0  0  0  0  0  0  0  0
   -1.3150   67.5490   67.4710 C   0  0  0  0  0  0  0  0  0  0  0  0
   -0.4040   68.7320   67.1410 C   0  0  0  0  0  0  0  0  0  0  0  0
    0.6030   68.3260   66.2140 O   0  0  0  0  0  0  0  0  0  0  0  0
    4.3900   69.8620   67.1240 C   0  0  0  0  0  0  0  0  0  0  0  0
    4.1630   69.3270   65.8470 C   0  0  0  0  0  0  0  0  0  0  0  0
    2.9110   68.8000   65.5020 C   0  0  0  0  0  0  0  0  0  0  0  0
    1.8680   68.8010   66.4260 C   0  0  0  0  0  0  0  0  0  0  0  0
    2.0940   69.3200   67.7030 C   0  0  0  0  0  0  0  0  0  0  0  0
    3.3400   69.8500   68.0510 C   0  0  0  0  0  0  0  0  0  0  0  0
    5.7750   71.3340   68.4270 N   0  0  0  0  0  0  0  0  0  0  0  0
    5.7010   70.4270   67.4790 C   0  0  0  0  0  0  0  0  0  0  0  0
    6.7760   70.0140   66.8410 N   0  0  0  0  0  4  0  0  0  0  0  0
    0.0770   66.8330   69.5560 C   0  0  0  0  0  0  0  0  0  0  0  0
    1.2490   65.9340   69.9570 C   0  0  0  0  0  0  0  0  0  0  0  0
    0.8870   64.5530   69.9730 O   0  0  0  0  0  0  0  0  0  0  0  0
    1.7140   63.6410   70.5570 C   0  0  0  0  0  0  0  0  0  0  0  0
    3.0670   63.8150   70.2500 C   0  0  0  0  0  0  0  0  0  0  0  0
    4.0390   62.9590   70.7730 C   0  0  0  0  0  0  0  0  0  0  0  0
    3.6740   61.9080   71.6220 C   0  0  0  0  0  0  0  0  0  0  0  0
    2.3150   61.7390   71.9330 C   0  0  0  0  0  0  0  0  0  0  0  0
    1.3430   62.5990   71.4030 C   0  0  0  0  0  0  0  0  0  0  0  0
    4.6930   61.0040   72.1740 C   0  0  0  0  0  0  0  0  0  0  0  0
    4.3400   60.1030   73.0640 N   0  0  0  0  0  4  0  0  0  0  0  0
    5.9400   61.1120   71.7680 N   0  0  0  0  0  0  0  0  0  0  0  0
   -1.4037   65.6857   68.5228 H   0  0  0  0  0  0  0  0  0  0  0  0
    0.1613   66.0471   67.6020 H   0  0  0  0  0  0  0  0  0  0  0  0
   -1.6871   67.1271   66.5257 H   0  0  0  0  0  0  0  0  0  0  0  0
   -2.1189   67.9408   68.1114 H   0  0  0  0  0  0  0  0  0  0  0  0
   -1.0030   69.5411   66.6977 H   0  0  0  0  0  0  0  0  0  0  0  0
    0.0761   69.0880   68.0644 H   0  0  0  0  0  0  0  0  0  0  0  0
    4.9775   69.3211   65.1077 H   0  0  0  0  0  0  0  0  0  0  0  0
    2.7509   68.3834   64.4966 H   0  0  0  0  0  0  0  0  0  0  0  0
    1.2813   69.3116   68.4442 H   0  0  0  0  0  0  0  0  0  0  0  0
    3.4968   70.2603   69.0595 H   0  0  0  0  0  0  0  0  0  0  0  0
    6.6874   71.7368   68.6843 H   0  0  0  0  0  0  0  0  0  0  0  0
    4.9206   71.6421   68.9128 H   0  0  0  0  0  0  0  0  0  0  0  0
    6.6941   69.3020   66.1012 H   0  0  0  0  0  0  0  0  0  0  0  0
    7.6989   70.4029   67.0816 H   0  0  0  0  0  0  0  0  0  0  0  0
    0.4592   67.8566   69.4289 H   0  0  0  0  0  0  0  0  0  0  0  0
   -0.6694   66.7441   70.3591 H   0  0  0  0  0  0  0  0  0  0  0  0
    2.0682   66.0774   69.2371 H   0  0  0  0  0  0  0  0  0  0  0  0
    1.5577   66.2146   70.9748 H   0  0  0  0  0  0  0  0  0  0  0  0
    3.3705   64.6383   69.5867 H   0  0  0  0  0  0  0  0  0  0  0  0
    5.0976   63.1119   70.5161 H   0  0  0  0  0  0  0  0  0  0  0  0
    2.0091   60.9208   72.6015 H   0  0  0  0  0  0  0  0  0  0  0  0
    0.2830   62.4501   71.6564 H   0  0  0  0  0  0  0  0  0  0  0  0
    5.0454   59.4641   73.4578 H   0  0  0  0  0  0  0  0  0  0  0  0
    3.3580   60.0360   73.3675 H   0  0  0  0  0  0  0  0  0  0  0  0
    6.6618   60.4834   72.1485 H   0  0  0  0  0  0  0  0  0  0  0  0
    6.1943   61.8251   71.0697 H   0  0  0  0  0  0  0  0  0  0  0  0
  2  1  1  0
  3  2  1  0
  4  3  1  0
  6  5  2  0
  7  6  1  0
  8  7  2  0
  8  4  1  0
  9  8  1  0
 10  9  2  0
 10  5  1  0
 12 11  1  0
 12  5  1  0
 13 12  2  3
 14  1  1  0
 15 14  1  0
 16 15  1  0
 17 16  1  0
 18 17  2  0
 19 18  1  0
 20 19  2  0
 21 20  1  0
 22 21  2  0
 22 17  1  0
 23 20  1  0
 24 23  2  3
 25 23  1  0
  1 26  1  0
  1 27  1  0
  2 28  1  0
  2 29  1  0
  3 30  1  0
  3 31  1  0
  6 32  1  0
  7 33  1  0
  9 34  1  0
 10 35  1  0
 11 36  1  0
 11 37  1  0
 13 38  1  0
 13 39  1  0
 14 40  1  0
 14 41  1  0
 15 42  1  0
 15 43  1  0
 18 44  1  0
 19 45  1  0
 21 46  1  0
 22 47  1  0
 24 48  1  0
 24 49  1  0
 25 50  1  0
 25 51  1  0
M  CHG  2  13   1  24   1
M  END
>  <score>  (9) 
-8.591

$$$$
