=
     RDKit          3D

 47 49  0  0  0  0  0  0  0  0999 V2000
    0.4380   66.4500   68.8860 C   0  0  0  0  0  0  0  0  0  0  0  0
    1.1790   67.7870   68.6840 C   0  0  0  0  0  0  0  0  0  0  0  0
    0.4790   68.7360   67.7170 C   0  0  0  0  0  0  0  0  0  0  0  0
   -0.2550   67.9390   66.6780 N   0  0  0  0  0  4  0  0  0  0  0  0
   -1.3900   67.1240   67.2620 C   0  0  0  0  0  0  0  0  0  0  0  0
   -1.0620   66.6360   68.6740 C   0  0  0  0  0  0  0  0  0  0  0  0
    0.7500   65.8380   70.2600 C   0  0  0  0  0  0  0  0  0  0  0  0
    2.1330   65.4950   70.2770 O   0  0  0  0  0  0  0  0  0  0  0  0
    2.8420   61.4870   70.4420 C   0  0  0  0  0  0  0  0  0  0  0  0
    3.1430   62.2590   69.3430 C   0  0  0  0  0  0  0  0  0  0  0  0
    2.9120   63.5880   69.2840 N   0  0  0  0  0  0  0  0  0  0  0  0
    2.3550   64.1380   70.3730 C   0  0  0  0  0  0  0  0  0  0  0  0
    2.0240   63.4840   71.4990 N   0  0  0  0  0  0  0  0  0  0  0  0
    2.2770   62.1550   71.5060 C   0  0  0  0  0  0  0  0  0  0  0  0
    3.8440   59.4890   69.5510 N   0  0  0  0  0  0  0  0  0  0  0  0
    3.1130   60.0510   70.4590 C   0  0  0  0  0  0  0  0  0  0  0  0
    3.9250   58.1200   69.8270 O   0  0  0  0  0  0  0  0  0  0  0  0
   -0.6930   68.7950   65.5070 C   0  0  0  0  0  0  0  0  0  0  0  0
    0.2870   68.7710   64.3660 C   0  0  0  0  0  0  0  0  0  0  0  0
    1.6200   68.3880   64.5780 C   0  0  0  0  0  0  0  0  0  0  0  0
    2.5340   68.4000   63.5240 C   0  0  0  0  0  0  0  0  0  0  0  0
    2.1280   68.7930   62.2500 C   0  0  0  0  0  0  0  0  0  0  0  0
    0.8050   69.1710   62.0270 C   0  0  0  0  0  0  0  0  0  0  0  0
   -0.1130   69.1610   63.0770 C   0  0  0  0  0  0  0  0  0  0  0  0
    0.7995   65.7362   68.1312 H   0  0  0  0  0  0  0  0  0  0  0  0
    1.2653   68.2871   69.6599 H   0  0  0  0  0  0  0  0  0  0  0  0
    2.1596   67.5481   68.2466 H   0  0  0  0  0  0  0  0  0  0  0  0
   -0.2354   69.3628   68.2708 H   0  0  0  0  0  0  0  0  0  0  0  0
    1.2262   69.3776   67.2271 H   0  0  0  0  0  0  0  0  0  0  0  0
    0.4187   67.2554   66.3042 H   0  0  0  0  0  0  0  0  0  0  0  0
   -2.2949   67.7482   67.3009 H   0  0  0  0  0  0  0  0  0  0  0  0
   -1.5480   66.2441   66.6211 H   0  0  0  0  0  0  0  0  0  0  0  0
   -1.4333   67.3749   69.3993 H   0  0  0  0  0  0  0  0  0  0  0  0
   -1.5466   65.6585   68.8145 H   0  0  0  0  0  0  0  0  0  0  0  0
    0.5355   66.5692   71.0533 H   0  0  0  0  0  0  0  0  0  0  0  0
    0.1296   64.9466   70.4348 H   0  0  0  0  0  0  0  0  0  0  0  0
    3.5947   61.7683   68.4683 H   0  0  0  0  0  0  0  0  0  0  0  0
    2.0185   61.5788   72.4067 H   0  0  0  0  0  0  0  0  0  0  0  0
    2.6855   59.4333   71.2626 H   0  0  0  0  0  0  0  0  0  0  0  0
    4.4480   57.5254   69.2329 H   0  0  0  0  0  0  0  0  0  0  0  0
   -1.6631   68.4241   65.1445 H   0  0  0  0  0  0  0  0  0  0  0  0
   -0.7594   69.8335   65.8636 H   0  0  0  0  0  0  0  0  0  0  0  0
    1.9464   68.0764   65.5812 H   0  0  0  0  0  0  0  0  0  0  0  0
    3.5774   68.0986   63.6989 H   0  0  0  0  0  0  0  0  0  0  0  0
    2.8510   68.8049   61.4211 H   0  0  0  0  0  0  0  0  0  0  0  0
    0.4842   69.4779   61.0206 H   0  0  0  0  0  0  0  0  0  0  0  0
   -1.1558   69.4601   62.8948 H   0  0  0  0  0  0  0  0  0  0  0  0
  2  1  1  0
  3  2  1  0
  4  3  1  0
  5  4  1  0
  6  5  1  0
  6  1  1  0
  7  1  1  0
  8  7  1  0
 10  9  2  0
 11 10  1  0
 12 11  2  0
 12  8  1  0
 13 12  1  0
 14  9  1  0
 14 13  2  0
 16 15  2  0
 16  9  1  0
 17 15  1  0
 18  4  1  0
 19 18  1  0
 20 19  2  0
 21 20  1  0
 22 21  2  0
 23 22  1  0
 24 23  2  0
 24 19  1  0
  1 25  1  0
  2 26  1  0
  2 27  1  0
  3 28  1  0
  3 29  1  0
  4 30  1  0
  5 31  1  0
  5 32  1  0
  6 33  1  0
  6 34  1  0
  7 35  1  0
  7 36  1  0
 10 37  1  0
 14 38  1  0
 16 39  1  0
 17 40  1  0
 18 41  1  0
 18 42  1  0
 20 43  1  0
 21 44  1  0
 22 45  1  0
 23 46  1  0
 24 47  1  0
M  CHG  1   4   1
M  END
>  <score>  (1) 
-9.206

$$$$
=
     RDKit          3D

 47 49  0  0  0  0  0  0  0  0999 V2000
    1.2070   64.1970   70.7710 C   0  0  0  0  0  0  0  0  0  0  0  0
    0.9130   63.6060   72.1650 C   0  0  0  0  0  0  0  0  0  0  0  0
    2.0800   62.8210   72.7560 C   0  0  0  0  0  0  0  0  0  0  0  0
    2.8660   62.1840   71.6480 N   0  0  0  0  0  4  0  0  0  0  0  0
    3.5390   63.2010   70.7510 C   0  0  0  0  0  0  0  0  0  0  0  0
    2.7000   64.4720   70.6130 C   0  0  0  0  0  0  0  0  0  0  0  0
    0.3620   65.4520   70.5050 C   0  0  0  0  0  0  0  0  0  0  0  0
    1.1670   66.3650   69.7640 O   0  0  0  0  0  0  0  0  0  0  0  0
   -0.9910   68.2280   66.8540 C   0  0  0  0  0  0  0  0  0  0  0  0
   -1.4330   67.1040   67.5140 C   0  0  0  0  0  0  0  0  0  0  0  0
   -0.7220   66.4830   68.4800 N   0  0  0  0  0  0  0  0  0  0  0  0
    0.4700   67.0240   68.7740 C   0  0  0  0  0  0  0  0  0  0  0  0
    0.9970   68.1180   68.2000 N   0  0  0  0  0  0  0  0  0  0  0  0
    0.2440   68.7020   67.2380 C   0  0  0  0  0  0  0  0  0  0  0  0
   -3.0610   68.6120   65.6880 N   0  0  0  0  0  0  0  0  0  0  0  0
   -1.7980   68.8650   65.8160 C   0  0  0  0  0  0  0  0  0  0  0  0
   -3.5610   69.3630   64.6190 O   0  0  0  0  0  0  0  0  0  0  0  0
    3.8280   61.1330   72.1630 C   0  0  0  0  0  0  0  0  0  0  0  0
    3.2780   59.7370   72.0600 C   0  0  0  0  0  0  0  0  0  0  0  0
    2.4410   59.2230   73.0630 C   0  0  0  0  0  0  0  0  0  0  0  0
    1.9600   57.9160   72.9810 C   0  0  0  0  0  0  0  0  0  0  0  0
    2.3080   57.1090   71.9000 C   0  0  0  0  0  0  0  0  0  0  0  0
    3.1350   57.6100   70.8960 C   0  0  0  0  0  0  0  0  0  0  0  0
    3.6190   58.9160   70.9720 C   0  0  0  0  0  0  0  0  0  0  0  0
    0.9197   63.4542   70.0123 H   0  0  0  0  0  0  0  0  0  0  0  0
    0.6688   64.4327   72.8484 H   0  0  0  0  0  0  0  0  0  0  0  0
    0.0779   62.9001   72.0456 H   0  0  0  0  0  0  0  0  0  0  0  0
    2.7312   63.5029   73.3225 H   0  0  0  0  0  0  0  0  0  0  0  0
    1.6941   62.0402   73.4278 H   0  0  0  0  0  0  0  0  0  0  0  0
    2.1853   61.6908   71.0528 H   0  0  0  0  0  0  0  0  0  0  0  0
    4.5171   63.4637   71.1802 H   0  0  0  0  0  0  0  0  0  0  0  0
    3.6554   62.7553   69.7521 H   0  0  0  0  0  0  0  0  0  0  0  0
    3.0122   65.1884   71.3872 H   0  0  0  0  0  0  0  0  0  0  0  0
    2.8639   64.8770   69.6035 H   0  0  0  0  0  0  0  0  0  0  0  0
   -0.5334   65.1851   69.9245 H   0  0  0  0  0  0  0  0  0  0  0  0
    0.0359   65.9059   71.4525 H   0  0  0  0  0  0  0  0  0  0  0  0
   -2.4151   66.6905   67.2409 H   0  0  0  0  0  0  0  0  0  0  0  0
    0.6380   69.5993   66.7385 H   0  0  0  0  0  0  0  0  0  0  0  0
   -1.3207   69.5769   65.1265 H   0  0  0  0  0  0  0  0  0  0  0  0
   -4.5174   69.2968   64.3721 H   0  0  0  0  0  0  0  0  0  0  0  0
    4.7565   61.1889   71.5758 H   0  0  0  0  0  0  0  0  0  0  0  0
    4.0051   61.3407   73.2286 H   0  0  0  0  0  0  0  0  0  0  0  0
    2.1626   59.8549   73.9192 H   0  0  0  0  0  0  0  0  0  0  0  0
    1.3046   57.5218   73.7716 H   0  0  0  0  0  0  0  0  0  0  0  0
    1.9306   56.0776   71.8389 H   0  0  0  0  0  0  0  0  0  0  0  0
    3.4068   56.9734   70.0411 H   0  0  0  0  0  0  0  0  0  0  0  0
    4.2710   59.3051   70.1761 H   0  0  0  0  0  0  0  0  0  0  0  0
  2  1  1  0
  3  2  1  0
  4  3  1  0
  5  4  1  0
  6  5  1  0
  6  1  1  0
  7  1  1  0
  8  7  1  0
 10  9  2  0
 11 10  1  0
 12 11  2  0
 12  8  1  0
 13 12  1  0
 14  9  1  0
 14 13  2  0
 16 15  2  0
 16  9  1  0
 17 15  1  0
 18  4  1  0
 19 18  1  0
 20 19  2  0
 21 20  1  0
 22 21  2  0
 23 22  1  0
 24 23  2  0
 24 19  1  0
  1 25  1  0
  2 26  1  0
  2 27  1  0
  3 28  1  0
  3 29  1  0
  4 30  1  0
  5 31  1  0
  5 32  1  0
  6 33  1  0
  6 34  1  0
  7 35  1  0
  7 36  1  0
 10 37  1  0
 14 38  1  0
 16 39  1  0
 17 40  1  0
 18 41  1  0
 18 42  1  0
 20 43  1  0
 21 44  1  0
 22 45  1  0
 23 46  1  0
 24 47  1  0
M  CHG  1   4   1
M  END
>  <score>  (2) 
-8.881

$$$$
=
     RDKit          3D

 47 49  0  0  0  0  0  0  0  0999 V2000
    0.5390   65.8640   69.3630 C   0  0  0  0  0  0  0  0  0  0  0  0
    1.5620   66.9730   69.6790 C   0  0  0  0  0  0  0  0  0  0  0  0
    1.4310   68.2010   68.7840 C   0  0  0  0  0  0  0  0  0  0  0  0
    0.9350   67.7820   67.4310 N   0  0  0  0  0  4  0  0  0  0  0  0
   -0.4710   67.2210   67.4730 C   0  0  0  0  0  0  0  0  0  0  0  0
   -0.7350   66.4660   68.7770 C   0  0  0  0  0  0  0  0  0  0  0  0
    0.2470   65.0010   70.6010 C   0  0  0  0  0  0  0  0  0  0  0  0
    1.4970   64.6650   71.1980 O   0  0  0  0  0  0  0  0  0  0  0  0
    2.8580   60.9790   70.1230 C   0  0  0  0  0  0  0  0  0  0  0  0
    2.1290   61.2060   71.2680 C   0  0  0  0  0  0  0  0  0  0  0  0
    1.6740   62.4260   71.6280 N   0  0  0  0  0  0  0  0  0  0  0  0
    1.9760   63.4370   70.7990 C   0  0  0  0  0  0  0  0  0  0  0  0
    2.6760   63.3300   69.6560 N   0  0  0  0  0  0  0  0  0  0  0  0
    3.1080   62.0860   69.3420 C   0  0  0  0  0  0  0  0  0  0  0  0
    3.5880   58.7560   70.6840 N   0  0  0  0  0  0  0  0  0  0  0  0
    3.3270   59.6400   69.7750 C   0  0  0  0  0  0  0  0  0  0  0  0
    4.0140   57.5810   70.0550 O   0  0  0  0  0  0  0  0  0  0  0  0
    1.0920   68.8820   66.4010 C   0  0  0  0  0  0  0  0  0  0  0  0
    2.5210   69.0850   65.9760 C   0  0  0  0  0  0  0  0  0  0  0  0
    3.4830   69.5310   66.8960 C   0  0  0  0  0  0  0  0  0  0  0  0
    4.8000   69.7500   66.4910 C   0  0  0  0  0  0  0  0  0  0  0  0
    5.1700   69.5270   65.1660 C   0  0  0  0  0  0  0  0  0  0  0  0
    4.2240   69.0800   64.2450 C   0  0  0  0  0  0  0  0  0  0  0  0
    2.9060   68.8590   64.6450 C   0  0  0  0  0  0  0  0  0  0  0  0
    0.9756   65.1962   68.6058 H   0  0  0  0  0  0  0  0  0  0  0  0
    1.4213   67.2879   70.7235 H   0  0  0  0  0  0  0  0  0  0  0  0
    2.5611   66.5494   69.4994 H   0  0  0  0  0  0  0  0  0  0  0  0
    0.7181   68.9080   69.2333 H   0  0  0  0  0  0  0  0  0  0  0  0
    2.4126   68.6866   68.6810 H   0  0  0  0  0  0  0  0  0  0  0  0
    1.5394   67.0058   67.1259 H   0  0  0  0  0  0  0  0  0  0  0  0
   -1.1892   68.0499   67.3883 H   0  0  0  0  0  0  0  0  0  0  0  0
   -0.5862   66.5158   66.6367 H   0  0  0  0  0  0  0  0  0  0  0  0
   -1.1662   67.1642   69.5095 H   0  0  0  0  0  0  0  0  0  0  0  0
   -1.4272   65.6405   68.5549 H   0  0  0  0  0  0  0  0  0  0  0  0
   -0.3696   65.5664   71.3152 H   0  0  0  0  0  0  0  0  0  0  0  0
   -0.3017   64.0911   70.3164 H   0  0  0  0  0  0  0  0  0  0  0  0
    1.9056   60.3510   71.9230 H   0  0  0  0  0  0  0  0  0  0  0  0
    3.6878   61.9524   68.4168 H   0  0  0  0  0  0  0  0  0  0  0  0
    3.4616   59.3766   68.7155 H   0  0  0  0  0  0  0  0  0  0  0  0
    4.2592   56.7900   70.5975 H   0  0  0  0  0  0  0  0  0  0  0  0
    0.4957   68.6207   65.5144 H   0  0  0  0  0  0  0  0  0  0  0  0
    0.7482   69.8191   66.8631 H   0  0  0  0  0  0  0  0  0  0  0  0
    3.1965   69.7090   67.9430 H   0  0  0  0  0  0  0  0  0  0  0  0
    5.5474   70.0992   67.2186 H   0  0  0  0  0  0  0  0  0  0  0  0
    6.2079   69.7036   64.8472 H   0  0  0  0  0  0  0  0  0  0  0  0
    4.5175   68.9011   63.2001 H   0  0  0  0  0  0  0  0  0  0  0  0
    2.1643   68.5057   63.9135 H   0  0  0  0  0  0  0  0  0  0  0  0
  2  1  1  0
  3  2  1  0
  4  3  1  0
  5  4  1  0
  6  5  1  0
  6  1  1  0
  7  1  1  0
  8  7  1  0
 10  9  2  0
 11 10  1  0
 12 11  2  0
 12  8  1  0
 13 12  1  0
 14  9  1  0
 14 13  2  0
 16 15  2  0
 16  9  1  0
 17 15  1  0
 18  4  1  0
 19 18  1  0
 20 19  2  0
 21 20  1  0
 22 21  2  0
 23 22  1  0
 24 23  2  0
 24 19  1  0
  1 25  1  0
  2 26  1  0
  2 27  1  0
  3 28  1  0
  3 29  1  0
  4 30  1  0
  5 31  1  0
  5 32  1  0
  6 33  1  0
  6 34  1  0
  7 35  1  0
  7 36  1  0
 10 37  1  0
 14 38  1  0
 16 39  1  0
 17 40  1  0
 18 41  1  0
 18 42  1  0
 20 43  1  0
 21 44  1  0
 22 45  1  0
 23 46  1  0
 24 47  1  0
M  CHG  1   4   1
M  END
>  <score>  (3) 
-8.853

$$$$
=
     RDKit          3D

 47 49  0  0  0  0  0  0  0  0999 V2000
    0.8750   64.3510   70.7660 C   0  0  0  0  0  0  0  0  0  0  0  0
    0.5290   63.9370   72.2110 C   0  0  0  0  0  0  0  0  0  0  0  0
    1.6710   63.2320   72.9360 C   0  0  0  0  0  0  0  0  0  0  0  0
    2.4940   62.4620   71.9440 N   0  0  0  0  0  4  0  0  0  0  0  0
    3.2030   63.3610   70.9540 C   0  0  0  0  0  0  0  0  0  0  0  0
    2.3740   64.6050   70.6300 C   0  0  0  0  0  0  0  0  0  0  0  0
    0.0460   65.5630   70.3160 C   0  0  0  0  0  0  0  0  0  0  0  0
    0.9420   66.5120   69.7450 O   0  0  0  0  0  0  0  0  0  0  0  0
   -0.5910   68.1430   66.3420 C   0  0  0  0  0  0  0  0  0  0  0  0
   -1.2980   67.2780   67.1450 C   0  0  0  0  0  0  0  0  0  0  0  0
   -0.7950   66.7360   68.2750 N   0  0  0  0  0  0  0  0  0  0  0  0
    0.4630   67.0840   68.5870 C   0  0  0  0  0  0  0  0  0  0  0  0
    1.2420   67.9210   67.8810 N   0  0  0  0  0  0  0  0  0  0  0  0
    0.6890   68.4360   66.7580 C   0  0  0  0  0  0  0  0  0  0  0  0
   -0.5900   68.6070   63.9810 N   0  0  0  0  0  0  0  0  0  0  0  0
   -1.1790   68.7060   65.1290 C   0  0  0  0  0  0  0  0  0  0  0  0
   -1.3840   69.2340   63.0150 O   0  0  0  0  0  0  0  0  0  0  0  0
    3.4320   61.4840   72.6200 C   0  0  0  0  0  0  0  0  0  0  0  0
    3.1740   60.0570   72.2210 C   0  0  0  0  0  0  0  0  0  0  0  0
    3.7150   59.5380   71.0340 C   0  0  0  0  0  0  0  0  0  0  0  0
    3.4450   58.2240   70.6500 C   0  0  0  0  0  0  0  0  0  0  0  0
    2.6350   57.4150   71.4450 C   0  0  0  0  0  0  0  0  0  0  0  0
    2.0970   57.9180   72.6280 C   0  0  0  0  0  0  0  0  0  0  0  0
    2.3630   59.2310   73.0170 C   0  0  0  0  0  0  0  0  0  0  0  0
    0.6115   63.5200   70.0952 H   0  0  0  0  0  0  0  0  0  0  0  0
    0.2637   64.8418   72.7776 H   0  0  0  0  0  0  0  0  0  0  0  0
   -0.3041   63.2213   72.1500 H   0  0  0  0  0  0  0  0  0  0  0  0
    2.3044   63.9793   73.4364 H   0  0  0  0  0  0  0  0  0  0  0  0
    1.2582   62.5404   73.6852 H   0  0  0  0  0  0  0  0  0  0  0  0
    1.8338   61.8981   71.3898 H   0  0  0  0  0  0  0  0  0  0  0  0
    4.1659   63.6753   71.3831 H   0  0  0  0  0  0  0  0  0  0  0  0
    3.3541   62.7957   70.0225 H   0  0  0  0  0  0  0  0  0  0  0  0
    2.6607   65.4115   71.3209 H   0  0  0  0  0  0  0  0  0  0  0  0
    2.5759   64.8823   69.5848 H   0  0  0  0  0  0  0  0  0  0  0  0
   -0.6971   65.2515   69.5672 H   0  0  0  0  0  0  0  0  0  0  0  0
   -0.4885   66.0032   71.1707 H   0  0  0  0  0  0  0  0  0  0  0  0
   -2.3249   67.0146   66.8517 H   0  0  0  0  0  0  0  0  0  0  0  0
    1.2923   69.1233   66.1467 H   0  0  0  0  0  0  0  0  0  0  0  0
   -2.1458   69.2267   65.1930 H   0  0  0  0  0  0  0  0  0  0  0  0
   -1.0887   69.2569   62.0703 H   0  0  0  0  0  0  0  0  0  0  0  0
    4.4658   61.7434   72.3479 H   0  0  0  0  0  0  0  0  0  0  0  0
    3.2637   61.5599   73.7044 H   0  0  0  0  0  0  0  0  0  0  0  0
    4.3557   60.1712   70.4027 H   0  0  0  0  0  0  0  0  0  0  0  0
    3.8723   57.8258   69.7179 H   0  0  0  0  0  0  0  0  0  0  0  0
    2.4206   56.3804   71.1389 H   0  0  0  0  0  0  0  0  0  0  0  0
    1.4608   57.2779   73.2569 H   0  0  0  0  0  0  0  0  0  0  0  0
    1.9354   59.6217   73.9521 H   0  0  0  0  0  0  0  0  0  0  0  0
  2  1  1  0
  3  2  1  0
  4  3  1  0
  5  4  1  0
  6  5  1  0
  6  1  1  0
  7  1  1  0
  8  7  1  0
 10  9  2  0
 11 10  1  0
 12 11  2  0
 12  8  1  0
 13 12  1  0
 14  9  1  0
 14 13  2  0
 16 15  2  0
 16  9  1  0
 17 15  1  0
 18  4  1  0
 19 18  1  0
 20 19  2  0
 21 20  1  0
 22 21  2  0
 23 22  1  0
 24 23  2  0
 24 19  1  0
  1 25  1  0
  2 26  1  0
  2 27  1  0
  3 28  1  0
  3 29  1  0
  4 30  1  0
  5 31  1  0
  5 32  1  0
  6 33  1  0
  6 34  1  0
  7 35  1  0
  7 36  1  0
 10 37  1  0
 14 38  1  0
 16 39  1  0
 17 40  1  0
 18 41  1  0
 18 42  1  0
 20 43  1  0
 21 44  1  0
 22 45  1  0
 23 46  1  0
 24 47  1  0
M  CHG  1   4   1
M  END
>  <score>  (4) 
-8.595

$$$$
=
     RDKit          3D

 47 49  0  0  0  0  0  0  0  0999 V2000
    0.7220   66.9880   68.2240 C   0  0  0  0  0  0  0  0  0  0  0  0
    1.3410   68.2020   68.9450 C   0  0  0  0  0  0  0  0  0  0  0  0
    1.9890   69.2100   68.0020 C   0  0  0  0  0  0  0  0  0  0  0  0
    2.5350   68.4920   66.8020 N   0  0  0  0  0  4  0  0  0  0  0  0
    1.4480   67.8610   65.9560 C   0  0  0  0  0  0  0  0  0  0  0  0
    0.2800   67.3730   66.8150 C   0  0  0  0  0  0  0  0  0  0  0  0
   -0.4300   66.3790   69.0390 C   0  0  0  0  0  0  0  0  0  0  0  0
    0.0620   66.1100   70.3490 O   0  0  0  0  0  0  0  0  0  0  0  0
    2.3800   62.7640   70.4920 C   0  0  0  0  0  0  0  0  0  0  0  0
    1.0190   62.7270   70.2950 C   0  0  0  0  0  0  0  0  0  0  0  0
    0.2460   63.8330   70.2450 N   0  0  0  0  0  0  0  0  0  0  0  0
    0.8820   65.0040   70.4050 C   0  0  0  0  0  0  0  0  0  0  0  0
    2.2020   65.1580   70.5990 N   0  0  0  0  0  0  0  0  0  0  0  0
    2.9300   64.0180   70.6400 C   0  0  0  0  0  0  0  0  0  0  0  0
    3.4190   60.8510   69.4670 N   0  0  0  0  0  0  0  0  0  0  0  0
    3.1750   61.5390   70.5360 C   0  0  0  0  0  0  0  0  0  0  0  0
    4.1960   59.7410   69.8180 O   0  0  0  0  0  0  0  0  0  0  0  0
    3.4700   69.3660   65.9920 C   0  0  0  0  0  0  0  0  0  0  0  0
    4.6220   69.8960   66.8010 C   0  0  0  0  0  0  0  0  0  0  0  0
    5.9120   69.9620   66.2490 C   0  0  0  0  0  0  0  0  0  0  0  0
    6.9840   70.4220   67.0140 C   0  0  0  0  0  0  0  0  0  0  0  0
    6.7820   70.8190   68.3340 C   0  0  0  0  0  0  0  0  0  0  0  0
    5.5060   70.7610   68.8920 C   0  0  0  0  0  0  0  0  0  0  0  0
    4.4290   70.3020   68.1310 C   0  0  0  0  0  0  0  0  0  0  0  0
    1.4937   66.2093   68.1337 H   0  0  0  0  0  0  0  0  0  0  0  0
    0.5465   68.7139   69.5078 H   0  0  0  0  0  0  0  0  0  0  0  0
    2.1367   67.8161   69.5991 H   0  0  0  0  0  0  0  0  0  0  0  0
    1.2377   69.9457   67.6789 H   0  0  0  0  0  0  0  0  0  0  0  0
    2.8074   69.7274   68.5240 H   0  0  0  0  0  0  0  0  0  0  0  0
    3.1022   67.7109   67.1613 H   0  0  0  0  0  0  0  0  0  0  0  0
    1.0762   68.6066   65.2378 H   0  0  0  0  0  0  0  0  0  0  0  0
    1.8777   66.9936   65.4335 H   0  0  0  0  0  0  0  0  0  0  0  0
   -0.4678   68.1766   66.8855 H   0  0  0  0  0  0  0  0  0  0  0  0
   -0.1399   66.4762   66.3360 H   0  0  0  0  0  0  0  0  0  0  0  0
   -1.2681   67.0895   69.0920 H   0  0  0  0  0  0  0  0  0  0  0  0
   -0.7908   65.4542   68.5652 H   0  0  0  0  0  0  0  0  0  0  0  0
    0.5359   61.7465   70.1719 H   0  0  0  0  0  0  0  0  0  0  0  0
    4.0155   64.0968   70.7995 H   0  0  0  0  0  0  0  0  0  0  0  0
    3.5757   61.1932   71.5003 H   0  0  0  0  0  0  0  0  0  0  0  0
    4.4811   59.0965   69.1227 H   0  0  0  0  0  0  0  0  0  0  0  0
    3.8708   68.7722   65.1573 H   0  0  0  0  0  0  0  0  0  0  0  0
    2.8899   70.2306   65.6371 H   0  0  0  0  0  0  0  0  0  0  0  0
    6.0778   69.6492   65.2075 H   0  0  0  0  0  0  0  0  0  0  0  0
    7.9910   70.4714   66.5740 H   0  0  0  0  0  0  0  0  0  0  0  0
    7.6296   71.1783   68.9360 H   0  0  0  0  0  0  0  0  0  0  0  0
    5.3472   71.0773   69.9335 H   0  0  0  0  0  0  0  0  0  0  0  0
    3.4240   70.2583   68.5760 H   0  0  0  0  0  0  0  0  0  0  0  0
  2  1  1  0
  3  2  1  0
  4  3  1  0
  5  4  1  0
  6  5  1  0
  6  1  1  0
  7  1  1  0
  8  7  1  0
 10  9  2  0
 11 10  1  0
 12 11  2  0
 12  8  1  0
 13 12  1  0
 14  9  1  0
 14 13  2  0
 16 15  2  0
 16  9  1  0
 17 15  1  0
 18  4  1  0
 19 18  1  0
 20 19  2  0
 21 20  1  0
 22 21  2  0
 23 22  1  0
 24 23  2  0
 24 19  1  0
  1 25  1  0
  2 26  1  0
  2 27  1  0
  3 28  1  0
  3 29  1  0
  4 30  1  0
  5 31  1  0
  5 32  1  0
  6 33  1  0
  6 34  1  0
  7 35  1  0
  7 36  1  0
 10 37  1  0
 14 38  1  0
 16 39  1  0
 17 40  1  0
 18 41  1  0
 18 42  1  0
 20 43  1  0
 21 44  1  0
 22 45  1  0
 23 46  1  0
 24 47  1  0
M  CHG  1   4   1
M  END
>  <score>  (5) 
-8.255

$$$$
=
     RDKit          3D

 47 49  0  0  0  0  0  0  0  0999 V2000
    1.6640   64.1520   70.5750 C   0  0  0  0  0  0  0  0  0  0  0  0
    1.3410   63.9230   72.0650 C   0  0  0  0  0  0  0  0  0  0  0  0
    1.9510   62.6450   72.6340 C   0  0  0  0  0  0  0  0  0  0  0  0
    2.0350   61.6070   71.5530 N   0  0  0  0  0  4  0  0  0  0  0  0
    2.9920   61.9950   70.4460 C   0  0  0  0  0  0  0  0  0  0  0  0
    3.0000   63.5070   70.2140 C   0  0  0  0  0  0  0  0  0  0  0  0
    1.6360   65.6460   70.2190 C   0  0  0  0  0  0  0  0  0  0  0  0
    0.2710   66.0350   70.0930 O   0  0  0  0  0  0  0  0  0  0  0  0
   -0.6010   68.1170   66.7020 C   0  0  0  0  0  0  0  0  0  0  0  0
   -1.4490   67.1800   67.2470 C   0  0  0  0  0  0  0  0  0  0  0  0
   -1.1660   66.4890   68.3720 N   0  0  0  0  0  0  0  0  0  0  0  0
    0.0150   66.7590   68.9490 C   0  0  0  0  0  0  0  0  0  0  0  0
    0.9160   67.6520   68.5070 N   0  0  0  0  0  0  0  0  0  0  0  0
    0.5830   68.3180   67.3770 C   0  0  0  0  0  0  0  0  0  0  0  0
   -0.5320   68.4580   64.3210 N   0  0  0  0  0  0  0  0  0  0  0  0
   -0.9530   68.8410   65.4830 C   0  0  0  0  0  0  0  0  0  0  0  0
   -1.0260   69.3390   63.3530 O   0  0  0  0  0  0  0  0  0  0  0  0
    2.3170   60.2260   72.1100 C   0  0  0  0  0  0  0  0  0  0  0  0
    1.1430   59.6430   72.8480 C   0  0  0  0  0  0  0  0  0  0  0  0
    1.1870   58.3280   73.3360 C   0  0  0  0  0  0  0  0  0  0  0  0
    0.0840   57.7800   73.9900 C   0  0  0  0  0  0  0  0  0  0  0  0
   -1.0740   58.5360   74.1620 C   0  0  0  0  0  0  0  0  0  0  0  0
   -1.1290   59.8440   73.6850 C   0  0  0  0  0  0  0  0  0  0  0  0
   -0.0280   60.3980   73.0310 C   0  0  0  0  0  0  0  0  0  0  0  0
    0.8818   63.6666   69.9729 H   0  0  0  0  0  0  0  0  0  0  0  0
    1.7267   64.7780   72.6396 H   0  0  0  0  0  0  0  0  0  0  0  0
    0.2486   63.8224   72.1461 H   0  0  0  0  0  0  0  0  0  0  0  0
    2.9600   62.8588   73.0163 H   0  0  0  0  0  0  0  0  0  0  0  0
    1.3202   62.2708   73.4538 H   0  0  0  0  0  0  0  0  0  0  0  0
    1.1029   61.5622   71.1171 H   0  0  0  0  0  0  0  0  0  0  0  0
    4.0065   61.6705   70.7209 H   0  0  0  0  0  0  0  0  0  0  0  0
    2.6615   61.5059   69.5178 H   0  0  0  0  0  0  0  0  0  0  0  0
    3.7896   63.9565   70.8340 H   0  0  0  0  0  0  0  0  0  0  0  0
    3.1826   63.6839   69.1438 H   0  0  0  0  0  0  0  0  0  0  0  0
    2.1202   66.2302   71.0154 H   0  0  0  0  0  0  0  0  0  0  0  0
    2.1774   65.8286   69.2790 H   0  0  0  0  0  0  0  0  0  0  0  0
   -2.4056   66.9841   66.7405 H   0  0  0  0  0  0  0  0  0  0  0  0
    1.2933   69.0568   66.9774 H   0  0  0  0  0  0  0  0  0  0  0  0
   -1.5917   69.7337   65.5547 H   0  0  0  0  0  0  0  0  0  0  0  0
   -0.8040   69.2004   62.3982 H   0  0  0  0  0  0  0  0  0  0  0  0
    2.5751   59.5568   71.2760 H   0  0  0  0  0  0  0  0  0  0  0  0
    3.1447   60.3218   72.8282 H   0  0  0  0  0  0  0  0  0  0  0  0
    2.0975   57.7256   73.2018 H   0  0  0  0  0  0  0  0  0  0  0  0
    0.1281   56.7490   74.3709 H   0  0  0  0  0  0  0  0  0  0  0  0
   -1.9445   58.1002   74.6742 H   0  0  0  0  0  0  0  0  0  0  0  0
   -2.0423   60.4411   73.8243 H   0  0  0  0  0  0  0  0  0  0  0  0
   -0.0769   61.4312   72.6567 H   0  0  0  0  0  0  0  0  0  0  0  0
  2  1  1  0
  3  2  1  0
  4  3  1  0
  5  4  1  0
  6  5  1  0
  6  1  1  0
  7  1  1  0
  8  7  1  0
 10  9  2  0
 11 10  1  0
 12 11  2  0
 12  8  1  0
 13 12  1  0
 14  9  1  0
 14 13  2  0
 16 15  2  0
 16  9  1  0
 17 15  1  0
 18  4  1  0
 19 18  1  0
 20 19  2  0
 21 20  1  0
 22 21  2  0
 23 22  1  0
 24 23  2  0
 24 19  1  0
  1 25  1  0
  2 26  1  0
  2 27  1  0
  3 28  1  0
  3 29  1  0
  4 30  1  0
  5 31  1  0
  5 32  1  0
  6 33  1  0
  6 34  1  0
  7 35  1  0
  7 36  1  0
 10 37  1  0
 14 38  1  0
 16 39  1  0
 17 40  1  0
 18 41  1  0
 18 42  1  0
 20 43  1  0
 21 44  1  0
 22 45  1  0
 23 46  1  0
 24 47  1  0
M  CHG  1   4   1
M  END
>  <score>  (6) 
-8.116

$$$$
=
     RDKit          3D

 47 49  0  0  0  0  0  0  0  0999 V2000
    0.2170   66.2610   69.3410 C   0  0  0  0  0  0  0  0  0  0  0  0
    1.3990   67.2400   69.1960 C   0  0  0  0  0  0  0  0  0  0  0  0
    1.3210   68.1140   67.9470 C   0  0  0  0  0  0  0  0  0  0  0  0
    0.6290   67.3580   66.8510 N   0  0  0  0  0  4  0  0  0  0  0  0
   -0.8220   67.0650   67.1710 C   0  0  0  0  0  0  0  0  0  0  0  0
   -1.0300   66.8280   68.6680 C   0  0  0  0  0  0  0  0  0  0  0  0
   -0.0390   65.9050   70.8140 C   0  0  0  0  0  0  0  0  0  0  0  0
   -0.3450   64.5150   70.8750 O   0  0  0  0  0  0  0  0  0  0  0  0
    2.9510   62.1570   71.2910 C   0  0  0  0  0  0  0  0  0  0  0  0
    2.3930   62.4600   70.0700 C   0  0  0  0  0  0  0  0  0  0  0  0
    1.3010   63.2420   69.9270 N   0  0  0  0  0  0  0  0  0  0  0  0
    0.7670   63.7220   71.0600 C   0  0  0  0  0  0  0  0  0  0  0  0
    1.2290   63.4950   72.3010 N   0  0  0  0  0  0  0  0  0  0  0  0
    2.3250   62.7060   72.3880 C   0  0  0  0  0  0  0  0  0  0  0  0
    5.3230   61.7700   71.1730 N   0  0  0  0  0  0  0  0  0  0  0  0
    4.1350   61.3070   71.3950 C   0  0  0  0  0  0  0  0  0  0  0  0
    6.2460   60.7330   71.3470 O   0  0  0  0  0  0  0  0  0  0  0  0
    0.8050   68.0230   65.5010 C   0  0  0  0  0  0  0  0  0  0  0  0
    2.2040   67.8950   64.9650 C   0  0  0  0  0  0  0  0  0  0  0  0
    2.9730   69.0390   64.6960 C   0  0  0  0  0  0  0  0  0  0  0  0
    4.2580   68.9170   64.1670 C   0  0  0  0  0  0  0  0  0  0  0  0
    4.7890   67.6560   63.9020 C   0  0  0  0  0  0  0  0  0  0  0  0
    4.0370   66.5130   64.1690 C   0  0  0  0  0  0  0  0  0  0  0  0
    2.7510   66.6290   64.6980 C   0  0  0  0  0  0  0  0  0  0  0  0
    0.4794   65.3236   68.8288 H   0  0  0  0  0  0  0  0  0  0  0  0
    1.4169   67.8962   70.0787 H   0  0  0  0  0  0  0  0  0  0  0  0
    2.3114   66.6321   69.1069 H   0  0  0  0  0  0  0  0  0  0  0  0
    0.7555   69.0296   68.1747 H   0  0  0  0  0  0  0  0  0  0  0  0
    2.3373   68.3824   67.6227 H   0  0  0  0  0  0  0  0  0  0  0  0
    1.0948   66.4414   66.7890 H   0  0  0  0  0  0  0  0  0  0  0  0
   -1.4372   67.9207   66.8559 H   0  0  0  0  0  0  0  0  0  0  0  0
   -1.1160   66.1516   66.6332 H   0  0  0  0  0  0  0  0  0  0  0  0
   -1.2862   67.7851   69.1459 H   0  0  0  0  0  0  0  0  0  0  0  0
   -1.8400   66.0929   68.7840 H   0  0  0  0  0  0  0  0  0  0  0  0
    0.8589   66.1179   71.4127 H   0  0  0  0  0  0  0  0  0  0  0  0
   -0.8711   66.5015   71.2163 H   0  0  0  0  0  0  0  0  0  0  0  0
    2.8599   62.0444   69.1649 H   0  0  0  0  0  0  0  0  0  0  0  0
    2.7367   62.4923   73.3854 H   0  0  0  0  0  0  0  0  0  0  0  0
    4.0137   60.2485   71.6685 H   0  0  0  0  0  0  0  0  0  0  0  0
    7.2125   60.9037   71.2175 H   0  0  0  0  0  0  0  0  0  0  0  0
    0.1110   67.5563   64.7864 H   0  0  0  0  0  0  0  0  0  0  0  0
    0.5976   69.0954   65.6311 H   0  0  0  0  0  0  0  0  0  0  0  0
    2.5596   70.0370   64.9037 H   0  0  0  0  0  0  0  0  0  0  0  0
    4.8535   69.8181   63.9586 H   0  0  0  0  0  0  0  0  0  0  0  0
    5.8014   67.5627   63.4822 H   0  0  0  0  0  0  0  0  0  0  0  0
    4.4581   65.5180   63.9623 H   0  0  0  0  0  0  0  0  0  0  0  0
    2.1621   65.7238   64.9072 H   0  0  0  0  0  0  0  0  0  0  0  0
  2  1  1  0
  3  2  1  0
  4  3  1  0
  5  4  1  0
  6  5  1  0
  6  1  1  0
  7  1  1  0
  8  7  1  0
 10  9  2  0
 11 10  1  0
 12 11  2  0
 12  8  1  0
 13 12  1  0
 14  9  1  0
 14 13  2  0
 16 15  2  0
 16  9  1  0
 17 15  1  0
 18  4  1  0
 19 18  1  0
 20 19  2  0
 21 20  1  0
 22 21  2  0
 23 22  1  0
 24 23  2  0
 24 19  1  0
  1 25  1  0
  2 26  1  0
  2 27  1  0
  3 28  1  0
  3 29  1  0
  4 30  1  0
  5 31  1  0
  5 32  1  0
  6 33  1  0
  6 34  1  0
  7 35  1  0
  7 36  1  0
 10 37  1  0
 14 38  1  0
 16 39  1  0
 17 40  1  0
 18 41  1  0
 18 42  1  0
 20 43  1  0
 21 44  1  0
 22 45  1  0
 23 46  1  0
 24 47  1  0
M  CHG  1   4   1
M  END
>  <score>  (7) 
-8.108

$$$$
=
     RDKit          3D

 47 49  0  0  0  0  0  0  0  0999 V2000
    0.7300   65.5230   70.0470 C   0  0  0  0  0  0  0  0  0  0  0  0
   -0.0310   65.4230   71.3830 C   0  0  0  0  0  0  0  0  0  0  0  0
    0.4080   64.2490   72.2520 C   0  0  0  0  0  0  0  0  0  0  0  0
    0.8520   63.1160   71.3740 N   0  0  0  0  0  4  0  0  0  0  0  0
    2.0940   63.4500   70.5740 C   0  0  0  0  0  0  0  0  0  0  0  0
    2.1300   64.9290   70.1850 C   0  0  0  0  0  0  0  0  0  0  0  0
    0.7710   66.9700   69.5320 C   0  0  0  0  0  0  0  0  0  0  0  0
    0.3910   66.9510   68.1590 O   0  0  0  0  0  0  0  0  0  0  0  0
    3.1710   68.7490   65.7860 C   0  0  0  0  0  0  0  0  0  0  0  0
    2.7230   69.2980   66.9660 C   0  0  0  0  0  0  0  0  0  0  0  0
    1.8020   68.7050   67.7570 N   0  0  0  0  0  0  0  0  0  0  0  0
    1.3280   67.5260   67.3270 C   0  0  0  0  0  0  0  0  0  0  0  0
    1.6960   66.8980   66.1980 N   0  0  0  0  0  0  0  0  0  0  0  0
    2.6210   67.5340   65.4430 C   0  0  0  0  0  0  0  0  0  0  0  0
    5.2250   68.8130   64.5350 N   0  0  0  0  0  0  0  0  0  0  0  0
    4.1710   69.4280   64.9650 C   0  0  0  0  0  0  0  0  0  0  0  0
    5.9900   69.7120   63.7820 O   0  0  0  0  0  0  0  0  0  0  0  0
    0.9870   61.8170   72.1430 C   0  0  0  0  0  0  0  0  0  0  0  0
    2.3710   61.2340   72.0670 C   0  0  0  0  0  0  0  0  0  0  0  0
    3.3370   61.5580   73.0330 C   0  0  0  0  0  0  0  0  0  0  0  0
    4.6290   61.0430   72.9410 C   0  0  0  0  0  0  0  0  0  0  0  0
    4.9720   60.2000   71.8860 C   0  0  0  0  0  0  0  0  0  0  0  0
    4.0210   59.8680   70.9220 C   0  0  0  0  0  0  0  0  0  0  0  0
    2.7270   60.3810   71.0100 C   0  0  0  0  0  0  0  0  0  0  0  0
    0.1863   64.9330   69.2945 H   0  0  0  0  0  0  0  0  0  0  0  0
    0.1335   66.3531   71.9468 H   0  0  0  0  0  0  0  0  0  0  0  0
   -1.0913   65.2628   71.1379 H   0  0  0  0  0  0  0  0  0  0  0  0
    1.2423   64.5619   72.8970 H   0  0  0  0  0  0  0  0  0  0  0  0
   -0.4350   63.9200   72.8773 H   0  0  0  0  0  0  0  0  0  0  0  0
    0.1017   62.9710   70.6834 H   0  0  0  0  0  0  0  0  0  0  0  0
    2.9824   63.2181   71.1798 H   0  0  0  0  0  0  0  0  0  0  0  0
    2.0815   62.8509   69.6515 H   0  0  0  0  0  0  0  0  0  0  0  0
    2.6764   65.4861   70.9603 H   0  0  0  0  0  0  0  0  0  0  0  0
    2.6289   65.0093   69.2079 H   0  0  0  0  0  0  0  0  0  0  0  0
    0.0692   67.5924   70.1066 H   0  0  0  0  0  0  0  0  0  0  0  0
    1.7803   67.3919   69.6470 H   0  0  0  0  0  0  0  0  0  0  0  0
    3.1354   70.2680   67.2808 H   0  0  0  0  0  0  0  0  0  0  0  0
    2.9503   67.0567   64.5083 H   0  0  0  0  0  0  0  0  0  0  0  0
    4.0243   70.4871   64.7064 H   0  0  0  0  0  0  0  0  0  0  0  0
    6.8398   69.4148   63.3702 H   0  0  0  0  0  0  0  0  0  0  0  0
    0.7435   62.0070   73.1988 H   0  0  0  0  0  0  0  0  0  0  0  0
    0.2971   61.0907   71.6885 H   0  0  0  0  0  0  0  0  0  0  0  0
    3.0724   62.2230   73.8683 H   0  0  0  0  0  0  0  0  0  0  0  0
    5.3791   61.3026   73.7026 H   0  0  0  0  0  0  0  0  0  0  0  0
    5.9928   59.7965   71.8137 H   0  0  0  0  0  0  0  0  0  0  0  0
    4.2917   59.2004   70.0907 H   0  0  0  0  0  0  0  0  0  0  0  0
    1.9807   60.1157   70.2466 H   0  0  0  0  0  0  0  0  0  0  0  0
  2  1  1  0
  3  2  1  0
  4  3  1  0
  5  4  1  0
  6  5  1  0
  6  1  1  0
  7  1  1  0
  8  7  1  0
 10  9  2  0
 11 10  1  0
 12 11  2  0
 12  8  1  0
 13 12  1  0
 14  9  1  0
 14 13  2  0
 16 15  2  0
 16  9  1  0
 17 15  1  0
 18  4  1  0
 19 18  1  0
 20 19  2  0
 21 20  1  0
 22 21  2  0
 23 22  1  0
 24 23  2  0
 24 19  1  0
  1 25  1  0
  2 26  1  0
  2 27  1  0
  3 28  1  0
  3 29  1  0
  4 30  1  0
  5 31  1  0
  5 32  1  0
  6 33  1  0
  6 34  1  0
  7 35  1  0
  7 36  1  0
 10 37  1  0
 14 38  1  0
 16 39  1  0
 17 40  1  0
 18 41  1  0
 18 42  1  0
 20 43  1  0
 21 44  1  0
 22 45  1  0
 23 46  1  0
 24 47  1  0
M  CHG  1   4   1
M  END
>  <score>  (8) 
-8.034

$$$$
=
     RDKit          3D

 47 49  0  0  0  0  0  0  0  0999 V2000
    0.1330   66.8880   68.1880 C   0  0  0  0  0  0  0  0  0  0  0  0
    1.2930   67.8980   68.0870 C   0  0  0  0  0  0  0  0  0  0  0  0
    1.1360   68.8980   66.9450 C   0  0  0  0  0  0  0  0  0  0  0  0
    0.3950   68.2510   65.8120 N   0  0  0  0  0  4  0  0  0  0  0  0
   -1.0330   67.8990   66.1750 C   0  0  0  0  0  0  0  0  0  0  0  0
   -1.1560   67.5000   67.6470 C   0  0  0  0  0  0  0  0  0  0  0  0
   -0.0380   66.3720   69.6260 C   0  0  0  0  0  0  0  0  0  0  0  0
   -0.1910   64.9570   69.5620 O   0  0  0  0  0  0  0  0  0  0  0  0
    1.6520   62.9510   72.5900 C   0  0  0  0  0  0  0  0  0  0  0  0
    1.9830   62.7800   71.2650 C   0  0  0  0  0  0  0  0  0  0  0  0
    1.3760   63.4430   70.2580 N   0  0  0  0  0  0  0  0  0  0  0  0
    0.4060   64.2990   70.6150 C   0  0  0  0  0  0  0  0  0  0  0  0
    0.0050   64.5470   71.8730 N   0  0  0  0  0  0  0  0  0  0  0  0
    0.6460   63.8560   72.8450 C   0  0  0  0  0  0  0  0  0  0  0  0
    1.7210   61.8230   74.7140 N   0  0  0  0  0  0  0  0  0  0  0  0
    2.3400   62.2110   73.6460 C   0  0  0  0  0  0  0  0  0  0  0  0
    2.6290   61.1450   75.5350 O   0  0  0  0  0  0  0  0  0  0  0  0
    0.4890   69.0590   64.5340 C   0  0  0  0  0  0  0  0  0  0  0  0
    1.8170   68.9070   63.8430 C   0  0  0  0  0  0  0  0  0  0  0  0
    3.0150   69.0440   64.5600 C   0  0  0  0  0  0  0  0  0  0  0  0
    4.2440   68.9350   63.9090 C   0  0  0  0  0  0  0  0  0  0  0  0
    4.2900   68.6890   62.5390 C   0  0  0  0  0  0  0  0  0  0  0  0
    3.1070   68.5470   61.8170 C   0  0  0  0  0  0  0  0  0  0  0  0
    1.8750   68.6540   62.4630 C   0  0  0  0  0  0  0  0  0  0  0  0
    0.3791   66.0159   67.5644 H   0  0  0  0  0  0  0  0  0  0  0  0
    1.3507   68.4567   69.0328 H   0  0  0  0  0  0  0  0  0  0  0  0
    2.2069   67.3199   67.8856 H   0  0  0  0  0  0  0  0  0  0  0  0
    0.5723   69.7736   67.2993 H   0  0  0  0  0  0  0  0  0  0  0  0
    2.1298   69.2175   66.5982 H   0  0  0  0  0  0  0  0  0  0  0  0
    0.8682   67.3550   65.6271 H   0  0  0  0  0  0  0  0  0  0  0  0
   -1.6752   68.7720   65.9866 H   0  0  0  0  0  0  0  0  0  0  0  0
   -1.3445   67.0429   65.5585 H   0  0  0  0  0  0  0  0  0  0  0  0
   -1.3981   68.3958   68.2378 H   0  0  0  0  0  0  0  0  0  0  0  0
   -1.9490   66.7418   67.7262 H   0  0  0  0  0  0  0  0  0  0  0  0
    0.8498   66.6264   70.2236 H   0  0  0  0  0  0  0  0  0  0  0  0
   -0.9168   66.8340   70.0996 H   0  0  0  0  0  0  0  0  0  0  0  0
    2.7824   62.0672   71.0141 H   0  0  0  0  0  0  0  0  0  0  0  0
    0.3484   64.0260   73.8902 H   0  0  0  0  0  0  0  0  0  0  0  0
    3.4089   61.9785   73.5302 H   0  0  0  0  0  0  0  0  0  0  0  0
    2.3301   60.7738   76.4027 H   0  0  0  0  0  0  0  0  0  0  0  0
   -0.3039   68.7254   63.8484 H   0  0  0  0  0  0  0  0  0  0  0  0
    0.3763   70.1193   64.8041 H   0  0  0  0  0  0  0  0  0  0  0  0
    2.9851   69.2386   65.6422 H   0  0  0  0  0  0  0  0  0  0  0  0
    5.1786   69.0436   64.4789 H   0  0  0  0  0  0  0  0  0  0  0  0
    5.2602   68.6068   62.0271 H   0  0  0  0  0  0  0  0  0  0  0  0
    3.1444   68.3501   60.7354 H   0  0  0  0  0  0  0  0  0  0  0  0
    0.9441   68.5396   61.8882 H   0  0  0  0  0  0  0  0  0  0  0  0
  2  1  1  0
  3  2  1  0
  4  3  1  0
  5  4  1  0
  6  5  1  0
  6  1  1  0
  7  1  1  0
  8  7  1  0
 10  9  2  0
 11 10  1  0
 12 11  2  0
 12  8  1  0
 13 12  1  0
 14  9  1  0
 14 13  2  0
 16 15  2  0
 16  9  1  0
 17 15  1  0
 18  4  1  0
 19 18  1  0
 20 19  2  0
 21 20  1  0
 22 21  2  0
 23 22  1  0
 24 23  2  0
 24 19  1  0
  1 25  1  0
  2 26  1  0
  2 27  1  0
  3 28  1  0
  3 29  1  0
  4 30  1  0
  5 31  1  0
  5 32  1  0
  6 33  1  0
  6 34  1  0
  7 35  1  0
  7 36  1  0
 10 37  1  0
 14 38  1  0
 16 39  1  0
 17 40  1  0
 18 41  1  0
 18 42  1  0
 20 43  1  0
 21 44  1  0
 22 45  1  0
 23 46  1  0
 24 47  1  0
M  CHG  1   4   1
M  END
>  <score>  (9) 
-7.793

$$$$
