=
     RDKit          3D

 50 53  0  0  0  0  0  0  0  0999 V2000
   -0.4810   68.6240   66.9960 C   0  0  0  0  0  0  0  0  0  0  0  0
    0.6700   68.5940   68.0210 C   0  0  0  0  0  0  0  0  0  0  0  0
    1.1570   67.1820   68.3110 C   0  0  0  0  0  0  0  0  0  0  0  0
    0.0350   66.3280   68.8570 N   0  0  0  0  0  4  0  0  0  0  0  0
   -1.3330   66.6350   68.2780 C   0  0  0  0  0  0  0  0  0  0  0  0
   -1.1880   67.2600   66.9030 C   0  0  0  0  0  0  0  0  0  0  0  0
   -0.0280   69.0720   65.5890 C   0  0  0  0  0  0  0  0  0  0  0  0
    0.7870   68.0260   64.8080 C   0  0  0  0  0  0  0  0  0  0  0  0
    5.6350   70.0560   65.9530 C   0  0  0  0  0  0  0  0  0  0  0  0
    4.6380   69.8320   66.9030 C   0  0  0  0  0  0  0  0  0  0  0  0
    3.3970   69.2970   66.5200 C   0  0  0  0  0  0  0  0  0  0  0  0
    3.1890   68.9950   65.1620 C   0  0  0  0  0  0  0  0  0  0  0  0
    4.2120   69.2340   64.2610 C   0  0  0  0  0  0  0  0  0  0  0  0
    5.4520   69.7640   64.6020 C   0  0  0  0  0  0  0  0  0  0  0  0
    3.8090   68.8690   63.0160 O   0  0  0  0  0  0  0  0  0  0  0  0
    2.5140   68.3830   63.0710 N   0  0  0  0  0  0  0  0  0  0  0  0
    2.1440   68.4670   64.3570 C   0  0  0  0  0  0  0  0  0  0  0  0
    6.8440   70.5770   66.3140 O   0  0  0  0  0  0  0  0  0  0  0  0
    0.0210   66.2750   70.3720 C   0  0  0  0  0  0  0  0  0  0  0  0
    0.8180   65.1230   70.9250 C   0  0  0  0  0  0  0  0  0  0  0  0
    2.0640   64.7900   70.3710 C   0  0  0  0  0  0  0  0  0  0  0  0
    2.7860   63.7020   70.8620 C   0  0  0  0  0  0  0  0  0  0  0  0
    2.2740   62.9390   71.9090 C   0  0  0  0  0  0  0  0  0  0  0  0
    1.0420   63.2640   72.4700 C   0  0  0  0  0  0  0  0  0  0  0  0
    0.3150   64.3500   71.9830 C   0  0  0  0  0  0  0  0  0  0  0  0
   -1.1906   69.3764   67.3706 H   0  0  0  0  0  0  0  0  0  0  0  0
    1.5106   69.1823   67.6245 H   0  0  0  0  0  0  0  0  0  0  0  0
    0.2891   69.0156   68.9629 H   0  0  0  0  0  0  0  0  0  0  0  0
    1.5325   66.7319   67.3802 H   0  0  0  0  0  0  0  0  0  0  0  0
    1.9586   67.2331   69.0625 H   0  0  0  0  0  0  0  0  0  0  0  0
    0.2543   65.3782   68.5242 H   0  0  0  0  0  0  0  0  0  0  0  0
   -1.9107   65.7026   68.1949 H   0  0  0  0  0  0  0  0  0  0  0  0
   -1.8550   67.3404   68.9413 H   0  0  0  0  0  0  0  0  0  0  0  0
   -0.5961   66.5896   66.2625 H   0  0  0  0  0  0  0  0  0  0  0  0
   -2.1905   67.4102   66.4758 H   0  0  0  0  0  0  0  0  0  0  0  0
   -0.9260   69.3138   65.0016 H   0  0  0  0  0  0  0  0  0  0  0  0
    0.6388   69.9339   65.7390 H   0  0  0  0  0  0  0  0  0  0  0  0
    0.9152   67.1454   65.4547 H   0  0  0  0  0  0  0  0  0  0  0  0
    0.2159   67.8249   63.8896 H   0  0  0  0  0  0  0  0  0  0  0  0
    4.8251   70.0760   67.9591 H   0  0  0  0  0  0  0  0  0  0  0  0
    2.6068   69.1185   67.2641 H   0  0  0  0  0  0  0  0  0  0  0  0
    6.2382   69.9415   63.8534 H   0  0  0  0  0  0  0  0  0  0  0  0
    7.5416   70.7303   65.6284 H   0  0  0  0  0  0  0  0  0  0  0  0
    0.4444   67.2132   70.7600 H   0  0  0  0  0  0  0  0  0  0  0  0
   -1.0234   66.1360   70.6880 H   0  0  0  0  0  0  0  0  0  0  0  0
    2.4734   65.3903   69.5451 H   0  0  0  0  0  0  0  0  0  0  0  0
    3.7611   63.4462   70.4217 H   0  0  0  0  0  0  0  0  0  0  0  0
    2.8433   62.0795   72.2926 H   0  0  0  0  0  0  0  0  0  0  0  0
    0.6410   62.6628   73.2993 H   0  0  0  0  0  0  0  0  0  0  0  0
   -0.6578   64.6021   72.4305 H   0  0  0  0  0  0  0  0  0  0  0  0
  2  1  1  0
  3  2  1  0
  4  3  1  0
  5  4  1  0
  6  5  1  0
  6  1  1  0
  7  1  1  0
  8  7  1  0
 10  9  2  0
 11 10  1  0
 12 11  2  0
 13 12  1  0
 14 13  2  0
 14  9  1  0
 15 13  1  0
 16 15  1  0
 17 16  2  0
 17 12  1  0
 17  8  1  0
 18  9  1  0
 19  4  1  0
 20 19  1  0
 21 20  2  0
 22 21  1  0
 23 22  2  0
 24 23  1  0
 25 24  2  0
 25 20  1  0
  1 26  1  0
  2 27  1  0
  2 28  1  0
  3 29  1  0
  3 30  1  0
  4 31  1  0
  5 32  1  0
  5 33  1  0
  6 34  1  0
  6 35  1  0
  7 36  1  0
  7 37  1  0
  8 38  1  0
  8 39  1  0
 10 40  1  0
 11 41  1  0
 14 42  1  0
 18 43  1  0
 19 44  1  0
 19 45  1  0
 21 46  1  0
 22 47  1  0
 23 48  1  0
 24 49  1  0
 25 50  1  0
M  CHG  1   4   1
M  END
>  <score>  (1) 
-10.315

$$$$
=
     RDKit          3D

 50 53  0  0  0  0  0  0  0  0999 V2000
    0.2070   67.5530   68.4130 C   0  0  0  0  0  0  0  0  0  0  0  0
   -0.0150   67.1470   66.9420 C   0  0  0  0  0  0  0  0  0  0  0  0
    1.2910   66.9270   66.1940 C   0  0  0  0  0  0  0  0  0  0  0  0
    2.1330   68.1820   66.2010 N   0  0  0  0  0  4  0  0  0  0  0  0
    2.0290   69.0080   67.4690 C   0  0  0  0  0  0  0  0  0  0  0  0
    1.6190   68.1240   68.6330 C   0  0  0  0  0  0  0  0  0  0  0  0
   -0.0480   66.3980   69.4060 C   0  0  0  0  0  0  0  0  0  0  0  0
    1.1880   65.9510   70.2080 C   0  0  0  0  0  0  0  0  0  0  0  0
    3.9560   61.3640   70.6900 C   0  0  0  0  0  0  0  0  0  0  0  0
    4.5060   62.5650   70.2390 C   0  0  0  0  0  0  0  0  0  0  0  0
    3.7130   63.7200   70.1430 C   0  0  0  0  0  0  0  0  0  0  0  0
    2.3580   63.6340   70.5110 C   0  0  0  0  0  0  0  0  0  0  0  0
    1.8630   62.4190   70.9530 C   0  0  0  0  0  0  0  0  0  0  0  0
    2.6170   61.2540   71.0600 C   0  0  0  0  0  0  0  0  0  0  0  0
    0.5460   62.5540   71.2600 O   0  0  0  0  0  0  0  0  0  0  0  0
    0.1480   63.8600   71.0280 N   0  0  0  0  0  0  0  0  0  0  0  0
    1.2340   64.5010   70.5720 C   0  0  0  0  0  0  0  0  0  0  0  0
    4.7180   60.2360   70.7850 O   0  0  0  0  0  0  0  0  0  0  0  0
    1.9470   69.0210   64.9510 C   0  0  0  0  0  0  0  0  0  0  0  0
    3.1740   69.0500   64.0780 C   0  0  0  0  0  0  0  0  0  0  0  0
    3.0910   68.6890   62.7230 C   0  0  0  0  0  0  0  0  0  0  0  0
    4.2330   68.6840   61.9240 C   0  0  0  0  0  0  0  0  0  0  0  0
    5.4670   69.0390   62.4660 C   0  0  0  0  0  0  0  0  0  0  0  0
    5.5600   69.4040   63.8060 C   0  0  0  0  0  0  0  0  0  0  0  0
    4.4200   69.4110   64.6110 C   0  0  0  0  0  0  0  0  0  0  0  0
   -0.5375   68.3362   68.6185 H   0  0  0  0  0  0  0  0  0  0  0  0
   -0.5967   66.2137   66.9178 H   0  0  0  0  0  0  0  0  0  0  0  0
   -0.5495   67.9703   66.4455 H   0  0  0  0  0  0  0  0  0  0  0  0
    1.8516   66.1142   66.6789 H   0  0  0  0  0  0  0  0  0  0  0  0
    1.0595   66.6643   65.1512 H   0  0  0  0  0  0  0  0  0  0  0  0
    3.1030   67.8356   66.1916 H   0  0  0  0  0  0  0  0  0  0  0  0
    3.0051   69.4665   67.6860 H   0  0  0  0  0  0  0  0  0  0  0  0
    1.2712   69.7926   67.3274 H   0  0  0  0  0  0  0  0  0  0  0  0
    2.3340   67.2931   68.7245 H   0  0  0  0  0  0  0  0  0  0  0  0
    1.6161   68.7288   69.5518 H   0  0  0  0  0  0  0  0  0  0  0  0
   -0.8192   66.7241   70.1194 H   0  0  0  0  0  0  0  0  0  0  0  0
   -0.3545   65.5318   68.8012 H   0  0  0  0  0  0  0  0  0  0  0  0
    2.0811   66.1773   69.6070 H   0  0  0  0  0  0  0  0  0  0  0  0
    1.1418   66.4986   71.1609 H   0  0  0  0  0  0  0  0  0  0  0  0
    5.5683   62.6071   69.9567 H   0  0  0  0  0  0  0  0  0  0  0  0
    4.1411   64.6692   69.7885 H   0  0  0  0  0  0  0  0  0  0  0  0
    2.1836   60.3070   71.4140 H   0  0  0  0  0  0  0  0  0  0  0  0
    4.3140   59.3913   71.1066 H   0  0  0  0  0  0  0  0  0  0  0  0
    1.1118   68.6040   64.3692 H   0  0  0  0  0  0  0  0  0  0  0  0
    1.7457   70.0535   65.2727 H   0  0  0  0  0  0  0  0  0  0  0  0
    2.1194   68.4087   62.2901 H   0  0  0  0  0  0  0  0  0  0  0  0
    4.1603   68.3994   60.8639 H   0  0  0  0  0  0  0  0  0  0  0  0
    6.3677   69.0307   61.8346 H   0  0  0  0  0  0  0  0  0  0  0  0
    6.5340   69.6875   64.2313 H   0  0  0  0  0  0  0  0  0  0  0  0
    4.4991   69.7012   65.6691 H   0  0  0  0  0  0  0  0  0  0  0  0
  2  1  1  0
  3  2  1  0
  4  3  1  0
  5  4  1  0
  6  5  1  0
  6  1  1  0
  7  1  1  0
  8  7  1  0
 10  9  2  0
 11 10  1  0
 12 11  2  0
 13 12  1  0
 14 13  2  0
 14  9  1  0
 15 13  1  0
 16 15  1  0
 17 16  2  0
 17 12  1  0
 17  8  1  0
 18  9  1  0
 19  4  1  0
 20 19  1  0
 21 20  2  0
 22 21  1  0
 23 22  2  0
 24 23  1  0
 25 24  2  0
 25 20  1  0
  1 26  1  0
  2 27  1  0
  2 28  1  0
  3 29  1  0
  3 30  1  0
  4 31  1  0
  5 32  1  0
  5 33  1  0
  6 34  1  0
  6 35  1  0
  7 36  1  0
  7 37  1  0
  8 38  1  0
  8 39  1  0
 10 40  1  0
 11 41  1  0
 14 42  1  0
 18 43  1  0
 19 44  1  0
 19 45  1  0
 21 46  1  0
 22 47  1  0
 23 48  1  0
 24 49  1  0
 25 50  1  0
M  CHG  1   4   1
M  END
>  <score>  (2) 
-9.781

$$$$
=
     RDKit          3D

 50 53  0  0  0  0  0  0  0  0999 V2000
    0.8180   66.2610   70.3370 C   0  0  0  0  0  0  0  0  0  0  0  0
    1.8870   65.1760   70.0940 C   0  0  0  0  0  0  0  0  0  0  0  0
    1.3560   63.7700   70.3300 C   0  0  0  0  0  0  0  0  0  0  0  0
    0.8580   63.6140   71.7490 N   0  0  0  0  0  4  0  0  0  0  0  0
    0.2140   64.8570   72.3350 C   0  0  0  0  0  0  0  0  0  0  0  0
   -0.3270   65.7360   71.2220 C   0  0  0  0  0  0  0  0  0  0  0  0
    0.2390   66.8440   69.0290 C   0  0  0  0  0  0  0  0  0  0  0  0
    1.1180   67.9120   68.3540 C   0  0  0  0  0  0  0  0  0  0  0  0
    3.9620   68.9630   63.9110 C   0  0  0  0  0  0  0  0  0  0  0  0
    4.2810   69.4550   65.1770 C   0  0  0  0  0  0  0  0  0  0  0  0
    3.4850   69.1310   66.2880 C   0  0  0  0  0  0  0  0  0  0  0  0
    2.3650   68.3040   66.0910 C   0  0  0  0  0  0  0  0  0  0  0  0
    2.0940   67.8420   64.8140 C   0  0  0  0  0  0  0  0  0  0  0  0
    2.8580   68.1420   63.6900 C   0  0  0  0  0  0  0  0  0  0  0  0
    0.9830   67.0610   64.8450 O   0  0  0  0  0  0  0  0  0  0  0  0
    0.5000   66.9930   66.1410 N   0  0  0  0  0  0  0  0  0  0  0  0
    1.3260   67.7450   66.8820 C   0  0  0  0  0  0  0  0  0  0  0  0
    4.7280   69.2730   62.8240 O   0  0  0  0  0  0  0  0  0  0  0  0
    1.8990   63.0150   72.6750 C   0  0  0  0  0  0  0  0  0  0  0  0
    2.7740   61.9980   71.9910 C   0  0  0  0  0  0  0  0  0  0  0  0
    2.2900   60.7090   71.7220 C   0  0  0  0  0  0  0  0  0  0  0  0
    3.1130   59.7570   71.1190 C   0  0  0  0  0  0  0  0  0  0  0  0
    4.4230   60.0830   70.7780 C   0  0  0  0  0  0  0  0  0  0  0  0
    4.9130   61.3620   71.0350 C   0  0  0  0  0  0  0  0  0  0  0  0
    4.0950   62.3160   71.6380 C   0  0  0  0  0  0  0  0  0  0  0  0
    1.3380   67.0760   70.8617 H   0  0  0  0  0  0  0  0  0  0  0  0
    2.2354   65.2512   69.0533 H   0  0  0  0  0  0  0  0  0  0  0  0
    2.7054   65.3479   70.8086 H   0  0  0  0  0  0  0  0  0  0  0  0
    0.5268   63.5763   69.6337 H   0  0  0  0  0  0  0  0  0  0  0  0
    2.1728   63.0525   70.1627 H   0  0  0  0  0  0  0  0  0  0  0  0
    0.0912   62.9304   71.6736 H   0  0  0  0  0  0  0  0  0  0  0  0
   -0.6115   64.5609   72.9990 H   0  0  0  0  0  0  0  0  0  0  0  0
    0.9681   65.4196   72.9049 H   0  0  0  0  0  0  0  0  0  0  0  0
   -1.0212   65.1485   70.6032 H   0  0  0  0  0  0  0  0  0  0  0  0
   -0.8483   66.5941   71.6712 H   0  0  0  0  0  0  0  0  0  0  0  0
    0.0991   66.0165   68.3179 H   0  0  0  0  0  0  0  0  0  0  0  0
   -0.7015   67.3446   69.3026 H   0  0  0  0  0  0  0  0  0  0  0  0
    0.6465   68.8919   68.5197 H   0  0  0  0  0  0  0  0  0  0  0  0
    2.1138   67.8133   68.8107 H   0  0  0  0  0  0  0  0  0  0  0  0
    5.1619   70.1011   65.3060 H   0  0  0  0  0  0  0  0  0  0  0  0
    3.7320   69.5152   67.2887 H   0  0  0  0  0  0  0  0  0  0  0  0
    2.6065   67.7558   62.6912 H   0  0  0  0  0  0  0  0  0  0  0  0
    4.4889   68.9163   61.9320 H   0  0  0  0  0  0  0  0  0  0  0  0
    2.5362   63.8256   73.0582 H   0  0  0  0  0  0  0  0  0  0  0  0
    1.3631   62.4987   73.4851 H   0  0  0  0  0  0  0  0  0  0  0  0
    1.2553   60.4471   71.9881 H   0  0  0  0  0  0  0  0  0  0  0  0
    2.7264   58.7480   70.9129 H   0  0  0  0  0  0  0  0  0  0  0  0
    5.0715   59.3306   70.3055 H   0  0  0  0  0  0  0  0  0  0  0  0
    5.9470   61.6191   70.7616 H   0  0  0  0  0  0  0  0  0  0  0  0
    4.4869   63.3241   71.8385 H   0  0  0  0  0  0  0  0  0  0  0  0
  2  1  1  0
  3  2  1  0
  4  3  1  0
  5  4  1  0
  6  5  1  0
  6  1  1  0
  7  1  1  0
  8  7  1  0
 10  9  2  0
 11 10  1  0
 12 11  2  0
 13 12  1  0
 14 13  2  0
 14  9  1  0
 15 13  1  0
 16 15  1  0
 17 16  2  0
 17 12  1  0
 17  8  1  0
 18  9  1  0
 19  4  1  0
 20 19  1  0
 21 20  2  0
 22 21  1  0
 23 22  2  0
 24 23  1  0
 25 24  2  0
 25 20  1  0
  1 26  1  0
  2 27  1  0
  2 28  1  0
  3 29  1  0
  3 30  1  0
  4 31  1  0
  5 32  1  0
  5 33  1  0
  6 34  1  0
  6 35  1  0
  7 36  1  0
  7 37  1  0
  8 38  1  0
  8 39  1  0
 10 40  1  0
 11 41  1  0
 14 42  1  0
 18 43  1  0
 19 44  1  0
 19 45  1  0
 21 46  1  0
 22 47  1  0
 23 48  1  0
 24 49  1  0
 25 50  1  0
M  CHG  1   4   1
M  END
>  <score>  (3) 
-9.612

$$$$
=
     RDKit          3D

 50 53  0  0  0  0  0  0  0  0999 V2000
    1.1150   64.7930   71.1120 C   0  0  0  0  0  0  0  0  0  0  0  0
    2.4810   64.2450   70.6530 C   0  0  0  0  0  0  0  0  0  0  0  0
    2.3880   62.8310   70.1010 C   0  0  0  0  0  0  0  0  0  0  0  0
    1.8400   61.8820   71.1430 N   0  0  0  0  0  4  0  0  0  0  0  0
    0.7980   62.4870   72.0650 C   0  0  0  0  0  0  0  0  0  0  0  0
    0.1140   63.6560   71.3800 C   0  0  0  0  0  0  0  0  0  0  0  0
    0.5020   65.8030   70.1170 C   0  0  0  0  0  0  0  0  0  0  0  0
    1.5120   66.7680   69.4710 C   0  0  0  0  0  0  0  0  0  0  0  0
   -2.5670   68.2880   66.3110 C   0  0  0  0  0  0  0  0  0  0  0  0
   -2.6280   67.2170   67.2050 C   0  0  0  0  0  0  0  0  0  0  0  0
   -1.5160   66.8870   67.9960 C   0  0  0  0  0  0  0  0  0  0  0  0
   -0.3470   67.6580   67.8640 C   0  0  0  0  0  0  0  0  0  0  0  0
   -0.3400   68.7100   66.9640 C   0  0  0  0  0  0  0  0  0  0  0  0
   -1.4210   69.0660   66.1630 C   0  0  0  0  0  0  0  0  0  0  0  0
    0.8720   69.3220   66.9970 O   0  0  0  0  0  0  0  0  0  0  0  0
    1.6880   68.6870   67.9190 N   0  0  0  0  0  0  0  0  0  0  0  0
    0.9560   67.6870   68.4300 C   0  0  0  0  0  0  0  0  0  0  0  0
   -3.6410   68.6170   65.5360 O   0  0  0  0  0  0  0  0  0  0  0  0
    2.9300   61.1530   71.9050 C   0  0  0  0  0  0  0  0  0  0  0  0
    2.7240   59.6620   71.9390 C   0  0  0  0  0  0  0  0  0  0  0  0
    3.3730   58.8340   71.0090 C   0  0  0  0  0  0  0  0  0  0  0  0
    3.1550   57.4560   71.0200 C   0  0  0  0  0  0  0  0  0  0  0  0
    2.2910   56.8930   71.9560 C   0  0  0  0  0  0  0  0  0  0  0  0
    1.6460   57.7040   72.8860 C   0  0  0  0  0  0  0  0  0  0  0  0
    1.8600   59.0820   72.8800 C   0  0  0  0  0  0  0  0  0  0  0  0
    1.3125   65.3317   72.0505 H   0  0  0  0  0  0  0  0  0  0  0  0
    2.8793   64.9043   69.8677 H   0  0  0  0  0  0  0  0  0  0  0  0
    3.1413   64.2167   71.5323 H   0  0  0  0  0  0  0  0  0  0  0  0
    1.7220   62.8288   69.2256 H   0  0  0  0  0  0  0  0  0  0  0  0
    3.3966   62.4970   69.8160 H   0  0  0  0  0  0  0  0  0  0  0  0
    1.3285   61.1742   70.5968 H   0  0  0  0  0  0  0  0  0  0  0  0
    0.0478   61.7232   72.3176 H   0  0  0  0  0  0  0  0  0  0  0  0
    1.2907   62.8438   72.9815 H   0  0  0  0  0  0  0  0  0  0  0  0
   -0.3101   63.3159   70.4237 H   0  0  0  0  0  0  0  0  0  0  0  0
   -0.6818   64.0344   72.0384 H   0  0  0  0  0  0  0  0  0  0  0  0
    0.0092   65.2356   69.3138 H   0  0  0  0  0  0  0  0  0  0  0  0
   -0.1933   66.4265   70.6982 H   0  0  0  0  0  0  0  0  0  0  0  0
    1.9474   67.3862   70.2699 H   0  0  0  0  0  0  0  0  0  0  0  0
    2.2434   66.1324   68.9503 H   0  0  0  0  0  0  0  0  0  0  0  0
   -3.5532   66.6281   67.2900 H   0  0  0  0  0  0  0  0  0  0  0  0
   -1.5580   66.0450   68.7026 H   0  0  0  0  0  0  0  0  0  0  0  0
   -1.3735   69.9086   65.4575 H   0  0  0  0  0  0  0  0  0  0  0  0
   -3.5825   69.3791   64.9068 H   0  0  0  0  0  0  0  0  0  0  0  0
    3.8960   61.3630   71.4226 H   0  0  0  0  0  0  0  0  0  0  0  0
    2.9043   61.5136   72.9439 H   0  0  0  0  0  0  0  0  0  0  0  0
    4.0567   59.2740   70.2681 H   0  0  0  0  0  0  0  0  0  0  0  0
    3.6663   56.8133   70.2883 H   0  0  0  0  0  0  0  0  0  0  0  0
    2.1180   55.8067   71.9606 H   0  0  0  0  0  0  0  0  0  0  0  0
    0.9665   57.2570   73.6266 H   0  0  0  0  0  0  0  0  0  0  0  0
    1.3484   59.7180   73.6174 H   0  0  0  0  0  0  0  0  0  0  0  0
  2  1  1  0
  3  2  1  0
  4  3  1  0
  5  4  1  0
  6  5  1  0
  6  1  1  0
  7  1  1  0
  8  7  1  0
 10  9  2  0
 11 10  1  0
 12 11  2  0
 13 12  1  0
 14 13  2  0
 14  9  1  0
 15 13  1  0
 16 15  1  0
 17 16  2  0
 17 12  1  0
 17  8  1  0
 18  9  1  0
 19  4  1  0
 20 19  1  0
 21 20  2  0
 22 21  1  0
 23 22  2  0
 24 23  1  0
 25 24  2  0
 25 20  1  0
  1 26  1  0
  2 27  1  0
  2 28  1  0
  3 29  1  0
  3 30  1  0
  4 31  1  0
  5 32  1  0
  5 33  1  0
  6 34  1  0
  6 35  1  0
  7 36  1  0
  7 37  1  0
  8 38  1  0
  8 39  1  0
 10 40  1  0
 11 41  1  0
 14 42  1  0
 18 43  1  0
 19 44  1  0
 19 45  1  0
 21 46  1  0
 22 47  1  0
 23 48  1  0
 24 49  1  0
 25 50  1  0
M  CHG  1   4   1
M  END
>  <score>  (4) 
-9.376

$$$$
=
     RDKit          3D

 50 53  0  0  0  0  0  0  0  0999 V2000
    0.2940   66.5150   68.5030 C   0  0  0  0  0  0  0  0  0  0  0  0
    1.7260   66.9960   68.8100 C   0  0  0  0  0  0  0  0  0  0  0  0
    1.8600   68.5100   68.7480 C   0  0  0  0  0  0  0  0  0  0  0  0
    1.4860   69.0270   67.3780 N   0  0  0  0  0  4  0  0  0  0  0  0
    0.3700   68.2610   66.6940 C   0  0  0  0  0  0  0  0  0  0  0  0
   -0.5040   67.5800   67.7310 C   0  0  0  0  0  0  0  0  0  0  0  0
   -0.4870   66.0930   69.7670 C   0  0  0  0  0  0  0  0  0  0  0  0
    0.3900   65.7370   70.9800 C   0  0  0  0  0  0  0  0  0  0  0  0
    3.7440   61.5680   70.4270 C   0  0  0  0  0  0  0  0  0  0  0  0
    4.0430   62.8710   70.0230 C   0  0  0  0  0  0  0  0  0  0  0  0
    3.1090   63.9040   70.2050 C   0  0  0  0  0  0  0  0  0  0  0  0
    1.8740   63.5930   70.8000 C   0  0  0  0  0  0  0  0  0  0  0  0
    1.6290   62.2860   71.1840 C   0  0  0  0  0  0  0  0  0  0  0  0
    2.5270   61.2360   71.0190 C   0  0  0  0  0  0  0  0  0  0  0  0
    0.3910   62.2040   71.7390 O   0  0  0  0  0  0  0  0  0  0  0  0
   -0.2040   63.4550   71.7320 N   0  0  0  0  0  0  0  0  0  0  0  0
    0.6850   64.2820   71.1630 C   0  0  0  0  0  0  0  0  0  0  0  0
    4.6430   60.5560   70.2530 O   0  0  0  0  0  0  0  0  0  0  0  0
    2.6890   69.2200   66.4740 C   0  0  0  0  0  0  0  0  0  0  0  0
    3.8880   69.7650   67.2050 C   0  0  0  0  0  0  0  0  0  0  0  0
    3.7440   70.3460   68.4740 C   0  0  0  0  0  0  0  0  0  0  0  0
    4.8490   70.8810   69.1350 C   0  0  0  0  0  0  0  0  0  0  0  0
    6.1070   70.8400   68.5380 C   0  0  0  0  0  0  0  0  0  0  0  0
    6.2630   70.2600   67.2810 C   0  0  0  0  0  0  0  0  0  0  0  0
    5.1610   69.7240   66.6160 C   0  0  0  0  0  0  0  0  0  0  0  0
    0.4106   65.6212   67.8725 H   0  0  0  0  0  0  0  0  0  0  0  0
    2.0020   66.6589   69.8200 H   0  0  0  0  0  0  0  0  0  0  0  0
    2.3918   66.5708   68.0445 H   0  0  0  0  0  0  0  0  0  0  0  0
    1.1941   68.9618   69.4980 H   0  0  0  0  0  0  0  0  0  0  0  0
    2.9066   68.7797   68.9526 H   0  0  0  0  0  0  0  0  0  0  0  0
    1.0910   69.9607   67.5600 H   0  0  0  0  0  0  0  0  0  0  0  0
   -0.2419   68.9587   66.1035 H   0  0  0  0  0  0  0  0  0  0  0  0
    0.8079   67.4979   66.0338 H   0  0  0  0  0  0  0  0  0  0  0  0
   -0.8779   68.3342   68.4391 H   0  0  0  0  0  0  0  0  0  0  0  0
   -1.3432   67.0883   67.2171 H   0  0  0  0  0  0  0  0  0  0  0  0
   -1.1471   66.9246   70.0546 H   0  0  0  0  0  0  0  0  0  0  0  0
   -1.0335   65.1762   69.5010 H   0  0  0  0  0  0  0  0  0  0  0  0
    1.3488   66.2650   70.8703 H   0  0  0  0  0  0  0  0  0  0  0  0
   -0.1873   66.0395   71.8662 H   0  0  0  0  0  0  0  0  0  0  0  0
    5.0162   63.0896   69.5593 H   0  0  0  0  0  0  0  0  0  0  0  0
    3.3386   64.9324   69.8893 H   0  0  0  0  0  0  0  0  0  0  0  0
    2.2912   60.2093   71.3357 H   0  0  0  0  0  0  0  0  0  0  0  0
    4.4167   59.6373   70.5445 H   0  0  0  0  0  0  0  0  0  0  0  0
    2.9575   68.2481   66.0343 H   0  0  0  0  0  0  0  0  0  0  0  0
    2.4096   69.9537   65.7036 H   0  0  0  0  0  0  0  0  0  0  0  0
    2.7531   70.3796   68.9504 H   0  0  0  0  0  0  0  0  0  0  0  0
    4.7273   71.3360   70.1291 H   0  0  0  0  0  0  0  0  0  0  0  0
    6.9772   71.2656   69.0591 H   0  0  0  0  0  0  0  0  0  0  0  0
    7.2575   70.2248   66.8122 H   0  0  0  0  0  0  0  0  0  0  0  0
    5.2902   69.2664   65.6241 H   0  0  0  0  0  0  0  0  0  0  0  0
  2  1  1  0
  3  2  1  0
  4  3  1  0
  5  4  1  0
  6  5  1  0
  6  1  1  0
  7  1  1  0
  8  7  1  0
 10  9  2  0
 11 10  1  0
 12 11  2  0
 13 12  1  0
 14 13  2  0
 14  9  1  0
 15 13  1  0
 16 15  1  0
 17 16  2  0
 17 12  1  0
 17  8  1  0
 18  9  1  0
 19  4  1  0
 20 19  1  0
 21 20  2  0
 22 21  1  0
 23 22  2  0
 24 23  1  0
 25 24  2  0
 25 20  1  0
  1 26  1  0
  2 27  1  0
  2 28  1  0
  3 29  1  0
  3 30  1  0
  4 31  1  0
  5 32  1  0
  5 33  1  0
  6 34  1  0
  6 35  1  0
  7 36  1  0
  7 37  1  0
  8 38  1  0
  8 39  1  0
 10 40  1  0
 11 41  1  0
 14 42  1  0
 18 43  1  0
 19 44  1  0
 19 45  1  0
 21 46  1  0
 22 47  1  0
 23 48  1  0
 24 49  1  0
 25 50  1  0
M  CHG  1   4   1
M  END
>  <score>  (5) 
-9.253

$$$$
=
     RDKit          3D

 50 53  0  0  0  0  0  0  0  0999 V2000
    1.1970   66.4840   69.9040 C   0  0  0  0  0  0  0  0  0  0  0  0
    2.2510   65.3590   69.9260 C   0  0  0  0  0  0  0  0  0  0  0  0
    1.6270   63.9770   70.0570 C   0  0  0  0  0  0  0  0  0  0  0  0
    0.8160   63.8710   71.3280 N   0  0  0  0  0  4  0  0  0  0  0  0
    0.1040   65.1480   71.7340 C   0  0  0  0  0  0  0  0  0  0  0  0
   -0.1370   66.0180   70.5140 C   0  0  0  0  0  0  0  0  0  0  0  0
    0.9510   67.0560   68.4900 C   0  0  0  0  0  0  0  0  0  0  0  0
    1.0040   68.5910   68.3960 C   0  0  0  0  0  0  0  0  0  0  0  0
    5.0610   69.5960   65.0100 C   0  0  0  0  0  0  0  0  0  0  0  0
    3.8930   68.9200   64.6520 C   0  0  0  0  0  0  0  0  0  0  0  0
    2.8800   68.6990   65.5990 C   0  0  0  0  0  0  0  0  0  0  0  0
    3.0720   69.1740   66.9090 C   0  0  0  0  0  0  0  0  0  0  0  0
    4.2470   69.8400   67.2110 C   0  0  0  0  0  0  0  0  0  0  0  0
    5.2740   70.0760   66.3010 C   0  0  0  0  0  0  0  0  0  0  0  0
    4.2280   70.2170   68.5160 O   0  0  0  0  0  0  0  0  0  0  0  0
    3.0400   69.8090   69.0990 N   0  0  0  0  0  0  0  0  0  0  0  0
    2.3540   69.1780   68.1350 C   0  0  0  0  0  0  0  0  0  0  0  0
    6.0530   69.8140   64.0990 O   0  0  0  0  0  0  0  0  0  0  0  0
    1.5980   63.2590   72.4750 C   0  0  0  0  0  0  0  0  0  0  0  0
    2.4960   62.1330   72.0360 C   0  0  0  0  0  0  0  0  0  0  0  0
    3.8680   62.3530   71.8370 C   0  0  0  0  0  0  0  0  0  0  0  0
    4.6920   61.3170   71.3970 C   0  0  0  0  0  0  0  0  0  0  0  0
    4.1570   60.0540   71.1540 C   0  0  0  0  0  0  0  0  0  0  0  0
    2.7990   59.8230   71.3530 C   0  0  0  0  0  0  0  0  0  0  0  0
    1.9690   60.8550   71.7920 C   0  0  0  0  0  0  0  0  0  0  0  0
    1.6153   67.2932   70.5206 H   0  0  0  0  0  0  0  0  0  0  0  0
    2.8280   65.3981   68.9903 H   0  0  0  0  0  0  0  0  0  0  0  0
    2.8930   65.5201   70.8046 H   0  0  0  0  0  0  0  0  0  0  0  0
    0.9697   63.7951   69.1939 H   0  0  0  0  0  0  0  0  0  0  0  0
    2.4326   63.2288   70.0901 H   0  0  0  0  0  0  0  0  0  0  0  0
    0.0605   63.2121   71.0912 H   0  0  0  0  0  0  0  0  0  0  0  0
   -0.8610   64.8954   72.1977 H   0  0  0  0  0  0  0  0  0  0  0  0
    0.7302   65.6981   72.4519 H   0  0  0  0  0  0  0  0  0  0  0  0
   -0.6947   65.4395   69.7628 H   0  0  0  0  0  0  0  0  0  0  0  0
   -0.7135   66.9034   70.8202 H   0  0  0  0  0  0  0  0  0  0  0  0
    1.7178   66.6454   67.8167 H   0  0  0  0  0  0  0  0  0  0  0  0
   -0.0725   66.7642   68.2119 H   0  0  0  0  0  0  0  0  0  0  0  0
    0.3362   68.9029   67.5795 H   0  0  0  0  0  0  0  0  0  0  0  0
    0.7016   68.9628   69.3861 H   0  0  0  0  0  0  0  0  0  0  0  0
    3.7655   68.5581   63.6211 H   0  0  0  0  0  0  0  0  0  0  0  0
    1.9578   68.1668   65.3228 H   0  0  0  0  0  0  0  0  0  0  0  0
    6.1949   70.6075   66.5830 H   0  0  0  0  0  0  0  0  0  0  0  0
    6.8754   70.2950   64.3682 H   0  0  0  0  0  0  0  0  0  0  0  0
    2.2173   64.0429   72.9355 H   0  0  0  0  0  0  0  0  0  0  0  0
    0.8697   62.8426   73.1864 H   0  0  0  0  0  0  0  0  0  0  0  0
    4.2958   63.3480   72.0291 H   0  0  0  0  0  0  0  0  0  0  0  0
    5.7659   61.4977   71.2417 H   0  0  0  0  0  0  0  0  0  0  0  0
    4.8080   59.2390   70.8047 H   0  0  0  0  0  0  0  0  0  0  0  0
    2.3790   58.8241   71.1637 H   0  0  0  0  0  0  0  0  0  0  0  0
    0.8965   60.6663   71.9477 H   0  0  0  0  0  0  0  0  0  0  0  0
  2  1  1  0
  3  2  1  0
  4  3  1  0
  5  4  1  0
  6  5  1  0
  6  1  1  0
  7  1  1  0
  8  7  1  0
 10  9  2  0
 11 10  1  0
 12 11  2  0
 13 12  1  0
 14 13  2  0
 14  9  1  0
 15 13  1  0
 16 15  1  0
 17 16  2  0
 17 12  1  0
 17  8  1  0
 18  9  1  0
 19  4  1  0
 20 19  1  0
 21 20  2  0
 22 21  1  0
 23 22  2  0
 24 23  1  0
 25 24  2  0
 25 20  1  0
  1 26  1  0
  2 27  1  0
  2 28  1  0
  3 29  1  0
  3 30  1  0
  4 31  1  0
  5 32  1  0
  5 33  1  0
  6 34  1  0
  6 35  1  0
  7 36  1  0
  7 37  1  0
  8 38  1  0
  8 39  1  0
 10 40  1  0
 11 41  1  0
 14 42  1  0
 18 43  1  0
 19 44  1  0
 19 45  1  0
 21 46  1  0
 22 47  1  0
 23 48  1  0
 24 49  1  0
 25 50  1  0
M  CHG  1   4   1
M  END
>  <score>  (6) 
-9.176

$$$$
=
     RDKit          3D

 50 53  0  0  0  0  0  0  0  0999 V2000
    2.2320   63.8930   70.2250 C   0  0  0  0  0  0  0  0  0  0  0  0
    1.4440   62.7830   70.9490 C   0  0  0  0  0  0  0  0  0  0  0  0
    2.2370   62.1480   72.0810 C   0  0  0  0  0  0  0  0  0  0  0  0
    3.5190   61.5370   71.5640 N   0  0  0  0  0  4  0  0  0  0  0  0
    4.1650   62.2950   70.4190 C   0  0  0  0  0  0  0  0  0  0  0  0
    3.7470   63.7530   70.4600 C   0  0  0  0  0  0  0  0  0  0  0  0
    1.7740   65.3150   70.6180 C   0  0  0  0  0  0  0  0  0  0  0  0
    0.4010   65.7290   70.0580 C   0  0  0  0  0  0  0  0  0  0  0  0
   -2.0930   68.5380   66.2090 C   0  0  0  0  0  0  0  0  0  0  0  0
   -2.6810   67.4870   66.9140 C   0  0  0  0  0  0  0  0  0  0  0  0
   -1.9590   66.8040   67.9070 C   0  0  0  0  0  0  0  0  0  0  0  0
   -0.6370   67.2060   68.1690 C   0  0  0  0  0  0  0  0  0  0  0  0
   -0.1030   68.2560   67.4420 C   0  0  0  0  0  0  0  0  0  0  0  0
   -0.7850   68.9540   66.4510 C   0  0  0  0  0  0  0  0  0  0  0  0
    1.1720   68.4850   67.8530 O   0  0  0  0  0  0  0  0  0  0  0  0
    1.5030   67.5920   68.8590 N   0  0  0  0  0  0  0  0  0  0  0  0
    0.4190   66.8230   69.0390 C   0  0  0  0  0  0  0  0  0  0  0  0
   -2.7850   69.2070   65.2420 O   0  0  0  0  0  0  0  0  0  0  0  0
    3.3890   60.0550   71.2730 C   0  0  0  0  0  0  0  0  0  0  0  0
    3.1260   59.2360   72.5090 C   0  0  0  0  0  0  0  0  0  0  0  0
    2.0170   58.3770   72.5700 C   0  0  0  0  0  0  0  0  0  0  0  0
    1.7540   57.6450   73.7280 C   0  0  0  0  0  0  0  0  0  0  0  0
    2.5950   57.7610   74.8330 C   0  0  0  0  0  0  0  0  0  0  0  0
    3.7010   58.6050   74.7810 C   0  0  0  0  0  0  0  0  0  0  0  0
    3.9680   59.3400   73.6270 C   0  0  0  0  0  0  0  0  0  0  0  0
    2.0165   63.7591   69.1547 H   0  0  0  0  0  0  0  0  0  0  0  0
    0.5230   63.2180   71.3644 H   0  0  0  0  0  0  0  0  0  0  0  0
    1.2238   61.9957   70.2131 H   0  0  0  0  0  0  0  0  0  0  0  0
    2.4805   62.9189   72.8269 H   0  0  0  0  0  0  0  0  0  0  0  0
    1.6269   61.3534   72.5353 H   0  0  0  0  0  0  0  0  0  0  0  0
    4.1791   61.6329   72.3488 H   0  0  0  0  0  0  0  0  0  0  0  0
    5.2592   62.2272   70.5088 H   0  0  0  0  0  0  0  0  0  0  0  0
    3.8406   61.8533   69.4652 H   0  0  0  0  0  0  0  0  0  0  0  0
    3.9998   64.1733   71.4446 H   0  0  0  0  0  0  0  0  0  0  0  0
    4.2793   64.2954   69.6647 H   0  0  0  0  0  0  0  0  0  0  0  0
    1.7259   65.3679   71.7157 H   0  0  0  0  0  0  0  0  0  0  0  0
    2.5081   66.0084   70.1818 H   0  0  0  0  0  0  0  0  0  0  0  0
   -0.0559   64.8425   69.5939 H   0  0  0  0  0  0  0  0  0  0  0  0
   -0.1643   66.1261   70.9140 H   0  0  0  0  0  0  0  0  0  0  0  0
   -3.7167   67.1913   66.6907 H   0  0  0  0  0  0  0  0  0  0  0  0
   -2.4167   65.9747   68.4662 H   0  0  0  0  0  0  0  0  0  0  0  0
   -0.3216   69.7815   65.8938 H   0  0  0  0  0  0  0  0  0  0  0  0
   -2.3547   69.9506   64.7501 H   0  0  0  0  0  0  0  0  0  0  0  0
    2.5559   59.9071   70.5701 H   0  0  0  0  0  0  0  0  0  0  0  0
    4.3464   59.7164   70.8502 H   0  0  0  0  0  0  0  0  0  0  0  0
    1.3516   58.2807   71.6994 H   0  0  0  0  0  0  0  0  0  0  0  0
    0.8820   56.9757   73.7689 H   0  0  0  0  0  0  0  0  0  0  0  0
    2.3850   57.1855   75.7466 H   0  0  0  0  0  0  0  0  0  0  0  0
    4.3660   58.6921   75.6529 H   0  0  0  0  0  0  0  0  0  0  0  0
    4.8434   60.0051   73.5925 H   0  0  0  0  0  0  0  0  0  0  0  0
  2  1  1  0
  3  2  1  0
  4  3  1  0
  5  4  1  0
  6  5  1  0
  6  1  1  0
  7  1  1  0
  8  7  1  0
 10  9  2  0
 11 10  1  0
 12 11  2  0
 13 12  1  0
 14 13  2  0
 14  9  1  0
 15 13  1  0
 16 15  1  0
 17 16  2  0
 17 12  1  0
 17  8  1  0
 18  9  1  0
 19  4  1  0
 20 19  1  0
 21 20  2  0
 22 21  1  0
 23 22  2  0
 24 23  1  0
 25 24  2  0
 25 20  1  0
  1 26  1  0
  2 27  1  0
  2 28  1  0
  3 29  1  0
  3 30  1  0
  4 31  1  0
  5 32  1  0
  5 33  1  0
  6 34  1  0
  6 35  1  0
  7 36  1  0
  7 37  1  0
  8 38  1  0
  8 39  1  0
 10 40  1  0
 11 41  1  0
 14 42  1  0
 18 43  1  0
 19 44  1  0
 19 45  1  0
 21 46  1  0
 22 47  1  0
 23 48  1  0
 24 49  1  0
 25 50  1  0
M  CHG  1   4   1
M  END
>  <score>  (7) 
-9.113

$$$$
=
     RDKit          3D

 50 53  0  0  0  0  0  0  0  0999 V2000
    1.2400   65.2300   70.7120 C   0  0  0  0  0  0  0  0  0  0  0  0
    2.1710   64.2230   70.0080 C   0  0  0  0  0  0  0  0  0  0  0  0
    1.6910   62.7860   70.1510 C   0  0  0  0  0  0  0  0  0  0  0  0
    1.6050   62.3900   71.6070 N   0  0  0  0  0  4  0  0  0  0  0  0
    1.1810   63.5070   72.5430 C   0  0  0  0  0  0  0  0  0  0  0  0
    0.3740   64.5440   71.7830 C   0  0  0  0  0  0  0  0  0  0  0  0
    0.3340   66.0070   69.7300 C   0  0  0  0  0  0  0  0  0  0  0  0
    1.0070   67.2090   69.0440 C   0  0  0  0  0  0  0  0  0  0  0  0
    2.0700   68.7060   63.9890 C   0  0  0  0  0  0  0  0  0  0  0  0
    3.0400   68.5710   64.9830 C   0  0  0  0  0  0  0  0  0  0  0  0
    2.6770   68.1730   66.2810 C   0  0  0  0  0  0  0  0  0  0  0  0
    1.3200   67.9180   66.5490 C   0  0  0  0  0  0  0  0  0  0  0  0
    0.3990   68.0660   65.5250 C   0  0  0  0  0  0  0  0  0  0  0  0
    0.7200   68.4590   64.2300 C   0  0  0  0  0  0  0  0  0  0  0  0
   -0.8420   67.7670   65.9910 O   0  0  0  0  0  0  0  0  0  0  0  0
   -0.7640   67.4160   67.3280 N   0  0  0  0  0  0  0  0  0  0  0  0
    0.5320   67.5150   67.6600 C   0  0  0  0  0  0  0  0  0  0  0  0
    2.4110   69.0930   62.7250 O   0  0  0  0  0  0  0  0  0  0  0  0
    2.8470   61.6710   72.0950 C   0  0  0  0  0  0  0  0  0  0  0  0
    2.7820   60.1810   71.8830 C   0  0  0  0  0  0  0  0  0  0  0  0
    2.0170   59.3740   72.7390 C   0  0  0  0  0  0  0  0  0  0  0  0
    1.9840   57.9910   72.5620 C   0  0  0  0  0  0  0  0  0  0  0  0
    2.7120   57.4010   71.5310 C   0  0  0  0  0  0  0  0  0  0  0  0
    3.4700   58.1930   70.6720 C   0  0  0  0  0  0  0  0  0  0  0  0
    3.5070   59.5760   70.8450 C   0  0  0  0  0  0  0  0  0  0  0  0
    1.9064   65.9591   71.1961 H   0  0  0  0  0  0  0  0  0  0  0  0
    2.2177   64.4744   68.9381 H   0  0  0  0  0  0  0  0  0  0  0  0
    3.1602   64.2936   70.4840 H   0  0  0  0  0  0  0  0  0  0  0  0
    0.6957   62.6911   69.6923 H   0  0  0  0  0  0  0  0  0  0  0  0
    2.4100   62.1229   69.6477 H   0  0  0  0  0  0  0  0  0  0  0  0
    0.8311   61.7111   71.6391 H   0  0  0  0  0  0  0  0  0  0  0  0
    0.5657   63.0891   73.3534 H   0  0  0  0  0  0  0  0  0  0  0  0
    2.0779   63.9852   72.9636 H   0  0  0  0  0  0  0  0  0  0  0  0
   -0.4797   64.0507   71.2953 H   0  0  0  0  0  0  0  0  0  0  0  0
    0.0202   65.3062   72.4928 H   0  0  0  0  0  0  0  0  0  0  0  0
    0.0000   65.3095   68.9477 H   0  0  0  0  0  0  0  0  0  0  0  0
   -0.4930   66.4157   70.3292 H   0  0  0  0  0  0  0  0  0  0  0  0
    0.8278   68.0976   69.6670 H   0  0  0  0  0  0  0  0  0  0  0  0
    2.0692   66.9411   68.9441 H   0  0  0  0  0  0  0  0  0  0  0  0
    4.0949   68.7773   64.7492 H   0  0  0  0  0  0  0  0  0  0  0  0
    3.4365   68.0634   67.0691 H   0  0  0  0  0  0  0  0  0  0  0  0
   -0.0435   68.5679   63.4457 H   0  0  0  0  0  0  0  0  0  0  0  0
    1.7121   69.1846   62.0299 H   0  0  0  0  0  0  0  0  0  0  0  0
    3.7178   62.0655   71.5508 H   0  0  0  0  0  0  0  0  0  0  0  0
    2.9272   61.8476   73.1778 H   0  0  0  0  0  0  0  0  0  0  0  0
    1.4400   59.8349   73.5543 H   0  0  0  0  0  0  0  0  0  0  0  0
    1.3823   57.3651   73.2374 H   0  0  0  0  0  0  0  0  0  0  0  0
    2.6881   56.3096   71.3954 H   0  0  0  0  0  0  0  0  0  0  0  0
    4.0406   57.7265   69.8554 H   0  0  0  0  0  0  0  0  0  0  0  0
    4.1080   60.1964   70.1639 H   0  0  0  0  0  0  0  0  0  0  0  0
  2  1  1  0
  3  2  1  0
  4  3  1  0
  5  4  1  0
  6  5  1  0
  6  1  1  0
  7  1  1  0
  8  7  1  0
 10  9  2  0
 11 10  1  0
 12 11  2  0
 13 12  1  0
 14 13  2  0
 14  9  1  0
 15 13  1  0
 16 15  1  0
 17 16  2  0
 17 12  1  0
 17  8  1  0
 18  9  1  0
 19  4  1  0
 20 19  1  0
 21 20  2  0
 22 21  1  0
 23 22  2  0
 24 23  1  0
 25 24  2  0
 25 20  1  0
  1 26  1  0
  2 27  1  0
  2 28  1  0
  3 29  1  0
  3 30  1  0
  4 31  1  0
  5 32  1  0
  5 33  1  0
  6 34  1  0
  6 35  1  0
  7 36  1  0
  7 37  1  0
  8 38  1  0
  8 39  1  0
 10 40  1  0
 11 41  1  0
 14 42  1  0
 18 43  1  0
 19 44  1  0
 19 45  1  0
 21 46  1  0
 22 47  1  0
 23 48  1  0
 24 49  1  0
 25 50  1  0
M  CHG  1   4   1
M  END
>  <score>  (8) 
-9.094

$$$$
=
     RDKit          3D

 50 53  0  0  0  0  0  0  0  0999 V2000
    1.6080   62.9490   72.0740 C   0  0  0  0  0  0  0  0  0  0  0  0
    0.4200   63.9310   72.0170 C   0  0  0  0  0  0  0  0  0  0  0  0
    0.0520   64.3190   70.5930 C   0  0  0  0  0  0  0  0  0  0  0  0
    1.2210   64.9730   69.8940 N   0  0  0  0  0  4  0  0  0  0  0  0
    2.5800   64.4210   70.2810 C   0  0  0  0  0  0  0  0  0  0  0  0
    2.4390   62.9950   70.7790 C   0  0  0  0  0  0  0  0  0  0  0  0
    1.1780   61.4940   72.3660 C   0  0  0  0  0  0  0  0  0  0  0  0
    2.3120   60.5700   72.8440 C   0  0  0  0  0  0  0  0  0  0  0  0
   -0.7190   56.3010   74.0820 C   0  0  0  0  0  0  0  0  0  0  0  0
   -0.9810   57.6000   74.5210 C   0  0  0  0  0  0  0  0  0  0  0  0
   -0.1390   58.6610   74.1510 C   0  0  0  0  0  0  0  0  0  0  0  0
    0.9700   58.3810   73.3310 C   0  0  0  0  0  0  0  0  0  0  0  0
    1.1830   57.0760   72.9220 C   0  0  0  0  0  0  0  0  0  0  0  0
    0.3730   56.0000   73.2690 C   0  0  0  0  0  0  0  0  0  0  0  0
    2.2930   57.0260   72.1400 O   0  0  0  0  0  0  0  0  0  0  0  0
    2.8320   58.2960   72.0170 N   0  0  0  0  0  0  0  0  0  0  0  0
    2.0400   59.1030   72.7380 C   0  0  0  0  0  0  0  0  0  0  0  0
   -1.5300   55.2630   74.4370 O   0  0  0  0  0  0  0  0  0  0  0  0
    1.1740   66.4880   69.9620 C   0  0  0  0  0  0  0  0  0  0  0  0
    0.5340   67.1090   68.7500 C   0  0  0  0  0  0  0  0  0  0  0  0
   -0.7780   66.7660   68.3840 C   0  0  0  0  0  0  0  0  0  0  0  0
   -1.3590   67.3170   67.2420 C   0  0  0  0  0  0  0  0  0  0  0  0
   -0.6390   68.2130   66.4550 C   0  0  0  0  0  0  0  0  0  0  0  0
    0.6610   68.5640   66.8110 C   0  0  0  0  0  0  0  0  0  0  0  0
    1.2470   68.0170   67.9520 C   0  0  0  0  0  0  0  0  0  0  0  0
    2.2300   63.2854   72.9166 H   0  0  0  0  0  0  0  0  0  0  0  0
   -0.4526   63.4567   72.4900 H   0  0  0  0  0  0  0  0  0  0  0  0
    0.7188   64.8478   72.5463 H   0  0  0  0  0  0  0  0  0  0  0  0
   -0.2404   63.4157   70.0376 H   0  0  0  0  0  0  0  0  0  0  0  0
   -0.7823   65.0350   70.6279 H   0  0  0  0  0  0  0  0  0  0  0  0
    1.1028   64.7112   68.9049 H   0  0  0  0  0  0  0  0  0  0  0  0
    3.2427   64.4363   69.4031 H   0  0  0  0  0  0  0  0  0  0  0  0
    3.0070   65.0423   71.0821 H   0  0  0  0  0  0  0  0  0  0  0  0
    1.9387   62.3912   70.0076 H   0  0  0  0  0  0  0  0  0  0  0  0
    3.4415   62.5934   70.9884 H   0  0  0  0  0  0  0  0  0  0  0  0
    0.4028   61.5162   73.1461 H   0  0  0  0  0  0  0  0  0  0  0  0
    0.8214   61.0788   71.4118 H   0  0  0  0  0  0  0  0  0  0  0  0
    3.2058   60.7926   72.2426 H   0  0  0  0  0  0  0  0  0  0  0  0
    2.4349   60.7759   73.9176 H   0  0  0  0  0  0  0  0  0  0  0  0
   -1.8538   57.7939   75.1617 H   0  0  0  0  0  0  0  0  0  0  0  0
   -0.3413   59.6864   74.4938 H   0  0  0  0  0  0  0  0  0  0  0  0
    0.5807   54.9764   72.9239 H   0  0  0  0  0  0  0  0  0  0  0  0
   -1.3307   54.3474   74.1175 H   0  0  0  0  0  0  0  0  0  0  0  0
    0.5984   66.7817   70.8522 H   0  0  0  0  0  0  0  0  0  0  0  0
    2.2121   66.8487   70.0084 H   0  0  0  0  0  0  0  0  0  0  0  0
   -1.3507   66.0586   69.0017 H   0  0  0  0  0  0  0  0  0  0  0  0
   -2.3872   67.0437   66.9624 H   0  0  0  0  0  0  0  0  0  0  0  0
   -1.0972   68.6433   65.5523 H   0  0  0  0  0  0  0  0  0  0  0  0
    1.2269   69.2745   66.1905 H   0  0  0  0  0  0  0  0  0  0  0  0
    2.2738   68.2988   68.2281 H   0  0  0  0  0  0  0  0  0  0  0  0
  2  1  1  0
  3  2  1  0
  4  3  1  0
  5  4  1  0
  6  5  1  0
  6  1  1  0
  7  1  1  0
  8  7  1  0
 10  9  2  0
 11 10  1  0
 12 11  2  0
 13 12  1  0
 14 13  2  0
 14  9  1  0
 15 13  1  0
 16 15  1  0
 17 16  2  0
 17 12  1  0
 17  8  1  0
 18  9  1  0
 19  4  1  0
 20 19  1  0
 21 20  2  0
 22 21  1  0
 23 22  2  0
 24 23  1  0
 25 24  2  0
 25 20  1  0
  1 26  1  0
  2 27  1  0
  2 28  1  0
  3 29  1  0
  3 30  1  0
  4 31  1  0
  5 32  1  0
  5 33  1  0
  6 34  1  0
  6 35  1  0
  7 36  1  0
  7 37  1  0
  8 38  1  0
  8 39  1  0
 10 40  1  0
 11 41  1  0
 14 42  1  0
 18 43  1  0
 19 44  1  0
 19 45  1  0
 21 46  1  0
 22 47  1  0
 23 48  1  0
 24 49  1  0
 25 50  1  0
M  CHG  1   4   1
M  END
>  <score>  (9) 
-8.439

$$$$
