=
     RDKit          3D

 35 37  0  0  0  0  0  0  0  0999 V2000
    6.3370   70.7450   68.8540 C   0  0  0  0  0  0  0  0  0  0  0  0
    5.2520   70.6440   69.4030 O   0  0  0  0  0  0  0  0  0  0  0  0
    6.6680   70.5090   67.5510 N   0  0  0  0  0  0  0  0  0  0  0  0
    5.7630   70.0930   66.6140 C   0  0  0  0  0  0  0  0  0  0  0  0
    6.1510   69.8750   65.3150 N   0  0  0  0  0  0  0  0  0  0  0  0
    5.0560   69.4710   64.5950 C   0  0  0  0  0  0  0  0  0  0  0  0
    4.0270   69.4620   65.5270 C   0  0  0  0  0  0  0  0  0  0  0  0
    4.4820   69.8480   66.7600 N   0  0  0  0  0  0  0  0  0  0  0  0
    2.7370   69.0860   65.1300 C   0  0  0  0  0  0  0  0  0  0  0  0
    2.5230   68.7400   63.7860 C   0  0  0  0  0  0  0  0  0  0  0  0
    3.5880   68.7500   62.8720 C   0  0  0  0  0  0  0  0  0  0  0  0
    4.8830   69.1200   63.2560 C   0  0  0  0  0  0  0  0  0  0  0  0
    7.6300   70.5640   70.7990 C   0  0  0  0  0  0  0  0  0  0  0  0
    7.4740   71.1380   69.4990 O   0  0  0  0  0  0  0  0  0  0  0  0
    0.8570   68.2480   63.2600 S   0  0  0  0  0  3  0  0  0  0  0  0
    0.1770   69.5920   62.5530 O   0  0  0  0  0  1  0  0  0  0  0  0
    0.2150   68.1770   64.9550 C   0  0  0  0  0  0  0  0  0  0  0  0
    0.7290   67.2360   65.8560 C   0  0  0  0  0  0  0  0  0  0  0  0
    0.2330   67.1680   67.1600 C   0  0  0  0  0  0  0  0  0  0  0  0
   -0.7830   68.0300   67.5670 C   0  0  0  0  0  0  0  0  0  0  0  0
   -1.3090   68.9600   66.6700 C   0  0  0  0  0  0  0  0  0  0  0  0
   -0.8140   69.0310   65.3670 C   0  0  0  0  0  0  0  0  0  0  0  0
    7.6457   70.6510   67.2597 H   0  0  0  0  0  0  0  0  0  0  0  0
    7.1043   69.9948   64.9438 H   0  0  0  0  0  0  0  0  0  0  0  0
    1.9102   69.0624   65.8551 H   0  0  0  0  0  0  0  0  0  0  0  0
    3.4008   68.4599   61.8276 H   0  0  0  0  0  0  0  0  0  0  0  0
    5.7184   69.1331   62.5406 H   0  0  0  0  0  0  0  0  0  0  0  0
    7.4227   71.3268   71.5639 H   0  0  0  0  0  0  0  0  0  0  0  0
    6.9270   69.7262   70.9167 H   0  0  0  0  0  0  0  0  0  0  0  0
    8.6604   70.1973   70.9167 H   0  0  0  0  0  0  0  0  0  0  0  0
    1.5257   66.5484   65.5358 H   0  0  0  0  0  0  0  0  0  0  0  0
    0.6452   66.4327   67.8667 H   0  0  0  0  0  0  0  0  0  0  0  0
   -1.1703   67.9773   68.5952 H   0  0  0  0  0  0  0  0  0  0  0  0
   -2.1143   69.6377   66.9898 H   0  0  0  0  0  0  0  0  0  0  0  0
   -1.2348   69.7617   64.6606 H   0  0  0  0  0  0  0  0  0  0  0  0
  2  1  2  0
  3  1  1  0
  4  3  1  0
  5  4  1  0
  6  5  1  0
  7  6  2  0
  8  7  1  0
  8  4  2  0
  9  7  1  0
 10  9  2  0
 11 10  1  0
 12 11  2  0
 12  6  1  0
 14 13  1  0
 14  1  1  0
 15 10  1  0
 15 16  1  6
 17 15  1  0
 18 17  2  0
 19 18  1  0
 20 19  2  0
 21 20  1  0
 22 17  1  0
 22 21  2  0
  3 23  1  0
  5 24  1  0
  9 25  1  0
 11 26  1  0
 12 27  1  0
 13 28  1  0
 13 29  1  0
 13 30  1  0
 18 31  1  0
 19 32  1  0
 20 33  1  0
 21 34  1  0
 22 35  1  0
M  CHG  2  15   1  16  -1
M  END
>  <score>  (1) 
-9.22

$$$$
=
     RDKit          3D

 35 37  0  0  0  0  0  0  0  0999 V2000
    0.6360   64.6410   71.4070 C   0  0  0  0  0  0  0  0  0  0  0  0
    1.8210   64.4720   71.1730 O   0  0  0  0  0  0  0  0  0  0  0  0
   -0.2820   65.3790   70.7160 N   0  0  0  0  0  0  0  0  0  0  0  0
    0.0270   66.0860   69.5870 C   0  0  0  0  0  0  0  0  0  0  0  0
   -0.9370   66.8090   68.9290 N   0  0  0  0  0  0  0  0  0  0  0  0
   -0.3630   67.4130   67.8400 C   0  0  0  0  0  0  0  0  0  0  0  0
    0.9650   67.0140   67.8970 C   0  0  0  0  0  0  0  0  0  0  0  0
    1.1840   66.1980   68.9770 N   0  0  0  0  0  0  0  0  0  0  0  0
    1.8650   67.4570   66.9190 C   0  0  0  0  0  0  0  0  0  0  0  0
    1.3840   68.2880   65.8940 C   0  0  0  0  0  0  0  0  0  0  0  0
    0.0380   68.6820   65.8720 C   0  0  0  0  0  0  0  0  0  0  0  0
   -0.8710   68.2490   66.8460 C   0  0  0  0  0  0  0  0  0  0  0  0
    0.7730   63.1150   73.1780 C   0  0  0  0  0  0  0  0  0  0  0  0
   -0.0100   64.0780   72.4690 O   0  0  0  0  0  0  0  0  0  0  0  0
    2.5390   68.8720   64.6220 S   0  0  0  0  0  3  0  0  0  0  0  0
    3.1550   67.5100   63.8920 O   0  0  0  0  0  1  0  0  0  0  0  0
    3.7800   69.4150   65.8300 C   0  0  0  0  0  0  0  0  0  0  0  0
    3.3810   69.7820   67.1210 C   0  0  0  0  0  0  0  0  0  0  0  0
    4.3280   70.2110   68.0540 C   0  0  0  0  0  0  0  0  0  0  0  0
    5.6740   70.2840   67.6990 C   0  0  0  0  0  0  0  0  0  0  0  0
    6.0760   69.9330   66.4110 C   0  0  0  0  0  0  0  0  0  0  0  0
    5.1310   69.5030   65.4780 C   0  0  0  0  0  0  0  0  0  0  0  0
   -1.2521   65.4043   71.0612 H   0  0  0  0  0  0  0  0  0  0  0  0
   -1.9259   66.8850   69.2069 H   0  0  0  0  0  0  0  0  0  0  0  0
    2.9238   67.1608   66.9531 H   0  0  0  0  0  0  0  0  0  0  0  0
   -0.3127   69.3478   65.0697 H   0  0  0  0  0  0  0  0  0  0  0  0
   -1.9283   68.5520   66.8278 H   0  0  0  0  0  0  0  0  0  0  0  0
    0.6493   63.2671   74.2604 H   0  0  0  0  0  0  0  0  0  0  0  0
    0.4393   62.1018   72.9096 H   0  0  0  0  0  0  0  0  0  0  0  0
    1.8330   63.2350   72.9096 H   0  0  0  0  0  0  0  0  0  0  0  0
    2.3185   69.7323   67.4014 H   0  0  0  0  0  0  0  0  0  0  0  0
    4.0114   70.4914   69.0694 H   0  0  0  0  0  0  0  0  0  0  0  0
    6.4194   70.6187   68.4355 H   0  0  0  0  0  0  0  0  0  0  0  0
    7.1377   69.9949   66.1301 H   0  0  0  0  0  0  0  0  0  0  0  0
    5.4503   69.2320   64.4608 H   0  0  0  0  0  0  0  0  0  0  0  0
  2  1  2  0
  3  1  1  0
  4  3  1  0
  5  4  1  0
  6  5  1  0
  7  6  2  0
  8  7  1  0
  8  4  2  0
  9  7  1  0
 10  9  2  0
 11 10  1  0
 12 11  2  0
 12  6  1  0
 14 13  1  0
 14  1  1  0
 15 10  1  0
 15 16  1  6
 17 15  1  0
 18 17  2  0
 19 18  1  0
 20 19  2  0
 21 20  1  0
 22 17  1  0
 22 21  2  0
  3 23  1  0
  5 24  1  0
  9 25  1  0
 11 26  1  0
 12 27  1  0
 13 28  1  0
 13 29  1  0
 13 30  1  0
 18 31  1  0
 19 32  1  0
 20 33  1  0
 21 34  1  0
 22 35  1  0
M  CHG  2  15   1  16  -1
M  END
>  <score>  (2) 
-8.774

$$$$
=
     RDKit          3D

 35 37  0  0  0  0  0  0  0  0999 V2000
    0.4410   66.9650   68.3510 C   0  0  0  0  0  0  0  0  0  0  0  0
    1.4250   66.7350   67.6680 O   0  0  0  0  0  0  0  0  0  0  0  0
    0.0620   66.3980   69.5340 N   0  0  0  0  0  0  0  0  0  0  0  0
    0.7840   65.4190   70.1570 C   0  0  0  0  0  0  0  0  0  0  0  0
    0.3570   64.8860   71.3490 N   0  0  0  0  0  0  0  0  0  0  0  0
    1.2600   63.9350   71.7510 C   0  0  0  0  0  0  0  0  0  0  0  0
    2.2180   63.9390   70.7460 C   0  0  0  0  0  0  0  0  0  0  0  0
    1.9080   64.8580   69.7780 N   0  0  0  0  0  0  0  0  0  0  0  0
    3.3120   63.0670   70.8300 C   0  0  0  0  0  0  0  0  0  0  0  0
    3.4110   62.2190   71.9450 C   0  0  0  0  0  0  0  0  0  0  0  0
    2.4180   62.2340   72.9370 C   0  0  0  0  0  0  0  0  0  0  0  0
    1.3180   63.0980   72.8640 C   0  0  0  0  0  0  0  0  0  0  0  0
   -1.6360   67.3480   67.3390 C   0  0  0  0  0  0  0  0  0  0  0  0
   -0.5040   67.8920   68.0220 O   0  0  0  0  0  0  0  0  0  0  0  0
    4.8210   61.0830   72.0640 S   0  0  0  0  0  3  0  0  0  0  0  0
    5.2300   60.6850   70.5020 O   0  0  0  0  0  1  0  0  0  0  0  0
    3.8150   59.7140   72.6990 C   0  0  0  0  0  0  0  0  0  0  0  0
    3.8690   59.3800   74.0580 C   0  0  0  0  0  0  0  0  0  0  0  0
    3.1050   58.3210   74.5530 C   0  0  0  0  0  0  0  0  0  0  0  0
    2.2930   57.5850   73.6940 C   0  0  0  0  0  0  0  0  0  0  0  0
    2.2440   57.9030   72.3370 C   0  0  0  0  0  0  0  0  0  0  0  0
    3.0050   58.9620   71.8400 C   0  0  0  0  0  0  0  0  0  0  0  0
   -0.8088   66.7234   69.9776 H   0  0  0  0  0  0  0  0  0  0  0  0
   -0.4981   65.1554   71.8560 H   0  0  0  0  0  0  0  0  0  0  0  0
    4.0767   63.0473   70.0395 H   0  0  0  0  0  0  0  0  0  0  0  0
    2.5060   61.5497   73.7937 H   0  0  0  0  0  0  0  0  0  0  0  0
    0.5417   63.1151   73.6431 H   0  0  0  0  0  0  0  0  0  0  0  0
   -2.3729   66.9939   68.0749 H   0  0  0  0  0  0  0  0  0  0  0  0
   -2.0921   68.1253   66.7083 H   0  0  0  0  0  0  0  0  0  0  0  0
   -1.3140   66.5063   66.7083 H   0  0  0  0  0  0  0  0  0  0  0  0
    4.5156   59.9540   74.7380 H   0  0  0  0  0  0  0  0  0  0  0  0
    3.1447   58.0680   75.6228 H   0  0  0  0  0  0  0  0  0  0  0  0
    1.6901   56.7526   74.0858 H   0  0  0  0  0  0  0  0  0  0  0  0
    1.6053   57.3189   71.6582 H   0  0  0  0  0  0  0  0  0  0  0  0
    2.9681   59.2069   70.7682 H   0  0  0  0  0  0  0  0  0  0  0  0
  2  1  2  0
  3  1  1  0
  4  3  1  0
  5  4  1  0
  6  5  1  0
  7  6  2  0
  8  7  1  0
  8  4  2  0
  9  7  1  0
 10  9  2  0
 11 10  1  0
 12 11  2  0
 12  6  1  0
 14 13  1  0
 14  1  1  0
 15 10  1  0
 15 16  1  6
 17 15  1  0
 18 17  2  0
 19 18  1  0
 20 19  2  0
 21 20  1  0
 22 17  1  0
 22 21  2  0
  3 23  1  0
  5 24  1  0
  9 25  1  0
 11 26  1  0
 12 27  1  0
 13 28  1  0
 13 29  1  0
 13 30  1  0
 18 31  1  0
 19 32  1  0
 20 33  1  0
 21 34  1  0
 22 35  1  0
M  CHG  2  15   1  16  -1
M  END
>  <score>  (3) 
-8.623

$$$$
=
     RDKit          3D

 35 37  0  0  0  0  0  0  0  0999 V2000
    1.1420   67.6280   67.8330 C   0  0  0  0  0  0  0  0  0  0  0  0
    1.5890   66.7140   67.1600 O   0  0  0  0  0  0  0  0  0  0  0  0
    0.6830   67.6050   69.1190 N   0  0  0  0  0  0  0  0  0  0  0  0
    0.6550   66.4710   69.8820 C   0  0  0  0  0  0  0  0  0  0  0  0
    0.1870   66.5070   71.1720 N   0  0  0  0  0  0  0  0  0  0  0  0
    0.2720   65.2450   71.7030 C   0  0  0  0  0  0  0  0  0  0  0  0
    0.8030   64.4830   70.6710 C   0  0  0  0  0  0  0  0  0  0  0  0
    1.0320   65.2560   69.5620 N   0  0  0  0  0  0  0  0  0  0  0  0
    1.0280   63.1140   70.8660 C   0  0  0  0  0  0  0  0  0  0  0  0
    0.7170   62.5550   72.1160 C   0  0  0  0  0  0  0  0  0  0  0  0
    0.1710   63.3520   73.1330 C   0  0  0  0  0  0  0  0  0  0  0  0
   -0.0620   64.7210   72.9510 C   0  0  0  0  0  0  0  0  0  0  0  0
    1.9300   69.8280   67.9930 C   0  0  0  0  0  0  0  0  0  0  0  0
    1.0220   68.9090   67.3800 O   0  0  0  0  0  0  0  0  0  0  0  0
    0.9990   60.7820   72.3800 S   0  0  0  0  0  3  0  0  0  0  0  0
    0.9660   60.5460   74.0260 O   0  0  0  0  0  1  0  0  0  0  0  0
    2.7480   60.8700   71.9070 C   0  0  0  0  0  0  0  0  0  0  0  0
    3.6800   61.4420   72.7820 C   0  0  0  0  0  0  0  0  0  0  0  0
    5.0270   61.5220   72.4210 C   0  0  0  0  0  0  0  0  0  0  0  0
    5.4470   61.0420   71.1830 C   0  0  0  0  0  0  0  0  0  0  0  0
    4.5230   60.4840   70.3010 C   0  0  0  0  0  0  0  0  0  0  0  0
    3.1770   60.4010   70.6600 C   0  0  0  0  0  0  0  0  0  0  0  0
    0.3417   68.4838   69.5338 H   0  0  0  0  0  0  0  0  0  0  0  0
   -0.1684   67.3418   71.6596 H   0  0  0  0  0  0  0  0  0  0  0  0
    1.4391   62.4910   70.0580 H   0  0  0  0  0  0  0  0  0  0  0  0
   -0.0808   62.8896   74.0988 H   0  0  0  0  0  0  0  0  0  0  0  0
   -0.4854   65.3485   73.7491 H   0  0  0  0  0  0  0  0  0  0  0  0
    1.8504   69.7474   69.0871 H   0  0  0  0  0  0  0  0  0  0  0  0
    2.9580   69.5905   67.6817 H   0  0  0  0  0  0  0  0  0  0  0  0
    1.6802   70.8530   67.6817 H   0  0  0  0  0  0  0  0  0  0  0  0
    3.3500   61.8297   73.7571 H   0  0  0  0  0  0  0  0  0  0  0  0
    5.7566   61.9645   73.1151 H   0  0  0  0  0  0  0  0  0  0  0  0
    6.5085   61.1032   70.9010 H   0  0  0  0  0  0  0  0  0  0  0  0
    4.8549   60.1089   69.3216 H   0  0  0  0  0  0  0  0  0  0  0  0
    2.4496   59.9648   69.9595 H   0  0  0  0  0  0  0  0  0  0  0  0
  2  1  2  0
  3  1  1  0
  4  3  1  0
  5  4  1  0
  6  5  1  0
  7  6  2  0
  8  7  1  0
  8  4  2  0
  9  7  1  0
 10  9  2  0
 11 10  1  0
 12 11  2  0
 12  6  1  0
 14 13  1  0
 14  1  1  0
 15 10  1  0
 15 16  1  1
 17 15  1  0
 18 17  2  0
 19 18  1  0
 20 19  2  0
 21 20  1  0
 22 17  1  0
 22 21  2  0
  3 23  1  0
  5 24  1  0
  9 25  1  0
 11 26  1  0
 12 27  1  0
 13 28  1  0
 13 29  1  0
 13 30  1  0
 18 31  1  0
 19 32  1  0
 20 33  1  0
 21 34  1  0
 22 35  1  0
M  CHG  2  15   1  16  -1
M  END
>  <score>  (4) 
-8.408

$$$$
=
     RDKit          3D

 35 37  0  0  0  0  0  0  0  0999 V2000
    6.7480   70.9290   68.3070 C   0  0  0  0  0  0  0  0  0  0  0  0
    7.1690   70.2230   67.4050 O   0  0  0  0  0  0  0  0  0  0  0  0
    5.4650   71.0980   68.7420 N   0  0  0  0  0  0  0  0  0  0  0  0
    4.3970   70.4540   68.1820 C   0  0  0  0  0  0  0  0  0  0  0  0
    3.1270   70.6580   68.6630 N   0  0  0  0  0  0  0  0  0  0  0  0
    2.2550   69.8950   67.9290 C   0  0  0  0  0  0  0  0  0  0  0  0
    3.0680   69.2490   67.0090 C   0  0  0  0  0  0  0  0  0  0  0  0
    4.3800   69.6050   67.1820 N   0  0  0  0  0  0  0  0  0  0  0  0
    2.4980   68.3720   66.0760 C   0  0  0  0  0  0  0  0  0  0  0  0
    1.1100   68.1640   66.1130 C   0  0  0  0  0  0  0  0  0  0  0  0
    0.3150   68.8420   67.0510 C   0  0  0  0  0  0  0  0  0  0  0  0
    0.8720   69.7240   67.9860 C   0  0  0  0  0  0  0  0  0  0  0  0
    8.1340   71.0350   70.1930 C   0  0  0  0  0  0  0  0  0  0  0  0
    7.5490   71.7180   69.0810 O   0  0  0  0  0  0  0  0  0  0  0  0
    0.3580   67.0330   64.9100 S   0  0  0  0  0  3  0  0  0  0  0  0
    1.4350   65.7800   64.7130 O   0  0  0  0  0  1  0  0  0  0  0  0
    0.6170   68.1600   63.5120 C   0  0  0  0  0  0  0  0  0  0  0  0
   -0.4140   69.0170   63.1070 C   0  0  0  0  0  0  0  0  0  0  0  0
   -0.2270   69.8810   62.0260 C   0  0  0  0  0  0  0  0  0  0  0  0
    0.9860   69.8860   61.3390 C   0  0  0  0  0  0  0  0  0  0  0  0
    2.0120   69.0270   61.7290 C   0  0  0  0  0  0  0  0  0  0  0  0
    1.8270   68.1640   62.8100 C   0  0  0  0  0  0  0  0  0  0  0  0
    5.2938   71.7405   69.5286 H   0  0  0  0  0  0  0  0  0  0  0  0
    2.8721   71.2795   69.4438 H   0  0  0  0  0  0  0  0  0  0  0  0
    3.1240   67.8583   65.3316 H   0  0  0  0  0  0  0  0  0  0  0  0
   -0.7725   68.6764   67.0517 H   0  0  0  0  0  0  0  0  0  0  0  0
    0.2523   70.2530   68.7250 H   0  0  0  0  0  0  0  0  0  0  0  0
    7.7594   71.4723   71.1302 H   0  0  0  0  0  0  0  0  0  0  0  0
    7.8641   69.9694   70.1520 H   0  0  0  0  0  0  0  0  0  0  0  0
    9.2284   71.1379   70.1520 H   0  0  0  0  0  0  0  0  0  0  0  0
   -1.3748   69.0095   63.6425 H   0  0  0  0  0  0  0  0  0  0  0  0
   -1.0370   70.5578   61.7165 H   0  0  0  0  0  0  0  0  0  0  0  0
    1.1335   70.5682   60.4888 H   0  0  0  0  0  0  0  0  0  0  0  0
    2.9678   69.0293   61.1846 H   0  0  0  0  0  0  0  0  0  0  0  0
    2.6368   67.4834   63.1116 H   0  0  0  0  0  0  0  0  0  0  0  0
  2  1  2  0
  3  1  1  0
  4  3  1  0
  5  4  1  0
  6  5  1  0
  7  6  2  0
  8  7  1  0
  8  4  2  0
  9  7  1  0
 10  9  2  0
 11 10  1  0
 12 11  2  0
 12  6  1  0
 14 13  1  0
 14  1  1  0
 15 10  1  0
 15 16  1  6
 17 15  1  0
 18 17  2  0
 19 18  1  0
 20 19  2  0
 21 20  1  0
 22 17  1  0
 22 21  2  0
  3 23  1  0
  5 24  1  0
  9 25  1  0
 11 26  1  0
 12 27  1  0
 13 28  1  0
 13 29  1  0
 13 30  1  0
 18 31  1  0
 19 32  1  0
 20 33  1  0
 21 34  1  0
 22 35  1  0
M  CHG  2  15   1  16  -1
M  END
>  <score>  (5) 
-8.212

$$$$
=
     RDKit          3D

 35 37  0  0  0  0  0  0  0  0999 V2000
    1.1760   64.9530   70.6440 C   0  0  0  0  0  0  0  0  0  0  0  0
    2.2360   64.8940   70.0440 O   0  0  0  0  0  0  0  0  0  0  0  0
    0.0170   65.5800   70.2840 N   0  0  0  0  0  0  0  0  0  0  0  0
   -0.1210   66.2810   69.1190 C   0  0  0  0  0  0  0  0  0  0  0  0
   -1.3120   66.8890   68.8050 N   0  0  0  0  0  0  0  0  0  0  0  0
   -1.1770   67.5150   67.5930 C   0  0  0  0  0  0  0  0  0  0  0  0
    0.1340   67.2480   67.2230 C   0  0  0  0  0  0  0  0  0  0  0  0
    0.7640   66.4890   68.1740 N   0  0  0  0  0  0  0  0  0  0  0  0
    0.6270   67.7490   66.0110 C   0  0  0  0  0  0  0  0  0  0  0  0
   -0.2350   68.5010   65.1960 C   0  0  0  0  0  0  0  0  0  0  0  0
   -1.5510   68.7610   65.6050 C   0  0  0  0  0  0  0  0  0  0  0  0
   -2.0560   68.2690   66.8160 C   0  0  0  0  0  0  0  0  0  0  0  0
    0.0200   63.2850   71.8130 C   0  0  0  0  0  0  0  0  0  0  0  0
    0.9600   64.3610   71.8540 O   0  0  0  0  0  0  0  0  0  0  0  0
    0.3920   69.1580   63.6250 S   0  0  0  0  0  3  0  0  0  0  0  0
   -0.2110   68.1680   62.4320 O   0  0  0  0  0  1  0  0  0  0  0  0
    2.0930   68.6110   63.9390 C   0  0  0  0  0  0  0  0  0  0  0  0
    2.6010   67.4920   63.2670 C   0  0  0  0  0  0  0  0  0  0  0  0
    3.9060   67.0580   63.5100 C   0  0  0  0  0  0  0  0  0  0  0  0
    4.7050   67.7320   64.4310 C   0  0  0  0  0  0  0  0  0  0  0  0
    4.2020   68.8390   65.1130 C   0  0  0  0  0  0  0  0  0  0  0  0
    2.8990   69.2750   64.8710 C   0  0  0  0  0  0  0  0  0  0  0  0
   -0.7908   65.5217   70.9204 H   0  0  0  0  0  0  0  0  0  0  0  0
   -2.1641   66.8766   69.3835 H   0  0  0  0  0  0  0  0  0  0  0  0
    1.6660   67.5577   65.7046 H   0  0  0  0  0  0  0  0  0  0  0  0
   -2.2034   69.3666   64.9587 H   0  0  0  0  0  0  0  0  0  0  0  0
   -3.0896   68.4668   67.1363 H   0  0  0  0  0  0  0  0  0  0  0  0
   -0.2407   62.9866   72.8391 H   0  0  0  0  0  0  0  0  0  0  0  0
   -0.8877   63.6111   71.2842 H   0  0  0  0  0  0  0  0  0  0  0  0
    0.4650   62.4293   71.2842 H   0  0  0  0  0  0  0  0  0  0  0  0
    1.9698   66.9530   62.5452 H   0  0  0  0  0  0  0  0  0  0  0  0
    4.3032   66.1835   62.9739 H   0  0  0  0  0  0  0  0  0  0  0  0
    5.7334   67.3905   64.6202 H   0  0  0  0  0  0  0  0  0  0  0  0
    4.8326   69.3688   65.8421 H   0  0  0  0  0  0  0  0  0  0  0  0
    2.5031   70.1450   65.4154 H   0  0  0  0  0  0  0  0  0  0  0  0
  2  1  2  0
  3  1  1  0
  4  3  1  0
  5  4  1  0
  6  5  1  0
  7  6  2  0
  8  7  1  0
  8  4  2  0
  9  7  1  0
 10  9  2  0
 11 10  1  0
 12 11  2  0
 12  6  1  0
 14 13  1  0
 14  1  1  0
 15 10  1  0
 15 16  1  6
 17 15  1  0
 18 17  2  0
 19 18  1  0
 20 19  2  0
 21 20  1  0
 22 17  1  0
 22 21  2  0
  3 23  1  0
  5 24  1  0
  9 25  1  0
 11 26  1  0
 12 27  1  0
 13 28  1  0
 13 29  1  0
 13 30  1  0
 18 31  1  0
 19 32  1  0
 20 33  1  0
 21 34  1  0
 22 35  1  0
M  CHG  2  15   1  16  -1
M  END
>  <score>  (6) 
-8.096

$$$$
=
     RDKit          3D

 35 37  0  0  0  0  0  0  0  0999 V2000
   -4.3200   59.1130   75.3450 C   0  0  0  0  0  0  0  0  0  0  0  0
   -3.7240   58.0650   75.5330 O   0  0  0  0  0  0  0  0  0  0  0  0
   -3.8930   60.2450   74.7110 N   0  0  0  0  0  0  0  0  0  0  0  0
   -2.6470   60.3680   74.1640 C   0  0  0  0  0  0  0  0  0  0  0  0
   -2.2720   61.5290   73.5340 N   0  0  0  0  0  0  0  0  0  0  0  0
   -0.9860   61.3840   73.0800 C   0  0  0  0  0  0  0  0  0  0  0  0
   -0.6350   60.1000   73.4740 C   0  0  0  0  0  0  0  0  0  0  0  0
   -1.6690   59.4930   74.1380 N   0  0  0  0  0  0  0  0  0  0  0  0
    0.6420   59.6080   73.1720 C   0  0  0  0  0  0  0  0  0  0  0  0
    1.5280   60.4330   72.4620 C   0  0  0  0  0  0  0  0  0  0  0  0
    1.1450   61.7300   72.0880 C   0  0  0  0  0  0  0  0  0  0  0  0
   -0.1270   62.2360   72.3870 C   0  0  0  0  0  0  0  0  0  0  0  0
   -6.5120   59.6380   74.7080 C   0  0  0  0  0  0  0  0  0  0  0  0
   -5.5980   59.3380   75.7660 O   0  0  0  0  0  0  0  0  0  0  0  0
    3.1860   59.8080   72.0680 S   0  0  0  0  0  3  0  0  0  0  0  0
    4.1200   60.0840   73.4160 O   0  0  0  0  0  1  0  0  0  0  0  0
    3.5460   61.1550   70.9070 C   0  0  0  0  0  0  0  0  0  0  0  0
    3.0320   61.1100   69.6050 C   0  0  0  0  0  0  0  0  0  0  0  0
    3.3130   62.1380   68.7020 C   0  0  0  0  0  0  0  0  0  0  0  0
    4.1140   63.2090   69.0910 C   0  0  0  0  0  0  0  0  0  0  0  0
    4.6390   63.2540   70.3820 C   0  0  0  0  0  0  0  0  0  0  0  0
    4.3590   62.2290   71.2860 C   0  0  0  0  0  0  0  0  0  0  0  0
   -4.5405   61.0431   74.6421 H   0  0  0  0  0  0  0  0  0  0  0  0
   -2.8583   62.3683   73.4213 H   0  0  0  0  0  0  0  0  0  0  0  0
    0.9433   58.5973   73.4846 H   0  0  0  0  0  0  0  0  0  0  0  0
    1.8612   62.3655   71.5465 H   0  0  0  0  0  0  0  0  0  0  0  0
   -0.4315   63.2507   72.0909 H   0  0  0  0  0  0  0  0  0  0  0  0
   -7.4754   59.9542   75.1344 H   0  0  0  0  0  0  0  0  0  0  0  0
   -6.1017   60.4486   74.0879 H   0  0  0  0  0  0  0  0  0  0  0  0
   -6.6619   58.7419   74.0879 H   0  0  0  0  0  0  0  0  0  0  0  0
    2.4048   60.2621   69.2924 H   0  0  0  0  0  0  0  0  0  0  0  0
    2.9013   62.1017   67.6826 H   0  0  0  0  0  0  0  0  0  0  0  0
    4.3324   64.0193   68.3798 H   0  0  0  0  0  0  0  0  0  0  0  0
    5.2744   64.0983   70.6878 H   0  0  0  0  0  0  0  0  0  0  0  0
    4.7794   62.2653   72.3018 H   0  0  0  0  0  0  0  0  0  0  0  0
  2  1  2  0
  3  1  1  0
  4  3  1  0
  5  4  1  0
  6  5  1  0
  7  6  2  0
  8  7  1  0
  8  4  2  0
  9  7  1  0
 10  9  2  0
 11 10  1  0
 12 11  2  0
 12  6  1  0
 14 13  1  0
 14  1  1  0
 15 10  1  0
 15 16  1  1
 17 15  1  0
 18 17  2  0
 19 18  1  0
 20 19  2  0
 21 20  1  0
 22 17  1  0
 22 21  2  0
  3 23  1  0
  5 24  1  0
  9 25  1  0
 11 26  1  0
 12 27  1  0
 13 28  1  0
 13 29  1  0
 13 30  1  0
 18 31  1  0
 19 32  1  0
 20 33  1  0
 21 34  1  0
 22 35  1  0
M  CHG  2  15   1  16  -1
M  END
>  <score>  (7) 
-8.081

$$$$
=
     RDKit          3D

 35 37  0  0  0  0  0  0  0  0999 V2000
    0.2070   65.9310   70.3440 C   0  0  0  0  0  0  0  0  0  0  0  0
   -0.1100   66.1190   71.5060 O   0  0  0  0  0  0  0  0  0  0  0  0
    0.8750   64.8760   69.7920 N   0  0  0  0  0  0  0  0  0  0  0  0
    1.3160   63.8090   70.5230 C   0  0  0  0  0  0  0  0  0  0  0  0
    1.9800   62.7710   69.9160 N   0  0  0  0  0  0  0  0  0  0  0  0
    2.3050   61.8420   70.8710 C   0  0  0  0  0  0  0  0  0  0  0  0
    1.8070   62.3840   72.0480 C   0  0  0  0  0  0  0  0  0  0  0  0
    1.2030   63.5910   71.8130 N   0  0  0  0  0  0  0  0  0  0  0  0
    1.9680   61.6870   73.2530 C   0  0  0  0  0  0  0  0  0  0  0  0
    2.6220   60.4450   73.2280 C   0  0  0  0  0  0  0  0  0  0  0  0
    3.1230   59.9310   72.0210 C   0  0  0  0  0  0  0  0  0  0  0  0
    2.9720   60.6190   70.8100 C   0  0  0  0  0  0  0  0  0  0  0  0
    1.0820   67.3380   68.6880 C   0  0  0  0  0  0  0  0  0  0  0  0
   -0.0770   66.8060   69.3350 O   0  0  0  0  0  0  0  0  0  0  0  0
    2.8390   59.5340   74.7820 S   0  0  0  0  0  3  0  0  0  0  0  0
    4.2970   58.7440   74.6580 O   0  0  0  0  0  1  0  0  0  0  0  0
    1.5560   58.3140   74.3830 C   0  0  0  0  0  0  0  0  0  0  0  0
    1.9210   57.0070   74.0360 C   0  0  0  0  0  0  0  0  0  0  0  0
    0.9400   56.0650   73.7180 C   0  0  0  0  0  0  0  0  0  0  0  0
   -0.4060   56.4250   73.7360 C   0  0  0  0  0  0  0  0  0  0  0  0
   -0.7750   57.7280   74.0680 C   0  0  0  0  0  0  0  0  0  0  0  0
    0.2030   58.6710   74.3870 C   0  0  0  0  0  0  0  0  0  0  0  0
    1.0548   64.8847   68.7779 H   0  0  0  0  0  0  0  0  0  0  0  0
    2.1974   62.7019   68.9116 H   0  0  0  0  0  0  0  0  0  0  0  0
    1.5901   62.1041   74.1981 H   0  0  0  0  0  0  0  0  0  0  0  0
    3.6471   58.9639   72.0265 H   0  0  0  0  0  0  0  0  0  0  0  0
    3.3587   60.2162   69.8623 H   0  0  0  0  0  0  0  0  0  0  0  0
    1.8056   67.6702   69.4470 H   0  0  0  0  0  0  0  0  0  0  0  0
    1.5406   66.5603   68.0597 H   0  0  0  0  0  0  0  0  0  0  0  0
    0.7913   68.1928   68.0597 H   0  0  0  0  0  0  0  0  0  0  0  0
    2.9831   56.7217   74.0139 H   0  0  0  0  0  0  0  0  0  0  0  0
    1.2303   55.0376   73.4530 H   0  0  0  0  0  0  0  0  0  0  0  0
   -1.1776   55.6811   73.4883 H   0  0  0  0  0  0  0  0  0  0  0  0
   -1.8375   58.0128   74.0785 H   0  0  0  0  0  0  0  0  0  0  0  0
   -0.0910   59.6997   74.6428 H   0  0  0  0  0  0  0  0  0  0  0  0
  2  1  2  0
  3  1  1  0
  4  3  1  0
  5  4  1  0
  6  5  1  0
  7  6  2  0
  8  7  1  0
  8  4  2  0
  9  7  1  0
 10  9  2  0
 11 10  1  0
 12 11  2  0
 12  6  1  0
 14 13  1  0
 14  1  1  0
 15 10  1  0
 15 16  1  6
 17 15  1  0
 18 17  2  0
 19 18  1  0
 20 19  2  0
 21 20  1  0
 22 17  1  0
 22 21  2  0
  3 23  1  0
  5 24  1  0
  9 25  1  0
 11 26  1  0
 12 27  1  0
 13 28  1  0
 13 29  1  0
 13 30  1  0
 18 31  1  0
 19 32  1  0
 20 33  1  0
 21 34  1  0
 22 35  1  0
M  CHG  2  15   1  16  -1
M  END
>  <score>  (8) 
-7.913

$$$$
=
     RDKit          3D

 35 37  0  0  0  0  0  0  0  0999 V2000
   -0.4930   55.0870   74.5940 C   0  0  0  0  0  0  0  0  0  0  0  0
   -1.4860   55.7930   74.5310 O   0  0  0  0  0  0  0  0  0  0  0  0
    0.8190   55.4290   74.4320 N   0  0  0  0  0  0  0  0  0  0  0  0
    1.2280   56.7030   74.1520 C   0  0  0  0  0  0  0  0  0  0  0  0
    2.5630   56.9920   74.0030 N   0  0  0  0  0  0  0  0  0  0  0  0
    2.6920   58.3300   73.7320 C   0  0  0  0  0  0  0  0  0  0  0  0
    1.3850   58.7990   73.7280 C   0  0  0  0  0  0  0  0  0  0  0  0
    0.5020   57.7840   73.9880 N   0  0  0  0  0  0  0  0  0  0  0  0
    1.1360   60.1540   73.4750 C   0  0  0  0  0  0  0  0  0  0  0  0
    2.2290   61.0050   73.2460 C   0  0  0  0  0  0  0  0  0  0  0  0
    3.5370   60.4970   73.2470 C   0  0  0  0  0  0  0  0  0  0  0  0
    3.8000   59.1430   73.4940 C   0  0  0  0  0  0  0  0  0  0  0  0
    0.3190   52.9670   74.0190 C   0  0  0  0  0  0  0  0  0  0  0  0
   -0.5360   53.7490   74.8560 O   0  0  0  0  0  0  0  0  0  0  0  0
    1.9210   62.7620   72.9140 S   0  0  0  0  0  3  0  0  0  0  0  0
    0.2790   62.9130   72.6960 O   0  0  0  0  0  1  0  0  0  0  0  0
    2.6580   62.7010   71.2580 C   0  0  0  0  0  0  0  0  0  0  0  0
    3.8300   63.4200   70.9900 C   0  0  0  0  0  0  0  0  0  0  0  0
    4.3990   63.3860   69.7150 C   0  0  0  0  0  0  0  0  0  0  0  0
    3.7960   62.6430   68.7010 C   0  0  0  0  0  0  0  0  0  0  0  0
    2.6220   61.9360   68.9580 C   0  0  0  0  0  0  0  0  0  0  0  0
    2.0530   61.9670   70.2320 C   0  0  0  0  0  0  0  0  0  0  0  0
    1.5335   54.6930   74.5251 H   0  0  0  0  0  0  0  0  0  0  0  0
    3.3369   56.3169   74.0817 H   0  0  0  0  0  0  0  0  0  0  0  0
    0.1071   60.5427   73.4562 H   0  0  0  0  0  0  0  0  0  0  0  0
    4.3771   61.1789   73.0489 H   0  0  0  0  0  0  0  0  0  0  0  0
    4.8247   58.7430   73.4999 H   0  0  0  0  0  0  0  0  0  0  0  0
    0.9864   52.3565   74.6450 H   0  0  0  0  0  0  0  0  0  0  0  0
   -0.2919   52.3086   73.3839 H   0  0  0  0  0  0  0  0  0  0  0  0
    0.9204   53.6341   73.3839 H   0  0  0  0  0  0  0  0  0  0  0  0
    4.3036   64.0132   71.7862 H   0  0  0  0  0  0  0  0  0  0  0  0
    5.3236   63.9458   69.5107 H   0  0  0  0  0  0  0  0  0  0  0  0
    4.2466   62.6145   67.6979 H   0  0  0  0  0  0  0  0  0  0  0  0
    2.1442   61.3537   68.1564 H   0  0  0  0  0  0  0  0  0  0  0  0
    1.1244   61.4117   70.4304 H   0  0  0  0  0  0  0  0  0  0  0  0
  2  1  2  0
  3  1  1  0
  4  3  1  0
  5  4  1  0
  6  5  1  0
  7  6  2  0
  8  7  1  0
  8  4  2  0
  9  7  1  0
 10  9  2  0
 11 10  1  0
 12 11  2  0
 12  6  1  0
 14 13  1  0
 14  1  1  0
 15 10  1  0
 15 16  1  6
 17 15  1  0
 18 17  2  0
 19 18  1  0
 20 19  2  0
 21 20  1  0
 22 17  1  0
 22 21  2  0
  3 23  1  0
  5 24  1  0
  9 25  1  0
 11 26  1  0
 12 27  1  0
 13 28  1  0
 13 29  1  0
 13 30  1  0
 18 31  1  0
 19 32  1  0
 20 33  1  0
 21 34  1  0
 22 35  1  0
M  CHG  2  15   1  16  -1
M  END
>  <score>  (9) 
-7.879

$$$$
