=
     RDKit          3D

 33 32  0  0  0  0  0  0  0  0999 V2000
    4.3590   69.8250   65.7920 N   0  0  0  0  0  0  0  0  0  0  0  0
    3.3480   68.9840   65.3580 C   0  0  0  0  0  0  0  0  0  0  0  0
    2.6660   68.3150   66.1240 O   0  0  0  0  0  0  0  0  0  0  0  0
    4.8360   69.8090   67.1580 C   0  0  0  0  0  0  0  0  0  0  0  0
    6.2610   70.3490   67.2680 C   0  0  0  0  0  0  0  0  0  0  0  0
    6.4280   71.3550   68.4050 C   0  0  0  0  0  0  0  0  0  0  0  0
    5.7860   72.5850   68.0930 O   0  0  0  0  0  0  0  0  0  0  0  0
    3.2150   68.9770   63.8120 C   0  0  1  0  0  0  0  0  0  0  0  0
    4.2920   68.1860   63.0160 C   0  0  0  0  0  0  0  0  0  0  0  0
    5.5630   69.0350   62.8080 C   0  0  0  0  0  0  0  0  0  0  0  0
    4.6760   66.8770   63.7330 C   0  0  0  0  0  0  0  0  0  0  0  0
    3.6980   67.8360   61.6260 C   0  0  0  0  0  0  0  0  0  0  0  0
    3.4920   69.0060   60.8390 O   0  0  0  0  0  0  0  0  0  0  0  0
    1.8980   68.5240   63.4550 O   0  0  0  0  0  0  0  0  0  0  0  0
    4.7843   70.4818   65.1222 H   0  0  0  0  0  0  0  0  0  0  0  0
    4.1709   70.4313   67.7747 H   0  0  0  0  0  0  0  0  0  0  0  0
    4.8378   68.7659   67.5072 H   0  0  0  0  0  0  0  0  0  0  0  0
    6.9440   69.5047   67.4430 H   0  0  0  0  0  0  0  0  0  0  0  0
    6.4899   70.8718   66.3277 H   0  0  0  0  0  0  0  0  0  0  0  0
    5.9840   70.9394   69.3216 H   0  0  0  0  0  0  0  0  0  0  0  0
    7.5015   71.5460   68.5503 H   0  0  0  0  0  0  0  0  0  0  0  0
    5.5423   73.0520   68.9312 H   0  0  0  0  0  0  0  0  0  0  0  0
    3.3906   70.0204   63.5111 H   0  0  0  0  0  0  0  0  0  0  0  0
    5.9814   69.3145   63.7862 H   0  0  0  0  0  0  0  0  0  0  0  0
    6.3059   68.4511   62.2447 H   0  0  0  0  0  0  0  0  0  0  0  0
    5.3081   69.9448   62.2447 H   0  0  0  0  0  0  0  0  0  0  0  0
    4.6315   67.0286   64.8216 H   0  0  0  0  0  0  0  0  0  0  0  0
    3.9734   66.0812   63.4446 H   0  0  0  0  0  0  0  0  0  0  0  0
    5.6971   66.5869   63.4446 H   0  0  0  0  0  0  0  0  0  0  0  0
    4.3934   67.1672   61.0977 H   0  0  0  0  0  0  0  0  0  0  0  0
    2.7252   67.3458   61.7787 H   0  0  0  0  0  0  0  0  0  0  0  0
    3.3549   69.7846   61.4349 H   0  0  0  0  0  0  0  0  0  0  0  0
    1.3766   68.3446   64.2772 H   0  0  0  0  0  0  0  0  0  0  0  0
  2  1  1  0
  3  2  2  0
  4  1  1  0
  5  4  1  0
  6  5  1  0
  7  6  1  0
  8  2  1  0
  9  8  1  0
 10  9  1  0
 11  9  1  0
 12  9  1  0
 13 12  1  0
 14  8  1  0
  1 15  1  0
  4 16  1  0
  4 17  1  0
  5 18  1  0
  5 19  1  0
  6 20  1  0
  6 21  1  0
  7 22  1  0
  8 23  1  6
 10 24  1  0
 10 25  1  0
 10 26  1  0
 11 27  1  0
 11 28  1  0
 11 29  1  0
 12 30  1  0
 12 31  1  0
 13 32  1  0
 14 33  1  0
M  END
>  <score>  (1) 
-6.044

$$$$
=
     RDKit          3D

 33 32  0  0  0  0  0  0  0  0999 V2000
    0.0900   67.9620   65.4490 N   0  0  0  0  0  0  0  0  0  0  0  0
    1.1970   67.2280   65.8390 C   0  0  0  0  0  0  0  0  0  0  0  0
    1.4990   67.0520   67.0120 O   0  0  0  0  0  0  0  0  0  0  0  0
   -0.6670   68.7650   66.3870 C   0  0  0  0  0  0  0  0  0  0  0  0
   -2.0340   68.1510   66.6850 C   0  0  0  0  0  0  0  0  0  0  0  0
   -3.1270   68.6540   65.7450 C   0  0  0  0  0  0  0  0  0  0  0  0
   -2.5870   68.9860   64.4710 O   0  0  0  0  0  0  0  0  0  0  0  0
    2.0030   66.6940   64.6240 C   0  0  1  0  0  0  0  0  0  0  0  0
    3.0760   67.6430   64.0200 C   0  0  0  0  0  0  0  0  0  0  0  0
    2.5590   68.3170   62.7330 C   0  0  0  0  0  0  0  0  0  0  0  0
    3.4950   68.7340   65.0240 C   0  0  0  0  0  0  0  0  0  0  0  0
    4.3220   66.7890   63.6650 C   0  0  0  0  0  0  0  0  0  0  0  0
    4.1470   66.1010   62.4300 O   0  0  0  0  0  0  0  0  0  0  0  0
    2.5920   65.4290   64.9700 O   0  0  0  0  0  0  0  0  0  0  0  0
   -0.2041   67.9363   64.4622 H   0  0  0  0  0  0  0  0  0  0  0  0
   -0.1000   68.8447   67.3262 H   0  0  0  0  0  0  0  0  0  0  0  0
   -0.8278   69.7559   65.9372 H   0  0  0  0  0  0  0  0  0  0  0  0
   -1.9582   67.0584   66.5828 H   0  0  0  0  0  0  0  0  0  0  0  0
   -2.3141   68.4472   67.7067 H   0  0  0  0  0  0  0  0  0  0  0  0
   -3.8856   67.8672   65.6208 H   0  0  0  0  0  0  0  0  0  0  0  0
   -3.5785   69.5570   66.1818 H   0  0  0  0  0  0  0  0  0  0  0  0
   -1.7499   69.5007   64.5913 H   0  0  0  0  0  0  0  0  0  0  0  0
    1.2631   66.5992   63.8156 H   0  0  0  0  0  0  0  0  0  0  0  0
    1.9093   69.1640   62.9983 H   0  0  0  0  0  0  0  0  0  0  0  0
    3.4121   68.6805   62.1413 H   0  0  0  0  0  0  0  0  0  0  0  0
    1.9868   67.5872   62.1413 H   0  0  0  0  0  0  0  0  0  0  0  0
    3.3524   68.3628   66.0496 H   0  0  0  0  0  0  0  0  0  0  0  0
    4.5543   68.9871   64.8696 H   0  0  0  0  0  0  0  0  0  0  0  0
    2.8774   69.6311   64.8696 H   0  0  0  0  0  0  0  0  0  0  0  0
    5.1977   67.4499   63.5853 H   0  0  0  0  0  0  0  0  0  0  0  0
    4.4670   66.0421   64.4594 H   0  0  0  0  0  0  0  0  0  0  0  0
    3.9070   65.1574   62.6091 H   0  0  0  0  0  0  0  0  0  0  0  0
    2.6324   65.3423   65.9554 H   0  0  0  0  0  0  0  0  0  0  0  0
  2  1  1  0
  3  2  2  0
  4  1  1  0
  5  4  1  0
  6  5  1  0
  7  6  1  0
  8  2  1  0
  9  8  1  0
 10  9  1  0
 11  9  1  0
 12  9  1  0
 13 12  1  0
 14  8  1  0
  1 15  1  0
  4 16  1  0
  4 17  1  0
  5 18  1  0
  5 19  1  0
  6 20  1  0
  6 21  1  0
  7 22  1  0
  8 23  1  6
 10 24  1  0
 10 25  1  0
 10 26  1  0
 11 27  1  0
 11 28  1  0
 11 29  1  0
 12 30  1  0
 12 31  1  0
 13 32  1  0
 14 33  1  0
M  END
>  <score>  (2) 
-5.888

$$$$
=
     RDKit          3D

 33 32  0  0  0  0  0  0  0  0999 V2000
    2.3470   68.8010   65.9420 N   0  0  0  0  0  0  0  0  0  0  0  0
    1.8000   67.5330   65.8460 C   0  0  0  0  0  0  0  0  0  0  0  0
    2.4820   66.5190   65.7660 O   0  0  0  0  0  0  0  0  0  0  0  0
    3.7580   69.0460   65.7310 C   0  0  0  0  0  0  0  0  0  0  0  0
    4.3860   69.7940   66.9070 C   0  0  0  0  0  0  0  0  0  0  0  0
    5.9080   69.8760   66.8120 C   0  0  0  0  0  0  0  0  0  0  0  0
    6.3080   70.9860   66.0170 O   0  0  0  0  0  0  0  0  0  0  0  0
    0.2480   67.5640   65.8210 C   0  0  1  0  0  0  0  0  0  0  0  0
   -0.4720   67.8630   67.1670 C   0  0  0  0  0  0  0  0  0  0  0  0
   -1.8200   67.1190   67.2510 C   0  0  0  0  0  0  0  0  0  0  0  0
    0.3980   67.4620   68.3740 C   0  0  0  0  0  0  0  0  0  0  0  0
   -0.7430   69.3890   67.2340 C   0  0  0  0  0  0  0  0  0  0  0  0
   -1.9140   69.7420   66.5030 O   0  0  0  0  0  0  0  0  0  0  0  0
   -0.1870   68.4860   64.8070 O   0  0  0  0  0  0  0  0  0  0  0  0
    1.7312   69.5944   66.1705 H   0  0  0  0  0  0  0  0  0  0  0  0
    4.2723   68.0816   65.6069 H   0  0  0  0  0  0  0  0  0  0  0  0
    3.8661   69.6701   64.8317 H   0  0  0  0  0  0  0  0  0  0  0  0
    3.9799   70.8160   66.9306 H   0  0  0  0  0  0  0  0  0  0  0  0
    4.1411   69.2361   67.8228 H   0  0  0  0  0  0  0  0  0  0  0  0
    6.3265   69.9878   67.8231 H   0  0  0  0  0  0  0  0  0  0  0  0
    6.2809   68.9542   66.3416 H   0  0  0  0  0  0  0  0  0  0  0  0
    6.5776   71.7341   66.6067 H   0  0  0  0  0  0  0  0  0  0  0  0
   -0.0500   66.5291   65.5968 H   0  0  0  0  0  0  0  0  0  0  0  0
   -2.0911   66.9694   68.3065 H   0  0  0  0  0  0  0  0  0  0  0  0
   -2.5993   67.7148   66.7532 H   0  0  0  0  0  0  0  0  0  0  0  0
   -1.7313   66.1421   66.7532 H   0  0  0  0  0  0  0  0  0  0  0  0
   -0.1327   67.7066   69.3059 H   0  0  0  0  0  0  0  0  0  0  0  0
    0.5979   66.3809   68.3388 H   0  0  0  0  0  0  0  0  0  0  0  0
    1.3498   68.0122   68.3388 H   0  0  0  0  0  0  0  0  0  0  0  0
   -0.8755   69.6831   68.2857 H   0  0  0  0  0  0  0  0  0  0  0  0
    0.1149   69.9127   66.7871 H   0  0  0  0  0  0  0  0  0  0  0  0
   -2.6437   69.9620   67.1349 H   0  0  0  0  0  0  0  0  0  0  0  0
   -0.5677   69.2929   65.2361 H   0  0  0  0  0  0  0  0  0  0  0  0
  2  1  1  0
  3  2  2  0
  4  1  1  0
  5  4  1  0
  6  5  1  0
  7  6  1  0
  8  2  1  0
  9  8  1  0
 10  9  1  0
 11  9  1  0
 12  9  1  0
 13 12  1  0
 14  8  1  0
  1 15  1  0
  4 16  1  0
  4 17  1  0
  5 18  1  0
  5 19  1  0
  6 20  1  0
  6 21  1  0
  7 22  1  0
  8 23  1  6
 10 24  1  0
 10 25  1  0
 10 26  1  0
 11 27  1  0
 11 28  1  0
 11 29  1  0
 12 30  1  0
 12 31  1  0
 13 32  1  0
 14 33  1  0
M  END
>  <score>  (3) 
-5.784

$$$$
=
     RDKit          3D

 33 32  0  0  0  0  0  0  0  0999 V2000
    1.4740   68.8210   65.5610 N   0  0  0  0  0  0  0  0  0  0  0  0
    1.7160   68.2290   64.3330 C   0  0  0  0  0  0  0  0  0  0  0  0
    1.1140   67.2360   63.9440 O   0  0  0  0  0  0  0  0  0  0  0  0
    0.6550   68.1850   66.5710 C   0  0  0  0  0  0  0  0  0  0  0  0
   -0.5740   69.0250   66.9160 C   0  0  0  0  0  0  0  0  0  0  0  0
   -1.7890   68.6780   66.0580 C   0  0  0  0  0  0  0  0  0  0  0  0
   -1.4970   68.8410   64.6750 O   0  0  0  0  0  0  0  0  0  0  0  0
    2.8420   68.9510   63.5460 C   0  0  1  0  0  0  0  0  0  0  0  0
    4.3060   68.6370   63.9660 C   0  0  0  0  0  0  0  0  0  0  0  0
    4.6960   69.4120   65.2420 C   0  0  0  0  0  0  0  0  0  0  0  0
    4.5130   67.1300   64.2120 C   0  0  0  0  0  0  0  0  0  0  0  0
    5.2410   69.0860   62.8110 C   0  0  0  0  0  0  0  0  0  0  0  0
    5.6350   67.9810   62.0020 O   0  0  0  0  0  0  0  0  0  0  0  0
    2.6630   68.7100   62.1400 O   0  0  0  0  0  0  0  0  0  0  0  0
    1.8893   69.7419   65.7620 H   0  0  0  0  0  0  0  0  0  0  0  0
    0.3231   67.2057   66.1957 H   0  0  0  0  0  0  0  0  0  0  0  0
    1.2606   68.0742   67.4826 H   0  0  0  0  0  0  0  0  0  0  0  0
   -0.8300   68.8557   67.9723 H   0  0  0  0  0  0  0  0  0  0  0  0
   -0.3208   70.0775   66.7207 H   0  0  0  0  0  0  0  0  0  0  0  0
   -2.0751   67.6324   66.2449 H   0  0  0  0  0  0  0  0  0  0  0  0
   -2.6133   69.3555   66.3255 H   0  0  0  0  0  0  0  0  0  0  0  0
   -0.6371   69.3210   64.5736 H   0  0  0  0  0  0  0  0  0  0  0  0
    2.7256   70.0145   63.8018 H   0  0  0  0  0  0  0  0  0  0  0  0
    4.4032   68.8301   66.1283 H   0  0  0  0  0  0  0  0  0  0  0  0
    5.7837   69.5755   65.2537 H   0  0  0  0  0  0  0  0  0  0  0  0
    4.1791   70.3829   65.2537 H   0  0  0  0  0  0  0  0  0  0  0  0
    4.5397   66.9354   65.2943 H   0  0  0  0  0  0  0  0  0  0  0  0
    3.6837   66.5672   63.7586 H   0  0  0  0  0  0  0  0  0  0  0  0
    5.4633   66.8116   63.7586 H   0  0  0  0  0  0  0  0  0  0  0  0
    4.7097   69.8172   62.1840 H   0  0  0  0  0  0  0  0  0  0  0  0
    6.1448   69.5329   63.2509 H   0  0  0  0  0  0  0  0  0  0  0  0
    5.9042   67.2260   62.5831 H   0  0  0  0  0  0  0  0  0  0  0  0
    2.0776   67.9219   62.0122 H   0  0  0  0  0  0  0  0  0  0  0  0
  2  1  1  0
  3  2  2  0
  4  1  1  0
  5  4  1  0
  6  5  1  0
  7  6  1  0
  8  2  1  0
  9  8  1  0
 10  9  1  0
 11  9  1  0
 12  9  1  0
 13 12  1  0
 14  8  1  0
  1 15  1  0
  4 16  1  0
  4 17  1  0
  5 18  1  0
  5 19  1  0
  6 20  1  0
  6 21  1  0
  7 22  1  0
  8 23  1  6
 10 24  1  0
 10 25  1  0
 10 26  1  0
 11 27  1  0
 11 28  1  0
 11 29  1  0
 12 30  1  0
 12 31  1  0
 13 32  1  0
 14 33  1  0
M  END
>  <score>  (4) 
-5.644

$$$$
=
     RDKit          3D

 33 32  0  0  0  0  0  0  0  0999 V2000
    0.6980   68.6350   65.5230 N   0  0  0  0  0  0  0  0  0  0  0  0
    1.5450   67.5780   65.2380 C   0  0  0  0  0  0  0  0  0  0  0  0
    1.1450   66.4370   65.0490 O   0  0  0  0  0  0  0  0  0  0  0  0
   -0.7000   68.4330   65.8390 C   0  0  0  0  0  0  0  0  0  0  0  0
   -0.8990   68.0260   67.2990 C   0  0  0  0  0  0  0  0  0  0  0  0
   -2.1880   67.2390   67.5240 C   0  0  0  0  0  0  0  0  0  0  0  0
   -3.3290   68.0670   67.3320 O   0  0  0  0  0  0  0  0  0  0  0  0
    3.0360   68.0120   65.2200 C   0  0  1  0  0  0  0  0  0  0  0  0
    3.7290   68.0920   63.8310 C   0  0  0  0  0  0  0  0  0  0  0  0
    4.3580   66.7370   63.4460 C   0  0  0  0  0  0  0  0  0  0  0  0
    2.7400   68.5180   62.7290 C   0  0  0  0  0  0  0  0  0  0  0  0
    4.8580   69.1530   63.9220 C   0  0  0  0  0  0  0  0  0  0  0  0
    5.9290   68.7040   64.7480 O   0  0  0  0  0  0  0  0  0  0  0  0
    3.1710   69.2610   65.9190 O   0  0  0  0  0  0  0  0  0  0  0  0
    1.0738   69.5939   65.5098 H   0  0  0  0  0  0  0  0  0  0  0  0
   -1.2460   69.3696   65.6529 H   0  0  0  0  0  0  0  0  0  0  0  0
   -1.0804   67.6204   65.2026 H   0  0  0  0  0  0  0  0  0  0  0  0
   -0.0477   67.4021   67.6090 H   0  0  0  0  0  0  0  0  0  0  0  0
   -0.9667   68.9490   67.8936 H   0  0  0  0  0  0  0  0  0  0  0  0
   -2.2272   66.4012   66.8123 H   0  0  0  0  0  0  0  0  0  0  0  0
   -2.1953   66.8653   68.5585 H   0  0  0  0  0  0  0  0  0  0  0  0
   -3.6956   68.3330   68.2123 H   0  0  0  0  0  0  0  0  0  0  0  0
    3.5721   67.1948   65.7248 H   0  0  0  0  0  0  0  0  0  0  0  0
    4.6165   66.1802   64.3588 H   0  0  0  0  0  0  0  0  0  0  0  0
    3.6384   66.1542   62.8524 H   0  0  0  0  0  0  0  0  0  0  0  0
    5.2677   66.9105   62.8524 H   0  0  0  0  0  0  0  0  0  0  0  0
    1.8234   68.9128   63.1916 H   0  0  0  0  0  0  0  0  0  0  0  0
    3.2006   69.2975   62.1043 H   0  0  0  0  0  0  0  0  0  0  0  0
    2.4900   67.6478   62.1043 H   0  0  0  0  0  0  0  0  0  0  0  0
    5.2446   69.3517   62.9115 H   0  0  0  0  0  0  0  0  0  0  0  0
    4.4383   70.0675   64.3665 H   0  0  0  0  0  0  0  0  0  0  0  0
    5.6781   68.8092   65.6999 H   0  0  0  0  0  0  0  0  0  0  0  0
    3.1532   69.0965   66.8951 H   0  0  0  0  0  0  0  0  0  0  0  0
  2  1  1  0
  3  2  2  0
  4  1  1  0
  5  4  1  0
  6  5  1  0
  7  6  1  0
  8  2  1  0
  9  8  1  0
 10  9  1  0
 11  9  1  0
 12  9  1  0
 13 12  1  0
 14  8  1  0
  1 15  1  0
  4 16  1  0
  4 17  1  0
  5 18  1  0
  5 19  1  0
  6 20  1  0
  6 21  1  0
  7 22  1  0
  8 23  1  1
 10 24  1  0
 10 25  1  0
 10 26  1  0
 11 27  1  0
 11 28  1  0
 11 29  1  0
 12 30  1  0
 12 31  1  0
 13 32  1  0
 14 33  1  0
M  END
>  <score>  (5) 
-5.613

$$$$
=
     RDKit          3D

 33 32  0  0  0  0  0  0  0  0999 V2000
    2.4250   59.8930   72.0540 N   0  0  0  0  0  0  0  0  0  0  0  0
    3.0320   60.9960   72.6280 C   0  0  0  0  0  0  0  0  0  0  0  0
    3.4000   61.0200   73.7960 O   0  0  0  0  0  0  0  0  0  0  0  0
    1.9770   58.7650   72.8440 C   0  0  0  0  0  0  0  0  0  0  0  0
    2.2480   57.4360   72.1420 C   0  0  0  0  0  0  0  0  0  0  0  0
    3.1940   57.5770   70.9500 C   0  0  0  0  0  0  0  0  0  0  0  0
    3.6900   56.3080   70.5430 O   0  0  0  0  0  0  0  0  0  0  0  0
    3.1530   62.1820   71.6330 C   0  0  1  0  0  0  0  0  0  0  0  0
    4.3180   62.1210   70.6050 C   0  0  0  0  0  0  0  0  0  0  0  0
    5.0220   63.4890   70.4850 C   0  0  0  0  0  0  0  0  0  0  0  0
    5.3590   61.0530   70.9920 C   0  0  0  0  0  0  0  0  0  0  0  0
    3.7160   61.7510   69.2230 C   0  0  0  0  0  0  0  0  0  0  0  0
    3.3320   62.9140   68.4950 O   0  0  0  0  0  0  0  0  0  0  0  0
    1.8970   62.3570   70.9560 O   0  0  0  0  0  0  0  0  0  0  0  0
    2.2876   59.8736   71.0334 H   0  0  0  0  0  0  0  0  0  0  0  0
    2.5069   58.7728   73.8079 H   0  0  0  0  0  0  0  0  0  0  0  0
    0.8906   58.8594   72.9886 H   0  0  0  0  0  0  0  0  0  0  0  0
    2.6973   56.7411   72.8667 H   0  0  0  0  0  0  0  0  0  0  0  0
    1.2869   57.0621   71.7592 H   0  0  0  0  0  0  0  0  0  0  0  0
    2.6507   58.0371   70.1115 H   0  0  0  0  0  0  0  0  0  0  0  0
    4.0445   58.2074   71.2489 H   0  0  0  0  0  0  0  0  0  0  0  0
    3.9024   55.7647   71.3429 H   0  0  0  0  0  0  0  0  0  0  0  0
    3.4107   63.0494   72.2585 H   0  0  0  0  0  0  0  0  0  0  0  0
    5.2262   63.8857   71.4904 H   0  0  0  0  0  0  0  0  0  0  0  0
    5.9694   63.3672   69.9395 H   0  0  0  0  0  0  0  0  0  0  0  0
    4.3722   64.1892   69.9395 H   0  0  0  0  0  0  0  0  0  0  0  0
    5.4249   60.9854   72.0879 H   0  0  0  0  0  0  0  0  0  0  0  0
    5.0545   60.0787   70.5822 H   0  0  0  0  0  0  0  0  0  0  0  0
    6.3408   61.3325   70.5822 H   0  0  0  0  0  0  0  0  0  0  0  0
    4.4679   61.1970   68.6418 H   0  0  0  0  0  0  0  0  0  0  0  0
    2.8199   61.1352   69.3894 H   0  0  0  0  0  0  0  0  0  0  0  0
    3.0935   63.6362   69.1287 H   0  0  0  0  0  0  0  0  0  0  0  0
    1.1733   62.4578   71.6240 H   0  0  0  0  0  0  0  0  0  0  0  0
  2  1  1  0
  3  2  2  0
  4  1  1  0
  5  4  1  0
  6  5  1  0
  7  6  1  0
  8  2  1  0
  9  8  1  0
 10  9  1  0
 11  9  1  0
 12  9  1  0
 13 12  1  0
 14  8  1  0
  1 15  1  0
  4 16  1  0
  4 17  1  0
  5 18  1  0
  5 19  1  0
  6 20  1  0
  6 21  1  0
  7 22  1  0
  8 23  1  1
 10 24  1  0
 10 25  1  0
 10 26  1  0
 11 27  1  0
 11 28  1  0
 11 29  1  0
 12 30  1  0
 12 31  1  0
 13 32  1  0
 14 33  1  0
M  END
>  <score>  (6) 
-5.502

$$$$
=
     RDKit          3D

 33 32  0  0  0  0  0  0  0  0999 V2000
    2.3720   68.8560   66.1420 N   0  0  0  0  0  0  0  0  0  0  0  0
    1.6570   68.4480   67.2550 C   0  0  0  0  0  0  0  0  0  0  0  0
    2.0060   68.7050   68.4000 O   0  0  0  0  0  0  0  0  0  0  0  0
    3.7000   69.4210   66.2480 C   0  0  0  0  0  0  0  0  0  0  0  0
    4.4380   69.3930   64.9100 C   0  0  0  0  0  0  0  0  0  0  0  0
    3.6020   68.7850   63.7860 C   0  0  0  0  0  0  0  0  0  0  0  0
    3.5630   67.3670   63.8910 O   0  0  0  0  0  0  0  0  0  0  0  0
    0.4020   67.6180   66.8730 C   0  0  1  0  0  0  0  0  0  0  0  0
   -0.9120   68.4070   66.6110 C   0  0  0  0  0  0  0  0  0  0  0  0
   -0.9440   69.7160   67.4260 C   0  0  0  0  0  0  0  0  0  0  0  0
   -1.0800   68.7420   65.1160 C   0  0  0  0  0  0  0  0  0  0  0  0
   -2.1010   67.5160   67.0580 C   0  0  0  0  0  0  0  0  0  0  0  0
   -3.2440   68.3010   67.3860 O   0  0  0  0  0  0  0  0  0  0  0  0
    0.7160   66.7820   65.7460 O   0  0  0  0  0  0  0  0  0  0  0  0
    1.9457   68.7543   65.2099 H   0  0  0  0  0  0  0  0  0  0  0  0
    3.6169   70.4642   66.5869 H   0  0  0  0  0  0  0  0  0  0  0  0
    4.2723   68.8158   66.9665 H   0  0  0  0  0  0  0  0  0  0  0  0
    4.7027   70.4241   64.6329 H   0  0  0  0  0  0  0  0  0  0  0  0
    5.3306   68.7628   65.0371 H   0  0  0  0  0  0  0  0  0  0  0  0
    2.5767   69.1787   63.8466 H   0  0  0  0  0  0  0  0  0  0  0  0
    4.0608   69.0531   62.8229 H   0  0  0  0  0  0  0  0  0  0  0  0
    3.5558   67.1069   64.8462 H   0  0  0  0  0  0  0  0  0  0  0  0
    0.1702   67.0305   67.7736 H   0  0  0  0  0  0  0  0  0  0  0  0
   -0.9382   69.4793   68.5002 H   0  0  0  0  0  0  0  0  0  0  0  0
   -0.0604   70.3231   67.1795 H   0  0  0  0  0  0  0  0  0  0  0  0
   -1.8562   70.2792   67.1795 H   0  0  0  0  0  0  0  0  0  0  0  0
   -1.5709   69.7209   65.0125 H   0  0  0  0  0  0  0  0  0  0  0  0
   -0.0916   68.7747   64.6342 H   0  0  0  0  0  0  0  0  0  0  0  0
   -1.6973   67.9695   64.6342 H   0  0  0  0  0  0  0  0  0  0  0  0
   -2.3614   66.8293   66.2391 H   0  0  0  0  0  0  0  0  0  0  0  0
   -1.7964   66.9563   67.9546 H   0  0  0  0  0  0  0  0  0  0  0  0
   -3.3316   68.3612   68.3703 H   0  0  0  0  0  0  0  0  0  0  0  0
    1.0453   65.9053   66.0670 H   0  0  0  0  0  0  0  0  0  0  0  0
  2  1  1  0
  3  2  2  0
  4  1  1  0
  5  4  1  0
  6  5  1  0
  7  6  1  0
  8  2  1  0
  9  8  1  0
 10  9  1  0
 11  9  1  0
 12  9  1  0
 13 12  1  0
 14  8  1  0
  1 15  1  0
  4 16  1  0
  4 17  1  0
  5 18  1  0
  5 19  1  0
  6 20  1  0
  6 21  1  0
  7 22  1  0
  8 23  1  1
 10 24  1  0
 10 25  1  0
 10 26  1  0
 11 27  1  0
 11 28  1  0
 11 29  1  0
 12 30  1  0
 12 31  1  0
 13 32  1  0
 14 33  1  0
M  END
>  <score>  (7) 
-5.442

$$$$
=
     RDKit          3D

 33 32  0  0  0  0  0  0  0  0999 V2000
    1.7960   67.9520   63.9310 N   0  0  0  0  0  0  0  0  0  0  0  0
    0.6720   68.1570   64.7120 C   0  0  0  0  0  0  0  0  0  0  0  0
   -0.2960   68.8000   64.3290 O   0  0  0  0  0  0  0  0  0  0  0  0
    2.0080   68.6660   62.6900 C   0  0  0  0  0  0  0  0  0  0  0  0
    3.3570   68.3230   62.0610 C   0  0  0  0  0  0  0  0  0  0  0  0
    4.1730   67.3450   62.9040 C   0  0  0  0  0  0  0  0  0  0  0  0
    4.0970   66.0290   62.3690 O   0  0  0  0  0  0  0  0  0  0  0  0
    0.8080   67.5070   66.1160 C   0  0  1  0  0  0  0  0  0  0  0  0
    1.2320   68.4410   67.2850 C   0  0  0  0  0  0  0  0  0  0  0  0
    1.4030   67.6450   68.5960 C   0  0  0  0  0  0  0  0  0  0  0  0
    2.5470   69.1790   66.9720 C   0  0  0  0  0  0  0  0  0  0  0  0
    0.1080   69.4910   67.4880 C   0  0  0  0  0  0  0  0  0  0  0  0
    0.5410   70.5630   68.3200 O   0  0  0  0  0  0  0  0  0  0  0  0
   -0.4150   66.8250   66.4390 O   0  0  0  0  0  0  0  0  0  0  0  0
    2.5030   67.2707   64.2423 H   0  0  0  0  0  0  0  0  0  0  0  0
    1.2078   68.3984   61.9842 H   0  0  0  0  0  0  0  0  0  0  0  0
    1.9976   69.7438   62.9098 H   0  0  0  0  0  0  0  0  0  0  0  0
    3.1796   67.8722   61.0734 H   0  0  0  0  0  0  0  0  0  0  0  0
    3.9340   69.2566   61.9865 H   0  0  0  0  0  0  0  0  0  0  0  0
    5.2241   67.6691   62.9155 H   0  0  0  0  0  0  0  0  0  0  0  0
    3.7637   67.3340   63.9249 H   0  0  0  0  0  0  0  0  0  0  0  0
    4.0591   65.3733   63.1098 H   0  0  0  0  0  0  0  0  0  0  0  0
    1.6566   66.8132   66.0237 H   0  0  0  0  0  0  0  0  0  0  0  0
    1.2586   68.3172   69.4546 H   0  0  0  0  0  0  0  0  0  0  0  0
    0.6580   66.8365   68.6339 H   0  0  0  0  0  0  0  0  0  0  0  0
    2.4143   67.2138   68.6339 H   0  0  0  0  0  0  0  0  0  0  0  0
    3.0439   69.4579   67.9129 H   0  0  0  0  0  0  0  0  0  0  0  0
    3.2077   68.5199   66.3898 H   0  0  0  0  0  0  0  0  0  0  0  0
    2.3286   70.0864   66.3898 H   0  0  0  0  0  0  0  0  0  0  0  0
   -0.1854   69.8950   66.5078 H   0  0  0  0  0  0  0  0  0  0  0  0
   -0.7435   68.9957   67.9774 H   0  0  0  0  0  0  0  0  0  0  0  0
    0.4371   70.3058   69.2704 H   0  0  0  0  0  0  0  0  0  0  0  0
   -0.5126   66.7706   67.4227 H   0  0  0  0  0  0  0  0  0  0  0  0
  2  1  1  0
  3  2  2  0
  4  1  1  0
  5  4  1  0
  6  5  1  0
  7  6  1  0
  8  2  1  0
  9  8  1  0
 10  9  1  0
 11  9  1  0
 12  9  1  0
 13 12  1  0
 14  8  1  0
  1 15  1  0
  4 16  1  0
  4 17  1  0
  5 18  1  0
  5 19  1  0
  6 20  1  0
  6 21  1  0
  7 22  1  0
  8 23  1  6
 10 24  1  0
 10 25  1  0
 10 26  1  0
 11 27  1  0
 11 28  1  0
 11 29  1  0
 12 30  1  0
 12 31  1  0
 13 32  1  0
 14 33  1  0
M  END
>  <score>  (8) 
-5.43

$$$$
=
     RDKit          3D

 33 32  0  0  0  0  0  0  0  0999 V2000
    3.5770   59.1750   71.4210 N   0  0  0  0  0  0  0  0  0  0  0  0
    4.0080   59.6920   70.2120 C   0  0  0  0  0  0  0  0  0  0  0  0
    3.7830   59.1490   69.1380 O   0  0  0  0  0  0  0  0  0  0  0  0
    3.0240   57.8410   71.5310 C   0  0  0  0  0  0  0  0  0  0  0  0
    1.9230   57.7690   72.5880 C   0  0  0  0  0  0  0  0  0  0  0  0
    1.4120   59.1460   73.0070 C   0  0  0  0  0  0  0  0  0  0  0  0
    2.3330   59.7840   73.8840 O   0  0  0  0  0  0  0  0  0  0  0  0
    4.8200   61.0030   70.3920 C   0  0  1  0  0  0  0  0  0  0  0  0
    4.0570   62.3400   70.1730 C   0  0  0  0  0  0  0  0  0  0  0  0
    4.8870   63.5410   70.6710 C   0  0  0  0  0  0  0  0  0  0  0  0
    3.7070   62.5550   68.6880 C   0  0  0  0  0  0  0  0  0  0  0  0
    2.7390   62.2770   70.9900 C   0  0  0  0  0  0  0  0  0  0  0  0
    2.9960   62.2410   72.3910 O   0  0  0  0  0  0  0  0  0  0  0  0
    5.4490   60.9930   71.6850 O   0  0  0  0  0  0  0  0  0  0  0  0
    3.6517   59.7563   72.2680 H   0  0  0  0  0  0  0  0  0  0  0  0
    2.6030   57.5486   70.5577 H   0  0  0  0  0  0  0  0  0  0  0  0
    3.8328   57.1592   71.8325 H   0  0  0  0  0  0  0  0  0  0  0  0
    1.0809   57.1913   72.1792 H   0  0  0  0  0  0  0  0  0  0  0  0
    2.3522   57.2900   73.4804 H   0  0  0  0  0  0  0  0  0  0  0  0
    1.2782   59.7687   72.1102 H   0  0  0  0  0  0  0  0  0  0  0  0
    0.4545   59.0203   73.5337 H   0  0  0  0  0  0  0  0  0  0  0  0
    2.0737   59.6044   74.8224 H   0  0  0  0  0  0  0  0  0  0  0  0
    5.5545   60.9922   69.5732 H   0  0  0  0  0  0  0  0  0  0  0  0
    4.8939   63.5510   71.7709 H   0  0  0  0  0  0  0  0  0  0  0  0
    5.9183   63.4536   70.2986 H   0  0  0  0  0  0  0  0  0  0  0  0
    4.4406   64.4748   70.2986 H   0  0  0  0  0  0  0  0  0  0  0  0
    2.7720   63.1294   68.6111 H   0  0  0  0  0  0  0  0  0  0  0  0
    4.5197   63.1099   68.1964 H   0  0  0  0  0  0  0  0  0  0  0  0
    3.5795   61.5793   68.1964 H   0  0  0  0  0  0  0  0  0  0  0  0
    2.1329   63.1657   70.7602 H   0  0  0  0  0  0  0  0  0  0  0  0
    2.2040   61.3567   70.7128 H   0  0  0  0  0  0  0  0  0  0  0  0
    2.1466   62.3600   72.8855 H   0  0  0  0  0  0  0  0  0  0  0  0
    4.7541   61.0040   72.3901 H   0  0  0  0  0  0  0  0  0  0  0  0
  2  1  1  0
  3  2  2  0
  4  1  1  0
  5  4  1  0
  6  5  1  0
  7  6  1  0
  8  2  1  0
  9  8  1  0
 10  9  1  0
 11  9  1  0
 12  9  1  0
 13 12  1  0
 14  8  1  0
  1 15  1  0
  4 16  1  0
  4 17  1  0
  5 18  1  0
  5 19  1  0
  6 20  1  0
  6 21  1  0
  7 22  1  0
  8 23  1  6
 10 24  1  0
 10 25  1  0
 10 26  1  0
 11 27  1  0
 11 28  1  0
 11 29  1  0
 12 30  1  0
 12 31  1  0
 13 32  1  0
 14 33  1  0
M  END
>  <score>  (9) 
-5.312

$$$$
