=
     RDKit          3D

 52 53  0  0  0  0  0  0  0  0999 V2000
    4.4910   69.6880   66.1680 C   0  0  0  0  0  0  0  0  0  0  0  0
    5.0650   70.0980   67.5280 C   0  0  0  0  0  0  0  0  0  0  0  0
    3.9910   70.4760   68.5520 C   0  0  0  0  0  0  0  0  0  0  0  0
    2.5730   70.0950   68.1110 C   0  0  0  0  0  0  0  0  0  0  0  0
    2.1960   68.6510   68.4560 C   0  0  0  0  0  0  0  0  0  0  0  0
   -1.2610   68.9310   66.8970 C   0  0  0  0  0  0  0  0  0  0  0  0
    0.0410   69.2460   67.2710 C   0  0  0  0  0  0  0  0  0  0  0  0
    0.7750   68.3380   68.0520 C   0  0  0  0  0  0  0  0  0  0  0  0
    0.1830   67.1210   68.4340 C   0  0  0  0  0  0  0  0  0  0  0  0
   -1.1250   66.8150   68.0530 C   0  0  0  0  0  0  0  0  0  0  0  0
   -1.8360   67.7250   67.2880 C   0  0  0  0  0  0  0  0  0  0  0  0
   -2.0190   69.7810   66.1390 O   0  0  0  0  0  0  0  0  0  0  0  0
   -3.1150   67.4270   66.9130 O   0  0  0  0  0  0  0  0  0  0  0  0
    5.5520   69.1750   65.1900 C   0  0  0  0  0  0  0  0  0  0  0  0
    5.2490   69.5290   63.7300 C   0  0  0  0  0  0  0  0  0  0  0  0
    5.5810   68.4040   62.7500 C   0  0  0  0  0  0  0  0  0  0  0  0
    4.4150   67.4460   62.6150 C   0  0  0  0  0  0  0  0  0  0  0  0
    4.5490   66.2310   62.4810 O   0  0  0  0  0  0  0  0  0  0  0  0
    3.0600   68.0300   62.6800 C   0  0  0  0  0  0  0  0  0  0  0  0
    2.5720   68.7810   61.6060 C   0  0  0  0  0  0  0  0  0  0  0  0
    1.2800   69.3060   61.6460 C   0  0  0  0  0  0  0  0  0  0  0  0
    0.4760   69.0840   62.7670 C   0  0  0  0  0  0  0  0  0  0  0  0
    0.9620   68.3440   63.8480 C   0  0  0  0  0  0  0  0  0  0  0  0
    2.2540   67.8200   63.8030 C   0  0  0  0  0  0  0  0  0  0  0  0
    3.3710   69.0400   60.5280 O   0  0  0  0  0  0  0  0  0  0  0  0
    2.7290   67.0960   64.8610 O   0  0  0  0  0  0  0  0  0  0  0  0
    3.7499   68.8910   66.3282 H   0  0  0  0  0  0  0  0  0  0  0  0
    4.0437   70.5874   65.7197 H   0  0  0  0  0  0  0  0  0  0  0  0
    5.6479   69.2556   67.9288 H   0  0  0  0  0  0  0  0  0  0  0  0
    5.6852   70.9913   67.3629 H   0  0  0  0  0  0  0  0  0  0  0  0
    4.2131   69.9601   69.4978 H   0  0  0  0  0  0  0  0  0  0  0  0
    4.0155   71.5703   68.6616 H   0  0  0  0  0  0  0  0  0  0  0  0
    1.8602   70.7697   68.6078 H   0  0  0  0  0  0  0  0  0  0  0  0
    2.5380   70.1869   67.0154 H   0  0  0  0  0  0  0  0  0  0  0  0
    2.8767   67.9678   67.9269 H   0  0  0  0  0  0  0  0  0  0  0  0
    2.2811   68.5231   69.5452 H   0  0  0  0  0  0  0  0  0  0  0  0
    0.4925   70.1989   66.9576 H   0  0  0  0  0  0  0  0  0  0  0  0
    0.7561   66.4029   69.0390 H   0  0  0  0  0  0  0  0  0  0  0  0
   -1.5851   65.8631   68.3566 H   0  0  0  0  0  0  0  0  0  0  0  0
   -2.9431   69.5298   65.8880 H   0  0  0  0  0  0  0  0  0  0  0  0
   -3.6330   68.0695   66.3662 H   0  0  0  0  0  0  0  0  0  0  0  0
    6.5217   69.6168   65.4628 H   0  0  0  0  0  0  0  0  0  0  0  0
    5.5622   68.0776   65.2649 H   0  0  0  0  0  0  0  0  0  0  0  0
    4.1775   69.7620   63.6431 H   0  0  0  0  0  0  0  0  0  0  0  0
    5.8844   70.3872   63.4658 H   0  0  0  0  0  0  0  0  0  0  0  0
    5.8064   68.8387   61.7650 H   0  0  0  0  0  0  0  0  0  0  0  0
    6.4506   67.8491   63.1319 H   0  0  0  0  0  0  0  0  0  0  0  0
    0.8958   69.8924   60.7983 H   0  0  0  0  0  0  0  0  0  0  0  0
   -0.5444   69.4937   62.7986 H   0  0  0  0  0  0  0  0  0  0  0  0
    0.3282   68.1753   64.7311 H   0  0  0  0  0  0  0  0  0  0  0  0
    3.0219   69.5720   59.7696 H   0  0  0  0  0  0  0  0  0  0  0  0
    3.6453   66.7222   64.8335 H   0  0  0  0  0  0  0  0  0  0  0  0
  2  1  1  0
  3  2  1  0
  4  3  1  0
  5  4  1  0
  7  6  2  0
  8  7  1  0
  8  5  1  0
  9  8  2  0
 10  9  1  0
 11 10  2  0
 11  6  1  0
 12  6  1  0
 13 11  1  0
 14  1  1  0
 15 14  1  0
 16 15  1  0
 17 16  1  0
 18 17  2  0
 19 17  1  0
 20 19  2  0
 21 20  1  0
 22 21  2  0
 23 22  1  0
 24 23  2  0
 24 19  1  0
 25 20  1  0
 26 24  1  0
  1 27  1  0
  1 28  1  0
  2 29  1  0
  2 30  1  0
  3 31  1  0
  3 32  1  0
  4 33  1  0
  4 34  1  0
  5 35  1  0
  5 36  1  0
  7 37  1  0
  9 38  1  0
 10 39  1  0
 12 40  1  0
 13 41  1  0
 14 42  1  0
 14 43  1  0
 15 44  1  0
 15 45  1  0
 16 46  1  0
 16 47  1  0
 21 48  1  0
 22 49  1  0
 23 50  1  0
 25 51  1  0
 26 52  1  0
M  END
>  <score>  (1) 
-9.558

$$$$
=
     RDKit          3D

 52 53  0  0  0  0  0  0  0  0999 V2000
    0.3720   65.4420   70.9450 C   0  0  0  0  0  0  0  0  0  0  0  0
    0.4620   63.9260   70.7350 C   0  0  0  0  0  0  0  0  0  0  0  0
    1.8010   63.3300   71.1740 C   0  0  0  0  0  0  0  0  0  0  0  0
    2.9930   63.8530   70.3640 C   0  0  0  0  0  0  0  0  0  0  0  0
    4.2980   63.1060   70.6510 C   0  0  0  0  0  0  0  0  0  0  0  0
    4.0120   59.5350   71.9250 C   0  0  0  0  0  0  0  0  0  0  0  0
    4.2300   60.9080   71.9020 C   0  0  0  0  0  0  0  0  0  0  0  0
    4.0830   61.6130   70.6960 C   0  0  0  0  0  0  0  0  0  0  0  0
    3.7060   60.9170   69.5330 C   0  0  0  0  0  0  0  0  0  0  0  0
    3.4890   59.5380   69.5670 C   0  0  0  0  0  0  0  0  0  0  0  0
    3.6450   58.8590   70.7650 C   0  0  0  0  0  0  0  0  0  0  0  0
    4.1440   58.8020   73.0730 O   0  0  0  0  0  0  0  0  0  0  0  0
    3.4320   57.5110   70.8000 O   0  0  0  0  0  0  0  0  0  0  0  0
    0.0720   66.2170   69.6600 C   0  0  0  0  0  0  0  0  0  0  0  0
    1.1800   67.2040   69.2760 C   0  0  0  0  0  0  0  0  0  0  0  0
    1.1710   67.5850   67.7960 C   0  0  0  0  0  0  0  0  0  0  0  0
    1.4280   69.0680   67.6190 C   0  0  0  0  0  0  0  0  0  0  0  0
    0.5490   69.9220   67.7060 O   0  0  0  0  0  0  0  0  0  0  0  0
    2.8230   69.4760   67.3590 C   0  0  0  0  0  0  0  0  0  0  0  0
    3.5770   70.0720   68.3750 C   0  0  0  0  0  0  0  0  0  0  0  0
    4.9070   70.4270   68.1460 C   0  0  0  0  0  0  0  0  0  0  0  0
    5.4820   70.1920   66.8950 C   0  0  0  0  0  0  0  0  0  0  0  0
    4.7310   69.6070   65.8730 C   0  0  0  0  0  0  0  0  0  0  0  0
    3.4020   69.2520   66.1060 C   0  0  0  0  0  0  0  0  0  0  0  0
    3.0040   70.3470   69.5850 O   0  0  0  0  0  0  0  0  0  0  0  0
    2.6680   68.6800   65.1050 O   0  0  0  0  0  0  0  0  0  0  0  0
   -0.4291   65.6465   71.6706 H   0  0  0  0  0  0  0  0  0  0  0  0
    1.3553   65.7788   71.3052 H   0  0  0  0  0  0  0  0  0  0  0  0
   -0.3402   63.4455   71.3144 H   0  0  0  0  0  0  0  0  0  0  0  0
    0.3629   63.7414   69.6551 H   0  0  0  0  0  0  0  0  0  0  0  0
    1.9630   63.5783   72.2333 H   0  0  0  0  0  0  0  0  0  0  0  0
    1.7447   62.2443   71.0063 H   0  0  0  0  0  0  0  0  0  0  0  0
    2.7599   63.7491   69.2940 H   0  0  0  0  0  0  0  0  0  0  0  0
    3.1485   64.9021   70.6558 H   0  0  0  0  0  0  0  0  0  0  0  0
    5.0246   63.3386   69.8586 H   0  0  0  0  0  0  0  0  0  0  0  0
    4.6721   63.4303   71.6333 H   0  0  0  0  0  0  0  0  0  0  0  0
    4.5157   61.4387   72.8222 H   0  0  0  0  0  0  0  0  0  0  0  0
    3.5809   61.4647   68.5873 H   0  0  0  0  0  0  0  0  0  0  0  0
    3.1979   58.9974   68.6543 H   0  0  0  0  0  0  0  0  0  0  0  0
    3.9821   57.8254   73.0581 H   0  0  0  0  0  0  0  0  0  0  0  0
    3.5402   57.0147   71.6497 H   0  0  0  0  0  0  0  0  0  0  0  0
   -0.0539   65.4962   68.8386 H   0  0  0  0  0  0  0  0  0  0  0  0
   -0.8407   66.8044   69.8387 H   0  0  0  0  0  0  0  0  0  0  0  0
    1.0525   68.1197   69.8720 H   0  0  0  0  0  0  0  0  0  0  0  0
    2.1403   66.7063   69.4761 H   0  0  0  0  0  0  0  0  0  0  0  0
    1.9556   67.0184   67.2732 H   0  0  0  0  0  0  0  0  0  0  0  0
    0.1821   67.3467   67.3772 H   0  0  0  0  0  0  0  0  0  0  0  0
    5.5005   70.8903   68.9479 H   0  0  0  0  0  0  0  0  0  0  0  0
    6.5311   70.4689   66.7139 H   0  0  0  0  0  0  0  0  0  0  0  0
    5.1858   69.4268   64.8878 H   0  0  0  0  0  0  0  0  0  0  0  0
    3.5403   70.7689   70.3022 H   0  0  0  0  0  0  0  0  0  0  0  0
    1.7246   68.4265   65.2658 H   0  0  0  0  0  0  0  0  0  0  0  0
  2  1  1  0
  3  2  1  0
  4  3  1  0
  5  4  1  0
  7  6  2  0
  8  7  1  0
  8  5  1  0
  9  8  2  0
 10  9  1  0
 11 10  2  0
 11  6  1  0
 12  6  1  0
 13 11  1  0
 14  1  1  0
 15 14  1  0
 16 15  1  0
 17 16  1  0
 18 17  2  0
 19 17  1  0
 20 19  2  0
 21 20  1  0
 22 21  2  0
 23 22  1  0
 24 23  2  0
 24 19  1  0
 25 20  1  0
 26 24  1  0
  1 27  1  0
  1 28  1  0
  2 29  1  0
  2 30  1  0
  3 31  1  0
  3 32  1  0
  4 33  1  0
  4 34  1  0
  5 35  1  0
  5 36  1  0
  7 37  1  0
  9 38  1  0
 10 39  1  0
 12 40  1  0
 13 41  1  0
 14 42  1  0
 14 43  1  0
 15 44  1  0
 15 45  1  0
 16 46  1  0
 16 47  1  0
 21 48  1  0
 22 49  1  0
 23 50  1  0
 25 51  1  0
 26 52  1  0
M  END
>  <score>  (2) 
-9.208

$$$$
=
     RDKit          3D

 52 53  0  0  0  0  0  0  0  0999 V2000
    5.0780   70.5700   66.9480 C   0  0  0  0  0  0  0  0  0  0  0  0
    4.9420   70.1970   68.4280 C   0  0  0  0  0  0  0  0  0  0  0  0
    3.7280   70.8370   69.1070 C   0  0  0  0  0  0  0  0  0  0  0  0
    2.3910   70.3930   68.5030 C   0  0  0  0  0  0  0  0  0  0  0  0
    2.3220   68.8900   68.2180 C   0  0  0  0  0  0  0  0  0  0  0  0
   -1.2430   68.7330   66.9060 C   0  0  0  0  0  0  0  0  0  0  0  0
    0.0560   69.1760   67.1300 C   0  0  0  0  0  0  0  0  0  0  0  0
    0.9020   68.4380   67.9740 C   0  0  0  0  0  0  0  0  0  0  0  0
    0.4240   67.2560   68.5670 C   0  0  0  0  0  0  0  0  0  0  0  0
   -0.8820   66.8210   68.3350 C   0  0  0  0  0  0  0  0  0  0  0  0
   -1.7050   67.5650   67.5060 C   0  0  0  0  0  0  0  0  0  0  0  0
   -2.1090   69.4170   66.0950 O   0  0  0  0  0  0  0  0  0  0  0  0
   -2.9820   67.1410   67.2760 O   0  0  0  0  0  0  0  0  0  0  0  0
    5.4360   69.3820   66.0520 C   0  0  0  0  0  0  0  0  0  0  0  0
    4.7840   69.4520   64.6670 C   0  0  0  0  0  0  0  0  0  0  0  0
    3.3060   69.0650   64.6690 C   0  0  0  0  0  0  0  0  0  0  0  0
    3.0100   68.0610   63.5740 C   0  0  0  0  0  0  0  0  0  0  0  0
    2.4970   68.3640   62.4990 O   0  0  0  0  0  0  0  0  0  0  0  0
    3.3960   66.6590   63.8320 C   0  0  0  0  0  0  0  0  0  0  0  0
    4.5050   66.1090   63.1800 C   0  0  0  0  0  0  0  0  0  0  0  0
    4.8960   64.7970   63.4470 C   0  0  0  0  0  0  0  0  0  0  0  0
    4.1730   64.0300   64.3630 C   0  0  0  0  0  0  0  0  0  0  0  0
    3.0580   64.5700   65.0090 C   0  0  0  0  0  0  0  0  0  0  0  0
    2.6700   65.8820   64.7410 C   0  0  0  0  0  0  0  0  0  0  0  0
    5.1870   66.8400   62.2490 O   0  0  0  0  0  0  0  0  0  0  0  0
    1.5790   66.4100   65.3730 O   0  0  0  0  0  0  0  0  0  0  0  0
    4.1208   70.9895   66.6048 H   0  0  0  0  0  0  0  0  0  0  0  0
    5.9016   71.2950   66.8703 H   0  0  0  0  0  0  0  0  0  0  0  0
    4.8485   69.1037   68.5049 H   0  0  0  0  0  0  0  0  0  0  0  0
    5.8383   70.5747   68.9419 H   0  0  0  0  0  0  0  0  0  0  0  0
    3.7384   70.5620   70.1720 H   0  0  0  0  0  0  0  0  0  0  0  0
    3.8074   71.9241   68.9587 H   0  0  0  0  0  0  0  0  0  0  0  0
    1.5869   70.6516   69.2077 H   0  0  0  0  0  0  0  0  0  0  0  0
    2.2817   70.9118   67.5392 H   0  0  0  0  0  0  0  0  0  0  0  0
    2.9263   68.6671   67.3263 H   0  0  0  0  0  0  0  0  0  0  0  0
    2.7088   68.3537   69.0971 H   0  0  0  0  0  0  0  0  0  0  0  0
    0.4181   70.0971   66.6500 H   0  0  0  0  0  0  0  0  0  0  0  0
    1.0858   66.6683   69.2202 H   0  0  0  0  0  0  0  0  0  0  0  0
   -1.2530   65.8983   68.8050 H   0  0  0  0  0  0  0  0  0  0  0  0
   -3.0282   69.0774   65.9542 H   0  0  0  0  0  0  0  0  0  0  0  0
   -3.5788   67.6652   66.6851 H   0  0  0  0  0  0  0  0  0  0  0  0
    6.5282   69.3578   65.9234 H   0  0  0  0  0  0  0  0  0  0  0  0
    5.0577   68.4747   66.5457 H   0  0  0  0  0  0  0  0  0  0  0  0
    4.8737   70.4821   64.2916 H   0  0  0  0  0  0  0  0  0  0  0  0
    5.3074   68.7273   64.0260 H   0  0  0  0  0  0  0  0  0  0  0  0
    3.0508   68.6218   65.6429 H   0  0  0  0  0  0  0  0  0  0  0  0
    2.7052   69.9688   64.4897 H   0  0  0  0  0  0  0  0  0  0  0  0
    5.7713   64.3677   62.9375 H   0  0  0  0  0  0  0  0  0  0  0  0
    4.4826   62.9964   64.5768 H   0  0  0  0  0  0  0  0  0  0  0  0
    2.4880   63.9618   65.7268 H   0  0  0  0  0  0  0  0  0  0  0  0
    5.9713   66.4480   61.7894 H   0  0  0  0  0  0  0  0  0  0  0  0
    1.3007   67.3413   65.1851 H   0  0  0  0  0  0  0  0  0  0  0  0
  2  1  1  0
  3  2  1  0
  4  3  1  0
  5  4  1  0
  7  6  2  0
  8  7  1  0
  8  5  1  0
  9  8  2  0
 10  9  1  0
 11 10  2  0
 11  6  1  0
 12  6  1  0
 13 11  1  0
 14  1  1  0
 15 14  1  0
 16 15  1  0
 17 16  1  0
 18 17  2  0
 19 17  1  0
 20 19  2  0
 21 20  1  0
 22 21  2  0
 23 22  1  0
 24 23  2  0
 24 19  1  0
 25 20  1  0
 26 24  1  0
  1 27  1  0
  1 28  1  0
  2 29  1  0
  2 30  1  0
  3 31  1  0
  3 32  1  0
  4 33  1  0
  4 34  1  0
  5 35  1  0
  5 36  1  0
  7 37  1  0
  9 38  1  0
 10 39  1  0
 12 40  1  0
 13 41  1  0
 14 42  1  0
 14 43  1  0
 15 44  1  0
 15 45  1  0
 16 46  1  0
 16 47  1  0
 21 48  1  0
 22 49  1  0
 23 50  1  0
 25 51  1  0
 26 52  1  0
M  END
>  <score>  (3) 
-9.058

$$$$
=
     RDKit          3D

 52 53  0  0  0  0  0  0  0  0999 V2000
    0.3760   66.0110   70.5560 C   0  0  0  0  0  0  0  0  0  0  0  0
    1.0800   64.6940   70.8990 C   0  0  0  0  0  0  0  0  0  0  0  0
    2.2590   64.3760   69.9760 C   0  0  0  0  0  0  0  0  0  0  0  0
    3.2880   63.4330   70.6100 C   0  0  0  0  0  0  0  0  0  0  0  0
    3.5990   62.2050   69.7500 C   0  0  0  0  0  0  0  0  0  0  0  0
    3.4500   58.5190   70.6720 C   0  0  0  0  0  0  0  0  0  0  0  0
    3.7230   59.6870   69.9690 C   0  0  0  0  0  0  0  0  0  0  0  0
    3.2990   60.9220   70.4870 C   0  0  0  0  0  0  0  0  0  0  0  0
    2.6160   60.9560   71.7160 C   0  0  0  0  0  0  0  0  0  0  0  0
    2.3480   59.7770   72.4140 C   0  0  0  0  0  0  0  0  0  0  0  0
    2.7670   58.5680   71.8840 C   0  0  0  0  0  0  0  0  0  0  0  0
    3.8380   57.2910   70.2090 O   0  0  0  0  0  0  0  0  0  0  0  0
    2.5060   57.4130   72.5650 O   0  0  0  0  0  0  0  0  0  0  0  0
    1.2050   66.9260   69.6520 C   0  0  0  0  0  0  0  0  0  0  0  0
    0.4890   67.3010   68.3500 C   0  0  0  0  0  0  0  0  0  0  0  0
    1.4220   67.8800   67.2860 C   0  0  0  0  0  0  0  0  0  0  0  0
    1.7800   69.3160   67.6080 C   0  0  0  0  0  0  0  0  0  0  0  0
    0.9580   70.1530   67.9760 O   0  0  0  0  0  0  0  0  0  0  0  0
    3.2040   69.6900   67.4900 C   0  0  0  0  0  0  0  0  0  0  0  0
    3.8770   69.5020   66.2780 C   0  0  0  0  0  0  0  0  0  0  0  0
    5.2120   69.8870   66.1490 C   0  0  0  0  0  0  0  0  0  0  0  0
    5.8780   70.4550   67.2380 C   0  0  0  0  0  0  0  0  0  0  0  0
    5.2140   70.6350   68.4540 C   0  0  0  0  0  0  0  0  0  0  0  0
    3.8790   70.2510   68.5790 C   0  0  0  0  0  0  0  0  0  0  0  0
    3.2430   68.9040   65.2260 O   0  0  0  0  0  0  0  0  0  0  0  0
    3.2310   70.4280   69.7690 O   0  0  0  0  0  0  0  0  0  0  0  0
   -0.5691   65.7780   70.0436 H   0  0  0  0  0  0  0  0  0  0  0  0
    0.2147   66.5488   71.5019 H   0  0  0  0  0  0  0  0  0  0  0  0
    1.4530   64.7569   71.9319 H   0  0  0  0  0  0  0  0  0  0  0  0
    0.3417   63.8886   70.7716 H   0  0  0  0  0  0  0  0  0  0  0  0
    1.8695   63.9040   69.0619 H   0  0  0  0  0  0  0  0  0  0  0  0
    2.7732   65.3253   69.7654 H   0  0  0  0  0  0  0  0  0  0  0  0
    4.2216   63.9924   70.7696 H   0  0  0  0  0  0  0  0  0  0  0  0
    2.8556   63.0676   71.5531 H   0  0  0  0  0  0  0  0  0  0  0  0
    2.9869   62.2440   68.8369 H   0  0  0  0  0  0  0  0  0  0  0  0
    4.6711   62.2188   69.5042 H   0  0  0  0  0  0  0  0  0  0  0  0
    4.2671   59.6443   69.0140 H   0  0  0  0  0  0  0  0  0  0  0  0
    2.2898   61.9209   72.1313 H   0  0  0  0  0  0  0  0  0  0  0  0
    1.8106   59.8079   73.3733 H   0  0  0  0  0  0  0  0  0  0  0  0
    3.6295   56.4764   70.7316 H   0  0  0  0  0  0  0  0  0  0  0  0
    2.8008   56.5431   72.1956 H   0  0  0  0  0  0  0  0  0  0  0  0
    1.4322   67.8498   70.2042 H   0  0  0  0  0  0  0  0  0  0  0  0
    2.1155   66.3738   69.3761 H   0  0  0  0  0  0  0  0  0  0  0  0
    0.0133   66.3972   67.9414 H   0  0  0  0  0  0  0  0  0  0  0  0
   -0.2442   68.0827   68.5975 H   0  0  0  0  0  0  0  0  0  0  0  0
    2.3424   67.2788   67.2478 H   0  0  0  0  0  0  0  0  0  0  0  0
    0.9072   67.8545   66.3142 H   0  0  0  0  0  0  0  0  0  0  0  0
    5.7380   69.7439   65.1936 H   0  0  0  0  0  0  0  0  0  0  0  0
    6.9296   70.7618   67.1376 H   0  0  0  0  0  0  0  0  0  0  0  0
    5.7427   71.0784   69.3106 H   0  0  0  0  0  0  0  0  0  0  0  0
    3.7218   68.7723   64.3695 H   0  0  0  0  0  0  0  0  0  0  0  0
    2.2834   70.1567   69.8618 H   0  0  0  0  0  0  0  0  0  0  0  0
  2  1  1  0
  3  2  1  0
  4  3  1  0
  5  4  1  0
  7  6  2  0
  8  7  1  0
  8  5  1  0
  9  8  2  0
 10  9  1  0
 11 10  2  0
 11  6  1  0
 12  6  1  0
 13 11  1  0
 14  1  1  0
 15 14  1  0
 16 15  1  0
 17 16  1  0
 18 17  2  0
 19 17  1  0
 20 19  2  0
 21 20  1  0
 22 21  2  0
 23 22  1  0
 24 23  2  0
 24 19  1  0
 25 20  1  0
 26 24  1  0
  1 27  1  0
  1 28  1  0
  2 29  1  0
  2 30  1  0
  3 31  1  0
  3 32  1  0
  4 33  1  0
  4 34  1  0
  5 35  1  0
  5 36  1  0
  7 37  1  0
  9 38  1  0
 10 39  1  0
 12 40  1  0
 13 41  1  0
 14 42  1  0
 14 43  1  0
 15 44  1  0
 15 45  1  0
 16 46  1  0
 16 47  1  0
 21 48  1  0
 22 49  1  0
 23 50  1  0
 25 51  1  0
 26 52  1  0
M  END
>  <score>  (4) 
-8.961

$$$$
=
     RDKit          3D

 52 53  0  0  0  0  0  0  0  0999 V2000
    0.1230   67.2370   68.2230 C   0  0  0  0  0  0  0  0  0  0  0  0
    0.2310   68.5270   67.4020 C   0  0  0  0  0  0  0  0  0  0  0  0
    0.7320   68.2990   65.9740 C   0  0  0  0  0  0  0  0  0  0  0  0
    2.2150   67.9140   65.9060 C   0  0  0  0  0  0  0  0  0  0  0  0
    3.0990   69.0060   65.3000 C   0  0  0  0  0  0  0  0  0  0  0  0
    4.5120   70.3660   68.5590 C   0  0  0  0  0  0  0  0  0  0  0  0
    3.6130   69.8560   67.6280 C   0  0  0  0  0  0  0  0  0  0  0  0
    4.0530   69.5760   66.3230 C   0  0  0  0  0  0  0  0  0  0  0  0
    5.3980   69.8060   65.9850 C   0  0  0  0  0  0  0  0  0  0  0  0
    6.2920   70.3170   66.9280 C   0  0  0  0  0  0  0  0  0  0  0  0
    5.8390   70.5940   68.2080 C   0  0  0  0  0  0  0  0  0  0  0  0
    4.1340   70.6570   69.8420 O   0  0  0  0  0  0  0  0  0  0  0  0
    6.7120   71.0930   69.1320 O   0  0  0  0  0  0  0  0  0  0  0  0
    1.1570   67.1430   69.3480 C   0  0  0  0  0  0  0  0  0  0  0  0
    0.8300   66.0600   70.3810 C   0  0  0  0  0  0  0  0  0  0  0  0
    1.8770   64.9490   70.4520 C   0  0  0  0  0  0  0  0  0  0  0  0
    1.2460   63.5970   70.1880 C   0  0  0  0  0  0  0  0  0  0  0  0
    0.0640   63.4480   69.8850 O   0  0  0  0  0  0  0  0  0  0  0  0
    2.1320   62.4190   70.2810 C   0  0  0  0  0  0  0  0  0  0  0  0
    3.1370   62.2240   69.3290 C   0  0  0  0  0  0  0  0  0  0  0  0
    4.0010   61.1330   69.4320 C   0  0  0  0  0  0  0  0  0  0  0  0
    3.8540   60.2290   70.4870 C   0  0  0  0  0  0  0  0  0  0  0  0
    2.8440   60.4120   71.4350 C   0  0  0  0  0  0  0  0  0  0  0  0
    1.9840   61.5050   71.3300 C   0  0  0  0  0  0  0  0  0  0  0  0
    3.2550   63.0790   68.2690 O   0  0  0  0  0  0  0  0  0  0  0  0
    0.9970   61.6830   72.2580 O   0  0  0  0  0  0  0  0  0  0  0  0
   -0.8818   67.1904   68.6683 H   0  0  0  0  0  0  0  0  0  0  0  0
    0.3133   66.3988   67.5366 H   0  0  0  0  0  0  0  0  0  0  0  0
   -0.7643   68.9928   67.3520 H   0  0  0  0  0  0  0  0  0  0  0  0
    0.9670   69.1713   67.9052 H   0  0  0  0  0  0  0  0  0  0  0  0
    0.1401   67.4899   65.5213 H   0  0  0  0  0  0  0  0  0  0  0  0
    0.6168   69.2495   65.4325 H   0  0  0  0  0  0  0  0  0  0  0  0
    2.5684   67.7058   66.9267 H   0  0  0  0  0  0  0  0  0  0  0  0
    2.2922   67.0332   65.2516 H   0  0  0  0  0  0  0  0  0  0  0  0
    3.6794   68.5766   64.4700 H   0  0  0  0  0  0  0  0  0  0  0  0
    2.4488   69.8185   64.9435 H   0  0  0  0  0  0  0  0  0  0  0  0
    2.5659   69.6733   67.9110 H   0  0  0  0  0  0  0  0  0  0  0  0
    5.7497   69.5811   64.9673 H   0  0  0  0  0  0  0  0  0  0  0  0
    7.3430   70.4975   66.6582 H   0  0  0  0  0  0  0  0  0  0  0  0
    4.7959   71.0191   70.4830 H   0  0  0  0  0  0  0  0  0  0  0  0
    6.3998   71.2947   70.0496 H   0  0  0  0  0  0  0  0  0  0  0  0
    2.1375   66.9171   68.9034 H   0  0  0  0  0  0  0  0  0  0  0  0
    1.1542   68.1084   69.8753 H   0  0  0  0  0  0  0  0  0  0  0  0
    0.7575   66.5338   71.3711 H   0  0  0  0  0  0  0  0  0  0  0  0
   -0.1167   65.5930   70.0715 H   0  0  0  0  0  0  0  0  0  0  0  0
    2.6546   65.1376   69.6972 H   0  0  0  0  0  0  0  0  0  0  0  0
    2.3159   64.9422   71.4606 H   0  0  0  0  0  0  0  0  0  0  0  0
    4.7950   60.9853   68.6852 H   0  0  0  0  0  0  0  0  0  0  0  0
    4.5359   59.3700   70.5716 H   0  0  0  0  0  0  0  0  0  0  0  0
    2.7274   59.6960   72.2619 H   0  0  0  0  0  0  0  0  0  0  0  0
    3.9677   62.9383   67.5965 H   0  0  0  0  0  0  0  0  0  0  0  0
    0.3846   62.4576   72.1869 H   0  0  0  0  0  0  0  0  0  0  0  0
  2  1  1  0
  3  2  1  0
  4  3  1  0
  5  4  1  0
  7  6  2  0
  8  7  1  0
  8  5  1  0
  9  8  2  0
 10  9  1  0
 11 10  2  0
 11  6  1  0
 12  6  1  0
 13 11  1  0
 14  1  1  0
 15 14  1  0
 16 15  1  0
 17 16  1  0
 18 17  2  0
 19 17  1  0
 20 19  2  0
 21 20  1  0
 22 21  2  0
 23 22  1  0
 24 23  2  0
 24 19  1  0
 25 20  1  0
 26 24  1  0
  1 27  1  0
  1 28  1  0
  2 29  1  0
  2 30  1  0
  3 31  1  0
  3 32  1  0
  4 33  1  0
  4 34  1  0
  5 35  1  0
  5 36  1  0
  7 37  1  0
  9 38  1  0
 10 39  1  0
 12 40  1  0
 13 41  1  0
 14 42  1  0
 14 43  1  0
 15 44  1  0
 15 45  1  0
 16 46  1  0
 16 47  1  0
 21 48  1  0
 22 49  1  0
 23 50  1  0
 25 51  1  0
 26 52  1  0
M  END
>  <score>  (5) 
-8.9

$$$$
=
     RDKit          3D

 52 53  0  0  0  0  0  0  0  0999 V2000
    4.6820   66.0770   63.5210 C   0  0  0  0  0  0  0  0  0  0  0  0
    4.3810   67.1670   62.4870 C   0  0  0  0  0  0  0  0  0  0  0  0
    5.1590   68.4640   62.7270 C   0  0  0  0  0  0  0  0  0  0  0  0
    4.7060   69.2180   63.9830 C   0  0  0  0  0  0  0  0  0  0  0  0
    5.8160   69.3860   65.0250 C   0  0  0  0  0  0  0  0  0  0  0  0
    3.4470   69.9030   67.9540 C   0  0  0  0  0  0  0  0  0  0  0  0
    3.9340   69.5120   66.7120 C   0  0  0  0  0  0  0  0  0  0  0  0
    5.2600   69.8160   66.3610 C   0  0  0  0  0  0  0  0  0  0  0  0
    6.0750   70.5020   67.2790 C   0  0  0  0  0  0  0  0  0  0  0  0
    5.5760   70.8900   68.5240 C   0  0  0  0  0  0  0  0  0  0  0  0
    4.2640   70.5870   68.8490 C   0  0  0  0  0  0  0  0  0  0  0  0
    2.1630   69.6340   68.3440 O   0  0  0  0  0  0  0  0  0  0  0  0
    3.7740   70.9650   70.0670 O   0  0  0  0  0  0  0  0  0  0  0  0
    3.4250   65.4740   64.1530 C   0  0  0  0  0  0  0  0  0  0  0  0
    2.6920   66.4450   65.0850 C   0  0  0  0  0  0  0  0  0  0  0  0
    1.3810   66.9750   64.5040 C   0  0  0  0  0  0  0  0  0  0  0  0
    0.8610   68.1390   65.3210 C   0  0  0  0  0  0  0  0  0  0  0  0
    1.3620   69.2610   65.2980 O   0  0  0  0  0  0  0  0  0  0  0  0
   -0.3300   67.8870   66.1580 C   0  0  0  0  0  0  0  0  0  0  0  0
   -1.5940   68.2860   65.7120 C   0  0  0  0  0  0  0  0  0  0  0  0
   -2.7270   68.0180   66.4810 C   0  0  0  0  0  0  0  0  0  0  0  0
   -2.5940   67.3560   67.7040 C   0  0  0  0  0  0  0  0  0  0  0  0
   -1.3330   66.9650   68.1600 C   0  0  0  0  0  0  0  0  0  0  0  0
   -0.2030   67.2330   67.3880 C   0  0  0  0  0  0  0  0  0  0  0  0
   -1.7230   68.9750   64.5400 O   0  0  0  0  0  0  0  0  0  0  0  0
    1.0310   66.8500   67.8350 O   0  0  0  0  0  0  0  0  0  0  0  0
    5.2435   65.2716   63.0250 H   0  0  0  0  0  0  0  0  0  0  0  0
    5.2582   66.5483   64.3309 H   0  0  0  0  0  0  0  0  0  0  0  0
    4.6420   66.7832   61.4897 H   0  0  0  0  0  0  0  0  0  0  0  0
    3.3114   67.4092   62.5723 H   0  0  0  0  0  0  0  0  0  0  0  0
    6.2256   68.2170   62.8334 H   0  0  0  0  0  0  0  0  0  0  0  0
    4.9705   69.1218   61.8657 H   0  0  0  0  0  0  0  0  0  0  0  0
    4.3555   70.2165   63.6829 H   0  0  0  0  0  0  0  0  0  0  0  0
    3.9093   68.6209   64.4506 H   0  0  0  0  0  0  0  0  0  0  0  0
    6.3393   68.4263   65.1478 H   0  0  0  0  0  0  0  0  0  0  0  0
    6.5064   70.1659   64.6712 H   0  0  0  0  0  0  0  0  0  0  0  0
    3.2857   68.9684   66.0090 H   0  0  0  0  0  0  0  0  0  0  0  0
    7.1166   70.7354   67.0134 H   0  0  0  0  0  0  0  0  0  0  0  0
    6.2164   71.4293   69.2375 H   0  0  0  0  0  0  0  0  0  0  0  0
    1.8450   69.9254   69.2351 H   0  0  0  0  0  0  0  0  0  0  0  0
    2.8380   70.7543   70.3111 H   0  0  0  0  0  0  0  0  0  0  0  0
    2.7374   65.1762   63.3477 H   0  0  0  0  0  0  0  0  0  0  0  0
    3.7451   64.6156   64.7619 H   0  0  0  0  0  0  0  0  0  0  0  0
    2.4694   65.9224   66.0270 H   0  0  0  0  0  0  0  0  0  0  0  0
    3.3532   67.3112   65.2349 H   0  0  0  0  0  0  0  0  0  0  0  0
    1.5539   67.3090   63.4703 H   0  0  0  0  0  0  0  0  0  0  0  0
    0.6342   66.1677   64.5264 H   0  0  0  0  0  0  0  0  0  0  0  0
   -3.7212   68.3268   66.1256 H   0  0  0  0  0  0  0  0  0  0  0  0
   -3.4863   67.1417   68.3105 H   0  0  0  0  0  0  0  0  0  0  0  0
   -1.2316   66.4472   69.1252 H   0  0  0  0  0  0  0  0  0  0  0  0
   -2.6192   69.2560   64.2271 H   0  0  0  0  0  0  0  0  0  0  0  0
    1.8355   67.0385   67.2897 H   0  0  0  0  0  0  0  0  0  0  0  0
  2  1  1  0
  3  2  1  0
  4  3  1  0
  5  4  1  0
  7  6  2  0
  8  7  1  0
  8  5  1  0
  9  8  2  0
 10  9  1  0
 11 10  2  0
 11  6  1  0
 12  6  1  0
 13 11  1  0
 14  1  1  0
 15 14  1  0
 16 15  1  0
 17 16  1  0
 18 17  2  0
 19 17  1  0
 20 19  2  0
 21 20  1  0
 22 21  2  0
 23 22  1  0
 24 23  2  0
 24 19  1  0
 25 20  1  0
 26 24  1  0
  1 27  1  0
  1 28  1  0
  2 29  1  0
  2 30  1  0
  3 31  1  0
  3 32  1  0
  4 33  1  0
  4 34  1  0
  5 35  1  0
  5 36  1  0
  7 37  1  0
  9 38  1  0
 10 39  1  0
 12 40  1  0
 13 41  1  0
 14 42  1  0
 14 43  1  0
 15 44  1  0
 15 45  1  0
 16 46  1  0
 16 47  1  0
 21 48  1  0
 22 49  1  0
 23 50  1  0
 25 51  1  0
 26 52  1  0
M  END
>  <score>  (6) 
-8.857

$$$$
=
     RDKit          3D

 52 53  0  0  0  0  0  0  0  0999 V2000
    0.8860   64.8310   70.7550 C   0  0  0  0  0  0  0  0  0  0  0  0
    0.3090   66.1280   70.1770 C   0  0  0  0  0  0  0  0  0  0  0  0
    1.3730   67.0550   69.5830 C   0  0  0  0  0  0  0  0  0  0  0  0
    1.0790   67.4690   68.1370 C   0  0  0  0  0  0  0  0  0  0  0  0
    1.2070   68.9750   67.8970 C   0  0  0  0  0  0  0  0  0  0  0  0
    4.7640   70.3150   68.0280 C   0  0  0  0  0  0  0  0  0  0  0  0
    3.4680   69.9890   68.4120 C   0  0  0  0  0  0  0  0  0  0  0  0
    2.6130   69.3540   67.4960 C   0  0  0  0  0  0  0  0  0  0  0  0
    3.0880   69.0480   66.2080 C   0  0  0  0  0  0  0  0  0  0  0  0
    4.3910   69.3790   65.8330 C   0  0  0  0  0  0  0  0  0  0  0  0
    5.2180   70.0120   66.7470 C   0  0  0  0  0  0  0  0  0  0  0  0
    5.6350   70.9360   68.8810 O   0  0  0  0  0  0  0  0  0  0  0  0
    6.4930   70.3360   66.3820 O   0  0  0  0  0  0  0  0  0  0  0  0
    2.3180   64.5450   70.2970 C   0  0  0  0  0  0  0  0  0  0  0  0
    2.9730   63.3840   71.0520 C   0  0  0  0  0  0  0  0  0  0  0  0
    3.3900   62.2260   70.1460 C   0  0  0  0  0  0  0  0  0  0  0  0
    4.3140   61.2740   70.8780 C   0  0  0  0  0  0  0  0  0  0  0  0
    5.5160   61.4810   71.0320 O   0  0  0  0  0  0  0  0  0  0  0  0
    3.7020   60.0570   71.4490 C   0  0  0  0  0  0  0  0  0  0  0  0
    3.3440   60.0240   72.8000 C   0  0  0  0  0  0  0  0  0  0  0  0
    2.7320   58.8910   73.3370 C   0  0  0  0  0  0  0  0  0  0  0  0
    2.4840   57.7840   72.5210 C   0  0  0  0  0  0  0  0  0  0  0  0
    2.8500   57.8070   71.1730 C   0  0  0  0  0  0  0  0  0  0  0  0
    3.4600   58.9430   70.6390 C   0  0  0  0  0  0  0  0  0  0  0  0
    3.6270   61.0860   73.6120 O   0  0  0  0  0  0  0  0  0  0  0  0
    3.8170   58.9640   69.3200 O   0  0  0  0  0  0  0  0  0  0  0  0
    0.8793   64.9052   71.8525 H   0  0  0  0  0  0  0  0  0  0  0  0
    0.2576   64.0053   70.3899 H   0  0  0  0  0  0  0  0  0  0  0  0
   -0.4084   65.8679   69.3848 H   0  0  0  0  0  0  0  0  0  0  0  0
   -0.1671   66.6701   71.0074 H   0  0  0  0  0  0  0  0  0  0  0  0
    1.4292   67.9630   70.2014 H   0  0  0  0  0  0  0  0  0  0  0  0
    2.3218   66.4985   69.5755 H   0  0  0  0  0  0  0  0  0  0  0  0
    1.7870   66.9492   67.4748 H   0  0  0  0  0  0  0  0  0  0  0  0
    0.0346   67.1948   67.9271 H   0  0  0  0  0  0  0  0  0  0  0  0
    0.5148   69.2691   67.0943 H   0  0  0  0  0  0  0  0  0  0  0  0
    0.9632   69.4959   68.8347 H   0  0  0  0  0  0  0  0  0  0  0  0
    3.1146   70.2267   69.4262 H   0  0  0  0  0  0  0  0  0  0  0  0
    2.4261   68.5429   65.4892 H   0  0  0  0  0  0  0  0  0  0  0  0
    4.7572   69.1401   64.8236 H   0  0  0  0  0  0  0  0  0  0  0  0
    6.5518   71.1556   68.5789 H   0  0  0  0  0  0  0  0  0  0  0  0
    7.0927   70.7884   67.0268 H   0  0  0  0  0  0  0  0  0  0  0  0
    2.2995   64.2987   69.2251 H   0  0  0  0  0  0  0  0  0  0  0  0
    2.9134   65.4465   70.5039 H   0  0  0  0  0  0  0  0  0  0  0  0
    3.8683   63.7638   71.5660 H   0  0  0  0  0  0  0  0  0  0  0  0
    2.2236   62.9913   71.7550 H   0  0  0  0  0  0  0  0  0  0  0  0
    2.4916   61.6794   69.8232 H   0  0  0  0  0  0  0  0  0  0  0  0
    3.9238   62.6348   69.2754 H   0  0  0  0  0  0  0  0  0  0  0  0
    2.4457   58.8692   74.3989 H   0  0  0  0  0  0  0  0  0  0  0  0
    1.9987   56.8910   72.9418 H   0  0  0  0  0  0  0  0  0  0  0  0
    2.6580   56.9323   70.5343 H   0  0  0  0  0  0  0  0  0  0  0  0
    3.3722   61.0596   74.5683 H   0  0  0  0  0  0  0  0  0  0  0  0
    4.2499   59.7678   68.9371 H   0  0  0  0  0  0  0  0  0  0  0  0
  2  1  1  0
  3  2  1  0
  4  3  1  0
  5  4  1  0
  7  6  2  0
  8  7  1  0
  8  5  1  0
  9  8  2  0
 10  9  1  0
 11 10  2  0
 11  6  1  0
 12  6  1  0
 13 11  1  0
 14  1  1  0
 15 14  1  0
 16 15  1  0
 17 16  1  0
 18 17  2  0
 19 17  1  0
 20 19  2  0
 21 20  1  0
 22 21  2  0
 23 22  1  0
 24 23  2  0
 24 19  1  0
 25 20  1  0
 26 24  1  0
  1 27  1  0
  1 28  1  0
  2 29  1  0
  2 30  1  0
  3 31  1  0
  3 32  1  0
  4 33  1  0
  4 34  1  0
  5 35  1  0
  5 36  1  0
  7 37  1  0
  9 38  1  0
 10 39  1  0
 12 40  1  0
 13 41  1  0
 14 42  1  0
 14 43  1  0
 15 44  1  0
 15 45  1  0
 16 46  1  0
 16 47  1  0
 21 48  1  0
 22 49  1  0
 23 50  1  0
 25 51  1  0
 26 52  1  0
M  END
>  <score>  (7) 
-8.611

$$$$
=
     RDKit          3D

 52 53  0  0  0  0  0  0  0  0999 V2000
    1.4320   66.5560   69.8160 C   0  0  0  0  0  0  0  0  0  0  0  0
   -0.0210   66.5460   69.3290 C   0  0  0  0  0  0  0  0  0  0  0  0
   -0.2130   67.2310   67.9740 C   0  0  0  0  0  0  0  0  0  0  0  0
    1.1040   67.6750   67.3270 C   0  0  0  0  0  0  0  0  0  0  0  0
    1.2850   69.1950   67.2970 C   0  0  0  0  0  0  0  0  0  0  0  0
    4.9980   69.8300   66.7790 C   0  0  0  0  0  0  0  0  0  0  0  0
    3.6840   69.4490   66.5330 C   0  0  0  0  0  0  0  0  0  0  0  0
    2.7220   69.5860   67.5470 C   0  0  0  0  0  0  0  0  0  0  0  0
    3.1040   70.1180   68.7920 C   0  0  0  0  0  0  0  0  0  0  0  0
    4.4270   70.4980   69.0280 C   0  0  0  0  0  0  0  0  0  0  0  0
    5.3630   70.3490   68.0180 C   0  0  0  0  0  0  0  0  0  0  0  0
    5.9740   69.7150   65.8260 O   0  0  0  0  0  0  0  0  0  0  0  0
    6.6570   70.7210   68.2470 O   0  0  0  0  0  0  0  0  0  0  0  0
    1.8660   65.2390   70.4630 C   0  0  0  0  0  0  0  0  0  0  0  0
    0.6940   64.4190   71.0120 C   0  0  0  0  0  0  0  0  0  0  0  0
    1.0240   63.6750   72.3060 C   0  0  0  0  0  0  0  0  0  0  0  0
    1.2820   62.2070   72.0320 C   0  0  0  0  0  0  0  0  0  0  0  0
    0.3950   61.3580   72.0020 O   0  0  0  0  0  0  0  0  0  0  0  0
    2.6810   61.8160   71.7640 C   0  0  0  0  0  0  0  0  0  0  0  0
    3.5540   61.5720   72.8290 C   0  0  0  0  0  0  0  0  0  0  0  0
    4.8660   61.1660   72.5830 C   0  0  0  0  0  0  0  0  0  0  0  0
    5.3090   61.0110   71.2670 C   0  0  0  0  0  0  0  0  0  0  0  0
    4.4440   61.2640   70.1990 C   0  0  0  0  0  0  0  0  0  0  0  0
    3.1330   61.6680   70.4490 C   0  0  0  0  0  0  0  0  0  0  0  0
    3.1390   61.7670   74.1170 O   0  0  0  0  0  0  0  0  0  0  0  0
    2.2880   61.9150   69.4040 O   0  0  0  0  0  0  0  0  0  0  0  0
    2.0869   66.7536   68.9546 H   0  0  0  0  0  0  0  0  0  0  0  0
    1.5105   67.3372   70.5864 H   0  0  0  0  0  0  0  0  0  0  0  0
   -0.3520   65.5007   69.2412 H   0  0  0  0  0  0  0  0  0  0  0  0
   -0.6137   67.1097   70.0645 H   0  0  0  0  0  0  0  0  0  0  0  0
   -0.7156   66.5267   67.2948 H   0  0  0  0  0  0  0  0  0  0  0  0
   -0.8118   68.1370   68.1489 H   0  0  0  0  0  0  0  0  0  0  0  0
    1.9371   67.2359   67.8954 H   0  0  0  0  0  0  0  0  0  0  0  0
    1.0852   67.3297   66.2828 H   0  0  0  0  0  0  0  0  0  0  0  0
    0.9784   69.5721   66.3102 H   0  0  0  0  0  0  0  0  0  0  0  0
    0.6647   69.6323   68.0932 H   0  0  0  0  0  0  0  0  0  0  0  0
    3.3997   69.0430   65.5510 H   0  0  0  0  0  0  0  0  0  0  0  0
    2.3533   70.2358   69.5874 H   0  0  0  0  0  0  0  0  0  0  0  0
    4.7221   70.9106   70.0041 H   0  0  0  0  0  0  0  0  0  0  0  0
    6.9013   69.9948   66.0308 H   0  0  0  0  0  0  0  0  0  0  0  0
    7.3351   70.6193   67.5329 H   0  0  0  0  0  0  0  0  0  0  0  0
    2.3912   64.6354   69.7081 H   0  0  0  0  0  0  0  0  0  0  0  0
    2.5141   65.4923   71.3150 H   0  0  0  0  0  0  0  0  0  0  0  0
   -0.1469   65.1008   71.2071 H   0  0  0  0  0  0  0  0  0  0  0  0
    0.4480   63.6593   70.2555 H   0  0  0  0  0  0  0  0  0  0  0  0
    1.9219   64.1205   72.7592 H   0  0  0  0  0  0  0  0  0  0  0  0
    0.1670   63.7606   72.9903 H   0  0  0  0  0  0  0  0  0  0  0  0
    5.5492   60.9686   73.4222 H   0  0  0  0  0  0  0  0  0  0  0  0
    6.3423   60.6887   71.0709 H   0  0  0  0  0  0  0  0  0  0  0  0
    4.7964   61.1448   69.1638 H   0  0  0  0  0  0  0  0  0  0  0  0
    3.7595   61.5933   74.8686 H   0  0  0  0  0  0  0  0  0  0  0  0
    1.3566   62.2020   69.5777 H   0  0  0  0  0  0  0  0  0  0  0  0
  2  1  1  0
  3  2  1  0
  4  3  1  0
  5  4  1  0
  7  6  2  0
  8  7  1  0
  8  5  1  0
  9  8  2  0
 10  9  1  0
 11 10  2  0
 11  6  1  0
 12  6  1  0
 13 11  1  0
 14  1  1  0
 15 14  1  0
 16 15  1  0
 17 16  1  0
 18 17  2  0
 19 17  1  0
 20 19  2  0
 21 20  1  0
 22 21  2  0
 23 22  1  0
 24 23  2  0
 24 19  1  0
 25 20  1  0
 26 24  1  0
  1 27  1  0
  1 28  1  0
  2 29  1  0
  2 30  1  0
  3 31  1  0
  3 32  1  0
  4 33  1  0
  4 34  1  0
  5 35  1  0
  5 36  1  0
  7 37  1  0
  9 38  1  0
 10 39  1  0
 12 40  1  0
 13 41  1  0
 14 42  1  0
 14 43  1  0
 15 44  1  0
 15 45  1  0
 16 46  1  0
 16 47  1  0
 21 48  1  0
 22 49  1  0
 23 50  1  0
 25 51  1  0
 26 52  1  0
M  END
>  <score>  (8) 
-8.522

$$$$
=
     RDKit          3D

 52 53  0  0  0  0  0  0  0  0999 V2000
    0.8610   66.2340   69.9920 C   0  0  0  0  0  0  0  0  0  0  0  0
   -0.3930   66.4790   69.1470 C   0  0  0  0  0  0  0  0  0  0  0  0
   -0.1240   67.2970   67.8820 C   0  0  0  0  0  0  0  0  0  0  0  0
    1.3280   67.7740   67.7650 C   0  0  0  0  0  0  0  0  0  0  0  0
    1.5510   68.7730   66.6270 C   0  0  0  0  0  0  0  0  0  0  0  0
    5.0270   69.6220   65.3400 C   0  0  0  0  0  0  0  0  0  0  0  0
    3.7110   69.1730   65.3720 C   0  0  0  0  0  0  0  0  0  0  0  0
    2.9860   69.2390   66.5730 C   0  0  0  0  0  0  0  0  0  0  0  0
    3.6010   69.7710   67.7210 C   0  0  0  0  0  0  0  0  0  0  0  0
    4.9230   70.2190   67.6770 C   0  0  0  0  0  0  0  0  0  0  0  0
    5.6240   70.1390   66.4850 C   0  0  0  0  0  0  0  0  0  0  0  0
    5.7770   69.5770   64.1960 O   0  0  0  0  0  0  0  0  0  0  0  0
    6.9170   70.5790   66.4410 O   0  0  0  0  0  0  0  0  0  0  0  0
    1.0190   64.7790   70.4410 C   0  0  0  0  0  0  0  0  0  0  0  0
    2.4800   64.3610   70.6320 C   0  0  0  0  0  0  0  0  0  0  0  0
    2.8590   63.0990   69.8560 C   0  0  0  0  0  0  0  0  0  0  0  0
    3.8570   62.2670   70.6350 C   0  0  0  0  0  0  0  0  0  0  0  0
    4.9830   62.6610   70.9300 O   0  0  0  0  0  0  0  0  0  0  0  0
    3.4120   60.9280   71.0710 C   0  0  0  0  0  0  0  0  0  0  0  0
    3.7390   59.8010   70.3100 C   0  0  0  0  0  0  0  0  0  0  0  0
    3.3530   58.5300   70.7350 C   0  0  0  0  0  0  0  0  0  0  0  0
    2.6310   58.3850   71.9220 C   0  0  0  0  0  0  0  0  0  0  0  0
    2.2920   59.5080   72.6810 C   0  0  0  0  0  0  0  0  0  0  0  0
    2.6810   60.7770   72.2540 C   0  0  0  0  0  0  0  0  0  0  0  0
    4.4040   59.9420   69.1240 O   0  0  0  0  0  0  0  0  0  0  0  0
    2.3490   61.8750   72.9970 O   0  0  0  0  0  0  0  0  0  0  0  0
    1.7426   66.5123   69.3959 H   0  0  0  0  0  0  0  0  0  0  0  0
    0.7632   66.8449   70.9015 H   0  0  0  0  0  0  0  0  0  0  0  0
   -0.8091   65.5049   68.8503 H   0  0  0  0  0  0  0  0  0  0  0  0
   -1.0930   67.0595   69.7660 H   0  0  0  0  0  0  0  0  0  0  0  0
   -0.3581   66.6733   67.0067 H   0  0  0  0  0  0  0  0  0  0  0  0
   -0.7582   68.1943   67.9336 H   0  0  0  0  0  0  0  0  0  0  0  0
    1.6142   68.2550   68.7120 H   0  0  0  0  0  0  0  0  0  0  0  0
    1.9432   66.8891   67.5449 H   0  0  0  0  0  0  0  0  0  0  0  0
    1.2959   68.2899   65.6722 H   0  0  0  0  0  0  0  0  0  0  0  0
    0.9102   69.6489   66.8062 H   0  0  0  0  0  0  0  0  0  0  0  0
    3.2414   68.7690   64.4630 H   0  0  0  0  0  0  0  0  0  0  0  0
    3.0352   69.8347   68.6622 H   0  0  0  0  0  0  0  0  0  0  0  0
    5.4017   70.6304   68.5779 H   0  0  0  0  0  0  0  0  0  0  0  0
    6.7114   69.9039   64.2035 H   0  0  0  0  0  0  0  0  0  0  0  0
    7.4289   70.5273   65.5952 H   0  0  0  0  0  0  0  0  0  0  0  0
    0.4905   64.6489   71.3969 H   0  0  0  0  0  0  0  0  0  0  0  0
    0.5990   64.1446   69.6465 H   0  0  0  0  0  0  0  0  0  0  0  0
    3.1252   65.1851   70.2934 H   0  0  0  0  0  0  0  0  0  0  0  0
    2.6159   64.1373   71.7004 H   0  0  0  0  0  0  0  0  0  0  0  0
    1.9535   62.5009   69.6761 H   0  0  0  0  0  0  0  0  0  0  0  0
    3.3175   63.3968   68.9015 H   0  0  0  0  0  0  0  0  0  0  0  0
    3.6162   57.6447   70.1375 H   0  0  0  0  0  0  0  0  0  0  0  0
    2.3283   57.3831   72.2604 H   0  0  0  0  0  0  0  0  0  0  0  0
    1.7197   59.3913   73.6131 H   0  0  0  0  0  0  0  0  0  0  0  0
    4.6342   59.1425   68.5874 H   0  0  0  0  0  0  0  0  0  0  0  0
    2.6237   62.7775   72.6966 H   0  0  0  0  0  0  0  0  0  0  0  0
  2  1  1  0
  3  2  1  0
  4  3  1  0
  5  4  1  0
  7  6  2  0
  8  7  1  0
  8  5  1  0
  9  8  2  0
 10  9  1  0
 11 10  2  0
 11  6  1  0
 12  6  1  0
 13 11  1  0
 14  1  1  0
 15 14  1  0
 16 15  1  0
 17 16  1  0
 18 17  2  0
 19 17  1  0
 20 19  2  0
 21 20  1  0
 22 21  2  0
 23 22  1  0
 24 23  2  0
 24 19  1  0
 25 20  1  0
 26 24  1  0
  1 27  1  0
  1 28  1  0
  2 29  1  0
  2 30  1  0
  3 31  1  0
  3 32  1  0
  4 33  1  0
  4 34  1  0
  5 35  1  0
  5 36  1  0
  7 37  1  0
  9 38  1  0
 10 39  1  0
 12 40  1  0
 13 41  1  0
 14 42  1  0
 14 43  1  0
 15 44  1  0
 15 45  1  0
 16 46  1  0
 16 47  1  0
 21 48  1  0
 22 49  1  0
 23 50  1  0
 25 51  1  0
 26 52  1  0
M  END
>  <score>  (9) 
-8.463

$$$$
