=
     RDKit          3D

 48 49  0  0  0  0  0  0  0  0999 V2000
    3.1220   69.4680   67.2530 C   0  0  0  0  0  0  0  0  0  0  0  0
    4.2300   69.7060   66.4410 C   0  0  0  0  0  0  0  0  0  0  0  0
    4.1980   69.3990   65.0740 C   0  0  0  0  0  0  0  0  0  0  0  0
    3.0420   68.8550   64.5040 C   0  0  0  0  0  0  0  0  0  0  0  0
    1.9180   68.6050   65.2970 C   0  0  0  0  0  0  0  0  0  0  0  0
    1.9770   68.9130   66.6650 C   0  0  0  0  0  0  0  0  0  0  0  0
    4.0730   70.5900   69.1290 C   0  0  0  0  0  0  0  0  0  0  0  0
    3.0490   69.7570   68.5900 O   0  0  0  0  0  0  0  0  0  0  0  0
    5.3570   69.6920   64.4090 O   0  0  0  0  0  0  0  0  0  0  0  0
    5.4860   69.2220   63.0730 C   0  0  0  0  0  0  0  0  0  0  0  0
    0.8010   68.6440   67.5120 C   0  0  0  0  0  0  0  0  0  0  0  0
    0.0120   69.5460   67.7850 O   0  0  0  0  0  0  0  0  0  0  0  0
    0.6520   67.2290   68.0370 C   0  0  0  0  0  0  0  0  0  0  0  0
    1.2090   67.1130   69.4590 C   0  0  0  0  0  0  0  0  0  0  0  0
    0.4310   66.0930   70.2970 C   0  0  0  0  0  0  0  0  0  0  0  0
    0.9170   64.6820   70.1090 N   0  0  0  0  0  4  0  0  0  0  0  0
    2.3900   64.4680   70.4090 C   0  0  0  0  0  0  0  0  0  0  0  0
    2.4590   62.9820   70.6970 C   0  0  0  0  0  0  0  0  0  0  0  0
    1.1930   62.7410   71.4960 C   0  0  0  0  0  0  0  0  0  0  0  0
    0.1390   63.5790   70.7910 C   0  0  0  0  0  0  0  0  0  0  0  0
    0.7280   68.1010   64.8360 O   0  0  0  0  0  0  0  0  0  0  0  0
    0.0550   68.8450   63.8250 C   0  0  0  0  0  0  0  0  0  0  0  0
    5.1409   70.1403   66.8789 H   0  0  0  0  0  0  0  0  0  0  0  0
    3.0173   68.6233   63.4290 H   0  0  0  0  0  0  0  0  0  0  0  0
    4.0322   70.5568   70.2277 H   0  0  0  0  0  0  0  0  0  0  0  0
    5.0552   70.2312   68.7875 H   0  0  0  0  0  0  0  0  0  0  0  0
    3.9216   71.6246   68.7875 H   0  0  0  0  0  0  0  0  0  0  0  0
    5.7771   68.1613   63.0840 H   0  0  0  0  0  0  0  0  0  0  0  0
    4.5242   69.3329   62.5508 H   0  0  0  0  0  0  0  0  0  0  0  0
    6.2564   69.8083   62.5508 H   0  0  0  0  0  0  0  0  0  0  0  0
   -0.4140   66.9578   68.0444 H   0  0  0  0  0  0  0  0  0  0  0  0
    1.2164   66.5494   67.3816 H   0  0  0  0  0  0  0  0  0  0  0  0
    2.2617   66.7987   69.4039 H   0  0  0  0  0  0  0  0  0  0  0  0
    1.1129   68.0959   69.9435 H   0  0  0  0  0  0  0  0  0  0  0  0
    0.5346   66.3604   71.3590 H   0  0  0  0  0  0  0  0  0  0  0  0
   -0.6170   66.1262   69.9644 H   0  0  0  0  0  0  0  0  0  0  0  0
    0.7437   64.5934   69.0976 H   0  0  0  0  0  0  0  0  0  0  0  0
    3.0138   64.7335   69.5428 H   0  0  0  0  0  0  0  0  0  0  0  0
    2.7619   65.0906   71.2361 H   0  0  0  0  0  0  0  0  0  0  0  0
    2.4583   62.3966   69.7657 H   0  0  0  0  0  0  0  0  0  0  0  0
    3.3748   62.6810   71.2268 H   0  0  0  0  0  0  0  0  0  0  0  0
    0.9189   61.6758   71.4799 H   0  0  0  0  0  0  0  0  0  0  0  0
    1.3066   63.0130   72.5558 H   0  0  0  0  0  0  0  0  0  0  0  0
   -0.5725   63.9985   71.5175 H   0  0  0  0  0  0  0  0  0  0  0  0
   -0.4546   62.9872   70.0787 H   0  0  0  0  0  0  0  0  0  0  0  0
   -0.6121   69.5825   64.2952 H   0  0  0  0  0  0  0  0  0  0  0  0
    0.7947   69.3661   63.1995 H   0  0  0  0  0  0  0  0  0  0  0  0
   -0.5374   68.1611   63.1995 H   0  0  0  0  0  0  0  0  0  0  0  0
  2  1  2  0
  3  2  1  0
  4  3  2  0
  5  4  1  0
  6  5  2  0
  6  1  1  0
  8  7  1  0
  8  1  1  0
  9  3  1  0
 10  9  1  0
 11  6  1  0
 12 11  2  0
 13 11  1  0
 14 13  1  0
 15 14  1  0
 16 15  1  0
 17 16  1  0
 18 17  1  0
 19 18  1  0
 20 16  1  0
 20 19  1  0
 21  5  1  0
 22 21  1  0
  2 23  1  0
  4 24  1  0
  7 25  1  0
  7 26  1  0
  7 27  1  0
 10 28  1  0
 10 29  1  0
 10 30  1  0
 13 31  1  0
 13 32  1  0
 14 33  1  0
 14 34  1  0
 15 35  1  0
 15 36  1  0
 16 37  1  0
 17 38  1  0
 17 39  1  0
 18 40  1  0
 18 41  1  0
 19 42  1  0
 19 43  1  0
 20 44  1  0
 20 45  1  0
 22 46  1  0
 22 47  1  0
 22 48  1  0
M  CHG  1  16   1
M  END
>  <score>  (1) 
-7.866

$$$$
=
     RDKit          3D

 48 49  0  0  0  0  0  0  0  0999 V2000
    2.0340   68.5960   65.2760 C   0  0  0  0  0  0  0  0  0  0  0  0
    3.1770   68.8650   64.5240 C   0  0  0  0  0  0  0  0  0  0  0  0
    4.3080   69.4400   65.1180 C   0  0  0  0  0  0  0  0  0  0  0  0
    4.3050   69.7450   66.4830 C   0  0  0  0  0  0  0  0  0  0  0  0
    3.1710   69.4870   67.2590 C   0  0  0  0  0  0  0  0  0  0  0  0
    2.0480   68.9170   66.6400 C   0  0  0  0  0  0  0  0  0  0  0  0
    0.1180   68.7770   63.8700 C   0  0  0  0  0  0  0  0  0  0  0  0
    0.8920   68.0140   64.7920 O   0  0  0  0  0  0  0  0  0  0  0  0
    5.3500   69.6400   64.2550 O   0  0  0  0  0  0  0  0  0  0  0  0
    5.2180   69.1300   62.9340 C   0  0  0  0  0  0  0  0  0  0  0  0
    0.8430   68.6510   67.4470 C   0  0  0  0  0  0  0  0  0  0  0  0
    0.0470   69.5540   67.6920 O   0  0  0  0  0  0  0  0  0  0  0  0
    0.6740   67.2360   67.9680 C   0  0  0  0  0  0  0  0  0  0  0  0
    1.1870   67.1190   69.4060 C   0  0  0  0  0  0  0  0  0  0  0  0
    0.4130   66.0660   70.2060 C   0  0  0  0  0  0  0  0  0  0  0  0
    0.9710   64.6780   70.0490 N   0  0  0  0  0  4  0  0  0  0  0  0
    2.4270   64.5250   70.4540 C   0  0  0  0  0  0  0  0  0  0  0  0
    2.5380   63.0410   70.7400 C   0  0  0  0  0  0  0  0  0  0  0  0
    1.2290   62.7420   71.4450 C   0  0  0  0  0  0  0  0  0  0  0  0
    0.1940   63.5390   70.6690 C   0  0  0  0  0  0  0  0  0  0  0  0
    3.0730   69.7210   68.6070 O   0  0  0  0  0  0  0  0  0  0  0  0
    3.9770   70.6660   69.1710 C   0  0  0  0  0  0  0  0  0  0  0  0
    3.1908   68.6227   63.4511 H   0  0  0  0  0  0  0  0  0  0  0  0
    5.1977   70.1893   66.9475 H   0  0  0  0  0  0  0  0  0  0  0  0
   -0.5589   69.4443   64.4237 H   0  0  0  0  0  0  0  0  0  0  0  0
    0.7883   69.3774   63.2374 H   0  0  0  0  0  0  0  0  0  0  0  0
   -0.4728   68.0982   63.2374 H   0  0  0  0  0  0  0  0  0  0  0  0
    4.9426   68.0659   62.9776 H   0  0  0  0  0  0  0  0  0  0  0  0
    4.4352   69.6898   62.4013 H   0  0  0  0  0  0  0  0  0  0  0  0
    6.1741   69.2398   62.4013 H   0  0  0  0  0  0  0  0  0  0  0  0
   -0.3925   66.9679   67.9430 H   0  0  0  0  0  0  0  0  0  0  0  0
    1.2562   66.5545   67.3303 H   0  0  0  0  0  0  0  0  0  0  0  0
    2.2499   66.8369   69.3823 H   0  0  0  0  0  0  0  0  0  0  0  0
    1.0454   68.0925   69.8982 H   0  0  0  0  0  0  0  0  0  0  0  0
    0.4488   66.3393   71.2709 H   0  0  0  0  0  0  0  0  0  0  0  0
   -0.6165   66.0514   69.8189 H   0  0  0  0  0  0  0  0  0  0  0  0
    0.8748   64.5883   69.0274 H   0  0  0  0  0  0  0  0  0  0  0  0
    3.0998   64.8229   69.6363 H   0  0  0  0  0  0  0  0  0  0  0  0
    2.7116   65.1570   71.3081 H   0  0  0  0  0  0  0  0  0  0  0  0
    2.6287   62.4627   69.8087 H   0  0  0  0  0  0  0  0  0  0  0  0
    3.4254   62.7746   71.3329 H   0  0  0  0  0  0  0  0  0  0  0  0
    1.0021   61.6664   71.4058 H   0  0  0  0  0  0  0  0  0  0  0  0
    1.2546   63.0120   72.5110 H   0  0  0  0  0  0  0  0  0  0  0  0
   -0.5852   63.9232   71.3437 H   0  0  0  0  0  0  0  0  0  0  0  0
   -0.3210   62.9273   69.9136 H   0  0  0  0  0  0  0  0  0  0  0  0
    3.9258   70.6125   70.2685 H   0  0  0  0  0  0  0  0  0  0  0  0
    5.0007   70.4368   68.8401 H   0  0  0  0  0  0  0  0  0  0  0  0
    3.7027   71.6785   68.8401 H   0  0  0  0  0  0  0  0  0  0  0  0
  2  1  2  0
  3  2  1  0
  4  3  2  0
  5  4  1  0
  6  5  2  0
  6  1  1  0
  8  7  1  0
  8  1  1  0
  9  3  1  0
 10  9  1  0
 11  6  1  0
 12 11  2  0
 13 11  1  0
 14 13  1  0
 15 14  1  0
 16 15  1  0
 17 16  1  0
 18 17  1  0
 19 18  1  0
 20 16  1  0
 20 19  1  0
 21  5  1  0
 22 21  1  0
  2 23  1  0
  4 24  1  0
  7 25  1  0
  7 26  1  0
  7 27  1  0
 10 28  1  0
 10 29  1  0
 10 30  1  0
 13 31  1  0
 13 32  1  0
 14 33  1  0
 14 34  1  0
 15 35  1  0
 15 36  1  0
 16 37  1  0
 17 38  1  0
 17 39  1  0
 18 40  1  0
 18 41  1  0
 19 42  1  0
 19 43  1  0
 20 44  1  0
 20 45  1  0
 22 46  1  0
 22 47  1  0
 22 48  1  0
M  CHG  1  16   1
M  END
>  <score>  (2) 
-7.846

$$$$
=
     RDKit          3D

 48 49  0  0  0  0  0  0  0  0999 V2000
    3.3030   66.4560   64.3410 C   0  0  0  0  0  0  0  0  0  0  0  0
    2.2950   66.2790   65.2870 C   0  0  0  0  0  0  0  0  0  0  0  0
    1.1500   67.0860   65.2760 C   0  0  0  0  0  0  0  0  0  0  0  0
    1.0010   68.0780   64.3020 C   0  0  0  0  0  0  0  0  0  0  0  0
    1.9980   68.2770   63.3420 C   0  0  0  0  0  0  0  0  0  0  0  0
    3.1400   67.4620   63.3790 C   0  0  0  0  0  0  0  0  0  0  0  0
    4.2860   64.2870   64.2350 C   0  0  0  0  0  0  0  0  0  0  0  0
    4.4450   65.7030   64.2560 O   0  0  0  0  0  0  0  0  0  0  0  0
    0.2500   66.7900   66.2630 O   0  0  0  0  0  0  0  0  0  0  0  0
   -0.6380   67.8230   66.6750 C   0  0  0  0  0  0  0  0  0  0  0  0
    4.2020   67.6700   62.3780 C   0  0  0  0  0  0  0  0  0  0  0  0
    4.0880   67.2060   61.2460 O   0  0  0  0  0  0  0  0  0  0  0  0
    5.4230   68.4440   62.8360 C   0  0  0  0  0  0  0  0  0  0  0  0
    5.0430   69.4960   63.8820 C   0  0  0  0  0  0  0  0  0  0  0  0
    5.5740   69.1390   65.2740 C   0  0  0  0  0  0  0  0  0  0  0  0
    5.3120   70.2080   66.2980 N   0  0  0  0  0  4  0  0  0  0  0  0
    4.3050   69.8330   67.3710 C   0  0  0  0  0  0  0  0  0  0  0  0
    4.6580   70.7760   68.5030 C   0  0  0  0  0  0  0  0  0  0  0  0
    6.1740   70.7870   68.4630 C   0  0  0  0  0  0  0  0  0  0  0  0
    6.5100   70.8280   66.9810 C   0  0  0  0  0  0  0  0  0  0  0  0
    1.9390   69.2010   62.3300 O   0  0  0  0  0  0  0  0  0  0  0  0
    0.6700   69.4210   61.7230 C   0  0  0  0  0  0  0  0  0  0  0  0
    2.3998   65.4956   66.0521 H   0  0  0  0  0  0  0  0  0  0  0  0
    0.0965   68.7039   64.2909 H   0  0  0  0  0  0  0  0  0  0  0  0
    4.2434   63.9075   65.2666 H   0  0  0  0  0  0  0  0  0  0  0  0
    3.3534   64.0305   63.7111 H   0  0  0  0  0  0  0  0  0  0  0  0
    5.1385   63.8300   63.7111 H   0  0  0  0  0  0  0  0  0  0  0  0
   -0.6711   67.8615   67.7738 H   0  0  0  0  0  0  0  0  0  0  0  0
   -0.2836   68.7885   66.2848 H   0  0  0  0  0  0  0  0  0  0  0  0
   -1.6457   67.6175   66.2848 H   0  0  0  0  0  0  0  0  0  0  0  0
    6.1486   67.7443   63.2762 H   0  0  0  0  0  0  0  0  0  0  0  0
    5.8612   68.9556   61.9664 H   0  0  0  0  0  0  0  0  0  0  0  0
    5.4641   70.4661   63.5793 H   0  0  0  0  0  0  0  0  0  0  0  0
    3.9452   69.5388   63.9377 H   0  0  0  0  0  0  0  0  0  0  0  0
    5.0882   68.2097   65.6061 H   0  0  0  0  0  0  0  0  0  0  0  0
    6.6650   69.0265   65.1896 H   0  0  0  0  0  0  0  0  0  0  0  0
    4.9150   70.9248   65.6739 H   0  0  0  0  0  0  0  0  0  0  0  0
    3.2746   69.9988   67.0233 H   0  0  0  0  0  0  0  0  0  0  0  0
    4.3472   68.7718   67.6576 H   0  0  0  0  0  0  0  0  0  0  0  0
    4.2487   71.7813   68.3248 H   0  0  0  0  0  0  0  0  0  0  0  0
    4.2480   70.4655   69.4754 H   0  0  0  0  0  0  0  0  0  0  0  0
    6.5710   71.6746   68.9773 H   0  0  0  0  0  0  0  0  0  0  0  0
    6.6143   69.9157   68.9699 H   0  0  0  0  0  0  0  0  0  0  0  0
    7.4195   70.2452   66.7733 H   0  0  0  0  0  0  0  0  0  0  0  0
    6.7073   71.8507   66.6273 H   0  0  0  0  0  0  0  0  0  0  0  0
   -0.0924   69.5532   62.5048 H   0  0  0  0  0  0  0  0  0  0  0  0
    0.7144   70.3248   61.0976 H   0  0  0  0  0  0  0  0  0  0  0  0
    0.4076   68.5549   61.0976 H   0  0  0  0  0  0  0  0  0  0  0  0
  2  1  2  0
  3  2  1  0
  4  3  2  0
  5  4  1  0
  6  5  2  0
  6  1  1  0
  8  7  1  0
  8  1  1  0
  9  3  1  0
 10  9  1  0
 11  6  1  0
 12 11  2  0
 13 11  1  0
 14 13  1  0
 15 14  1  0
 16 15  1  0
 17 16  1  0
 18 17  1  0
 19 18  1  0
 20 16  1  0
 20 19  1  0
 21  5  1  0
 22 21  1  0
  2 23  1  0
  4 24  1  0
  7 25  1  0
  7 26  1  0
  7 27  1  0
 10 28  1  0
 10 29  1  0
 10 30  1  0
 13 31  1  0
 13 32  1  0
 14 33  1  0
 14 34  1  0
 15 35  1  0
 15 36  1  0
 16 37  1  0
 17 38  1  0
 17 39  1  0
 18 40  1  0
 18 41  1  0
 19 42  1  0
 19 43  1  0
 20 44  1  0
 20 45  1  0
 22 46  1  0
 22 47  1  0
 22 48  1  0
M  CHG  1  16   1
M  END
>  <score>  (3) 
-7.839

$$$$
=
     RDKit          3D

 48 49  0  0  0  0  0  0  0  0999 V2000
    5.2360   69.1830   65.3880 C   0  0  0  0  0  0  0  0  0  0  0  0
    6.1620   69.9460   66.0970 C   0  0  0  0  0  0  0  0  0  0  0  0
    5.8320   70.5060   67.3380 C   0  0  0  0  0  0  0  0  0  0  0  0
    4.5620   70.2960   67.8870 C   0  0  0  0  0  0  0  0  0  0  0  0
    3.6140   69.5350   67.1950 C   0  0  0  0  0  0  0  0  0  0  0  0
    3.9660   68.9920   65.9500 C   0  0  0  0  0  0  0  0  0  0  0  0
    5.5410   69.4180   63.0360 C   0  0  0  0  0  0  0  0  0  0  0  0
    5.4730   68.5760   64.1830 O   0  0  0  0  0  0  0  0  0  0  0  0
    6.8440   71.2250   67.9120 O   0  0  0  0  0  0  0  0  0  0  0  0
    7.1240   70.9850   69.2860 C   0  0  0  0  0  0  0  0  0  0  0  0
    2.9710   68.1970   65.2080 C   0  0  0  0  0  0  0  0  0  0  0  0
    2.9230   66.9770   65.3450 O   0  0  0  0  0  0  0  0  0  0  0  0
    2.0590   68.9600   64.2660 C   0  0  0  0  0  0  0  0  0  0  0  0
    0.8080   68.1410   63.9350 C   0  0  0  0  0  0  0  0  0  0  0  0
   -0.4790   68.9210   64.2260 C   0  0  0  0  0  0  0  0  0  0  0  0
   -0.9540   68.7680   65.6450 N   0  0  0  0  0  4  0  0  0  0  0  0
   -2.4630   68.7380   65.8140 C   0  0  0  0  0  0  0  0  0  0  0  0
   -2.6350   68.0320   67.1440 C   0  0  0  0  0  0  0  0  0  0  0  0
   -1.5770   66.9470   67.0810 C   0  0  0  0  0  0  0  0  0  0  0  0
   -0.3730   67.6330   66.4570 C   0  0  0  0  0  0  0  0  0  0  0  0
    2.3550   69.2460   67.6540 O   0  0  0  0  0  0  0  0  0  0  0  0
    1.6500   70.2900   68.3200 C   0  0  0  0  0  0  0  0  0  0  0  0
    7.1651   70.1107   65.6767 H   0  0  0  0  0  0  0  0  0  0  0  0
    4.3086   70.7305   68.8653 H   0  0  0  0  0  0  0  0  0  0  0  0
    5.6257   70.4671   63.3558 H   0  0  0  0  0  0  0  0  0  0  0  0
    6.4201   69.1463   62.4333 H   0  0  0  0  0  0  0  0  0  0  0  0
    4.6297   69.2909   62.4333 H   0  0  0  0  0  0  0  0  0  0  0  0
    6.4357   71.5750   69.9090 H   0  0  0  0  0  0  0  0  0  0  0  0
    6.9919   69.9153   69.5057 H   0  0  0  0  0  0  0  0  0  0  0  0
    8.1609   71.2791   69.5057 H   0  0  0  0  0  0  0  0  0  0  0  0
    1.7560   69.9036   64.7434 H   0  0  0  0  0  0  0  0  0  0  0  0
    2.6055   69.1603   63.3326 H   0  0  0  0  0  0  0  0  0  0  0  0
    0.8291   67.8750   62.8679 H   0  0  0  0  0  0  0  0  0  0  0  0
    0.8120   67.2414   64.5680 H   0  0  0  0  0  0  0  0  0  0  0  0
   -0.2932   69.9877   64.0322 H   0  0  0  0  0  0  0  0  0  0  0  0
   -1.2641   68.5140   63.5718 H   0  0  0  0  0  0  0  0  0  0  0  0
   -0.5703   69.6426   66.0306 H   0  0  0  0  0  0  0  0  0  0  0  0
   -2.8786   69.7559   65.8485 H   0  0  0  0  0  0  0  0  0  0  0  0
   -2.9855   68.2395   64.9842 H   0  0  0  0  0  0  0  0  0  0  0  0
   -2.4513   68.7176   67.9843 H   0  0  0  0  0  0  0  0  0  0  0  0
   -3.6514   67.6435   67.3052 H   0  0  0  0  0  0  0  0  0  0  0  0
   -1.3364   66.5782   68.0890 H   0  0  0  0  0  0  0  0  0  0  0  0
   -1.9074   66.0706   66.5041 H   0  0  0  0  0  0  0  0  0  0  0  0
    0.1780   66.9354   65.8092 H   0  0  0  0  0  0  0  0  0  0  0  0
    0.3420   67.9873   67.2141 H   0  0  0  0  0  0  0  0  0  0  0  0
    1.7399   70.1569   69.4082 H   0  0  0  0  0  0  0  0  0  0  0  0
    2.0773   71.2621   68.0330 H   0  0  0  0  0  0  0  0  0  0  0  0
    0.5886   70.2569   68.0330 H   0  0  0  0  0  0  0  0  0  0  0  0
  2  1  2  0
  3  2  1  0
  4  3  2  0
  5  4  1  0
  6  5  2  0
  6  1  1  0
  8  7  1  0
  8  1  1  0
  9  3  1  0
 10  9  1  0
 11  6  1  0
 12 11  2  0
 13 11  1  0
 14 13  1  0
 15 14  1  0
 16 15  1  0
 17 16  1  0
 18 17  1  0
 19 18  1  0
 20 16  1  0
 20 19  1  0
 21  5  1  0
 22 21  1  0
  2 23  1  0
  4 24  1  0
  7 25  1  0
  7 26  1  0
  7 27  1  0
 10 28  1  0
 10 29  1  0
 10 30  1  0
 13 31  1  0
 13 32  1  0
 14 33  1  0
 14 34  1  0
 15 35  1  0
 15 36  1  0
 16 37  1  0
 17 38  1  0
 17 39  1  0
 18 40  1  0
 18 41  1  0
 19 42  1  0
 19 43  1  0
 20 44  1  0
 20 45  1  0
 22 46  1  0
 22 47  1  0
 22 48  1  0
M  CHG  1  16   1
M  END
>  <score>  (4) 
-7.656

$$$$
=
     RDKit          3D

 48 49  0  0  0  0  0  0  0  0999 V2000
    0.2370   68.1500   64.5410 C   0  0  0  0  0  0  0  0  0  0  0  0
   -1.0000   68.6650   64.9260 C   0  0  0  0  0  0  0  0  0  0  0  0
   -1.3880   68.6690   66.2720 C   0  0  0  0  0  0  0  0  0  0  0  0
   -0.5280   68.1620   67.2520 C   0  0  0  0  0  0  0  0  0  0  0  0
    0.7180   67.6400   66.8920 C   0  0  0  0  0  0  0  0  0  0  0  0
    1.0810   67.6380   65.5360 C   0  0  0  0  0  0  0  0  0  0  0  0
    0.0720   68.9760   62.3110 C   0  0  0  0  0  0  0  0  0  0  0  0
    0.7140   68.1240   63.2560 O   0  0  0  0  0  0  0  0  0  0  0  0
   -2.6250   69.2080   66.4940 O   0  0  0  0  0  0  0  0  0  0  0  0
   -3.6560   68.8950   65.5640 C   0  0  0  0  0  0  0  0  0  0  0  0
    2.3870   67.0800   65.1450 C   0  0  0  0  0  0  0  0  0  0  0  0
    2.6220   65.8820   65.2950 O   0  0  0  0  0  0  0  0  0  0  0  0
    3.4050   68.0580   64.5910 C   0  0  0  0  0  0  0  0  0  0  0  0
    3.6550   69.2030   65.5780 C   0  0  0  0  0  0  0  0  0  0  0  0
    5.1420   69.5560   65.6810 C   0  0  0  0  0  0  0  0  0  0  0  0
    5.5930   69.8040   67.0950 N   0  0  0  0  0  4  0  0  0  0  0  0
    6.8190   70.6910   67.2280 C   0  0  0  0  0  0  0  0  0  0  0  0
    6.6960   71.2170   68.6430 C   0  0  0  0  0  0  0  0  0  0  0  0
    5.2080   71.4800   68.7710 C   0  0  0  0  0  0  0  0  0  0  0  0
    4.5570   70.2920   68.0820 C   0  0  0  0  0  0  0  0  0  0  0  0
    1.6450   67.1450   67.7730 O   0  0  0  0  0  0  0  0  0  0  0  0
    1.2920   67.1360   69.1530 C   0  0  0  0  0  0  0  0  0  0  0  0
   -1.6797   69.0732   64.1635 H   0  0  0  0  0  0  0  0  0  0  0  0
   -0.8330   68.1741   68.3088 H   0  0  0  0  0  0  0  0  0  0  0  0
   -0.5070   69.7444   62.8442 H   0  0  0  0  0  0  0  0  0  0  0  0
    0.8310   69.4611   61.6797 H   0  0  0  0  0  0  0  0  0  0  0  0
   -0.6036   68.3801   61.6797 H   0  0  0  0  0  0  0  0  0  0  0  0
   -4.5700   68.6175   66.1095 H   0  0  0  0  0  0  0  0  0  0  0  0
   -3.8583   69.7722   64.9319 H   0  0  0  0  0  0  0  0  0  0  0  0
   -3.3365   68.0534   64.9319 H   0  0  0  0  0  0  0  0  0  0  0  0
    4.3511   67.5278   64.4071 H   0  0  0  0  0  0  0  0  0  0  0  0
    3.0134   68.4804   63.6539 H   0  0  0  0  0  0  0  0  0  0  0  0
    3.1016   70.0913   65.2393 H   0  0  0  0  0  0  0  0  0  0  0  0
    3.3132   68.8767   66.5713 H   0  0  0  0  0  0  0  0  0  0  0  0
    5.7291   68.7229   65.2673 H   0  0  0  0  0  0  0  0  0  0  0  0
    5.2976   70.4885   65.1187 H   0  0  0  0  0  0  0  0  0  0  0  0
    5.8254   68.8349   67.3553 H   0  0  0  0  0  0  0  0  0  0  0  0
    7.7446   70.1106   67.0994 H   0  0  0  0  0  0  0  0  0  0  0  0
    6.8678   71.4858   66.4691 H   0  0  0  0  0  0  0  0  0  0  0  0
    7.0311   70.4679   69.3755 H   0  0  0  0  0  0  0  0  0  0  0  0
    7.3151   72.1059   68.8343 H   0  0  0  0  0  0  0  0  0  0  0  0
    4.9103   71.5284   69.8288 H   0  0  0  0  0  0  0  0  0  0  0  0
    4.9106   72.4402   68.3243 H   0  0  0  0  0  0  0  0  0  0  0  0
    3.6396   70.6016   67.5599 H   0  0  0  0  0  0  0  0  0  0  0  0
    4.2611   69.5087   68.7954 H   0  0  0  0  0  0  0  0  0  0  0  0
    2.2055   67.1593   69.7653 H   0  0  0  0  0  0  0  0  0  0  0  0
    0.6760   68.0187   69.3797 H   0  0  0  0  0  0  0  0  0  0  0  0
    0.7218   66.2230   69.3797 H   0  0  0  0  0  0  0  0  0  0  0  0
  2  1  2  0
  3  2  1  0
  4  3  2  0
  5  4  1  0
  6  5  2  0
  6  1  1  0
  8  7  1  0
  8  1  1  0
  9  3  1  0
 10  9  1  0
 11  6  1  0
 12 11  2  0
 13 11  1  0
 14 13  1  0
 15 14  1  0
 16 15  1  0
 17 16  1  0
 18 17  1  0
 19 18  1  0
 20 16  1  0
 20 19  1  0
 21  5  1  0
 22 21  1  0
  2 23  1  0
  4 24  1  0
  7 25  1  0
  7 26  1  0
  7 27  1  0
 10 28  1  0
 10 29  1  0
 10 30  1  0
 13 31  1  0
 13 32  1  0
 14 33  1  0
 14 34  1  0
 15 35  1  0
 15 36  1  0
 16 37  1  0
 17 38  1  0
 17 39  1  0
 18 40  1  0
 18 41  1  0
 19 42  1  0
 19 43  1  0
 20 44  1  0
 20 45  1  0
 22 46  1  0
 22 47  1  0
 22 48  1  0
M  CHG  1  16   1
M  END
>  <score>  (5) 
-7.281

$$$$
=
     RDKit          3D

 48 49  0  0  0  0  0  0  0  0999 V2000
    2.5350   62.0720   70.2710 C   0  0  0  0  0  0  0  0  0  0  0  0
    3.2550   61.0420   70.8750 C   0  0  0  0  0  0  0  0  0  0  0  0
    3.2020   60.8450   72.2610 C   0  0  0  0  0  0  0  0  0  0  0  0
    2.4130   61.6810   73.0590 C   0  0  0  0  0  0  0  0  0  0  0  0
    1.6820   62.7220   72.4780 C   0  0  0  0  0  0  0  0  0  0  0  0
    1.7580   62.9040   71.0880 C   0  0  0  0  0  0  0  0  0  0  0  0
    3.7090   62.8010   68.3290 C   0  0  0  0  0  0  0  0  0  0  0  0
    2.5050   62.3270   68.9250 O   0  0  0  0  0  0  0  0  0  0  0  0
    3.9580   59.7950   72.7050 O   0  0  0  0  0  0  0  0  0  0  0  0
    3.8290   59.4220   74.0710 C   0  0  0  0  0  0  0  0  0  0  0  0
    1.0000   64.0050   70.4670 C   0  0  0  0  0  0  0  0  0  0  0  0
   -0.1360   63.8140   70.0400 O   0  0  0  0  0  0  0  0  0  0  0  0
    1.7090   65.3420   70.3620 C   0  0  0  0  0  0  0  0  0  0  0  0
    0.7190   66.4590   70.0180 C   0  0  0  0  0  0  0  0  0  0  0  0
    1.1120   67.1970   68.7350 C   0  0  0  0  0  0  0  0  0  0  0  0
    0.0520   67.1360   67.6700 N   0  0  0  0  0  4  0  0  0  0  0  0
   -1.3320   66.7560   68.1670 C   0  0  0  0  0  0  0  0  0  0  0  0
   -2.2380   67.3130   67.0880 C   0  0  0  0  0  0  0  0  0  0  0  0
   -1.5830   68.6400   66.7600 C   0  0  0  0  0  0  0  0  0  0  0  0
   -0.0940   68.3360   66.7610 C   0  0  0  0  0  0  0  0  0  0  0  0
    0.8590   63.5790   73.1620 O   0  0  0  0  0  0  0  0  0  0  0  0
    0.3490   63.1310   74.4140 C   0  0  0  0  0  0  0  0  0  0  0  0
    3.8727   60.3754   70.2552 H   0  0  0  0  0  0  0  0  0  0  0  0
    2.3677   61.5189   74.1460 H   0  0  0  0  0  0  0  0  0  0  0  0
    4.4226   63.0819   69.1176 H   0  0  0  0  0  0  0  0  0  0  0  0
    4.1460   62.0078   67.7046 H   0  0  0  0  0  0  0  0  0  0  0  0
    3.4880   63.6792   67.7046 H   0  0  0  0  0  0  0  0  0  0  0  0
    4.1214   60.2674   74.7111 H   0  0  0  0  0  0  0  0  0  0  0  0
    2.7841   59.1486   74.2793 H   0  0  0  0  0  0  0  0  0  0  0  0
    4.4817   58.5614   74.2793 H   0  0  0  0  0  0  0  0  0  0  0  0
    2.1906   65.5710   71.3241 H   0  0  0  0  0  0  0  0  0  0  0  0
    2.4611   65.2796   69.5617 H   0  0  0  0  0  0  0  0  0  0  0  0
   -0.2802   66.0192   69.8831 H   0  0  0  0  0  0  0  0  0  0  0  0
    0.7251   67.1855   70.8440 H   0  0  0  0  0  0  0  0  0  0  0  0
    1.2996   68.2524   68.9819 H   0  0  0  0  0  0  0  0  0  0  0  0
    2.0085   66.7017   68.3337 H   0  0  0  0  0  0  0  0  0  0  0  0
    0.4478   66.3731   67.1023 H   0  0  0  0  0  0  0  0  0  0  0  0
   -1.4380   65.6642   68.2493 H   0  0  0  0  0  0  0  0  0  0  0  0
   -1.5576   67.1458   69.1706 H   0  0  0  0  0  0  0  0  0  0  0  0
   -2.2604   66.6529   66.2083 H   0  0  0  0  0  0  0  0  0  0  0  0
   -3.2873   67.4089   67.4038 H   0  0  0  0  0  0  0  0  0  0  0  0
   -1.9062   69.0002   65.7722 H   0  0  0  0  0  0  0  0  0  0  0  0
   -1.8507   69.4290   67.4782 H   0  0  0  0  0  0  0  0  0  0  0  0
    0.4763   69.1911   67.1528 H   0  0  0  0  0  0  0  0  0  0  0  0
    0.2918   68.1414   65.7494 H   0  0  0  0  0  0  0  0  0  0  0  0
    0.9027   63.6174   75.2307 H   0  0  0  0  0  0  0  0  0  0  0  0
   -0.7175   63.3896   74.4892 H   0  0  0  0  0  0  0  0  0  0  0  0
    0.4680   62.0400   74.4892 H   0  0  0  0  0  0  0  0  0  0  0  0
  2  1  2  0
  3  2  1  0
  4  3  2  0
  5  4  1  0
  6  5  2  0
  6  1  1  0
  8  7  1  0
  8  1  1  0
  9  3  1  0
 10  9  1  0
 11  6  1  0
 12 11  2  0
 13 11  1  0
 14 13  1  0
 15 14  1  0
 16 15  1  0
 17 16  1  0
 18 17  1  0
 19 18  1  0
 20 16  1  0
 20 19  1  0
 21  5  1  0
 22 21  1  0
  2 23  1  0
  4 24  1  0
  7 25  1  0
  7 26  1  0
  7 27  1  0
 10 28  1  0
 10 29  1  0
 10 30  1  0
 13 31  1  0
 13 32  1  0
 14 33  1  0
 14 34  1  0
 15 35  1  0
 15 36  1  0
 16 37  1  0
 17 38  1  0
 17 39  1  0
 18 40  1  0
 18 41  1  0
 19 42  1  0
 19 43  1  0
 20 44  1  0
 20 45  1  0
 22 46  1  0
 22 47  1  0
 22 48  1  0
M  CHG  1  16   1
M  END
>  <score>  (6) 
-7.238

$$$$
=
     RDKit          3D

 48 49  0  0  0  0  0  0  0  0999 V2000
    0.8470   62.5050   72.3640 C   0  0  0  0  0  0  0  0  0  0  0  0
    1.4050   61.3780   72.9650 C   0  0  0  0  0  0  0  0  0  0  0  0
    2.3150   60.5700   72.2690 C   0  0  0  0  0  0  0  0  0  0  0  0
    2.6820   60.8950   70.9590 C   0  0  0  0  0  0  0  0  0  0  0  0
    2.1350   62.0200   70.3340 C   0  0  0  0  0  0  0  0  0  0  0  0
    1.2200   62.8080   71.0480 C   0  0  0  0  0  0  0  0  0  0  0  0
    0.3620   63.9130   74.2260 C   0  0  0  0  0  0  0  0  0  0  0  0
   -0.0300   63.3670   72.9700 O   0  0  0  0  0  0  0  0  0  0  0  0
    2.7780   59.5040   72.9900 O   0  0  0  0  0  0  0  0  0  0  0  0
    4.1180   59.5630   73.4660 C   0  0  0  0  0  0  0  0  0  0  0  0
    0.6290   63.9900   70.3940 C   0  0  0  0  0  0  0  0  0  0  0  0
   -0.4430   63.9010   69.8000 O   0  0  0  0  0  0  0  0  0  0  0  0
    1.4260   65.2780   70.4720 C   0  0  0  0  0  0  0  0  0  0  0  0
    0.5650   66.4780   70.0690 C   0  0  0  0  0  0  0  0  0  0  0  0
    1.0710   67.1410   68.7830 C   0  0  0  0  0  0  0  0  0  0  0  0
    0.0560   67.1290   67.6740 N   0  0  0  0  0  4  0  0  0  0  0  0
   -1.3690   66.8410   68.1140 C   0  0  0  0  0  0  0  0  0  0  0  0
   -2.1910   67.4360   66.9890 C   0  0  0  0  0  0  0  0  0  0  0  0
   -1.4430   68.7160   66.6740 C   0  0  0  0  0  0  0  0  0  0  0  0
    0.0230   68.3210   66.7450 C   0  0  0  0  0  0  0  0  0  0  0  0
    2.4470   62.4420   69.0660 O   0  0  0  0  0  0  0  0  0  0  0  0
    3.8070   62.7770   68.8080 C   0  0  0  0  0  0  0  0  0  0  0  0
    1.1281   61.1195   73.9977 H   0  0  0  0  0  0  0  0  0  0  0  0
    3.4030   60.2638   70.4188 H   0  0  0  0  0  0  0  0  0  0  0  0
   -0.0704   63.3108   75.0386 H   0  0  0  0  0  0  0  0  0  0  0  0
    1.4591   63.9011   74.3046 H   0  0  0  0  0  0  0  0  0  0  0  0
   -0.0000   64.9487   74.3046 H   0  0  0  0  0  0  0  0  0  0  0  0
    4.1167   59.5629   74.5660 H   0  0  0  0  0  0  0  0  0  0  0  0
    4.6760   58.6886   73.0999 H   0  0  0  0  0  0  0  0  0  0  0  0
    4.5970   60.4831   73.0999 H   0  0  0  0  0  0  0  0  0  0  0  0
    1.7814   65.4198   71.5033 H   0  0  0  0  0  0  0  0  0  0  0  0
    2.2772   65.2073   69.7788 H   0  0  0  0  0  0  0  0  0  0  0  0
   -0.4683   66.1363   69.9096 H   0  0  0  0  0  0  0  0  0  0  0  0
    0.6176   67.2213   70.8782 H   0  0  0  0  0  0  0  0  0  0  0  0
    1.3321   68.1858   69.0072 H   0  0  0  0  0  0  0  0  0  0  0  0
    1.9412   66.5639   68.4372 H   0  0  0  0  0  0  0  0  0  0  0  0
    0.4287   66.3350   67.1340 H   0  0  0  0  0  0  0  0  0  0  0  0
   -1.5452   65.7590   68.2048 H   0  0  0  0  0  0  0  0  0  0  0  0
   -1.6139   67.2584   69.1018 H   0  0  0  0  0  0  0  0  0  0  0  0
   -2.2152   66.7655   66.1173 H   0  0  0  0  0  0  0  0  0  0  0  0
   -3.2452   67.6000   67.2569 H   0  0  0  0  0  0  0  0  0  0  0  0
   -1.7002   69.0803   65.6685 H   0  0  0  0  0  0  0  0  0  0  0  0
   -1.6930   69.5310   67.3692 H   0  0  0  0  0  0  0  0  0  0  0  0
    0.6275   69.1456   67.1507 H   0  0  0  0  0  0  0  0  0  0  0  0
    0.4390   68.0872   65.7539 H   0  0  0  0  0  0  0  0  0  0  0  0
    4.3395   62.9082   69.7615 H   0  0  0  0  0  0  0  0  0  0  0  0
    4.2807   61.9687   68.2316 H   0  0  0  0  0  0  0  0  0  0  0  0
    3.8511   63.7129   68.2316 H   0  0  0  0  0  0  0  0  0  0  0  0
  2  1  2  0
  3  2  1  0
  4  3  2  0
  5  4  1  0
  6  5  2  0
  6  1  1  0
  8  7  1  0
  8  1  1  0
  9  3  1  0
 10  9  1  0
 11  6  1  0
 12 11  2  0
 13 11  1  0
 14 13  1  0
 15 14  1  0
 16 15  1  0
 17 16  1  0
 18 17  1  0
 19 18  1  0
 20 16  1  0
 20 19  1  0
 21  5  1  0
 22 21  1  0
  2 23  1  0
  4 24  1  0
  7 25  1  0
  7 26  1  0
  7 27  1  0
 10 28  1  0
 10 29  1  0
 10 30  1  0
 13 31  1  0
 13 32  1  0
 14 33  1  0
 14 34  1  0
 15 35  1  0
 15 36  1  0
 16 37  1  0
 17 38  1  0
 17 39  1  0
 18 40  1  0
 18 41  1  0
 19 42  1  0
 19 43  1  0
 20 44  1  0
 20 45  1  0
 22 46  1  0
 22 47  1  0
 22 48  1  0
M  CHG  1  16   1
M  END
>  <score>  (7) 
-7.111

$$$$
=
     RDKit          3D

 48 49  0  0  0  0  0  0  0  0999 V2000
    0.0790   68.6320   65.1440 C   0  0  0  0  0  0  0  0  0  0  0  0
   -1.2820   68.7000   65.4360 C   0  0  0  0  0  0  0  0  0  0  0  0
   -1.7840   68.1900   66.6420 C   0  0  0  0  0  0  0  0  0  0  0  0
   -0.9160   67.6120   67.5740 C   0  0  0  0  0  0  0  0  0  0  0  0
    0.4530   67.5310   67.3040 C   0  0  0  0  0  0  0  0  0  0  0  0
    0.9310   68.0410   66.0870 C   0  0  0  0  0  0  0  0  0  0  0  0
   -0.0250   68.9100   62.7790 C   0  0  0  0  0  0  0  0  0  0  0  0
    0.6650   69.1230   64.0070 O   0  0  0  0  0  0  0  0  0  0  0  0
   -3.1370   68.3320   66.7860 O   0  0  0  0  0  0  0  0  0  0  0  0
   -3.8740   68.7990   65.6630 C   0  0  0  0  0  0  0  0  0  0  0  0
    2.3710   67.9500   65.7880 C   0  0  0  0  0  0  0  0  0  0  0  0
    2.8520   66.9060   65.3540 O   0  0  0  0  0  0  0  0  0  0  0  0
    3.2030   69.1850   66.0760 C   0  0  0  0  0  0  0  0  0  0  0  0
    4.6840   68.9270   65.7820 C   0  0  0  0  0  0  0  0  0  0  0  0
    5.1770   69.7330   64.5760 C   0  0  0  0  0  0  0  0  0  0  0  0
    5.1100   68.9660   63.2850 N   0  0  0  0  0  4  0  0  0  0  0  0
    5.3610   67.4730   63.4150 C   0  0  0  0  0  0  0  0  0  0  0  0
    4.6940   66.9150   62.1740 C   0  0  0  0  0  0  0  0  0  0  0  0
    3.4320   67.7490   62.0730 C   0  0  0  0  0  0  0  0  0  0  0  0
    3.8840   69.1570   62.4220 C   0  0  0  0  0  0  0  0  0  0  0  0
    1.3920   67.0100   68.1590 O   0  0  0  0  0  0  0  0  0  0  0  0
    0.9500   66.6340   69.4590 C   0  0  0  0  0  0  0  0  0  0  0  0
   -1.9708   69.1593   64.7117 H   0  0  0  0  0  0  0  0  0  0  0  0
   -1.3119   67.2199   68.5224 H   0  0  0  0  0  0  0  0  0  0  0  0
   -1.0568   68.5915   62.9886 H   0  0  0  0  0  0  0  0  0  0  0  0
   -0.0404   69.8452   62.2001 H   0  0  0  0  0  0  0  0  0  0  0  0
    0.4894   68.1288   62.2001 H   0  0  0  0  0  0  0  0  0  0  0  0
   -4.7558   69.3578   66.0097 H   0  0  0  0  0  0  0  0  0  0  0  0
   -3.2374   69.4589   65.0553 H   0  0  0  0  0  0  0  0  0  0  0  0
   -4.1989   67.9416   65.0553 H   0  0  0  0  0  0  0  0  0  0  0  0
    2.8493   70.0130   65.4441 H   0  0  0  0  0  0  0  0  0  0  0  0
    3.0953   69.4410   67.1404 H   0  0  0  0  0  0  0  0  0  0  0  0
    5.2762   69.2101   66.6647 H   0  0  0  0  0  0  0  0  0  0  0  0
    4.8038   67.8586   65.5494 H   0  0  0  0  0  0  0  0  0  0  0  0
    4.5544   70.6348   64.4798 H   0  0  0  0  0  0  0  0  0  0  0  0
    6.2340   69.9785   64.7564 H   0  0  0  0  0  0  0  0  0  0  0  0
    5.8962   69.4182   62.7968 H   0  0  0  0  0  0  0  0  0  0  0  0
    6.4383   67.2507   63.4205 H   0  0  0  0  0  0  0  0  0  0  0  0
    4.9720   67.0443   64.3504 H   0  0  0  0  0  0  0  0  0  0  0  0
    5.3305   67.0490   61.2869 H   0  0  0  0  0  0  0  0  0  0  0  0
    4.5003   65.8337   62.2303 H   0  0  0  0  0  0  0  0  0  0  0  0
    3.0216   67.7130   61.0530 H   0  0  0  0  0  0  0  0  0  0  0  0
    2.6342   67.3866   62.7380 H   0  0  0  0  0  0  0  0  0  0  0  0
    3.0982   69.6897   62.9776 H   0  0  0  0  0  0  0  0  0  0  0  0
    4.0964   69.7590   61.5262 H   0  0  0  0  0  0  0  0  0  0  0  0
    1.5575   67.1508   70.2166 H   0  0  0  0  0  0  0  0  0  0  0  0
   -0.1065   66.9144   69.5825 H   0  0  0  0  0  0  0  0  0  0  0  0
    1.0574   65.5462   69.5825 H   0  0  0  0  0  0  0  0  0  0  0  0
  2  1  2  0
  3  2  1  0
  4  3  2  0
  5  4  1  0
  6  5  2  0
  6  1  1  0
  8  7  1  0
  8  1  1  0
  9  3  1  0
 10  9  1  0
 11  6  1  0
 12 11  2  0
 13 11  1  0
 14 13  1  0
 15 14  1  0
 16 15  1  0
 17 16  1  0
 18 17  1  0
 19 18  1  0
 20 16  1  0
 20 19  1  0
 21  5  1  0
 22 21  1  0
  2 23  1  0
  4 24  1  0
  7 25  1  0
  7 26  1  0
  7 27  1  0
 10 28  1  0
 10 29  1  0
 10 30  1  0
 13 31  1  0
 13 32  1  0
 14 33  1  0
 14 34  1  0
 15 35  1  0
 15 36  1  0
 16 37  1  0
 17 38  1  0
 17 39  1  0
 18 40  1  0
 18 41  1  0
 19 42  1  0
 19 43  1  0
 20 44  1  0
 20 45  1  0
 22 46  1  0
 22 47  1  0
 22 48  1  0
M  CHG  1  16   1
M  END
>  <score>  (8) 
-6.908

$$$$
=
     RDKit          3D

 48 49  0  0  0  0  0  0  0  0999 V2000
    0.1420   61.6770   72.3990 C   0  0  0  0  0  0  0  0  0  0  0  0
    0.6900   60.4040   72.5550 C   0  0  0  0  0  0  0  0  0  0  0  0
    2.0510   60.1740   72.3120 C   0  0  0  0  0  0  0  0  0  0  0  0
    2.8810   61.2280   71.9170 C   0  0  0  0  0  0  0  0  0  0  0  0
    2.3560   62.5130   71.7520 C   0  0  0  0  0  0  0  0  0  0  0  0
    0.9890   62.7180   71.9930 C   0  0  0  0  0  0  0  0  0  0  0  0
   -1.8910   61.1690   73.5340 C   0  0  0  0  0  0  0  0  0  0  0  0
   -1.1670   62.0040   72.6350 O   0  0  0  0  0  0  0  0  0  0  0  0
    2.4410   58.8780   72.5100 O   0  0  0  0  0  0  0  0  0  0  0  0
    1.6480   58.0780   73.3780 C   0  0  0  0  0  0  0  0  0  0  0  0
    0.4230   64.0660   71.8120 C   0  0  0  0  0  0  0  0  0  0  0  0
    0.0030   64.6990   72.7780 O   0  0  0  0  0  0  0  0  0  0  0  0
    0.3630   64.5920   70.3900 C   0  0  0  0  0  0  0  0  0  0  0  0
    0.0950   66.1000   70.3770 C   0  0  0  0  0  0  0  0  0  0  0  0
    0.9330   66.8210   69.3160 C   0  0  0  0  0  0  0  0  0  0  0  0
    0.1840   67.0570   68.0330 N   0  0  0  0  0  4  0  0  0  0  0  0
   -1.3190   66.8590   68.1240 C   0  0  0  0  0  0  0  0  0  0  0  0
   -1.8340   67.6760   66.9570 C   0  0  0  0  0  0  0  0  0  0  0  0
   -0.9460   68.9040   66.9960 C   0  0  0  0  0  0  0  0  0  0  0  0
    0.4380   68.3580   67.3060 C   0  0  0  0  0  0  0  0  0  0  0  0
    3.0850   63.6190   71.3960 O   0  0  0  0  0  0  0  0  0  0  0  0
    4.1410   63.4280   70.4590 C   0  0  0  0  0  0  0  0  0  0  0  0
    0.0463   59.5705   72.8726 H   0  0  0  0  0  0  0  0  0  0  0  0
    3.9504   61.0453   71.7356 H   0  0  0  0  0  0  0  0  0  0  0  0
   -1.6486   61.4486   74.5699 H   0  0  0  0  0  0  0  0  0  0  0  0
   -2.9703   61.2952   73.3631 H   0  0  0  0  0  0  0  0  0  0  0  0
   -1.6131   60.1185   73.3631 H   0  0  0  0  0  0  0  0  0  0  0  0
    1.8892   58.3213   74.4233 H   0  0  0  0  0  0  0  0  0  0  0  0
    0.5828   58.2792   73.1911 H   0  0  0  0  0  0  0  0  0  0  0  0
    1.8586   57.0147   73.1911 H   0  0  0  0  0  0  0  0  0  0  0  0
    1.3228   64.3923   69.8911 H   0  0  0  0  0  0  0  0  0  0  0  0
   -0.4572   64.0843   69.8613 H   0  0  0  0  0  0  0  0  0  0  0  0
   -0.9707   66.2698   70.1640 H   0  0  0  0  0  0  0  0  0  0  0  0
    0.3722   66.5036   71.3620 H   0  0  0  0  0  0  0  0  0  0  0  0
    1.2490   67.7937   69.7209 H   0  0  0  0  0  0  0  0  0  0  0  0
    1.7913   66.1745   69.0807 H   0  0  0  0  0  0  0  0  0  0  0  0
    0.6075   66.3071   67.4680 H   0  0  0  0  0  0  0  0  0  0  0  0
   -1.5866   65.7977   68.0139 H   0  0  0  0  0  0  0  0  0  0  0  0
   -1.7418   67.1660   69.0920 H   0  0  0  0  0  0  0  0  0  0  0  0
   -1.7170   67.1313   66.0085 H   0  0  0  0  0  0  0  0  0  0  0  0
   -2.9068   67.9093   67.0257 H   0  0  0  0  0  0  0  0  0  0  0  0
   -0.9525   69.4204   66.0247 H   0  0  0  0  0  0  0  0  0  0  0  0
   -1.2824   69.6420   67.7391 H   0  0  0  0  0  0  0  0  0  0  0  0
    0.9964   69.0572   67.9458 H   0  0  0  0  0  0  0  0  0  0  0  0
    1.0421   68.2159   66.3978 H   0  0  0  0  0  0  0  0  0  0  0  0
    5.0840   63.2574   70.9991 H   0  0  0  0  0  0  0  0  0  0  0  0
    3.9173   62.5557   69.8272 H   0  0  0  0  0  0  0  0  0  0  0  0
    4.2370   64.3233   69.8272 H   0  0  0  0  0  0  0  0  0  0  0  0
  2  1  2  0
  3  2  1  0
  4  3  2  0
  5  4  1  0
  6  5  2  0
  6  1  1  0
  8  7  1  0
  8  1  1  0
  9  3  1  0
 10  9  1  0
 11  6  1  0
 12 11  2  0
 13 11  1  0
 14 13  1  0
 15 14  1  0
 16 15  1  0
 17 16  1  0
 18 17  1  0
 19 18  1  0
 20 16  1  0
 20 19  1  0
 21  5  1  0
 22 21  1  0
  2 23  1  0
  4 24  1  0
  7 25  1  0
  7 26  1  0
  7 27  1  0
 10 28  1  0
 10 29  1  0
 10 30  1  0
 13 31  1  0
 13 32  1  0
 14 33  1  0
 14 34  1  0
 15 35  1  0
 15 36  1  0
 16 37  1  0
 17 38  1  0
 17 39  1  0
 18 40  1  0
 18 41  1  0
 19 42  1  0
 19 43  1  0
 20 44  1  0
 20 45  1  0
 22 46  1  0
 22 47  1  0
 22 48  1  0
M  CHG  1  16   1
M  END
>  <score>  (9) 
-6.722

$$$$
