=
     RDKit          3D

 50 52  0  0  0  0  0  0  0  0999 V2000
    0.6330   67.8950   66.3450 C   0  0  0  0  0  0  0  0  0  0  0  0
   -0.6850   67.4470   66.4680 C   0  0  0  0  0  0  0  0  0  0  0  0
   -1.1160   66.8470   67.6580 C   0  0  0  0  0  0  0  0  0  0  0  0
   -0.2400   66.6630   68.7350 C   0  0  0  0  0  0  0  0  0  0  0  0
    1.0600   67.1810   68.6160 C   0  0  0  0  0  0  0  0  0  0  0  0
    1.4990   67.7840   67.4330 C   0  0  0  0  0  0  0  0  0  0  0  0
    2.4800   68.7390   65.0410 N   0  0  0  0  0  0  0  0  0  0  0  0
    1.1210   68.5360   65.0970 C   0  0  0  0  0  0  0  0  0  0  0  0
    0.3070   68.8610   64.2390 O   0  0  0  0  0  0  0  0  0  0  0  0
    3.2090   68.7670   63.7530 C   0  0  2  0  0  0  0  0  0  0  0  0
    3.4670   67.2980   63.2420 C   0  0  0  0  0  0  0  0  0  0  0  0
    3.3770   66.3730   64.0980 O   0  0  0  0  0  0  0  0  0  0  0  0
    3.7850   67.2180   62.0080 O   0  0  0  0  0  1  0  0  0  0  0  0
    4.5770   69.4500   63.9300 C   0  0  0  0  0  0  0  0  0  0  0  0
    5.2890   69.0220   65.2190 C   0  0  0  0  0  0  0  0  0  0  0  0
    4.4080   69.8340   67.2900 O   0  0  0  0  0  1  0  0  0  0  0  0
    5.2700   70.0150   66.3880 C   0  0  0  0  0  0  0  0  0  0  0  0
    6.1380   70.9380   66.3040 O   0  0  0  0  0  0  0  0  0  0  0  0
   -0.6240   66.1180   69.9730 N   0  0  0  0  0  0  0  0  0  0  0  0
    0.3870   66.0000   71.0220 C   0  0  0  0  0  0  0  0  0  0  0  0
    0.8910   64.5760   71.0870 C   0  0  0  0  0  0  0  0  0  0  0  0
    0.5250   63.7460   72.1320 C   0  0  0  0  0  0  0  0  0  0  0  0
    0.9610   62.4670   72.2450 N   0  0  0  0  0  0  0  0  0  0  0  0
    1.7910   62.0030   71.3050 C   0  0  0  0  0  0  0  0  0  0  0  0
    2.1680   62.8370   70.2460 C   0  0  0  0  0  0  0  0  0  0  0  0
    1.7360   64.1310   70.1280 N   0  0  0  0  0  0  0  0  0  0  0  0
    3.0350   62.2320   69.3420 C   0  0  0  0  0  0  0  0  0  0  0  0
    3.4410   62.9100   68.1800 N   0  0  0  0  0  0  0  0  0  0  0  0
    3.4770   60.9690   69.4520 N   0  0  0  0  0  0  0  0  0  0  0  0
    3.0560   60.2890   70.5120 C   0  0  0  0  0  0  0  0  0  0  0  0
    2.2200   60.7500   71.4330 N   0  0  0  0  0  0  0  0  0  0  0  0
    3.4840   58.9830   70.6390 N   0  0  0  0  0  0  0  0  0  0  0  0
   -1.3856   67.5658   65.6283 H   0  0  0  0  0  0  0  0  0  0  0  0
   -2.1607   66.5146   67.7482 H   0  0  0  0  0  0  0  0  0  0  0  0
    1.7477   67.1109   69.4717 H   0  0  0  0  0  0  0  0  0  0  0  0
    2.5263   68.1704   67.3605 H   0  0  0  0  0  0  0  0  0  0  0  0
    3.0038   68.8750   65.9174 H   0  0  0  0  0  0  0  0  0  0  0  0
    2.5954   69.3226   63.0286 H   0  0  0  0  0  0  0  0  0  0  0  0
    5.2144   69.1889   63.0724 H   0  0  0  0  0  0  0  0  0  0  0  0
    4.4019   70.5343   63.9911 H   0  0  0  0  0  0  0  0  0  0  0  0
    4.8158   68.0917   65.5662 H   0  0  0  0  0  0  0  0  0  0  0  0
    6.3493   68.9276   64.9417 H   0  0  0  0  0  0  0  0  0  0  0  0
   -1.5931   65.8098   70.1365 H   0  0  0  0  0  0  0  0  0  0  0  0
    1.2263   66.6750   70.7984 H   0  0  0  0  0  0  0  0  0  0  0  0
   -0.0590   66.2728   71.9898 H   0  0  0  0  0  0  0  0  0  0  0  0
   -0.1497   64.1414   72.9055 H   0  0  0  0  0  0  0  0  0  0  0  0
    4.0832   62.4546   67.5159 H   0  0  0  0  0  0  0  0  0  0  0  0
    3.0963   63.8623   67.9924 H   0  0  0  0  0  0  0  0  0  0  0  0
    3.1821   58.4182   71.4457 H   0  0  0  0  0  0  0  0  0  0  0  0
    4.1053   58.5731   69.9271 H   0  0  0  0  0  0  0  0  0  0  0  0
  2  1  2  0
  3  2  1  0
  4  3  2  0
  5  4  1  0
  6  5  2  0
  6  1  1  0
  8  7  1  0
  8  1  1  0
  9  8  2  0
 10  7  1  0
 11 10  1  0
 12 11  2  0
 13 11  1  0
 14 10  1  0
 15 14  1  0
 17 15  1  0
 17 16  1  0
 18 17  2  0
 19  4  1  0
 20 19  1  0
 21 20  1  0
 22 21  2  0
 23 22  1  0
 24 23  2  0
 25 24  1  0
 26 25  2  0
 26 21  1  0
 27 25  1  0
 28 27  1  0
 29 27  2  0
 30 29  1  0
 31 30  2  0
 31 24  1  0
 32 30  1  0
  2 33  1  0
  3 34  1  0
  5 35  1  0
  6 36  1  0
  7 37  1  0
 10 38  1  6
 14 39  1  0
 14 40  1  0
 15 41  1  0
 15 42  1  0
 19 43  1  0
 20 44  1  0
 20 45  1  0
 22 46  1  0
 28 47  1  0
 28 48  1  0
 32 49  1  0
 32 50  1  0
M  CHG  2  13  -1  16  -1
M  END
>  <score>  (1) 
-9.838

$$$$
=
     RDKit          3D

 50 52  0  0  0  0  0  0  0  0999 V2000
    1.0170   63.5100   71.2970 C   0  0  0  0  0  0  0  0  0  0  0  0
   -0.0190   64.4420   71.3890 C   0  0  0  0  0  0  0  0  0  0  0  0
    0.1060   65.6970   70.7800 C   0  0  0  0  0  0  0  0  0  0  0  0
    1.2720   66.0530   70.0900 C   0  0  0  0  0  0  0  0  0  0  0  0
    2.2740   65.0780   69.9510 C   0  0  0  0  0  0  0  0  0  0  0  0
    2.1550   63.8210   70.5530 C   0  0  0  0  0  0  0  0  0  0  0  0
    1.9200   61.2910   71.5980 N   0  0  0  0  0  0  0  0  0  0  0  0
    0.9150   62.1700   71.9300 C   0  0  0  0  0  0  0  0  0  0  0  0
   -0.0410   61.9300   72.6600 O   0  0  0  0  0  0  0  0  0  0  0  0
    2.3490   60.2170   72.5210 C   0  0  2  0  0  0  0  0  0  0  0  0
    3.2830   60.8060   73.6460 C   0  0  0  0  0  0  0  0  0  0  0  0
    4.2180   61.5680   73.2690 O   0  0  0  0  0  0  0  0  0  0  0  0
    3.0060   60.4020   74.8250 O   0  0  0  0  0  1  0  0  0  0  0  0
    3.1500   59.1460   71.7570 C   0  0  0  0  0  0  0  0  0  0  0  0
    3.3530   59.5040   70.2800 C   0  0  0  0  0  0  0  0  0  0  0  0
    4.0890   61.4690   69.1310 O   0  0  0  0  0  1  0  0  0  0  0  0
    4.4060   60.5710   69.9590 C   0  0  0  0  0  0  0  0  0  0  0  0
    5.5090   60.4190   70.5680 O   0  0  0  0  0  0  0  0  0  0  0  0
    1.4380   67.2730   69.4120 N   0  0  0  0  0  0  0  0  0  0  0  0
    0.6570   67.5040   68.1990 C   0  0  0  0  0  0  0  0  0  0  0  0
    1.5870   67.6960   67.0220 C   0  0  0  0  0  0  0  0  0  0  0  0
    2.0210   68.9610   66.6660 C   0  0  0  0  0  0  0  0  0  0  0  0
    2.8420   69.1890   65.6110 N   0  0  0  0  0  0  0  0  0  0  0  0
    3.2330   68.1370   64.8830 C   0  0  0  0  0  0  0  0  0  0  0  0
    2.7960   66.8540   65.2360 C   0  0  0  0  0  0  0  0  0  0  0  0
    1.9630   66.6180   66.2960 N   0  0  0  0  0  0  0  0  0  0  0  0
    3.2740   65.8530   64.3970 C   0  0  0  0  0  0  0  0  0  0  0  0
    2.9930   64.5030   64.6660 N   0  0  0  0  0  0  0  0  0  0  0  0
    4.0810   66.0720   63.3460 N   0  0  0  0  0  0  0  0  0  0  0  0
    4.4090   67.3370   63.1100 C   0  0  0  0  0  0  0  0  0  0  0  0
    4.0300   68.3740   63.8450 N   0  0  0  0  0  0  0  0  0  0  0  0
    5.2500   67.5860   62.0450 N   0  0  0  0  0  0  0  0  0  0  0  0
   -0.9361   64.1896   71.9415 H   0  0  0  0  0  0  0  0  0  0  0  0
   -0.7250   66.4149   70.8446 H   0  0  0  0  0  0  0  0  0  0  0  0
    3.1705   65.3079   69.3565 H   0  0  0  0  0  0  0  0  0  0  0  0
    2.9584   63.0783   70.4397 H   0  0  0  0  0  0  0  0  0  0  0  0
    2.3855   61.3829   70.6838 H   0  0  0  0  0  0  0  0  0  0  0  0
    1.4464   59.7736   72.9666 H   0  0  0  0  0  0  0  0  0  0  0  0
    4.1362   59.0379   72.2321 H   0  0  0  0  0  0  0  0  0  0  0  0
    2.5757   58.2087   71.7969 H   0  0  0  0  0  0  0  0  0  0  0  0
    3.6426   58.5832   69.7525 H   0  0  0  0  0  0  0  0  0  0  0  0
    2.3964   59.9422   69.9590 H   0  0  0  0  0  0  0  0  0  0  0  0
    2.0938   67.9863   69.7615 H   0  0  0  0  0  0  0  0  0  0  0  0
    0.0060   66.6371   68.0128 H   0  0  0  0  0  0  0  0  0  0  0  0
    0.0423   68.4070   68.3283 H   0  0  0  0  0  0  0  0  0  0  0  0
    1.6850   69.8199   67.2656 H   0  0  0  0  0  0  0  0  0  0  0  0
    3.3508   63.7678   64.0396 H   0  0  0  0  0  0  0  0  0  0  0  0
    2.4292   64.2485   65.4896 H   0  0  0  0  0  0  0  0  0  0  0  0
    5.5306   68.5524   61.8253 H   0  0  0  0  0  0  0  0  0  0  0  0
    5.5973   66.8055   61.4696 H   0  0  0  0  0  0  0  0  0  0  0  0
  2  1  2  0
  3  2  1  0
  4  3  2  0
  5  4  1  0
  6  5  2  0
  6  1  1  0
  8  7  1  0
  8  1  1  0
  9  8  2  0
 10  7  1  0
 11 10  1  0
 12 11  2  0
 13 11  1  0
 14 10  1  0
 15 14  1  0
 17 15  1  0
 17 16  1  0
 18 17  2  0
 19  4  1  0
 20 19  1  0
 21 20  1  0
 22 21  2  0
 23 22  1  0
 24 23  2  0
 25 24  1  0
 26 25  2  0
 26 21  1  0
 27 25  1  0
 28 27  1  0
 29 27  2  0
 30 29  1  0
 31 30  2  0
 31 24  1  0
 32 30  1  0
  2 33  1  0
  3 34  1  0
  5 35  1  0
  6 36  1  0
  7 37  1  0
 10 38  1  1
 14 39  1  0
 14 40  1  0
 15 41  1  0
 15 42  1  0
 19 43  1  0
 20 44  1  0
 20 45  1  0
 22 46  1  0
 28 47  1  0
 28 48  1  0
 32 49  1  0
 32 50  1  0
M  CHG  2  13  -1  16  -1
M  END
>  <score>  (2) 
-9.509

$$$$
=
     RDKit          3D

 50 52  0  0  0  0  0  0  0  0999 V2000
    2.0920   62.7590   71.8250 C   0  0  0  0  0  0  0  0  0  0  0  0
    2.8500   63.4840   70.9040 C   0  0  0  0  0  0  0  0  0  0  0  0
    2.2980   64.5980   70.2590 C   0  0  0  0  0  0  0  0  0  0  0  0
    0.9770   64.9950   70.5040 C   0  0  0  0  0  0  0  0  0  0  0  0
    0.2550   64.2940   71.4830 C   0  0  0  0  0  0  0  0  0  0  0  0
    0.8000   63.1820   72.1340 C   0  0  0  0  0  0  0  0  0  0  0  0
    2.2740   60.3580   72.0030 N   0  0  0  0  0  0  0  0  0  0  0  0
    2.6490   61.5740   72.5270 C   0  0  0  0  0  0  0  0  0  0  0  0
    3.3590   61.7460   73.5120 O   0  0  0  0  0  0  0  0  0  0  0  0
    3.1380   59.1620   72.1190 C   0  0  2  0  0  0  0  0  0  0  0  0
    3.7540   58.7960   70.7150 C   0  0  0  0  0  0  0  0  0  0  0  0
    4.1190   59.7600   69.9840 O   0  0  0  0  0  0  0  0  0  0  0  0
    3.7730   57.5460   70.4580 O   0  0  0  0  0  1  0  0  0  0  0  0
    2.3130   57.9540   72.5990 C   0  0  0  0  0  0  0  0  0  0  0  0
    0.9930   58.3660   73.2630 C   0  0  0  0  0  0  0  0  0  0  0  0
    1.1270   59.8340   75.1470 O   0  0  0  0  0  1  0  0  0  0  0  0
    1.0260   58.6340   74.7720 C   0  0  0  0  0  0  0  0  0  0  0  0
    0.9600   57.5890   75.4910 O   0  0  0  0  0  0  0  0  0  0  0  0
    0.3830   66.1330   69.9310 N   0  0  0  0  0  0  0  0  0  0  0  0
    1.2550   67.2060   69.4580 C   0  0  0  0  0  0  0  0  0  0  0  0
    0.9500   67.5090   68.0080 C   0  0  0  0  0  0  0  0  0  0  0  0
   -0.3190   67.3020   67.4970 C   0  0  0  0  0  0  0  0  0  0  0  0
   -0.6410   67.5430   66.2020 N   0  0  0  0  0  0  0  0  0  0  0  0
    0.3240   67.9870   65.3890 C   0  0  0  0  0  0  0  0  0  0  0  0
    1.6110   68.1970   65.8990 C   0  0  0  0  0  0  0  0  0  0  0  0
    1.9440   67.9510   67.2030 N   0  0  0  0  0  0  0  0  0  0  0  0
    2.5180   68.6570   64.9490 C   0  0  0  0  0  0  0  0  0  0  0  0
    3.8300   68.9940   65.3210 N   0  0  0  0  0  0  0  0  0  0  0  0
    2.2080   68.8900   63.6640 N   0  0  0  0  0  0  0  0  0  0  0  0
    0.9550   68.6360   63.3040 C   0  0  0  0  0  0  0  0  0  0  0  0
   -0.0010   68.2100   64.1190 N   0  0  0  0  0  0  0  0  0  0  0  0
    0.6090   68.8830   61.9910 N   0  0  0  0  0  0  0  0  0  0  0  0
    3.8839   63.1795   70.6841 H   0  0  0  0  0  0  0  0  0  0  0  0
    2.9119   65.1707   69.5483 H   0  0  0  0  0  0  0  0  0  0  0  0
   -0.7607   64.6261   71.7437 H   0  0  0  0  0  0  0  0  0  0  0  0
    0.2097   62.6420   72.8889 H   0  0  0  0  0  0  0  0  0  0  0  0
    1.3690   60.2782   71.5177 H   0  0  0  0  0  0  0  0  0  0  0  0
    3.9370   59.3908   72.8396 H   0  0  0  0  0  0  0  0  0  0  0  0
    2.0869   57.3154   71.7324 H   0  0  0  0  0  0  0  0  0  0  0  0
    2.9117   57.4203   73.3518 H   0  0  0  0  0  0  0  0  0  0  0  0
    0.6470   59.2865   72.7701 H   0  0  0  0  0  0  0  0  0  0  0  0
    0.3294   57.4971   73.1420 H   0  0  0  0  0  0  0  0  0  0  0  0
   -0.6408   66.2086   69.8467 H   0  0  0  0  0  0  0  0  0  0  0  0
    1.0856   68.1085   70.0636 H   0  0  0  0  0  0  0  0  0  0  0  0
    2.3046   66.8902   69.5512 H   0  0  0  0  0  0  0  0  0  0  0  0
   -1.1019   66.9250   68.1715 H   0  0  0  0  0  0  0  0  0  0  0  0
    4.4952   69.3337   64.6118 H   0  0  0  0  0  0  0  0  0  0  0  0
    4.1268   68.9014   66.3030 H   0  0  0  0  0  0  0  0  0  0  0  0
   -0.3520   68.7003   61.6686 H   0  0  0  0  0  0  0  0  0  0  0  0
    1.3118   69.2500   61.3335 H   0  0  0  0  0  0  0  0  0  0  0  0
  2  1  2  0
  3  2  1  0
  4  3  2  0
  5  4  1  0
  6  5  2  0
  6  1  1  0
  8  7  1  0
  8  1  1  0
  9  8  2  0
 10  7  1  0
 11 10  1  0
 12 11  2  0
 13 11  1  0
 14 10  1  0
 15 14  1  0
 17 15  1  0
 17 16  1  0
 18 17  2  0
 19  4  1  0
 20 19  1  0
 21 20  1  0
 22 21  2  0
 23 22  1  0
 24 23  2  0
 25 24  1  0
 26 25  2  0
 26 21  1  0
 27 25  1  0
 28 27  1  0
 29 27  2  0
 30 29  1  0
 31 30  2  0
 31 24  1  0
 32 30  1  0
  2 33  1  0
  3 34  1  0
  5 35  1  0
  6 36  1  0
  7 37  1  0
 10 38  1  1
 14 39  1  0
 14 40  1  0
 15 41  1  0
 15 42  1  0
 19 43  1  0
 20 44  1  0
 20 45  1  0
 22 46  1  0
 28 47  1  0
 28 48  1  0
 32 49  1  0
 32 50  1  0
M  CHG  2  13  -1  16  -1
M  END
>  <score>  (3) 
-9.255

$$$$
=
     RDKit          3D

 50 52  0  0  0  0  0  0  0  0999 V2000
    0.9880   68.1070   65.7590 C   0  0  0  0  0  0  0  0  0  0  0  0
   -0.3940   68.0470   65.9570 C   0  0  0  0  0  0  0  0  0  0  0  0
   -0.9150   67.4280   67.1000 C   0  0  0  0  0  0  0  0  0  0  0  0
   -0.0730   66.8390   68.0510 C   0  0  0  0  0  0  0  0  0  0  0  0
    1.3130   66.9690   67.8680 C   0  0  0  0  0  0  0  0  0  0  0  0
    1.8420   67.5890   66.7310 C   0  0  0  0  0  0  0  0  0  0  0  0
    2.9240   69.0020   64.6290 N   0  0  0  0  0  0  0  0  0  0  0  0
    1.5720   68.7580   64.5580 C   0  0  0  0  0  0  0  0  0  0  0  0
    0.8340   69.0540   63.6250 O   0  0  0  0  0  0  0  0  0  0  0  0
    3.7700   69.0460   63.4150 C   0  0  2  0  0  0  0  0  0  0  0  0
    3.8610   67.6140   62.7620 C   0  0  0  0  0  0  0  0  0  0  0  0
    4.0620   66.6430   63.5440 O   0  0  0  0  0  0  0  0  0  0  0  0
    3.7600   67.6090   61.4890 O   0  0  0  0  0  1  0  0  0  0  0  0
    5.2000   69.4880   63.7770 C   0  0  0  0  0  0  0  0  0  0  0  0
    5.5840   69.1210   65.2160 C   0  0  0  0  0  0  0  0  0  0  0  0
    6.3450   71.1100   66.3060 O   0  0  0  0  0  1  0  0  0  0  0  0
    5.4500   70.2210   66.2760 C   0  0  0  0  0  0  0  0  0  0  0  0
    4.4370   70.1000   67.0300 O   0  0  0  0  0  0  0  0  0  0  0  0
   -0.5300   66.2510   69.2440 N   0  0  0  0  0  0  0  0  0  0  0  0
    0.3240   66.3300   70.4270 C   0  0  0  0  0  0  0  0  0  0  0  0
    0.8820   64.9610   70.7460 C   0  0  0  0  0  0  0  0  0  0  0  0
    2.1540   64.6050   70.3330 C   0  0  0  0  0  0  0  0  0  0  0  0
    2.6940   63.3860   70.5800 N   0  0  0  0  0  0  0  0  0  0  0  0
    1.9500   62.4930   71.2410 C   0  0  0  0  0  0  0  0  0  0  0  0
    0.6610   62.8450   71.6600 C   0  0  0  0  0  0  0  0  0  0  0  0
    0.1080   64.0710   71.4100 N   0  0  0  0  0  0  0  0  0  0  0  0
   -0.0040   61.8250   72.3330 C   0  0  0  0  0  0  0  0  0  0  0  0
   -1.2750   62.0480   72.8890 N   0  0  0  0  0  0  0  0  0  0  0  0
    0.5220   60.6140   72.5730 N   0  0  0  0  0  0  0  0  0  0  0  0
    1.7480   60.4010   72.1090 C   0  0  0  0  0  0  0  0  0  0  0  0
    2.4870   61.2970   71.4680 N   0  0  0  0  0  0  0  0  0  0  0  0
    2.3160   59.1690   72.3580 N   0  0  0  0  0  0  0  0  0  0  0  0
   -1.0744   68.4871   65.2131 H   0  0  0  0  0  0  0  0  0  0  0  0
   -2.0040   67.4041   67.2532 H   0  0  0  0  0  0  0  0  0  0  0  0
    1.9969   66.5753   68.6343 H   0  0  0  0  0  0  0  0  0  0  0  0
    2.9318   67.6677   66.6041 H   0  0  0  0  0  0  0  0  0  0  0  0
    3.3585   69.1580   65.5498 H   0  0  0  0  0  0  0  0  0  0  0  0
    3.3152   69.7597   62.7123 H   0  0  0  0  0  0  0  0  0  0  0  0
    5.9049   68.9989   63.0886 H   0  0  0  0  0  0  0  0  0  0  0  0
    5.2423   70.5837   63.6899 H   0  0  0  0  0  0  0  0  0  0  0  0
    4.9439   68.2819   65.5262 H   0  0  0  0  0  0  0  0  0  0  0  0
    6.6596   68.8944   65.1749 H   0  0  0  0  0  0  0  0  0  0  0  0
   -1.4435   65.7767   69.2828 H   0  0  0  0  0  0  0  0  0  0  0  0
    1.1530   67.0266   70.2335 H   0  0  0  0  0  0  0  0  0  0  0  0
   -0.2692   66.6893   71.2808 H   0  0  0  0  0  0  0  0  0  0  0  0
    2.7533   65.3434   69.7801 H   0  0  0  0  0  0  0  0  0  0  0  0
   -1.7605   61.2874   73.3857 H   0  0  0  0  0  0  0  0  0  0  0  0
   -1.7212   62.9721   72.7999 H   0  0  0  0  0  0  0  0  0  0  0  0
    3.2652   58.9610   72.0164 H   0  0  0  0  0  0  0  0  0  0  0  0
    1.7910   58.4570   72.8855 H   0  0  0  0  0  0  0  0  0  0  0  0
  2  1  2  0
  3  2  1  0
  4  3  2  0
  5  4  1  0
  6  5  2  0
  6  1  1  0
  8  7  1  0
  8  1  1  0
  9  8  2  0
 10  7  1  0
 11 10  1  0
 12 11  2  0
 13 11  1  0
 14 10  1  0
 15 14  1  0
 17 15  1  0
 17 16  1  0
 18 17  2  0
 19  4  1  0
 20 19  1  0
 21 20  1  0
 22 21  2  0
 23 22  1  0
 24 23  2  0
 25 24  1  0
 26 25  2  0
 26 21  1  0
 27 25  1  0
 28 27  1  0
 29 27  2  0
 30 29  1  0
 31 30  2  0
 31 24  1  0
 32 30  1  0
  2 33  1  0
  3 34  1  0
  5 35  1  0
  6 36  1  0
  7 37  1  0
 10 38  1  6
 14 39  1  0
 14 40  1  0
 15 41  1  0
 15 42  1  0
 19 43  1  0
 20 44  1  0
 20 45  1  0
 22 46  1  0
 28 47  1  0
 28 48  1  0
 32 49  1  0
 32 50  1  0
M  CHG  2  13  -1  16  -1
M  END
>  <score>  (4) 
-9.24

$$$$
=
     RDKit          3D

 50 52  0  0  0  0  0  0  0  0999 V2000
    1.6850   63.3970   71.7110 C   0  0  0  0  0  0  0  0  0  0  0  0
    2.4900   64.0070   70.7460 C   0  0  0  0  0  0  0  0  0  0  0  0
    2.0610   65.1790   70.1090 C   0  0  0  0  0  0  0  0  0  0  0  0
    0.8160   65.7480   70.4050 C   0  0  0  0  0  0  0  0  0  0  0  0
    0.0520   65.1590   71.4250 C   0  0  0  0  0  0  0  0  0  0  0  0
    0.4750   63.9910   72.0690 C   0  0  0  0  0  0  0  0  0  0  0  0
    2.5240   61.1380   71.5770 N   0  0  0  0  0  0  0  0  0  0  0  0
    2.1130   62.1560   72.4060 C   0  0  0  0  0  0  0  0  0  0  0  0
    2.0460   62.1070   73.6290 O   0  0  0  0  0  0  0  0  0  0  0  0
    3.5140   60.1300   72.0170 C   0  0  2  0  0  0  0  0  0  0  0  0
    4.9770   60.6910   71.8420 C   0  0  0  0  0  0  0  0  0  0  0  0
    5.5350   60.4900   70.7260 O   0  0  0  0  0  0  0  0  0  0  0  0
    5.4520   61.2570   72.8830 O   0  0  0  0  0  1  0  0  0  0  0  0
    3.3950   58.8560   71.1600 C   0  0  0  0  0  0  0  0  0  0  0  0
    2.4180   57.8350   71.7550 C   0  0  0  0  0  0  0  0  0  0  0  0
    0.8600   58.8620   73.2520 O   0  0  0  0  0  1  0  0  0  0  0  0
    1.8780   58.1230   73.1610 C   0  0  0  0  0  0  0  0  0  0  0  0
    2.5420   57.5820   74.0980 O   0  0  0  0  0  0  0  0  0  0  0  0
    0.3510   66.9500   69.8410 N   0  0  0  0  0  0  0  0  0  0  0  0
    0.0000   66.9590   68.4220 C   0  0  0  0  0  0  0  0  0  0  0  0
    1.1000   67.6280   67.6290 C   0  0  0  0  0  0  0  0  0  0  0  0
    1.5470   68.8920   67.9730 C   0  0  0  0  0  0  0  0  0  0  0  0
    2.5190   69.5420   67.2860 N   0  0  0  0  0  0  0  0  0  0  0  0
    3.0520   68.9290   66.2240 C   0  0  0  0  0  0  0  0  0  0  0  0
    2.6030   67.6510   65.8690 C   0  0  0  0  0  0  0  0  0  0  0  0
    1.6190   66.9920   66.5540 N   0  0  0  0  0  0  0  0  0  0  0  0
    3.2380   67.1300   64.7460 C   0  0  0  0  0  0  0  0  0  0  0  0
    2.9580   65.8240   64.3100 N   0  0  0  0  0  0  0  0  0  0  0  0
    4.1950   67.7710   64.0570 N   0  0  0  0  0  0  0  0  0  0  0  0
    4.5190   68.9850   64.4880 C   0  0  0  0  0  0  0  0  0  0  0  0
    3.9970   69.5810   65.5520 N   0  0  0  0  0  0  0  0  0  0  0  0
    5.5120   69.6570   63.8050 N   0  0  0  0  0  0  0  0  0  0  0  0
    3.4635   63.5660   70.4854 H   0  0  0  0  0  0  0  0  0  0  0  0
    2.7125   65.6599   69.3645 H   0  0  0  0  0  0  0  0  0  0  0  0
   -0.8984   65.6252   71.7240 H   0  0  0  0  0  0  0  0  0  0  0  0
   -0.1466   63.5414   72.8574 H   0  0  0  0  0  0  0  0  0  0  0  0
    2.1328   61.0759   70.6262 H   0  0  0  0  0  0  0  0  0  0  0  0
    3.3150   59.9002   73.0742 H   0  0  0  0  0  0  0  0  0  0  0  0
    3.0427   59.1378   70.1568 H   0  0  0  0  0  0  0  0  0  0  0  0
    4.3883   58.3848   71.1233 H   0  0  0  0  0  0  0  0  0  0  0  0
    1.5552   57.7671   71.0760 H   0  0  0  0  0  0  0  0  0  0  0  0
    3.0020   56.9086   71.8584 H   0  0  0  0  0  0  0  0  0  0  0  0
    0.2602   67.8017   70.4131 H   0  0  0  0  0  0  0  0  0  0  0  0
   -0.1271   65.9245   68.0702 H   0  0  0  0  0  0  0  0  0  0  0  0
   -0.9391   67.5146   68.2826 H   0  0  0  0  0  0  0  0  0  0  0  0
    1.0938   69.3914   68.8420 H   0  0  0  0  0  0  0  0  0  0  0  0
    3.4326   65.4461   63.4776 H   0  0  0  0  0  0  0  0  0  0  0  0
    2.2781   65.2445   64.8227 H   0  0  0  0  0  0  0  0  0  0  0  0
    5.7951   70.6009   64.1048 H   0  0  0  0  0  0  0  0  0  0  0  0
    5.9701   69.2147   62.9954 H   0  0  0  0  0  0  0  0  0  0  0  0
  2  1  2  0
  3  2  1  0
  4  3  2  0
  5  4  1  0
  6  5  2  0
  6  1  1  0
  8  7  1  0
  8  1  1  0
  9  8  2  0
 10  7  1  0
 11 10  1  0
 12 11  2  0
 13 11  1  0
 14 10  1  0
 15 14  1  0
 17 15  1  0
 17 16  1  0
 18 17  2  0
 19  4  1  0
 20 19  1  0
 21 20  1  0
 22 21  2  0
 23 22  1  0
 24 23  2  0
 25 24  1  0
 26 25  2  0
 26 21  1  0
 27 25  1  0
 28 27  1  0
 29 27  2  0
 30 29  1  0
 31 30  2  0
 31 24  1  0
 32 30  1  0
  2 33  1  0
  3 34  1  0
  5 35  1  0
  6 36  1  0
  7 37  1  0
 10 38  1  1
 14 39  1  0
 14 40  1  0
 15 41  1  0
 15 42  1  0
 19 43  1  0
 20 44  1  0
 20 45  1  0
 22 46  1  0
 28 47  1  0
 28 48  1  0
 32 49  1  0
 32 50  1  0
M  CHG  2  13  -1  16  -1
M  END
>  <score>  (5) 
-9.235

$$$$
=
     RDKit          3D

 50 52  0  0  0  0  0  0  0  0999 V2000
    0.3300   66.5930   69.2260 C   0  0  0  0  0  0  0  0  0  0  0  0
    1.1170   67.6700   68.8130 C   0  0  0  0  0  0  0  0  0  0  0  0
    0.6350   68.5660   67.8500 C   0  0  0  0  0  0  0  0  0  0  0  0
   -0.6260   68.3910   67.2650 C   0  0  0  0  0  0  0  0  0  0  0  0
   -1.4280   67.3420   67.7420 C   0  0  0  0  0  0  0  0  0  0  0  0
   -0.9560   66.4450   68.7070 C   0  0  0  0  0  0  0  0  0  0  0  0
    1.7610   64.7360   69.8020 N   0  0  0  0  0  0  0  0  0  0  0  0
    0.8110   65.6270   70.2460 C   0  0  0  0  0  0  0  0  0  0  0  0
    0.3260   65.6620   71.3720 O   0  0  0  0  0  0  0  0  0  0  0  0
    2.7680   64.1550   70.7170 C   0  0  2  0  0  0  0  0  0  0  0  0
    3.7860   63.2620   69.9100 C   0  0  0  0  0  0  0  0  0  0  0  0
    4.7730   62.8010   70.5500 O   0  0  0  0  0  0  0  0  0  0  0  0
    3.5110   63.1400   68.6690 O   0  0  0  0  0  1  0  0  0  0  0  0
    2.0830   63.2570   71.7630 C   0  0  0  0  0  0  0  0  0  0  0  0
    1.5740   61.9390   71.1670 C   0  0  0  0  0  0  0  0  0  0  0  0
    1.5030   60.4570   73.0430 O   0  0  0  0  0  1  0  0  0  0  0  0
    1.9740   60.6460   71.8890 C   0  0  0  0  0  0  0  0  0  0  0  0
    2.7650   59.9020   71.2310 O   0  0  0  0  0  0  0  0  0  0  0  0
   -1.1880   69.2820   66.3340 N   0  0  0  0  0  0  0  0  0  0  0  0
   -1.4660   68.7920   64.9860 C   0  0  0  0  0  0  0  0  0  0  0  0
   -0.1690   68.6160   64.2290 C   0  0  0  0  0  0  0  0  0  0  0  0
    0.0990   69.3760   63.1050 C   0  0  0  0  0  0  0  0  0  0  0  0
    1.2390   69.2470   62.3820 N   0  0  0  0  0  0  0  0  0  0  0  0
    2.1300   68.3310   62.7770 C   0  0  0  0  0  0  0  0  0  0  0  0
    1.8650   67.5560   63.9120 C   0  0  0  0  0  0  0  0  0  0  0  0
    0.7140   67.6780   64.6430 N   0  0  0  0  0  0  0  0  0  0  0  0
    2.8710   66.6420   64.2100 C   0  0  0  0  0  0  0  0  0  0  0  0
    2.7920   65.8480   65.3660 N   0  0  0  0  0  0  0  0  0  0  0  0
    3.9980   66.5040   63.4950 N   0  0  0  0  0  0  0  0  0  0  0  0
    4.1210   67.2890   62.4310 C   0  0  0  0  0  0  0  0  0  0  0  0
    3.2400   68.2060   62.0540 N   0  0  0  0  0  0  0  0  0  0  0  0
    5.2790   67.1760   61.6890 N   0  0  0  0  0  0  0  0  0  0  0  0
    2.1181   67.8153   69.2450 H   0  0  0  0  0  0  0  0  0  0  0  0
    1.2571   69.4214   67.5480 H   0  0  0  0  0  0  0  0  0  0  0  0
   -2.4485   67.2227   67.3491 H   0  0  0  0  0  0  0  0  0  0  0  0
   -1.5990   65.6236   69.0560 H   0  0  0  0  0  0  0  0  0  0  0  0
    1.7713   64.4668   68.8078 H   0  0  0  0  0  0  0  0  0  0  0  0
    3.2940   64.9850   71.2113 H   0  0  0  0  0  0  0  0  0  0  0  0
    2.8073   63.0273   72.5584 H   0  0  0  0  0  0  0  0  0  0  0  0
    1.2121   63.8045   72.1525 H   0  0  0  0  0  0  0  0  0  0  0  0
    0.4750   61.9842   71.1525 H   0  0  0  0  0  0  0  0  0  0  0  0
    2.0493   61.8715   70.1773 H   0  0  0  0  0  0  0  0  0  0  0  0
   -1.3985   70.2557   66.5957 H   0  0  0  0  0  0  0  0  0  0  0  0
   -1.9866   67.8250   65.0488 H   0  0  0  0  0  0  0  0  0  0  0  0
   -2.0997   69.5197   64.4578 H   0  0  0  0  0  0  0  0  0  0  0  0
   -0.6460   70.1185   62.7830 H   0  0  0  0  0  0  0  0  0  0  0  0
    3.5407   65.1737   65.5798 H   0  0  0  0  0  0  0  0  0  0  0  0
    1.9854   65.9401   65.9999 H   0  0  0  0  0  0  0  0  0  0  0  0
    5.4163   67.7656   60.8557 H   0  0  0  0  0  0  0  0  0  0  0  0
    6.0060   66.5021   61.9685 H   0  0  0  0  0  0  0  0  0  0  0  0
  2  1  2  0
  3  2  1  0
  4  3  2  0
  5  4  1  0
  6  5  2  0
  6  1  1  0
  8  7  1  0
  8  1  1  0
  9  8  2  0
 10  7  1  0
 11 10  1  0
 12 11  2  0
 13 11  1  0
 14 10  1  0
 15 14  1  0
 17 15  1  0
 17 16  1  0
 18 17  2  0
 19  4  1  0
 20 19  1  0
 21 20  1  0
 22 21  2  0
 23 22  1  0
 24 23  2  0
 25 24  1  0
 26 25  2  0
 26 21  1  0
 27 25  1  0
 28 27  1  0
 29 27  2  0
 30 29  1  0
 31 30  2  0
 31 24  1  0
 32 30  1  0
  2 33  1  0
  3 34  1  0
  5 35  1  0
  6 36  1  0
  7 37  1  0
 10 38  1  1
 14 39  1  0
 14 40  1  0
 15 41  1  0
 15 42  1  0
 19 43  1  0
 20 44  1  0
 20 45  1  0
 22 46  1  0
 28 47  1  0
 28 48  1  0
 32 49  1  0
 32 50  1  0
M  CHG  2  13  -1  16  -1
M  END
>  <score>  (6) 
-9.213

$$$$
=
     RDKit          3D

 50 52  0  0  0  0  0  0  0  0999 V2000
    1.7870   63.0090   71.9280 C   0  0  0  0  0  0  0  0  0  0  0  0
    0.5410   63.6390   71.8970 C   0  0  0  0  0  0  0  0  0  0  0  0
    0.3320   64.7460   71.0650 C   0  0  0  0  0  0  0  0  0  0  0  0
    1.3650   65.2580   70.2690 C   0  0  0  0  0  0  0  0  0  0  0  0
    2.5890   64.5690   70.2630 C   0  0  0  0  0  0  0  0  0  0  0  0
    2.8040   63.4600   71.0890 C   0  0  0  0  0  0  0  0  0  0  0  0
    1.2360   60.7420   72.5500 N   0  0  0  0  0  0  0  0  0  0  0  0
    2.0390   61.8310   72.7990 C   0  0  0  0  0  0  0  0  0  0  0  0
    2.8960   61.9120   73.6720 O   0  0  0  0  0  0  0  0  0  0  0  0
    1.6930   59.3620   72.8260 C   0  0  2  0  0  0  0  0  0  0  0  0
    1.5430   59.0350   74.3610 C   0  0  0  0  0  0  0  0  0  0  0  0
    0.4740   59.4090   74.9220 O   0  0  0  0  0  0  0  0  0  0  0  0
    2.5580   58.4580   74.8780 O   0  0  0  0  0  1  0  0  0  0  0  0
    3.1800   59.2090   72.4570 C   0  0  0  0  0  0  0  0  0  0  0  0
    3.3910   58.9170   70.9670 C   0  0  0  0  0  0  0  0  0  0  0  0
    5.0810   60.4600   70.2700 O   0  0  0  0  0  1  0  0  0  0  0  0
    3.8930   60.0730   70.0940 C   0  0  0  0  0  0  0  0  0  0  0  0
    3.0300   60.5300   69.2830 O   0  0  0  0  0  0  0  0  0  0  0  0
    1.2060   66.3300   69.3740 N   0  0  0  0  0  0  0  0  0  0  0  0
   -0.1500   66.7840   69.0710 C   0  0  0  0  0  0  0  0  0  0  0  0
   -0.2060   67.3120   67.6550 C   0  0  0  0  0  0  0  0  0  0  0  0
   -1.3740   67.8610   67.1540 C   0  0  0  0  0  0  0  0  0  0  0  0
   -1.4810   68.3350   65.8880 N   0  0  0  0  0  0  0  0  0  0  0  0
   -0.4080   68.2510   65.0940 C   0  0  0  0  0  0  0  0  0  0  0  0
    0.7760   67.6940   65.5930 C   0  0  0  0  0  0  0  0  0  0  0  0
    0.8900   67.2090   66.8680 N   0  0  0  0  0  0  0  0  0  0  0  0
    1.8120   67.6650   64.6650 C   0  0  0  0  0  0  0  0  0  0  0  0
    3.0890   67.2120   65.0370 N   0  0  0  0  0  0  0  0  0  0  0  0
    1.7100   68.1240   63.4080 N   0  0  0  0  0  0  0  0  0  0  0  0
    0.5270   68.6140   63.0540 C   0  0  0  0  0  0  0  0  0  0  0  0
   -0.5290   68.7090   63.8520 N   0  0  0  0  0  0  0  0  0  0  0  0
    0.4020   69.1070   61.7720 N   0  0  0  0  0  0  0  0  0  0  0  0
   -0.2786   63.2646   72.5279 H   0  0  0  0  0  0  0  0  0  0  0  0
   -0.6596   65.2213   71.0360 H   0  0  0  0  0  0  0  0  0  0  0  0
    3.3949   64.9080   69.5955 H   0  0  0  0  0  0  0  0  0  0  0  0
    3.7756   62.9444   71.0759 H   0  0  0  0  0  0  0  0  0  0  0  0
    0.2936   60.8910   72.1619 H   0  0  0  0  0  0  0  0  0  0  0  0
    1.0772   58.6759   72.2259 H   0  0  0  0  0  0  0  0  0  0  0  0
    3.7037   60.1425   72.7106 H   0  0  0  0  0  0  0  0  0  0  0  0
    3.5774   58.3539   73.0234 H   0  0  0  0  0  0  0  0  0  0  0  0
    4.1241   58.1006   70.8897 H   0  0  0  0  0  0  0  0  0  0  0  0
    2.3895   58.6804   70.5783 H   0  0  0  0  0  0  0  0  0  0  0  0
    2.0238   66.7840   68.9428 H   0  0  0  0  0  0  0  0  0  0  0  0
   -0.8495   65.9415   69.1751 H   0  0  0  0  0  0  0  0  0  0  0  0
   -0.4307   67.5855   69.7701 H   0  0  0  0  0  0  0  0  0  0  0  0
   -2.2540   67.9151   67.8118 H   0  0  0  0  0  0  0  0  0  0  0  0
    3.8509   67.1935   64.3442 H   0  0  0  0  0  0  0  0  0  0  0  0
    3.2632   66.8984   66.0025 H   0  0  0  0  0  0  0  0  0  0  0  0
   -0.4975   69.4964   61.4554 H   0  0  0  0  0  0  0  0  0  0  0  0
    1.2081   69.0858   61.1312 H   0  0  0  0  0  0  0  0  0  0  0  0
  2  1  2  0
  3  2  1  0
  4  3  2  0
  5  4  1  0
  6  5  2  0
  6  1  1  0
  8  7  1  0
  8  1  1  0
  9  8  2  0
 10  7  1  0
 11 10  1  0
 12 11  2  0
 13 11  1  0
 14 10  1  0
 15 14  1  0
 17 15  1  0
 17 16  1  0
 18 17  2  0
 19  4  1  0
 20 19  1  0
 21 20  1  0
 22 21  2  0
 23 22  1  0
 24 23  2  0
 25 24  1  0
 26 25  2  0
 26 21  1  0
 27 25  1  0
 28 27  1  0
 29 27  2  0
 30 29  1  0
 31 30  2  0
 31 24  1  0
 32 30  1  0
  2 33  1  0
  3 34  1  0
  5 35  1  0
  6 36  1  0
  7 37  1  0
 10 38  1  6
 14 39  1  0
 14 40  1  0
 15 41  1  0
 15 42  1  0
 19 43  1  0
 20 44  1  0
 20 45  1  0
 22 46  1  0
 28 47  1  0
 28 48  1  0
 32 49  1  0
 32 50  1  0
M  CHG  2  13  -1  16  -1
M  END
>  <score>  (7) 
-9.117

$$$$
=
     RDKit          3D

 50 52  0  0  0  0  0  0  0  0999 V2000
    1.5870   63.7980   71.3480 C   0  0  0  0  0  0  0  0  0  0  0  0
    0.3590   64.4500   71.4780 C   0  0  0  0  0  0  0  0  0  0  0  0
    0.1140   65.6370   70.7770 C   0  0  0  0  0  0  0  0  0  0  0  0
    1.0940   66.2070   69.9540 C   0  0  0  0  0  0  0  0  0  0  0  0
    2.2960   65.5020   69.7840 C   0  0  0  0  0  0  0  0  0  0  0  0
    2.5480   64.3130   70.4780 C   0  0  0  0  0  0  0  0  0  0  0  0
    2.2230   61.4700   71.2790 N   0  0  0  0  0  0  0  0  0  0  0  0
    1.8770   62.5360   72.0770 C   0  0  0  0  0  0  0  0  0  0  0  0
    1.7660   62.5170   73.2980 O   0  0  0  0  0  0  0  0  0  0  0  0
    3.1030   60.3860   71.7690 C   0  0  2  0  0  0  0  0  0  0  0  0
    4.1300   59.9700   70.6480 C   0  0  0  0  0  0  0  0  0  0  0  0
    3.7290   59.1330   69.7900 O   0  0  0  0  0  0  0  0  0  0  0  0
    5.2830   60.5050   70.7650 O   0  0  0  0  0  1  0  0  0  0  0  0
    2.2680   59.1430   72.1260 C   0  0  0  0  0  0  0  0  0  0  0  0
    2.9100   58.3000   73.2350 C   0  0  0  0  0  0  0  0  0  0  0  0
    1.7370   57.7390   75.2430 O   0  0  0  0  0  1  0  0  0  0  0  0
    1.9790   57.3970   74.0530 C   0  0  0  0  0  0  0  0  0  0  0  0
    1.5580   56.3750   73.4280 O   0  0  0  0  0  0  0  0  0  0  0  0
    0.8920   67.3650   69.1830 N   0  0  0  0  0  0  0  0  0  0  0  0
   -0.1260   67.3310   68.1350 C   0  0  0  0  0  0  0  0  0  0  0  0
    0.5170   67.5900   66.7910 C   0  0  0  0  0  0  0  0  0  0  0  0
    1.8660   67.3540   66.5990 C   0  0  0  0  0  0  0  0  0  0  0  0
    2.4940   67.5830   65.4190 N   0  0  0  0  0  0  0  0  0  0  0  0
    1.7680   68.0720   64.4080 C   0  0  0  0  0  0  0  0  0  0  0  0
    0.4020   68.3170   64.5960 C   0  0  0  0  0  0  0  0  0  0  0  0
   -0.2370   68.0920   65.7850 N   0  0  0  0  0  0  0  0  0  0  0  0
   -0.2330   68.8250   63.4670 C   0  0  0  0  0  0  0  0  0  0  0  0
   -1.6210   69.0460   63.4690 N   0  0  0  0  0  0  0  0  0  0  0  0
    0.3840   69.0620   62.2990 N   0  0  0  0  0  0  0  0  0  0  0  0
    1.6860   68.8030   62.2570 C   0  0  0  0  0  0  0  0  0  0  0  0
    2.3970   68.3030   63.2590 N   0  0  0  0  0  0  0  0  0  0  0  0
    2.3380   69.0240   61.0610 N   0  0  0  0  0  0  0  0  0  0  0  0
   -0.4183   64.0297   72.1332 H   0  0  0  0  0  0  0  0  0  0  0  0
   -0.8644   66.1303   70.8741 H   0  0  0  0  0  0  0  0  0  0  0  0
    3.0557   65.8923   69.0908 H   0  0  0  0  0  0  0  0  0  0  0  0
    3.5028   63.7852   70.3375 H   0  0  0  0  0  0  0  0  0  0  0  0
    1.8603   61.4254   70.3160 H   0  0  0  0  0  0  0  0  0  0  0  0
    3.6352   60.7573   72.6572 H   0  0  0  0  0  0  0  0  0  0  0  0
    1.2740   59.4714   72.4638 H   0  0  0  0  0  0  0  0  0  0  0  0
    2.2033   58.5150   71.2252 H   0  0  0  0  0  0  0  0  0  0  0  0
    3.6678   57.6559   72.7651 H   0  0  0  0  0  0  0  0  0  0  0  0
    3.3040   59.0310   73.9565 H   0  0  0  0  0  0  0  0  0  0  0  0
    1.4473   68.2158   69.3524 H   0  0  0  0  0  0  0  0  0  0  0  0
   -0.6079   66.3422   68.1253 H   0  0  0  0  0  0  0  0  0  0  0  0
   -0.8795   68.1073   68.3339 H   0  0  0  0  0  0  0  0  0  0  0  0
    2.4561   66.9631   67.4410 H   0  0  0  0  0  0  0  0  0  0  0  0
   -2.0838   69.4223   62.6293 H   0  0  0  0  0  0  0  0  0  0  0  0
   -2.1754   68.8316   64.3102 H   0  0  0  0  0  0  0  0  0  0  0  0
    3.3478   68.8368   60.9827 H   0  0  0  0  0  0  0  0  0  0  0  0
    1.8148   69.3762   60.2466 H   0  0  0  0  0  0  0  0  0  0  0  0
  2  1  2  0
  3  2  1  0
  4  3  2  0
  5  4  1  0
  6  5  2  0
  6  1  1  0
  8  7  1  0
  8  1  1  0
  9  8  2  0
 10  7  1  0
 11 10  1  0
 12 11  2  0
 13 11  1  0
 14 10  1  0
 15 14  1  0
 17 15  1  0
 17 16  1  0
 18 17  2  0
 19  4  1  0
 20 19  1  0
 21 20  1  0
 22 21  2  0
 23 22  1  0
 24 23  2  0
 25 24  1  0
 26 25  2  0
 26 21  1  0
 27 25  1  0
 28 27  1  0
 29 27  2  0
 30 29  1  0
 31 30  2  0
 31 24  1  0
 32 30  1  0
  2 33  1  0
  3 34  1  0
  5 35  1  0
  6 36  1  0
  7 37  1  0
 10 38  1  1
 14 39  1  0
 14 40  1  0
 15 41  1  0
 15 42  1  0
 19 43  1  0
 20 44  1  0
 20 45  1  0
 22 46  1  0
 28 47  1  0
 28 48  1  0
 32 49  1  0
 32 50  1  0
M  CHG  2  13  -1  16  -1
M  END
>  <score>  (8) 
-9.115

$$$$
=
     RDKit          3D

 50 52  0  0  0  0  0  0  0  0999 V2000
    1.1150   67.9330   66.6510 C   0  0  0  0  0  0  0  0  0  0  0  0
   -0.1960   67.4600   66.5580 C   0  0  0  0  0  0  0  0  0  0  0  0
   -0.7970   66.8290   67.6550 C   0  0  0  0  0  0  0  0  0  0  0  0
   -0.0960   66.6390   68.8530 C   0  0  0  0  0  0  0  0  0  0  0  0
    1.1950   67.1820   68.9490 C   0  0  0  0  0  0  0  0  0  0  0  0
    1.8010   67.8160   67.8590 C   0  0  0  0  0  0  0  0  0  0  0  0
    1.3910   68.1640   64.2640 N   0  0  0  0  0  0  0  0  0  0  0  0
    1.7790   68.6080   65.5070 C   0  0  0  0  0  0  0  0  0  0  0  0
    2.6240   69.4670   65.7340 O   0  0  0  0  0  0  0  0  0  0  0  0
    1.4300   69.0460   63.0770 C   0  0  2  0  0  0  0  0  0  0  0  0
   -0.0290   69.2840   62.5270 C   0  0  0  0  0  0  0  0  0  0  0  0
   -0.9720   68.7220   63.1530 O   0  0  0  0  0  0  0  0  0  0  0  0
   -0.0830   69.9960   61.4690 O   0  0  0  0  0  1  0  0  0  0  0  0
    2.2530   68.3900   61.9530 C   0  0  0  0  0  0  0  0  0  0  0  0
    3.5890   69.1030   61.7080 C   0  0  0  0  0  0  0  0  0  0  0  0
    5.3220   67.5830   62.3500 O   0  0  0  0  0  1  0  0  0  0  0  0
    4.7710   68.6910   62.5940 C   0  0  0  0  0  0  0  0  0  0  0  0
    5.0590   69.5270   63.5050 O   0  0  0  0  0  0  0  0  0  0  0  0
   -0.6590   66.0630   70.0050 N   0  0  0  0  0  0  0  0  0  0  0  0
    0.1950   65.8860   71.1790 C   0  0  0  0  0  0  0  0  0  0  0  0
    0.7540   64.4800   71.1950 C   0  0  0  0  0  0  0  0  0  0  0  0
    0.4160   63.6000   72.2080 C   0  0  0  0  0  0  0  0  0  0  0  0
    0.9010   62.3360   72.2770 N   0  0  0  0  0  0  0  0  0  0  0  0
    1.7530   61.9380   71.3250 C   0  0  0  0  0  0  0  0  0  0  0  0
    2.1010   62.8250   70.2990 C   0  0  0  0  0  0  0  0  0  0  0  0
    1.6190   64.1040   70.2260 N   0  0  0  0  0  0  0  0  0  0  0  0
    2.9940   62.2870   69.3780 C   0  0  0  0  0  0  0  0  0  0  0  0
    3.3780   63.0220   68.2440 N   0  0  0  0  0  0  0  0  0  0  0  0
    3.4850   61.0390   69.4450 N   0  0  0  0  0  0  0  0  0  0  0  0
    3.0870   60.3050   70.4780 C   0  0  0  0  0  0  0  0  0  0  0  0
    2.2290   60.7000   71.4100 N   0  0  0  0  0  0  0  0  0  0  0  0
    3.5650   59.0130   70.5600 N   0  0  0  0  0  0  0  0  0  0  0  0
   -0.7582   67.5833   65.6206 H   0  0  0  0  0  0  0  0  0  0  0  0
   -1.8361   66.4771   67.5744 H   0  0  0  0  0  0  0  0  0  0  0  0
    1.7413   67.1075   69.9008 H   0  0  0  0  0  0  0  0  0  0  0  0
    2.8187   68.2222   67.9551 H   0  0  0  0  0  0  0  0  0  0  0  0
    1.0651   67.1928   64.1571 H   0  0  0  0  0  0  0  0  0  0  0  0
    1.8864   70.0000   63.3795 H   0  0  0  0  0  0  0  0  0  0  0  0
    2.4567   67.3449   62.2293 H   0  0  0  0  0  0  0  0  0  0  0  0
    1.6644   68.4569   61.0261 H   0  0  0  0  0  0  0  0  0  0  0  0
    3.8773   68.9175   60.6628 H   0  0  0  0  0  0  0  0  0  0  0  0
    3.3997   70.1576   61.9567 H   0  0  0  0  0  0  0  0  0  0  0  0
   -1.6472   65.7731   70.0219 H   0  0  0  0  0  0  0  0  0  0  0  0
    1.0235   66.6086   71.1409 H   0  0  0  0  0  0  0  0  0  0  0  0
   -0.3985   66.0527   72.0900 H   0  0  0  0  0  0  0  0  0  0  0  0
   -0.2766   63.9411   72.9916 H   0  0  0  0  0  0  0  0  0  0  0  0
    4.0397   62.6162   67.5670 H   0  0  0  0  0  0  0  0  0  0  0  0
    2.9978   63.9667   68.0896 H   0  0  0  0  0  0  0  0  0  0  0  0
    3.2824   58.4082   71.3444 H   0  0  0  0  0  0  0  0  0  0  0  0
    4.2043   58.6535   69.8368 H   0  0  0  0  0  0  0  0  0  0  0  0
  2  1  2  0
  3  2  1  0
  4  3  2  0
  5  4  1  0
  6  5  2  0
  6  1  1  0
  8  7  1  0
  8  1  1  0
  9  8  2  0
 10  7  1  0
 11 10  1  0
 12 11  2  0
 13 11  1  0
 14 10  1  0
 15 14  1  0
 17 15  1  0
 17 16  1  0
 18 17  2  0
 19  4  1  0
 20 19  1  0
 21 20  1  0
 22 21  2  0
 23 22  1  0
 24 23  2  0
 25 24  1  0
 26 25  2  0
 26 21  1  0
 27 25  1  0
 28 27  1  0
 29 27  2  0
 30 29  1  0
 31 30  2  0
 31 24  1  0
 32 30  1  0
  2 33  1  0
  3 34  1  0
  5 35  1  0
  6 36  1  0
  7 37  1  0
 10 38  1  1
 14 39  1  0
 14 40  1  0
 15 41  1  0
 15 42  1  0
 19 43  1  0
 20 44  1  0
 20 45  1  0
 22 46  1  0
 28 47  1  0
 28 48  1  0
 32 49  1  0
 32 50  1  0
M  CHG  2  13  -1  16  -1
M  END
>  <score>  (9) 
-9.046

$$$$
