=
     RDKit          3D

 64 66  0  0  0  0  0  0  0  0999 V2000
    1.2740   56.8530   74.0950 C   0  0  2  0  0  0  0  0  0  0  0  0
    1.9780   56.6250   72.8570 O   0  0  0  0  0  0  0  0  0  0  0  0
    2.7070   57.7120   72.4470 C   0  0  0  0  0  0  0  0  0  0  0  0
    2.9750   57.8050   71.0870 C   0  0  0  0  0  0  0  0  0  0  0  0
    3.7000   58.8890   70.5930 C   0  0  0  0  0  0  0  0  0  0  0  0
    4.2070   59.8870   71.4430 C   0  0  0  0  0  0  0  0  0  0  0  0
    3.9340   59.7730   72.8180 C   0  0  0  0  0  0  0  0  0  0  0  0
    3.1970   58.6870   73.3170 C   0  0  0  0  0  0  0  0  0  0  0  0
    2.9470   58.5140   74.7630 C   0  0  0  0  0  0  0  0  0  0  0  0
    3.2990   59.3910   75.5510 O   0  0  0  0  0  0  0  0  0  0  0  0
    2.2940   57.2110   75.1880 C   0  0  2  0  0  0  0  0  0  0  0  0
   -1.3520   53.4480   74.8560 C   0  0  0  0  0  0  0  0  0  0  0  0
   -0.0560   53.2300   74.3830 C   0  0  0  0  0  0  0  0  0  0  0  0
    0.8050   54.3120   74.1320 C   0  0  0  0  0  0  0  0  0  0  0  0
    0.3910   55.6390   74.3400 C   0  0  0  0  0  0  0  0  0  0  0  0
   -0.9130   55.8520   74.8090 C   0  0  0  0  0  0  0  0  0  0  0  0
   -1.7550   54.7730   75.0600 C   0  0  0  0  0  0  0  0  0  0  0  0
   -2.2360   51.8530   76.4040 C   0  0  0  0  0  0  0  0  0  0  0  0
   -2.3240   52.5310   75.1600 O   0  0  0  0  0  0  0  0  0  0  0  0
    0.4160   51.9670   74.1500 O   0  0  0  0  0  0  0  0  0  0  0  0
   -3.0170   55.0450   75.5220 O   0  0  0  0  0  0  0  0  0  0  0  0
    3.8760   58.9140   69.2370 O   0  0  0  0  0  0  0  0  0  0  0  0
    3.3010   56.2090   75.3530 O   0  0  0  0  0  0  0  0  0  0  0  0
    4.4170   60.7500   73.6510 O   0  0  0  0  0  0  0  0  0  0  0  0
    5.0340   61.0410   70.9120 C   0  0  0  0  0  0  0  0  0  0  0  0
    4.2850   62.3470   70.9560 C   0  0  0  0  0  0  0  0  0  0  0  0
    3.3840   62.8350   70.0780 C   0  0  0  0  0  0  0  0  0  0  0  0
    2.9220   62.1370   68.8270 C   0  0  0  0  0  0  0  0  0  0  0  0
    2.7410   64.1900   70.3310 C   0  0  0  0  0  0  0  0  0  0  0  0
    1.3400   64.0740   70.9430 C   0  0  0  0  0  0  0  0  0  0  0  0
    1.4080   63.6960   72.4000 C   0  0  0  0  0  0  0  0  0  0  0  0
    1.1620   62.4900   72.9480 C   0  0  0  0  0  0  0  0  0  0  0  0
    1.3130   62.2760   74.4310 C   0  0  0  0  0  0  0  0  0  0  0  0
    0.7150   61.2710   72.1900 C   0  0  0  0  0  0  0  0  0  0  0  0
    0.5924   57.7163   74.0786 H   0  0  0  0  0  0  0  0  0  0  0  0
    2.6156   57.0243   70.4005 H   0  0  0  0  0  0  0  0  0  0  0  0
    1.7746   57.2940   76.1541 H   0  0  0  0  0  0  0  0  0  0  0  0
    1.8235   54.1164   73.7654 H   0  0  0  0  0  0  0  0  0  0  0  0
   -1.2724   56.8776   74.9794 H   0  0  0  0  0  0  0  0  0  0  0  0
   -2.3303   52.5792   77.2248 H   0  0  0  0  0  0  0  0  0  0  0  0
   -3.0455   51.1116   76.4756 H   0  0  0  0  0  0  0  0  0  0  0  0
   -1.2641   51.3428   76.4756 H   0  0  0  0  0  0  0  0  0  0  0  0
    1.3384   51.8373   73.8147 H   0  0  0  0  0  0  0  0  0  0  0  0
   -3.3001   55.9827   75.6656 H   0  0  0  0  0  0  0  0  0  0  0  0
    4.3811   59.6546   68.8170 H   0  0  0  0  0  0  0  0  0  0  0  0
    3.4570   56.0538   76.3182 H   0  0  0  0  0  0  0  0  0  0  0  0
    4.2433   60.7009   74.6244 H   0  0  0  0  0  0  0  0  0  0  0  0
    5.9444   61.1343   71.5222 H   0  0  0  0  0  0  0  0  0  0  0  0
    5.2762   60.8265   69.8606 H   0  0  0  0  0  0  0  0  0  0  0  0
    4.5019   62.9904   71.8214 H   0  0  0  0  0  0  0  0  0  0  0  0
    2.3337   61.2482   69.0990 H   0  0  0  0  0  0  0  0  0  0  0  0
    2.2984   62.8221   68.2339 H   0  0  0  0  0  0  0  0  0  0  0  0
    3.7963   61.8306   68.2339 H   0  0  0  0  0  0  0  0  0  0  0  0
    3.3806   64.7599   71.0211 H   0  0  0  0  0  0  0  0  0  0  0  0
    2.6389   64.6963   69.3598 H   0  0  0  0  0  0  0  0  0  0  0  0
    0.8262   65.0419   70.8476 H   0  0  0  0  0  0  0  0  0  0  0  0
    0.7907   63.2869   70.4056 H   0  0  0  0  0  0  0  0  0  0  0  0
    1.6915   64.4980   73.0974 H   0  0  0  0  0  0  0  0  0  0  0  0
    0.7610   63.0584   74.9724 H   0  0  0  0  0  0  0  0  0  0  0  0
    0.9103   61.2889   74.7019 H   0  0  0  0  0  0  0  0  0  0  0  0
    2.3780   62.3245   74.7019 H   0  0  0  0  0  0  0  0  0  0  0  0
    0.4260   60.4828   72.9008 H   0  0  0  0  0  0  0  0  0  0  0  0
   -0.1472   61.5284   71.5573 H   0  0  0  0  0  0  0  0  0  0  0  0
    1.5392   60.9099   71.5573 H   0  0  0  0  0  0  0  0  0  0  0  0
  2  1  1  0
  3  2  1  0
  4  3  2  0
  5  4  1  0
  6  5  2  0
  7  6  1  0
  8  7  2  0
  8  3  1  0
  9  8  1  0
 10  9  2  0
 11  9  1  0
 11  1  1  0
 13 12  2  0
 14 13  1  0
 15 14  2  0
 15  1  1  0
 16 15  1  0
 17 12  1  0
 17 16  2  0
 19 12  1  0
 19 18  1  0
 20 13  1  0
 21 17  1  0
 22  5  1  0
 23 11  1  0
 24  7  1  0
 25  6  1  0
 26 25  1  0
 27 26  2  0
 28 27  1  0
 29 27  1  0
 30 29  1  0
 31 30  1  0
 32 31  2  3
 33 32  1  0
 34 32  1  0
  1 35  1  6
  4 36  1  0
 11 37  1  1
 14 38  1  0
 16 39  1  0
 18 40  1  0
 18 41  1  0
 18 42  1  0
 20 43  1  0
 21 44  1  0
 22 45  1  0
 23 46  1  0
 24 47  1  0
 25 48  1  0
 25 49  1  0
 26 50  1  0
 28 51  1  0
 28 52  1  0
 28 53  1  0
 29 54  1  0
 29 55  1  0
 30 56  1  0
 30 57  1  0
 31 58  1  0
 33 59  1  0
 33 60  1  0
 33 61  1  0
 34 62  1  0
 34 63  1  0
 34 64  1  0
M  END
>  <score>  (1) 
-9.088

$$$$
=
     RDKit          3D

 64 66  0  0  0  0  0  0  0  0999 V2000
    2.8900   60.6860   73.7680 C   0  0  2  0  0  0  0  0  0  0  0  0
    1.6890   61.4500   74.0020 O   0  0  0  0  0  0  0  0  0  0  0  0
    1.3980   62.3170   72.9800 C   0  0  0  0  0  0  0  0  0  0  0  0
    0.6250   63.4240   73.3040 C   0  0  0  0  0  0  0  0  0  0  0  0
    0.2980   64.3570   72.3190 C   0  0  0  0  0  0  0  0  0  0  0  0
    0.7010   64.1920   70.9830 C   0  0  0  0  0  0  0  0  0  0  0  0
    1.4760   63.0600   70.6710 C   0  0  0  0  0  0  0  0  0  0  0  0
    1.8140   62.1240   71.6610 C   0  0  0  0  0  0  0  0  0  0  0  0
    2.5760   60.8990   71.3470 C   0  0  0  0  0  0  0  0  0  0  0  0
    3.0220   60.7330   70.2120 O   0  0  0  0  0  0  0  0  0  0  0  0
    2.7220   59.8840   72.4670 C   0  0  2  0  0  0  0  0  0  0  0  0
    3.7750   58.3300   77.3370 C   0  0  0  0  0  0  0  0  0  0  0  0
    2.9040   59.4190   77.4250 C   0  0  0  0  0  0  0  0  0  0  0  0
    2.6060   60.1900   76.2880 C   0  0  0  0  0  0  0  0  0  0  0  0
    3.1750   59.8970   75.0370 C   0  0  0  0  0  0  0  0  0  0  0  0
    4.0530   58.8060   74.9560 C   0  0  0  0  0  0  0  0  0  0  0  0
    4.3370   58.0470   76.0870 C   0  0  0  0  0  0  0  0  0  0  0  0
    3.2550   56.4870   78.7710 C   0  0  0  0  0  0  0  0  0  0  0  0
    4.1790   57.4680   78.3230 O   0  0  0  0  0  0  0  0  0  0  0  0
    2.3180   59.7690   78.6100 O   0  0  0  0  0  0  0  0  0  0  0  0
    5.1980   56.9900   75.9430 O   0  0  0  0  0  0  0  0  0  0  0  0
   -0.4300   65.4330   72.7430 O   0  0  0  0  0  0  0  0  0  0  0  0
    1.5730   59.0330   72.4860 O   0  0  0  0  0  0  0  0  0  0  0  0
    1.8820   62.9000   69.3700 O   0  0  0  0  0  0  0  0  0  0  0  0
    0.3080   65.1820   69.9040 C   0  0  0  0  0  0  0  0  0  0  0  0
    1.2000   66.3940   69.8900 C   0  0  0  0  0  0  0  0  0  0  0  0
    1.2010   67.4330   69.0280 C   0  0  0  0  0  0  0  0  0  0  0  0
    0.2650   67.5970   67.8610 C   0  0  0  0  0  0  0  0  0  0  0  0
    2.2010   68.5650   69.2120 C   0  0  0  0  0  0  0  0  0  0  0  0
    2.3210   69.4550   67.9700 C   0  0  0  0  0  0  0  0  0  0  0  0
    3.7500   69.8580   67.7210 C   0  0  0  0  0  0  0  0  0  0  0  0
    4.4460   69.7540   66.5720 C   0  0  0  0  0  0  0  0  0  0  0  0
    5.8680   70.2430   66.4880 C   0  0  0  0  0  0  0  0  0  0  0  0
    3.9220   69.1540   65.2970 C   0  0  0  0  0  0  0  0  0  0  0  0
    3.7888   61.2943   73.5890 H   0  0  0  0  0  0  0  0  0  0  0  0
    0.2708   63.5654   74.3358 H   0  0  0  0  0  0  0  0  0  0  0  0
    3.5943   59.2275   72.3325 H   0  0  0  0  0  0  0  0  0  0  0  0
    1.9135   61.0397   76.3794 H   0  0  0  0  0  0  0  0  0  0  0  0
    4.5194   58.5492   73.9934 H   0  0  0  0  0  0  0  0  0  0  0  0
    3.2408   56.4719   79.8708 H   0  0  0  0  0  0  0  0  0  0  0  0
    2.2505   56.7304   78.3946 H   0  0  0  0  0  0  0  0  0  0  0  0
    3.5581   55.4988   78.3946 H   0  0  0  0  0  0  0  0  0  0  0  0
    1.7040   60.5447   78.6485 H   0  0  0  0  0  0  0  0  0  0  0  0
    5.5945   56.7915   75.0578 H   0  0  0  0  0  0  0  0  0  0  0  0
   -0.6976   66.1348   72.0980 H   0  0  0  0  0  0  0  0  0  0  0  0
    1.3178   58.8440   73.4237 H   0  0  0  0  0  0  0  0  0  0  0  0
    2.4286   62.1149   69.1150 H   0  0  0  0  0  0  0  0  0  0  0  0
    0.3729   64.6835   68.9256 H   0  0  0  0  0  0  0  0  0  0  0  0
   -0.7172   65.5206   70.1146 H   0  0  0  0  0  0  0  0  0  0  0  0
    1.9531   66.4395   70.6905 H   0  0  0  0  0  0  0  0  0  0  0  0
   -0.7552   67.7757   68.2315 H   0  0  0  0  0  0  0  0  0  0  0  0
    0.5880   68.4522   67.2492 H   0  0  0  0  0  0  0  0  0  0  0  0
    0.2780   66.6829   67.2492 H   0  0  0  0  0  0  0  0  0  0  0  0
    1.8775   69.1861   70.0603 H   0  0  0  0  0  0  0  0  0  0  0  0
    3.1868   68.1117   69.3928 H   0  0  0  0  0  0  0  0  0  0  0  0
    1.9472   68.9020   67.0956 H   0  0  0  0  0  0  0  0  0  0  0  0
    1.7278   70.3661   68.1375 H   0  0  0  0  0  0  0  0  0  0  0  0
    4.2893   70.2879   68.5779 H   0  0  0  0  0  0  0  0  0  0  0  0
    6.2689   70.3809   67.5030 H   0  0  0  0  0  0  0  0  0  0  0  0
    6.4789   69.5033   65.9498 H   0  0  0  0  0  0  0  0  0  0  0  0
    5.8948   71.2020   65.9498 H   0  0  0  0  0  0  0  0  0  0  0  0
    3.2156   68.3452   65.5356 H   0  0  0  0  0  0  0  0  0  0  0  0
    3.4070   69.9297   64.7113 H   0  0  0  0  0  0  0  0  0  0  0  0
    4.7600   68.7481   64.7113 H   0  0  0  0  0  0  0  0  0  0  0  0
  2  1  1  0
  3  2  1  0
  4  3  2  0
  5  4  1  0
  6  5  2  0
  7  6  1  0
  8  7  2  0
  8  3  1  0
  9  8  1  0
 10  9  2  0
 11  9  1  0
 11  1  1  0
 13 12  2  0
 14 13  1  0
 15 14  2  0
 15  1  1  0
 16 15  1  0
 17 12  1  0
 17 16  2  0
 19 12  1  0
 19 18  1  0
 20 13  1  0
 21 17  1  0
 22  5  1  0
 23 11  1  0
 24  7  1  0
 25  6  1  0
 26 25  1  0
 27 26  2  0
 28 27  1  0
 29 27  1  0
 30 29  1  0
 31 30  1  0
 32 31  2  3
 33 32  1  0
 34 32  1  0
  1 35  1  6
  4 36  1  0
 11 37  1  6
 14 38  1  0
 16 39  1  0
 18 40  1  0
 18 41  1  0
 18 42  1  0
 20 43  1  0
 21 44  1  0
 22 45  1  0
 23 46  1  0
 24 47  1  0
 25 48  1  0
 25 49  1  0
 26 50  1  0
 28 51  1  0
 28 52  1  0
 28 53  1  0
 29 54  1  0
 29 55  1  0
 30 56  1  0
 30 57  1  0
 31 58  1  0
 33 59  1  0
 33 60  1  0
 33 61  1  0
 34 62  1  0
 34 63  1  0
 34 64  1  0
M  END
>  <score>  (2) 
-8.629

$$$$
=
     RDKit          3D

 64 66  0  0  0  0  0  0  0  0999 V2000
    0.9940   62.2850   75.1770 C   0  0  2  0  0  0  0  0  0  0  0  0
    1.9300   62.3760   74.0830 O   0  0  0  0  0  0  0  0  0  0  0  0
    1.4930   63.1930   73.0710 C   0  0  0  0  0  0  0  0  0  0  0  0
    2.0170   62.9530   71.8070 C   0  0  0  0  0  0  0  0  0  0  0  0
    1.6120   63.7350   70.7260 C   0  0  0  0  0  0  0  0  0  0  0  0
    0.7040   64.7970   70.8820 C   0  0  0  0  0  0  0  0  0  0  0  0
    0.1900   65.0320   72.1710 C   0  0  0  0  0  0  0  0  0  0  0  0
    0.5900   64.2410   73.2590 C   0  0  0  0  0  0  0  0  0  0  0  0
    0.1100   64.5050   74.6310 C   0  0  0  0  0  0  0  0  0  0  0  0
   -0.7420   65.3710   74.8230 O   0  0  0  0  0  0  0  0  0  0  0  0
    0.7530   63.6940   75.7430 C   0  0  2  0  0  0  0  0  0  0  0  0
    2.6000   59.2150   77.8350 C   0  0  0  0  0  0  0  0  0  0  0  0
    1.5670   60.0440   78.2800 C   0  0  0  0  0  0  0  0  0  0  0  0
    1.0360   61.0380   77.4400 C   0  0  0  0  0  0  0  0  0  0  0  0
    1.5270   61.2330   76.1380 C   0  0  0  0  0  0  0  0  0  0  0  0
    2.5690   60.4020   75.6990 C   0  0  0  0  0  0  0  0  0  0  0  0
    3.0830   59.4180   76.5380 C   0  0  0  0  0  0  0  0  0  0  0  0
    4.3130   58.5380   79.3620 C   0  0  0  0  0  0  0  0  0  0  0  0
    3.2360   58.1990   78.5000 O   0  0  0  0  0  0  0  0  0  0  0  0
    1.0410   59.9180   79.5370 O   0  0  0  0  0  0  0  0  0  0  0  0
    4.0960   58.6340   76.0500 O   0  0  0  0  0  0  0  0  0  0  0  0
    2.1500   63.3960   69.5160 O   0  0  0  0  0  0  0  0  0  0  0  0
    1.9600   64.3360   76.1590 O   0  0  0  0  0  0  0  0  0  0  0  0
   -0.7050   66.0600   72.3270 O   0  0  0  0  0  0  0  0  0  0  0  0
    0.2980   65.6760   69.7160 C   0  0  0  0  0  0  0  0  0  0  0  0
    1.1340   66.9250   69.6260 C   0  0  0  0  0  0  0  0  0  0  0  0
    1.2300   67.8060   68.6070 C   0  0  0  0  0  0  0  0  0  0  0  0
    0.4830   67.7150   67.3030 C   0  0  0  0  0  0  0  0  0  0  0  0
    2.1420   69.0160   68.7400 C   0  0  0  0  0  0  0  0  0  0  0  0
    2.7240   69.4680   67.3960 C   0  0  0  0  0  0  0  0  0  0  0  0
    4.1650   69.8830   67.5340 C   0  0  0  0  0  0  0  0  0  0  0  0
    5.1110   69.9000   66.5750 C   0  0  0  0  0  0  0  0  0  0  0  0
    6.5060   70.3820   66.8800 C   0  0  0  0  0  0  0  0  0  0  0  0
    4.9100   69.4510   65.1540 C   0  0  0  0  0  0  0  0  0  0  0  0
   -0.0105   61.9416   74.8890 H   0  0  0  0  0  0  0  0  0  0  0  0
    2.7507   62.1469   71.6591 H   0  0  0  0  0  0  0  0  0  0  0  0
    0.1149   63.6204   76.6360 H   0  0  0  0  0  0  0  0  0  0  0  0
    0.2196   61.6761   77.8093 H   0  0  0  0  0  0  0  0  0  0  0  0
    2.9813   60.5290   74.6871 H   0  0  0  0  0  0  0  0  0  0  0  0
    3.9907   58.4366   80.4088 H   0  0  0  0  0  0  0  0  0  0  0  0
    5.1608   57.8633   79.1723 H   0  0  0  0  0  0  0  0  0  0  0  0
    4.6215   59.5767   79.1723 H   0  0  0  0  0  0  0  0  0  0  0  0
    0.3093   60.5172   79.8297 H   0  0  0  0  0  0  0  0  0  0  0  0
    4.4361   58.7796   75.1317 H   0  0  0  0  0  0  0  0  0  0  0  0
    1.9065   63.9088   68.7049 H   0  0  0  0  0  0  0  0  0  0  0  0
    1.9988   64.3567   77.1480 H   0  0  0  0  0  0  0  0  0  0  0  0
   -1.0863   66.2531   73.2200 H   0  0  0  0  0  0  0  0  0  0  0  0
    0.4148   65.1038   68.7838 H   0  0  0  0  0  0  0  0  0  0  0  0
   -0.7476   65.9804   69.8712 H   0  0  0  0  0  0  0  0  0  0  0  0
    1.7496   67.1503   70.5094 H   0  0  0  0  0  0  0  0  0  0  0  0
   -0.5906   67.5842   67.5038 H   0  0  0  0  0  0  0  0  0  0  0  0
    0.6383   68.6387   66.7262 H   0  0  0  0  0  0  0  0  0  0  0  0
    0.8555   66.8556   66.7262 H   0  0  0  0  0  0  0  0  0  0  0  0
    1.5639   69.8469   69.1705 H   0  0  0  0  0  0  0  0  0  0  0  0
    2.9838   68.7283   69.3870 H   0  0  0  0  0  0  0  0  0  0  0  0
    2.6580   68.6361   66.6793 H   0  0  0  0  0  0  0  0  0  0  0  0
    2.1462   70.3344   67.0419 H   0  0  0  0  0  0  0  0  0  0  0  0
    4.4823   70.2106   68.5350 H   0  0  0  0  0  0  0  0  0  0  0  0
    6.6470   70.4307   67.9698 H   0  0  0  0  0  0  0  0  0  0  0  0
    7.2379   69.6846   66.4464 H   0  0  0  0  0  0  0  0  0  0  0  0
    6.6513   71.3824   66.4464 H   0  0  0  0  0  0  0  0  0  0  0  0
    4.4606   68.4470   65.1468 H   0  0  0  0  0  0  0  0  0  0  0  0
    4.2414   70.1557   64.6379 H   0  0  0  0  0  0  0  0  0  0  0  0
    5.8810   69.4218   64.6379 H   0  0  0  0  0  0  0  0  0  0  0  0
  2  1  1  0
  3  2  1  0
  4  3  2  0
  5  4  1  0
  6  5  2  0
  7  6  1  0
  8  7  2  0
  8  3  1  0
  9  8  1  0
 10  9  2  0
 11  9  1  0
 11  1  1  0
 13 12  2  0
 14 13  1  0
 15 14  2  0
 15  1  1  0
 16 15  1  0
 17 12  1  0
 17 16  2  0
 19 12  1  0
 19 18  1  0
 20 13  1  0
 21 17  1  0
 22  5  1  0
 23 11  1  0
 24  7  1  0
 25  6  1  0
 26 25  1  0
 27 26  2  0
 28 27  1  0
 29 27  1  0
 30 29  1  0
 31 30  1  0
 32 31  2  3
 33 32  1  0
 34 32  1  0
  1 35  1  6
  4 36  1  0
 11 37  1  1
 14 38  1  0
 16 39  1  0
 18 40  1  0
 18 41  1  0
 18 42  1  0
 20 43  1  0
 21 44  1  0
 22 45  1  0
 23 46  1  0
 24 47  1  0
 25 48  1  0
 25 49  1  0
 26 50  1  0
 28 51  1  0
 28 52  1  0
 28 53  1  0
 29 54  1  0
 29 55  1  0
 30 56  1  0
 30 57  1  0
 31 58  1  0
 33 59  1  0
 33 60  1  0
 33 61  1  0
 34 62  1  0
 34 63  1  0
 34 64  1  0
M  END
>  <score>  (3) 
-8.274

$$$$
=
     RDKit          3D

 64 66  0  0  0  0  0  0  0  0999 V2000
    1.2580   65.2160   70.6160 C   0  0  2  0  0  0  0  0  0  0  0  0
    1.8470   64.1150   69.8940 O   0  0  0  0  0  0  0  0  0  0  0  0
    2.5090   63.2320   70.7100 C   0  0  0  0  0  0  0  0  0  0  0  0
    3.5130   62.4750   70.1220 C   0  0  0  0  0  0  0  0  0  0  0  0
    4.2380   61.5640   70.8900 C   0  0  0  0  0  0  0  0  0  0  0  0
    3.9570   61.3590   72.2520 C   0  0  0  0  0  0  0  0  0  0  0  0
    2.9300   62.1280   72.8290 C   0  0  0  0  0  0  0  0  0  0  0  0
    2.2050   63.0510   72.0600 C   0  0  0  0  0  0  0  0  0  0  0  0
    1.0840   63.8280   72.6290 C   0  0  0  0  0  0  0  0  0  0  0  0
    0.8370   63.7500   73.8310 O   0  0  0  0  0  0  0  0  0  0  0  0
    0.2690   64.6570   71.6530 C   0  0  2  0  0  0  0  0  0  0  0  0
   -0.2160   68.0790   67.6670 C   0  0  0  0  0  0  0  0  0  0  0  0
   -1.0470   67.0450   68.1030 C   0  0  0  0  0  0  0  0  0  0  0  0
   -0.5920   66.1140   69.0520 C   0  0  0  0  0  0  0  0  0  0  0  0
    0.7060   66.1870   69.5840 C   0  0  0  0  0  0  0  0  0  0  0  0
    1.5390   67.2230   69.1370 C   0  0  0  0  0  0  0  0  0  0  0  0
    1.0770   68.1440   68.2010 C   0  0  0  0  0  0  0  0  0  0  0  0
   -0.5330   68.7270   65.3850 C   0  0  0  0  0  0  0  0  0  0  0  0
   -0.4790   69.0740   66.7610 O   0  0  0  0  0  0  0  0  0  0  0  0
   -2.3220   66.9060   67.6260 O   0  0  0  0  0  0  0  0  0  0  0  0
    1.9350   69.1370   67.8080 O   0  0  0  0  0  0  0  0  0  0  0  0
    5.2330   60.8960   70.2330 O   0  0  0  0  0  0  0  0  0  0  0  0
   -0.7420   63.8360   71.0640 O   0  0  0  0  0  0  0  0  0  0  0  0
    2.6590   61.9400   74.1610 O   0  0  0  0  0  0  0  0  0  0  0  0
    4.7140   60.3360   73.0760 C   0  0  0  0  0  0  0  0  0  0  0  0
    3.8020   59.3000   73.6770 C   0  0  0  0  0  0  0  0  0  0  0  0
    3.0440   58.3750   73.0500 C   0  0  0  0  0  0  0  0  0  0  0  0
    2.9620   58.1830   71.5590 C   0  0  0  0  0  0  0  0  0  0  0  0
    2.1960   57.4140   73.8680 C   0  0  0  0  0  0  0  0  0  0  0  0
    0.8620   57.0800   73.1910 C   0  0  0  0  0  0  0  0  0  0  0  0
   -0.3030   57.6210   73.9780 C   0  0  0  0  0  0  0  0  0  0  0  0
   -0.7740   58.8830   73.9850 C   0  0  0  0  0  0  0  0  0  0  0  0
   -1.9810   59.2480   74.8110 C   0  0  0  0  0  0  0  0  0  0  0  0
   -0.1780   60.0330   73.2210 C   0  0  0  0  0  0  0  0  0  0  0  0
    1.9708   65.7983   71.2184 H   0  0  0  0  0  0  0  0  0  0  0  0
    3.7366   62.5935   69.0515 H   0  0  0  0  0  0  0  0  0  0  0  0
   -0.2527   65.4927   72.1423 H   0  0  0  0  0  0  0  0  0  0  0  0
   -1.2663   65.3113   69.3852 H   0  0  0  0  0  0  0  0  0  0  0  0
    2.5635   67.3083   69.5284 H   0  0  0  0  0  0  0  0  0  0  0  0
   -0.7015   67.6445   65.2862 H   0  0  0  0  0  0  0  0  0  0  0  0
   -1.3571   69.2720   64.9015 H   0  0  0  0  0  0  0  0  0  0  0  0
    0.4178   68.9958   64.9015 H   0  0  0  0  0  0  0  0  0  0  0  0
   -2.8935   66.1651   67.9494 H   0  0  0  0  0  0  0  0  0  0  0  0
    2.8485   69.1806   68.1871 H   0  0  0  0  0  0  0  0  0  0  0  0
    5.7880   60.2341   70.7167 H   0  0  0  0  0  0  0  0  0  0  0  0
   -1.2740   63.4040   71.7785 H   0  0  0  0  0  0  0  0  0  0  0  0
    1.9428   62.4644   74.5992 H   0  0  0  0  0  0  0  0  0  0  0  0
    5.4453   59.8307   72.4280 H   0  0  0  0  0  0  0  0  0  0  0  0
    5.2096   60.8682   73.9014 H   0  0  0  0  0  0  0  0  0  0  0  0
    3.7454   59.2960   74.7755 H   0  0  0  0  0  0  0  0  0  0  0  0
    2.5386   57.1917   71.3397 H   0  0  0  0  0  0  0  0  0  0  0  0
    2.3178   58.9613   71.1240 H   0  0  0  0  0  0  0  0  0  0  0  0
    3.9697   58.2557   71.1240 H   0  0  0  0  0  0  0  0  0  0  0  0
    2.7609   56.4812   74.0121 H   0  0  0  0  0  0  0  0  0  0  0  0
    1.9690   57.9039   74.8264 H   0  0  0  0  0  0  0  0  0  0  0  0
    0.8506   57.5229   72.1842 H   0  0  0  0  0  0  0  0  0  0  0  0
    0.7653   55.9856   73.1365 H   0  0  0  0  0  0  0  0  0  0  0  0
   -0.8304   56.9018   74.6219 H   0  0  0  0  0  0  0  0  0  0  0  0
   -1.7306   59.1723   75.8795 H   0  0  0  0  0  0  0  0  0  0  0  0
   -2.2866   60.2787   74.5781 H   0  0  0  0  0  0  0  0  0  0  0  0
   -2.8065   58.5593   74.5781 H   0  0  0  0  0  0  0  0  0  0  0  0
    0.2098   60.7812   73.9280 H   0  0  0  0  0  0  0  0  0  0  0  0
    0.6435   59.6662   72.5881 H   0  0  0  0  0  0  0  0  0  0  0  0
   -0.9513   60.4928   72.5881 H   0  0  0  0  0  0  0  0  0  0  0  0
  2  1  1  0
  3  2  1  0
  4  3  2  0
  5  4  1  0
  6  5  2  0
  7  6  1  0
  8  7  2  0
  8  3  1  0
  9  8  1  0
 10  9  2  0
 11  9  1  0
 11  1  1  0
 13 12  2  0
 14 13  1  0
 15 14  2  0
 15  1  1  0
 16 15  1  0
 17 12  1  0
 17 16  2  0
 19 12  1  0
 19 18  1  0
 20 13  1  0
 21 17  1  0
 22  5  1  0
 23 11  1  0
 24  7  1  0
 25  6  1  0
 26 25  1  0
 27 26  2  0
 28 27  1  0
 29 27  1  0
 30 29  1  0
 31 30  1  0
 32 31  2  3
 33 32  1  0
 34 32  1  0
  1 35  1  1
  4 36  1  0
 11 37  1  1
 14 38  1  0
 16 39  1  0
 18 40  1  0
 18 41  1  0
 18 42  1  0
 20 43  1  0
 21 44  1  0
 22 45  1  0
 23 46  1  0
 24 47  1  0
 25 48  1  0
 25 49  1  0
 26 50  1  0
 28 51  1  0
 28 52  1  0
 28 53  1  0
 29 54  1  0
 29 55  1  0
 30 56  1  0
 30 57  1  0
 31 58  1  0
 33 59  1  0
 33 60  1  0
 33 61  1  0
 34 62  1  0
 34 63  1  0
 34 64  1  0
M  END
>  <score>  (4) 
-8.17

$$$$
=
     RDKit          3D

 64 66  0  0  0  0  0  0  0  0999 V2000
    1.3300   65.2870   70.5550 C   0  0  2  0  0  0  0  0  0  0  0  0
    1.9220   64.1920   69.8270 O   0  0  0  0  0  0  0  0  0  0  0  0
    2.5700   63.2970   70.6400 C   0  0  0  0  0  0  0  0  0  0  0  0
    3.5790   62.5420   70.0550 C   0  0  0  0  0  0  0  0  0  0  0  0
    4.2900   61.6190   70.8210 C   0  0  0  0  0  0  0  0  0  0  0  0
    3.9930   61.3990   72.1770 C   0  0  0  0  0  0  0  0  0  0  0  0
    2.9630   62.1670   72.7510 C   0  0  0  0  0  0  0  0  0  0  0  0
    2.2510   63.1020   71.9840 C   0  0  0  0  0  0  0  0  0  0  0  0
    1.1270   63.8770   72.5500 C   0  0  0  0  0  0  0  0  0  0  0  0
    0.8660   63.7860   73.7480 O   0  0  0  0  0  0  0  0  0  0  0  0
    0.3270   64.7210   71.5740 C   0  0  2  0  0  0  0  0  0  0  0  0
   -0.3210   68.0410   67.5950 C   0  0  0  0  0  0  0  0  0  0  0  0
    1.0000   68.1940   68.0220 C   0  0  0  0  0  0  0  0  0  0  0  0
    1.5510   67.3190   68.9740 C   0  0  0  0  0  0  0  0  0  0  0  0
    0.7940   66.2720   69.5280 C   0  0  0  0  0  0  0  0  0  0  0  0
   -0.5340   66.1270   69.1000 C   0  0  0  0  0  0  0  0  0  0  0  0
   -1.0670   66.9960   68.1530 C   0  0  0  0  0  0  0  0  0  0  0  0
   -0.6530   68.6870   65.3160 C   0  0  0  0  0  0  0  0  0  0  0  0
   -1.0240   68.7840   66.6830 O   0  0  0  0  0  0  0  0  0  0  0  0
    1.7960   69.1940   67.5320 O   0  0  0  0  0  0  0  0  0  0  0  0
   -2.3690   66.8000   67.7710 O   0  0  0  0  0  0  0  0  0  0  0  0
    5.2900   60.9540   70.1670 O   0  0  0  0  0  0  0  0  0  0  0  0
   -0.6820   63.9110   70.9640 O   0  0  0  0  0  0  0  0  0  0  0  0
    2.6760   61.9640   74.0780 O   0  0  0  0  0  0  0  0  0  0  0  0
    4.7370   60.3640   72.9980 C   0  0  0  0  0  0  0  0  0  0  0  0
    3.8100   59.3380   73.5950 C   0  0  0  0  0  0  0  0  0  0  0  0
    3.0810   58.3910   72.9680 C   0  0  0  0  0  0  0  0  0  0  0  0
    3.0530   58.1560   71.4810 C   0  0  0  0  0  0  0  0  0  0  0  0
    2.2110   57.4470   73.7820 C   0  0  0  0  0  0  0  0  0  0  0  0
    0.8640   57.1560   73.1100 C   0  0  0  0  0  0  0  0  0  0  0  0
   -0.2810   57.7120   73.9150 C   0  0  0  0  0  0  0  0  0  0  0  0
   -0.7500   58.9750   73.9130 C   0  0  0  0  0  0  0  0  0  0  0  0
   -1.9370   59.3550   74.7600 C   0  0  0  0  0  0  0  0  0  0  0  0
   -0.1710   60.1110   73.1160 C   0  0  0  0  0  0  0  0  0  0  0  0
    2.0385   65.8589   71.1722 H   0  0  0  0  0  0  0  0  0  0  0  0
    3.8166   62.6722   68.9889 H   0  0  0  0  0  0  0  0  0  0  0  0
   -0.1962   65.5537   72.0667 H   0  0  0  0  0  0  0  0  0  0  0  0
    2.5951   67.4562   69.2918 H   0  0  0  0  0  0  0  0  0  0  0  0
   -1.1576   65.3217   69.5154 H   0  0  0  0  0  0  0  0  0  0  0  0
    0.4089   68.4094   65.2431 H   0  0  0  0  0  0  0  0  0  0  0  0
   -1.2674   67.9193   64.8229 H   0  0  0  0  0  0  0  0  0  0  0  0
   -0.8130   69.6572   64.8229 H   0  0  0  0  0  0  0  0  0  0  0  0
    2.7296   69.2837   67.8489 H   0  0  0  0  0  0  0  0  0  0  0  0
   -2.8950   66.0605   68.1667 H   0  0  0  0  0  0  0  0  0  0  0  0
    5.8364   60.2837   70.6490 H   0  0  0  0  0  0  0  0  0  0  0  0
   -1.2251   63.4750   71.6675 H   0  0  0  0  0  0  0  0  0  0  0  0
    1.9575   62.4867   74.5147 H   0  0  0  0  0  0  0  0  0  0  0  0
    5.4620   59.8513   72.3488 H   0  0  0  0  0  0  0  0  0  0  0  0
    5.2399   60.8867   73.8250 H   0  0  0  0  0  0  0  0  0  0  0  0
    3.7142   59.3641   74.6905 H   0  0  0  0  0  0  0  0  0  0  0  0
    2.9250   57.0818   71.2819 H   0  0  0  0  0  0  0  0  0  0  0  0
    2.2149   58.7135   71.0374 H   0  0  0  0  0  0  0  0  0  0  0  0
    3.9986   58.5010   71.0374 H   0  0  0  0  0  0  0  0  0  0  0  0
    2.7505   56.4976   73.9147 H   0  0  0  0  0  0  0  0  0  0  0  0
    2.0029   57.9348   74.7457 H   0  0  0  0  0  0  0  0  0  0  0  0
    0.8556   57.6154   72.1105 H   0  0  0  0  0  0  0  0  0  0  0  0
    0.7404   56.0653   73.0383 H   0  0  0  0  0  0  0  0  0  0  0  0
   -0.7943   57.0043   74.5825 H   0  0  0  0  0  0  0  0  0  0  0  0
   -1.6707   59.2697   75.8239 H   0  0  0  0  0  0  0  0  0  0  0  0
   -2.2296   60.3917   74.5372 H   0  0  0  0  0  0  0  0  0  0  0  0
   -2.7772   58.6809   74.5372 H   0  0  0  0  0  0  0  0  0  0  0  0
    0.2198   60.8778   73.8011 H   0  0  0  0  0  0  0  0  0  0  0  0
    0.6456   59.7353   72.4819 H   0  0  0  0  0  0  0  0  0  0  0  0
   -0.9548   60.5510   72.4819 H   0  0  0  0  0  0  0  0  0  0  0  0
  2  1  1  0
  3  2  1  0
  4  3  2  0
  5  4  1  0
  6  5  2  0
  7  6  1  0
  8  7  2  0
  8  3  1  0
  9  8  1  0
 10  9  2  0
 11  9  1  0
 11  1  1  0
 13 12  2  0
 14 13  1  0
 15 14  2  0
 15  1  1  0
 16 15  1  0
 17 12  1  0
 17 16  2  0
 19 12  1  0
 19 18  1  0
 20 13  1  0
 21 17  1  0
 22  5  1  0
 23 11  1  0
 24  7  1  0
 25  6  1  0
 26 25  1  0
 27 26  2  0
 28 27  1  0
 29 27  1  0
 30 29  1  0
 31 30  1  0
 32 31  2  3
 33 32  1  0
 34 32  1  0
  1 35  1  1
  4 36  1  0
 11 37  1  1
 14 38  1  0
 16 39  1  0
 18 40  1  0
 18 41  1  0
 18 42  1  0
 20 43  1  0
 21 44  1  0
 22 45  1  0
 23 46  1  0
 24 47  1  0
 25 48  1  0
 25 49  1  0
 26 50  1  0
 28 51  1  0
 28 52  1  0
 28 53  1  0
 29 54  1  0
 29 55  1  0
 30 56  1  0
 30 57  1  0
 31 58  1  0
 33 59  1  0
 33 60  1  0
 33 61  1  0
 34 62  1  0
 34 63  1  0
 34 64  1  0
M  END
>  <score>  (5) 
-8.048

$$$$
=
     RDKit          3D

 64 66  0  0  0  0  0  0  0  0999 V2000
    2.4500   58.9450   72.9930 C   0  0  2  0  0  0  0  0  0  0  0  0
    1.2810   59.7090   72.6310 O   0  0  0  0  0  0  0  0  0  0  0  0
    1.5860   60.9460   72.1240 C   0  0  0  0  0  0  0  0  0  0  0  0
    0.6060   61.9240   72.2380 C   0  0  0  0  0  0  0  0  0  0  0  0
    0.8480   63.2110   71.7560 C   0  0  0  0  0  0  0  0  0  0  0  0
    2.0550   63.5460   71.1180 C   0  0  0  0  0  0  0  0  0  0  0  0
    3.0320   62.5410   71.0030 C   0  0  0  0  0  0  0  0  0  0  0  0
    2.7950   61.2470   71.4940 C   0  0  0  0  0  0  0  0  0  0  0  0
    3.7820   60.1600   71.3330 C   0  0  0  0  0  0  0  0  0  0  0  0
    4.8870   60.4060   70.8510 O   0  0  0  0  0  0  0  0  0  0  0  0
    3.3340   58.7700   71.7480 C   0  0  2  0  0  0  0  0  0  0  0  0
    1.1670   55.3100   75.0450 C   0  0  0  0  0  0  0  0  0  0  0  0
    0.4310   55.7870   73.9580 C   0  0  0  0  0  0  0  0  0  0  0  0
    0.8270   56.9550   73.2840 C   0  0  0  0  0  0  0  0  0  0  0  0
    1.9640   57.6790   73.6820 C   0  0  0  0  0  0  0  0  0  0  0  0
    2.6950   57.1990   74.7780 C   0  0  0  0  0  0  0  0  0  0  0  0
    2.2970   56.0390   75.4350 C   0  0  0  0  0  0  0  0  0  0  0  0
    1.1080   52.9240   75.2150 C   0  0  0  0  0  0  0  0  0  0  0  0
    0.9420   54.2000   75.8180 O   0  0  0  0  0  0  0  0  0  0  0  0
   -0.6900   55.1400   73.5170 O   0  0  0  0  0  0  0  0  0  0  0  0
    3.0550   55.6160   76.4960 O   0  0  0  0  0  0  0  0  0  0  0  0
   -0.1590   64.1140   71.9520 O   0  0  0  0  0  0  0  0  0  0  0  0
    2.6400   58.1530   70.6600 O   0  0  0  0  0  0  0  0  0  0  0  0
    4.2170   62.8650   70.3900 O   0  0  0  0  0  0  0  0  0  0  0  0
    2.2990   64.9310   70.5540 C   0  0  0  0  0  0  0  0  0  0  0  0
    1.1290   65.4350   69.7520 C   0  0  0  0  0  0  0  0  0  0  0  0
    0.8870   66.6850   69.3030 C   0  0  0  0  0  0  0  0  0  0  0  0
    1.7820   67.8760   69.5190 C   0  0  0  0  0  0  0  0  0  0  0  0
   -0.3710   66.9670   68.4960 C   0  0  0  0  0  0  0  0  0  0  0  0
   -0.1100   67.8820   67.2950 C   0  0  0  0  0  0  0  0  0  0  0  0
    0.7350   67.1940   66.2550 C   0  0  0  0  0  0  0  0  0  0  0  0
    1.9080   67.6140   65.7410 C   0  0  0  0  0  0  0  0  0  0  0  0
    2.6440   66.7780   64.7260 C   0  0  0  0  0  0  0  0  0  0  0  0
    2.5880   68.9100   66.0840 C   0  0  0  0  0  0  0  0  0  0  0  0
    3.1114   59.4418   73.7181 H   0  0  0  0  0  0  0  0  0  0  0  0
   -0.3594   61.6842   72.7076 H   0  0  0  0  0  0  0  0  0  0  0  0
    4.1786   58.1100   71.9951 H   0  0  0  0  0  0  0  0  0  0  0  0
    0.2350   57.3098   72.4275 H   0  0  0  0  0  0  0  0  0  0  0  0
    3.5880   57.7425   75.1202 H   0  0  0  0  0  0  0  0  0  0  0  0
    1.2076   52.1584   75.9985 H   0  0  0  0  0  0  0  0  0  0  0  0
    0.2318   52.6971   74.5899 H   0  0  0  0  0  0  0  0  0  0  0  0
    2.0131   52.9288   74.5899 H   0  0  0  0  0  0  0  0  0  0  0  0
   -1.1958   55.4968   72.7444 H   0  0  0  0  0  0  0  0  0  0  0  0
    3.8537   56.1323   76.7708 H   0  0  0  0  0  0  0  0  0  0  0  0
   -0.0562   65.0465   71.6357 H   0  0  0  0  0  0  0  0  0  0  0  0
    1.9493   57.5389   71.0149 H   0  0  0  0  0  0  0  0  0  0  0  0
    4.9267   62.1817   70.2921 H   0  0  0  0  0  0  0  0  0  0  0  0
    2.4820   65.6252   71.3874 H   0  0  0  0  0  0  0  0  0  0  0  0
    3.1678   64.8726   69.8819 H   0  0  0  0  0  0  0  0  0  0  0  0
    0.3680   64.6827   69.4972 H   0  0  0  0  0  0  0  0  0  0  0  0
    1.9106   68.0471   70.5980 H   0  0  0  0  0  0  0  0  0  0  0  0
    2.7627   67.6860   69.0584 H   0  0  0  0  0  0  0  0  0  0  0  0
    1.3267   68.7651   69.0584 H   0  0  0  0  0  0  0  0  0  0  0  0
   -0.7755   66.0120   68.1295 H   0  0  0  0  0  0  0  0  0  0  0  0
   -1.0821   67.4825   69.1582 H   0  0  0  0  0  0  0  0  0  0  0  0
   -1.0728   68.1649   66.8444 H   0  0  0  0  0  0  0  0  0  0  0  0
    0.4313   68.7720   67.6483 H   0  0  0  0  0  0  0  0  0  0  0  0
    0.3501   66.2380   65.8705 H   0  0  0  0  0  0  0  0  0  0  0  0
    3.2847   66.0503   65.2456 H   0  0  0  0  0  0  0  0  0  0  0  0
    1.9182   66.2432   64.0958 H   0  0  0  0  0  0  0  0  0  0  0  0
    3.2664   67.4302   64.0958 H   0  0  0  0  0  0  0  0  0  0  0  0
    2.6439   69.0166   67.1774 H   0  0  0  0  0  0  0  0  0  0  0  0
    3.6042   68.9136   65.6628 H   0  0  0  0  0  0  0  0  0  0  0  0
    2.0135   69.7482   65.6628 H   0  0  0  0  0  0  0  0  0  0  0  0
  2  1  1  0
  3  2  1  0
  4  3  2  0
  5  4  1  0
  6  5  2  0
  7  6  1  0
  8  7  2  0
  8  3  1  0
  9  8  1  0
 10  9  2  0
 11  9  1  0
 11  1  1  0
 13 12  2  0
 14 13  1  0
 15 14  2  0
 15  1  1  0
 16 15  1  0
 17 12  1  0
 17 16  2  0
 19 12  1  0
 19 18  1  0
 20 13  1  0
 21 17  1  0
 22  5  1  0
 23 11  1  0
 24  7  1  0
 25  6  1  0
 26 25  1  0
 27 26  2  0
 28 27  1  0
 29 27  1  0
 30 29  1  0
 31 30  1  0
 32 31  2  3
 33 32  1  0
 34 32  1  0
  1 35  1  1
  4 36  1  0
 11 37  1  1
 14 38  1  0
 16 39  1  0
 18 40  1  0
 18 41  1  0
 18 42  1  0
 20 43  1  0
 21 44  1  0
 22 45  1  0
 23 46  1  0
 24 47  1  0
 25 48  1  0
 25 49  1  0
 26 50  1  0
 28 51  1  0
 28 52  1  0
 28 53  1  0
 29 54  1  0
 29 55  1  0
 30 56  1  0
 30 57  1  0
 31 58  1  0
 33 59  1  0
 33 60  1  0
 33 61  1  0
 34 62  1  0
 34 63  1  0
 34 64  1  0
M  END
>  <score>  (6) 
-7.823

$$$$
=
     RDKit          3D

 64 66  0  0  0  0  0  0  0  0999 V2000
   -2.5000   59.7430   74.4140 C   0  0  2  0  0  0  0  0  0  0  0  0
   -1.6620   58.5820   74.5890 O   0  0  0  0  0  0  0  0  0  0  0  0
   -0.3870   58.7660   74.1180 C   0  0  0  0  0  0  0  0  0  0  0  0
    0.3130   57.6230   73.7550 C   0  0  0  0  0  0  0  0  0  0  0  0
    1.6110   57.7310   73.2560 C   0  0  0  0  0  0  0  0  0  0  0  0
    2.2570   58.9740   73.1400 C   0  0  0  0  0  0  0  0  0  0  0  0
    1.5350   60.1210   73.5200 C   0  0  0  0  0  0  0  0  0  0  0  0
    0.2260   60.0160   74.0150 C   0  0  0  0  0  0  0  0  0  0  0  0
   -0.5300   61.1990   74.4750 C   0  0  0  0  0  0  0  0  0  0  0  0
   -0.0510   62.3230   74.3300 O   0  0  0  0  0  0  0  0  0  0  0  0
   -1.8630   60.9320   75.1510 C   0  0  2  0  0  0  0  0  0  0  0  0
   -6.4960   58.4900   75.6510 C   0  0  0  0  0  0  0  0  0  0  0  0
   -6.3450   59.6150   74.8370 C   0  0  0  0  0  0  0  0  0  0  0  0
   -5.0680   60.0350   74.4280 C   0  0  0  0  0  0  0  0  0  0  0  0
   -3.9100   59.3460   74.8260 C   0  0  0  0  0  0  0  0  0  0  0  0
   -4.0670   58.2210   75.6480 C   0  0  0  0  0  0  0  0  0  0  0  0
   -5.3370   57.8110   76.0430 C   0  0  0  0  0  0  0  0  0  0  0  0
   -8.2910   58.5790   77.2310 C   0  0  0  0  0  0  0  0  0  0  0  0
   -7.6470   57.9310   76.1440 O   0  0  0  0  0  0  0  0  0  0  0  0
   -7.4260   60.3400   74.4150 O   0  0  0  0  0  0  0  0  0  0  0  0
   -5.4270   56.7010   76.8420 O   0  0  0  0  0  0  0  0  0  0  0  0
    2.2030   56.5550   72.8880 O   0  0  0  0  0  0  0  0  0  0  0  0
   -1.6440   60.6670   76.5400 O   0  0  0  0  0  0  0  0  0  0  0  0
    2.1560   61.3390   73.3980 O   0  0  0  0  0  0  0  0  0  0  0  0
    3.6830   59.0880   72.6400 C   0  0  0  0  0  0  0  0  0  0  0  0
    3.7500   59.5460   71.2070 C   0  0  0  0  0  0  0  0  0  0  0  0
    4.4230   60.5930   70.6860 C   0  0  0  0  0  0  0  0  0  0  0  0
    5.2840   61.5510   71.4650 C   0  0  0  0  0  0  0  0  0  0  0  0
    4.3520   60.8670   69.1910 C   0  0  0  0  0  0  0  0  0  0  0  0
    3.6230   62.1740   68.8630 C   0  0  0  0  0  0  0  0  0  0  0  0
    2.2870   62.2460   69.5550 C   0  0  0  0  0  0  0  0  0  0  0  0
    1.8200   63.2350   70.3400 C   0  0  0  0  0  0  0  0  0  0  0  0
    0.4350   63.1600   70.9280 C   0  0  0  0  0  0  0  0  0  0  0  0
    2.5870   64.4710   70.7220 C   0  0  0  0  0  0  0  0  0  0  0  0
   -2.5820   60.0917   73.3740 H   0  0  0  0  0  0  0  0  0  0  0  0
   -0.1556   56.6335   73.8609 H   0  0  0  0  0  0  0  0  0  0  0  0
   -2.5429   61.7952   75.1003 H   0  0  0  0  0  0  0  0  0  0  0  0
   -4.9730   60.9211   73.7832 H   0  0  0  0  0  0  0  0  0  0  0  0
   -3.1820   57.6597   75.9823 H   0  0  0  0  0  0  0  0  0  0  0  0
   -7.8976   58.1832   78.1790 H   0  0  0  0  0  0  0  0  0  0  0  0
   -8.1001   59.6610   77.1781 H   0  0  0  0  0  0  0  0  0  0  0  0
   -9.3742   58.3948   77.1781 H   0  0  0  0  0  0  0  0  0  0  0  0
   -7.2949   61.1340   73.8384 H   0  0  0  0  0  0  0  0  0  0  0  0
   -4.6058   56.2220   77.1182 H   0  0  0  0  0  0  0  0  0  0  0  0
    3.1242   56.5568   72.5253 H   0  0  0  0  0  0  0  0  0  0  0  0
   -2.1707   61.3043   77.0846 H   0  0  0  0  0  0  0  0  0  0  0  0
    1.6777   62.1665   73.6560 H   0  0  0  0  0  0  0  0  0  0  0  0
    4.2217   59.8123   73.2687 H   0  0  0  0  0  0  0  0  0  0  0  0
    4.1408   58.0894   72.6964 H   0  0  0  0  0  0  0  0  0  0  0  0
    3.1725   58.9462   70.4882 H   0  0  0  0  0  0  0  0  0  0  0  0
    5.1350   61.3852   72.5422 H   0  0  0  0  0  0  0  0  0  0  0  0
    6.3411   61.3836   71.2110 H   0  0  0  0  0  0  0  0  0  0  0  0
    5.0051   62.5843   71.2110 H   0  0  0  0  0  0  0  0  0  0  0  0
    5.3766   60.9267   68.7952 H   0  0  0  0  0  0  0  0  0  0  0  0
    3.7846   60.0454   68.7294 H   0  0  0  0  0  0  0  0  0  0  0  0
    4.2424   63.0216   69.1914 H   0  0  0  0  0  0  0  0  0  0  0  0
    3.4532   62.2128   67.7769 H   0  0  0  0  0  0  0  0  0  0  0  0
    1.6138   61.3898   69.4008 H   0  0  0  0  0  0  0  0  0  0  0  0
    0.5021   63.1636   72.0259 H   0  0  0  0  0  0  0  0  0  0  0  0
   -0.1528   64.0276   70.5937 H   0  0  0  0  0  0  0  0  0  0  0  0
   -0.0556   62.2340   70.5937 H   0  0  0  0  0  0  0  0  0  0  0  0
    2.6351   64.5485   71.8182 H   0  0  0  0  0  0  0  0  0  0  0  0
    3.6066   64.4107   70.3136 H   0  0  0  0  0  0  0  0  0  0  0  0
    2.0803   65.3578   70.3136 H   0  0  0  0  0  0  0  0  0  0  0  0
  2  1  1  0
  3  2  1  0
  4  3  2  0
  5  4  1  0
  6  5  2  0
  7  6  1  0
  8  7  2  0
  8  3  1  0
  9  8  1  0
 10  9  2  0
 11  9  1  0
 11  1  1  0
 13 12  2  0
 14 13  1  0
 15 14  2  0
 15  1  1  0
 16 15  1  0
 17 12  1  0
 17 16  2  0
 19 12  1  0
 19 18  1  0
 20 13  1  0
 21 17  1  0
 22  5  1  0
 23 11  1  0
 24  7  1  0
 25  6  1  0
 26 25  1  0
 27 26  2  0
 28 27  1  0
 29 27  1  0
 30 29  1  0
 31 30  1  0
 32 31  2  3
 33 32  1  0
 34 32  1  0
  1 35  1  6
  4 36  1  0
 11 37  1  1
 14 38  1  0
 16 39  1  0
 18 40  1  0
 18 41  1  0
 18 42  1  0
 20 43  1  0
 21 44  1  0
 22 45  1  0
 23 46  1  0
 24 47  1  0
 25 48  1  0
 25 49  1  0
 26 50  1  0
 28 51  1  0
 28 52  1  0
 28 53  1  0
 29 54  1  0
 29 55  1  0
 30 56  1  0
 30 57  1  0
 31 58  1  0
 33 59  1  0
 33 60  1  0
 33 61  1  0
 34 62  1  0
 34 63  1  0
 34 64  1  0
M  END
>  <score>  (7) 
-7.628

$$$$
=
     RDKit          3D

 64 66  0  0  0  0  0  0  0  0999 V2000
    1.1060   65.5320   70.3230 C   0  0  2  0  0  0  0  0  0  0  0  0
    2.0050   64.5970   69.6910 O   0  0  0  0  0  0  0  0  0  0  0  0
    2.5730   63.7170   70.5770 C   0  0  0  0  0  0  0  0  0  0  0  0
    3.7890   63.1570   70.2050 C   0  0  0  0  0  0  0  0  0  0  0  0
    4.4330   62.2630   71.0600 C   0  0  0  0  0  0  0  0  0  0  0  0
    3.8670   61.8760   72.2870 C   0  0  0  0  0  0  0  0  0  0  0  0
    2.6320   62.4470   72.6440 C   0  0  0  0  0  0  0  0  0  0  0  0
    1.9850   63.3530   71.7890 C   0  0  0  0  0  0  0  0  0  0  0  0
    0.6600   63.9200   72.1150 C   0  0  0  0  0  0  0  0  0  0  0  0
    0.1460   63.6810   73.2070 O   0  0  0  0  0  0  0  0  0  0  0  0
   -0.0100   64.7460   71.0310 C   0  0  2  0  0  0  0  0  0  0  0  0
   -0.2260   68.3440   67.2600 C   0  0  0  0  0  0  0  0  0  0  0  0
    1.0730   68.4360   67.7660 C   0  0  0  0  0  0  0  0  0  0  0  0
    1.5210   67.5410   68.7520 C   0  0  0  0  0  0  0  0  0  0  0  0
    0.6820   66.5350   69.2620 C   0  0  0  0  0  0  0  0  0  0  0  0
   -0.6230   66.4510   68.7550 C   0  0  0  0  0  0  0  0  0  0  0  0
   -1.0540   67.3400   67.7740 C   0  0  0  0  0  0  0  0  0  0  0  0
   -0.5960   68.8000   64.9400 C   0  0  0  0  0  0  0  0  0  0  0  0
   -0.8350   69.1150   66.3040 O   0  0  0  0  0  0  0  0  0  0  0  0
    1.9450   69.3930   67.3230 O   0  0  0  0  0  0  0  0  0  0  0  0
   -2.3380   67.2040   67.3140 O   0  0  0  0  0  0  0  0  0  0  0  0
    5.6430   61.7980   70.6260 O   0  0  0  0  0  0  0  0  0  0  0  0
   -0.7200   63.8770   70.1460 O   0  0  0  0  0  0  0  0  0  0  0  0
    2.0800   62.0810   73.8460 O   0  0  0  0  0  0  0  0  0  0  0  0
    4.5460   60.8700   73.1950 C   0  0  0  0  0  0  0  0  0  0  0  0
    3.5880   59.8260   73.7060 C   0  0  0  0  0  0  0  0  0  0  0  0
    3.0690   58.7650   73.0540 C   0  0  0  0  0  0  0  0  0  0  0  0
    3.3620   58.3910   71.6260 C   0  0  0  0  0  0  0  0  0  0  0  0
    2.1140   57.8280   73.7780 C   0  0  0  0  0  0  0  0  0  0  0  0
    1.2090   57.0470   72.8180 C   0  0  0  0  0  0  0  0  0  0  0  0
    0.1930   56.2270   73.5690 C   0  0  0  0  0  0  0  0  0  0  0  0
    0.3610   55.0070   74.1140 C   0  0  0  0  0  0  0  0  0  0  0  0
   -0.7600   54.3400   74.8670 C   0  0  0  0  0  0  0  0  0  0  0  0
    1.6210   54.1900   74.0320 C   0  0  0  0  0  0  0  0  0  0  0  0
    1.5609   66.1275   71.1283 H   0  0  0  0  0  0  0  0  0  0  0  0
    4.2430   63.4184   69.2377 H   0  0  0  0  0  0  0  0  0  0  0  0
   -0.7495   65.4532   71.4348 H   0  0  0  0  0  0  0  0  0  0  0  0
    2.5493   67.6293   69.1327 H   0  0  0  0  0  0  0  0  0  0  0  0
   -1.3091   65.6793   69.1341 H   0  0  0  0  0  0  0  0  0  0  0  0
    0.0678   67.9251   64.8766 H   0  0  0  0  0  0  0  0  0  0  0  0
   -1.5508   68.5726   64.4435 H   0  0  0  0  0  0  0  0  0  0  0  0
   -0.1198   69.6583   64.4435 H   0  0  0  0  0  0  0  0  0  0  0  0
    2.8608   69.4391   67.6962 H   0  0  0  0  0  0  0  0  0  0  0  0
   -2.9219   66.4929   67.6792 H   0  0  0  0  0  0  0  0  0  0  0  0
    6.1565   61.1599   71.1821 H   0  0  0  0  0  0  0  0  0  0  0  0
   -1.2496   63.2288   70.6745 H   0  0  0  0  0  0  0  0  0  0  0  0
    1.2118   62.4634   74.1289 H   0  0  0  0  0  0  0  0  0  0  0  0
    5.3478   60.3696   72.6321 H   0  0  0  0  0  0  0  0  0  0  0  0
    4.9455   61.4149   74.0630 H   0  0  0  0  0  0  0  0  0  0  0  0
    3.2684   59.9447   74.7518 H   0  0  0  0  0  0  0  0  0  0  0  0
    4.0403   57.5252   71.6055 H   0  0  0  0  0  0  0  0  0  0  0  0
    2.4229   58.1333   71.1144 H   0  0  0  0  0  0  0  0  0  0  0  0
    3.8370   59.2411   71.1144 H   0  0  0  0  0  0  0  0  0  0  0  0
    2.7041   57.1106   74.3671 H   0  0  0  0  0  0  0  0  0  0  0  0
    1.4656   58.4444   74.4180 H   0  0  0  0  0  0  0  0  0  0  0  0
    0.6829   57.7576   72.1635 H   0  0  0  0  0  0  0  0  0  0  0  0
    1.8371   56.3647   72.2264 H   0  0  0  0  0  0  0  0  0  0  0  0
   -0.8036   56.6777   73.6861 H   0  0  0  0  0  0  0  0  0  0  0  0
   -0.5873   54.4427   75.9485 H   0  0  0  0  0  0  0  0  0  0  0  0
   -1.7149   54.8169   74.6012 H   0  0  0  0  0  0  0  0  0  0  0  0
   -0.7964   53.2732   74.6012 H   0  0  0  0  0  0  0  0  0  0  0  0
    1.9756   53.9600   75.0476 H   0  0  0  0  0  0  0  0  0  0  0  0
    1.4158   53.2526   73.4942 H   0  0  0  0  0  0  0  0  0  0  0  0
    2.3931   54.7598   73.4942 H   0  0  0  0  0  0  0  0  0  0  0  0
  2  1  1  0
  3  2  1  0
  4  3  2  0
  5  4  1  0
  6  5  2  0
  7  6  1  0
  8  7  2  0
  8  3  1  0
  9  8  1  0
 10  9  2  0
 11  9  1  0
 11  1  1  0
 13 12  2  0
 14 13  1  0
 15 14  2  0
 15  1  1  0
 16 15  1  0
 17 12  1  0
 17 16  2  0
 19 12  1  0
 19 18  1  0
 20 13  1  0
 21 17  1  0
 22  5  1  0
 23 11  1  0
 24  7  1  0
 25  6  1  0
 26 25  1  0
 27 26  2  0
 28 27  1  0
 29 27  1  0
 30 29  1  0
 31 30  1  0
 32 31  2  3
 33 32  1  0
 34 32  1  0
  1 35  1  1
  4 36  1  0
 11 37  1  1
 14 38  1  0
 16 39  1  0
 18 40  1  0
 18 41  1  0
 18 42  1  0
 20 43  1  0
 21 44  1  0
 22 45  1  0
 23 46  1  0
 24 47  1  0
 25 48  1  0
 25 49  1  0
 26 50  1  0
 28 51  1  0
 28 52  1  0
 28 53  1  0
 29 54  1  0
 29 55  1  0
 30 56  1  0
 30 57  1  0
 31 58  1  0
 33 59  1  0
 33 60  1  0
 33 61  1  0
 34 62  1  0
 34 63  1  0
 34 64  1  0
M  END
>  <score>  (8) 
-7.533

$$$$
=
     RDKit          3D

 64 66  0  0  0  0  0  0  0  0999 V2000
   -2.3160   61.1390   74.8510 C   0  0  2  0  0  0  0  0  0  0  0  0
   -1.8960   59.7730   74.6590 O   0  0  0  0  0  0  0  0  0  0  0  0
   -0.5450   59.6510   74.4560 C   0  0  0  0  0  0  0  0  0  0  0  0
   -0.1190   58.5250   73.7630 C   0  0  0  0  0  0  0  0  0  0  0  0
    1.2390   58.3380   73.5080 C   0  0  0  0  0  0  0  0  0  0  0  0
    2.2090   59.2460   73.9670 C   0  0  0  0  0  0  0  0  0  0  0  0
    1.7600   60.3760   74.6750 C   0  0  0  0  0  0  0  0  0  0  0  0
    0.3930   60.5710   74.9250 C   0  0  0  0  0  0  0  0  0  0  0  0
   -0.0970   61.7190   75.7160 C   0  0  0  0  0  0  0  0  0  0  0  0
    0.6920   62.5890   76.0820 O   0  0  0  0  0  0  0  0  0  0  0  0
   -1.5750   61.7200   76.0670 C   0  0  2  0  0  0  0  0  0  0  0  0
   -6.6760   61.2530   75.0680 C   0  0  0  0  0  0  0  0  0  0  0  0
   -6.0400   60.1460   74.5010 C   0  0  0  0  0  0  0  0  0  0  0  0
   -4.6380   60.0900   74.4220 C   0  0  0  0  0  0  0  0  0  0  0  0
   -3.8360   61.1400   74.9010 C   0  0  0  0  0  0  0  0  0  0  0  0
   -4.4800   62.2520   75.4630 C   0  0  0  0  0  0  0  0  0  0  0  0
   -5.8690   62.2950   75.5410 C   0  0  0  0  0  0  0  0  0  0  0  0
   -8.7840   61.8180   74.0880 C   0  0  0  0  0  0  0  0  0  0  0  0
   -8.0170   61.4850   75.2360 O   0  0  0  0  0  0  0  0  0  0  0  0
   -6.7540   59.0890   74.0080 O   0  0  0  0  0  0  0  0  0  0  0  0
   -6.4400   63.4050   76.1060 O   0  0  0  0  0  0  0  0  0  0  0  0
    1.5570   57.2230   72.7830 O   0  0  0  0  0  0  0  0  0  0  0  0
   -1.7790   60.9520   77.2560 O   0  0  0  0  0  0  0  0  0  0  0  0
    2.7020   61.2720   75.1160 O   0  0  0  0  0  0  0  0  0  0  0  0
    3.6890   59.0200   73.7290 C   0  0  0  0  0  0  0  0  0  0  0  0
    4.2460   59.9470   72.6810 C   0  0  0  0  0  0  0  0  0  0  0  0
    4.1800   59.8410   71.3370 C   0  0  0  0  0  0  0  0  0  0  0  0
    3.4990   58.7300   70.5840 C   0  0  0  0  0  0  0  0  0  0  0  0
    4.8160   60.9110   70.4640 C   0  0  0  0  0  0  0  0  0  0  0  0
    4.9760   62.2510   71.1920 C   0  0  0  0  0  0  0  0  0  0  0  0
    4.0810   63.3070   70.5990 C   0  0  0  0  0  0  0  0  0  0  0  0
    2.8430   63.6550   71.0000 C   0  0  0  0  0  0  0  0  0  0  0  0
    2.0970   64.7680   70.3110 C   0  0  0  0  0  0  0  0  0  0  0  0
    2.0810   63.0020   72.1200 C   0  0  0  0  0  0  0  0  0  0  0  0
   -2.0461   61.8172   74.0280 H   0  0  0  0  0  0  0  0  0  0  0  0
   -0.8520   57.7819   73.4159 H   0  0  0  0  0  0  0  0  0  0  0  0
   -1.9592   62.7292   76.2768 H   0  0  0  0  0  0  0  0  0  0  0  0
   -4.1585   59.2061   73.9761 H   0  0  0  0  0  0  0  0  0  0  0  0
   -3.8842   63.0945   75.8441 H   0  0  0  0  0  0  0  0  0  0  0  0
   -9.7510   62.2378   74.4022 H   0  0  0  0  0  0  0  0  0  0  0  0
   -8.2399   62.5609   73.4863 H   0  0  0  0  0  0  0  0  0  0  0  0
   -8.9552   60.9132   73.4863 H   0  0  0  0  0  0  0  0  0  0  0  0
   -6.2818   58.3150   73.6105 H   0  0  0  0  0  0  0  0  0  0  0  0
   -5.8676   64.1406   76.4398 H   0  0  0  0  0  0  0  0  0  0  0  0
    2.5027   57.0275   72.5649 H   0  0  0  0  0  0  0  0  0  0  0  0
   -1.6268   61.5248   78.0490 H   0  0  0  0  0  0  0  0  0  0  0  0
    2.4217   62.0783   75.6175 H   0  0  0  0  0  0  0  0  0  0  0  0
    4.2289   59.1873   74.6727 H   0  0  0  0  0  0  0  0  0  0  0  0
    3.8191   57.9884   73.3701 H   0  0  0  0  0  0  0  0  0  0  0  0
    4.7790   60.8304   73.0626 H   0  0  0  0  0  0  0  0  0  0  0  0
    3.0619   58.0169   71.2985 H   0  0  0  0  0  0  0  0  0  0  0  0
    2.7029   59.1499   69.9516 H   0  0  0  0  0  0  0  0  0  0  0  0
    4.2344   58.2112   69.9516 H   0  0  0  0  0  0  0  0  0  0  0  0
    5.8098   60.5618   70.1472 H   0  0  0  0  0  0  0  0  0  0  0  0
    4.1501   61.0774   69.6044 H   0  0  0  0  0  0  0  0  0  0  0  0
    4.7165   62.1158   72.2524 H   0  0  0  0  0  0  0  0  0  0  0  0
    6.0198   62.5812   71.0854 H   0  0  0  0  0  0  0  0  0  0  0  0
    4.4855   63.8587   69.7376 H   0  0  0  0  0  0  0  0  0  0  0  0
    1.6514   65.4328   71.0656 H   0  0  0  0  0  0  0  0  0  0  0  0
    2.7935   65.3419   69.6822 H   0  0  0  0  0  0  0  0  0  0  0  0
    1.3014   64.3418   69.6822 H   0  0  0  0  0  0  0  0  0  0  0  0
    2.4817   63.3454   73.0851 H   0  0  0  0  0  0  0  0  0  0  0  0
    1.0175   63.2735   72.0471 H   0  0  0  0  0  0  0  0  0  0  0  0
    2.1864   61.9095   72.0471 H   0  0  0  0  0  0  0  0  0  0  0  0
  2  1  1  0
  3  2  1  0
  4  3  2  0
  5  4  1  0
  6  5  2  0
  7  6  1  0
  8  7  2  0
  8  3  1  0
  9  8  1  0
 10  9  2  0
 11  9  1  0
 11  1  1  0
 13 12  2  0
 14 13  1  0
 15 14  2  0
 15  1  1  0
 16 15  1  0
 17 12  1  0
 17 16  2  0
 19 12  1  0
 19 18  1  0
 20 13  1  0
 21 17  1  0
 22  5  1  0
 23 11  1  0
 24  7  1  0
 25  6  1  0
 26 25  1  0
 27 26  2  0
 28 27  1  0
 29 27  1  0
 30 29  1  0
 31 30  1  0
 32 31  2  3
 33 32  1  0
 34 32  1  0
  1 35  1  6
  4 36  1  0
 11 37  1  1
 14 38  1  0
 16 39  1  0
 18 40  1  0
 18 41  1  0
 18 42  1  0
 20 43  1  0
 21 44  1  0
 22 45  1  0
 23 46  1  0
 24 47  1  0
 25 48  1  0
 25 49  1  0
 26 50  1  0
 28 51  1  0
 28 52  1  0
 28 53  1  0
 29 54  1  0
 29 55  1  0
 30 56  1  0
 30 57  1  0
 31 58  1  0
 33 59  1  0
 33 60  1  0
 33 61  1  0
 34 62  1  0
 34 63  1  0
 34 64  1  0
M  END
>  <score>  (9) 
-7.35

$$$$
