=
     RDKit          3D

 31 31  0  0  0  0  0  0  0  0999 V2000
    1.2740   67.7770   66.5460 C   0  0  0  0  0  0  0  0  0  0  0  0
    1.8930   66.7150   66.4790 O   0  0  0  0  0  0  0  0  0  0  0  0
    1.7950   69.0530   66.5740 N   0  0  0  0  0  0  0  0  0  0  0  0
    3.1760   69.3780   66.4920 C   0  0  0  0  0  0  0  0  0  0  0  0
    3.7890   69.9010   67.6590 C   0  0  0  0  0  0  0  0  0  0  0  0
    3.0410   70.1120   68.9520 C   0  0  0  0  0  0  0  0  0  0  0  0
    5.1590   70.2130   67.6460 C   0  0  0  0  0  0  0  0  0  0  0  0
    5.9180   70.0240   66.5000 C   0  0  0  0  0  0  0  0  0  0  0  0
    5.3110   69.5530   65.3420 C   0  0  0  0  0  0  0  0  0  0  0  0
    3.9350   69.2580   65.3070 C   0  0  0  0  0  0  0  0  0  0  0  0
    3.3770   68.8840   63.9600 C   0  0  0  0  0  0  0  0  0  0  0  0
   -0.9020   69.0500   66.8460 C   0  0  0  0  0  0  0  0  0  0  0  0
   -0.2610   67.6920   66.6150 C   0  0  2  0  0  0  0  0  0  0  0  0
   -0.6410   66.7960   67.7660 N   0  0  0  0  0  4  0  0  0  0  0  0
    1.1294   69.8341   66.6614 H   0  0  0  0  0  0  0  0  0  0  0  0
    3.7147   69.9220   69.8005 H   0  0  0  0  0  0  0  0  0  0  0  0
    2.6753   71.1484   68.9991 H   0  0  0  0  0  0  0  0  0  0  0  0
    2.1876   69.4195   68.9991 H   0  0  0  0  0  0  0  0  0  0  0  0
    5.6349   70.6114   68.5542 H   0  0  0  0  0  0  0  0  0  0  0  0
    6.9953   70.2460   66.5080 H   0  0  0  0  0  0  0  0  0  0  0  0
    5.9172   69.4080   64.4356 H   0  0  0  0  0  0  0  0  0  0  0  0
    2.4701   68.2762   64.0947 H   0  0  0  0  0  0  0  0  0  0  0  0
    3.1265   69.7973   63.4005 H   0  0  0  0  0  0  0  0  0  0  0  0
    4.1266   68.3052   63.4005 H   0  0  0  0  0  0  0  0  0  0  0  0
   -0.9894   69.2351   67.9268 H   0  0  0  0  0  0  0  0  0  0  0  0
   -0.2781   69.8324   66.3892 H   0  0  0  0  0  0  0  0  0  0  0  0
   -1.9026   69.0656   66.3892 H   0  0  0  0  0  0  0  0  0  0  0  0
   -0.6188   67.2997   65.6516 H   0  0  0  0  0  0  0  0  0  0  0  0
   -0.4380   67.2746   68.6552 H   0  0  0  0  0  0  0  0  0  0  0  0
   -1.6466   66.5789   67.7147 H   0  0  0  0  0  0  0  0  0  0  0  0
   -0.0981   65.9222   67.7147 H   0  0  0  0  0  0  0  0  0  0  0  0
  2  1  2  0
  3  1  1  0
  4  3  1  0
  5  4  2  0
  6  5  1  0
  7  5  1  0
  8  7  2  0
  9  8  1  0
 10  9  2  0
 10  4  1  0
 11 10  1  0
 13 12  1  0
 13  1  1  0
 14 13  1  0
  3 15  1  0
  6 16  1  0
  6 17  1  0
  6 18  1  0
  7 19  1  0
  8 20  1  0
  9 21  1  0
 11 22  1  0
 11 23  1  0
 11 24  1  0
 12 25  1  0
 12 26  1  0
 12 27  1  0
 13 28  1  6
 14 29  1  0
 14 30  1  0
 14 31  1  0
M  CHG  1  14   1
M  END
>  <score>  (1) 
-8.201

$$$$
=
     RDKit          3D

 31 31  0  0  0  0  0  0  0  0999 V2000
    1.1310   67.8270   66.7450 C   0  0  0  0  0  0  0  0  0  0  0  0
    1.7270   66.8280   67.1490 O   0  0  0  0  0  0  0  0  0  0  0  0
    1.6720   69.0500   66.4120 N   0  0  0  0  0  0  0  0  0  0  0  0
    3.0560   69.3710   66.4420 C   0  0  0  0  0  0  0  0  0  0  0  0
    3.7950   69.1670   65.2490 C   0  0  0  0  0  0  0  0  0  0  0  0
    3.1720   68.6400   63.9800 C   0  0  0  0  0  0  0  0  0  0  0  0
    5.1610   69.4940   65.2110 C   0  0  0  0  0  0  0  0  0  0  0  0
    5.7990   70.0060   66.3320 C   0  0  0  0  0  0  0  0  0  0  0  0
    5.0880   70.1660   67.5150 C   0  0  0  0  0  0  0  0  0  0  0  0
    3.7260   69.8220   67.6020 C   0  0  0  0  0  0  0  0  0  0  0  0
    3.1080   69.9170   68.9710 C   0  0  0  0  0  0  0  0  0  0  0  0
   -1.0820   69.0700   66.7290 C   0  0  0  0  0  0  0  0  0  0  0  0
   -0.3970   67.7210   66.5950 C   0  0  2  0  0  0  0  0  0  0  0  0
   -0.9240   66.8200   67.6830 N   0  0  0  0  0  4  0  0  0  0  0  0
    1.0204   69.7914   66.1175 H   0  0  0  0  0  0  0  0  0  0  0  0
    2.3546   67.9486   64.2325 H   0  0  0  0  0  0  0  0  0  0  0  0
    2.7735   69.4793   63.3911 H   0  0  0  0  0  0  0  0  0  0  0  0
    3.9336   68.1079   63.3911 H   0  0  0  0  0  0  0  0  0  0  0  0
    5.7310   69.3425   64.2825 H   0  0  0  0  0  0  0  0  0  0  0  0
    6.8623   70.2838   66.2843 H   0  0  0  0  0  0  0  0  0  0  0  0
    5.5998   70.5695   68.4012 H   0  0  0  0  0  0  0  0  0  0  0  0
    3.8898   69.7968   69.7354 H   0  0  0  0  0  0  0  0  0  0  0  0
    2.6277   70.8995   69.0891 H   0  0  0  0  0  0  0  0  0  0  0  0
    2.3548   69.1241   69.0891 H   0  0  0  0  0  0  0  0  0  0  0  0
   -1.2059   69.3141   67.7944 H   0  0  0  0  0  0  0  0  0  0  0  0
   -0.4673   69.8431   66.2448 H   0  0  0  0  0  0  0  0  0  0  0  0
   -2.0689   69.0298   66.2448 H   0  0  0  0  0  0  0  0  0  0  0  0
   -0.6097   67.3235   65.5916 H   0  0  0  0  0  0  0  0  0  0  0  0
   -0.6902   67.2197   68.6030 H   0  0  0  0  0  0  0  0  0  0  0  0
   -1.9468   66.7370   67.5946 H   0  0  0  0  0  0  0  0  0  0  0  0
   -0.4950   65.8878   67.5946 H   0  0  0  0  0  0  0  0  0  0  0  0
  2  1  2  0
  3  1  1  0
  4  3  1  0
  5  4  2  0
  6  5  1  0
  7  5  1  0
  8  7  2  0
  9  8  1  0
 10  9  2  0
 10  4  1  0
 11 10  1  0
 13 12  1  0
 13  1  1  0
 14 13  1  0
  3 15  1  0
  6 16  1  0
  6 17  1  0
  6 18  1  0
  7 19  1  0
  8 20  1  0
  9 21  1  0
 11 22  1  0
 11 23  1  0
 11 24  1  0
 12 25  1  0
 12 26  1  0
 12 27  1  0
 13 28  1  6
 14 29  1  0
 14 30  1  0
 14 31  1  0
M  CHG  1  14   1
M  END
>  <score>  (2) 
-7.944

$$$$
=
     RDKit          3D

 31 31  0  0  0  0  0  0  0  0999 V2000
    1.6270   67.6750   66.1810 C   0  0  0  0  0  0  0  0  0  0  0  0
    2.0160   66.5380   65.9150 O   0  0  0  0  0  0  0  0  0  0  0  0
    2.1110   68.8660   65.6840 N   0  0  0  0  0  0  0  0  0  0  0  0
    3.1510   68.9920   64.7230 C   0  0  0  0  0  0  0  0  0  0  0  0
    4.4160   69.4330   65.1910 C   0  0  0  0  0  0  0  0  0  0  0  0
    4.6850   69.7580   66.6390 C   0  0  0  0  0  0  0  0  0  0  0  0
    5.4890   69.5490   64.2920 C   0  0  0  0  0  0  0  0  0  0  0  0
    5.3240   69.2460   62.9480 C   0  0  0  0  0  0  0  0  0  0  0  0
    4.0760   68.8560   62.4780 C   0  0  0  0  0  0  0  0  0  0  0  0
    2.9690   68.7570   63.3420 C   0  0  0  0  0  0  0  0  0  0  0  0
    1.6470   68.4560   62.6870 C   0  0  0  0  0  0  0  0  0  0  0  0
    0.8800   67.3850   68.5900 C   0  0  0  0  0  0  0  0  0  0  0  0
    0.4710   67.8060   67.1880 C   0  0  2  0  0  0  0  0  0  0  0  0
   -0.6560   66.9100   66.7430 N   0  0  0  0  0  4  0  0  0  0  0  0
    1.6849   69.7346   66.0373 H   0  0  0  0  0  0  0  0  0  0  0  0
    4.1155   69.0700   67.2811 H   0  0  0  0  0  0  0  0  0  0  0  0
    5.7597   69.6479   66.8460 H   0  0  0  0  0  0  0  0  0  0  0  0
    4.3759   70.7932   66.8460 H   0  0  0  0  0  0  0  0  0  0  0  0
    6.4710   69.8838   64.6575 H   0  0  0  0  0  0  0  0  0  0  0  0
    6.1776   69.3143   62.2576 H   0  0  0  0  0  0  0  0  0  0  0  0
    3.9506   68.6202   61.4109 H   0  0  0  0  0  0  0  0  0  0  0  0
    0.8852   68.2826   63.4613 H   0  0  0  0  0  0  0  0  0  0  0  0
    1.3456   69.3085   62.0606 H   0  0  0  0  0  0  0  0  0  0  0  0
    1.7444   67.5570   62.0606 H   0  0  0  0  0  0  0  0  0  0  0  0
    0.3121   67.9696   69.3287 H   0  0  0  0  0  0  0  0  0  0  0  0
    0.6678   66.3145   68.7280 H   0  0  0  0  0  0  0  0  0  0  0  0
    1.9562   67.5662   68.7280 H   0  0  0  0  0  0  0  0  0  0  0  0
    0.1698   68.8635   67.2182 H   0  0  0  0  0  0  0  0  0  0  0  0
   -1.1372   66.5274   67.5694 H   0  0  0  0  0  0  0  0  0  0  0  0
   -1.3239   67.4534   66.1777 H   0  0  0  0  0  0  0  0  0  0  0  0
   -0.2772   66.1368   66.1777 H   0  0  0  0  0  0  0  0  0  0  0  0
  2  1  2  0
  3  1  1  0
  4  3  1  0
  5  4  2  0
  6  5  1  0
  7  5  1  0
  8  7  2  0
  9  8  1  0
 10  9  2  0
 10  4  1  0
 11 10  1  0
 13 12  1  0
 13  1  1  0
 14 13  1  0
  3 15  1  0
  6 16  1  0
  6 17  1  0
  6 18  1  0
  7 19  1  0
  8 20  1  0
  9 21  1  0
 11 22  1  0
 11 23  1  0
 11 24  1  0
 12 25  1  0
 12 26  1  0
 12 27  1  0
 13 28  1  1
 14 29  1  0
 14 30  1  0
 14 31  1  0
M  CHG  1  14   1
M  END
>  <score>  (3) 
-7.819

$$$$
=
     RDKit          3D

 31 31  0  0  0  0  0  0  0  0999 V2000
    2.0260   67.9080   65.3920 C   0  0  0  0  0  0  0  0  0  0  0  0
    2.2820   66.9650   66.1400 O   0  0  0  0  0  0  0  0  0  0  0  0
    2.6540   69.1350   65.3420 N   0  0  0  0  0  0  0  0  0  0  0  0
    3.7620   69.5230   66.1440 C   0  0  0  0  0  0  0  0  0  0  0  0
    5.0420   69.5050   65.5330 C   0  0  0  0  0  0  0  0  0  0  0  0
    5.2570   69.1020   64.0960 C   0  0  0  0  0  0  0  0  0  0  0  0
    6.1700   69.9060   66.2680 C   0  0  0  0  0  0  0  0  0  0  0  0
    6.0480   70.3120   67.5890 C   0  0  0  0  0  0  0  0  0  0  0  0
    4.8020   70.2890   68.2040 C   0  0  0  0  0  0  0  0  0  0  0  0
    3.6520   69.8650   67.5100 C   0  0  0  0  0  0  0  0  0  0  0  0
    2.3920   69.7600   68.3250 C   0  0  0  0  0  0  0  0  0  0  0  0
    1.1610   68.3660   63.0500 C   0  0  0  0  0  0  0  0  0  0  0  0
    0.8700   67.7210   64.3940 C   0  0  2  0  0  0  0  0  0  0  0  0
   -0.3660   68.3680   64.9650 N   0  0  0  0  0  4  0  0  0  0  0  0
    2.2911   69.8257   64.6696 H   0  0  0  0  0  0  0  0  0  0  0  0
    5.7745   68.1320   64.0607 H   0  0  0  0  0  0  0  0  0  0  0  0
    4.2842   69.0173   63.5895 H   0  0  0  0  0  0  0  0  0  0  0  0
    5.8691   69.8628   63.5895 H   0  0  0  0  0  0  0  0  0  0  0  0
    7.1611   69.8980   65.7908 H   0  0  0  0  0  0  0  0  0  0  0  0
    6.9334   70.6506   68.1470 H   0  0  0  0  0  0  0  0  0  0  0  0
    4.7121   70.6080   69.2529 H   0  0  0  0  0  0  0  0  0  0  0  0
    2.6448   69.7811   69.3953 H   0  0  0  0  0  0  0  0  0  0  0  0
    1.7303   70.6061   68.0878 H   0  0  0  0  0  0  0  0  0  0  0  0
    1.8795   68.8160   68.0878 H   0  0  0  0  0  0  0  0  0  0  0  0
    1.6086   69.3582   63.2087 H   0  0  0  0  0  0  0  0  0  0  0  0
    1.8612   67.7341   62.4840 H   0  0  0  0  0  0  0  0  0  0  0  0
    0.2239   68.4728   62.4840 H   0  0  0  0  0  0  0  0  0  0  0  0
    0.7338   66.6409   64.2361 H   0  0  0  0  0  0  0  0  0  0  0  0
   -0.3216   68.3448   65.9938 H   0  0  0  0  0  0  0  0  0  0  0  0
   -0.4204   69.3457   64.6457 H   0  0  0  0  0  0  0  0  0  0  0  0
   -1.2005   67.8556   64.6457 H   0  0  0  0  0  0  0  0  0  0  0  0
  2  1  2  0
  3  1  1  0
  4  3  1  0
  5  4  2  0
  6  5  1  0
  7  5  1  0
  8  7  2  0
  9  8  1  0
 10  9  2  0
 10  4  1  0
 11 10  1  0
 13 12  1  0
 13  1  1  0
 14 13  1  0
  3 15  1  0
  6 16  1  0
  6 17  1  0
  6 18  1  0
  7 19  1  0
  8 20  1  0
  9 21  1  0
 11 22  1  0
 11 23  1  0
 11 24  1  0
 12 25  1  0
 12 26  1  0
 12 27  1  0
 13 28  1  6
 14 29  1  0
 14 30  1  0
 14 31  1  0
M  CHG  1  14   1
M  END
>  <score>  (4) 
-7.471

$$$$
=
     RDKit          3D

 31 31  0  0  0  0  0  0  0  0999 V2000
    4.4340   67.8350   63.9140 C   0  0  0  0  0  0  0  0  0  0  0  0
    4.2180   66.7210   64.3910 O   0  0  0  0  0  0  0  0  0  0  0  0
    4.1210   69.0600   64.4650 N   0  0  0  0  0  0  0  0  0  0  0  0
    3.5080   69.2570   65.7320 C   0  0  0  0  0  0  0  0  0  0  0  0
    4.3350   69.7180   66.7880 C   0  0  0  0  0  0  0  0  0  0  0  0
    5.8060   70.0040   66.6100 C   0  0  0  0  0  0  0  0  0  0  0  0
    3.7790   69.9580   68.0550 C   0  0  0  0  0  0  0  0  0  0  0  0
    2.4290   69.7400   68.2900 C   0  0  0  0  0  0  0  0  0  0  0  0
    1.6240   69.2470   67.2700 C   0  0  0  0  0  0  0  0  0  0  0  0
    2.1510   68.9650   65.9950 C   0  0  0  0  0  0  0  0  0  0  0  0
    1.2070   68.3110   65.0220 C   0  0  0  0  0  0  0  0  0  0  0  0
    5.5830   69.2950   62.1830 C   0  0  0  0  0  0  0  0  0  0  0  0
    5.1270   67.8900   62.5410 C   0  0  2  0  0  0  0  0  0  0  0  0
    4.1460   67.4370   61.4900 N   0  0  0  0  0  4  0  0  0  0  0  0
    4.3499   69.8996   63.9140 H   0  0  0  0  0  0  0  0  0  0  0  0
    6.2835   70.0968   67.5966 H   0  0  0  0  0  0  0  0  0  0  0  0
    6.2748   69.1802   66.0518 H   0  0  0  0  0  0  0  0  0  0  0  0
    5.9320   70.9435   66.0518 H   0  0  0  0  0  0  0  0  0  0  0  0
    4.4209   70.3229   68.8703 H   0  0  0  0  0  0  0  0  0  0  0  0
    1.9981   69.9563   69.2787 H   0  0  0  0  0  0  0  0  0  0  0  0
    0.5549   69.0738   67.4623 H   0  0  0  0  0  0  0  0  0  0  0  0
    0.4260   67.7699   65.5762 H   0  0  0  0  0  0  0  0  0  0  0  0
    0.7411   69.0809   64.3893 H   0  0  0  0  0  0  0  0  0  0  0  0
    1.7641   67.6043   64.3893 H   0  0  0  0  0  0  0  0  0  0  0  0
    5.7684   69.8663   63.1045 H   0  0  0  0  0  0  0  0  0  0  0  0
    6.5096   69.2405   61.5927 H   0  0  0  0  0  0  0  0  0  0  0  0
    4.8010   69.7950   61.5927 H   0  0  0  0  0  0  0  0  0  0  0  0
    6.0130   67.2396   62.5859 H   0  0  0  0  0  0  0  0  0  0  0  0
    3.3078   67.0500   61.9467 H   0  0  0  0  0  0  0  0  0  0  0  0
    3.8773   68.2393   60.9026 H   0  0  0  0  0  0  0  0  0  0  0  0
    4.5825   66.7122   60.9026 H   0  0  0  0  0  0  0  0  0  0  0  0
  2  1  2  0
  3  1  1  0
  4  3  1  0
  5  4  2  0
  6  5  1  0
  7  5  1  0
  8  7  2  0
  9  8  1  0
 10  9  2  0
 10  4  1  0
 11 10  1  0
 13 12  1  0
 13  1  1  0
 14 13  1  0
  3 15  1  0
  6 16  1  0
  6 17  1  0
  6 18  1  0
  7 19  1  0
  8 20  1  0
  9 21  1  0
 11 22  1  0
 11 23  1  0
 11 24  1  0
 12 25  1  0
 12 26  1  0
 12 27  1  0
 13 28  1  1
 14 29  1  0
 14 30  1  0
 14 31  1  0
M  CHG  1  14   1
M  END
>  <score>  (5) 
-7.258

$$$$
=
     RDKit          3D

 31 31  0  0  0  0  0  0  0  0999 V2000
    2.3010   67.7770   65.2490 C   0  0  0  0  0  0  0  0  0  0  0  0
    2.3940   66.8140   66.0100 O   0  0  0  0  0  0  0  0  0  0  0  0
    2.6720   69.0820   65.4960 N   0  0  0  0  0  0  0  0  0  0  0  0
    3.2760   69.5510   66.6940 C   0  0  0  0  0  0  0  0  0  0  0  0
    2.4250   69.7670   67.8070 C   0  0  0  0  0  0  0  0  0  0  0  0
    0.9380   69.5160   67.7620 C   0  0  0  0  0  0  0  0  0  0  0  0
    2.9700   70.2040   69.0260 C   0  0  0  0  0  0  0  0  0  0  0  0
    4.3330   70.4340   69.1520 C   0  0  0  0  0  0  0  0  0  0  0  0
    5.1630   70.2650   68.0510 C   0  0  0  0  0  0  0  0  0  0  0  0
    4.6510   69.8580   66.8040 C   0  0  0  0  0  0  0  0  0  0  0  0
    5.6310   69.8420   65.6630 C   0  0  0  0  0  0  0  0  0  0  0  0
    2.4400   68.2610   62.7610 C   0  0  0  0  0  0  0  0  0  0  0  0
    1.6970   67.5180   63.8580 C   0  0  2  0  0  0  0  0  0  0  0  0
    0.2680   67.9950   63.8590 N   0  0  0  0  0  4  0  0  0  0  0  0
    2.4973   69.7727   64.7521 H   0  0  0  0  0  0  0  0  0  0  0  0
    0.5461   69.4499   68.7877 H   0  0  0  0  0  0  0  0  0  0  0  0
    0.4424   70.3432   67.2327 H   0  0  0  0  0  0  0  0  0  0  0  0
    0.7413   68.5720   67.2327 H   0  0  0  0  0  0  0  0  0  0  0  0
    2.3091   70.3657   69.8903 H   0  0  0  0  0  0  0  0  0  0  0  0
    4.7537   70.7484   70.1185 H   0  0  0  0  0  0  0  0  0  0  0  0
    6.2418   70.4529   68.1554 H   0  0  0  0  0  0  0  0  0  0  0  0
    6.6565   69.8253   66.0606 H   0  0  0  0  0  0  0  0  0  0  0  0
    5.4619   68.9465   65.0470 H   0  0  0  0  0  0  0  0  0  0  0  0
    5.4913   70.7425   65.0470 H   0  0  0  0  0  0  0  0  0  0  0  0
    3.1489   68.9699   63.2136 H   0  0  0  0  0  0  0  0  0  0  0  0
    2.9896   67.5405   62.1375 H   0  0  0  0  0  0  0  0  0  0  0  0
    1.7195   68.8106   62.1375 H   0  0  0  0  0  0  0  0  0  0  0  0
    1.7710   66.4393   63.6557 H   0  0  0  0  0  0  0  0  0  0  0  0
   -0.0571   68.1035   64.8303 H   0  0  0  0  0  0  0  0  0  0  0  0
    0.2083   68.9015   63.3737 H   0  0  0  0  0  0  0  0  0  0  0  0
   -0.3243   67.3061   63.3737 H   0  0  0  0  0  0  0  0  0  0  0  0
  2  1  2  0
  3  1  1  0
  4  3  1  0
  5  4  2  0
  6  5  1  0
  7  5  1  0
  8  7  2  0
  9  8  1  0
 10  9  2  0
 10  4  1  0
 11 10  1  0
 13 12  1  0
 13  1  1  0
 14 13  1  0
  3 15  1  0
  6 16  1  0
  6 17  1  0
  6 18  1  0
  7 19  1  0
  8 20  1  0
  9 21  1  0
 11 22  1  0
 11 23  1  0
 11 24  1  0
 12 25  1  0
 12 26  1  0
 12 27  1  0
 13 28  1  6
 14 29  1  0
 14 30  1  0
 14 31  1  0
M  CHG  1  14   1
M  END
>  <score>  (6) 
-7.214

$$$$
=
     RDKit          3D

 31 31  0  0  0  0  0  0  0  0999 V2000
    4.2960   67.9850   64.0720 C   0  0  0  0  0  0  0  0  0  0  0  0
    4.3160   66.8940   64.6400 O   0  0  0  0  0  0  0  0  0  0  0  0
    4.0370   69.2180   64.6300 N   0  0  0  0  0  0  0  0  0  0  0  0
    3.7740   69.4570   66.0070 C   0  0  0  0  0  0  0  0  0  0  0  0
    2.4620   69.1850   66.4720 C   0  0  0  0  0  0  0  0  0  0  0  0
    1.3680   68.6580   65.5770 C   0  0  0  0  0  0  0  0  0  0  0  0
    2.1510   69.3750   67.8290 C   0  0  0  0  0  0  0  0  0  0  0  0
    3.1110   69.8350   68.7190 C   0  0  0  0  0  0  0  0  0  0  0  0
    4.3850   70.1440   68.2580 C   0  0  0  0  0  0  0  0  0  0  0  0
    4.7260   69.9960   66.9000 C   0  0  0  0  0  0  0  0  0  0  0  0
    6.0920   70.4910   66.5060 C   0  0  0  0  0  0  0  0  0  0  0  0
    3.4310   68.5730   61.7590 C   0  0  0  0  0  0  0  0  0  0  0  0
    4.5850   67.9960   62.5600 C   0  0  2  0  0  0  0  0  0  0  0  0
    4.8060   66.5770   62.1040 N   0  0  0  0  0  4  0  0  0  0  0  0
    4.0336   70.0321   63.9990 H   0  0  0  0  0  0  0  0  0  0  0  0
    0.5477   68.2629   66.1943 H   0  0  0  0  0  0  0  0  0  0  0  0
    0.9895   69.4726   64.9420 H   0  0  0  0  0  0  0  0  0  0  0  0
    1.7690   67.8543   64.9420 H   0  0  0  0  0  0  0  0  0  0  0  0
    1.1351   69.1566   68.1898 H   0  0  0  0  0  0  0  0  0  0  0  0
    2.8648   69.9545   69.7844 H   0  0  0  0  0  0  0  0  0  0  0  0
    5.1413   70.5111   68.9674 H   0  0  0  0  0  0  0  0  0  0  0  0
    6.6799   70.7040   67.4110 H   0  0  0  0  0  0  0  0  0  0  0  0
    6.6031   69.7209   65.9096 H   0  0  0  0  0  0  0  0  0  0  0  0
    5.9911   71.4097   65.9096 H   0  0  0  0  0  0  0  0  0  0  0  0
    2.6631   68.9569   62.4467 H   0  0  0  0  0  0  0  0  0  0  0  0
    3.7987   69.3933   61.1251 H   0  0  0  0  0  0  0  0  0  0  0  0
    2.9953   67.7867   61.1251 H   0  0  0  0  0  0  0  0  0  0  0  0
    5.4712   68.6255   62.3917 H   0  0  0  0  0  0  0  0  0  0  0  0
    4.9016   65.9633   62.9257 H   0  0  0  0  0  0  0  0  0  0  0  0
    4.0028   66.2694   61.5373 H   0  0  0  0  0  0  0  0  0  0  0  0
    5.6647   66.5283   61.5373 H   0  0  0  0  0  0  0  0  0  0  0  0
  2  1  2  0
  3  1  1  0
  4  3  1  0
  5  4  2  0
  6  5  1  0
  7  5  1  0
  8  7  2  0
  9  8  1  0
 10  9  2  0
 10  4  1  0
 11 10  1  0
 13 12  1  0
 13  1  1  0
 14 13  1  0
  3 15  1  0
  6 16  1  0
  6 17  1  0
  6 18  1  0
  7 19  1  0
  8 20  1  0
  9 21  1  0
 11 22  1  0
 11 23  1  0
 11 24  1  0
 12 25  1  0
 12 26  1  0
 12 27  1  0
 13 28  1  1
 14 29  1  0
 14 30  1  0
 14 31  1  0
M  CHG  1  14   1
M  END
>  <score>  (7) 
-7.089

$$$$
=
     RDKit          3D

 31 31  0  0  0  0  0  0  0  0999 V2000
    0.3310   68.5890   65.7130 C   0  0  0  0  0  0  0  0  0  0  0  0
    1.2590   69.0830   66.3530 O   0  0  0  0  0  0  0  0  0  0  0  0
    0.3710   68.0810   64.4320 N   0  0  0  0  0  0  0  0  0  0  0  0
    1.5320   68.0030   63.6160 C   0  0  0  0  0  0  0  0  0  0  0  0
    1.5390   68.7730   62.4240 C   0  0  0  0  0  0  0  0  0  0  0  0
    0.3850   69.6520   62.0100 C   0  0  0  0  0  0  0  0  0  0  0  0
    2.6710   68.7580   61.5920 C   0  0  0  0  0  0  0  0  0  0  0  0
    3.7810   67.9910   61.9180 C   0  0  0  0  0  0  0  0  0  0  0  0
    3.7600   67.2030   63.0620 C   0  0  0  0  0  0  0  0  0  0  0  0
    2.6330   67.1670   63.9050 C   0  0  0  0  0  0  0  0  0  0  0  0
    2.6870   66.1740   65.0350 C   0  0  0  0  0  0  0  0  0  0  0  0
   -1.3100   67.1760   67.0380 C   0  0  0  0  0  0  0  0  0  0  0  0
   -1.0440   68.5290   66.4000 C   0  0  2  0  0  0  0  0  0  0  0  0
   -2.1110   68.7720   65.3630 N   0  0  0  0  0  4  0  0  0  0  0  0
   -0.5117   67.7296   64.0342 H   0  0  0  0  0  0  0  0  0  0  0  0
   -0.1219   70.0381   62.9066 H   0  0  0  0  0  0  0  0  0  0  0  0
    0.7619   70.4939   61.4107 H   0  0  0  0  0  0  0  0  0  0  0  0
   -0.3265   69.0649   61.4107 H   0  0  0  0  0  0  0  0  0  0  0  0
    2.6777   69.3608   60.6719 H   0  0  0  0  0  0  0  0  0  0  0  0
    4.6726   68.0070   61.2739 H   0  0  0  0  0  0  0  0  0  0  0  0
    4.6414   66.5951   63.3141 H   0  0  0  0  0  0  0  0  0  0  0  0
    2.6579   66.7095   65.9954 H   0  0  0  0  0  0  0  0  0  0  0  0
    1.8245   65.4947   64.9677 H   0  0  0  0  0  0  0  0  0  0  0  0
    3.6181   65.5922   64.9677 H   0  0  0  0  0  0  0  0  0  0  0  0
   -1.2902   67.2768   68.1332 H   0  0  0  0  0  0  0  0  0  0  0  0
   -2.2975   66.8091   66.7214 H   0  0  0  0  0  0  0  0  0  0  0  0
   -0.5349   66.4626   66.7214 H   0  0  0  0  0  0  0  0  0  0  0  0
   -1.0562   69.2933   67.1911 H   0  0  0  0  0  0  0  0  0  0  0  0
   -3.0053   68.9757   65.8317 H   0  0  0  0  0  0  0  0  0  0  0  0
   -1.8416   69.5732   64.7744 H   0  0  0  0  0  0  0  0  0  0  0  0
   -2.2151   67.9332   64.7744 H   0  0  0  0  0  0  0  0  0  0  0  0
  2  1  2  0
  3  1  1  0
  4  3  1  0
  5  4  2  0
  6  5  1  0
  7  5  1  0
  8  7  2  0
  9  8  1  0
 10  9  2  0
 10  4  1  0
 11 10  1  0
 13 12  1  0
 13  1  1  0
 14 13  1  0
  3 15  1  0
  6 16  1  0
  6 17  1  0
  6 18  1  0
  7 19  1  0
  8 20  1  0
  9 21  1  0
 11 22  1  0
 11 23  1  0
 11 24  1  0
 12 25  1  0
 12 26  1  0
 12 27  1  0
 13 28  1  1
 14 29  1  0
 14 30  1  0
 14 31  1  0
M  CHG  1  14   1
M  END
>  <score>  (8) 
-6.627

$$$$
=
     RDKit          3D

 31 31  0  0  0  0  0  0  0  0999 V2000
    3.4960   60.6970   72.3140 C   0  0  0  0  0  0  0  0  0  0  0  0
    3.8090   61.3640   73.3000 O   0  0  0  0  0  0  0  0  0  0  0  0
    2.6700   61.0710   71.2750 N   0  0  0  0  0  0  0  0  0  0  0  0
    2.0450   62.3410   71.1390 C   0  0  0  0  0  0  0  0  0  0  0  0
    2.8030   63.3740   70.5290 C   0  0  0  0  0  0  0  0  0  0  0  0
    4.2110   63.1690   70.0280 C   0  0  0  0  0  0  0  0  0  0  0  0
    2.2280   64.6420   70.3430 C   0  0  0  0  0  0  0  0  0  0  0  0
    0.9290   64.9000   70.7570 C   0  0  0  0  0  0  0  0  0  0  0  0
    0.2000   63.9040   71.3940 C   0  0  0  0  0  0  0  0  0  0  0  0
    0.7510   62.6290   71.6270 C   0  0  0  0  0  0  0  0  0  0  0  0
   -0.0910   61.6860   72.4430 C   0  0  0  0  0  0  0  0  0  0  0  0
    3.4490   58.4780   71.0820 C   0  0  0  0  0  0  0  0  0  0  0  0
    4.0760   59.2760   72.2120 C   0  0  2  0  0  0  0  0  0  0  0  0
    3.7990   58.5510   73.5040 N   0  0  0  0  0  4  0  0  0  0  0  0
    2.4913   60.3741   70.5379 H   0  0  0  0  0  0  0  0  0  0  0  0
    4.8941   63.0695   70.8844 H   0  0  0  0  0  0  0  0  0  0  0  0
    4.2534   62.2552   69.4171 H   0  0  0  0  0  0  0  0  0  0  0  0
    4.5122   64.0328   69.4171 H   0  0  0  0  0  0  0  0  0  0  0  0
    2.8143   65.4397   69.8636 H   0  0  0  0  0  0  0  0  0  0  0  0
    0.4789   65.8882   70.5816 H   0  0  0  0  0  0  0  0  0  0  0  0
   -0.8282   64.1152   71.7230 H   0  0  0  0  0  0  0  0  0  0  0  0
    0.0784   61.8757   73.5132 H   0  0  0  0  0  0  0  0  0  0  0  0
   -1.1534   61.8446   72.2062 H   0  0  0  0  0  0  0  0  0  0  0  0
    0.1865   60.6483   72.2062 H   0  0  0  0  0  0  0  0  0  0  0  0
    2.8209   57.6786   71.5022 H   0  0  0  0  0  0  0  0  0  0  0  0
    2.8298   59.1436   70.4627 H   0  0  0  0  0  0  0  0  0  0  0  0
    4.2422   58.0338   70.4627 H   0  0  0  0  0  0  0  0  0  0  0  0
    5.1540   59.3675   72.0132 H   0  0  0  0  0  0  0  0  0  0  0  0
    4.0330   59.1635   74.2984 H   0  0  0  0  0  0  0  0  0  0  0  0
    2.8017   58.2972   73.5483 H   0  0  0  0  0  0  0  0  0  0  0  0
    4.3730   57.6969   73.5483 H   0  0  0  0  0  0  0  0  0  0  0  0
  2  1  2  0
  3  1  1  0
  4  3  1  0
  5  4  2  0
  6  5  1  0
  7  5  1  0
  8  7  2  0
  9  8  1  0
 10  9  2  0
 10  4  1  0
 11 10  1  0
 13 12  1  0
 13  1  1  0
 14 13  1  0
  3 15  1  0
  6 16  1  0
  6 17  1  0
  6 18  1  0
  7 19  1  0
  8 20  1  0
  9 21  1  0
 11 22  1  0
 11 23  1  0
 11 24  1  0
 12 25  1  0
 12 26  1  0
 12 27  1  0
 13 28  1  6
 14 29  1  0
 14 30  1  0
 14 31  1  0
M  CHG  1  14   1
M  END
>  <score>  (9) 
-6.435

$$$$
