=
     RDKit          3D

 55 58  0  0  0  0  0  0  0  0999 V2000
    2.8440   61.6860   73.3740 C   0  0  0  0  0  0  0  0  0  0  0  0
    1.7640   62.5710   73.3970 C   0  0  0  0  0  0  0  0  0  0  0  0
    1.5500   63.3490   72.2730 C   0  0  0  0  0  0  0  0  0  0  0  0
    2.3500   63.2910   71.1440 C   0  0  0  0  0  0  0  0  0  0  0  0
    3.4290   62.4210   71.1080 C   0  0  0  0  0  0  0  0  0  0  0  0
    3.6810   61.6090   72.2260 C   0  0  0  0  0  0  0  0  0  0  0  0
    1.9220   64.2610   70.0900 C   0  0  0  0  0  0  0  0  0  0  0  0
    0.5950   64.8590   70.6210 C   0  0  1  0  0  0  0  0  0  0  0  0
    0.5000   64.3320   72.0450 C   0  0  0  0  0  0  0  0  0  0  0  0
   -0.3240   64.6370   72.8870 O   0  0  0  0  0  0  0  0  0  0  0  0
    2.3310   59.7370   74.6630 C   0  0  0  0  0  0  0  0  0  0  0  0
    3.1790   60.8500   74.4120 O   0  0  0  0  0  0  0  0  0  0  0  0
    4.7160   60.7090   72.3050 O   0  0  0  0  0  0  0  0  0  0  0  0
    5.8140   60.8760   71.4210 C   0  0  0  0  0  0  0  0  0  0  0  0
    0.5960   66.3890   70.5580 C   0  0  0  0  0  0  0  0  0  0  0  0
    0.2990   66.9340   69.1780 C   0  0  0  0  0  0  0  0  0  0  0  0
   -0.8790   66.5710   68.5170 C   0  0  0  0  0  0  0  0  0  0  0  0
   -1.1420   67.0350   67.2300 C   0  0  0  0  0  0  0  0  0  0  0  0
   -0.2350   67.8770   66.5920 C   0  0  0  0  0  0  0  0  0  0  0  0
    0.9460   68.2750   67.2370 C   0  0  0  0  0  0  0  0  0  0  0  0
    1.2070   67.7840   68.5290 C   0  0  0  0  0  0  0  0  0  0  0  0
    1.9180   69.1920   66.5430 C   0  0  0  0  0  0  0  0  0  0  0  0
    3.3360   69.1920   67.0560 N   0  0  0  0  0  4  0  0  0  0  0  0
    4.4150   69.5150   66.0500 C   0  0  0  0  0  0  0  0  0  0  0  0
    5.5770   69.9330   66.9260 C   0  0  0  0  0  0  0  0  0  0  0  0
    4.8970   70.7710   67.9890 C   0  0  0  0  0  0  0  0  0  0  0  0
    3.6120   70.0200   68.2940 C   0  0  0  0  0  0  0  0  0  0  0  0
    1.1075   62.6468   74.2764 H   0  0  0  0  0  0  0  0  0  0  0  0
    4.0759   62.3677   70.2200 H   0  0  0  0  0  0  0  0  0  0  0  0
    2.6776   65.0495   69.9587 H   0  0  0  0  0  0  0  0  0  0  0  0
    1.7985   63.7808   69.1081 H   0  0  0  0  0  0  0  0  0  0  0  0
   -0.2759   64.5666   70.0159 H   0  0  0  0  0  0  0  0  0  0  0  0
    2.2233   59.5956   75.7485 H   0  0  0  0  0  0  0  0  0  0  0  0
    1.3424   59.9214   74.2173 H   0  0  0  0  0  0  0  0  0  0  0  0
    2.7712   58.8328   74.2173 H   0  0  0  0  0  0  0  0  0  0  0  0
    6.7361   61.0163   72.0041 H   0  0  0  0  0  0  0  0  0  0  0  0
    5.9134   59.9826   70.7869 H   0  0  0  0  0  0  0  0  0  0  0  0
    5.6433   61.7585   70.7869 H   0  0  0  0  0  0  0  0  0  0  0  0
   -0.1674   66.7671   71.2539 H   0  0  0  0  0  0  0  0  0  0  0  0
    1.6081   66.7244   70.8286 H   0  0  0  0  0  0  0  0  0  0  0  0
   -1.6044   65.9131   69.0180 H   0  0  0  0  0  0  0  0  0  0  0  0
   -2.0678   66.7356   66.7169 H   0  0  0  0  0  0  0  0  0  0  0  0
   -0.4461   68.2335   65.5730 H   0  0  0  0  0  0  0  0  0  0  0  0
    2.1384   68.0712   69.0389 H   0  0  0  0  0  0  0  0  0  0  0  0
    1.9478   68.9040   65.4818 H   0  0  0  0  0  0  0  0  0  0  0  0
    1.5423   70.2081   66.7339 H   0  0  0  0  0  0  0  0  0  0  0  0
    3.3933   68.1940   67.3041 H   0  0  0  0  0  0  0  0  0  0  0  0
    4.6714   68.6316   65.4468 H   0  0  0  0  0  0  0  0  0  0  0  0
    4.1171   70.2866   65.3248 H   0  0  0  0  0  0  0  0  0  0  0  0
    6.0771   69.0586   67.3680 H   0  0  0  0  0  0  0  0  0  0  0  0
    6.3674   70.4702   66.3813 H   0  0  0  0  0  0  0  0  0  0  0  0
    5.5269   70.8465   68.8876 H   0  0  0  0  0  0  0  0  0  0  0  0
    4.7118   71.8029   67.6559 H   0  0  0  0  0  0  0  0  0  0  0  0
    3.7434   69.3703   69.1718 H   0  0  0  0  0  0  0  0  0  0  0  0
    2.7812   70.7022   68.5274 H   0  0  0  0  0  0  0  0  0  0  0  0
  2  1  2  0
  3  2  1  0
  4  3  2  0
  5  4  1  0
  6  5  2  0
  6  1  1  0
  7  4  1  0
  8  7  1  0
  9  8  1  0
  9  3  1  0
 10  9  2  0
 12 11  1  0
 12  1  1  0
 13  6  1  0
 14 13  1  0
 15  8  1  0
 16 15  1  0
 17 16  2  0
 18 17  1  0
 19 18  2  0
 20 19  1  0
 21 20  2  0
 21 16  1  0
 22 20  1  0
 23 22  1  0
 24 23  1  0
 25 24  1  0
 26 25  1  0
 27 26  1  0
 27 23  1  0
  2 28  1  0
  5 29  1  0
  7 30  1  0
  7 31  1  0
  8 32  1  6
 11 33  1  0
 11 34  1  0
 11 35  1  0
 14 36  1  0
 14 37  1  0
 14 38  1  0
 15 39  1  0
 15 40  1  0
 17 41  1  0
 18 42  1  0
 19 43  1  0
 21 44  1  0
 22 45  1  0
 22 46  1  0
 23 47  1  0
 24 48  1  0
 24 49  1  0
 25 50  1  0
 25 51  1  0
 26 52  1  0
 26 53  1  0
 27 54  1  0
 27 55  1  0
M  CHG  1  23   1
M  END
>  <score>  (1) 
-9.985

$$$$
=
     RDKit          3D

 55 58  0  0  0  0  0  0  0  0999 V2000
    2.9130   61.6490   73.3530 C   0  0  0  0  0  0  0  0  0  0  0  0
    1.8070   62.5030   73.3330 C   0  0  0  0  0  0  0  0  0  0  0  0
    1.6270   63.2920   72.2110 C   0  0  0  0  0  0  0  0  0  0  0  0
    2.4840   63.2740   71.1240 C   0  0  0  0  0  0  0  0  0  0  0  0
    3.5890   62.4370   71.1300 C   0  0  0  0  0  0  0  0  0  0  0  0
    3.8080   61.6140   72.2470 C   0  0  0  0  0  0  0  0  0  0  0  0
    2.0820   64.2480   70.0630 C   0  0  0  0  0  0  0  0  0  0  0  0
    0.7130   64.7990   70.5340 C   0  0  1  0  0  0  0  0  0  0  0  0
    0.5610   64.2480   71.9430 C   0  0  0  0  0  0  0  0  0  0  0  0
   -0.3130   64.5150   72.7470 O   0  0  0  0  0  0  0  0  0  0  0  0
    2.2250   59.8760   74.8040 C   0  0  0  0  0  0  0  0  0  0  0  0
    3.2190   60.8070   74.3940 O   0  0  0  0  0  0  0  0  0  0  0  0
    4.8640   60.7430   72.3660 O   0  0  0  0  0  0  0  0  0  0  0  0
    5.8800   60.7870   71.3750 C   0  0  0  0  0  0  0  0  0  0  0  0
    0.6720   66.3300   70.4930 C   0  0  0  0  0  0  0  0  0  0  0  0
    0.2640   66.8850   69.1450 C   0  0  0  0  0  0  0  0  0  0  0  0
   -0.9740   66.5430   68.5900 C   0  0  0  0  0  0  0  0  0  0  0  0
   -1.3410   67.0160   67.3330 C   0  0  0  0  0  0  0  0  0  0  0  0
   -0.4790   67.8450   66.6180 C   0  0  0  0  0  0  0  0  0  0  0  0
    0.7610   68.2220   67.1580 C   0  0  0  0  0  0  0  0  0  0  0  0
    1.1260   67.7220   68.4210 C   0  0  0  0  0  0  0  0  0  0  0  0
    1.6830   69.1240   66.3830 C   0  0  0  0  0  0  0  0  0  0  0  0
    3.0130   68.5450   65.9730 N   0  0  0  0  0  4  0  0  0  0  0  0
    3.0580   67.8440   64.6360 C   0  0  0  0  0  0  0  0  0  0  0  0
    4.5340   67.8510   64.3010 C   0  0  0  0  0  0  0  0  0  0  0  0
    4.9570   69.2410   64.7330 C   0  0  0  0  0  0  0  0  0  0  0  0
    4.2080   69.4740   66.0340 C   0  0  0  0  0  0  0  0  0  0  0  0
    1.1050   62.5463   74.1788 H   0  0  0  0  0  0  0  0  0  0  0  0
    4.2816   62.4177   70.2757 H   0  0  0  0  0  0  0  0  0  0  0  0
    2.8198   65.0598   69.9819 H   0  0  0  0  0  0  0  0  0  0  0  0
    2.0229   63.7802   69.0692 H   0  0  0  0  0  0  0  0  0  0  0  0
   -0.1168   64.4908   69.8809 H   0  0  0  0  0  0  0  0  0  0  0  0
    2.1869   59.8404   75.9028 H   0  0  0  0  0  0  0  0  0  0  0  0
    1.2457   60.1893   74.4132 H   0  0  0  0  0  0  0  0  0  0  0  0
    2.4736   58.8783   74.4132 H   0  0  0  0  0  0  0  0  0  0  0  0
    6.8655   60.8297   71.8619 H   0  0  0  0  0  0  0  0  0  0  0  0
    5.8197   59.8854   70.7477 H   0  0  0  0  0  0  0  0  0  0  0  0
    5.7419   61.6800   70.7477 H   0  0  0  0  0  0  0  0  0  0  0  0
   -0.0489   66.6797   71.2467 H   0  0  0  0  0  0  0  0  0  0  0  0
    1.6923   66.6875   70.6959 H   0  0  0  0  0  0  0  0  0  0  0  0
   -1.6631   65.8950   69.1515 H   0  0  0  0  0  0  0  0  0  0  0  0
   -2.3137   66.7346   66.9033 H   0  0  0  0  0  0  0  0  0  0  0  0
   -0.7726   68.2073   65.6217 H   0  0  0  0  0  0  0  0  0  0  0  0
    2.1032   67.9917   68.8479 H   0  0  0  0  0  0  0  0  0  0  0  0
    1.1567   69.4303   65.4670 H   0  0  0  0  0  0  0  0  0  0  0  0
    1.9268   69.9468   67.0712 H   0  0  0  0  0  0  0  0  0  0  0  0
    3.0965   67.8456   66.7245 H   0  0  0  0  0  0  0  0  0  0  0  0
    2.6748   66.8159   64.7149 H   0  0  0  0  0  0  0  0  0  0  0  0
    2.4359   68.3293   63.8695 H   0  0  0  0  0  0  0  0  0  0  0  0
    5.0742   67.0768   64.8655 H   0  0  0  0  0  0  0  0  0  0  0  0
    4.7466   67.6347   63.2436 H   0  0  0  0  0  0  0  0  0  0  0  0
    6.0440   69.2845   64.8960 H   0  0  0  0  0  0  0  0  0  0  0  0
    4.7292   70.0043   63.9744 H   0  0  0  0  0  0  0  0  0  0  0  0
    4.8453   69.2274   66.8960 H   0  0  0  0  0  0  0  0  0  0  0  0
    3.9072   70.5253   66.1539 H   0  0  0  0  0  0  0  0  0  0  0  0
  2  1  2  0
  3  2  1  0
  4  3  2  0
  5  4  1  0
  6  5  2  0
  6  1  1  0
  7  4  1  0
  8  7  1  0
  9  8  1  0
  9  3  1  0
 10  9  2  0
 12 11  1  0
 12  1  1  0
 13  6  1  0
 14 13  1  0
 15  8  1  0
 16 15  1  0
 17 16  2  0
 18 17  1  0
 19 18  2  0
 20 19  1  0
 21 20  2  0
 21 16  1  0
 22 20  1  0
 23 22  1  0
 24 23  1  0
 25 24  1  0
 26 25  1  0
 27 26  1  0
 27 23  1  0
  2 28  1  0
  5 29  1  0
  7 30  1  0
  7 31  1  0
  8 32  1  6
 11 33  1  0
 11 34  1  0
 11 35  1  0
 14 36  1  0
 14 37  1  0
 14 38  1  0
 15 39  1  0
 15 40  1  0
 17 41  1  0
 18 42  1  0
 19 43  1  0
 21 44  1  0
 22 45  1  0
 22 46  1  0
 23 47  1  0
 24 48  1  0
 24 49  1  0
 25 50  1  0
 25 51  1  0
 26 52  1  0
 26 53  1  0
 27 54  1  0
 27 55  1  0
M  CHG  1  23   1
M  END
>  <score>  (2) 
-9.869

$$$$
=
     RDKit          3D

 55 58  0  0  0  0  0  0  0  0999 V2000
    1.2330   68.8730   61.9530 C   0  0  0  0  0  0  0  0  0  0  0  0
    2.6190   69.0290   61.8690 C   0  0  0  0  0  0  0  0  0  0  0  0
    3.3520   68.8890   63.0340 C   0  0  0  0  0  0  0  0  0  0  0  0
    2.7790   68.6050   64.2620 C   0  0  0  0  0  0  0  0  0  0  0  0
    1.4050   68.4520   64.3640 C   0  0  0  0  0  0  0  0  0  0  0  0
    0.6220   68.5820   63.2050 C   0  0  0  0  0  0  0  0  0  0  0  0
    3.7900   68.5420   65.3630 C   0  0  0  0  0  0  0  0  0  0  0  0
    5.1580   68.6550   64.6460 C   0  0  1  0  0  0  0  0  0  0  0  0
    4.7940   68.9960   63.2100 C   0  0  0  0  0  0  0  0  0  0  0  0
    5.5560   69.2910   62.3080 O   0  0  0  0  0  0  0  0  0  0  0  0
   -0.2820   70.2250   60.6880 C   0  0  0  0  0  0  0  0  0  0  0  0
    0.3780   68.9810   60.8830 O   0  0  0  0  0  0  0  0  0  0  0  0
   -0.7450   68.4490   63.1810 O   0  0  0  0  0  0  0  0  0  0  0  0
   -1.4790   68.9020   64.3080 C   0  0  0  0  0  0  0  0  0  0  0  0
    6.0540   69.7150   65.2940 C   0  0  0  0  0  0  0  0  0  0  0  0
    5.6450   70.0660   66.7080 C   0  0  0  0  0  0  0  0  0  0  0  0
    6.5990   70.5230   67.6230 C   0  0  0  0  0  0  0  0  0  0  0  0
    6.2400   70.8100   68.9380 C   0  0  0  0  0  0  0  0  0  0  0  0
    4.9200   70.6520   69.3520 C   0  0  0  0  0  0  0  0  0  0  0  0
    3.9360   70.2140   68.4520 C   0  0  0  0  0  0  0  0  0  0  0  0
    4.3160   69.9110   67.1320 C   0  0  0  0  0  0  0  0  0  0  0  0
    2.5090   70.0540   68.9050 C   0  0  0  0  0  0  0  0  0  0  0  0
    1.6000   69.2490   68.0130 N   0  0  0  0  0  4  0  0  0  0  0  0
    1.3120   67.8320   68.4480 C   0  0  0  0  0  0  0  0  0  0  0  0
    0.0430   67.4990   67.6940 C   0  0  0  0  0  0  0  0  0  0  0  0
   -0.7550   68.7810   67.8190 C   0  0  0  0  0  0  0  0  0  0  0  0
    0.2760   69.8830   67.6400 C   0  0  0  0  0  0  0  0  0  0  0  0
    3.1098   69.2550   60.9109 H   0  0  0  0  0  0  0  0  0  0  0  0
    0.9364   68.2328   65.3348 H   0  0  0  0  0  0  0  0  0  0  0  0
    3.6504   69.3762   66.0663 H   0  0  0  0  0  0  0  0  0  0  0  0
    3.7047   67.6186   65.9546 H   0  0  0  0  0  0  0  0  0  0  0  0
    5.7485   67.7291   64.7103 H   0  0  0  0  0  0  0  0  0  0  0  0
   -0.5189   70.6715   61.6650 H   0  0  0  0  0  0  0  0  0  0  0  0
    0.3745   70.9039   60.1241 H   0  0  0  0  0  0  0  0  0  0  0  0
   -1.2123   70.0621   60.1241 H   0  0  0  0  0  0  0  0  0  0  0  0
   -0.9678   68.5865   65.2295 H   0  0  0  0  0  0  0  0  0  0  0  0
   -1.5474   69.9996   64.2840 H   0  0  0  0  0  0  0  0  0  0  0  0
   -2.4908   68.4710   64.2840 H   0  0  0  0  0  0  0  0  0  0  0  0
    7.0858   69.3342   65.3140 H   0  0  0  0  0  0  0  0  0  0  0  0
    5.9599   70.6310   64.6923 H   0  0  0  0  0  0  0  0  0  0  0  0
    7.6423   70.6570   67.3013 H   0  0  0  0  0  0  0  0  0  0  0  0
    7.0006   71.1620   69.6505 H   0  0  0  0  0  0  0  0  0  0  0  0
    4.6458   70.8725   70.3942 H   0  0  0  0  0  0  0  0  0  0  0  0
    3.5598   69.5469   66.4209 H   0  0  0  0  0  0  0  0  0  0  0  0
    2.5254   69.5662   69.8908 H   0  0  0  0  0  0  0  0  0  0  0  0
    2.0897   71.0710   68.9012 H   0  0  0  0  0  0  0  0  0  0  0  0
    2.2062   69.2300   67.1805 H   0  0  0  0  0  0  0  0  0  0  0  0
    2.1313   67.1559   68.1622 H   0  0  0  0  0  0  0  0  0  0  0  0
    1.2110   67.7239   69.5380 H   0  0  0  0  0  0  0  0  0  0  0  0
    0.2559   67.2638   66.6408 H   0  0  0  0  0  0  0  0  0  0  0  0
   -0.4815   66.6147   68.0849 H   0  0  0  0  0  0  0  0  0  0  0  0
   -1.5262   68.8379   67.0367 H   0  0  0  0  0  0  0  0  0  0  0  0
   -1.2861   68.8539   68.7795 H   0  0  0  0  0  0  0  0  0  0  0  0
    0.2941   70.2291   66.5960 H   0  0  0  0  0  0  0  0  0  0  0  0
    0.0509   70.7628   68.2608 H   0  0  0  0  0  0  0  0  0  0  0  0
  2  1  2  0
  3  2  1  0
  4  3  2  0
  5  4  1  0
  6  5  2  0
  6  1  1  0
  7  4  1  0
  8  7  1  0
  9  8  1  0
  9  3  1  0
 10  9  2  0
 12 11  1  0
 12  1  1  0
 13  6  1  0
 14 13  1  0
 15  8  1  0
 16 15  1  0
 17 16  2  0
 18 17  1  0
 19 18  2  0
 20 19  1  0
 21 20  2  0
 21 16  1  0
 22 20  1  0
 23 22  1  0
 24 23  1  0
 25 24  1  0
 26 25  1  0
 27 26  1  0
 27 23  1  0
  2 28  1  0
  5 29  1  0
  7 30  1  0
  7 31  1  0
  8 32  1  6
 11 33  1  0
 11 34  1  0
 11 35  1  0
 14 36  1  0
 14 37  1  0
 14 38  1  0
 15 39  1  0
 15 40  1  0
 17 41  1  0
 18 42  1  0
 19 43  1  0
 21 44  1  0
 22 45  1  0
 22 46  1  0
 23 47  1  0
 24 48  1  0
 24 49  1  0
 25 50  1  0
 25 51  1  0
 26 52  1  0
 26 53  1  0
 27 54  1  0
 27 55  1  0
M  CHG  1  23   1
M  END
>  <score>  (3) 
-9.403

$$$$
=
     RDKit          3D

 55 58  0  0  0  0  0  0  0  0999 V2000
    3.0990   61.6560   72.7510 C   0  0  0  0  0  0  0  0  0  0  0  0
    3.0850   62.4130   71.5760 C   0  0  0  0  0  0  0  0  0  0  0  0
    2.1350   63.4130   71.4700 C   0  0  0  0  0  0  0  0  0  0  0  0
    1.2110   63.6920   72.4630 C   0  0  0  0  0  0  0  0  0  0  0  0
    1.2080   62.9470   73.6320 C   0  0  0  0  0  0  0  0  0  0  0  0
    2.1580   61.9240   73.7840 C   0  0  0  0  0  0  0  0  0  0  0  0
    0.2770   64.7960   72.0800 C   0  0  0  0  0  0  0  0  0  0  0  0
    0.8350   65.3350   70.7400 C   0  0  1  0  0  0  0  0  0  0  0  0
    1.9190   64.3370   70.3650 C   0  0  0  0  0  0  0  0  0  0  0  0
    2.5530   64.2940   69.3260 O   0  0  0  0  0  0  0  0  0  0  0  0
    3.9990   59.5400   72.0920 C   0  0  0  0  0  0  0  0  0  0  0  0
    3.9830   60.6340   72.9990 O   0  0  0  0  0  0  0  0  0  0  0  0
    2.2550   61.1230   74.8960 O   0  0  0  0  0  0  0  0  0  0  0  0
    1.2860   60.0990   75.0670 C   0  0  0  0  0  0  0  0  0  0  0  0
   -0.2580   65.4460   69.6720 C   0  0  0  0  0  0  0  0  0  0  0  0
   -0.1340   66.6830   68.8100 C   0  0  0  0  0  0  0  0  0  0  0  0
   -1.1730   67.0450   67.9450 C   0  0  0  0  0  0  0  0  0  0  0  0
   -1.0510   68.1590   67.1180 C   0  0  0  0  0  0  0  0  0  0  0  0
    0.1080   68.9310   67.1520 C   0  0  0  0  0  0  0  0  0  0  0  0
    1.1590   68.6050   68.0230 C   0  0  0  0  0  0  0  0  0  0  0  0
    1.0300   67.4680   68.8390 C   0  0  0  0  0  0  0  0  0  0  0  0
    2.4040   69.4500   68.0600 C   0  0  0  0  0  0  0  0  0  0  0  0
    3.1190   69.6620   66.7500 N   0  0  0  0  0  4  0  0  0  0  0  0
    4.6180   69.8380   66.8220 C   0  0  0  0  0  0  0  0  0  0  0  0
    5.0640   69.5130   65.4130 C   0  0  0  0  0  0  0  0  0  0  0  0
    4.1980   68.3170   65.0670 C   0  0  0  0  0  0  0  0  0  0  0  0
    2.8370   68.6590   65.6500 C   0  0  0  0  0  0  0  0  0  0  0  0
    3.8031   62.2206   70.7653 H   0  0  0  0  0  0  0  0  0  0  0  0
    0.4751   63.1533   74.4259 H   0  0  0  0  0  0  0  0  0  0  0  0
   -0.7451   64.4113   71.9480 H   0  0  0  0  0  0  0  0  0  0  0  0
    0.2182   65.5781   72.8513 H   0  0  0  0  0  0  0  0  0  0  0  0
    1.2309   66.3577   70.8259 H   0  0  0  0  0  0  0  0  0  0  0  0
    4.0128   58.5959   72.6564 H   0  0  0  0  0  0  0  0  0  0  0  0
    3.1002   59.5755   71.4588 H   0  0  0  0  0  0  0  0  0  0  0  0
    4.8963   59.6018   71.4588 H   0  0  0  0  0  0  0  0  0  0  0  0
    1.1216   59.9253   76.1407 H   0  0  0  0  0  0  0  0  0  0  0  0
    0.3405   60.4066   74.5964 H   0  0  0  0  0  0  0  0  0  0  0  0
    1.6453   59.1719   74.5964 H   0  0  0  0  0  0  0  0  0  0  0  0
   -0.2007   64.5608   69.0215 H   0  0  0  0  0  0  0  0  0  0  0  0
   -1.2209   65.5136   70.1994 H   0  0  0  0  0  0  0  0  0  0  0  0
   -2.0941   66.4444   67.9181 H   0  0  0  0  0  0  0  0  0  0  0  0
   -1.8712   68.4297   66.4369 H   0  0  0  0  0  0  0  0  0  0  0  0
    0.2003   69.8045   66.4898 H   0  0  0  0  0  0  0  0  0  0  0  0
    1.8544   67.1884   69.5114 H   0  0  0  0  0  0  0  0  0  0  0  0
    2.1235   70.4394   68.4503 H   0  0  0  0  0  0  0  0  0  0  0  0
    3.1131   68.8915   68.6886 H   0  0  0  0  0  0  0  0  0  0  0  0
    2.6842   70.5617   66.5000 H   0  0  0  0  0  0  0  0  0  0  0  0
    4.8828   70.8708   67.0927 H   0  0  0  0  0  0  0  0  0  0  0  0
    5.0938   69.2049   67.5854 H   0  0  0  0  0  0  0  0  0  0  0  0
    4.8724   70.3542   64.7306 H   0  0  0  0  0  0  0  0  0  0  0  0
    6.1426   69.3150   65.3273 H   0  0  0  0  0  0  0  0  0  0  0  0
    4.1331   68.1850   63.9769 H   0  0  0  0  0  0  0  0  0  0  0  0
    4.6022   67.3753   65.4666 H   0  0  0  0  0  0  0  0  0  0  0  0
    2.1877   69.1022   64.8806 H   0  0  0  0  0  0  0  0  0  0  0  0
    2.3154   67.7677   66.0290 H   0  0  0  0  0  0  0  0  0  0  0  0
  2  1  2  0
  3  2  1  0
  4  3  2  0
  5  4  1  0
  6  5  2  0
  6  1  1  0
  7  4  1  0
  8  7  1  0
  9  8  1  0
  9  3  1  0
 10  9  2  0
 12 11  1  0
 12  1  1  0
 13  6  1  0
 14 13  1  0
 15  8  1  0
 16 15  1  0
 17 16  2  0
 18 17  1  0
 19 18  2  0
 20 19  1  0
 21 20  2  0
 21 16  1  0
 22 20  1  0
 23 22  1  0
 24 23  1  0
 25 24  1  0
 26 25  1  0
 27 26  1  0
 27 23  1  0
  2 28  1  0
  5 29  1  0
  7 30  1  0
  7 31  1  0
  8 32  1  1
 11 33  1  0
 11 34  1  0
 11 35  1  0
 14 36  1  0
 14 37  1  0
 14 38  1  0
 15 39  1  0
 15 40  1  0
 17 41  1  0
 18 42  1  0
 19 43  1  0
 21 44  1  0
 22 45  1  0
 22 46  1  0
 23 47  1  0
 24 48  1  0
 24 49  1  0
 25 50  1  0
 25 51  1  0
 26 52  1  0
 26 53  1  0
 27 54  1  0
 27 55  1  0
M  CHG  1  23   1
M  END
>  <score>  (4) 
-9.174

$$$$
=
     RDKit          3D

 55 58  0  0  0  0  0  0  0  0999 V2000
    2.3980   61.2340   72.5570 C   0  0  0  0  0  0  0  0  0  0  0  0
    2.5720   62.0440   71.4330 C   0  0  0  0  0  0  0  0  0  0  0  0
    1.8370   63.2130   71.3660 C   0  0  0  0  0  0  0  0  0  0  0  0
    0.9470   63.6100   72.3500 C   0  0  0  0  0  0  0  0  0  0  0  0
    0.7590   62.8150   73.4700 C   0  0  0  0  0  0  0  0  0  0  0  0
    1.4880   61.6190   73.5820 C   0  0  0  0  0  0  0  0  0  0  0  0
    0.2570   64.8930   72.0140 C   0  0  0  0  0  0  0  0  0  0  0  0
    0.9570   65.3890   70.7240 C   0  0  1  0  0  0  0  0  0  0  0  0
    1.8430   64.2220   70.3150 C   0  0  0  0  0  0  0  0  0  0  0  0
    2.4940   64.1170   69.2920 O   0  0  0  0  0  0  0  0  0  0  0  0
    4.2750   59.8370   72.0570 C   0  0  0  0  0  0  0  0  0  0  0  0
    3.0590   60.0470   72.7640 O   0  0  0  0  0  0  0  0  0  0  0  0
    1.3890   60.7540   74.6440 O   0  0  0  0  0  0  0  0  0  0  0  0
    0.6750   61.1870   75.7930 C   0  0  0  0  0  0  0  0  0  0  0  0
   -0.0540   65.7700   69.6390 C   0  0  0  0  0  0  0  0  0  0  0  0
    0.3980   66.9270   68.7750 C   0  0  0  0  0  0  0  0  0  0  0  0
    1.4890   67.7110   69.1640 C   0  0  0  0  0  0  0  0  0  0  0  0
    1.8870   68.8030   68.3970 C   0  0  0  0  0  0  0  0  0  0  0  0
    1.2050   69.1190   67.2240 C   0  0  0  0  0  0  0  0  0  0  0  0
    0.1190   68.3390   66.7960 C   0  0  0  0  0  0  0  0  0  0  0  0
   -0.2830   67.2500   67.5910 C   0  0  0  0  0  0  0  0  0  0  0  0
   -0.6080   68.6820   65.5240 C   0  0  0  0  0  0  0  0  0  0  0  0
    0.0580   68.2800   64.2320 N   0  0  0  0  0  4  0  0  0  0  0  0
    0.0370   69.3000   63.1180 C   0  0  0  0  0  0  0  0  0  0  0  0
    1.1650   68.8410   62.2200 C   0  0  0  0  0  0  0  0  0  0  0  0
    2.2370   68.4500   63.2180 C   0  0  0  0  0  0  0  0  0  0  0  0
    1.4740   67.7520   64.3320 C   0  0  0  0  0  0  0  0  0  0  0  0
    3.2688   61.7621   70.6298 H   0  0  0  0  0  0  0  0  0  0  0  0
    0.0516   63.1151   74.2571 H   0  0  0  0  0  0  0  0  0  0  0  0
   -0.8143   64.7215   71.8327 H   0  0  0  0  0  0  0  0  0  0  0  0
    0.3210   65.6267   72.8310 H   0  0  0  0  0  0  0  0  0  0  0  0
    1.5383   66.3092   70.8829 H   0  0  0  0  0  0  0  0  0  0  0  0
    5.0965   59.6951   72.7746 H   0  0  0  0  0  0  0  0  0  0  0  0
    4.1816   58.9417   71.4248 H   0  0  0  0  0  0  0  0  0  0  0  0
    4.4873   60.7118   71.4248 H   0  0  0  0  0  0  0  0  0  0  0  0
    1.2080   60.8638   76.6993 H   0  0  0  0  0  0  0  0  0  0  0  0
    0.5977   62.2843   75.7848 H   0  0  0  0  0  0  0  0  0  0  0  0
   -0.3337   60.7483   75.7848 H   0  0  0  0  0  0  0  0  0  0  0  0
   -0.2176   64.8953   68.9924 H   0  0  0  0  0  0  0  0  0  0  0  0
   -0.9746   66.0874   70.1505 H   0  0  0  0  0  0  0  0  0  0  0  0
    2.0378   67.4627   70.0844 H   0  0  0  0  0  0  0  0  0  0  0  0
    2.7413   69.4171   68.7178 H   0  0  0  0  0  0  0  0  0  0  0  0
    1.5204   69.9878   66.6276 H   0  0  0  0  0  0  0  0  0  0  0  0
   -1.1450   66.6418   67.2795 H   0  0  0  0  0  0  0  0  0  0  0  0
   -1.5911   68.1897   65.5592 H   0  0  0  0  0  0  0  0  0  0  0  0
   -0.6443   69.7811   65.5000 H   0  0  0  0  0  0  0  0  0  0  0  0
   -0.5712   67.5016   63.9889 H   0  0  0  0  0  0  0  0  0  0  0  0
   -0.9250   69.2843   62.5848 H   0  0  0  0  0  0  0  0  0  0  0  0
    0.1570   70.3342   63.4729 H   0  0  0  0  0  0  0  0  0  0  0  0
    0.8600   67.9807   61.6061 H   0  0  0  0  0  0  0  0  0  0  0  0
    1.4925   69.6055   61.5001 H   0  0  0  0  0  0  0  0  0  0  0  0
    2.9673   67.7676   62.7586 H   0  0  0  0  0  0  0  0  0  0  0  0
    2.8115   69.3156   63.5795 H   0  0  0  0  0  0  0  0  0  0  0  0
    1.4906   66.6617   64.1871 H   0  0  0  0  0  0  0  0  0  0  0  0
    1.9174   67.9466   65.3197 H   0  0  0  0  0  0  0  0  0  0  0  0
  2  1  2  0
  3  2  1  0
  4  3  2  0
  5  4  1  0
  6  5  2  0
  6  1  1  0
  7  4  1  0
  8  7  1  0
  9  8  1  0
  9  3  1  0
 10  9  2  0
 12 11  1  0
 12  1  1  0
 13  6  1  0
 14 13  1  0
 15  8  1  0
 16 15  1  0
 17 16  2  0
 18 17  1  0
 19 18  2  0
 20 19  1  0
 21 20  2  0
 21 16  1  0
 22 20  1  0
 23 22  1  0
 24 23  1  0
 25 24  1  0
 26 25  1  0
 27 26  1  0
 27 23  1  0
  2 28  1  0
  5 29  1  0
  7 30  1  0
  7 31  1  0
  8 32  1  1
 11 33  1  0
 11 34  1  0
 11 35  1  0
 14 36  1  0
 14 37  1  0
 14 38  1  0
 15 39  1  0
 15 40  1  0
 17 41  1  0
 18 42  1  0
 19 43  1  0
 21 44  1  0
 22 45  1  0
 22 46  1  0
 23 47  1  0
 24 48  1  0
 24 49  1  0
 25 50  1  0
 25 51  1  0
 26 52  1  0
 26 53  1  0
 27 54  1  0
 27 55  1  0
M  CHG  1  23   1
M  END
>  <score>  (5) 
-8.788

$$$$
=
     RDKit          3D

 55 58  0  0  0  0  0  0  0  0999 V2000
   -0.9240   56.6540   74.7210 C   0  0  0  0  0  0  0  0  0  0  0  0
   -1.4490   57.9290   74.4970 C   0  0  0  0  0  0  0  0  0  0  0  0
   -0.6480   58.8460   73.8410 C   0  0  0  0  0  0  0  0  0  0  0  0
    0.6350   58.5600   73.4050 C   0  0  0  0  0  0  0  0  0  0  0  0
    1.1730   57.3010   73.6240 C   0  0  0  0  0  0  0  0  0  0  0  0
    0.3920   56.3370   74.2820 C   0  0  0  0  0  0  0  0  0  0  0  0
    1.2950   59.7360   72.7600 C   0  0  0  0  0  0  0  0  0  0  0  0
    0.1840   60.8120   72.6740 C   0  0  1  0  0  0  0  0  0  0  0  0
   -0.9600   60.2230   73.4840 C   0  0  0  0  0  0  0  0  0  0  0  0
   -2.0040   60.7710   73.7880 O   0  0  0  0  0  0  0  0  0  0  0  0
   -1.6530   55.6690   76.7750 C   0  0  0  0  0  0  0  0  0  0  0  0
   -1.6010   55.6410   75.3550 O   0  0  0  0  0  0  0  0  0  0  0  0
    0.8150   55.0580   74.5520 O   0  0  0  0  0  0  0  0  0  0  0  0
    2.0080   54.6040   73.9290 C   0  0  0  0  0  0  0  0  0  0  0  0
    0.6570   62.1630   73.2180 C   0  0  0  0  0  0  0  0  0  0  0  0
    1.1660   63.1000   72.1440 C   0  0  0  0  0  0  0  0  0  0  0  0
    2.4410   62.9160   71.5970 C   0  0  0  0  0  0  0  0  0  0  0  0
    2.9340   63.7970   70.6370 C   0  0  0  0  0  0  0  0  0  0  0  0
    2.1540   64.8670   70.2040 C   0  0  0  0  0  0  0  0  0  0  0  0
    0.8630   65.0660   70.7190 C   0  0  0  0  0  0  0  0  0  0  0  0
    0.3860   64.1790   71.7010 C   0  0  0  0  0  0  0  0  0  0  0  0
    0.0240   66.2190   70.2400 C   0  0  0  0  0  0  0  0  0  0  0  0
    0.0350   66.4970   68.7580 N   0  0  0  0  0  4  0  0  0  0  0  0
   -1.3070   66.7480   68.1110 C   0  0  0  0  0  0  0  0  0  0  0  0
   -0.9360   67.4710   66.8350 C   0  0  0  0  0  0  0  0  0  0  0  0
    0.1580   68.4120   67.3020 C   0  0  0  0  0  0  0  0  0  0  0  0
    0.9770   67.5800   68.2760 C   0  0  0  0  0  0  0  0  0  0  0  0
   -2.4632   58.1942   74.8304 H   0  0  0  0  0  0  0  0  0  0  0  0
    2.1929   57.0616   73.2885 H   0  0  0  0  0  0  0  0  0  0  0  0
    2.1351   60.0940   73.3732 H   0  0  0  0  0  0  0  0  0  0  0  0
    1.7127   59.4892   71.7728 H   0  0  0  0  0  0  0  0  0  0  0  0
   -0.1163   61.0312   71.6387 H   0  0  0  0  0  0  0  0  0  0  0  0
   -0.7541   55.1850   77.1844 H   0  0  0  0  0  0  0  0  0  0  0  0
   -1.6968   56.7126   77.1198 H   0  0  0  0  0  0  0  0  0  0  0  0
   -2.5484   55.1311   77.1198 H   0  0  0  0  0  0  0  0  0  0  0  0
    2.7411   54.3250   74.7002 H   0  0  0  0  0  0  0  0  0  0  0  0
    1.7840   53.7283   73.3022 H   0  0  0  0  0  0  0  0  0  0  0  0
    2.4228   55.4071   73.3022 H   0  0  0  0  0  0  0  0  0  0  0  0
   -0.1872   62.6469   73.7311 H   0  0  0  0  0  0  0  0  0  0  0  0
    1.4979   61.9621   73.8981 H   0  0  0  0  0  0  0  0  0  0  0  0
    3.0592   62.0684   71.9279 H   0  0  0  0  0  0  0  0  0  0  0  0
    3.9409   63.6475   70.2202 H   0  0  0  0  0  0  0  0  0  0  0  0
    2.5534   65.5627   69.4513 H   0  0  0  0  0  0  0  0  0  0  0  0
   -0.6155   64.3339   72.1289 H   0  0  0  0  0  0  0  0  0  0  0  0
   -1.0169   66.0178   70.5333 H   0  0  0  0  0  0  0  0  0  0  0  0
    0.4688   67.1116   70.7041 H   0  0  0  0  0  0  0  0  0  0  0  0
    0.3937   65.5826   68.4481 H   0  0  0  0  0  0  0  0  0  0  0  0
   -1.8249   65.8022   67.8939 H   0  0  0  0  0  0  0  0  0  0  0  0
   -1.9974   67.3190   68.7492 H   0  0  0  0  0  0  0  0  0  0  0  0
   -0.5607   66.7701   66.0749 H   0  0  0  0  0  0  0  0  0  0  0  0
   -1.7837   67.9842   66.3575 H   0  0  0  0  0  0  0  0  0  0  0  0
    0.7769   68.7415   66.4544 H   0  0  0  0  0  0  0  0  0  0  0  0
   -0.2424   69.3268   67.7633 H   0  0  0  0  0  0  0  0  0  0  0  0
    1.8473   67.1375   67.7692 H   0  0  0  0  0  0  0  0  0  0  0  0
    1.3692   68.1851   69.1067 H   0  0  0  0  0  0  0  0  0  0  0  0
  2  1  2  0
  3  2  1  0
  4  3  2  0
  5  4  1  0
  6  5  2  0
  6  1  1  0
  7  4  1  0
  8  7  1  0
  9  8  1  0
  9  3  1  0
 10  9  2  0
 12 11  1  0
 12  1  1  0
 13  6  1  0
 14 13  1  0
 15  8  1  0
 16 15  1  0
 17 16  2  0
 18 17  1  0
 19 18  2  0
 20 19  1  0
 21 20  2  0
 21 16  1  0
 22 20  1  0
 23 22  1  0
 24 23  1  0
 25 24  1  0
 26 25  1  0
 27 26  1  0
 27 23  1  0
  2 28  1  0
  5 29  1  0
  7 30  1  0
  7 31  1  0
  8 32  1  6
 11 33  1  0
 11 34  1  0
 11 35  1  0
 14 36  1  0
 14 37  1  0
 14 38  1  0
 15 39  1  0
 15 40  1  0
 17 41  1  0
 18 42  1  0
 19 43  1  0
 21 44  1  0
 22 45  1  0
 22 46  1  0
 23 47  1  0
 24 48  1  0
 24 49  1  0
 25 50  1  0
 25 51  1  0
 26 52  1  0
 26 53  1  0
 27 54  1  0
 27 55  1  0
M  CHG  1  23   1
M  END
>  <score>  (6) 
-8.449

$$$$
=
     RDKit          3D

 55 58  0  0  0  0  0  0  0  0999 V2000
    2.2770   57.4740   73.2850 C   0  0  0  0  0  0  0  0  0  0  0  0
    2.4720   58.0700   72.0360 C   0  0  0  0  0  0  0  0  0  0  0  0
    3.3530   59.1340   71.9650 C   0  0  0  0  0  0  0  0  0  0  0  0
    4.0390   59.6270   73.0610 C   0  0  0  0  0  0  0  0  0  0  0  0
    3.8540   59.0500   74.3080 C   0  0  0  0  0  0  0  0  0  0  0  0
    2.9710   57.9630   74.4260 C   0  0  0  0  0  0  0  0  0  0  0  0
    4.8980   60.8020   72.7170 C   0  0  0  0  0  0  0  0  0  0  0  0
    4.8150   60.9100   71.1740 C   0  0  1  0  0  0  0  0  0  0  0  0
    3.7310   59.9130   70.7940 C   0  0  0  0  0  0  0  0  0  0  0  0
    3.2450   59.7400   69.6910 O   0  0  0  0  0  0  0  0  0  0  0  0
    0.0370   56.6500   73.4530 C   0  0  0  0  0  0  0  0  0  0  0  0
    1.4370   56.4100   73.5090 O   0  0  0  0  0  0  0  0  0  0  0  0
    2.7090   57.3100   75.6060 O   0  0  0  0  0  0  0  0  0  0  0  0
    3.8050   56.9960   76.4520 C   0  0  0  0  0  0  0  0  0  0  0  0
    4.4880   62.3360   70.7210 C   0  0  0  0  0  0  0  0  0  0  0  0
    3.0780   62.7680   71.0620 C   0  0  0  0  0  0  0  0  0  0  0  0
    2.2120   63.2010   70.0530 C   0  0  0  0  0  0  0  0  0  0  0  0
    0.9260   63.6390   70.3610 C   0  0  0  0  0  0  0  0  0  0  0  0
    0.4870   63.6390   71.6840 C   0  0  0  0  0  0  0  0  0  0  0  0
    1.3260   63.1900   72.7160 C   0  0  0  0  0  0  0  0  0  0  0  0
    2.6270   62.7690   72.3910 C   0  0  0  0  0  0  0  0  0  0  0  0
    0.8400   63.1860   74.1400 C   0  0  0  0  0  0  0  0  0  0  0  0
    0.1730   61.9240   74.6260 N   0  0  0  0  0  4  0  0  0  0  0  0
   -1.2630   62.0530   75.0760 C   0  0  0  0  0  0  0  0  0  0  0  0
   -1.7700   60.6290   74.9970 C   0  0  0  0  0  0  0  0  0  0  0  0
   -1.1510   60.1360   73.7040 C   0  0  0  0  0  0  0  0  0  0  0  0
    0.2530   60.7180   73.7140 C   0  0  0  0  0  0  0  0  0  0  0  0
    1.9442   57.7063   71.1421 H   0  0  0  0  0  0  0  0  0  0  0  0
    4.3884   59.4358   75.1887 H   0  0  0  0  0  0  0  0  0  0  0  0
    4.5126   61.7166   73.1914 H   0  0  0  0  0  0  0  0  0  0  0  0
    5.9323   60.6798   73.0711 H   0  0  0  0  0  0  0  0  0  0  0  0
    5.7716   60.6843   70.6801 H   0  0  0  0  0  0  0  0  0  0  0  0
   -0.3644   56.7188   74.4748 H   0  0  0  0  0  0  0  0  0  0  0  0
   -0.1522   57.5937   72.9204 H   0  0  0  0  0  0  0  0  0  0  0  0
   -0.4557   55.8232   72.9204 H   0  0  0  0  0  0  0  0  0  0  0  0
    3.4940   57.0851   77.5033 H   0  0  0  0  0  0  0  0  0  0  0  0
    4.1378   55.9664   76.2541 H   0  0  0  0  0  0  0  0  0  0  0  0
    4.6325   57.6932   76.2541 H   0  0  0  0  0  0  0  0  0  0  0  0
    5.1916   63.0266   71.2089 H   0  0  0  0  0  0  0  0  0  0  0  0
    4.5771   62.3563   69.6248 H   0  0  0  0  0  0  0  0  0  0  0  0
    2.5495   63.1957   69.0061 H   0  0  0  0  0  0  0  0  0  0  0  0
    0.2565   63.9851   69.5597 H   0  0  0  0  0  0  0  0  0  0  0  0
   -0.5266   63.9942   71.9216 H   0  0  0  0  0  0  0  0  0  0  0  0
    3.3031   62.4347   73.1917 H   0  0  0  0  0  0  0  0  0  0  0  0
    1.7081   63.3749   74.7887 H   0  0  0  0  0  0  0  0  0  0  0  0
    0.0585   63.9591   74.1801 H   0  0  0  0  0  0  0  0  0  0  0  0
    0.7708   61.7589   75.4483 H   0  0  0  0  0  0  0  0  0  0  0  0
   -1.3225   62.4380   76.1047 H   0  0  0  0  0  0  0  0  0  0  0  0
   -1.8481   62.7574   74.4665 H   0  0  0  0  0  0  0  0  0  0  0  0
   -1.4243   60.0350   75.8559 H   0  0  0  0  0  0  0  0  0  0  0  0
   -2.8670   60.5506   75.0177 H   0  0  0  0  0  0  0  0  0  0  0  0
   -1.1170   59.0367   73.6825 H   0  0  0  0  0  0  0  0  0  0  0  0
   -1.7269   60.4430   72.8185 H   0  0  0  0  0  0  0  0  0  0  0  0
    0.9725   59.9842   74.1062 H   0  0  0  0  0  0  0  0  0  0  0  0
    0.5951   60.9870   72.7037 H   0  0  0  0  0  0  0  0  0  0  0  0
  2  1  2  0
  3  2  1  0
  4  3  2  0
  5  4  1  0
  6  5  2  0
  6  1  1  0
  7  4  1  0
  8  7  1  0
  9  8  1  0
  9  3  1  0
 10  9  2  0
 12 11  1  0
 12  1  1  0
 13  6  1  0
 14 13  1  0
 15  8  1  0
 16 15  1  0
 17 16  2  0
 18 17  1  0
 19 18  2  0
 20 19  1  0
 21 20  2  0
 21 16  1  0
 22 20  1  0
 23 22  1  0
 24 23  1  0
 25 24  1  0
 26 25  1  0
 27 26  1  0
 27 23  1  0
  2 28  1  0
  5 29  1  0
  7 30  1  0
  7 31  1  0
  8 32  1  6
 11 33  1  0
 11 34  1  0
 11 35  1  0
 14 36  1  0
 14 37  1  0
 14 38  1  0
 15 39  1  0
 15 40  1  0
 17 41  1  0
 18 42  1  0
 19 43  1  0
 21 44  1  0
 22 45  1  0
 22 46  1  0
 23 47  1  0
 24 48  1  0
 24 49  1  0
 25 50  1  0
 25 51  1  0
 26 52  1  0
 26 53  1  0
 27 54  1  0
 27 55  1  0
M  CHG  1  23   1
M  END
>  <score>  (7) 
-8.26

$$$$
=
     RDKit          3D

 55 58  0  0  0  0  0  0  0  0999 V2000
    0.9730   64.6310   70.6670 C   0  0  0  0  0  0  0  0  0  0  0  0
    0.3510   64.7940   71.9070 C   0  0  0  0  0  0  0  0  0  0  0  0
    0.7970   64.0100   72.9560 C   0  0  0  0  0  0  0  0  0  0  0  0
    1.8180   63.0830   72.8310 C   0  0  0  0  0  0  0  0  0  0  0  0
    2.4430   62.9050   71.6060 C   0  0  0  0  0  0  0  0  0  0  0  0
    2.0240   63.6840   70.5140 C   0  0  0  0  0  0  0  0  0  0  0  0
    2.0790   62.3450   74.1050 C   0  0  0  0  0  0  0  0  0  0  0  0
    1.1870   63.0500   75.1570 C   0  0  1  0  0  0  0  0  0  0  0  0
    0.3250   63.9940   74.3330 C   0  0  0  0  0  0  0  0  0  0  0  0
   -0.6080   64.6700   74.7270 O   0  0  0  0  0  0  0  0  0  0  0  0
    0.9950   66.7150   69.4920 C   0  0  0  0  0  0  0  0  0  0  0  0
    0.6400   65.3390   69.5380 O   0  0  0  0  0  0  0  0  0  0  0  0
    2.5690   63.6000   69.2560 O   0  0  0  0  0  0  0  0  0  0  0  0
    3.4920   62.5530   68.9970 C   0  0  0  0  0  0  0  0  0  0  0  0
    0.3560   62.0460   75.9630 C   0  0  0  0  0  0  0  0  0  0  0  0
    0.1000   60.7490   75.2260 C   0  0  0  0  0  0  0  0  0  0  0  0
   -1.1570   60.4950   74.6670 C   0  0  0  0  0  0  0  0  0  0  0  0
   -1.4150   59.2870   74.0230 C   0  0  0  0  0  0  0  0  0  0  0  0
   -0.4160   58.3220   73.9210 C   0  0  0  0  0  0  0  0  0  0  0  0
    0.8610   58.5560   74.4540 C   0  0  0  0  0  0  0  0  0  0  0  0
    1.1020   59.7720   75.1180 C   0  0  0  0  0  0  0  0  0  0  0  0
    1.9370   57.5110   74.3320 C   0  0  0  0  0  0  0  0  0  0  0  0
    2.9260   57.6830   73.2070 N   0  0  0  0  0  4  0  0  0  0  0  0
    2.4090   57.4200   71.8120 C   0  0  0  0  0  0  0  0  0  0  0  0
    3.4110   58.1460   70.9400 C   0  0  0  0  0  0  0  0  0  0  0  0
    3.6430   59.4300   71.7110 C   0  0  0  0  0  0  0  0  0  0  0  0
    3.6900   58.9900   73.1650 C   0  0  0  0  0  0  0  0  0  0  0  0
   -0.4642   65.5197   72.0445 H   0  0  0  0  0  0  0  0  0  0  0  0
    3.2515   62.1680   71.4912 H   0  0  0  0  0  0  0  0  0  0  0  0
    1.7978   61.2863   74.0047 H   0  0  0  0  0  0  0  0  0  0  0  0
    3.1429   62.3596   74.3842 H   0  0  0  0  0  0  0  0  0  0  0  0
    1.7715   63.5867   75.9188 H   0  0  0  0  0  0  0  0  0  0  0  0
    1.0949   67.1023   70.5167 H   0  0  0  0  0  0  0  0  0  0  0  0
    1.9520   66.8292   68.9619 H   0  0  0  0  0  0  0  0  0  0  0  0
    0.2127   67.2780   68.9619 H   0  0  0  0  0  0  0  0  0  0  0  0
    3.8555   62.1406   69.9498 H   0  0  0  0  0  0  0  0  0  0  0  0
    2.9941   61.7596   68.4203 H   0  0  0  0  0  0  0  0  0  0  0  0
    4.3416   62.9475   68.4203 H   0  0  0  0  0  0  0  0  0  0  0  0
    0.8935   61.8172   76.8951 H   0  0  0  0  0  0  0  0  0  0  0  0
   -0.6228   62.5114   76.1510 H   0  0  0  0  0  0  0  0  0  0  0  0
   -1.9485   61.2557   74.7366 H   0  0  0  0  0  0  0  0  0  0  0  0
   -2.4096   59.0949   73.5942 H   0  0  0  0  0  0  0  0  0  0  0  0
   -0.6299   57.3674   73.4179 H   0  0  0  0  0  0  0  0  0  0  0  0
    2.0916   59.9605   75.5598 H   0  0  0  0  0  0  0  0  0  0  0  0
    2.5032   57.5045   75.2750 H   0  0  0  0  0  0  0  0  0  0  0  0
    1.4053   56.5746   74.1077 H   0  0  0  0  0  0  0  0  0  0  0  0
    3.5738   56.9287   73.4759 H   0  0  0  0  0  0  0  0  0  0  0  0
    2.3981   56.3427   71.5902 H   0  0  0  0  0  0  0  0  0  0  0  0
    1.3737   57.7592   71.6603 H   0  0  0  0  0  0  0  0  0  0  0  0
    4.3420   57.5690   70.8385 H   0  0  0  0  0  0  0  0  0  0  0  0
    3.0608   58.3089   69.9100 H   0  0  0  0  0  0  0  0  0  0  0  0
    4.5937   59.8968   71.4140 H   0  0  0  0  0  0  0  0  0  0  0  0
    2.8610   60.1806   71.5235 H   0  0  0  0  0  0  0  0  0  0  0  0
    4.7303   58.8398   73.4895 H   0  0  0  0  0  0  0  0  0  0  0  0
    3.2546   59.7435   73.8378 H   0  0  0  0  0  0  0  0  0  0  0  0
  2  1  2  0
  3  2  1  0
  4  3  2  0
  5  4  1  0
  6  5  2  0
  6  1  1  0
  7  4  1  0
  8  7  1  0
  9  8  1  0
  9  3  1  0
 10  9  2  0
 12 11  1  0
 12  1  1  0
 13  6  1  0
 14 13  1  0
 15  8  1  0
 16 15  1  0
 17 16  2  0
 18 17  1  0
 19 18  2  0
 20 19  1  0
 21 20  2  0
 21 16  1  0
 22 20  1  0
 23 22  1  0
 24 23  1  0
 25 24  1  0
 26 25  1  0
 27 26  1  0
 27 23  1  0
  2 28  1  0
  5 29  1  0
  7 30  1  0
  7 31  1  0
  8 32  1  1
 11 33  1  0
 11 34  1  0
 11 35  1  0
 14 36  1  0
 14 37  1  0
 14 38  1  0
 15 39  1  0
 15 40  1  0
 17 41  1  0
 18 42  1  0
 19 43  1  0
 21 44  1  0
 22 45  1  0
 22 46  1  0
 23 47  1  0
 24 48  1  0
 24 49  1  0
 25 50  1  0
 25 51  1  0
 26 52  1  0
 26 53  1  0
 27 54  1  0
 27 55  1  0
M  CHG  1  23   1
M  END
>  <score>  (8) 
-8.219

$$$$
=
     RDKit          3D

 55 58  0  0  0  0  0  0  0  0999 V2000
   -1.2740   61.2310   73.9960 C   0  0  0  0  0  0  0  0  0  0  0  0
   -0.6200   60.0700   73.5770 C   0  0  0  0  0  0  0  0  0  0  0  0
    0.7260   59.9510   73.8740 C   0  0  0  0  0  0  0  0  0  0  0  0
    1.4420   60.9190   74.5580 C   0  0  0  0  0  0  0  0  0  0  0  0
    0.8080   62.0780   74.9770 C   0  0  0  0  0  0  0  0  0  0  0  0
   -0.5590   62.2400   74.7000 C   0  0  0  0  0  0  0  0  0  0  0  0
    2.8850   60.5580   74.7150 C   0  0  0  0  0  0  0  0  0  0  0  0
    2.9880   59.1070   74.1810 C   0  0  1  0  0  0  0  0  0  0  0  0
    1.6250   58.8490   73.5580 C   0  0  0  0  0  0  0  0  0  0  0  0
    1.2840   57.8750   72.9110 O   0  0  0  0  0  0  0  0  0  0  0  0
   -3.5560   60.7000   74.4820 C   0  0  0  0  0  0  0  0  0  0  0  0
   -2.6060   61.4880   73.7760 O   0  0  0  0  0  0  0  0  0  0  0  0
   -1.2940   63.3410   75.0670 O   0  0  0  0  0  0  0  0  0  0  0  0
   -1.1210   63.8510   76.3800 C   0  0  0  0  0  0  0  0  0  0  0  0
    4.1330   58.9520   73.1760 C   0  0  0  0  0  0  0  0  0  0  0  0
    3.8940   59.6830   71.8730 C   0  0  0  0  0  0  0  0  0  0  0  0
    3.6980   58.9640   70.6890 C   0  0  0  0  0  0  0  0  0  0  0  0
    3.5180   59.6280   69.4780 C   0  0  0  0  0  0  0  0  0  0  0  0
    3.5220   61.0200   69.4370 C   0  0  0  0  0  0  0  0  0  0  0  0
    3.6960   61.7690   70.6110 C   0  0  0  0  0  0  0  0  0  0  0  0
    3.8950   61.0850   71.8240 C   0  0  0  0  0  0  0  0  0  0  0  0
    3.6910   63.2740   70.5590 C   0  0  0  0  0  0  0  0  0  0  0  0
    2.4500   63.9650   71.0630 N   0  0  0  0  0  4  0  0  0  0  0  0
    1.9140   65.0920   70.2100 C   0  0  0  0  0  0  0  0  0  0  0  0
    0.4770   65.2090   70.6700 C   0  0  0  0  0  0  0  0  0  0  0  0
    0.0630   63.7570   70.8120 C   0  0  0  0  0  0  0  0  0  0  0  0
    1.2760   63.0800   71.4270 C   0  0  0  0  0  0  0  0  0  0  0  0
   -1.1555   59.2794   73.0310 H   0  0  0  0  0  0  0  0  0  0  0  0
    1.3658   62.8572   75.5170 H   0  0  0  0  0  0  0  0  0  0  0  0
    3.5205   61.2346   74.1248 H   0  0  0  0  0  0  0  0  0  0  0  0
    3.2240   60.6426   75.7580 H   0  0  0  0  0  0  0  0  0  0  0  0
    3.2235   58.3784   74.9707 H   0  0  0  0  0  0  0  0  0  0  0  0
   -3.4046   60.8255   75.5643 H   0  0  0  0  0  0  0  0  0  0  0  0
   -4.5725   61.0237   74.2139 H   0  0  0  0  0  0  0  0  0  0  0  0
   -3.4257   59.6411   74.2139 H   0  0  0  0  0  0  0  0  0  0  0  0
   -1.3845   63.0741   77.1128 H   0  0  0  0  0  0  0  0  0  0  0  0
   -0.0716   64.1486   76.5225 H   0  0  0  0  0  0  0  0  0  0  0  0
   -1.7727   64.7256   76.5225 H   0  0  0  0  0  0  0  0  0  0  0  0
    5.0530   59.3457   73.6326 H   0  0  0  0  0  0  0  0  0  0  0  0
    4.2117   57.8811   72.9371 H   0  0  0  0  0  0  0  0  0  0  0  0
    3.6859   57.8644   70.7147 H   0  0  0  0  0  0  0  0  0  0  0  0
    3.3724   59.0519   68.5523 H   0  0  0  0  0  0  0  0  0  0  0  0
    3.3875   61.5372   68.4755 H   0  0  0  0  0  0  0  0  0  0  0  0
    4.0540   61.6587   72.7490 H   0  0  0  0  0  0  0  0  0  0  0  0
    4.5392   63.6311   71.1615 H   0  0  0  0  0  0  0  0  0  0  0  0
    3.7481   63.5263   69.4898 H   0  0  0  0  0  0  0  0  0  0  0  0
    2.8521   64.3552   71.9273 H   0  0  0  0  0  0  0  0  0  0  0  0
    2.4660   66.0253   70.3947 H   0  0  0  0  0  0  0  0  0  0  0  0
    2.0110   64.9042   69.1305 H   0  0  0  0  0  0  0  0  0  0  0  0
    0.4086   65.7385   71.6318 H   0  0  0  0  0  0  0  0  0  0  0  0
   -0.1603   65.7830   69.9813 H   0  0  0  0  0  0  0  0  0  0  0  0
   -0.8119   63.6639   71.4722 H   0  0  0  0  0  0  0  0  0  0  0  0
   -0.2280   63.3068   69.8515 H   0  0  0  0  0  0  0  0  0  0  0  0
    1.1677   63.0124   72.5196 H   0  0  0  0  0  0  0  0  0  0  0  0
    1.4052   62.0520   71.0575 H   0  0  0  0  0  0  0  0  0  0  0  0
  2  1  2  0
  3  2  1  0
  4  3  2  0
  5  4  1  0
  6  5  2  0
  6  1  1  0
  7  4  1  0
  8  7  1  0
  9  8  1  0
  9  3  1  0
 10  9  2  0
 12 11  1  0
 12  1  1  0
 13  6  1  0
 14 13  1  0
 15  8  1  0
 16 15  1  0
 17 16  2  0
 18 17  1  0
 19 18  2  0
 20 19  1  0
 21 20  2  0
 21 16  1  0
 22 20  1  0
 23 22  1  0
 24 23  1  0
 25 24  1  0
 26 25  1  0
 27 26  1  0
 27 23  1  0
  2 28  1  0
  5 29  1  0
  7 30  1  0
  7 31  1  0
  8 32  1  1
 11 33  1  0
 11 34  1  0
 11 35  1  0
 14 36  1  0
 14 37  1  0
 14 38  1  0
 15 39  1  0
 15 40  1  0
 17 41  1  0
 18 42  1  0
 19 43  1  0
 21 44  1  0
 22 45  1  0
 22 46  1  0
 23 47  1  0
 24 48  1  0
 24 49  1  0
 25 50  1  0
 25 51  1  0
 26 52  1  0
 26 53  1  0
 27 54  1  0
 27 55  1  0
M  CHG  1  23   1
M  END
>  <score>  (9) 
-8.179

$$$$
