=
     RDKit          3D

 40 43  0  0  0  0  0  0  0  0999 V2000
    4.4680   68.6910   64.2140 O   0  0  0  0  0  0  0  0  0  0  0  0
    3.6000   68.7370   65.0830 C   0  0  0  0  0  0  0  0  0  0  0  0
    2.3010   68.2390   64.9010 N   0  0  0  0  0  0  0  0  0  0  0  0
    1.4090   68.0100   66.0510 C   0  0  0  0  0  0  0  0  0  0  0  0
    1.4190   69.1560   67.0780 C   0  0  0  0  0  0  0  0  0  0  0  0
    2.8330   69.5550   67.3090 C   0  0  0  0  0  0  0  0  0  0  0  0
    3.8420   69.3550   66.3860 C   0  0  0  0  0  0  0  0  0  0  0  0
    5.0410   69.8620   66.9630 C   0  0  0  0  0  0  0  0  0  0  0  0
    6.3810   69.9430   66.5250 C   0  0  0  0  0  0  0  0  0  0  0  0
    7.3510   70.5050   67.3610 C   0  0  0  0  0  0  0  0  0  0  0  0
    7.0080   70.9830   68.6190 C   0  0  0  0  0  0  0  0  0  0  0  0
    5.6880   70.9200   69.0790 C   0  0  0  0  0  0  0  0  0  0  0  0
    4.7170   70.3580   68.2330 C   0  0  0  0  0  0  0  0  0  0  0  0
    3.3560   70.1770   68.4080 N   0  0  0  0  0  0  0  0  0  0  0  0
    2.6170   70.5910   69.5810 C   0  0  0  0  0  0  0  0  0  0  0  0
    2.0160   67.5020   63.6750 C   0  0  0  0  0  0  0  0  0  0  0  0
    1.4260   68.4080   62.6400 C   0  0  0  0  0  0  0  0  0  0  0  0
    0.1070   68.8140   62.7370 N   0  0  0  0  0  0  0  0  0  0  0  0
   -0.1060   69.5740   61.6890 C   0  0  0  0  0  0  0  0  0  0  0  0
    1.0100   69.6790   60.9100 N   0  0  0  0  0  0  0  0  0  0  0  0
    2.0050   68.9430   61.5020 C   0  0  0  0  0  0  0  0  0  0  0  0
    3.3630   68.8170   60.9250 C   0  0  0  0  0  0  0  0  0  0  0  0
    0.3822   67.8888   65.6756 H   0  0  0  0  0  0  0  0  0  0  0  0
    1.7750   67.1109   66.5683 H   0  0  0  0  0  0  0  0  0  0  0  0
    0.8488   70.0119   66.6876 H   0  0  0  0  0  0  0  0  0  0  0  0
    0.9560   68.8281   68.0204 H   0  0  0  0  0  0  0  0  0  0  0  0
    6.6607   69.5656   65.5303 H   0  0  0  0  0  0  0  0  0  0  0  0
    8.3946   70.5690   67.0192 H   0  0  0  0  0  0  0  0  0  0  0  0
    7.7860   71.4178   69.2637 H   0  0  0  0  0  0  0  0  0  0  0  0
    5.4179   71.2999   70.0754 H   0  0  0  0  0  0  0  0  0  0  0  0
    3.1632   70.2850   70.4854 H   0  0  0  0  0  0  0  0  0  0  0  0
    2.5019   71.6849   69.5747 H   0  0  0  0  0  0  0  0  0  0  0  0
    1.6240   70.1178   69.5747 H   0  0  0  0  0  0  0  0  0  0  0  0
    2.9506   67.0705   63.2872 H   0  0  0  0  0  0  0  0  0  0  0  0
    1.2932   66.7042   63.9011 H   0  0  0  0  0  0  0  0  0  0  0  0
   -1.0645   70.0654   61.4659 H   0  0  0  0  0  0  0  0  0  0  0  0
    1.0907   70.2150   60.0342 H   0  0  0  0  0  0  0  0  0  0  0  0
    4.1016   68.7485   61.7373 H   0  0  0  0  0  0  0  0  0  0  0  0
    3.4151   67.9102   60.3046 H   0  0  0  0  0  0  0  0  0  0  0  0
    3.5810   69.6988   60.3046 H   0  0  0  0  0  0  0  0  0  0  0  0
  2  1  2  0
  3  2  1  0
  4  3  1  0
  5  4  1  0
  6  5  1  0
  7  2  1  0
  7  6  2  0
  8  7  1  0
  9  8  2  0
 10  9  1  0
 11 10  2  0
 12 11  1  0
 13  8  1  0
 13 12  2  0
 14 13  1  0
 14  6  1  0
 15 14  1  0
 16  3  1  0
 17 16  1  0
 18 17  1  0
 19 18  2  0
 20 19  1  0
 21 20  1  0
 21 17  2  0
 22 21  1  0
  4 23  1  0
  4 24  1  0
  5 25  1  0
  5 26  1  0
  9 27  1  0
 10 28  1  0
 11 29  1  0
 12 30  1  0
 15 31  1  0
 15 32  1  0
 15 33  1  0
 16 34  1  0
 16 35  1  0
 19 36  1  0
 20 37  1  0
 22 38  1  0
 22 39  1  0
 22 40  1  0
M  END
>  <score>  (1) 
-9.846

$$$$
=
     RDKit          3D

 40 43  0  0  0  0  0  0  0  0999 V2000
    1.9900   68.4950   68.7890 O   0  0  0  0  0  0  0  0  0  0  0  0
    2.1330   68.4110   67.5720 C   0  0  0  0  0  0  0  0  0  0  0  0
    1.2350   67.7320   66.7350 N   0  0  0  0  0  0  0  0  0  0  0  0
    1.2570   67.9350   65.2760 C   0  0  0  0  0  0  0  0  0  0  0  0
    2.6730   67.9380   64.6740 C   0  0  0  0  0  0  0  0  0  0  0  0
    3.5430   68.7680   65.5470 C   0  0  0  0  0  0  0  0  0  0  0  0
    3.2890   68.9900   66.8880 C   0  0  0  0  0  0  0  0  0  0  0  0
    4.3330   69.8260   67.3770 C   0  0  0  0  0  0  0  0  0  0  0  0
    4.6260   70.3910   68.6370 C   0  0  0  0  0  0  0  0  0  0  0  0
    5.7570   71.2000   68.7900 C   0  0  0  0  0  0  0  0  0  0  0  0
    6.5950   71.4510   67.7100 C   0  0  0  0  0  0  0  0  0  0  0  0
    6.3340   70.9010   66.4510 C   0  0  0  0  0  0  0  0  0  0  0  0
    5.1980   70.0870   66.3060 C   0  0  0  0  0  0  0  0  0  0  0  0
    4.7020   69.4090   65.2050 N   0  0  0  0  0  0  0  0  0  0  0  0
    5.3280   69.3920   63.9010 C   0  0  0  0  0  0  0  0  0  0  0  0
   -0.0020   67.2310   67.3230 C   0  0  0  0  0  0  0  0  0  0  0  0
   -1.1770   68.0170   66.8300 C   0  0  0  0  0  0  0  0  0  0  0  0
   -2.2140   67.3830   66.1700 N   0  0  0  0  0  0  0  0  0  0  0  0
   -3.0650   68.3310   65.8590 C   0  0  0  0  0  0  0  0  0  0  0  0
   -2.6310   69.5540   66.2810 N   0  0  0  0  0  0  0  0  0  0  0  0
   -1.4250   69.3760   66.9110 C   0  0  0  0  0  0  0  0  0  0  0  0
   -0.6480   70.4960   67.4890 C   0  0  0  0  0  0  0  0  0  0  0  0
    0.6805   67.1258   64.8039 H   0  0  0  0  0  0  0  0  0  0  0  0
    0.8230   68.9271   65.0826 H   0  0  0  0  0  0  0  0  0  0  0  0
    3.0615   66.9099   64.6294 H   0  0  0  0  0  0  0  0  0  0  0  0
    2.6530   68.3490   63.6539 H   0  0  0  0  0  0  0  0  0  0  0  0
    3.9671   70.1958   69.4959 H   0  0  0  0  0  0  0  0  0  0  0  0
    5.9846   71.6405   69.7719 H   0  0  0  0  0  0  0  0  0  0  0  0
    7.4778   72.0926   67.8477 H   0  0  0  0  0  0  0  0  0  0  0  0
    6.9995   71.1001   65.5981 H   0  0  0  0  0  0  0  0  0  0  0  0
    6.4212   69.3623   64.0194 H   0  0  0  0  0  0  0  0  0  0  0  0
    4.9950   68.5026   63.3460 H   0  0  0  0  0  0  0  0  0  0  0  0
    5.0438   70.2982   63.3460 H   0  0  0  0  0  0  0  0  0  0  0  0
   -0.1320   66.1745   67.0457 H   0  0  0  0  0  0  0  0  0  0  0  0
    0.0588   67.3331   68.4166 H   0  0  0  0  0  0  0  0  0  0  0  0
   -4.0112   68.1614   65.3243 H   0  0  0  0  0  0  0  0  0  0  0  0
   -3.1210   70.4504   66.1501 H   0  0  0  0  0  0  0  0  0  0  0  0
   -0.6864   70.4407   68.5869 H   0  0  0  0  0  0  0  0  0  0  0  0
    0.3978   70.4277   67.1547 H   0  0  0  0  0  0  0  0  0  0  0  0
   -1.0781   71.4516   67.1547 H   0  0  0  0  0  0  0  0  0  0  0  0
  2  1  2  0
  3  2  1  0
  4  3  1  0
  5  4  1  0
  6  5  1  0
  7  2  1  0
  7  6  2  0
  8  7  1  0
  9  8  2  0
 10  9  1  0
 11 10  2  0
 12 11  1  0
 13  8  1  0
 13 12  2  0
 14 13  1  0
 14  6  1  0
 15 14  1  0
 16  3  1  0
 17 16  1  0
 18 17  1  0
 19 18  2  0
 20 19  1  0
 21 20  1  0
 21 17  2  0
 22 21  1  0
  4 23  1  0
  4 24  1  0
  5 25  1  0
  5 26  1  0
  9 27  1  0
 10 28  1  0
 11 29  1  0
 12 30  1  0
 15 31  1  0
 15 32  1  0
 15 33  1  0
 16 34  1  0
 16 35  1  0
 19 36  1  0
 20 37  1  0
 22 38  1  0
 22 39  1  0
 22 40  1  0
M  END
>  <score>  (2) 
-8.839

$$$$
=
     RDKit          3D

 40 43  0  0  0  0  0  0  0  0999 V2000
    4.6380   68.8540   64.4480 O   0  0  0  0  0  0  0  0  0  0  0  0
    3.7650   68.8790   65.3120 C   0  0  0  0  0  0  0  0  0  0  0  0
    2.4750   68.3630   65.1190 N   0  0  0  0  0  0  0  0  0  0  0  0
    1.5800   68.1120   66.2630 C   0  0  0  0  0  0  0  0  0  0  0  0
    1.5670   69.2500   67.2980 C   0  0  0  0  0  0  0  0  0  0  0  0
    2.9730   69.6700   67.5390 C   0  0  0  0  0  0  0  0  0  0  0  0
    3.9900   69.4930   66.6210 C   0  0  0  0  0  0  0  0  0  0  0  0
    5.1780   70.0140   67.2080 C   0  0  0  0  0  0  0  0  0  0  0  0
    6.5180   70.1200   66.7780 C   0  0  0  0  0  0  0  0  0  0  0  0
    7.4750   70.6910   67.6230 C   0  0  0  0  0  0  0  0  0  0  0  0
    7.1180   71.1560   68.8830 C   0  0  0  0  0  0  0  0  0  0  0  0
    5.7970   71.0680   69.3350 C   0  0  0  0  0  0  0  0  0  0  0  0
    4.8390   70.4970   68.4790 C   0  0  0  0  0  0  0  0  0  0  0  0
    3.4800   70.2930   68.6460 N   0  0  0  0  0  0  0  0  0  0  0  0
    2.7290   70.6870   69.8170 C   0  0  0  0  0  0  0  0  0  0  0  0
    2.2090   67.6300   63.8870 C   0  0  0  0  0  0  0  0  0  0  0  0
    3.0010   66.3610   63.8470 C   0  0  0  0  0  0  0  0  0  0  0  0
    2.6740   65.3050   64.6790 N   0  0  0  0  0  0  0  0  0  0  0  0
    3.5500   64.3650   64.4170 C   0  0  0  0  0  0  0  0  0  0  0  0
    4.4370   64.7580   63.4570 N   0  0  0  0  0  0  0  0  0  0  0  0
    4.1020   66.0320   63.0730 C   0  0  0  0  0  0  0  0  0  0  0  0
    4.8590   66.7880   62.0500 C   0  0  0  0  0  0  0  0  0  0  0  0
    0.5572   67.9780   65.8811 H   0  0  0  0  0  0  0  0  0  0  0  0
    1.9569   67.2148   66.7758 H   0  0  0  0  0  0  0  0  0  0  0  0
    0.9850   70.0995   66.9111 H   0  0  0  0  0  0  0  0  0  0  0  0
    1.1050   68.9076   68.2357 H   0  0  0  0  0  0  0  0  0  0  0  0
    6.8086   69.7549   65.7819 H   0  0  0  0  0  0  0  0  0  0  0  0
    8.5194   70.7728   67.2874 H   0  0  0  0  0  0  0  0  0  0  0  0
    7.8853   71.5997   69.5344 H   0  0  0  0  0  0  0  0  0  0  0  0
    5.5156   71.4355   70.3329 H   0  0  0  0  0  0  0  0  0  0  0  0
    3.2823   70.3967   70.7223 H   0  0  0  0  0  0  0  0  0  0  0  0
    2.5839   71.7774   69.8098 H   0  0  0  0  0  0  0  0  0  0  0  0
    1.7494   70.1867   69.8098 H   0  0  0  0  0  0  0  0  0  0  0  0
    1.1371   67.3888   63.8342 H   0  0  0  0  0  0  0  0  0  0  0  0
    2.5008   68.2570   63.0316 H   0  0  0  0  0  0  0  0  0  0  0  0
    3.5677   63.3817   64.9098 H   0  0  0  0  0  0  0  0  0  0  0  0
    5.2184   64.1982   63.0869 H   0  0  0  0  0  0  0  0  0  0  0  0
    5.5537   67.4817   62.5462 H   0  0  0  0  0  0  0  0  0  0  0  0
    5.4276   66.0865   61.4218 H   0  0  0  0  0  0  0  0  0  0  0  0
    4.1583   67.3575   61.4218 H   0  0  0  0  0  0  0  0  0  0  0  0
  2  1  2  0
  3  2  1  0
  4  3  1  0
  5  4  1  0
  6  5  1  0
  7  2  1  0
  7  6  2  0
  8  7  1  0
  9  8  2  0
 10  9  1  0
 11 10  2  0
 12 11  1  0
 13  8  1  0
 13 12  2  0
 14 13  1  0
 14  6  1  0
 15 14  1  0
 16  3  1  0
 17 16  1  0
 18 17  1  0
 19 18  2  0
 20 19  1  0
 21 20  1  0
 21 17  2  0
 22 21  1  0
  4 23  1  0
  4 24  1  0
  5 25  1  0
  5 26  1  0
  9 27  1  0
 10 28  1  0
 11 29  1  0
 12 30  1  0
 15 31  1  0
 15 32  1  0
 15 33  1  0
 16 34  1  0
 16 35  1  0
 19 36  1  0
 20 37  1  0
 22 38  1  0
 22 39  1  0
 22 40  1  0
M  END
>  <score>  (3) 
-8.467

$$$$
=
     RDKit          3D

 40 43  0  0  0  0  0  0  0  0999 V2000
    0.0220   60.0990   73.0610 O   0  0  0  0  0  0  0  0  0  0  0  0
    1.1620   59.9600   72.6280 C   0  0  0  0  0  0  0  0  0  0  0  0
    1.8910   58.7670   72.7450 N   0  0  0  0  0  0  0  0  0  0  0  0
    3.1000   58.5340   71.9350 C   0  0  0  0  0  0  0  0  0  0  0  0
    4.0420   59.7480   71.8670 C   0  0  0  0  0  0  0  0  0  0  0  0
    3.2150   60.9600   71.6270 C   0  0  0  0  0  0  0  0  0  0  0  0
    1.8810   61.0540   71.9750 C   0  0  0  0  0  0  0  0  0  0  0  0
    1.4390   62.3510   71.5870 C   0  0  0  0  0  0  0  0  0  0  0  0
    0.2050   63.0310   71.6700 C   0  0  0  0  0  0  0  0  0  0  0  0
    0.0950   64.3340   71.1730 C   0  0  0  0  0  0  0  0  0  0  0  0
    1.1920   64.9640   70.5970 C   0  0  0  0  0  0  0  0  0  0  0  0
    2.4280   64.3170   70.5040 C   0  0  0  0  0  0  0  0  0  0  0  0
    2.5330   63.0100   71.0090 C   0  0  0  0  0  0  0  0  0  0  0  0
    3.6110   62.1430   71.0670 N   0  0  0  0  0  0  0  0  0  0  0  0
    4.9440   62.4590   70.6030 C   0  0  0  0  0  0  0  0  0  0  0  0
    1.2040   57.5950   73.2760 C   0  0  0  0  0  0  0  0  0  0  0  0
    2.0290   56.9350   74.3360 C   0  0  0  0  0  0  0  0  0  0  0  0
    2.7440   57.6980   75.2420 N   0  0  0  0  0  0  0  0  0  0  0  0
    3.3630   56.8380   76.0150 C   0  0  0  0  0  0  0  0  0  0  0  0
    3.0900   55.5510   75.6550 N   0  0  0  0  0  0  0  0  0  0  0  0
    2.2330   55.5880   74.5840 C   0  0  0  0  0  0  0  0  0  0  0  0
    1.7290   54.3670   73.9160 C   0  0  0  0  0  0  0  0  0  0  0  0
    3.6531   57.6893   72.3716 H   0  0  0  0  0  0  0  0  0  0  0  0
    2.7642   58.3297   70.9076 H   0  0  0  0  0  0  0  0  0  0  0  0
    4.5875   59.8506   72.8167 H   0  0  0  0  0  0  0  0  0  0  0  0
    4.7735   59.6184   71.0558 H   0  0  0  0  0  0  0  0  0  0  0  0
   -0.6673   62.5380   72.1240 H   0  0  0  0  0  0  0  0  0  0  0  0
   -0.8667   64.8639   71.2385 H   0  0  0  0  0  0  0  0  0  0  0  0
    1.0861   65.9876   70.2083 H   0  0  0  0  0  0  0  0  0  0  0  0
    3.2948   64.8176   70.0478 H   0  0  0  0  0  0  0  0  0  0  0  0
    5.6056   62.6158   71.4677 H   0  0  0  0  0  0  0  0  0  0  0  0
    5.3272   61.6268   69.9942 H   0  0  0  0  0  0  0  0  0  0  0  0
    4.9129   63.3747   69.9942 H   0  0  0  0  0  0  0  0  0  0  0  0
    0.2414   57.9055   73.7084 H   0  0  0  0  0  0  0  0  0  0  0  0
    1.0406   56.8789   72.4571 H   0  0  0  0  0  0  0  0  0  0  0  0
    4.0209   57.1198   76.8503 H   0  0  0  0  0  0  0  0  0  0  0  0
    3.4609   54.7028   76.1065 H   0  0  0  0  0  0  0  0  0  0  0  0
    1.4256   53.6319   74.6760 H   0  0  0  0  0  0  0  0  0  0  0  0
    0.8632   54.6235   73.2878 H   0  0  0  0  0  0  0  0  0  0  0  0
    2.5236   53.9382   73.2878 H   0  0  0  0  0  0  0  0  0  0  0  0
  2  1  2  0
  3  2  1  0
  4  3  1  0
  5  4  1  0
  6  5  1  0
  7  2  1  0
  7  6  2  0
  8  7  1  0
  9  8  2  0
 10  9  1  0
 11 10  2  0
 12 11  1  0
 13  8  1  0
 13 12  2  0
 14 13  1  0
 14  6  1  0
 15 14  1  0
 16  3  1  0
 17 16  1  0
 18 17  1  0
 19 18  2  0
 20 19  1  0
 21 20  1  0
 21 17  2  0
 22 21  1  0
  4 23  1  0
  4 24  1  0
  5 25  1  0
  5 26  1  0
  9 27  1  0
 10 28  1  0
 11 29  1  0
 12 30  1  0
 15 31  1  0
 15 32  1  0
 15 33  1  0
 16 34  1  0
 16 35  1  0
 19 36  1  0
 20 37  1  0
 22 38  1  0
 22 39  1  0
 22 40  1  0
M  END
>  <score>  (4) 
-8.004

$$$$
=
     RDKit          3D

 40 43  0  0  0  0  0  0  0  0999 V2000
    3.2510   68.6330   66.9220 O   0  0  0  0  0  0  0  0  0  0  0  0
    2.2180   68.7410   66.2670 C   0  0  0  0  0  0  0  0  0  0  0  0
    0.9400   68.7840   66.8450 N   0  0  0  0  0  0  0  0  0  0  0  0
   -0.2270   69.2440   66.0710 C   0  0  0  0  0  0  0  0  0  0  0  0
   -0.2880   68.6680   64.6460 C   0  0  0  0  0  0  0  0  0  0  0  0
    1.0720   68.7600   64.0530 C   0  0  0  0  0  0  0  0  0  0  0  0
    2.2310   68.7990   64.8050 C   0  0  0  0  0  0  0  0  0  0  0  0
    3.3190   68.8870   63.8920 C   0  0  0  0  0  0  0  0  0  0  0  0
    4.7210   68.9620   64.0420 C   0  0  0  0  0  0  0  0  0  0  0  0
    5.5360   69.0530   62.9090 C   0  0  0  0  0  0  0  0  0  0  0  0
    4.9780   69.0720   61.6370 C   0  0  0  0  0  0  0  0  0  0  0  0
    3.5930   68.9950   61.4560 C   0  0  0  0  0  0  0  0  0  0  0  0
    2.7800   68.9000   62.5980 C   0  0  0  0  0  0  0  0  0  0  0  0
    1.4050   68.7980   62.7270 N   0  0  0  0  0  0  0  0  0  0  0  0
    0.4780   68.7410   61.6180 C   0  0  0  0  0  0  0  0  0  0  0  0
    0.8490   68.8520   68.2990 C   0  0  0  0  0  0  0  0  0  0  0  0
    0.5980   67.4940   68.8760 C   0  0  0  0  0  0  0  0  0  0  0  0
    1.5280   66.9100   69.7180 N   0  0  0  0  0  0  0  0  0  0  0  0
    1.0290   65.7390   70.0340 C   0  0  0  0  0  0  0  0  0  0  0  0
   -0.1790   65.5290   69.4360 N   0  0  0  0  0  0  0  0  0  0  0  0
   -0.4780   66.6420   68.6920 C   0  0  0  0  0  0  0  0  0  0  0  0
   -1.7170   66.7640   67.8910 C   0  0  0  0  0  0  0  0  0  0  0  0
   -1.1396   68.9437   66.6066 H   0  0  0  0  0  0  0  0  0  0  0  0
   -0.1387   70.3361   65.9735 H   0  0  0  0  0  0  0  0  0  0  0  0
   -0.6088   67.6164   64.6821 H   0  0  0  0  0  0  0  0  0  0  0  0
   -1.0088   69.2330   64.0367 H   0  0  0  0  0  0  0  0  0  0  0  0
    5.1704   68.9489   65.0459 H   0  0  0  0  0  0  0  0  0  0  0  0
    6.6283   69.1100   63.0262 H   0  0  0  0  0  0  0  0  0  0  0  0
    5.6354   69.1488   60.7584 H   0  0  0  0  0  0  0  0  0  0  0  0
    3.1528   69.0084   60.4480 H   0  0  0  0  0  0  0  0  0  0  0  0
   -0.5506   68.6778   62.0028 H   0  0  0  0  0  0  0  0  0  0  0  0
    0.5847   69.6474   61.0040 H   0  0  0  0  0  0  0  0  0  0  0  0
    0.6949   67.8545   61.0040 H   0  0  0  0  0  0  0  0  0  0  0  0
    1.7932   69.2470   68.7021 H   0  0  0  0  0  0  0  0  0  0  0  0
    0.0127   69.5127   68.5711 H   0  0  0  0  0  0  0  0  0  0  0  0
    1.5234   65.0156   70.6990 H   0  0  0  0  0  0  0  0  0  0  0  0
   -0.7626   64.6851   69.5269 H   0  0  0  0  0  0  0  0  0  0  0  0
   -2.5823   66.8492   68.5648 H   0  0  0  0  0  0  0  0  0  0  0  0
   -1.6566   67.6605   67.2565 H   0  0  0  0  0  0  0  0  0  0  0  0
   -1.8327   65.8729   67.2565 H   0  0  0  0  0  0  0  0  0  0  0  0
  2  1  2  0
  3  2  1  0
  4  3  1  0
  5  4  1  0
  6  5  1  0
  7  2  1  0
  7  6  2  0
  8  7  1  0
  9  8  2  0
 10  9  1  0
 11 10  2  0
 12 11  1  0
 13  8  1  0
 13 12  2  0
 14 13  1  0
 14  6  1  0
 15 14  1  0
 16  3  1  0
 17 16  1  0
 18 17  1  0
 19 18  2  0
 20 19  1  0
 21 20  1  0
 21 17  2  0
 22 21  1  0
  4 23  1  0
  4 24  1  0
  5 25  1  0
  5 26  1  0
  9 27  1  0
 10 28  1  0
 11 29  1  0
 12 30  1  0
 15 31  1  0
 15 32  1  0
 15 33  1  0
 16 34  1  0
 16 35  1  0
 19 36  1  0
 20 37  1  0
 22 38  1  0
 22 39  1  0
 22 40  1  0
M  END
>  <score>  (5) 
-7.852

$$$$
=
     RDKit          3D

 40 43  0  0  0  0  0  0  0  0999 V2000
    3.3690   68.5720   66.7530 O   0  0  0  0  0  0  0  0  0  0  0  0
    2.2990   68.5390   66.1520 C   0  0  0  0  0  0  0  0  0  0  0  0
    2.1410   68.9960   64.8340 N   0  0  0  0  0  0  0  0  0  0  0  0
    0.9490   68.6380   64.0450 C   0  0  0  0  0  0  0  0  0  0  0  0
   -0.3690   68.7590   64.8290 C   0  0  0  0  0  0  0  0  0  0  0  0
   -0.1640   68.1530   66.1710 C   0  0  0  0  0  0  0  0  0  0  0  0
    1.0730   68.0480   66.7800 C   0  0  0  0  0  0  0  0  0  0  0  0
    0.8660   67.4180   68.0400 C   0  0  0  0  0  0  0  0  0  0  0  0
    1.7200   67.0390   69.0980 C   0  0  0  0  0  0  0  0  0  0  0  0
    1.1880   66.4110   70.2290 C   0  0  0  0  0  0  0  0  0  0  0  0
   -0.1750   66.1570   70.3190 C   0  0  0  0  0  0  0  0  0  0  0  0
   -1.0470   66.5240   69.2890 C   0  0  0  0  0  0  0  0  0  0  0  0
   -0.5060   67.1590   68.1580 C   0  0  0  0  0  0  0  0  0  0  0  0
   -1.1140   67.6390   67.0100 N   0  0  0  0  0  0  0  0  0  0  0  0
   -2.5370   67.5950   66.7550 C   0  0  0  0  0  0  0  0  0  0  0  0
    3.3380   69.3890   64.0990 C   0  0  0  0  0  0  0  0  0  0  0  0
    3.8320   68.2580   63.2520 C   0  0  0  0  0  0  0  0  0  0  0  0
    4.4750   67.1800   63.8330 N   0  0  0  0  0  0  0  0  0  0  0  0
    4.7930   66.3830   62.8410 C   0  0  0  0  0  0  0  0  0  0  0  0
    4.3910   66.8910   61.6400 N   0  0  0  0  0  0  0  0  0  0  0  0
    3.7690   68.0910   61.8790 C   0  0  0  0  0  0  0  0  0  0  0  0
    3.2120   68.9360   60.7990 C   0  0  0  0  0  0  0  0  0  0  0  0
    0.8967   69.3053   63.1721 H   0  0  0  0  0  0  0  0  0  0  0  0
    1.0576   67.5815   63.7587 H   0  0  0  0  0  0  0  0  0  0  0  0
   -0.6434   69.8188   64.9362 H   0  0  0  0  0  0  0  0  0  0  0  0
   -1.1792   68.2402   64.2957 H   0  0  0  0  0  0  0  0  0  0  0  0
    2.8001   67.2368   69.0333 H   0  0  0  0  0  0  0  0  0  0  0  0
    1.8538   66.1160   71.0534 H   0  0  0  0  0  0  0  0  0  0  0  0
   -0.5747   65.6592   71.2148 H   0  0  0  0  0  0  0  0  0  0  0  0
   -2.1257   66.3214   69.3621 H   0  0  0  0  0  0  0  0  0  0  0  0
   -3.0805   67.5782   67.7112 H   0  0  0  0  0  0  0  0  0  0  0  0
   -2.8341   68.4844   66.1799 H   0  0  0  0  0  0  0  0  0  0  0  0
   -2.7786   66.6890   66.1799 H   0  0  0  0  0  0  0  0  0  0  0  0
    3.1001   70.2471   63.4531 H   0  0  0  0  0  0  0  0  0  0  0  0
    4.1231   69.6611   64.8198 H   0  0  0  0  0  0  0  0  0  0  0  0
    5.3184   65.4242   62.9621 H   0  0  0  0  0  0  0  0  0  0  0  0
    4.5296   66.4522   60.7185 H   0  0  0  0  0  0  0  0  0  0  0  0
    2.6575   69.7772   61.2406 H   0  0  0  0  0  0  0  0  0  0  0  0
    4.0321   69.3237   60.1769 H   0  0  0  0  0  0  0  0  0  0  0  0
    2.5324   68.3351   60.1769 H   0  0  0  0  0  0  0  0  0  0  0  0
  2  1  2  0
  3  2  1  0
  4  3  1  0
  5  4  1  0
  6  5  1  0
  7  2  1  0
  7  6  2  0
  8  7  1  0
  9  8  2  0
 10  9  1  0
 11 10  2  0
 12 11  1  0
 13  8  1  0
 13 12  2  0
 14 13  1  0
 14  6  1  0
 15 14  1  0
 16  3  1  0
 17 16  1  0
 18 17  1  0
 19 18  2  0
 20 19  1  0
 21 20  1  0
 21 17  2  0
 22 21  1  0
  4 23  1  0
  4 24  1  0
  5 25  1  0
  5 26  1  0
  9 27  1  0
 10 28  1  0
 11 29  1  0
 12 30  1  0
 15 31  1  0
 15 32  1  0
 15 33  1  0
 16 34  1  0
 16 35  1  0
 19 36  1  0
 20 37  1  0
 22 38  1  0
 22 39  1  0
 22 40  1  0
M  END
>  <score>  (6) 
-7.531

$$$$
=
     RDKit          3D

 40 43  0  0  0  0  0  0  0  0999 V2000
   -0.8160   59.4210   74.0220 O   0  0  0  0  0  0  0  0  0  0  0  0
    0.2170   59.0110   73.4990 C   0  0  0  0  0  0  0  0  0  0  0  0
    0.6760   57.6910   73.6290 N   0  0  0  0  0  0  0  0  0  0  0  0
    1.7170   57.1590   72.7310 C   0  0  0  0  0  0  0  0  0  0  0  0
    2.8900   58.1280   72.5040 C   0  0  0  0  0  0  0  0  0  0  0  0
    2.3280   59.4830   72.2590 C   0  0  0  0  0  0  0  0  0  0  0  0
    1.0880   59.8880   72.7170 C   0  0  0  0  0  0  0  0  0  0  0  0
    0.9040   61.2330   72.2870 C   0  0  0  0  0  0  0  0  0  0  0  0
   -0.1370   62.1750   72.4350 C   0  0  0  0  0  0  0  0  0  0  0  0
   -0.0090   63.4460   71.8660 C   0  0  0  0  0  0  0  0  0  0  0  0
    1.1360   63.7900   71.1570 C   0  0  0  0  0  0  0  0  0  0  0  0
    2.1860   62.8800   70.9970 C   0  0  0  0  0  0  0  0  0  0  0  0
    2.0520   61.6050   71.5740 C   0  0  0  0  0  0  0  0  0  0  0  0
    2.9150   60.5220   71.5920 N   0  0  0  0  0  0  0  0  0  0  0  0
    4.2310   60.5120   70.9940 C   0  0  0  0  0  0  0  0  0  0  0  0
   -0.1940   56.7270   74.2910 C   0  0  0  0  0  0  0  0  0  0  0  0
    0.5890   55.8770   75.2430 C   0  0  0  0  0  0  0  0  0  0  0  0
    1.1540   56.4340   76.3760 N   0  0  0  0  0  0  0  0  0  0  0  0
    1.7750   55.4500   76.9810 C   0  0  0  0  0  0  0  0  0  0  0  0
    1.6460   54.2780   76.2950 N   0  0  0  0  0  0  0  0  0  0  0  0
    0.8860   54.5260   75.1790 C   0  0  0  0  0  0  0  0  0  0  0  0
    0.5490   53.4800   74.1880 C   0  0  0  0  0  0  0  0  0  0  0  0
    2.1127   56.2308   73.1691 H   0  0  0  0  0  0  0  0  0  0  0  0
    1.2434   56.9917   71.7524 H   0  0  0  0  0  0  0  0  0  0  0  0
    3.5355   58.1473   73.3945 H   0  0  0  0  0  0  0  0  0  0  0  0
    3.4919   57.8032   71.6425 H   0  0  0  0  0  0  0  0  0  0  0  0
   -1.0455   61.9102   72.9958 H   0  0  0  0  0  0  0  0  0  0  0  0
   -0.8209   64.1793   71.9804 H   0  0  0  0  0  0  0  0  0  0  0  0
    1.2176   64.7939   70.7147 H   0  0  0  0  0  0  0  0  0  0  0  0
    3.0913   63.1542   70.4355 H   0  0  0  0  0  0  0  0  0  0  0  0
    4.9938   60.5062   71.7865 H   0  0  0  0  0  0  0  0  0  0  0  0
    4.3435   59.6130   70.3702 H   0  0  0  0  0  0  0  0  0  0  0  0
    4.3571   61.4092   70.3702 H   0  0  0  0  0  0  0  0  0  0  0  0
   -0.9749   57.2668   74.8467 H   0  0  0  0  0  0  0  0  0  0  0  0
   -0.6492   56.0780   73.5284 H   0  0  0  0  0  0  0  0  0  0  0  0
    2.3308   55.5565   77.9243 H   0  0  0  0  0  0  0  0  0  0  0  0
    2.0473   53.3690   76.5661 H   0  0  0  0  0  0  0  0  0  0  0  0
    0.2525   52.5598   74.7126 H   0  0  0  0  0  0  0  0  0  0  0  0
   -0.2829   53.8268   73.5574 H   0  0  0  0  0  0  0  0  0  0  0  0
    1.4269   53.2759   73.5574 H   0  0  0  0  0  0  0  0  0  0  0  0
  2  1  2  0
  3  2  1  0
  4  3  1  0
  5  4  1  0
  6  5  1  0
  7  2  1  0
  7  6  2  0
  8  7  1  0
  9  8  2  0
 10  9  1  0
 11 10  2  0
 12 11  1  0
 13  8  1  0
 13 12  2  0
 14 13  1  0
 14  6  1  0
 15 14  1  0
 16  3  1  0
 17 16  1  0
 18 17  1  0
 19 18  2  0
 20 19  1  0
 21 20  1  0
 21 17  2  0
 22 21  1  0
  4 23  1  0
  4 24  1  0
  5 25  1  0
  5 26  1  0
  9 27  1  0
 10 28  1  0
 11 29  1  0
 12 30  1  0
 15 31  1  0
 15 32  1  0
 15 33  1  0
 16 34  1  0
 16 35  1  0
 19 36  1  0
 20 37  1  0
 22 38  1  0
 22 39  1  0
 22 40  1  0
M  END
>  <score>  (7) 
-7.051

$$$$
