=
     RDKit          3D

 51 52  0  0  0  0  0  0  0  0999 V2000
    0.3590   65.0090   70.8870 C   0  0  0  0  0  0  0  0  0  0  0  0
    0.2160   65.7890   69.6930 O   0  0  0  0  0  0  0  0  0  0  0  0
    1.2580   66.7420   69.5050 C   0  0  0  0  0  0  0  0  0  0  0  0
    0.7760   67.7580   68.4640 C   0  0  0  0  0  0  0  0  0  0  0  0
    0.5500   67.1710   67.0760 N   0  0  0  0  0  4  0  0  0  0  0  0
   -1.9340   67.4240   67.2950 C   0  0  0  0  0  0  0  0  0  0  0  0
   -0.7290   67.6200   66.3940 C   0  0  0  0  0  0  0  0  0  0  0  0
    1.7760   67.3280   66.1910 C   0  0  0  0  0  0  0  0  0  0  0  0
    1.9540   68.7770   65.7730 C   0  0  0  0  0  0  0  0  0  0  0  0
    0.5510   63.5250   70.5650 C   0  0  0  0  0  0  0  0  0  0  0  0
    1.9940   63.1650   70.3800 C   0  0  0  0  0  0  0  0  0  0  0  0
    3.0370   63.8510   70.8890 C   0  0  0  0  0  0  0  0  0  0  0  0
    4.4630   63.3940   70.6430 C   0  0  0  0  0  0  0  0  0  0  0  0
    4.4470   62.1280   69.7620 C   0  0  2  0  0  0  0  0  0  0  0  0
    3.5110   62.3530   68.5300 C   0  0  0  0  0  0  0  0  0  0  0  0
    2.3550   61.9720   69.5260 C   0  0  1  0  0  0  0  0  0  0  0  0
    3.4180   60.9960   70.2030 C   0  0  0  0  0  0  0  0  0  0  0  0
    3.5920   59.6390   69.4930 C   0  0  0  0  0  0  0  0  0  0  0  0
    3.2830   60.7120   71.7060 C   0  0  0  0  0  0  0  0  0  0  0  0
    1.2341   65.3697   71.4475 H   0  0  0  0  0  0  0  0  0  0  0  0
   -0.5587   65.1179   71.4836 H   0  0  0  0  0  0  0  0  0  0  0  0
    1.4748   67.2527   70.4548 H   0  0  0  0  0  0  0  0  0  0  0  0
    2.1778   66.2454   69.1624 H   0  0  0  0  0  0  0  0  0  0  0  0
   -0.1735   68.1879   68.8155 H   0  0  0  0  0  0  0  0  0  0  0  0
    1.5729   68.5096   68.3634 H   0  0  0  0  0  0  0  0  0  0  0  0
    0.4062   66.1630   67.2312 H   0  0  0  0  0  0  0  0  0  0  0  0
   -1.6173   67.4755   68.3472 H   0  0  0  0  0  0  0  0  0  0  0  0
   -2.6733   68.2137   67.0955 H   0  0  0  0  0  0  0  0  0  0  0  0
   -2.3849   66.4407   67.0955 H   0  0  0  0  0  0  0  0  0  0  0  0
   -0.8699   67.0325   65.4748 H   0  0  0  0  0  0  0  0  0  0  0  0
   -0.6403   68.6916   66.1621 H   0  0  0  0  0  0  0  0  0  0  0  0
    2.6669   67.0004   66.7468 H   0  0  0  0  0  0  0  0  0  0  0  0
    1.6419   66.7134   65.2886 H   0  0  0  0  0  0  0  0  0  0  0  0
    2.0318   69.4102   66.6691 H   0  0  0  0  0  0  0  0  0  0  0  0
    2.8710   68.8757   65.1736 H   0  0  0  0  0  0  0  0  0  0  0  0
    1.0881   69.0947   65.1736 H   0  0  0  0  0  0  0  0  0  0  0  0
    0.1407   62.9276   71.3925 H   0  0  0  0  0  0  0  0  0  0  0  0
    0.0282   63.3154   69.6202 H   0  0  0  0  0  0  0  0  0  0  0  0
    2.8520   64.7534   71.4902 H   0  0  0  0  0  0  0  0  0  0  0  0
    5.0213   64.1913   70.1306 H   0  0  0  0  0  0  0  0  0  0  0  0
    4.9490   63.1686   71.6037 H   0  0  0  0  0  0  0  0  0  0  0  0
    5.5233   61.9069   69.7095 H   0  0  0  0  0  0  0  0  0  0  0  0
    3.4796   63.3833   68.1460 H   0  0  0  0  0  0  0  0  0  0  0  0
    3.6602   61.8552   67.5605 H   0  0  0  0  0  0  0  0  0  0  0  0
    1.3608   61.6133   69.2211 H   0  0  0  0  0  0  0  0  0  0  0  0
    3.6941   58.8424   70.2446 H   0  0  0  0  0  0  0  0  0  0  0  0
    2.7122   59.4389   68.8638 H   0  0  0  0  0  0  0  0  0  0  0  0
    4.4939   59.6673   68.8638 H   0  0  0  0  0  0  0  0  0  0  0  0
    3.6866   61.5610   72.2773 H   0  0  0  0  0  0  0  0  0  0  0  0
    2.2217   60.5714   71.9587 H   0  0  0  0  0  0  0  0  0  0  0  0
    3.8440   59.8002   71.9587 H   0  0  0  0  0  0  0  0  0  0  0  0
  2  1  1  0
  3  2  1  0
  4  3  1  0
  5  4  1  0
  7  6  1  0
  7  5  1  0
  8  5  1  0
  9  8  1  0
 10  1  1  0
 11 10  1  0
 12 11  2  0
 13 12  1  0
 14 13  1  0
 15 14  1  0
 16 15  1  0
 16 11  1  0
 17 16  1  0
 17 14  1  0
 18 17  1  0
 19 17  1  0
  1 20  1  0
  1 21  1  0
  3 22  1  0
  3 23  1  0
  4 24  1  0
  4 25  1  0
  5 26  1  0
  6 27  1  0
  6 28  1  0
  6 29  1  0
  7 30  1  0
  7 31  1  0
  8 32  1  0
  8 33  1  0
  9 34  1  0
  9 35  1  0
  9 36  1  0
 10 37  1  0
 10 38  1  0
 12 39  1  0
 13 40  1  0
 13 41  1  0
 14 42  1  6
 15 43  1  0
 15 44  1  0
 16 45  1  6
 18 46  1  0
 18 47  1  0
 18 48  1  0
 19 49  1  0
 19 50  1  0
 19 51  1  0
M  CHG  1   5   1
M  END
>  <score>  (1) 
-7.323

$$$$
=
     RDKit          3D

 51 52  0  0  0  0  0  0  0  0999 V2000
    0.1480   69.0690   63.2810 C   0  0  0  0  0  0  0  0  0  0  0  0
    0.0020   68.1250   64.3500 O   0  0  0  0  0  0  0  0  0  0  0  0
   -0.5910   68.6770   65.5220 C   0  0  0  0  0  0  0  0  0  0  0  0
   -0.4300   67.6520   66.6500 C   0  0  0  0  0  0  0  0  0  0  0  0
    0.2520   68.1970   67.8980 N   0  0  0  0  0  4  0  0  0  0  0  0
    0.4440   66.4800   69.7140 C   0  0  0  0  0  0  0  0  0  0  0  0
    1.1690   67.2160   68.6040 C   0  0  0  0  0  0  0  0  0  0  0  0
    0.9130   69.5400   67.6380 C   0  0  0  0  0  0  0  0  0  0  0  0
    2.3890   69.4900   67.9930 C   0  0  0  0  0  0  0  0  0  0  0  0
    1.3360   68.7180   62.3830 C   0  0  0  0  0  0  0  0  0  0  0  0
    2.5790   68.4320   63.1700 C   0  0  0  0  0  0  0  0  0  0  0  0
    3.0340   69.1750   64.1990 C   0  0  0  0  0  0  0  0  0  0  0  0
    4.3070   68.7910   64.9320 C   0  0  0  0  0  0  0  0  0  0  0  0
    4.9000   67.5190   64.2900 C   0  0  2  0  0  0  0  0  0  0  0  0
    4.9540   67.6880   62.7360 C   0  0  0  0  0  0  0  0  0  0  0  0
    3.4430   67.2530   62.7860 C   0  0  1  0  0  0  0  0  0  0  0  0
    3.8660   66.3390   64.0210 C   0  0  0  0  0  0  0  0  0  0  0  0
    4.5010   64.9870   63.6340 C   0  0  0  0  0  0  0  0  0  0  0  0
    2.8170   66.0580   65.1040 C   0  0  0  0  0  0  0  0  0  0  0  0
   -0.7704   69.0686   62.6756 H   0  0  0  0  0  0  0  0  0  0  0  0
    0.3272   70.0621   63.7189 H   0  0  0  0  0  0  0  0  0  0  0  0
   -0.0842   69.6151   65.7925 H   0  0  0  0  0  0  0  0  0  0  0  0
   -1.6548   68.8974   65.3494 H   0  0  0  0  0  0  0  0  0  0  0  0
   -1.4298   67.2912   66.9332 H   0  0  0  0  0  0  0  0  0  0  0  0
    0.2176   66.8529   66.2601 H   0  0  0  0  0  0  0  0  0  0  0  0
   -0.5096   68.3521   68.5739 H   0  0  0  0  0  0  0  0  0  0  0  0
    0.8014   66.8429   70.6890 H   0  0  0  0  0  0  0  0  0  0  0  0
   -0.6375   66.6619   69.6291 H   0  0  0  0  0  0  0  0  0  0  0  0
    0.6422   65.4013   69.6291 H   0  0  0  0  0  0  0  0  0  0  0  0
    2.0181   67.7667   69.0350 H   0  0  0  0  0  0  0  0  0  0  0  0
    1.5163   66.4761   67.8678 H   0  0  0  0  0  0  0  0  0  0  0  0
    0.8062   69.7949   66.5733 H   0  0  0  0  0  0  0  0  0  0  0  0
    0.4245   70.3015   68.2637 H   0  0  0  0  0  0  0  0  0  0  0  0
    2.5031   69.4861   69.0871 H   0  0  0  0  0  0  0  0  0  0  0  0
    2.8360   68.5762   67.5745 H   0  0  0  0  0  0  0  0  0  0  0  0
    2.8968   70.3715   67.5745 H   0  0  0  0  0  0  0  0  0  0  0  0
    1.0802   67.8276   61.7899 H   0  0  0  0  0  0  0  0  0  0  0  0
    1.5383   69.5859   61.7381 H   0  0  0  0  0  0  0  0  0  0  0  0
    2.4762   70.0702   64.5112 H   0  0  0  0  0  0  0  0  0  0  0  0
    5.0348   69.6127   64.8600 H   0  0  0  0  0  0  0  0  0  0  0  0
    4.0792   68.5981   65.9907 H   0  0  0  0  0  0  0  0  0  0  0  0
    5.7711   67.3525   64.9408 H   0  0  0  0  0  0  0  0  0  0  0  0
    5.1363   68.7130   62.3809 H   0  0  0  0  0  0  0  0  0  0  0  0
    5.7036   67.1933   62.1009 H   0  0  0  0  0  0  0  0  0  0  0  0
    2.8838   66.8400   61.9335 H   0  0  0  0  0  0  0  0  0  0  0  0
    4.7625   64.4303   64.5460 H   0  0  0  0  0  0  0  0  0  0  0  0
    3.7837   64.4016   63.0401 H   0  0  0  0  0  0  0  0  0  0  0  0
    5.4096   65.1653   63.0401 H   0  0  0  0  0  0  0  0  0  0  0  0
    3.2736   66.1803   66.0973 H   0  0  0  0  0  0  0  0  0  0  0  0
    1.9801   66.7636   64.9957 H   0  0  0  0  0  0  0  0  0  0  0  0
    2.4449   65.0285   64.9957 H   0  0  0  0  0  0  0  0  0  0  0  0
  2  1  1  0
  3  2  1  0
  4  3  1  0
  5  4  1  0
  7  6  1  0
  7  5  1  0
  8  5  1  0
  9  8  1  0
 10  1  1  0
 11 10  1  0
 12 11  2  0
 13 12  1  0
 14 13  1  0
 15 14  1  0
 16 15  1  0
 16 11  1  0
 17 16  1  0
 17 14  1  0
 18 17  1  0
 19 17  1  0
  1 20  1  0
  1 21  1  0
  3 22  1  0
  3 23  1  0
  4 24  1  0
  4 25  1  0
  5 26  1  0
  6 27  1  0
  6 28  1  0
  6 29  1  0
  7 30  1  0
  7 31  1  0
  8 32  1  0
  8 33  1  0
  9 34  1  0
  9 35  1  0
  9 36  1  0
 10 37  1  0
 10 38  1  0
 12 39  1  0
 13 40  1  0
 13 41  1  0
 14 42  1  1
 15 43  1  0
 15 44  1  0
 16 45  1  6
 18 46  1  0
 18 47  1  0
 18 48  1  0
 19 49  1  0
 19 50  1  0
 19 51  1  0
M  CHG  1   5   1
M  END
>  <score>  (2) 
-7.064

$$$$
=
     RDKit          3D

 51 52  0  0  0  0  0  0  0  0999 V2000
    0.4460   65.2080   70.6750 C   0  0  0  0  0  0  0  0  0  0  0  0
    0.2670   65.8040   69.3840 O   0  0  0  0  0  0  0  0  0  0  0  0
    0.9800   67.0260   69.2160 C   0  0  0  0  0  0  0  0  0  0  0  0
    0.4750   67.6840   67.9260 C   0  0  0  0  0  0  0  0  0  0  0  0
    1.3100   68.8710   67.4620 N   0  0  0  0  0  4  0  0  0  0  0  0
    2.5920   70.5900   68.7590 C   0  0  0  0  0  0  0  0  0  0  0  0
    2.5470   69.1460   68.2960 C   0  0  0  0  0  0  0  0  0  0  0  0
    1.6050   68.8040   65.9730 C   0  0  0  0  0  0  0  0  0  0  0  0
    3.0980   68.6710   65.7270 C   0  0  0  0  0  0  0  0  0  0  0  0
    0.5930   63.6880   70.5740 C   0  0  0  0  0  0  0  0  0  0  0  0
    2.0180   63.2660   70.3850 C   0  0  0  0  0  0  0  0  0  0  0  0
    3.0930   63.9170   70.8760 C   0  0  0  0  0  0  0  0  0  0  0  0
    4.4970   63.3980   70.6280 C   0  0  0  0  0  0  0  0  0  0  0  0
    4.4230   62.1190   69.7680 C   0  0  2  0  0  0  0  0  0  0  0  0
    3.4870   62.3620   68.5390 C   0  0  0  0  0  0  0  0  0  0  0  0
    2.3240   62.0450   69.5490 C   0  0  1  0  0  0  0  0  0  0  0  0
    3.3510   61.0380   70.2360 C   0  0  0  0  0  0  0  0  0  0  0  0
    3.4650   59.6630   69.5470 C   0  0  0  0  0  0  0  0  0  0  0  0
    3.2160   60.7850   71.7430 C   0  0  0  0  0  0  0  0  0  0  0  0
    1.3520   65.6249   71.1389 H   0  0  0  0  0  0  0  0  0  0  0  0
   -0.4426   65.4297   71.2843 H   0  0  0  0  0  0  0  0  0  0  0  0
    0.7940   67.6897   70.0733 H   0  0  0  0  0  0  0  0  0  0  0  0
    2.0619   66.8368   69.1552 H   0  0  0  0  0  0  0  0  0  0  0  0
    0.4787   66.9267   67.1282 H   0  0  0  0  0  0  0  0  0  0  0  0
   -0.5319   68.0709   68.1417 H   0  0  0  0  0  0  0  0  0  0  0  0
    0.7161   69.6969   67.6237 H   0  0  0  0  0  0  0  0  0  0  0  0
    2.5930   70.6226   69.8585 H   0  0  0  0  0  0  0  0  0  0  0  0
    3.5055   71.0692   68.3771 H   0  0  0  0  0  0  0  0  0  0  0  0
    1.7101   71.1252   68.3771 H   0  0  0  0  0  0  0  0  0  0  0  0
    3.4410   68.9362   67.6904 H   0  0  0  0  0  0  0  0  0  0  0  0
    2.5169   68.4981   69.1844 H   0  0  0  0  0  0  0  0  0  0  0  0
    1.0890   67.9337   65.5414 H   0  0  0  0  0  0  0  0  0  0  0  0
    1.2498   69.7314   65.5000 H   0  0  0  0  0  0  0  0  0  0  0  0
    3.6257   68.6240   66.6910 H   0  0  0  0  0  0  0  0  0  0  0  0
    3.2951   67.7517   65.1559 H   0  0  0  0  0  0  0  0  0  0  0  0
    3.4544   69.5409   65.1559 H   0  0  0  0  0  0  0  0  0  0  0  0
    0.2091   63.2332   71.4991 H   0  0  0  0  0  0  0  0  0  0  0  0
    0.0232   63.3524   69.6949 H   0  0  0  0  0  0  0  0  0  0  0  0
    2.9497   64.8358   71.4636 H   0  0  0  0  0  0  0  0  0  0  0  0
    5.0836   64.1633   70.0987 H   0  0  0  0  0  0  0  0  0  0  0  0
    4.9803   63.1685   71.5891 H   0  0  0  0  0  0  0  0  0  0  0  0
    5.4888   61.8528   69.7111 H   0  0  0  0  0  0  0  0  0  0  0  0
    3.4947   63.3863   68.1382 H   0  0  0  0  0  0  0  0  0  0  0  0
    3.6082   61.8426   67.5769 H   0  0  0  0  0  0  0  0  0  0  0  0
    1.3140   61.7219   69.2566 H   0  0  0  0  0  0  0  0  0  0  0  0
    3.5304   58.8743   70.3110 H   0  0  0  0  0  0  0  0  0  0  0  0
    2.5779   59.4927   68.9193 H   0  0  0  0  0  0  0  0  0  0  0  0
    4.3680   59.6412   68.9193 H   0  0  0  0  0  0  0  0  0  0  0  0
    3.6634   61.6234   72.2971 H   0  0  0  0  0  0  0  0  0  0  0  0
    2.1515   60.6979   72.0063 H   0  0  0  0  0  0  0  0  0  0  0  0
    3.7363   59.8523   72.0063 H   0  0  0  0  0  0  0  0  0  0  0  0
  2  1  1  0
  3  2  1  0
  4  3  1  0
  5  4  1  0
  7  6  1  0
  7  5  1  0
  8  5  1  0
  9  8  1  0
 10  1  1  0
 11 10  1  0
 12 11  2  0
 13 12  1  0
 14 13  1  0
 15 14  1  0
 16 15  1  0
 16 11  1  0
 17 16  1  0
 17 14  1  0
 18 17  1  0
 19 17  1  0
  1 20  1  0
  1 21  1  0
  3 22  1  0
  3 23  1  0
  4 24  1  0
  4 25  1  0
  5 26  1  0
  6 27  1  0
  6 28  1  0
  6 29  1  0
  7 30  1  0
  7 31  1  0
  8 32  1  0
  8 33  1  0
  9 34  1  0
  9 35  1  0
  9 36  1  0
 10 37  1  0
 10 38  1  0
 12 39  1  0
 13 40  1  0
 13 41  1  0
 14 42  1  6
 15 43  1  0
 15 44  1  0
 16 45  1  6
 18 46  1  0
 18 47  1  0
 18 48  1  0
 19 49  1  0
 19 50  1  0
 19 51  1  0
M  CHG  1   5   1
M  END
>  <score>  (3) 
-7.058

$$$$
=
     RDKit          3D

 51 52  0  0  0  0  0  0  0  0999 V2000
    1.7710   64.2110   70.8380 C   0  0  0  0  0  0  0  0  0  0  0  0
    0.7710   64.7930   69.9920 O   0  0  0  0  0  0  0  0  0  0  0  0
    0.9270   66.1970   69.8070 C   0  0  0  0  0  0  0  0  0  0  0  0
   -0.2960   66.7010   69.0340 C   0  0  0  0  0  0  0  0  0  0  0  0
    0.0110   67.8030   68.0270 N   0  0  0  0  0  4  0  0  0  0  0  0
    2.1120   69.1450   67.7770 C   0  0  0  0  0  0  0  0  0  0  0  0
    1.4360   67.8140   67.5080 C   0  0  0  0  0  0  0  0  0  0  0  0
   -1.0230   67.8530   66.9140 C   0  0  0  0  0  0  0  0  0  0  0  0
   -2.3020   67.1530   67.3370 C   0  0  0  0  0  0  0  0  0  0  0  0
    3.0310   63.8500   70.0470 C   0  0  0  0  0  0  0  0  0  0  0  0
    3.6730   62.5910   70.5440 C   0  0  0  0  0  0  0  0  0  0  0  0
    4.9860   62.4420   70.8120 C   0  0  0  0  0  0  0  0  0  0  0  0
    5.5320   61.1180   71.3170 C   0  0  0  0  0  0  0  0  0  0  0  0
    4.3790   60.0980   71.4190 C   0  0  2  0  0  0  0  0  0  0  0  0
    3.5460   60.1080   70.0950 C   0  0  0  0  0  0  0  0  0  0  0  0
    2.8260   61.3530   70.7310 C   0  0  1  0  0  0  0  0  0  0  0  0
    3.0560   60.6250   72.1310 C   0  0  0  0  0  0  0  0  0  0  0  0
    2.0160   59.5370   72.4690 C   0  0  0  0  0  0  0  0  0  0  0  0
    3.2260   61.4990   73.3800 C   0  0  0  0  0  0  0  0  0  0  0  0
    2.0370   64.9315   71.6255 H   0  0  0  0  0  0  0  0  0  0  0  0
    1.3606   63.2887   71.2750 H   0  0  0  0  0  0  0  0  0  0  0  0
    0.9868   66.6997   70.7836 H   0  0  0  0  0  0  0  0  0  0  0  0
    1.8513   66.4131   69.2512 H   0  0  0  0  0  0  0  0  0  0  0  0
   -0.7354   65.8509   68.4916 H   0  0  0  0  0  0  0  0  0  0  0  0
   -0.9824   67.1341   69.7765 H   0  0  0  0  0  0  0  0  0  0  0  0
   -0.0635   68.6817   68.5593 H   0  0  0  0  0  0  0  0  0  0  0  0
    2.1921   69.3028   68.8627 H   0  0  0  0  0  0  0  0  0  0  0  0
    3.1178   69.1420   67.3317 H   0  0  0  0  0  0  0  0  0  0  0  0
    1.5163   69.9554   67.3317 H   0  0  0  0  0  0  0  0  0  0  0  0
    1.4234   67.6316   66.4233 H   0  0  0  0  0  0  0  0  0  0  0  0
    2.0007   67.0270   68.0293 H   0  0  0  0  0  0  0  0  0  0  0  0
   -1.2478   68.9034   66.6771 H   0  0  0  0  0  0  0  0  0  0  0  0
   -0.6156   67.3407   66.0299 H   0  0  0  0  0  0  0  0  0  0  0  0
   -2.3574   67.1227   68.4352 H   0  0  0  0  0  0  0  0  0  0  0  0
   -3.1689   67.7024   66.9412 H   0  0  0  0  0  0  0  0  0  0  0  0
   -2.3065   66.1267   66.9412 H   0  0  0  0  0  0  0  0  0  0  0  0
    2.7584   63.7146   68.9899 H   0  0  0  0  0  0  0  0  0  0  0  0
    3.7541   64.6692   70.1737 H   0  0  0  0  0  0  0  0  0  0  0  0
    5.6703   63.2902   70.6630 H   0  0  0  0  0  0  0  0  0  0  0  0
    6.2935   60.7434   70.6171 H   0  0  0  0  0  0  0  0  0  0  0  0
    5.9873   61.2606   72.3082 H   0  0  0  0  0  0  0  0  0  0  0  0
    4.9159   59.2278   71.8245 H   0  0  0  0  0  0  0  0  0  0  0  0
    4.1208   60.3146   69.1801 H   0  0  0  0  0  0  0  0  0  0  0  0
    3.0059   59.2279   69.7159 H   0  0  0  0  0  0  0  0  0  0  0  0
    1.8329   61.7197   70.4322 H   0  0  0  0  0  0  0  0  0  0  0  0
    1.9258   59.4427   73.5612 H   0  0  0  0  0  0  0  0  0  0  0  0
    1.0410   59.8169   72.0434 H   0  0  0  0  0  0  0  0  0  0  0  0
    2.3395   58.5757   72.0434 H   0  0  0  0  0  0  0  0  0  0  0  0
    3.1054   60.8790   74.2806 H   0  0  0  0  0  0  0  0  0  0  0  0
    4.2289   61.9509   73.3776 H   0  0  0  0  0  0  0  0  0  0  0  0
    2.4656   62.2939   73.3776 H   0  0  0  0  0  0  0  0  0  0  0  0
  2  1  1  0
  3  2  1  0
  4  3  1  0
  5  4  1  0
  7  6  1  0
  7  5  1  0
  8  5  1  0
  9  8  1  0
 10  1  1  0
 11 10  1  0
 12 11  2  0
 13 12  1  0
 14 13  1  0
 15 14  1  0
 16 15  1  0
 16 11  1  0
 17 16  1  0
 17 14  1  0
 18 17  1  0
 19 17  1  0
  1 20  1  0
  1 21  1  0
  3 22  1  0
  3 23  1  0
  4 24  1  0
  4 25  1  0
  5 26  1  0
  6 27  1  0
  6 28  1  0
  6 29  1  0
  7 30  1  0
  7 31  1  0
  8 32  1  0
  8 33  1  0
  9 34  1  0
  9 35  1  0
  9 36  1  0
 10 37  1  0
 10 38  1  0
 12 39  1  0
 13 40  1  0
 13 41  1  0
 14 42  1  1
 15 43  1  0
 15 44  1  0
 16 45  1  6
 18 46  1  0
 18 47  1  0
 18 48  1  0
 19 49  1  0
 19 50  1  0
 19 51  1  0
M  CHG  1   5   1
M  END
>  <score>  (4) 
-6.931

$$$$
=
     RDKit          3D

 51 52  0  0  0  0  0  0  0  0999 V2000
    0.3610   69.4210   63.4370 C   0  0  0  0  0  0  0  0  0  0  0  0
   -0.0610   68.2990   64.2240 O   0  0  0  0  0  0  0  0  0  0  0  0
   -0.6390   68.6640   65.4740 C   0  0  0  0  0  0  0  0  0  0  0  0
   -0.2010   67.6230   66.5090 C   0  0  0  0  0  0  0  0  0  0  0  0
    0.3000   68.2160   67.8210 N   0  0  0  0  0  4  0  0  0  0  0  0
    0.2830   66.4590   69.6070 C   0  0  0  0  0  0  0  0  0  0  0  0
    1.1430   67.2790   68.6640 C   0  0  0  0  0  0  0  0  0  0  0  0
    0.9540   69.5720   67.6120 C   0  0  0  0  0  0  0  0  0  0  0  0
    2.3140   69.6200   68.2850 C   0  0  0  0  0  0  0  0  0  0  0  0
    1.4280   69.0180   62.4170 C   0  0  0  0  0  0  0  0  0  0  0  0
    2.6070   68.3540   63.0600 C   0  0  0  0  0  0  0  0  0  0  0  0
    3.2470   67.2700   62.5770 C   0  0  0  0  0  0  0  0  0  0  0  0
    4.4380   66.6790   63.3090 C   0  0  0  0  0  0  0  0  0  0  0  0
    4.7030   67.4940   64.5920 C   0  0  2  0  0  0  0  0  0  0  0  0
    3.3640   67.6920   65.3780 C   0  0  0  0  0  0  0  0  0  0  0  0
    3.1260   68.8820   64.3780 C   0  0  1  0  0  0  0  0  0  0  0  0
    4.7080   69.0760   64.4130 C   0  0  0  0  0  0  0  0  0  0  0  0
    5.2330   69.8710   65.6250 C   0  0  0  0  0  0  0  0  0  0  0  0
    5.3940   69.6430   63.1620 C   0  0  0  0  0  0  0  0  0  0  0  0
   -0.5087   69.8304   62.9023 H   0  0  0  0  0  0  0  0  0  0  0  0
    0.7942   70.1738   64.1119 H   0  0  0  0  0  0  0  0  0  0  0  0
   -0.2860   69.6619   65.7733 H   0  0  0  0  0  0  0  0  0  0  0  0
   -1.7359   68.6949   65.3978 H   0  0  0  0  0  0  0  0  0  0  0  0
   -1.0611   66.9740   66.7303 H   0  0  0  0  0  0  0  0  0  0  0  0
    0.6446   67.0756   66.0672 H   0  0  0  0  0  0  0  0  0  0  0  0
   -0.5459   68.3636   68.3898 H   0  0  0  0  0  0  0  0  0  0  0  0
    0.5417   66.7057   70.6473 H   0  0  0  0  0  0  0  0  0  0  0  0
   -0.7779   66.6884   69.4287 H   0  0  0  0  0  0  0  0  0  0  0  0
    0.4616   65.3883   69.4287 H   0  0  0  0  0  0  0  0  0  0  0  0
    1.8562   67.8727   69.2547 H   0  0  0  0  0  0  0  0  0  0  0  0
    1.6732   66.5895   67.9906 H   0  0  0  0  0  0  0  0  0  0  0  0
    1.0779   69.7510   66.5338 H   0  0  0  0  0  0  0  0  0  0  0  0
    0.3118   70.3471   68.0556 H   0  0  0  0  0  0  0  0  0  0  0  0
    2.1830   69.6154   69.3772 H   0  0  0  0  0  0  0  0  0  0  0  0
    2.9039   68.7421   67.9827 H   0  0  0  0  0  0  0  0  0  0  0  0
    2.8405   70.5373   67.9827 H   0  0  0  0  0  0  0  0  0  0  0  0
    0.9804   68.3207   61.6935 H   0  0  0  0  0  0  0  0  0  0  0  0
    1.7852   69.9341   61.9238 H   0  0  0  0  0  0  0  0  0  0  0  0
    2.9015   66.8080   61.6404 H   0  0  0  0  0  0  0  0  0  0  0  0
    4.2238   65.6335   63.5754 H   0  0  0  0  0  0  0  0  0  0  0  0
    5.3250   66.7151   62.6595 H   0  0  0  0  0  0  0  0  0  0  0  0
    5.5952   66.9783   64.9769 H   0  0  0  0  0  0  0  0  0  0  0  0
    2.6463   66.8621   65.2998 H   0  0  0  0  0  0  0  0  0  0  0  0
    3.3173   67.8043   66.4713 H   0  0  0  0  0  0  0  0  0  0  0  0
    2.4417   69.7236   64.5609 H   0  0  0  0  0  0  0  0  0  0  0  0
    4.9086   69.3797   66.5542 H   0  0  0  0  0  0  0  0  0  0  0  0
    6.3320   69.9053   65.5928 H   0  0  0  0  0  0  0  0  0  0  0  0
    4.8331   70.8952   65.5928 H   0  0  0  0  0  0  0  0  0  0  0  0
    6.2092   70.3168   63.4644 H   0  0  0  0  0  0  0  0  0  0  0  0
    5.8043   68.8169   62.5626 H   0  0  0  0  0  0  0  0  0  0  0  0
    4.6600   70.2015   62.5626 H   0  0  0  0  0  0  0  0  0  0  0  0
  2  1  1  0
  3  2  1  0
  4  3  1  0
  5  4  1  0
  7  6  1  0
  7  5  1  0
  8  5  1  0
  9  8  1  0
 10  1  1  0
 11 10  1  0
 12 11  2  0
 13 12  1  0
 14 13  1  0
 15 14  1  0
 16 15  1  0
 16 11  1  0
 17 16  1  0
 17 14  1  0
 18 17  1  0
 19 17  1  0
  1 20  1  0
  1 21  1  0
  3 22  1  0
  3 23  1  0
  4 24  1  0
  4 25  1  0
  5 26  1  0
  6 27  1  0
  6 28  1  0
  6 29  1  0
  7 30  1  0
  7 31  1  0
  8 32  1  0
  8 33  1  0
  9 34  1  0
  9 35  1  0
  9 36  1  0
 10 37  1  0
 10 38  1  0
 12 39  1  0
 13 40  1  0
 13 41  1  0
 14 42  1  1
 15 43  1  0
 15 44  1  0
 16 45  1  1
 18 46  1  0
 18 47  1  0
 18 48  1  0
 19 49  1  0
 19 50  1  0
 19 51  1  0
M  CHG  1   5   1
M  END
>  <score>  (5) 
-6.889

$$$$
=
     RDKit          3D

 51 52  0  0  0  0  0  0  0  0999 V2000
    4.4740   70.3160   67.0520 C   0  0  0  0  0  0  0  0  0  0  0  0
    3.7900   69.4060   67.9240 O   0  0  0  0  0  0  0  0  0  0  0  0
    2.6490   69.9750   68.5610 C   0  0  0  0  0  0  0  0  0  0  0  0
    1.4090   69.5120   67.7880 C   0  0  0  0  0  0  0  0  0  0  0  0
    1.1980   68.0030   67.7910 N   0  0  0  0  0  4  0  0  0  0  0  0
    0.0110   66.4840   69.3920 C   0  0  0  0  0  0  0  0  0  0  0  0
    1.2300   67.3570   69.1630 C   0  0  0  0  0  0  0  0  0  0  0  0
   -0.0230   67.6040   66.9790 C   0  0  0  0  0  0  0  0  0  0  0  0
   -0.7890   68.8330   66.5220 C   0  0  0  0  0  0  0  0  0  0  0  0
    5.3720   69.5710   66.0610 C   0  0  0  0  0  0  0  0  0  0  0  0
    4.6170   69.0890   64.8600 C   0  0  0  0  0  0  0  0  0  0  0  0
    4.9380   69.3600   63.5790 C   0  0  0  0  0  0  0  0  0  0  0  0
    4.1040   68.8150   62.4350 C   0  0  0  0  0  0  0  0  0  0  0  0
    2.9290   67.9940   63.0080 C   0  0  2  0  0  0  0  0  0  0  0  0
    2.2130   68.8100   64.1330 C   0  0  0  0  0  0  0  0  0  0  0  0
    3.3640   68.2650   65.0560 C   0  0  1  0  0  0  0  0  0  0  0  0
    3.3110   66.9540   64.1520 C   0  0  0  0  0  0  0  0  0  0  0  0
    2.1970   65.9560   64.5280 C   0  0  0  0  0  0  0  0  0  0  0  0
    4.6050   66.1480   63.9710 C   0  0  0  0  0  0  0  0  0  0  0  0
    3.7306   70.9015   66.4912 H   0  0  0  0  0  0  0  0  0  0  0  0
    5.1067   70.9742   67.6656 H   0  0  0  0  0  0  0  0  0  0  0  0
    2.5910   69.6309   69.6042 H   0  0  0  0  0  0  0  0  0  0  0  0
    2.7152   71.0730   68.5641 H   0  0  0  0  0  0  0  0  0  0  0  0
    0.5245   69.9848   68.2398 H   0  0  0  0  0  0  0  0  0  0  0  0
    1.5618   69.8075   66.7395 H   0  0  0  0  0  0  0  0  0  0  0  0
    2.0261   67.6147   67.3174 H   0  0  0  0  0  0  0  0  0  0  0  0
   -0.1564   66.3641   70.4726 H   0  0  0  0  0  0  0  0  0  0  0  0
   -0.8703   66.9576   68.9348 H   0  0  0  0  0  0  0  0  0  0  0  0
    0.1756   65.4972   68.9348 H   0  0  0  0  0  0  0  0  0  0  0  0
    1.2545   68.1456   69.9295 H   0  0  0  0  0  0  0  0  0  0  0  0
    2.1267   66.7231   69.2264 H   0  0  0  0  0  0  0  0  0  0  0  0
    0.3011   67.0319   66.0971 H   0  0  0  0  0  0  0  0  0  0  0  0
   -0.6827   66.9908   67.6105 H   0  0  0  0  0  0  0  0  0  0  0  0
   -1.1390   69.3946   67.4007 H   0  0  0  0  0  0  0  0  0  0  0  0
   -0.1292   69.4724   65.9171 H   0  0  0  0  0  0  0  0  0  0  0  0
   -1.6536   68.5222   65.9171 H   0  0  0  0  0  0  0  0  0  0  0  0
    6.1705   70.2502   65.7276 H   0  0  0  0  0  0  0  0  0  0  0  0
    5.7826   68.6900   66.5760 H   0  0  0  0  0  0  0  0  0  0  0  0
    5.8166   69.9848   63.3603 H   0  0  0  0  0  0  0  0  0  0  0  0
    3.7115   69.6498   61.8358 H   0  0  0  0  0  0  0  0  0  0  0  0
    4.7278   68.1712   61.7975 H   0  0  0  0  0  0  0  0  0  0  0  0
    2.4558   67.6448   62.0784 H   0  0  0  0  0  0  0  0  0  0  0  0
    2.2034   69.9004   63.9886 H   0  0  0  0  0  0  0  0  0  0  0  0
    1.1450   68.6989   64.3718 H   0  0  0  0  0  0  0  0  0  0  0  0
    3.3098   68.2064   66.1531 H   0  0  0  0  0  0  0  0  0  0  0  0
    2.1205   65.8874   65.6232 H   0  0  0  0  0  0  0  0  0  0  0  0
    1.2387   66.3033   64.1145 H   0  0  0  0  0  0  0  0  0  0  0  0
    2.4373   64.9654   64.1145 H   0  0  0  0  0  0  0  0  0  0  0  0
    5.0178   65.8909   64.9576 H   0  0  0  0  0  0  0  0  0  0  0  0
    4.3873   65.2255   63.4128 H   0  0  0  0  0  0  0  0  0  0  0  0
    5.3370   66.7502   63.4128 H   0  0  0  0  0  0  0  0  0  0  0  0
  2  1  1  0
  3  2  1  0
  4  3  1  0
  5  4  1  0
  7  6  1  0
  7  5  1  0
  8  5  1  0
  9  8  1  0
 10  1  1  0
 11 10  1  0
 12 11  2  0
 13 12  1  0
 14 13  1  0
 15 14  1  0
 16 15  1  0
 16 11  1  0
 17 16  1  0
 17 14  1  0
 18 17  1  0
 19 17  1  0
  1 20  1  0
  1 21  1  0
  3 22  1  0
  3 23  1  0
  4 24  1  0
  4 25  1  0
  5 26  1  0
  6 27  1  0
  6 28  1  0
  6 29  1  0
  7 30  1  0
  7 31  1  0
  8 32  1  0
  8 33  1  0
  9 34  1  0
  9 35  1  0
  9 36  1  0
 10 37  1  0
 10 38  1  0
 12 39  1  0
 13 40  1  0
 13 41  1  0
 14 42  1  6
 15 43  1  0
 15 44  1  0
 16 45  1  1
 18 46  1  0
 18 47  1  0
 18 48  1  0
 19 49  1  0
 19 50  1  0
 19 51  1  0
M  CHG  1   5   1
M  END
>  <score>  (6) 
-6.818

$$$$
=
     RDKit          3D

 51 52  0  0  0  0  0  0  0  0999 V2000
    3.6310   69.6850   66.5680 C   0  0  0  0  0  0  0  0  0  0  0  0
    2.6680   68.6250   66.6410 O   0  0  0  0  0  0  0  0  0  0  0  0
    1.4650   68.9930   67.3100 C   0  0  0  0  0  0  0  0  0  0  0  0
    1.1960   67.9410   68.3920 C   0  0  0  0  0  0  0  0  0  0  0  0
    0.1470   66.9050   68.0100 N   0  0  0  0  0  4  0  0  0  0  0  0
    0.4420   66.1140   70.3700 C   0  0  0  0  0  0  0  0  0  0  0  0
   -0.4980   66.1890   69.1820 C   0  0  0  0  0  0  0  0  0  0  0  0
   -0.8690   67.4660   67.0300 C   0  0  0  0  0  0  0  0  0  0  0  0
   -2.2840   67.2400   67.5350 C   0  0  0  0  0  0  0  0  0  0  0  0
    4.9010   69.2370   65.8410 C   0  0  0  0  0  0  0  0  0  0  0  0
    4.5990   68.4620   64.5950 C   0  0  0  0  0  0  0  0  0  0  0  0
    4.9590   67.1820   64.3700 C   0  0  0  0  0  0  0  0  0  0  0  0
    4.5960   66.4890   63.0700 C   0  0  0  0  0  0  0  0  0  0  0  0
    3.8330   67.4760   62.1620 C   0  0  2  0  0  0  0  0  0  0  0  0
    4.6020   68.8360   62.0960 C   0  0  0  0  0  0  0  0  0  0  0  0
    3.8750   69.1430   63.4560 C   0  0  1  0  0  0  0  0  0  0  0  0
    2.6620   68.2930   62.8670 C   0  0  0  0  0  0  0  0  0  0  0  0
    1.7360   69.0690   61.9100 C   0  0  0  0  0  0  0  0  0  0  0  0
    1.7660   67.5330   63.8550 C   0  0  0  0  0  0  0  0  0  0  0  0
    3.1886   70.5336   66.0256 H   0  0  0  0  0  0  0  0  0  0  0  0
    3.9035   69.9761   67.5932 H   0  0  0  0  0  0  0  0  0  0  0  0
    1.5808   69.9847   67.7716 H   0  0  0  0  0  0  0  0  0  0  0  0
    0.6265   69.0396   66.5995 H   0  0  0  0  0  0  0  0  0  0  0  0
    2.1388   67.4152   68.6036 H   0  0  0  0  0  0  0  0  0  0  0  0
    0.8028   68.4807   69.2661 H   0  0  0  0  0  0  0  0  0  0  0  0
    0.6684   66.1617   67.5235 H   0  0  0  0  0  0  0  0  0  0  0  0
   -0.1405   66.1605   71.3020 H   0  0  0  0  0  0  0  0  0  0  0  0
    1.0027   65.1683   70.3348 H   0  0  0  0  0  0  0  0  0  0  0  0
    1.1455   66.9589   70.3348 H   0  0  0  0  0  0  0  0  0  0  0  0
   -0.7671   65.1680   68.8735 H   0  0  0  0  0  0  0  0  0  0  0  0
   -1.3923   66.7542   69.4833 H   0  0  0  0  0  0  0  0  0  0  0  0
   -0.6967   68.5457   66.9098 H   0  0  0  0  0  0  0  0  0  0  0  0
   -0.7514   66.9509   66.0652 H   0  0  0  0  0  0  0  0  0  0  0  0
   -2.2851   67.2398   68.6350 H   0  0  0  0  0  0  0  0  0  0  0  0
   -2.9373   68.0452   67.1678 H   0  0  0  0  0  0  0  0  0  0  0  0
   -2.6540   66.2714   67.1678 H   0  0  0  0  0  0  0  0  0  0  0  0
    5.4867   70.1279   65.5703 H   0  0  0  0  0  0  0  0  0  0  0  0
    5.4627   68.5781   66.5195 H   0  0  0  0  0  0  0  0  0  0  0  0
    5.5230   66.6334   65.1387 H   0  0  0  0  0  0  0  0  0  0  0  0
    5.5134   66.1565   62.5622 H   0  0  0  0  0  0  0  0  0  0  0  0
    3.9603   65.6167   63.2823 H   0  0  0  0  0  0  0  0  0  0  0  0
    3.6144   66.8284   61.3001 H   0  0  0  0  0  0  0  0  0  0  0  0
    5.6977   68.7595   62.1559 H   0  0  0  0  0  0  0  0  0  0  0  0
    4.5641   69.5088   61.2265 H   0  0  0  0  0  0  0  0  0  0  0  0
    3.7208   70.1514   63.8674 H   0  0  0  0  0  0  0  0  0  0  0  0
    1.0221   69.6672   62.4953 H   0  0  0  0  0  0  0  0  0  0  0  0
    2.3394   69.7352   61.2759 H   0  0  0  0  0  0  0  0  0  0  0  0
    1.1856   68.3584   61.2759 H   0  0  0  0  0  0  0  0  0  0  0  0
    2.0610   67.7832   64.8847 H   0  0  0  0  0  0  0  0  0  0  0  0
    0.7165   67.8205   63.6941 H   0  0  0  0  0  0  0  0  0  0  0  0
    1.8784   66.4507   63.6941 H   0  0  0  0  0  0  0  0  0  0  0  0
  2  1  1  0
  3  2  1  0
  4  3  1  0
  5  4  1  0
  7  6  1  0
  7  5  1  0
  8  5  1  0
  9  8  1  0
 10  1  1  0
 11 10  1  0
 12 11  2  0
 13 12  1  0
 14 13  1  0
 15 14  1  0
 16 15  1  0
 16 11  1  0
 17 16  1  0
 17 14  1  0
 18 17  1  0
 19 17  1  0
  1 20  1  0
  1 21  1  0
  3 22  1  0
  3 23  1  0
  4 24  1  0
  4 25  1  0
  5 26  1  0
  6 27  1  0
  6 28  1  0
  6 29  1  0
  7 30  1  0
  7 31  1  0
  8 32  1  0
  8 33  1  0
  9 34  1  0
  9 35  1  0
  9 36  1  0
 10 37  1  0
 10 38  1  0
 12 39  1  0
 13 40  1  0
 13 41  1  0
 14 42  1  6
 15 43  1  0
 15 44  1  0
 16 45  1  1
 18 46  1  0
 18 47  1  0
 18 48  1  0
 19 49  1  0
 19 50  1  0
 19 51  1  0
M  CHG  1   5   1
M  END
>  <score>  (7) 
-6.78

$$$$
=
     RDKit          3D

 51 52  0  0  0  0  0  0  0  0999 V2000
   -0.3310   68.3440   63.8000 C   0  0  0  0  0  0  0  0  0  0  0  0
   -1.4480   68.7260   64.6150 O   0  0  0  0  0  0  0  0  0  0  0  0
   -1.1110   68.9360   65.9830 C   0  0  0  0  0  0  0  0  0  0  0  0
   -0.7290   67.5770   66.5800 C   0  0  0  0  0  0  0  0  0  0  0  0
    0.3310   67.6490   67.6710 N   0  0  0  0  0  4  0  0  0  0  0  0
    2.2730   69.2340   67.6480 C   0  0  0  0  0  0  0  0  0  0  0  0
    0.8100   69.0500   68.0040 C   0  0  0  0  0  0  0  0  0  0  0  0
   -0.0730   66.8560   68.9020 C   0  0  0  0  0  0  0  0  0  0  0  0
    1.1410   66.5400   69.7600 C   0  0  0  0  0  0  0  0  0  0  0  0
    0.8950   69.2120   64.0910 C   0  0  0  0  0  0  0  0  0  0  0  0
    2.1650   68.4170   64.1000 C   0  0  0  0  0  0  0  0  0  0  0  0
    2.2480   67.0870   64.3080 C   0  0  0  0  0  0  0  0  0  0  0  0
    3.5900   66.3790   64.2930 C   0  0  0  0  0  0  0  0  0  0  0  0
    4.7080   67.4110   64.0360 C   0  0  2  0  0  0  0  0  0  0  0  0
    4.5210   68.6390   64.9870 C   0  0  0  0  0  0  0  0  0  0  0  0
    3.4850   69.1280   63.9090 C   0  0  1  0  0  0  0  0  0  0  0  0
    4.4410   68.4300   62.8410 C   0  0  0  0  0  0  0  0  0  0  0  0
    5.6590   69.2750   62.4170 C   0  0  0  0  0  0  0  0  0  0  0  0
    3.8060   67.8680   61.5620 C   0  0  0  0  0  0  0  0  0  0  0  0
   -0.0817   67.2923   64.0046 H   0  0  0  0  0  0  0  0  0  0  0  0
   -0.6095   68.4809   62.7447 H   0  0  0  0  0  0  0  0  0  0  0  0
   -0.2614   69.6307   66.0576 H   0  0  0  0  0  0  0  0  0  0  0  0
   -1.9613   69.3720   66.5278 H   0  0  0  0  0  0  0  0  0  0  0  0
   -1.6342   67.1219   67.0083 H   0  0  0  0  0  0  0  0  0  0  0  0
   -0.2989   66.9821   65.7608 H   0  0  0  0  0  0  0  0  0  0  0  0
    1.1624   67.1939   67.2679 H   0  0  0  0  0  0  0  0  0  0  0  0
    2.8681   69.3088   68.5701 H   0  0  0  0  0  0  0  0  0  0  0  0
    2.6180   68.3722   67.0579 H   0  0  0  0  0  0  0  0  0  0  0  0
    2.3938   70.1544   67.0579 H   0  0  0  0  0  0  0  0  0  0  0  0
    0.6791   69.2262   69.0819 H   0  0  0  0  0  0  0  0  0  0  0  0
    0.2179   69.7671   67.4164 H   0  0  0  0  0  0  0  0  0  0  0  0
   -0.7889   67.4463   69.4928 H   0  0  0  0  0  0  0  0  0  0  0  0
   -0.5330   65.9106   68.5783 H   0  0  0  0  0  0  0  0  0  0  0  0
    0.8673   66.6112   70.8230 H   0  0  0  0  0  0  0  0  0  0  0  0
    1.4909   65.5208   69.5390 H   0  0  0  0  0  0  0  0  0  0  0  0
    1.9434   67.2592   69.5390 H   0  0  0  0  0  0  0  0  0  0  0  0
    0.9698   69.9896   63.3166 H   0  0  0  0  0  0  0  0  0  0  0  0
    0.7662   69.6521   65.0909 H   0  0  0  0  0  0  0  0  0  0  0  0
    1.3308   66.5079   64.4909 H   0  0  0  0  0  0  0  0  0  0  0  0
    3.7580   65.8893   65.2635 H   0  0  0  0  0  0  0  0  0  0  0  0
    3.5979   65.6209   63.4960 H   0  0  0  0  0  0  0  0  0  0  0  0
    5.5891   66.7528   64.0148 H   0  0  0  0  0  0  0  0  0  0  0  0
    4.0967   68.4075   65.9751 H   0  0  0  0  0  0  0  0  0  0  0  0
    5.3572   69.2580   65.3441 H   0  0  0  0  0  0  0  0  0  0  0  0
    3.1558   70.1706   63.7878 H   0  0  0  0  0  0  0  0  0  0  0  0
    6.1830   69.6385   63.3133 H   0  0  0  0  0  0  0  0  0  0  0  0
    6.3434   68.6567   61.8176 H   0  0  0  0  0  0  0  0  0  0  0  0
    5.3195   70.1326   61.8176 H   0  0  0  0  0  0  0  0  0  0  0  0
    3.0070   67.1609   61.8295 H   0  0  0  0  0  0  0  0  0  0  0  0
    3.3827   68.6927   60.9699 H   0  0  0  0  0  0  0  0  0  0  0  0
    4.5732   67.3476   60.9699 H   0  0  0  0  0  0  0  0  0  0  0  0
  2  1  1  0
  3  2  1  0
  4  3  1  0
  5  4  1  0
  7  6  1  0
  7  5  1  0
  8  5  1  0
  9  8  1  0
 10  1  1  0
 11 10  1  0
 12 11  2  0
 13 12  1  0
 14 13  1  0
 15 14  1  0
 16 15  1  0
 16 11  1  0
 17 16  1  0
 17 14  1  0
 18 17  1  0
 19 17  1  0
  1 20  1  0
  1 21  1  0
  3 22  1  0
  3 23  1  0
  4 24  1  0
  4 25  1  0
  5 26  1  0
  6 27  1  0
  6 28  1  0
  6 29  1  0
  7 30  1  0
  7 31  1  0
  8 32  1  0
  8 33  1  0
  9 34  1  0
  9 35  1  0
  9 36  1  0
 10 37  1  0
 10 38  1  0
 12 39  1  0
 13 40  1  0
 13 41  1  0
 14 42  1  6
 15 43  1  0
 15 44  1  0
 16 45  1  6
 18 46  1  0
 18 47  1  0
 18 48  1  0
 19 49  1  0
 19 50  1  0
 19 51  1  0
M  CHG  1   5   1
M  END
>  <score>  (8) 
-6.602

$$$$
=
     RDKit          3D

 51 52  0  0  0  0  0  0  0  0999 V2000
    0.7840   63.4060   72.2180 C   0  0  0  0  0  0  0  0  0  0  0  0
    0.9570   63.9850   70.9180 O   0  0  0  0  0  0  0  0  0  0  0  0
    0.3350   65.2580   70.7730 C   0  0  0  0  0  0  0  0  0  0  0  0
    1.2640   66.1350   69.9260 C   0  0  0  0  0  0  0  0  0  0  0  0
    0.5400   67.1540   69.0550 N   0  0  0  0  0  4  0  0  0  0  0  0
    1.8720   69.0400   68.0800 C   0  0  0  0  0  0  0  0  0  0  0  0
    1.3290   67.6410   67.8540 C   0  0  0  0  0  0  0  0  0  0  0  0
   -0.8610   66.6900   68.6910 C   0  0  0  0  0  0  0  0  0  0  0  0
   -1.2270   67.1380   67.2870 C   0  0  0  0  0  0  0  0  0  0  0  0
    0.8710   61.8780   72.1650 C   0  0  0  0  0  0  0  0  0  0  0  0
    2.2250   61.4000   71.7370 C   0  0  0  0  0  0  0  0  0  0  0  0
    2.5060   60.1580   71.2960 C   0  0  0  0  0  0  0  0  0  0  0  0
    3.9170   59.7800   70.8830 C   0  0  0  0  0  0  0  0  0  0  0  0
    4.8480   60.9940   71.0810 C   0  0  2  0  0  0  0  0  0  0  0  0
    4.6240   61.6060   72.5030 C   0  0  0  0  0  0  0  0  0  0  0  0
    3.4050   62.3400   71.8320 C   0  0  1  0  0  0  0  0  0  0  0  0
    4.3020   62.3790   70.5150 C   0  0  0  0  0  0  0  0  0  0  0  0
    5.3350   63.5230   70.4720 C   0  0  0  0  0  0  0  0  0  0  0  0
    3.5900   62.3550   69.1560 C   0  0  0  0  0  0  0  0  0  0  0  0
    1.5703   63.7863   72.8867 H   0  0  0  0  0  0  0  0  0  0  0  0
   -0.2131   63.6833   72.5907 H   0  0  0  0  0  0  0  0  0  0  0  0
   -0.6365   65.1454   70.2694 H   0  0  0  0  0  0  0  0  0  0  0  0
    0.1620   65.7174   71.7574 H   0  0  0  0  0  0  0  0  0  0  0  0
    1.9383   66.6784   70.6043 H   0  0  0  0  0  0  0  0  0  0  0  0
    1.7995   65.4595   69.2427 H   0  0  0  0  0  0  0  0  0  0  0  0
    0.4455   67.9930   69.6450 H   0  0  0  0  0  0  0  0  0  0  0  0
    1.9473   69.2340   69.1601 H   0  0  0  0  0  0  0  0  0  0  0  0
    2.8684   69.1250   67.6218 H   0  0  0  0  0  0  0  0  0  0  0  0
    1.1938   69.7750   67.6218 H   0  0  0  0  0  0  0  0  0  0  0  0
    0.6706   67.6504   66.9729 H   0  0  0  0  0  0  0  0  0  0  0  0
    2.1789   66.9602   67.6982 H   0  0  0  0  0  0  0  0  0  0  0  0
   -0.9023   65.5920   68.7419 H   0  0  0  0  0  0  0  0  0  0  0  0
   -1.5756   67.1322   69.4008 H   0  0  0  0  0  0  0  0  0  0  0  0
   -1.9220   67.9888   67.3431 H   0  0  0  0  0  0  0  0  0  0  0  0
   -0.3165   67.4431   66.7504 H   0  0  0  0  0  0  0  0  0  0  0  0
   -1.7076   66.3067   66.7504 H   0  0  0  0  0  0  0  0  0  0  0  0
    0.6542   61.4764   73.1659 H   0  0  0  0  0  0  0  0  0  0  0  0
    0.1395   61.5248   71.4233 H   0  0  0  0  0  0  0  0  0  0  0  0
    1.7029   59.4088   71.2345 H   0  0  0  0  0  0  0  0  0  0  0  0
    4.2692   58.9419   71.5023 H   0  0  0  0  0  0  0  0  0  0  0  0
    3.9234   59.4791   69.8250 H   0  0  0  0  0  0  0  0  0  0  0  0
    5.7977   60.5809   70.7102 H   0  0  0  0  0  0  0  0  0  0  0  0
    4.3620   60.8831   73.2896 H   0  0  0  0  0  0  0  0  0  0  0  0
    5.4104   62.1321   73.0640 H   0  0  0  0  0  0  0  0  0  0  0  0
    2.9289   63.2494   72.2274 H   0  0  0  0  0  0  0  0  0  0  0  0
    5.6000   63.8165   71.4985 H   0  0  0  0  0  0  0  0  0  0  0  0
    6.2375   63.1824   69.9434 H   0  0  0  0  0  0  0  0  0  0  0  0
    4.9043   64.3862   69.9434 H   0  0  0  0  0  0  0  0  0  0  0  0
    2.5018   62.3183   69.3128 H   0  0  0  0  0  0  0  0  0  0  0  0
    3.8486   63.2624   68.5905 H   0  0  0  0  0  0  0  0  0  0  0  0
    3.9091   61.4671   68.5905 H   0  0  0  0  0  0  0  0  0  0  0  0
  2  1  1  0
  3  2  1  0
  4  3  1  0
  5  4  1  0
  7  6  1  0
  7  5  1  0
  8  5  1  0
  9  8  1  0
 10  1  1  0
 11 10  1  0
 12 11  2  0
 13 12  1  0
 14 13  1  0
 15 14  1  0
 16 15  1  0
 16 11  1  0
 17 16  1  0
 17 14  1  0
 18 17  1  0
 19 17  1  0
  1 20  1  0
  1 21  1  0
  3 22  1  0
  3 23  1  0
  4 24  1  0
  4 25  1  0
  5 26  1  0
  6 27  1  0
  6 28  1  0
  6 29  1  0
  7 30  1  0
  7 31  1  0
  8 32  1  0
  8 33  1  0
  9 34  1  0
  9 35  1  0
  9 36  1  0
 10 37  1  0
 10 38  1  0
 12 39  1  0
 13 40  1  0
 13 41  1  0
 14 42  1  6
 15 43  1  0
 15 44  1  0
 16 45  1  1
 18 46  1  0
 18 47  1  0
 18 48  1  0
 19 49  1  0
 19 50  1  0
 19 51  1  0
M  CHG  1   5   1
M  END
>  <score>  (9) 
-6.553

$$$$
