=
     RDKit          3D

 43 44  0  0  0  0  0  0  0  0999 V2000
    1.0120   68.0850   65.6080 C   0  0  0  0  0  0  0  0  0  0  0  0
    2.2310   68.7750   65.6960 C   0  0  0  0  0  0  0  0  0  0  0  0
    2.7340   69.0860   66.9650 C   0  0  0  0  0  0  0  0  0  0  0  0
    2.0690   68.6570   68.1170 C   0  0  0  0  0  0  0  0  0  0  0  0
    0.8980   67.8920   68.0310 C   0  0  0  0  0  0  0  0  0  0  0  0
    0.3600   67.6080   66.7630 C   0  0  0  0  0  0  0  0  0  0  0  0
   -0.3470   68.8610   63.8690 C   0  0  0  0  0  0  0  0  0  0  0  0
    0.5480   67.8320   64.3310 O   0  0  0  0  0  0  0  0  0  0  0  0
   -0.7130   66.7840   66.5330 O   0  0  0  0  0  0  0  0  0  0  0  0
   -1.9910   67.2950   66.9200 C   0  0  0  0  0  0  0  0  0  0  0  0
    0.2810   67.3420   69.1190 O   0  0  0  0  0  0  0  0  0  0  0  0
    1.0080   66.4060   69.9090 C   0  0  0  0  0  0  0  0  0  0  0  0
    3.0130   69.1200   64.4640 C   0  0  0  0  0  0  0  0  0  0  0  0
    4.3990   68.4690   64.3470 N   0  0  0  0  0  4  0  0  0  0  0  0
    4.4990   67.0030   63.9130 C   0  0  0  0  0  0  0  0  0  0  0  0
    4.5380   66.7990   62.3770 C   0  0  0  0  0  0  0  0  0  0  0  0
    4.3680   68.0750   61.6090 N   0  0  0  0  0  4  0  0  0  0  0  0
    5.2200   69.2350   62.0420 C   0  0  0  0  0  0  0  0  0  0  0  0
    5.3980   69.3280   63.5820 C   0  0  0  0  0  0  0  0  0  0  0  0
    3.6600   69.6727   67.0561 H   0  0  0  0  0  0  0  0  0  0  0  0
    2.4707   68.9238   69.1057 H   0  0  0  0  0  0  0  0  0  0  0  0
   -0.7933   69.3741   64.7336 H   0  0  0  0  0  0  0  0  0  0  0  0
    0.2120   69.5869   63.2602 H   0  0  0  0  0  0  0  0  0  0  0  0
   -1.1434   68.4081   63.2602 H   0  0  0  0  0  0  0  0  0  0  0  0
   -2.0581   67.3218   68.0176 H   0  0  0  0  0  0  0  0  0  0  0  0
   -2.1156   68.3121   66.5201 H   0  0  0  0  0  0  0  0  0  0  0  0
   -2.7825   66.6442   66.5201 H   0  0  0  0  0  0  0  0  0  0  0  0
    0.8423   66.6193   70.9753 H   0  0  0  0  0  0  0  0  0  0  0  0
    0.6623   65.3870   69.6809 H   0  0  0  0  0  0  0  0  0  0  0  0
    2.0809   66.4888   69.6809 H   0  0  0  0  0  0  0  0  0  0  0  0
    2.4202   68.8107   63.5905 H   0  0  0  0  0  0  0  0  0  0  0  0
    3.1959   70.2032   64.5203 H   0  0  0  0  0  0  0  0  0  0  0  0
    4.6542   68.4256   65.3439 H   0  0  0  0  0  0  0  0  0  0  0  0
    5.4186   66.5779   64.3414 H   0  0  0  0  0  0  0  0  0  0  0  0
    3.5898   66.5018   64.2766 H   0  0  0  0  0  0  0  0  0  0  0  0
    5.5076   66.3549   62.1075 H   0  0  0  0  0  0  0  0  0  0  0  0
    3.6960   66.1426   62.1122 H   0  0  0  0  0  0  0  0  0  0  0  0
    4.5857   67.8778   60.6218 H   0  0  0  0  0  0  0  0  0  0  0  0
    3.3964   68.3703   61.7812 H   0  0  0  0  0  0  0  0  0  0  0  0
    6.2135   69.1289   61.5819 H   0  0  0  0  0  0  0  0  0  0  0  0
    4.7079   70.1530   61.7181 H   0  0  0  0  0  0  0  0  0  0  0  0
    6.4150   68.9963   63.8385 H   0  0  0  0  0  0  0  0  0  0  0  0
    5.2236   70.3747   63.8719 H   0  0  0  0  0  0  0  0  0  0  0  0
  2  1  2  0
  3  2  1  0
  4  3  2  0
  5  4  1  0
  6  5  2  0
  6  1  1  0
  8  7  1  0
  8  1  1  0
  9  6  1  0
 10  9  1  0
 11  5  1  0
 12 11  1  0
 13  2  1  0
 14 13  1  0
 15 14  1  0
 16 15  1  0
 17 16  1  0
 18 17  1  0
 19 18  1  0
 19 14  1  0
  3 20  1  0
  4 21  1  0
  7 22  1  0
  7 23  1  0
  7 24  1  0
 10 25  1  0
 10 26  1  0
 10 27  1  0
 12 28  1  0
 12 29  1  0
 12 30  1  0
 13 31  1  0
 13 32  1  0
 14 33  1  0
 15 34  1  0
 15 35  1  0
 16 36  1  0
 16 37  1  0
 17 38  1  0
 17 39  1  0
 18 40  1  0
 18 41  1  0
 19 42  1  0
 19 43  1  0
M  CHG  2  14   1  17   1
M  END
>  <score>  (1) 
-7.294

$$$$
=
     RDKit          3D

 43 44  0  0  0  0  0  0  0  0999 V2000
    3.3140   68.3090   65.1770 C   0  0  0  0  0  0  0  0  0  0  0  0
    2.3400   68.6780   66.1180 C   0  0  0  0  0  0  0  0  0  0  0  0
    2.7300   69.4550   67.2150 C   0  0  0  0  0  0  0  0  0  0  0  0
    4.0470   69.9090   67.3320 C   0  0  0  0  0  0  0  0  0  0  0  0
    5.0000   69.6150   66.3480 C   0  0  0  0  0  0  0  0  0  0  0  0
    4.6310   68.8010   65.2620 C   0  0  0  0  0  0  0  0  0  0  0  0
    3.2000   66.1280   64.3370 C   0  0  0  0  0  0  0  0  0  0  0  0
    2.8780   67.5170   64.1320 O   0  0  0  0  0  0  0  0  0  0  0  0
    5.4310   68.5270   64.1790 O   0  0  0  0  0  0  0  0  0  0  0  0
    5.3060   69.4160   63.0670 C   0  0  0  0  0  0  0  0  0  0  0  0
    6.2640   70.1370   66.3480 O   0  0  0  0  0  0  0  0  0  0  0  0
    6.7710   70.6820   67.5620 C   0  0  0  0  0  0  0  0  0  0  0  0
    0.9000   68.3050   65.9250 C   0  0  0  0  0  0  0  0  0  0  0  0
   -0.0830   68.8740   66.9590 N   0  0  0  0  0  4  0  0  0  0  0  0
   -1.4710   69.3260   66.4950 C   0  0  0  0  0  0  0  0  0  0  0  0
   -2.5290   68.1930   66.4670 C   0  0  0  0  0  0  0  0  0  0  0  0
   -1.9600   66.8480   66.8040 N   0  0  0  0  0  4  0  0  0  0  0  0
   -1.0950   66.7760   68.0300 C   0  0  0  0  0  0  0  0  0  0  0  0
   -0.1850   68.0210   68.2170 C   0  0  0  0  0  0  0  0  0  0  0  0
    1.9940   69.7105   67.9916 H   0  0  0  0  0  0  0  0  0  0  0  0
    4.3391   70.5054   68.2089 H   0  0  0  0  0  0  0  0  0  0  0  0
    3.2486   65.9182   65.4157 H   0  0  0  0  0  0  0  0  0  0  0  0
    2.4237   65.4997   63.8759 H   0  0  0  0  0  0  0  0  0  0  0  0
    4.1736   65.9054   63.8759 H   0  0  0  0  0  0  0  0  0  0  0  0
    5.1616   70.4432   63.4332 H   0  0  0  0  0  0  0  0  0  0  0  0
    6.2195   69.3696   62.4560 H   0  0  0  0  0  0  0  0  0  0  0  0
    4.4407   69.1195   62.4560 H   0  0  0  0  0  0  0  0  0  0  0  0
    6.2993   70.1750   68.4167 H   0  0  0  0  0  0  0  0  0  0  0  0
    7.8602   70.5343   67.6035 H   0  0  0  0  0  0  0  0  0  0  0  0
    6.5450   71.7577   67.6035 H   0  0  0  0  0  0  0  0  0  0  0  0
    0.5892   68.6619   64.9320 H   0  0  0  0  0  0  0  0  0  0  0  0
    0.8566   67.2121   66.0418 H   0  0  0  0  0  0  0  0  0  0  0  0
    0.3852   69.7668   67.1702 H   0  0  0  0  0  0  0  0  0  0  0  0
   -1.8247   70.1121   67.1783 H   0  0  0  0  0  0  0  0  0  0  0  0
   -1.3594   69.6815   65.4600 H   0  0  0  0  0  0  0  0  0  0  0  0
   -3.3173   68.4322   67.1960 H   0  0  0  0  0  0  0  0  0  0  0  0
   -2.9205   68.1354   65.4406 H   0  0  0  0  0  0  0  0  0  0  0  0
   -2.7485   66.1991   66.9384 H   0  0  0  0  0  0  0  0  0  0  0  0
   -1.3396   66.6089   66.0174 H   0  0  0  0  0  0  0  0  0  0  0  0
   -1.7466   66.6848   68.9116 H   0  0  0  0  0  0  0  0  0  0  0  0
   -0.4335   65.9054   67.9100 H   0  0  0  0  0  0  0  0  0  0  0  0
   -0.5979   68.6391   69.0278 H   0  0  0  0  0  0  0  0  0  0  0  0
    0.8263   67.6586   68.4534 H   0  0  0  0  0  0  0  0  0  0  0  0
  2  1  2  0
  3  2  1  0
  4  3  2  0
  5  4  1  0
  6  5  2  0
  6  1  1  0
  8  7  1  0
  8  1  1  0
  9  6  1  0
 10  9  1  0
 11  5  1  0
 12 11  1  0
 13  2  1  0
 14 13  1  0
 15 14  1  0
 16 15  1  0
 17 16  1  0
 18 17  1  0
 19 18  1  0
 19 14  1  0
  3 20  1  0
  4 21  1  0
  7 22  1  0
  7 23  1  0
  7 24  1  0
 10 25  1  0
 10 26  1  0
 10 27  1  0
 12 28  1  0
 12 29  1  0
 12 30  1  0
 13 31  1  0
 13 32  1  0
 14 33  1  0
 15 34  1  0
 15 35  1  0
 16 36  1  0
 16 37  1  0
 17 38  1  0
 17 39  1  0
 18 40  1  0
 18 41  1  0
 19 42  1  0
 19 43  1  0
M  CHG  2  14   1  17   1
M  END
>  <score>  (2) 
-6.95

$$$$
=
     RDKit          3D

 43 44  0  0  0  0  0  0  0  0999 V2000
    2.8770   67.5860   63.4990 C   0  0  0  0  0  0  0  0  0  0  0  0
    1.9950   67.1890   64.5160 C   0  0  0  0  0  0  0  0  0  0  0  0
    2.1190   65.8990   65.0450 C   0  0  0  0  0  0  0  0  0  0  0  0
    3.1450   65.0520   64.6150 C   0  0  0  0  0  0  0  0  0  0  0  0
    4.0800   65.4770   63.6630 C   0  0  0  0  0  0  0  0  0  0  0  0
    3.9410   66.7570   63.0940 C   0  0  0  0  0  0  0  0  0  0  0  0
    1.9290   68.8450   61.7690 C   0  0  0  0  0  0  0  0  0  0  0  0
    2.6880   68.8580   62.9940 O   0  0  0  0  0  0  0  0  0  0  0  0
    4.8440   67.3360   62.2370 O   0  0  0  0  0  0  0  0  0  0  0  0
    5.7390   68.2870   62.8190 C   0  0  0  0  0  0  0  0  0  0  0  0
    5.1720   64.7390   63.3030 O   0  0  0  0  0  0  0  0  0  0  0  0
    5.1520   63.3360   63.5480 C   0  0  0  0  0  0  0  0  0  0  0  0
    0.9790   68.1430   65.0720 C   0  0  0  0  0  0  0  0  0  0  0  0
    0.6090   67.9420   66.5480 N   0  0  0  0  0  4  0  0  0  0  0  0
    0.7240   69.1270   67.5130 C   0  0  0  0  0  0  0  0  0  0  0  0
   -0.5390   70.0230   67.5670 C   0  0  0  0  0  0  0  0  0  0  0  0
   -1.5950   69.6120   66.5860 N   0  0  0  0  0  4  0  0  0  0  0  0
   -1.9460   68.1520   66.5520 C   0  0  0  0  0  0  0  0  0  0  0  0
   -0.7180   67.2190   66.7370 C   0  0  0  0  0  0  0  0  0  0  0  0
    1.4042   65.5491   65.8044 H   0  0  0  0  0  0  0  0  0  0  0  0
    3.2189   64.0363   65.0308 H   0  0  0  0  0  0  0  0  0  0  0  0
    0.8545   68.8266   62.0036 H   0  0  0  0  0  0  0  0  0  0  0  0
    2.1612   69.7473   61.1842 H   0  0  0  0  0  0  0  0  0  0  0  0
    2.1920   67.9512   61.1842 H   0  0  0  0  0  0  0  0  0  0  0  0
    5.6792   68.2235   63.9155 H   0  0  0  0  0  0  0  0  0  0  0  0
    6.7672   68.0691   62.4946 H   0  0  0  0  0  0  0  0  0  0  0  0
    5.4591   69.3001   62.4946 H   0  0  0  0  0  0  0  0  0  0  0  0
    5.1494   63.1532   64.6327 H   0  0  0  0  0  0  0  0  0  0  0  0
    4.2475   62.8985   63.1003 H   0  0  0  0  0  0  0  0  0  0  0  0
    6.0436   62.8728   63.1003 H   0  0  0  0  0  0  0  0  0  0  0  0
    1.3769   69.1624   64.9599 H   0  0  0  0  0  0  0  0  0  0  0  0
    0.0547   67.9577   64.5052 H   0  0  0  0  0  0  0  0  0  0  0  0
    1.3902   67.3378   66.8405 H   0  0  0  0  0  0  0  0  0  0  0  0
    0.9118   68.7333   68.5228 H   0  0  0  0  0  0  0  0  0  0  0  0
    1.5456   69.7584   67.1439 H   0  0  0  0  0  0  0  0  0  0  0  0
   -0.9630   69.9693   68.5806 H   0  0  0  0  0  0  0  0  0  0  0  0
   -0.2274   71.0446   67.3040 H   0  0  0  0  0  0  0  0  0  0  0  0
   -2.4530   70.1350   66.8123 H   0  0  0  0  0  0  0  0  0  0  0  0
   -1.2002   69.8192   65.6575 H   0  0  0  0  0  0  0  0  0  0  0  0
   -2.6646   67.9470   67.3592 H   0  0  0  0  0  0  0  0  0  0  0  0
   -2.3672   67.9419   65.5578 H   0  0  0  0  0  0  0  0  0  0  0  0
   -0.7468   66.7980   67.7529 H   0  0  0  0  0  0  0  0  0  0  0  0
   -0.7797   66.4354   65.9675 H   0  0  0  0  0  0  0  0  0  0  0  0
  2  1  2  0
  3  2  1  0
  4  3  2  0
  5  4  1  0
  6  5  2  0
  6  1  1  0
  8  7  1  0
  8  1  1  0
  9  6  1  0
 10  9  1  0
 11  5  1  0
 12 11  1  0
 13  2  1  0
 14 13  1  0
 15 14  1  0
 16 15  1  0
 17 16  1  0
 18 17  1  0
 19 18  1  0
 19 14  1  0
  3 20  1  0
  4 21  1  0
  7 22  1  0
  7 23  1  0
  7 24  1  0
 10 25  1  0
 10 26  1  0
 10 27  1  0
 12 28  1  0
 12 29  1  0
 12 30  1  0
 13 31  1  0
 13 32  1  0
 14 33  1  0
 15 34  1  0
 15 35  1  0
 16 36  1  0
 16 37  1  0
 17 38  1  0
 17 39  1  0
 18 40  1  0
 18 41  1  0
 19 42  1  0
 19 43  1  0
M  CHG  2  14   1  17   1
M  END
>  <score>  (3) 
-6.936

$$$$
=
     RDKit          3D

 43 44  0  0  0  0  0  0  0  0999 V2000
    2.7870   68.6580   66.1080 C   0  0  0  0  0  0  0  0  0  0  0  0
    1.7400   68.2620   65.2610 C   0  0  0  0  0  0  0  0  0  0  0  0
    1.9000   68.4220   63.8790 C   0  0  0  0  0  0  0  0  0  0  0  0
    3.1030   68.9020   63.3540 C   0  0  0  0  0  0  0  0  0  0  0  0
    4.1810   69.2150   64.1930 C   0  0  0  0  0  0  0  0  0  0  0  0
    4.0190   69.0980   65.5850 C   0  0  0  0  0  0  0  0  0  0  0  0
    2.4380   69.7740   68.1350 C   0  0  0  0  0  0  0  0  0  0  0  0
    2.5620   68.5060   67.4620 O   0  0  0  0  0  0  0  0  0  0  0  0
    5.0220   69.2670   66.5080 O   0  0  0  0  0  0  0  0  0  0  0  0
    5.6460   70.5520   66.5280 C   0  0  0  0  0  0  0  0  0  0  0  0
    5.4170   69.5650   63.7260 O   0  0  0  0  0  0  0  0  0  0  0  0
    5.7830   69.1610   62.4110 C   0  0  0  0  0  0  0  0  0  0  0  0
    0.5010   67.6230   65.8130 C   0  0  0  0  0  0  0  0  0  0  0  0
   -0.3380   68.4960   66.7580 N   0  0  0  0  0  4  0  0  0  0  0  0
   -1.5830   69.2020   66.2100 C   0  0  0  0  0  0  0  0  0  0  0  0
   -2.8700   68.3380   66.2540 C   0  0  0  0  0  0  0  0  0  0  0  0
   -2.6240   66.9390   66.7320 N   0  0  0  0  0  4  0  0  0  0  0  0
   -1.8100   66.7940   67.9860 C   0  0  0  0  0  0  0  0  0  0  0  0
   -0.6430   67.8150   68.0850 C   0  0  0  0  0  0  0  0  0  0  0  0
    1.0719   68.1678   63.2010 H   0  0  0  0  0  0  0  0  0  0  0  0
    3.2051   69.0360   62.2670 H   0  0  0  0  0  0  0  0  0  0  0  0
    2.4536   69.6146   69.2233 H   0  0  0  0  0  0  0  0  0  0  0  0
    3.2768   70.4251   67.8478 H   0  0  0  0  0  0  0  0  0  0  0  0
    1.4890   70.2503   67.8478 H   0  0  0  0  0  0  0  0  0  0  0  0
    5.7998   70.8687   67.5701 H   0  0  0  0  0  0  0  0  0  0  0  0
    6.6172   70.4960   66.0146 H   0  0  0  0  0  0  0  0  0  0  0  0
    5.0014   71.2807   66.0146 H   0  0  0  0  0  0  0  0  0  0  0  0
    6.5205   68.3469   62.4694 H   0  0  0  0  0  0  0  0  0  0  0  0
    4.8900   68.8089   61.8737 H   0  0  0  0  0  0  0  0  0  0  0  0
    6.2213   70.0149   61.8737 H   0  0  0  0  0  0  0  0  0  0  0  0
   -0.1369   67.3351   64.9643 H   0  0  0  0  0  0  0  0  0  0  0  0
    0.8482   66.7742   66.4204 H   0  0  0  0  0  0  0  0  0  0  0  0
    0.3183   69.2770   66.9004 H   0  0  0  0  0  0  0  0  0  0  0  0
   -1.7558   70.1103   66.8060 H   0  0  0  0  0  0  0  0  0  0  0  0
   -1.3836   69.4214   65.1507 H   0  0  0  0  0  0  0  0  0  0  0  0
   -3.5906   68.8180   66.9325 H   0  0  0  0  0  0  0  0  0  0  0  0
   -3.2542   68.2700   65.2255 H   0  0  0  0  0  0  0  0  0  0  0  0
   -3.5404   66.5001   66.9010 H   0  0  0  0  0  0  0  0  0  0  0  0
   -2.0661   66.4913   65.9909 H   0  0  0  0  0  0  0  0  0  0  0  0
   -2.4738   66.9380   68.8513 H   0  0  0  0  0  0  0  0  0  0  0  0
   -1.3623   65.7894   67.9684 H   0  0  0  0  0  0  0  0  0  0  0  0
   -0.9128   68.5862   68.8215 H   0  0  0  0  0  0  0  0  0  0  0  0
    0.2574   67.2593   68.3857 H   0  0  0  0  0  0  0  0  0  0  0  0
  2  1  2  0
  3  2  1  0
  4  3  2  0
  5  4  1  0
  6  5  2  0
  6  1  1  0
  8  7  1  0
  8  1  1  0
  9  6  1  0
 10  9  1  0
 11  5  1  0
 12 11  1  0
 13  2  1  0
 14 13  1  0
 15 14  1  0
 16 15  1  0
 17 16  1  0
 18 17  1  0
 19 18  1  0
 19 14  1  0
  3 20  1  0
  4 21  1  0
  7 22  1  0
  7 23  1  0
  7 24  1  0
 10 25  1  0
 10 26  1  0
 10 27  1  0
 12 28  1  0
 12 29  1  0
 12 30  1  0
 13 31  1  0
 13 32  1  0
 14 33  1  0
 15 34  1  0
 15 35  1  0
 16 36  1  0
 16 37  1  0
 17 38  1  0
 17 39  1  0
 18 40  1  0
 18 41  1  0
 19 42  1  0
 19 43  1  0
M  CHG  2  14   1  17   1
M  END
>  <score>  (4) 
-6.407

$$$$
=
     RDKit          3D

 43 44  0  0  0  0  0  0  0  0999 V2000
    2.7510   61.8800   71.2640 C   0  0  0  0  0  0  0  0  0  0  0  0
    1.6410   61.3630   71.9520 C   0  0  0  0  0  0  0  0  0  0  0  0
    0.4890   62.1520   72.0520 C   0  0  0  0  0  0  0  0  0  0  0  0
    0.4250   63.3980   71.4220 C   0  0  0  0  0  0  0  0  0  0  0  0
    1.4990   63.8780   70.6610 C   0  0  0  0  0  0  0  0  0  0  0  0
    2.6780   63.1130   70.5870 C   0  0  0  0  0  0  0  0  0  0  0  0
    4.8930   61.5190   72.1330 C   0  0  0  0  0  0  0  0  0  0  0  0
    3.8700   61.0710   71.2230 O   0  0  0  0  0  0  0  0  0  0  0  0
    3.7570   63.4120   69.7940 O   0  0  0  0  0  0  0  0  0  0  0  0
    3.7190   62.8940   68.4620 C   0  0  0  0  0  0  0  0  0  0  0  0
    1.4410   65.0270   69.9230 O   0  0  0  0  0  0  0  0  0  0  0  0
    0.5070   66.0310   70.3060 C   0  0  0  0  0  0  0  0  0  0  0  0
    1.6610   59.9730   72.5150 C   0  0  0  0  0  0  0  0  0  0  0  0
    1.5110   59.8660   74.0390 N   0  0  0  0  0  4  0  0  0  0  0  0
    0.7840   58.6550   74.6320 C   0  0  0  0  0  0  0  0  0  0  0  0
    1.6970   57.4260   74.8760 C   0  0  0  0  0  0  0  0  0  0  0  0
    3.1000   57.6280   74.3880 N   0  0  0  0  0  4  0  0  0  0  0  0
    3.7690   58.9120   74.7900 C   0  0  0  0  0  0  0  0  0  0  0  0
    2.8110   60.1350   74.7860 C   0  0  0  0  0  0  0  0  0  0  0  0
   -0.3727   61.7885   72.6310 H   0  0  0  0  0  0  0  0  0  0  0  0
   -0.4824   64.0111   71.5252 H   0  0  0  0  0  0  0  0  0  0  0  0
    4.5533   61.3702   73.1686 H   0  0  0  0  0  0  0  0  0  0  0  0
    5.8137   60.9417   71.9626 H   0  0  0  0  0  0  0  0  0  0  0  0
    5.0931   62.5871   71.9626 H   0  0  0  0  0  0  0  0  0  0  0  0
    3.6386   61.7975   68.4972 H   0  0  0  0  0  0  0  0  0  0  0  0
    2.8489   63.3087   67.9320 H   0  0  0  0  0  0  0  0  0  0  0  0
    4.6403   63.1773   67.9320 H   0  0  0  0  0  0  0  0  0  0  0  0
    0.4565   66.0853   71.4035 H   0  0  0  0  0  0  0  0  0  0  0  0
    0.8290   67.0034   69.9052 H   0  0  0  0  0  0  0  0  0  0  0  0
   -0.4861   65.7800   69.9052 H   0  0  0  0  0  0  0  0  0  0  0  0
    0.8353   59.4107   72.0545 H   0  0  0  0  0  0  0  0  0  0  0  0
    2.6592   59.5723   72.2847 H   0  0  0  0  0  0  0  0  0  0  0  0
    0.8409   60.6312   74.2011 H   0  0  0  0  0  0  0  0  0  0  0  0
    0.3427   58.9540   75.5942 H   0  0  0  0  0  0  0  0  0  0  0  0
    0.0275   58.3470   73.8952 H   0  0  0  0  0  0  0  0  0  0  0  0
    1.7283   57.2225   75.9566 H   0  0  0  0  0  0  0  0  0  0  0  0
    1.2714   56.5844   74.3099 H   0  0  0  0  0  0  0  0  0  0  0  0
    3.6719   56.8506   74.7479 H   0  0  0  0  0  0  0  0  0  0  0  0
    3.0296   57.6661   73.3611 H   0  0  0  0  0  0  0  0  0  0  0  0
    4.1750   58.7906   75.8051 H   0  0  0  0  0  0  0  0  0  0  0  0
    4.5560   59.1139   74.0485 H   0  0  0  0  0  0  0  0  0  0  0  0
    2.5702   60.3959   75.8271 H   0  0  0  0  0  0  0  0  0  0  0  0
    3.3263   60.9568   74.2673 H   0  0  0  0  0  0  0  0  0  0  0  0
  2  1  2  0
  3  2  1  0
  4  3  2  0
  5  4  1  0
  6  5  2  0
  6  1  1  0
  8  7  1  0
  8  1  1  0
  9  6  1  0
 10  9  1  0
 11  5  1  0
 12 11  1  0
 13  2  1  0
 14 13  1  0
 15 14  1  0
 16 15  1  0
 17 16  1  0
 18 17  1  0
 19 18  1  0
 19 14  1  0
  3 20  1  0
  4 21  1  0
  7 22  1  0
  7 23  1  0
  7 24  1  0
 10 25  1  0
 10 26  1  0
 10 27  1  0
 12 28  1  0
 12 29  1  0
 12 30  1  0
 13 31  1  0
 13 32  1  0
 14 33  1  0
 15 34  1  0
 15 35  1  0
 16 36  1  0
 16 37  1  0
 17 38  1  0
 17 39  1  0
 18 40  1  0
 18 41  1  0
 19 42  1  0
 19 43  1  0
M  CHG  2  14   1  17   1
M  END
>  <score>  (5) 
-5.939

$$$$
=
     RDKit          3D

 43 44  0  0  0  0  0  0  0  0999 V2000
    2.6310   68.3520   64.2640 C   0  0  0  0  0  0  0  0  0  0  0  0
    1.4680   68.1840   65.0320 C   0  0  0  0  0  0  0  0  0  0  0  0
    0.2410   68.5760   64.4840 C   0  0  0  0  0  0  0  0  0  0  0  0
    0.1710   69.0600   63.1740 C   0  0  0  0  0  0  0  0  0  0  0  0
    1.3190   69.1460   62.3750 C   0  0  0  0  0  0  0  0  0  0  0  0
    2.5640   68.7950   62.9290 C   0  0  0  0  0  0  0  0  0  0  0  0
    4.5050   69.1010   65.4500 C   0  0  0  0  0  0  0  0  0  0  0  0
    3.8160   67.9770   64.8680 O   0  0  0  0  0  0  0  0  0  0  0  0
    3.7430   68.7290   62.2280 O   0  0  0  0  0  0  0  0  0  0  0  0
    4.1630   67.4220   61.8310 C   0  0  0  0  0  0  0  0  0  0  0  0
    1.2880   69.4900   61.0530 O   0  0  0  0  0  0  0  0  0  0  0  0
    0.0410   69.8730   60.4820 C   0  0  0  0  0  0  0  0  0  0  0  0
    1.5240   67.5420   66.3860 C   0  0  0  0  0  0  0  0  0  0  0  0
    0.6740   68.2080   67.4790 N   0  0  0  0  0  4  0  0  0  0  0  0
   -0.7580   67.7150   67.7120 C   0  0  0  0  0  0  0  0  0  0  0  0
   -0.8630   66.5200   68.6940 C   0  0  0  0  0  0  0  0  0  0  0  0
    0.4710   66.0120   69.1490 N   0  0  0  0  0  4  0  0  0  0  0  0
    1.4530   67.0440   69.6260 C   0  0  0  0  0  0  0  0  0  0  0  0
    1.4150   68.3590   68.8000 C   0  0  0  0  0  0  0  0  0  0  0  0
   -0.6751   68.5027   65.0885 H   0  0  0  0  0  0  0  0  0  0  0  0
   -0.7993   69.3778   62.7647 H   0  0  0  0  0  0  0  0  0  0  0  0
    4.4614   69.0299   66.5468 H   0  0  0  0  0  0  0  0  0  0  0  0
    5.5555   69.0961   65.1237 H   0  0  0  0  0  0  0  0  0  0  0  0
    4.0240   70.0349   65.1237 H   0  0  0  0  0  0  0  0  0  0  0  0
    4.3589   66.8124   62.7254 H   0  0  0  0  0  0  0  0  0  0  0  0
    3.3716   66.9490   61.2310 H   0  0  0  0  0  0  0  0  0  0  0  0
    5.0818   67.4986   61.2310 H   0  0  0  0  0  0  0  0  0  0  0  0
   -0.6776   70.0937   61.2850 H   0  0  0  0  0  0  0  0  0  0  0  0
    0.1824   70.7691   59.8599 H   0  0  0  0  0  0  0  0  0  0  0  0
   -0.3450   69.0520   59.8599 H   0  0  0  0  0  0  0  0  0  0  0  0
    1.1826   66.5017   66.2803 H   0  0  0  0  0  0  0  0  0  0  0  0
    2.5678   67.6395   66.7192 H   0  0  0  0  0  0  0  0  0  0  0  0
    0.5257   69.1303   67.0452 H   0  0  0  0  0  0  0  0  0  0  0  0
   -1.3489   68.5491   68.1182 H   0  0  0  0  0  0  0  0  0  0  0  0
   -1.1344   67.3619   66.7406 H   0  0  0  0  0  0  0  0  0  0  0  0
   -1.4343   66.8421   69.5771 H   0  0  0  0  0  0  0  0  0  0  0  0
   -1.3604   65.6985   68.1577 H   0  0  0  0  0  0  0  0  0  0  0  0
    0.3076   65.3535   69.9240 H   0  0  0  0  0  0  0  0  0  0  0  0
    0.9020   65.5905   68.3138 H   0  0  0  0  0  0  0  0  0  0  0  0
    1.2247   67.2842   70.6749 H   0  0  0  0  0  0  0  0  0  0  0  0
    2.4588   66.6148   69.5076 H   0  0  0  0  0  0  0  0  0  0  0  0
    0.9129   69.1342   69.3974 H   0  0  0  0  0  0  0  0  0  0  0  0
    2.4546   68.6317   68.5658 H   0  0  0  0  0  0  0  0  0  0  0  0
  2  1  2  0
  3  2  1  0
  4  3  2  0
  5  4  1  0
  6  5  2  0
  6  1  1  0
  8  7  1  0
  8  1  1  0
  9  6  1  0
 10  9  1  0
 11  5  1  0
 12 11  1  0
 13  2  1  0
 14 13  1  0
 15 14  1  0
 16 15  1  0
 17 16  1  0
 18 17  1  0
 19 18  1  0
 19 14  1  0
  3 20  1  0
  4 21  1  0
  7 22  1  0
  7 23  1  0
  7 24  1  0
 10 25  1  0
 10 26  1  0
 10 27  1  0
 12 28  1  0
 12 29  1  0
 12 30  1  0
 13 31  1  0
 13 32  1  0
 14 33  1  0
 15 34  1  0
 15 35  1  0
 16 36  1  0
 16 37  1  0
 17 38  1  0
 17 39  1  0
 18 40  1  0
 18 41  1  0
 19 42  1  0
 19 43  1  0
M  CHG  2  14   1  17   1
M  END
>  <score>  (6) 
-5.853

$$$$
=
     RDKit          3D

 43 44  0  0  0  0  0  0  0  0999 V2000
    2.0230   60.4730   72.3370 C   0  0  0  0  0  0  0  0  0  0  0  0
    2.4070   59.1470   72.0780 C   0  0  0  0  0  0  0  0  0  0  0  0
    3.2850   58.9000   71.0150 C   0  0  0  0  0  0  0  0  0  0  0  0
    3.8180   59.9590   70.2740 C   0  0  0  0  0  0  0  0  0  0  0  0
    3.5040   61.2880   70.5870 C   0  0  0  0  0  0  0  0  0  0  0  0
    2.5910   61.5480   71.6260 C   0  0  0  0  0  0  0  0  0  0  0  0
   -0.2360   60.6540   72.9220 C   0  0  0  0  0  0  0  0  0  0  0  0
    1.1320   60.6530   73.3770 O   0  0  0  0  0  0  0  0  0  0  0  0
    2.2820   62.7970   72.1040 O   0  0  0  0  0  0  0  0  0  0  0  0
    1.3010   63.5260   71.3640 C   0  0  0  0  0  0  0  0  0  0  0  0
    4.0940   62.3610   69.9790 O   0  0  0  0  0  0  0  0  0  0  0  0
    3.6990   62.6880   68.6510 C   0  0  0  0  0  0  0  0  0  0  0  0
    1.9410   58.0230   72.9550 C   0  0  0  0  0  0  0  0  0  0  0  0
    2.8890   57.6270   74.0960 N   0  0  0  0  0  4  0  0  0  0  0  0
    3.7620   58.7060   74.7460 C   0  0  0  0  0  0  0  0  0  0  0  0
    3.0700   59.4650   75.9060 C   0  0  0  0  0  0  0  0  0  0  0  0
    1.6390   59.0650   76.1020 N   0  0  0  0  0  4  0  0  0  0  0  0
    1.3580   57.5900   76.1510 C   0  0  0  0  0  0  0  0  0  0  0  0
    2.2180   56.7640   75.1560 C   0  0  0  0  0  0  0  0  0  0  0  0
    3.5573   57.8649   70.7612 H   0  0  0  0  0  0  0  0  0  0  0  0
    4.4939   59.7456   69.4328 H   0  0  0  0  0  0  0  0  0  0  0  0
   -0.9112   60.6545   73.7904 H   0  0  0  0  0  0  0  0  0  0  0  0
   -0.4196   61.5523   72.3142 H   0  0  0  0  0  0  0  0  0  0  0  0
   -0.4209   59.7560   72.3142 H   0  0  0  0  0  0  0  0  0  0  0  0
    0.6181   64.0335   72.0613 H   0  0  0  0  0  0  0  0  0  0  0  0
    1.8005   64.2738   70.7305 H   0  0  0  0  0  0  0  0  0  0  0  0
    0.7291   62.8320   70.7305 H   0  0  0  0  0  0  0  0  0  0  0  0
    2.8520   63.3892   68.6825 H   0  0  0  0  0  0  0  0  0  0  0  0
    4.5426   63.1556   68.1222 H   0  0  0  0  0  0  0  0  0  0  0  0
    3.3971   61.7719   68.1222 H   0  0  0  0  0  0  0  0  0  0  0  0
    0.9808   58.3198   73.4020 H   0  0  0  0  0  0  0  0  0  0  0  0
    1.8771   57.1411   72.3007 H   0  0  0  0  0  0  0  0  0  0  0  0
    3.5756   57.0715   73.5659 H   0  0  0  0  0  0  0  0  0  0  0  0
    4.6693   58.2251   75.1404 H   0  0  0  0  0  0  0  0  0  0  0  0
    3.9807   59.4499   73.9658 H   0  0  0  0  0  0  0  0  0  0  0  0
    3.6209   59.2601   76.8358 H   0  0  0  0  0  0  0  0  0  0  0  0
    3.0784   60.5343   75.6482 H   0  0  0  0  0  0  0  0  0  0  0  0
    1.3181   59.4748   76.9908 H   0  0  0  0  0  0  0  0  0  0  0  0
    1.1419   59.4105   75.2687 H   0  0  0  0  0  0  0  0  0  0  0  0
    1.5621   57.2300   77.1702 H   0  0  0  0  0  0  0  0  0  0  0  0
    0.3055   57.4506   75.8633 H   0  0  0  0  0  0  0  0  0  0  0  0
    2.9978   56.2336   75.7222 H   0  0  0  0  0  0  0  0  0  0  0  0
    1.5441   56.0668   74.6365 H   0  0  0  0  0  0  0  0  0  0  0  0
  2  1  2  0
  3  2  1  0
  4  3  2  0
  5  4  1  0
  6  5  2  0
  6  1  1  0
  8  7  1  0
  8  1  1  0
  9  6  1  0
 10  9  1  0
 11  5  1  0
 12 11  1  0
 13  2  1  0
 14 13  1  0
 15 14  1  0
 16 15  1  0
 17 16  1  0
 18 17  1  0
 19 18  1  0
 19 14  1  0
  3 20  1  0
  4 21  1  0
  7 22  1  0
  7 23  1  0
  7 24  1  0
 10 25  1  0
 10 26  1  0
 10 27  1  0
 12 28  1  0
 12 29  1  0
 12 30  1  0
 13 31  1  0
 13 32  1  0
 14 33  1  0
 15 34  1  0
 15 35  1  0
 16 36  1  0
 16 37  1  0
 17 38  1  0
 17 39  1  0
 18 40  1  0
 18 41  1  0
 19 42  1  0
 19 43  1  0
M  CHG  2  14   1  17   1
M  END
>  <score>  (7) 
-5.66

$$$$
=
     RDKit          3D

 43 44  0  0  0  0  0  0  0  0999 V2000
    2.0410   59.1960   72.9030 C   0  0  0  0  0  0  0  0  0  0  0  0
    2.0660   57.8500   72.5030 C   0  0  0  0  0  0  0  0  0  0  0  0
    2.7760   57.5100   71.3460 C   0  0  0  0  0  0  0  0  0  0  0  0
    3.4990   58.4800   70.6450 C   0  0  0  0  0  0  0  0  0  0  0  0
    3.5460   59.8070   71.0920 C   0  0  0  0  0  0  0  0  0  0  0  0
    2.8030   60.1700   72.2300 C   0  0  0  0  0  0  0  0  0  0  0  0
   -0.0700   59.7950   73.7180 C   0  0  0  0  0  0  0  0  0  0  0  0
    1.2990   59.4780   74.0350 O   0  0  0  0  0  0  0  0  0  0  0  0
    2.8470   61.4020   72.8350 O   0  0  0  0  0  0  0  0  0  0  0  0
    1.9840   62.4010   72.2850 C   0  0  0  0  0  0  0  0  0  0  0  0
    4.3360   60.7640   70.5190 O   0  0  0  0  0  0  0  0  0  0  0  0
    3.8610   61.4230   69.3490 C   0  0  0  0  0  0  0  0  0  0  0  0
    1.4030   56.7880   73.3270 C   0  0  0  0  0  0  0  0  0  0  0  0
    2.3450   55.8660   74.1160 N   0  0  0  0  0  4  0  0  0  0  0  0
    2.6090   56.1620   75.5950 C   0  0  0  0  0  0  0  0  0  0  0  0
    1.5740   55.5320   76.5610 C   0  0  0  0  0  0  0  0  0  0  0  0
    0.4520   54.8360   75.8510 N   0  0  0  0  0  4  0  0  0  0  0  0
    0.8420   53.8890   74.7520 C   0  0  0  0  0  0  0  0  0  0  0  0
    2.0460   54.3880   73.9060 C   0  0  0  0  0  0  0  0  0  0  0  0
    2.7652   56.4710   70.9850 H   0  0  0  0  0  0  0  0  0  0  0  0
    4.0388   58.1971   69.7292 H   0  0  0  0  0  0  0  0  0  0  0  0
   -0.6408   59.9272   74.6490 H   0  0  0  0  0  0  0  0  0  0  0  0
   -0.1047   60.7249   73.1315 H   0  0  0  0  0  0  0  0  0  0  0  0
   -0.5099   58.9750   73.1315 H   0  0  0  0  0  0  0  0  0  0  0  0
    1.5020   62.9589   73.1013 H   0  0  0  0  0  0  0  0  0  0  0  0
    2.5728   63.0934   71.6653 H   0  0  0  0  0  0  0  0  0  0  0  0
    1.2134   61.9191   71.6653 H   0  0  0  0  0  0  0  0  0  0  0  0
    3.2406   62.2837   69.6393 H   0  0  0  0  0  0  0  0  0  0  0  0
    4.7164   61.7723   68.7521 H   0  0  0  0  0  0  0  0  0  0  0  0
    3.2592   60.7219   68.7521 H   0  0  0  0  0  0  0  0  0  0  0  0
    0.7377   57.2865   74.0474 H   0  0  0  0  0  0  0  0  0  0  0  0
    0.8807   56.1374   72.6101 H   0  0  0  0  0  0  0  0  0  0  0  0
    3.2412   56.1154   73.6739 H   0  0  0  0  0  0  0  0  0  0  0  0
    3.6045   55.7717   75.8530 H   0  0  0  0  0  0  0  0  0  0  0  0
    2.5351   57.2526   75.7183 H   0  0  0  0  0  0  0  0  0  0  0  0
    2.0913   54.8005   77.1992 H   0  0  0  0  0  0  0  0  0  0  0  0
    1.1322   56.3514   77.1469 H   0  0  0  0  0  0  0  0  0  0  0  0
   -0.0783   54.3002   76.5528 H   0  0  0  0  0  0  0  0  0  0  0  0
   -0.0854   55.5839   75.3897 H   0  0  0  0  0  0  0  0  0  0  0  0
    1.1098   52.9223   75.2034 H   0  0  0  0  0  0  0  0  0  0  0  0
   -0.0198   53.8064   74.0734 H   0  0  0  0  0  0  0  0  0  0  0  0
    2.9367   53.8064   74.1858 H   0  0  0  0  0  0  0  0  0  0  0  0
    1.7844   54.2512   72.8464 H   0  0  0  0  0  0  0  0  0  0  0  0
  2  1  2  0
  3  2  1  0
  4  3  2  0
  5  4  1  0
  6  5  2  0
  6  1  1  0
  8  7  1  0
  8  1  1  0
  9  6  1  0
 10  9  1  0
 11  5  1  0
 12 11  1  0
 13  2  1  0
 14 13  1  0
 15 14  1  0
 16 15  1  0
 17 16  1  0
 18 17  1  0
 19 18  1  0
 19 14  1  0
  3 20  1  0
  4 21  1  0
  7 22  1  0
  7 23  1  0
  7 24  1  0
 10 25  1  0
 10 26  1  0
 10 27  1  0
 12 28  1  0
 12 29  1  0
 12 30  1  0
 13 31  1  0
 13 32  1  0
 14 33  1  0
 15 34  1  0
 15 35  1  0
 16 36  1  0
 16 37  1  0
 17 38  1  0
 17 39  1  0
 18 40  1  0
 18 41  1  0
 19 42  1  0
 19 43  1  0
M  CHG  2  14   1  17   1
M  END
>  <score>  (8) 
-5.338

$$$$
=
     RDKit          3D

 43 44  0  0  0  0  0  0  0  0999 V2000
    2.8470   60.8600   72.2330 C   0  0  0  0  0  0  0  0  0  0  0  0
    1.9260   61.7690   72.7770 C   0  0  0  0  0  0  0  0  0  0  0  0
    1.9190   63.0840   72.2970 C   0  0  0  0  0  0  0  0  0  0  0  0
    2.7660   63.4610   71.2510 C   0  0  0  0  0  0  0  0  0  0  0  0
    3.6240   62.5330   70.6470 C   0  0  0  0  0  0  0  0  0  0  0  0
    3.6700   61.2190   71.1480 C   0  0  0  0  0  0  0  0  0  0  0  0
    3.8980   59.3810   73.7110 C   0  0  0  0  0  0  0  0  0  0  0  0
    2.8300   59.5850   72.7670 O   0  0  0  0  0  0  0  0  0  0  0  0
    4.3810   60.1890   70.5840 O   0  0  0  0  0  0  0  0  0  0  0  0
    3.6980   59.4310   69.5830 C   0  0  0  0  0  0  0  0  0  0  0  0
    4.3770   62.8160   69.5420 O   0  0  0  0  0  0  0  0  0  0  0  0
    3.7180   62.9320   68.2850 C   0  0  0  0  0  0  0  0  0  0  0  0
    0.9260   61.3310   73.8060 C   0  0  0  0  0  0  0  0  0  0  0  0
   -0.2610   60.5120   73.2800 N   0  0  0  0  0  4  0  0  0  0  0  0
   -0.4960   59.1020   73.8320 C   0  0  0  0  0  0  0  0  0  0  0  0
   -1.3510   59.0630   75.1250 C   0  0  0  0  0  0  0  0  0  0  0  0
   -1.6980   60.4260   75.6430 N   0  0  0  0  0  4  0  0  0  0  0  0
   -2.2430   61.4040   74.6400 C   0  0  0  0  0  0  0  0  0  0  0  0
   -1.5620   61.3030   73.2480 C   0  0  0  0  0  0  0  0  0  0  0  0
    1.2422   63.8258   72.7461 H   0  0  0  0  0  0  0  0  0  0  0  0
    2.7587   64.5024   70.8967 H   0  0  0  0  0  0  0  0  0  0  0  0
    3.5021   59.4566   74.7345 H   0  0  0  0  0  0  0  0  0  0  0  0
    4.3354   58.3831   73.5598 H   0  0  0  0  0  0  0  0  0  0  0  0
    4.6724   60.1475   73.5598 H   0  0  0  0  0  0  0  0  0  0  0  0
    3.0366   58.6970   70.0665 H   0  0  0  0  0  0  0  0  0  0  0  0
    3.0986   60.1076   68.9561 H   0  0  0  0  0  0  0  0  0  0  0  0
    4.4331   58.9051   68.9561 H   0  0  0  0  0  0  0  0  0  0  0  0
    2.6467   63.1206   68.4487 H   0  0  0  0  0  0  0  0  0  0  0  0
    4.1548   63.7671   67.7177 H   0  0  0  0  0  0  0  0  0  0  0  0
    3.8434   61.9980   67.7177 H   0  0  0  0  0  0  0  0  0  0  0  0
    1.4549   60.7181   74.5508 H   0  0  0  0  0  0  0  0  0  0  0  0
    0.4926   62.2564   74.2132 H   0  0  0  0  0  0  0  0  0  0  0  0
    0.0683   60.3255   72.3220 H   0  0  0  0  0  0  0  0  0  0  0  0
   -1.0096   58.5100   73.0602 H   0  0  0  0  0  0  0  0  0  0  0  0
    0.4920   58.6944   74.0925 H   0  0  0  0  0  0  0  0  0  0  0  0
   -2.2845   58.5219   74.9110 H   0  0  0  0  0  0  0  0  0  0  0  0
   -0.7516   58.5613   75.8990 H   0  0  0  0  0  0  0  0  0  0  0  0
   -2.4050   60.3093   76.3829 H   0  0  0  0  0  0  0  0  0  0  0  0
   -0.8072   60.8314   75.9640 H   0  0  0  0  0  0  0  0  0  0  0  0
   -3.3193   61.2135   74.5164 H   0  0  0  0  0  0  0  0  0  0  0  0
   -2.0416   62.4135   75.0278 H   0  0  0  0  0  0  0  0  0  0  0  0
   -2.2563   60.8084   72.5528 H   0  0  0  0  0  0  0  0  0  0  0  0
   -1.3182   62.3259   72.9251 H   0  0  0  0  0  0  0  0  0  0  0  0
  2  1  2  0
  3  2  1  0
  4  3  2  0
  5  4  1  0
  6  5  2  0
  6  1  1  0
  8  7  1  0
  8  1  1  0
  9  6  1  0
 10  9  1  0
 11  5  1  0
 12 11  1  0
 13  2  1  0
 14 13  1  0
 15 14  1  0
 16 15  1  0
 17 16  1  0
 18 17  1  0
 19 18  1  0
 19 14  1  0
  3 20  1  0
  4 21  1  0
  7 22  1  0
  7 23  1  0
  7 24  1  0
 10 25  1  0
 10 26  1  0
 10 27  1  0
 12 28  1  0
 12 29  1  0
 12 30  1  0
 13 31  1  0
 13 32  1  0
 14 33  1  0
 15 34  1  0
 15 35  1  0
 16 36  1  0
 16 37  1  0
 17 38  1  0
 17 39  1  0
 18 40  1  0
 18 41  1  0
 19 42  1  0
 19 43  1  0
M  CHG  2  14   1  17   1
M  END
>  <score>  (9) 
-5.292

$$$$
