=
     RDKit          3D

 55 57  0  0  0  0  0  0  0  0999 V2000
    1.6550   69.0570   66.6490 N   0  0  0  0  0  0  0  0  0  0  0  0
    2.9630   69.3060   66.1400 C   0  0  0  0  0  0  0  0  0  0  0  0
    3.9630   69.7210   67.0300 C   0  0  0  0  0  0  0  0  0  0  0  0
    3.7400   69.9910   68.4950 C   0  0  0  0  0  0  0  0  0  0  0  0
    4.4650   71.2640   68.9420 C   0  0  0  0  0  0  0  0  0  0  0  0
    5.8960   71.4110   68.4030 C   0  0  0  0  0  0  0  0  0  0  0  0
    6.3480   70.2640   67.5000 C   0  0  0  0  0  0  0  0  0  0  0  0
    5.2580   69.8780   66.5370 C   0  0  0  0  0  0  0  0  0  0  0  0
    5.6000   69.6740   65.2480 N   0  0  0  0  0  0  0  0  0  0  0  0
    4.6400   69.3120   64.3860 C   0  0  0  0  0  0  0  0  0  0  0  0
    3.2930   69.1100   64.7670 C   0  0  0  0  0  0  0  0  0  0  0  0
    2.3620   68.7340   63.7640 C   0  0  0  0  0  0  0  0  0  0  0  0
    2.7510   68.5560   62.4370 C   0  0  0  0  0  0  0  0  0  0  0  0
    4.0770   68.7520   62.0830 C   0  0  0  0  0  0  0  0  0  0  0  0
    5.0010   69.1270   63.0590 C   0  0  0  0  0  0  0  0  0  0  0  0
    1.4230   67.6440   66.9990 C   0  0  0  0  0  0  0  0  0  0  0  0
    0.5400   67.5070   68.2400 C   0  0  0  0  0  0  0  0  0  0  0  0
    1.2690   66.8860   69.4370 C   0  0  0  0  0  0  0  0  0  0  0  0
    0.3480   66.0620   70.3410 C   0  0  0  0  0  0  0  0  0  0  0  0
    1.0170   64.8020   70.9050 C   0  0  0  0  0  0  0  0  0  0  0  0
    2.3120   64.3880   70.2040 C   0  0  0  0  0  0  0  0  0  0  0  0
    3.5080   62.2380   69.9460 C   0  0  0  0  0  0  0  0  0  0  0  0
    4.6040   62.6260   70.3170 O   0  0  0  0  0  0  0  0  0  0  0  0
    2.3520   62.9800   69.8900 N   0  0  0  0  0  0  0  0  0  0  0  0
    4.1200   59.8790   69.9550 N   0  0  0  0  0  0  0  0  0  0  0  0
    3.3500   60.8080   69.4840 C   0  0  0  0  0  0  0  0  0  0  0  0
    3.7600   58.6610   69.3620 O   0  0  0  0  0  0  0  0  0  0  0  0
    0.9422   69.7920   66.7612 H   0  0  0  0  0  0  0  0  0  0  0  0
    2.6618   70.1096   68.6776 H   0  0  0  0  0  0  0  0  0  0  0  0
    4.1406   69.1429   69.0697 H   0  0  0  0  0  0  0  0  0  0  0  0
    3.8793   72.1299   68.5997 H   0  0  0  0  0  0  0  0  0  0  0  0
    4.5502   71.2046   70.0371 H   0  0  0  0  0  0  0  0  0  0  0  0
    5.9528   72.3462   67.8267 H   0  0  0  0  0  0  0  0  0  0  0  0
    6.5641   71.4065   69.2768 H   0  0  0  0  0  0  0  0  0  0  0  0
    7.2351   70.5808   66.9319 H   0  0  0  0  0  0  0  0  0  0  0  0
    6.5858   69.3937   68.1293 H   0  0  0  0  0  0  0  0  0  0  0  0
    1.3085   68.5793   64.0401 H   0  0  0  0  0  0  0  0  0  0  0  0
    2.0118   68.2624   61.6771 H   0  0  0  0  0  0  0  0  0  0  0  0
    4.3984   68.6129   61.0402 H   0  0  0  0  0  0  0  0  0  0  0  0
    6.0502   69.2811   62.7668 H   0  0  0  0  0  0  0  0  0  0  0  0
    0.9292   67.1435   66.1530 H   0  0  0  0  0  0  0  0  0  0  0  0
    2.3963   67.1803   67.2174 H   0  0  0  0  0  0  0  0  0  0  0  0
    0.1849   68.5075   68.5281 H   0  0  0  0  0  0  0  0  0  0  0  0
   -0.2887   66.8329   67.9776 H   0  0  0  0  0  0  0  0  0  0  0  0
    2.0666   66.2297   69.0588 H   0  0  0  0  0  0  0  0  0  0  0  0
    1.6679   67.7131   70.0426 H   0  0  0  0  0  0  0  0  0  0  0  0
    0.0290   66.6941   71.1828 H   0  0  0  0  0  0  0  0  0  0  0  0
   -0.5010   65.7311   69.7248 H   0  0  0  0  0  0  0  0  0  0  0  0
    1.2460   64.9830   71.9656 H   0  0  0  0  0  0  0  0  0  0  0  0
    0.3049   63.9788   70.7459 H   0  0  0  0  0  0  0  0  0  0  0  0
    2.4036   64.9595   69.2686 H   0  0  0  0  0  0  0  0  0  0  0  0
    3.1434   64.5976   70.8931 H   0  0  0  0  0  0  0  0  0  0  0  0
    1.4778   62.5114   69.6123 H   0  0  0  0  0  0  0  0  0  0  0  0
    2.5769   60.5546   68.7437 H   0  0  0  0  0  0  0  0  0  0  0  0
    4.2437   57.8313   69.6024 H   0  0  0  0  0  0  0  0  0  0  0  0
  2  1  1  0
  3  2  2  0
  4  3  1  0
  5  4  1  0
  6  5  1  0
  7  6  1  0
  8  3  1  0
  8  7  1  0
  9  8  2  0
 10  9  1  0
 11 10  2  0
 11  2  1  0
 12 11  1  0
 13 12  2  0
 14 13  1  0
 15 14  2  0
 15 10  1  0
 16  1  1  0
 17 16  1  0
 18 17  1  0
 19 18  1  0
 20 19  1  0
 21 20  1  0
 23 22  2  0
 24 22  1  0
 24 21  1  0
 26 25  2  0
 26 22  1  0
 27 25  1  0
  1 28  1  0
  4 29  1  0
  4 30  1  0
  5 31  1  0
  5 32  1  0
  6 33  1  0
  6 34  1  0
  7 35  1  0
  7 36  1  0
 12 37  1  0
 13 38  1  0
 14 39  1  0
 15 40  1  0
 16 41  1  0
 16 42  1  0
 17 43  1  0
 17 44  1  0
 18 45  1  0
 18 46  1  0
 19 47  1  0
 19 48  1  0
 20 49  1  0
 20 50  1  0
 21 51  1  0
 21 52  1  0
 24 53  1  0
 26 54  1  0
 27 55  1  0
M  END
>  <score>  (1) 
-10.696

$$$$
=
     RDKit          3D

 55 57  0  0  0  0  0  0  0  0999 V2000
    1.7460   69.0760   66.6720 N   0  0  0  0  0  0  0  0  0  0  0  0
    3.1090   69.3400   66.3480 C   0  0  0  0  0  0  0  0  0  0  0  0
    3.5410   69.1250   65.0320 C   0  0  0  0  0  0  0  0  0  0  0  0
    2.6770   68.5640   63.9350 C   0  0  0  0  0  0  0  0  0  0  0  0
    3.4420   67.5320   63.0990 C   0  0  0  0  0  0  0  0  0  0  0  0
    4.8780   67.9360   62.7360 C   0  0  0  0  0  0  0  0  0  0  0  0
    5.3040   69.2980   63.2820 C   0  0  0  0  0  0  0  0  0  0  0  0
    4.8520   69.4700   64.7070 C   0  0  0  0  0  0  0  0  0  0  0  0
    5.7360   69.9790   65.5900 N   0  0  0  0  0  0  0  0  0  0  0  0
    5.3380   70.1530   66.8580 C   0  0  0  0  0  0  0  0  0  0  0  0
    4.0310   69.8520   67.3080 C   0  0  0  0  0  0  0  0  0  0  0  0
    3.7260   70.0710   68.6770 C   0  0  0  0  0  0  0  0  0  0  0  0
    4.6760   70.5780   69.5630 C   0  0  0  0  0  0  0  0  0  0  0  0
    5.9490   70.8730   69.1040 C   0  0  0  0  0  0  0  0  0  0  0  0
    6.2630   70.6570   67.7610 C   0  0  0  0  0  0  0  0  0  0  0  0
    1.5050   67.6860   67.1000 C   0  0  0  0  0  0  0  0  0  0  0  0
    0.6500   67.6250   68.3670 C   0  0  0  0  0  0  0  0  0  0  0  0
    1.3090   66.8390   69.5050 C   0  0  0  0  0  0  0  0  0  0  0  0
    0.3040   66.0620   70.3610 C   0  0  0  0  0  0  0  0  0  0  0  0
    0.8140   64.6840   70.7980 C   0  0  0  0  0  0  0  0  0  0  0  0
    2.1860   64.2960   70.2440 C   0  0  0  0  0  0  0  0  0  0  0  0
    3.1570   62.0280   70.4240 C   0  0  0  0  0  0  0  0  0  0  0  0
    3.9360   62.2640   71.3350 O   0  0  0  0  0  0  0  0  0  0  0  0
    2.2630   62.9060   69.8610 N   0  0  0  0  0  0  0  0  0  0  0  0
    4.1160   59.8230   70.0240 N   0  0  0  0  0  0  0  0  0  0  0  0
    3.1390   60.6470   69.8110 C   0  0  0  0  0  0  0  0  0  0  0  0
    3.8460   58.6280   69.3440 O   0  0  0  0  0  0  0  0  0  0  0  0
    1.0027   69.7866   66.6129 H   0  0  0  0  0  0  0  0  0  0  0  0
    1.7966   68.0807   64.3836 H   0  0  0  0  0  0  0  0  0  0  0  0
    2.3725   69.3897   63.2751 H   0  0  0  0  0  0  0  0  0  0  0  0
    3.4845   66.5926   63.6697 H   0  0  0  0  0  0  0  0  0  0  0  0
    2.8967   67.4373   62.1484 H   0  0  0  0  0  0  0  0  0  0  0  0
    5.5624   67.1742   63.1377 H   0  0  0  0  0  0  0  0  0  0  0  0
    4.9173   68.0095   61.6392 H   0  0  0  0  0  0  0  0  0  0  0  0
    6.4004   69.3761   63.2399 H   0  0  0  0  0  0  0  0  0  0  0  0
    4.8393   70.0838   62.6684 H   0  0  0  0  0  0  0  0  0  0  0  0
    2.7174   69.8354   69.0473 H   0  0  0  0  0  0  0  0  0  0  0  0
    4.4161   70.7425   70.6191 H   0  0  0  0  0  0  0  0  0  0  0  0
    6.7070   71.2745   69.7926 H   0  0  0  0  0  0  0  0  0  0  0  0
    7.2771   70.8942   67.4071 H   0  0  0  0  0  0  0  0  0  0  0  0
    0.9850   67.1494   66.2927 H   0  0  0  0  0  0  0  0  0  0  0  0
    2.4774   67.2210   67.3195 H   0  0  0  0  0  0  0  0  0  0  0  0
    0.4654   68.6525   68.7135 H   0  0  0  0  0  0  0  0  0  0  0  0
   -0.2819   67.1019   68.1065 H   0  0  0  0  0  0  0  0  0  0  0  0
    2.0232   66.1248   69.0692 H   0  0  0  0  0  0  0  0  0  0  0  0
    1.8044   67.5684   70.1627 H   0  0  0  0  0  0  0  0  0  0  0  0
    0.0822   66.6535   71.2616 H   0  0  0  0  0  0  0  0  0  0  0  0
   -0.5901   65.8962   69.7420 H   0  0  0  0  0  0  0  0  0  0  0  0
    0.8748   64.6754   71.8963 H   0  0  0  0  0  0  0  0  0  0  0  0
    0.1010   63.9504   70.3938 H   0  0  0  0  0  0  0  0  0  0  0  0
    2.3961   64.9161   69.3601 H   0  0  0  0  0  0  0  0  0  0  0  0
    2.9239   64.4603   71.0430 H   0  0  0  0  0  0  0  0  0  0  0  0
    1.6205   62.5581   69.1350 H   0  0  0  0  0  0  0  0  0  0  0  0
    2.2918   60.3395   69.1804 H   0  0  0  0  0  0  0  0  0  0  0  0
    4.4876   57.8755   69.3916 H   0  0  0  0  0  0  0  0  0  0  0  0
  2  1  1  0
  3  2  2  0
  4  3  1  0
  5  4  1  0
  6  5  1  0
  7  6  1  0
  8  3  1  0
  8  7  1  0
  9  8  2  0
 10  9  1  0
 11 10  2  0
 11  2  1  0
 12 11  1  0
 13 12  2  0
 14 13  1  0
 15 14  2  0
 15 10  1  0
 16  1  1  0
 17 16  1  0
 18 17  1  0
 19 18  1  0
 20 19  1  0
 21 20  1  0
 23 22  2  0
 24 22  1  0
 24 21  1  0
 26 25  2  0
 26 22  1  0
 27 25  1  0
  1 28  1  0
  4 29  1  0
  4 30  1  0
  5 31  1  0
  5 32  1  0
  6 33  1  0
  6 34  1  0
  7 35  1  0
  7 36  1  0
 12 37  1  0
 13 38  1  0
 14 39  1  0
 15 40  1  0
 16 41  1  0
 16 42  1  0
 17 43  1  0
 17 44  1  0
 18 45  1  0
 18 46  1  0
 19 47  1  0
 19 48  1  0
 20 49  1  0
 20 50  1  0
 21 51  1  0
 21 52  1  0
 24 53  1  0
 26 54  1  0
 27 55  1  0
M  END
>  <score>  (2) 
-10.614

$$$$
=
     RDKit          3D

 55 57  0  0  0  0  0  0  0  0999 V2000
    3.8780   68.6490   64.2120 N   0  0  0  0  0  0  0  0  0  0  0  0
    3.4580   69.0250   65.5220 C   0  0  0  0  0  0  0  0  0  0  0  0
    2.1630   68.6860   65.9360 C   0  0  0  0  0  0  0  0  0  0  0  0
    1.1430   68.0030   65.0640 C   0  0  0  0  0  0  0  0  0  0  0  0
   -0.2430   68.6340   65.2320 C   0  0  0  0  0  0  0  0  0  0  0  0
   -0.6390   68.9370   66.6850 C   0  0  0  0  0  0  0  0  0  0  0  0
    0.4250   68.5660   67.7160 C   0  0  0  0  0  0  0  0  0  0  0  0
    1.7940   68.9820   67.2470 C   0  0  0  0  0  0  0  0  0  0  0  0
    2.6040   69.5930   68.1360 N   0  0  0  0  0  0  0  0  0  0  0  0
    3.8310   69.9520   67.7330 C   0  0  0  0  0  0  0  0  0  0  0  0
    4.3250   69.6970   66.4330 C   0  0  0  0  0  0  0  0  0  0  0  0
    5.6400   70.1290   66.1190 C   0  0  0  0  0  0  0  0  0  0  0  0
    6.4380   70.7800   67.0590 C   0  0  0  0  0  0  0  0  0  0  0  0
    5.9410   71.0150   68.3300 C   0  0  0  0  0  0  0  0  0  0  0  0
    4.6470   70.6000   68.6500 C   0  0  0  0  0  0  0  0  0  0  0  0
    4.7840   67.4860   64.1990 C   0  0  0  0  0  0  0  0  0  0  0  0
    4.3540   66.4480   63.1620 C   0  0  0  0  0  0  0  0  0  0  0  0
    4.3660   65.0130   63.7000 C   0  0  0  0  0  0  0  0  0  0  0  0
    3.4660   64.8210   64.9230 C   0  0  0  0  0  0  0  0  0  0  0  0
    3.7370   63.5150   65.6800 C   0  0  0  0  0  0  0  0  0  0  0  0
    3.7330   63.6370   67.2040 C   0  0  0  0  0  0  0  0  0  0  0  0
    3.6130   62.2210   69.2290 C   0  0  0  0  0  0  0  0  0  0  0  0
    3.8240   63.1020   70.0470 O   0  0  0  0  0  0  0  0  0  0  0  0
    3.5150   62.3730   67.8670 N   0  0  0  0  0  0  0  0  0  0  0  0
    4.0960   59.8330   69.1370 N   0  0  0  0  0  0  0  0  0  0  0  0
    3.4440   60.7970   69.7070 C   0  0  0  0  0  0  0  0  0  0  0  0
    3.7560   58.6310   69.7710 O   0  0  0  0  0  0  0  0  0  0  0  0
    3.5778   69.1416   63.3587 H   0  0  0  0  0  0  0  0  0  0  0  0
    1.4527   68.0927   64.0123 H   0  0  0  0  0  0  0  0  0  0  0  0
    1.0824   66.9460   65.3624 H   0  0  0  0  0  0  0  0  0  0  0  0
   -0.2600   69.5784   64.6683 H   0  0  0  0  0  0  0  0  0  0  0  0
   -0.9678   67.8947   64.8604 H   0  0  0  0  0  0  0  0  0  0  0  0
   -0.8399   70.0152   66.7698 H   0  0  0  0  0  0  0  0  0  0  0  0
   -1.5218   68.3193   66.9066 H   0  0  0  0  0  0  0  0  0  0  0  0
    0.1995   69.0739   68.6653 H   0  0  0  0  0  0  0  0  0  0  0  0
    0.4166   67.4746   67.8534 H   0  0  0  0  0  0  0  0  0  0  0  0
    6.0390   69.9459   65.1104 H   0  0  0  0  0  0  0  0  0  0  0  0
    7.4548   71.1045   66.7929 H   0  0  0  0  0  0  0  0  0  0  0  0
    6.5612   71.5249   69.0819 H   0  0  0  0  0  0  0  0  0  0  0  0
    4.2615   70.7929   69.6620 H   0  0  0  0  0  0  0  0  0  0  0  0
    5.8014   67.8290   63.9599 H   0  0  0  0  0  0  0  0  0  0  0  0
    4.7513   67.0138   65.1919 H   0  0  0  0  0  0  0  0  0  0  0  0
    3.3331   66.6880   62.8302 H   0  0  0  0  0  0  0  0  0  0  0  0
    5.0793   66.4925   62.3362 H   0  0  0  0  0  0  0  0  0  0  0  0
    4.0217   64.3377   62.9029 H   0  0  0  0  0  0  0  0  0  0  0  0
    5.3964   64.7897   64.0136 H   0  0  0  0  0  0  0  0  0  0  0  0
    3.6290   65.6633   65.6115 H   0  0  0  0  0  0  0  0  0  0  0  0
    2.4289   64.7760   64.5590 H   0  0  0  0  0  0  0  0  0  0  0  0
    2.9624   62.7882   65.3941 H   0  0  0  0  0  0  0  0  0  0  0  0
    4.7541   63.2035   65.3999 H   0  0  0  0  0  0  0  0  0  0  0  0
    4.7044   64.0399   67.5267 H   0  0  0  0  0  0  0  0  0  0  0  0
    2.9022   64.3029   67.4803 H   0  0  0  0  0  0  0  0  0  0  0  0
    3.2759   61.5506   67.2948 H   0  0  0  0  0  0  0  0  0  0  0  0
    2.7638   60.5778   70.5433 H   0  0  0  0  0  0  0  0  0  0  0  0
    4.1603   57.7797   69.4676 H   0  0  0  0  0  0  0  0  0  0  0  0
  2  1  1  0
  3  2  2  0
  4  3  1  0
  5  4  1  0
  6  5  1  0
  7  6  1  0
  8  3  1  0
  8  7  1  0
  9  8  2  0
 10  9  1  0
 11 10  2  0
 11  2  1  0
 12 11  1  0
 13 12  2  0
 14 13  1  0
 15 14  2  0
 15 10  1  0
 16  1  1  0
 17 16  1  0
 18 17  1  0
 19 18  1  0
 20 19  1  0
 21 20  1  0
 23 22  2  0
 24 22  1  0
 24 21  1  0
 26 25  2  0
 26 22  1  0
 27 25  1  0
  1 28  1  0
  4 29  1  0
  4 30  1  0
  5 31  1  0
  5 32  1  0
  6 33  1  0
  6 34  1  0
  7 35  1  0
  7 36  1  0
 12 37  1  0
 13 38  1  0
 14 39  1  0
 15 40  1  0
 16 41  1  0
 16 42  1  0
 17 43  1  0
 17 44  1  0
 18 45  1  0
 18 46  1  0
 19 47  1  0
 19 48  1  0
 20 49  1  0
 20 50  1  0
 21 51  1  0
 21 52  1  0
 24 53  1  0
 26 54  1  0
 27 55  1  0
M  END
>  <score>  (3) 
-9.62

$$$$
=
     RDKit          3D

 55 57  0  0  0  0  0  0  0  0999 V2000
    4.8970   68.5300   64.8270 N   0  0  0  0  0  0  0  0  0  0  0  0
    4.2470   68.9530   66.0230 C   0  0  0  0  0  0  0  0  0  0  0  0
    4.9000   69.8770   66.8520 C   0  0  0  0  0  0  0  0  0  0  0  0
    6.2850   70.4120   66.6030 C   0  0  0  0  0  0  0  0  0  0  0  0
    7.1020   70.4620   67.8980 C   0  0  0  0  0  0  0  0  0  0  0  0
    6.3410   71.0010   69.1180 C   0  0  0  0  0  0  0  0  0  0  0  0
    4.8900   71.3860   68.8320 C   0  0  0  0  0  0  0  0  0  0  0  0
    4.2190   70.3500   67.9720 C   0  0  0  0  0  0  0  0  0  0  0  0
    2.9760   69.9550   68.3180 N   0  0  0  0  0  0  0  0  0  0  0  0
    2.3620   69.0440   67.5480 C   0  0  0  0  0  0  0  0  0  0  0  0
    2.9440   68.4990   66.3810 C   0  0  0  0  0  0  0  0  0  0  0  0
    2.2010   67.5360   65.6480 C   0  0  0  0  0  0  0  0  0  0  0  0
    0.9280   67.1360   66.0520 C   0  0  0  0  0  0  0  0  0  0  0  0
    0.3700   67.6870   67.1950 C   0  0  0  0  0  0  0  0  0  0  0  0
    1.0930   68.6300   67.9270 C   0  0  0  0  0  0  0  0  0  0  0  0
    4.6600   69.4280   63.6820 C   0  0  0  0  0  0  0  0  0  0  0  0
    4.7660   68.6840   62.3500 C   0  0  0  0  0  0  0  0  0  0  0  0
    3.5340   68.8630   61.4570 C   0  0  0  0  0  0  0  0  0  0  0  0
    2.2440   68.3440   62.0980 C   0  0  0  0  0  0  0  0  0  0  0  0
    1.2470   69.4550   62.4480 C   0  0  0  0  0  0  0  0  0  0  0  0
   -0.2170   69.0180   62.5000 C   0  0  0  0  0  0  0  0  0  0  0  0
   -2.0450   68.9500   64.1660 C   0  0  0  0  0  0  0  0  0  0  0  0
   -2.9730   69.0830   63.3840 O   0  0  0  0  0  0  0  0  0  0  0  0
   -0.7100   68.8710   63.8490 N   0  0  0  0  0  0  0  0  0  0  0  0
   -3.3740   68.2200   66.0750 N   0  0  0  0  0  0  0  0  0  0  0  0
   -2.3360   68.8670   65.6470 C   0  0  0  0  0  0  0  0  0  0  0  0
   -3.4030   68.3020   67.4730 O   0  0  0  0  0  0  0  0  0  0  0  0
    5.4757   67.6800   64.7684 H   0  0  0  0  0  0  0  0  0  0  0  0
    6.7971   69.7591   65.8809 H   0  0  0  0  0  0  0  0  0  0  0  0
    6.1969   71.4347   66.2076 H   0  0  0  0  0  0  0  0  0  0  0  0
    7.4402   69.4411   68.1291 H   0  0  0  0  0  0  0  0  0  0  0  0
    7.9304   71.1622   67.7151 H   0  0  0  0  0  0  0  0  0  0  0  0
    6.3446   70.2247   69.8973 H   0  0  0  0  0  0  0  0  0  0  0  0
    6.8563   71.9213   69.4304 H   0  0  0  0  0  0  0  0  0  0  0  0
    4.3457   71.4711   69.7841 H   0  0  0  0  0  0  0  0  0  0  0  0
    4.8804   72.3469   68.2966 H   0  0  0  0  0  0  0  0  0  0  0  0
    2.6400   67.0955   64.7406 H   0  0  0  0  0  0  0  0  0  0  0  0
    0.3706   66.3888   65.4681 H   0  0  0  0  0  0  0  0  0  0  0  0
   -0.6352   67.3833   67.5227 H   0  0  0  0  0  0  0  0  0  0  0  0
    0.6421   69.0591   68.8340 H   0  0  0  0  0  0  0  0  0  0  0  0
    3.6522   69.8600   63.7701 H   0  0  0  0  0  0  0  0  0  0  0  0
    5.4283   70.2150   63.6979 H   0  0  0  0  0  0  0  0  0  0  0  0
    5.6470   69.0599   61.8091 H   0  0  0  0  0  0  0  0  0  0  0  0
    4.8483   67.6117   62.5810 H   0  0  0  0  0  0  0  0  0  0  0  0
    3.4109   69.9347   61.2418 H   0  0  0  0  0  0  0  0  0  0  0  0
    3.7045   68.2750   60.5431 H   0  0  0  0  0  0  0  0  0  0  0  0
    1.7600   67.6503   61.3948 H   0  0  0  0  0  0  0  0  0  0  0  0
    2.5255   67.8521   63.0407 H   0  0  0  0  0  0  0  0  0  0  0  0
    1.5179   69.8578   63.4351 H   0  0  0  0  0  0  0  0  0  0  0  0
    1.3174   70.1966   61.6387 H   0  0  0  0  0  0  0  0  0  0  0  0
   -0.8276   69.7730   61.9831 H   0  0  0  0  0  0  0  0  0  0  0  0
   -0.2861   68.0339   62.0133 H   0  0  0  0  0  0  0  0  0  0  0  0
   -0.0326   68.6997   64.6058 H   0  0  0  0  0  0  0  0  0  0  0  0
   -1.6631   69.3584   66.3652 H   0  0  0  0  0  0  0  0  0  0  0  0
   -4.1314   67.8629   67.9796 H   0  0  0  0  0  0  0  0  0  0  0  0
  2  1  1  0
  3  2  2  0
  4  3  1  0
  5  4  1  0
  6  5  1  0
  7  6  1  0
  8  3  1  0
  8  7  1  0
  9  8  2  0
 10  9  1  0
 11 10  2  0
 11  2  1  0
 12 11  1  0
 13 12  2  0
 14 13  1  0
 15 14  2  0
 15 10  1  0
 16  1  1  0
 17 16  1  0
 18 17  1  0
 19 18  1  0
 20 19  1  0
 21 20  1  0
 23 22  2  0
 24 22  1  0
 24 21  1  0
 26 25  2  0
 26 22  1  0
 27 25  1  0
  1 28  1  0
  4 29  1  0
  4 30  1  0
  5 31  1  0
  5 32  1  0
  6 33  1  0
  6 34  1  0
  7 35  1  0
  7 36  1  0
 12 37  1  0
 13 38  1  0
 14 39  1  0
 15 40  1  0
 16 41  1  0
 16 42  1  0
 17 43  1  0
 17 44  1  0
 18 45  1  0
 18 46  1  0
 19 47  1  0
 19 48  1  0
 20 49  1  0
 20 50  1  0
 21 51  1  0
 21 52  1  0
 24 53  1  0
 26 54  1  0
 27 55  1  0
M  END
>  <score>  (4) 
-9.391

$$$$
=
     RDKit          3D

 55 57  0  0  0  0  0  0  0  0999 V2000
    0.0590   63.4790   71.0080 N   0  0  0  0  0  0  0  0  0  0  0  0
    0.6920   62.2810   71.4520 C   0  0  0  0  0  0  0  0  0  0  0  0
    1.9880   61.9990   70.9990 C   0  0  0  0  0  0  0  0  0  0  0  0
    2.7470   62.8450   70.0110 C   0  0  0  0  0  0  0  0  0  0  0  0
    3.4710   61.9760   68.9780 C   0  0  0  0  0  0  0  0  0  0  0  0
    4.1860   60.7470   69.5580 C   0  0  0  0  0  0  0  0  0  0  0  0
    4.0440   60.5950   71.0710 C   0  0  0  0  0  0  0  0  0  0  0  0
    2.6300   60.8700   71.5080 C   0  0  0  0  0  0  0  0  0  0  0  0
    2.0690   60.0230   72.3950 N   0  0  0  0  0  0  0  0  0  0  0  0
    0.8160   60.2700   72.8030 C   0  0  0  0  0  0  0  0  0  0  0  0
    0.0660   61.3870   72.3690 C   0  0  0  0  0  0  0  0  0  0  0  0
   -1.2550   61.5410   72.8650 C   0  0  0  0  0  0  0  0  0  0  0  0
   -1.8080   60.6290   73.7630 C   0  0  0  0  0  0  0  0  0  0  0  0
   -1.0560   59.5440   74.1840 C   0  0  0  0  0  0  0  0  0  0  0  0
    0.2430   59.3780   73.6990 C   0  0  0  0  0  0  0  0  0  0  0  0
    0.3650   64.6500   71.8500 C   0  0  0  0  0  0  0  0  0  0  0  0
    0.2240   65.9580   71.0700 C   0  0  0  0  0  0  0  0  0  0  0  0
    0.8980   65.9190   69.6950 C   0  0  0  0  0  0  0  0  0  0  0  0
    0.7700   67.2360   68.9230 C   0  0  0  0  0  0  0  0  0  0  0  0
   -0.3740   67.2340   67.9020 C   0  0  0  0  0  0  0  0  0  0  0  0
    0.0020   67.7390   66.5080 C   0  0  0  0  0  0  0  0  0  0  0  0
    2.1410   67.0670   65.4630 C   0  0  0  0  0  0  0  0  0  0  0  0
    2.7900   68.0470   65.7930 O   0  0  0  0  0  0  0  0  0  0  0  0
    0.8300   66.8070   65.7800 N   0  0  0  0  0  0  0  0  0  0  0  0
    2.9710   64.8060   65.0800 N   0  0  0  0  0  0  0  0  0  0  0  0
    2.7960   66.0020   64.6130 C   0  0  0  0  0  0  0  0  0  0  0  0
    3.5930   64.0300   64.0940 O   0  0  0  0  0  0  0  0  0  0  0  0
   -0.5522   63.5221   70.1801 H   0  0  0  0  0  0  0  0  0  0  0  0
    2.0410   63.5085   69.4900 H   0  0  0  0  0  0  0  0  0  0  0  0
    3.4981   63.4319   70.5600 H   0  0  0  0  0  0  0  0  0  0  0  0
    2.7292   61.6261   68.2450 H   0  0  0  0  0  0  0  0  0  0  0  0
    4.2538   62.6091   68.5349 H   0  0  0  0  0  0  0  0  0  0  0  0
    3.7688   59.8481   69.0805 H   0  0  0  0  0  0  0  0  0  0  0  0
    5.2586   60.8800   69.3534 H   0  0  0  0  0  0  0  0  0  0  0  0
    4.3161   59.5683   71.3569 H   0  0  0  0  0  0  0  0  0  0  0  0
    4.7107   61.3198   71.5612 H   0  0  0  0  0  0  0  0  0  0  0  0
   -1.8566   62.4000   72.5331 H   0  0  0  0  0  0  0  0  0  0  0  0
   -2.8337   60.7698   74.1345 H   0  0  0  0  0  0  0  0  0  0  0  0
   -1.4790   58.8189   74.8949 H   0  0  0  0  0  0  0  0  0  0  0  0
    0.8311   58.5124   74.0380 H   0  0  0  0  0  0  0  0  0  0  0  0
   -0.3289   64.6669   72.7034 H   0  0  0  0  0  0  0  0  0  0  0  0
    1.4070   64.5645   72.1919 H   0  0  0  0  0  0  0  0  0  0  0  0
   -0.8468   66.1663   70.9282 H   0  0  0  0  0  0  0  0  0  0  0  0
    0.7247   66.7426   71.6562 H   0  0  0  0  0  0  0  0  0  0  0  0
    1.9665   65.6984   69.8354 H   0  0  0  0  0  0  0  0  0  0  0  0
    0.3903   65.1427   69.1038 H   0  0  0  0  0  0  0  0  0  0  0  0
    0.5923   68.0473   69.6443 H   0  0  0  0  0  0  0  0  0  0  0  0
    1.7059   67.3762   68.3622 H   0  0  0  0  0  0  0  0  0  0  0  0
   -0.7413   66.2019   67.8033 H   0  0  0  0  0  0  0  0  0  0  0  0
   -1.1312   67.9324   68.2878 H   0  0  0  0  0  0  0  0  0  0  0  0
   -0.9214   67.9104   65.9353 H   0  0  0  0  0  0  0  0  0  0  0  0
    0.5804   68.6658   66.6363 H   0  0  0  0  0  0  0  0  0  0  0  0
    0.4203   65.9090   65.4858 H   0  0  0  0  0  0  0  0  0  0  0  0
    3.1260   66.2439   63.5919 H   0  0  0  0  0  0  0  0  0  0  0  0
    3.8074   63.0803   64.2736 H   0  0  0  0  0  0  0  0  0  0  0  0
  2  1  1  0
  3  2  2  0
  4  3  1  0
  5  4  1  0
  6  5  1  0
  7  6  1  0
  8  3  1  0
  8  7  1  0
  9  8  2  0
 10  9  1  0
 11 10  2  0
 11  2  1  0
 12 11  1  0
 13 12  2  0
 14 13  1  0
 15 14  2  0
 15 10  1  0
 16  1  1  0
 17 16  1  0
 18 17  1  0
 19 18  1  0
 20 19  1  0
 21 20  1  0
 23 22  2  0
 24 22  1  0
 24 21  1  0
 26 25  2  0
 26 22  1  0
 27 25  1  0
  1 28  1  0
  4 29  1  0
  4 30  1  0
  5 31  1  0
  5 32  1  0
  6 33  1  0
  6 34  1  0
  7 35  1  0
  7 36  1  0
 12 37  1  0
 13 38  1  0
 14 39  1  0
 15 40  1  0
 16 41  1  0
 16 42  1  0
 17 43  1  0
 17 44  1  0
 18 45  1  0
 18 46  1  0
 19 47  1  0
 19 48  1  0
 20 49  1  0
 20 50  1  0
 21 51  1  0
 21 52  1  0
 24 53  1  0
 26 54  1  0
 27 55  1  0
M  END
>  <score>  (5) 
-8.965

$$$$
=
     RDKit          3D

 55 57  0  0  0  0  0  0  0  0999 V2000
    3.7680   68.7480   64.4150 N   0  0  0  0  0  0  0  0  0  0  0  0
    3.4330   69.0400   65.7690 C   0  0  0  0  0  0  0  0  0  0  0  0
    4.3300   69.7980   66.5350 C   0  0  0  0  0  0  0  0  0  0  0  0
    5.6720   70.2770   66.0460 C   0  0  0  0  0  0  0  0  0  0  0  0
    6.7500   70.0960   67.1180 C   0  0  0  0  0  0  0  0  0  0  0  0
    6.3230   70.5060   68.5350 C   0  0  0  0  0  0  0  0  0  0  0  0
    4.8860   71.0150   68.6350 C   0  0  0  0  0  0  0  0  0  0  0  0
    3.9540   70.1510   67.8300 C   0  0  0  0  0  0  0  0  0  0  0  0
    2.7850   69.7890   68.3970 N   0  0  0  0  0  0  0  0  0  0  0  0
    1.9390   69.0330   67.6810 C   0  0  0  0  0  0  0  0  0  0  0  0
    2.2030   68.6210   66.3550 C   0  0  0  0  0  0  0  0  0  0  0  0
    1.2350   67.8160   65.6980 C   0  0  0  0  0  0  0  0  0  0  0  0
    0.0480   67.4430   66.3280 C   0  0  0  0  0  0  0  0  0  0  0  0
   -0.1960   67.8620   67.6260 C   0  0  0  0  0  0  0  0  0  0  0  0
    0.7500   68.6490   68.2850 C   0  0  0  0  0  0  0  0  0  0  0  0
    4.6250   67.5590   64.2670 C   0  0  0  0  0  0  0  0  0  0  0  0
    3.7980   66.2780   64.1450 C   0  0  0  0  0  0  0  0  0  0  0  0
    4.5510   65.1340   63.4580 C   0  0  0  0  0  0  0  0  0  0  0  0
    4.5860   63.8490   64.2910 C   0  0  0  0  0  0  0  0  0  0  0  0
    3.6760   63.8990   65.5250 C   0  0  0  0  0  0  0  0  0  0  0  0
    4.1700   63.0900   66.7250 C   0  0  0  0  0  0  0  0  0  0  0  0
    3.4160   62.5100   69.0090 C   0  0  0  0  0  0  0  0  0  0  0  0
    4.0660   61.4850   69.1310 O   0  0  0  0  0  0  0  0  0  0  0  0
    3.4200   63.3600   67.9290 N   0  0  0  0  0  0  0  0  0  0  0  0
    1.4870   63.7180   69.8830 N   0  0  0  0  0  0  0  0  0  0  0  0
    2.4880   62.9320   70.1250 C   0  0  0  0  0  0  0  0  0  0  0  0
    0.8000   63.9450   71.0830 O   0  0  0  0  0  0  0  0  0  0  0  0
    3.4427   69.3131   63.6177 H   0  0  0  0  0  0  0  0  0  0  0  0
    5.9546   69.7010   65.1525 H   0  0  0  0  0  0  0  0  0  0  0  0
    5.5937   71.3483   65.8088 H   0  0  0  0  0  0  0  0  0  0  0  0
    7.0357   69.0340   67.1403 H   0  0  0  0  0  0  0  0  0  0  0  0
    7.5796   70.7624   66.8391 H   0  0  0  0  0  0  0  0  0  0  0  0
    6.4250   69.6302   69.1927 H   0  0  0  0  0  0  0  0  0  0  0  0
    6.9748   71.3410   68.8317 H   0  0  0  0  0  0  0  0  0  0  0  0
    4.5710   71.0002   69.6888 H   0  0  0  0  0  0  0  0  0  0  0  0
    4.8473   72.0398   68.2372 H   0  0  0  0  0  0  0  0  0  0  0  0
    1.4258   67.4789   64.6685 H   0  0  0  0  0  0  0  0  0  0  0  0
   -0.6888   66.8210   65.7986 H   0  0  0  0  0  0  0  0  0  0  0  0
   -1.1290   67.5763   68.1338 H   0  0  0  0  0  0  0  0  0  0  0  0
    0.5466   68.9751   69.3157 H   0  0  0  0  0  0  0  0  0  0  0  0
    5.2406   67.6735   63.3626 H   0  0  0  0  0  0  0  0  0  0  0  0
    5.2553   67.4764   65.1647 H   0  0  0  0  0  0  0  0  0  0  0  0
    3.5109   65.9502   65.1550 H   0  0  0  0  0  0  0  0  0  0  0  0
    2.9229   66.5131   63.5213 H   0  0  0  0  0  0  0  0  0  0  0  0
    4.0570   64.9161   62.4996 H   0  0  0  0  0  0  0  0  0  0  0  0
    5.5916   65.4633   63.3209 H   0  0  0  0  0  0  0  0  0  0  0  0
    4.2646   63.0116   63.6542 H   0  0  0  0  0  0  0  0  0  0  0  0
    5.6174   63.7238   64.6524 H   0  0  0  0  0  0  0  0  0  0  0  0
    3.5816   64.9496   65.8371 H   0  0  0  0  0  0  0  0  0  0  0  0
    2.7206   63.4464   65.2212 H   0  0  0  0  0  0  0  0  0  0  0  0
    4.0807   62.0196   66.4880 H   0  0  0  0  0  0  0  0  0  0  0  0
    5.2141   63.3806   66.9131 H   0  0  0  0  0  0  0  0  0  0  0  0
    2.8647   64.2260   67.9806 H   0  0  0  0  0  0  0  0  0  0  0  0
    2.6636   62.5696   71.1486 H   0  0  0  0  0  0  0  0  0  0  0  0
   -0.0006   64.5272   71.0925 H   0  0  0  0  0  0  0  0  0  0  0  0
  2  1  1  0
  3  2  2  0
  4  3  1  0
  5  4  1  0
  6  5  1  0
  7  6  1  0
  8  3  1  0
  8  7  1  0
  9  8  2  0
 10  9  1  0
 11 10  2  0
 11  2  1  0
 12 11  1  0
 13 12  2  0
 14 13  1  0
 15 14  2  0
 15 10  1  0
 16  1  1  0
 17 16  1  0
 18 17  1  0
 19 18  1  0
 20 19  1  0
 21 20  1  0
 23 22  2  0
 24 22  1  0
 24 21  1  0
 26 25  2  0
 26 22  1  0
 27 25  1  0
  1 28  1  0
  4 29  1  0
  4 30  1  0
  5 31  1  0
  5 32  1  0
  6 33  1  0
  6 34  1  0
  7 35  1  0
  7 36  1  0
 12 37  1  0
 13 38  1  0
 14 39  1  0
 15 40  1  0
 16 41  1  0
 16 42  1  0
 17 43  1  0
 17 44  1  0
 18 45  1  0
 18 46  1  0
 19 47  1  0
 19 48  1  0
 20 49  1  0
 20 50  1  0
 21 51  1  0
 21 52  1  0
 24 53  1  0
 26 54  1  0
 27 55  1  0
M  END
>  <score>  (6) 
-8.949

$$$$
=
     RDKit          3D

 55 57  0  0  0  0  0  0  0  0999 V2000
    0.0110   63.2440   71.4070 N   0  0  0  0  0  0  0  0  0  0  0  0
    0.7050   62.0370   71.7140 C   0  0  0  0  0  0  0  0  0  0  0  0
    1.9860   61.8440   71.1790 C   0  0  0  0  0  0  0  0  0  0  0  0
    2.6670   62.7990   70.2360 C   0  0  0  0  0  0  0  0  0  0  0  0
    3.3670   62.0510   69.0970 C   0  0  0  0  0  0  0  0  0  0  0  0
    4.1510   60.8050   69.5340 C   0  0  0  0  0  0  0  0  0  0  0  0
    4.0880   60.5170   71.0330 C   0  0  0  0  0  0  0  0  0  0  0  0
    2.6890   60.7010   71.5560 C   0  0  0  0  0  0  0  0  0  0  0  0
    2.2010   59.7590   72.3900 N   0  0  0  0  0  0  0  0  0  0  0  0
    0.9620   59.9230   72.8760 C   0  0  0  0  0  0  0  0  0  0  0  0
    0.1550   61.0440   72.5770 C   0  0  0  0  0  0  0  0  0  0  0  0
   -1.1450   61.1050   73.1450 C   0  0  0  0  0  0  0  0  0  0  0  0
   -1.6220   60.0990   73.9840 C   0  0  0  0  0  0  0  0  0  0  0  0
   -0.8140   59.0110   74.2720 C   0  0  0  0  0  0  0  0  0  0  0  0
    0.4640   58.9360   73.7150 C   0  0  0  0  0  0  0  0  0  0  0  0
    0.3780   64.3700   72.2850 C   0  0  0  0  0  0  0  0  0  0  0  0
   -0.0200   65.7150   71.6740 C   0  0  0  0  0  0  0  0  0  0  0  0
    0.0850   65.7410   70.1460 C   0  0  0  0  0  0  0  0  0  0  0  0
    1.4740   66.1480   69.6450 C   0  0  0  0  0  0  0  0  0  0  0  0
    1.6660   67.6660   69.5470 C   0  0  0  0  0  0  0  0  0  0  0  0
    1.5050   68.2500   68.1430 C   0  0  0  0  0  0  0  0  0  0  0  0
   -0.4770   67.7030   66.7670 C   0  0  0  0  0  0  0  0  0  0  0  0
    0.0260   66.7940   66.1260 O   0  0  0  0  0  0  0  0  0  0  0  0
    0.1230   68.4310   67.7670 N   0  0  0  0  0  0  0  0  0  0  0  0
   -2.8030   68.0740   67.3940 N   0  0  0  0  0  0  0  0  0  0  0  0
   -1.8990   68.1170   66.4670 C   0  0  0  0  0  0  0  0  0  0  0  0
   -4.0190   68.5070   66.8500 O   0  0  0  0  0  0  0  0  0  0  0  0
   -0.6791   63.3217   70.6464 H   0  0  0  0  0  0  0  0  0  0  0  0
    1.9149   63.4790   69.8094 H   0  0  0  0  0  0  0  0  0  0  0  0
    3.4253   63.3624   70.7995 H   0  0  0  0  0  0  0  0  0  0  0  0
    2.6017   61.7374   68.3718 H   0  0  0  0  0  0  0  0  0  0  0  0
    4.1041   62.7492   68.6737 H   0  0  0  0  0  0  0  0  0  0  0  0
    3.7423   59.9354   68.9985 H   0  0  0  0  0  0  0  0  0  0  0  0
    5.2072   60.9968   69.2939 H   0  0  0  0  0  0  0  0  0  0  0  0
    4.4070   59.4800   71.2144 H   0  0  0  0  0  0  0  0  0  0  0  0
    4.7539   61.2202   71.5546 H   0  0  0  0  0  0  0  0  0  0  0  0
   -1.7907   61.9661   72.9177 H   0  0  0  0  0  0  0  0  0  0  0  0
   -2.6321   60.1685   74.4140 H   0  0  0  0  0  0  0  0  0  0  0  0
   -1.1769   58.2118   74.9350 H   0  0  0  0  0  0  0  0  0  0  0  0
    1.0964   58.0668   73.9486 H   0  0  0  0  0  0  0  0  0  0  0  0
   -0.1349   64.2512   73.2508 H   0  0  0  0  0  0  0  0  0  0  0  0
    1.4702   64.3618   72.4159 H   0  0  0  0  0  0  0  0  0  0  0  0
   -1.0607   65.9324   71.9562 H   0  0  0  0  0  0  0  0  0  0  0  0
    0.6807   66.4691   72.0617 H   0  0  0  0  0  0  0  0  0  0  0  0
   -0.1447   64.7360   69.7623 H   0  0  0  0  0  0  0  0  0  0  0  0
   -0.6285   66.4947   69.7814 H   0  0  0  0  0  0  0  0  0  0  0  0
    2.2266   65.7456   70.3390 H   0  0  0  0  0  0  0  0  0  0  0  0
    1.5847   65.7407   68.6292 H   0  0  0  0  0  0  0  0  0  0  0  0
    0.9252   68.1464   70.2031 H   0  0  0  0  0  0  0  0  0  0  0  0
    2.7067   67.8633   69.8438 H   0  0  0  0  0  0  0  0  0  0  0  0
    2.0093   69.2270   68.1089 H   0  0  0  0  0  0  0  0  0  0  0  0
    1.9500   67.5359   67.4345 H   0  0  0  0  0  0  0  0  0  0  0  0
   -0.4369   69.1350   68.2689 H   0  0  0  0  0  0  0  0  0  0  0  0
   -2.1680   68.4567   65.4560 H   0  0  0  0  0  0  0  0  0  0  0  0
   -4.8303   68.5412   67.4163 H   0  0  0  0  0  0  0  0  0  0  0  0
  2  1  1  0
  3  2  2  0
  4  3  1  0
  5  4  1  0
  6  5  1  0
  7  6  1  0
  8  3  1  0
  8  7  1  0
  9  8  2  0
 10  9  1  0
 11 10  2  0
 11  2  1  0
 12 11  1  0
 13 12  2  0
 14 13  1  0
 15 14  2  0
 15 10  1  0
 16  1  1  0
 17 16  1  0
 18 17  1  0
 19 18  1  0
 20 19  1  0
 21 20  1  0
 23 22  2  0
 24 22  1  0
 24 21  1  0
 26 25  2  0
 26 22  1  0
 27 25  1  0
  1 28  1  0
  4 29  1  0
  4 30  1  0
  5 31  1  0
  5 32  1  0
  6 33  1  0
  6 34  1  0
  7 35  1  0
  7 36  1  0
 12 37  1  0
 13 38  1  0
 14 39  1  0
 15 40  1  0
 16 41  1  0
 16 42  1  0
 17 43  1  0
 17 44  1  0
 18 45  1  0
 18 46  1  0
 19 47  1  0
 19 48  1  0
 20 49  1  0
 20 50  1  0
 21 51  1  0
 21 52  1  0
 24 53  1  0
 26 54  1  0
 27 55  1  0
M  END
>  <score>  (7) 
-8.828

$$$$
=
     RDKit          3D

 55 57  0  0  0  0  0  0  0  0999 V2000
    0.2740   63.6110   70.8980 N   0  0  0  0  0  0  0  0  0  0  0  0
    1.0380   62.5760   71.5110 C   0  0  0  0  0  0  0  0  0  0  0  0
    0.3690   61.6130   72.2790 C   0  0  0  0  0  0  0  0  0  0  0  0
   -1.1090   61.6290   72.5650 C   0  0  0  0  0  0  0  0  0  0  0  0
   -1.3950   61.2810   74.0300 C   0  0  0  0  0  0  0  0  0  0  0  0
   -0.5780   60.1050   74.5820 C   0  0  0  0  0  0  0  0  0  0  0  0
    0.3930   59.4870   73.5770 C   0  0  0  0  0  0  0  0  0  0  0  0
    1.1140   60.5560   72.8020 C   0  0  0  0  0  0  0  0  0  0  0  0
    2.4450   60.4170   72.6270 N   0  0  0  0  0  0  0  0  0  0  0  0
    3.0940   61.3550   71.9230 C   0  0  0  0  0  0  0  0  0  0  0  0
    2.4490   62.4670   71.3350 C   0  0  0  0  0  0  0  0  0  0  0  0
    3.2410   63.4000   70.6160 C   0  0  0  0  0  0  0  0  0  0  0  0
    4.6190   63.2330   70.4790 C   0  0  0  0  0  0  0  0  0  0  0  0
    5.2340   62.1340   71.0570 C   0  0  0  0  0  0  0  0  0  0  0  0
    4.4660   61.2120   71.7700 C   0  0  0  0  0  0  0  0  0  0  0  0
    0.3550   64.8990   71.6100 C   0  0  0  0  0  0  0  0  0  0  0  0
    0.0580   66.0780   70.6820 C   0  0  0  0  0  0  0  0  0  0  0  0
    1.2870   66.5650   69.9080 C   0  0  0  0  0  0  0  0  0  0  0  0
    0.9470   67.1070   68.5170 C   0  0  0  0  0  0  0  0  0  0  0  0
    1.6910   68.4010   68.1690 C   0  0  0  0  0  0  0  0  0  0  0  0
    0.8220   69.5040   67.5620 C   0  0  0  0  0  0  0  0  0  0  0  0
   -1.1190   68.6550   66.2850 C   0  0  0  0  0  0  0  0  0  0  0  0
   -0.5320   68.4360   65.2370 O   0  0  0  0  0  0  0  0  0  0  0  0
   -0.5660   69.1250   67.4520 N   0  0  0  0  0  0  0  0  0  0  0  0
   -3.3990   68.9040   65.4590 N   0  0  0  0  0  0  0  0  0  0  0  0
   -2.6080   68.4110   66.3590 C   0  0  0  0  0  0  0  0  0  0  0  0
   -4.7130   68.5270   65.7670 O   0  0  0  0  0  0  0  0  0  0  0  0
   -0.2806   63.4726   70.0412 H   0  0  0  0  0  0  0  0  0  0  0  0
   -1.5048   62.6328   72.3510 H   0  0  0  0  0  0  0  0  0  0  0  0
   -1.5949   60.8758   71.9273 H   0  0  0  0  0  0  0  0  0  0  0  0
   -1.1748   62.1681   74.6420 H   0  0  0  0  0  0  0  0  0  0  0  0
   -2.4503   60.9742   74.0757 H   0  0  0  0  0  0  0  0  0  0  0  0
    0.0017   60.4635   75.4454 H   0  0  0  0  0  0  0  0  0  0  0  0
   -1.2990   59.3180   74.8481 H   0  0  0  0  0  0  0  0  0  0  0  0
    1.1299   58.8747   74.1175 H   0  0  0  0  0  0  0  0  0  0  0  0
   -0.1785   58.8657   72.8717 H   0  0  0  0  0  0  0  0  0  0  0  0
    2.7571   64.2745   70.1565 H   0  0  0  0  0  0  0  0  0  0  0  0
    5.2131   63.9682   69.9163 H   0  0  0  0  0  0  0  0  0  0  0  0
    6.3196   61.9892   70.9547 H   0  0  0  0  0  0  0  0  0  0  0  0
    4.9645   60.3437   72.2255 H   0  0  0  0  0  0  0  0  0  0  0  0
   -0.3765   64.8988   72.4315 H   0  0  0  0  0  0  0  0  0  0  0  0
    1.3792   65.0146   71.9943 H   0  0  0  0  0  0  0  0  0  0  0  0
   -0.7100   65.7677   69.9582 H   0  0  0  0  0  0  0  0  0  0  0  0
   -0.2806   66.9124   71.3138 H   0  0  0  0  0  0  0  0  0  0  0  0
    1.7702   67.3659   70.4869 H   0  0  0  0  0  0  0  0  0  0  0  0
    1.9503   65.6987   69.7685 H   0  0  0  0  0  0  0  0  0  0  0  0
    1.2098   66.3424   67.7711 H   0  0  0  0  0  0  0  0  0  0  0  0
   -0.1281   67.3397   68.5132 H   0  0  0  0  0  0  0  0  0  0  0  0
    2.1441   68.7926   69.0917 H   0  0  0  0  0  0  0  0  0  0  0  0
    2.4294   68.1331   67.3990 H   0  0  0  0  0  0  0  0  0  0  0  0
    0.8929   70.3979   68.1991 H   0  0  0  0  0  0  0  0  0  0  0  0
    1.1943   69.6973   66.5451 H   0  0  0  0  0  0  0  0  0  0  0  0
   -1.1679   69.2104   68.2835 H   0  0  0  0  0  0  0  0  0  0  0  0
   -3.0233   67.8110   67.1821 H   0  0  0  0  0  0  0  0  0  0  0  0
   -5.4600   68.8151   65.1847 H   0  0  0  0  0  0  0  0  0  0  0  0
  2  1  1  0
  3  2  2  0
  4  3  1  0
  5  4  1  0
  6  5  1  0
  7  6  1  0
  8  3  1  0
  8  7  1  0
  9  8  2  0
 10  9  1  0
 11 10  2  0
 11  2  1  0
 12 11  1  0
 13 12  2  0
 14 13  1  0
 15 14  2  0
 15 10  1  0
 16  1  1  0
 17 16  1  0
 18 17  1  0
 19 18  1  0
 20 19  1  0
 21 20  1  0
 23 22  2  0
 24 22  1  0
 24 21  1  0
 26 25  2  0
 26 22  1  0
 27 25  1  0
  1 28  1  0
  4 29  1  0
  4 30  1  0
  5 31  1  0
  5 32  1  0
  6 33  1  0
  6 34  1  0
  7 35  1  0
  7 36  1  0
 12 37  1  0
 13 38  1  0
 14 39  1  0
 15 40  1  0
 16 41  1  0
 16 42  1  0
 17 43  1  0
 17 44  1  0
 18 45  1  0
 18 46  1  0
 19 47  1  0
 19 48  1  0
 20 49  1  0
 20 50  1  0
 21 51  1  0
 21 52  1  0
 24 53  1  0
 26 54  1  0
 27 55  1  0
M  END
>  <score>  (8) 
-8.633

$$$$
=
     RDKit          3D

 55 57  0  0  0  0  0  0  0  0999 V2000
    0.9250   66.8000   65.9710 N   0  0  0  0  0  0  0  0  0  0  0  0
    1.7740   66.8300   64.8260 C   0  0  0  0  0  0  0  0  0  0  0  0
    1.6150   67.8680   63.8970 C   0  0  0  0  0  0  0  0  0  0  0  0
    0.5550   68.9330   63.9860 C   0  0  0  0  0  0  0  0  0  0  0  0
   -0.0770   69.2030   62.6170 C   0  0  0  0  0  0  0  0  0  0  0  0
    0.9220   69.2910   61.4540 C   0  0  0  0  0  0  0  0  0  0  0  0
    2.3800   69.0820   61.8620 C   0  0  0  0  0  0  0  0  0  0  0  0
    2.5070   67.9350   62.8280 C   0  0  0  0  0  0  0  0  0  0  0  0
    3.5020   67.0470   62.6230 N   0  0  0  0  0  0  0  0  0  0  0  0
    3.6350   66.0320   63.4890 C   0  0  0  0  0  0  0  0  0  0  0  0
    2.8000   65.8620   64.6170 C   0  0  0  0  0  0  0  0  0  0  0  0
    3.0330   64.7440   65.4600 C   0  0  0  0  0  0  0  0  0  0  0  0
    4.0570   63.8350   65.2010 C   0  0  0  0  0  0  0  0  0  0  0  0
    4.8700   64.0210   64.0940 C   0  0  0  0  0  0  0  0  0  0  0  0
    4.6490   65.1140   63.2540 C   0  0  0  0  0  0  0  0  0  0  0  0
    1.4200   67.6260   67.0870 C   0  0  0  0  0  0  0  0  0  0  0  0
    0.5630   67.4500   68.3420 C   0  0  0  0  0  0  0  0  0  0  0  0
    1.3440   66.8870   69.5350 C   0  0  0  0  0  0  0  0  0  0  0  0
    0.4770   66.0560   70.4840 C   0  0  0  0  0  0  0  0  0  0  0  0
    0.7980   64.5570   70.4460 C   0  0  0  0  0  0  0  0  0  0  0  0
    2.2670   64.2030   70.6810 C   0  0  0  0  0  0  0  0  0  0  0  0
    3.5870   62.1740   71.1900 C   0  0  0  0  0  0  0  0  0  0  0  0
    4.6070   62.5010   70.6050 O   0  0  0  0  0  0  0  0  0  0  0  0
    2.4390   62.9190   71.3170 N   0  0  0  0  0  0  0  0  0  0  0  0
    4.6070   60.2320   72.2550 N   0  0  0  0  0  0  0  0  0  0  0  0
    3.5220   60.8180   71.8540 C   0  0  0  0  0  0  0  0  0  0  0  0
    4.2610   59.0010   72.8280 O   0  0  0  0  0  0  0  0  0  0  0  0
    0.0521   66.2550   66.0141 H   0  0  0  0  0  0  0  0  0  0  0  0
   -0.2284   68.6018   64.6836 H   0  0  0  0  0  0  0  0  0  0  0  0
    1.0244   69.8621   64.3417 H   0  0  0  0  0  0  0  0  0  0  0  0
   -0.7844   68.3891   62.3999 H   0  0  0  0  0  0  0  0  0  0  0  0
   -0.5592   70.1892   62.6870 H   0  0  0  0  0  0  0  0  0  0  0  0
    0.6576   68.5218   60.7134 H   0  0  0  0  0  0  0  0  0  0  0  0
    0.8499   70.3126   61.0526 H   0  0  0  0  0  0  0  0  0  0  0  0
    2.9778   68.8651   60.9645 H   0  0  0  0  0  0  0  0  0  0  0  0
    2.7428   69.9972   62.3527 H   0  0  0  0  0  0  0  0  0  0  0  0
    2.3896   64.5914   66.3391 H   0  0  0  0  0  0  0  0  0  0  0  0
    4.2188   62.9767   65.8698 H   0  0  0  0  0  0  0  0  0  0  0  0
    5.6835   63.3125   63.8788 H   0  0  0  0  0  0  0  0  0  0  0  0
    5.2995   65.2520   62.3777 H   0  0  0  0  0  0  0  0  0  0  0  0
    2.4546   67.3318   67.3172 H   0  0  0  0  0  0  0  0  0  0  0  0
    1.3701   68.6817   66.7819 H   0  0  0  0  0  0  0  0  0  0  0  0
    0.1523   68.4305   68.6248 H   0  0  0  0  0  0  0  0  0  0  0  0
   -0.2272   66.7247   68.0981 H   0  0  0  0  0  0  0  0  0  0  0  0
    2.1546   66.2491   69.1528 H   0  0  0  0  0  0  0  0  0  0  0  0
    1.7283   67.7436   70.1082 H   0  0  0  0  0  0  0  0  0  0  0  0
    0.6346   66.4206   71.5098 H   0  0  0  0  0  0  0  0  0  0  0  0
   -0.5668   66.1732   70.1572 H   0  0  0  0  0  0  0  0  0  0  0  0
    0.1990   64.0602   71.2234 H   0  0  0  0  0  0  0  0  0  0  0  0
    0.5600   64.2181   69.4269 H   0  0  0  0  0  0  0  0  0  0  0  0
    2.7839   64.1862   69.7102 H   0  0  0  0  0  0  0  0  0  0  0  0
    2.6871   64.9646   71.3544 H   0  0  0  0  0  0  0  0  0  0  0  0
    1.6691   62.5452   71.8901 H   0  0  0  0  0  0  0  0  0  0  0  0
    2.5490   60.3255   71.9979 H   0  0  0  0  0  0  0  0  0  0  0  0
    4.9659   58.4093   73.1928 H   0  0  0  0  0  0  0  0  0  0  0  0
  2  1  1  0
  3  2  2  0
  4  3  1  0
  5  4  1  0
  6  5  1  0
  7  6  1  0
  8  3  1  0
  8  7  1  0
  9  8  2  0
 10  9  1  0
 11 10  2  0
 11  2  1  0
 12 11  1  0
 13 12  2  0
 14 13  1  0
 15 14  2  0
 15 10  1  0
 16  1  1  0
 17 16  1  0
 18 17  1  0
 19 18  1  0
 20 19  1  0
 21 20  1  0
 23 22  2  0
 24 22  1  0
 24 21  1  0
 26 25  2  0
 26 22  1  0
 27 25  1  0
  1 28  1  0
  4 29  1  0
  4 30  1  0
  5 31  1  0
  5 32  1  0
  6 33  1  0
  6 34  1  0
  7 35  1  0
  7 36  1  0
 12 37  1  0
 13 38  1  0
 14 39  1  0
 15 40  1  0
 16 41  1  0
 16 42  1  0
 17 43  1  0
 17 44  1  0
 18 45  1  0
 18 46  1  0
 19 47  1  0
 19 48  1  0
 20 49  1  0
 20 50  1  0
 21 51  1  0
 21 52  1  0
 24 53  1  0
 26 54  1  0
 27 55  1  0
M  END
>  <score>  (9) 
-8.576

$$$$
