=
     RDKit          3D

 45 46  0  0  0  0  0  0  0  0999 V2000
    0.8520   67.5290   66.1120 C   0  0  0  0  0  0  0  0  0  0  0  0
    1.0670   66.4050   65.6700 O   0  0  0  0  0  0  0  0  0  0  0  0
   -2.2870   68.3750   66.2310 C   0  0  2  0  0  0  0  0  0  0  0  0
   -2.3190   67.2840   67.3120 C   0  0  0  0  0  0  0  0  0  0  0  0
   -0.9300   66.8110   67.7660 C   0  0  0  0  0  0  0  0  0  0  0  0
    0.2120   67.8020   67.4750 C   0  0  2  0  0  0  0  0  0  0  0  0
   -0.3020   69.2340   67.6420 C   0  0  0  0  0  0  0  0  0  0  0  0
   -1.4860   69.5890   66.7320 C   0  0  0  0  0  0  0  0  0  0  0  0
   -3.7200   68.7390   65.8160 C   0  0  0  0  0  0  0  0  0  0  0  0
   -3.7680   69.4910   64.5740 N   0  0  0  0  0  4  0  0  0  0  0  0
    1.2520   68.7050   65.4940 O   0  0  0  0  0  0  0  0  0  0  0  0
    2.6230   68.9560   65.6440 C   0  0  0  0  0  0  0  0  0  0  0  0
    3.5290   68.9300   64.5860 C   0  0  0  0  0  0  0  0  0  0  0  0
    4.8190   69.4140   64.7830 C   0  0  0  0  0  0  0  0  0  0  0  0
    5.2160   69.8990   66.0370 C   0  0  0  0  0  0  0  0  0  0  0  0
    4.3360   69.7910   67.1210 C   0  0  0  0  0  0  0  0  0  0  0  0
    3.0410   69.3150   66.9270 C   0  0  0  0  0  0  0  0  0  0  0  0
    6.5320   70.6310   66.1730 C   0  0  0  0  0  0  0  0  0  0  0  0
    7.1980   70.4010   67.5290 C   0  0  0  0  0  0  0  0  0  0  0  0
    7.0900   71.5880   68.4530 C   0  0  0  0  0  0  0  0  0  0  0  0
    7.9450   71.7510   69.3750 O   0  0  0  0  0  0  0  0  0  0  0  0
    6.1480   72.4180   68.2510 O   0  0  0  0  0  1  0  0  0  0  0  0
   -1.7742   68.0010   65.3326 H   0  0  0  0  0  0  0  0  0  0  0  0
   -2.8522   67.6813   68.1883 H   0  0  0  0  0  0  0  0  0  0  0  0
   -2.8220   66.4121   66.8683 H   0  0  0  0  0  0  0  0  0  0  0  0
   -0.9648   66.6370   68.8516 H   0  0  0  0  0  0  0  0  0  0  0  0
   -0.7071   65.9009   67.1897 H   0  0  0  0  0  0  0  0  0  0  0  0
    1.0235   67.6622   68.2044 H   0  0  0  0  0  0  0  0  0  0  0  0
   -0.6184   69.3670   68.6871 H   0  0  0  0  0  0  0  0  0  0  0  0
    0.5252   69.9013   67.3582 H   0  0  0  0  0  0  0  0  0  0  0  0
   -2.1683   70.2434   67.2943 H   0  0  0  0  0  0  0  0  0  0  0  0
   -1.0629   70.0761   65.8411 H   0  0  0  0  0  0  0  0  0  0  0  0
   -4.2963   67.8108   65.6883 H   0  0  0  0  0  0  0  0  0  0  0  0
   -4.1446   69.3747   66.6070 H   0  0  0  0  0  0  0  0  0  0  0  0
   -3.8322   70.4973   64.7842 H   0  0  0  0  0  0  0  0  0  0  0  0
   -2.9136   69.3080   64.0286 H   0  0  0  0  0  0  0  0  0  0  0  0
   -4.5922   69.2009   64.0286 H   0  0  0  0  0  0  0  0  0  0  0  0
    3.2282   68.5314   63.6059 H   0  0  0  0  0  0  0  0  0  0  0  0
    5.5338   69.4160   63.9469 H   0  0  0  0  0  0  0  0  0  0  0  0
    4.6680   70.0827   68.1283 H   0  0  0  0  0  0  0  0  0  0  0  0
    2.3520   69.2226   67.7795 H   0  0  0  0  0  0  0  0  0  0  0  0
    7.2126   70.2809   65.3829 H   0  0  0  0  0  0  0  0  0  0  0  0
    6.3240   71.7074   66.0836 H   0  0  0  0  0  0  0  0  0  0  0  0
    6.7181   69.5371   68.0121 H   0  0  0  0  0  0  0  0  0  0  0  0
    8.2682   70.2284   67.3424 H   0  0  0  0  0  0  0  0  0  0  0  0
  2  1  2  0
  4  3  1  0
  5  4  1  0
  6  5  1  0
  6  1  1  0
  7  6  1  0
  8  7  1  0
  8  3  1  0
  9  3  1  0
 10  9  1  0
 11  1  1  0
 12 11  1  0
 13 12  2  0
 14 13  1  0
 15 14  2  0
 16 15  1  0
 17 16  2  0
 17 12  1  0
 18 15  1  0
 19 18  1  0
 20 19  1  0
 21 20  2  0
 22 20  1  0
  3 23  1  6
  4 24  1  0
  4 25  1  0
  5 26  1  0
  5 27  1  0
  6 28  1  1
  7 29  1  0
  7 30  1  0
  8 31  1  0
  8 32  1  0
  9 33  1  0
  9 34  1  0
 10 35  1  0
 10 36  1  0
 10 37  1  0
 13 38  1  0
 14 39  1  0
 16 40  1  0
 17 41  1  0
 18 42  1  0
 18 43  1  0
 19 44  1  0
 19 45  1  0
M  CHG  2  10   1  22  -1
M  END
>  <score>  (1) 
-9.256

$$$$
=
     RDKit          3D

 45 46  0  0  0  0  0  0  0  0999 V2000
    0.8570   67.9060   65.4440 C   0  0  0  0  0  0  0  0  0  0  0  0
    0.8940   66.7250   65.1150 O   0  0  0  0  0  0  0  0  0  0  0  0
    3.4230   67.0610   63.6310 C   0  0  2  0  0  0  0  0  0  0  0  0
    2.7650   68.0240   62.6320 C   0  0  0  0  0  0  0  0  0  0  0  0
    1.6360   68.8750   63.2340 C   0  0  0  0  0  0  0  0  0  0  0  0
    1.6780   69.0060   64.7680 C   0  0  2  0  0  0  0  0  0  0  0  0
    3.1360   69.0660   65.2330 C   0  0  0  0  0  0  0  0  0  0  0  0
    3.9750   67.8430   64.8350 C   0  0  0  0  0  0  0  0  0  0  0  0
    4.5000   66.2280   62.9200 C   0  0  0  0  0  0  0  0  0  0  0  0
    4.4820   64.8330   63.3190 N   0  0  0  0  0  4  0  0  0  0  0  0
   -0.0070   68.4300   66.3950 O   0  0  0  0  0  0  0  0  0  0  0  0
    0.0530   67.7430   67.6160 C   0  0  0  0  0  0  0  0  0  0  0  0
   -0.9620   66.9090   68.0780 C   0  0  0  0  0  0  0  0  0  0  0  0
   -0.7230   66.0910   69.1800 C   0  0  0  0  0  0  0  0  0  0  0  0
    0.5150   66.1230   69.8360 C   0  0  0  0  0  0  0  0  0  0  0  0
    1.4750   67.0640   69.4410 C   0  0  0  0  0  0  0  0  0  0  0  0
    1.2420   67.8780   68.3340 C   0  0  0  0  0  0  0  0  0  0  0  0
    0.8380   65.0720   70.8740 C   0  0  0  0  0  0  0  0  0  0  0  0
    2.1870   64.3970   70.6310 C   0  0  0  0  0  0  0  0  0  0  0  0
    2.0680   62.9240   70.3270 C   0  0  0  0  0  0  0  0  0  0  0  0
    1.8060   62.1060   71.2590 O   0  0  0  0  0  0  0  0  0  0  0  0
    2.2050   62.5510   69.1190 O   0  0  0  0  0  1  0  0  0  0  0  0
    2.6739   66.3574   64.0232 H   0  0  0  0  0  0  0  0  0  0  0  0
    3.5395   68.7018   62.2438 H   0  0  0  0  0  0  0  0  0  0  0  0
    2.3108   67.4041   61.8449 H   0  0  0  0  0  0  0  0  0  0  0  0
    1.6999   69.8845   62.8019 H   0  0  0  0  0  0  0  0  0  0  0  0
    0.6949   68.3598   62.9914 H   0  0  0  0  0  0  0  0  0  0  0  0
    1.2002   69.9476   65.0765 H   0  0  0  0  0  0  0  0  0  0  0  0
    3.6013   69.9610   64.7943 H   0  0  0  0  0  0  0  0  0  0  0  0
    3.1161   69.0911   66.3325 H   0  0  0  0  0  0  0  0  0  0  0  0
    4.9896   68.1875   64.5861 H   0  0  0  0  0  0  0  0  0  0  0  0
    3.9554   67.1550   65.6931 H   0  0  0  0  0  0  0  0  0  0  0  0
    4.3305   66.2860   61.8347 H   0  0  0  0  0  0  0  0  0  0  0  0
    5.4798   66.6417   63.2009 H   0  0  0  0  0  0  0  0  0  0  0  0
    4.4812   64.7699   64.3471 H   0  0  0  0  0  0  0  0  0  0  0  0
    3.6351   64.3803   62.9466 H   0  0  0  0  0  0  0  0  0  0  0  0
    5.3169   64.3586   62.9466 H   0  0  0  0  0  0  0  0  0  0  0  0
   -1.9418   66.8963   67.5782 H   0  0  0  0  0  0  0  0  0  0  0  0
   -1.5127   65.4142   69.5383 H   0  0  0  0  0  0  0  0  0  0  0  0
    2.4141   67.1605   70.0056 H   0  0  0  0  0  0  0  0  0  0  0  0
    1.9913   68.6229   68.0279 H   0  0  0  0  0  0  0  0  0  0  0  0
    0.8573   65.5501   71.8645 H   0  0  0  0  0  0  0  0  0  0  0  0
    0.0621   64.2948   70.8119 H   0  0  0  0  0  0  0  0  0  0  0  0
    2.6770   64.8914   69.7792 H   0  0  0  0  0  0  0  0  0  0  0  0
    2.7725   64.4935   71.5572 H   0  0  0  0  0  0  0  0  0  0  0  0
  2  1  2  0
  4  3  1  0
  5  4  1  0
  6  5  1  0
  6  1  1  0
  7  6  1  0
  8  7  1  0
  8  3  1  0
  9  3  1  0
 10  9  1  0
 11  1  1  0
 12 11  1  0
 13 12  2  0
 14 13  1  0
 15 14  2  0
 16 15  1  0
 17 16  2  0
 17 12  1  0
 18 15  1  0
 19 18  1  0
 20 19  1  0
 21 20  2  0
 22 20  1  0
  3 23  1  1
  4 24  1  0
  4 25  1  0
  5 26  1  0
  5 27  1  0
  6 28  1  6
  7 29  1  0
  7 30  1  0
  8 31  1  0
  8 32  1  0
  9 33  1  0
  9 34  1  0
 10 35  1  0
 10 36  1  0
 10 37  1  0
 13 38  1  0
 14 39  1  0
 16 40  1  0
 17 41  1  0
 18 42  1  0
 18 43  1  0
 19 44  1  0
 19 45  1  0
M  CHG  2  10   1  22  -1
M  END
>  <score>  (2) 
-8.374

$$$$
=
     RDKit          3D

 45 46  0  0  0  0  0  0  0  0999 V2000
    1.9190   68.6430   66.1620 C   0  0  0  0  0  0  0  0  0  0  0  0
    3.0560   69.0920   66.2490 O   0  0  0  0  0  0  0  0  0  0  0  0
    3.3610   68.3960   63.2560 C   0  0  2  0  0  0  0  0  0  0  0  0
    3.5410   66.9390   63.7080 C   0  0  0  0  0  0  0  0  0  0  0  0
    2.7250   66.5650   64.9540 C   0  0  0  0  0  0  0  0  0  0  0  0
    1.5260   67.4890   65.2380 C   0  0  2  0  0  0  0  0  0  0  0  0
    0.9060   67.9390   63.9130 C   0  0  0  0  0  0  0  0  0  0  0  0
    1.8760   68.6860   62.9850 C   0  0  0  0  0  0  0  0  0  0  0  0
    4.2530   68.6780   62.0380 C   0  0  0  0  0  0  0  0  0  0  0  0
    3.4880   69.0080   60.8500 N   0  0  0  0  0  4  0  0  0  0  0  0
    0.8550   69.0390   66.9600 O   0  0  0  0  0  0  0  0  0  0  0  0
    0.5630   68.1130   67.9710 C   0  0  0  0  0  0  0  0  0  0  0  0
   -0.6080   67.3590   68.0070 C   0  0  0  0  0  0  0  0  0  0  0  0
   -0.7110   66.3050   68.9110 C   0  0  0  0  0  0  0  0  0  0  0  0
    0.3380   66.0190   69.7960 C   0  0  0  0  0  0  0  0  0  0  0  0
    1.4490   66.8710   69.8380 C   0  0  0  0  0  0  0  0  0  0  0  0
    1.5600   67.9220   68.9290 C   0  0  0  0  0  0  0  0  0  0  0  0
    0.3080   64.7400   70.6020 C   0  0  0  0  0  0  0  0  0  0  0  0
    1.7040   64.2440   70.9740 C   0  0  0  0  0  0  0  0  0  0  0  0
    2.0830   62.9590   70.2800 C   0  0  0  0  0  0  0  0  0  0  0  0
    2.5130   62.9880   69.0880 O   0  0  0  0  0  0  0  0  0  0  0  0
    1.9890   61.8750   70.9380 O   0  0  0  0  0  1  0  0  0  0  0  0
    3.6791   69.0796   64.0569 H   0  0  0  0  0  0  0  0  0  0  0  0
    3.2329   66.2804   62.8825 H   0  0  0  0  0  0  0  0  0  0  0  0
    4.6013   66.8177   63.9744 H   0  0  0  0  0  0  0  0  0  0  0  0
    2.3449   65.5414   64.8204 H   0  0  0  0  0  0  0  0  0  0  0  0
    3.4051   66.6649   65.8128 H   0  0  0  0  0  0  0  0  0  0  0  0
    0.7495   66.9366   65.7875 H   0  0  0  0  0  0  0  0  0  0  0  0
    0.5396   67.0473   63.3832 H   0  0  0  0  0  0  0  0  0  0  0  0
    0.1017   68.6460   64.1645 H   0  0  0  0  0  0  0  0  0  0  0  0
    1.6522   68.3963   61.9477 H   0  0  0  0  0  0  0  0  0  0  0  0
    1.7258   69.7597   63.1711 H   0  0  0  0  0  0  0  0  0  0  0  0
    4.9166   69.5225   62.2754 H   0  0  0  0  0  0  0  0  0  0  0  0
    4.8227   67.7619   61.8233 H   0  0  0  0  0  0  0  0  0  0  0  0
    2.5770   69.4010   61.1265 H   0  0  0  0  0  0  0  0  0  0  0  0
    4.0051   69.7008   60.2901 H   0  0  0  0  0  0  0  0  0  0  0  0
    3.3389   68.1564   60.2901 H   0  0  0  0  0  0  0  0  0  0  0  0
   -1.4417   67.5937   67.3289 H   0  0  0  0  0  0  0  0  0  0  0  0
   -1.6236   65.6912   68.9310 H   0  0  0  0  0  0  0  0  0  0  0  0
    2.2356   66.7104   70.5899 H   0  0  0  0  0  0  0  0  0  0  0  0
    2.4280   68.5967   68.9665 H   0  0  0  0  0  0  0  0  0  0  0  0
   -0.2593   64.9203   71.5270 H   0  0  0  0  0  0  0  0  0  0  0  0
   -0.1642   63.9661   69.9791 H   0  0  0  0  0  0  0  0  0  0  0  0
    2.4350   65.0186   70.6989 H   0  0  0  0  0  0  0  0  0  0  0  0
    1.7019   64.0430   72.0555 H   0  0  0  0  0  0  0  0  0  0  0  0
  2  1  2  0
  4  3  1  0
  5  4  1  0
  6  5  1  0
  6  1  1  0
  7  6  1  0
  8  7  1  0
  8  3  1  0
  9  3  1  0
 10  9  1  0
 11  1  1  0
 12 11  1  0
 13 12  2  0
 14 13  1  0
 15 14  2  0
 16 15  1  0
 17 16  2  0
 17 12  1  0
 18 15  1  0
 19 18  1  0
 20 19  1  0
 21 20  2  0
 22 20  1  0
  3 23  1  1
  4 24  1  0
  4 25  1  0
  5 26  1  0
  5 27  1  0
  6 28  1  1
  7 29  1  0
  7 30  1  0
  8 31  1  0
  8 32  1  0
  9 33  1  0
  9 34  1  0
 10 35  1  0
 10 36  1  0
 10 37  1  0
 13 38  1  0
 14 39  1  0
 16 40  1  0
 17 41  1  0
 18 42  1  0
 18 43  1  0
 19 44  1  0
 19 45  1  0
M  CHG  2  10   1  22  -1
M  END
>  <score>  (3) 
-8.052

$$$$
=
     RDKit          3D

 45 46  0  0  0  0  0  0  0  0999 V2000
    1.1220   63.8320   70.6350 C   0  0  0  0  0  0  0  0  0  0  0  0
    0.7930   63.1220   69.6910 O   0  0  0  0  0  0  0  0  0  0  0  0
    3.0040   61.2520   70.0090 C   0  0  2  0  0  0  0  0  0  0  0  0
    4.0950   62.3320   69.9510 C   0  0  0  0  0  0  0  0  0  0  0  0
    3.6500   63.7020   70.4830 C   0  0  0  0  0  0  0  0  0  0  0  0
    2.4260   63.6610   71.4170 C   0  0  2  0  0  0  0  0  0  0  0  0
    2.4770   62.3890   72.2670 C   0  0  0  0  0  0  0  0  0  0  0  0
    2.5000   61.0870   71.4520 C   0  0  0  0  0  0  0  0  0  0  0  0
    3.5350   59.9410   69.4120 C   0  0  0  0  0  0  0  0  0  0  0  0
    3.3180   58.8010   70.2840 N   0  0  0  0  0  4  0  0  0  0  0  0
    0.4190   64.9500   71.0590 O   0  0  0  0  0  0  0  0  0  0  0  0
    0.4170   65.9810   70.1090 C   0  0  0  0  0  0  0  0  0  0  0  0
    1.4950   66.8400   69.9060 C   0  0  0  0  0  0  0  0  0  0  0  0
    1.4990   67.6780   68.7940 C   0  0  0  0  0  0  0  0  0  0  0  0
    0.4200   67.6790   67.8990 C   0  0  0  0  0  0  0  0  0  0  0  0
   -0.7130   66.9090   68.1920 C   0  0  0  0  0  0  0  0  0  0  0  0
   -0.7170   66.0630   69.3000 C   0  0  0  0  0  0  0  0  0  0  0  0
    0.5410   68.4150   66.5840 C   0  0  0  0  0  0  0  0  0  0  0  0
    1.9400   68.3160   65.9790 C   0  0  0  0  0  0  0  0  0  0  0  0
    2.1500   67.0630   65.1660 C   0  0  0  0  0  0  0  0  0  0  0  0
    1.1810   66.2720   64.9630 O   0  0  0  0  0  0  0  0  0  0  0  0
    3.3050   66.8560   64.6750 O   0  0  0  0  0  1  0  0  0  0  0  0
    2.1398   61.5585   69.4014 H   0  0  0  0  0  0  0  0  0  0  0  0
    4.9516   61.9902   70.5506 H   0  0  0  0  0  0  0  0  0  0  0  0
    4.3478   62.4708   68.8895 H   0  0  0  0  0  0  0  0  0  0  0  0
    4.4905   64.1438   71.0383 H   0  0  0  0  0  0  0  0  0  0  0  0
    3.3527   64.2952   69.6057 H   0  0  0  0  0  0  0  0  0  0  0  0
    2.4558   64.5147   72.1100 H   0  0  0  0  0  0  0  0  0  0  0  0
    3.3854   62.4243   72.8864 H   0  0  0  0  0  0  0  0  0  0  0  0
    1.5537   62.3713   72.8647 H   0  0  0  0  0  0  0  0  0  0  0  0
    3.1570   60.3703   71.9664 H   0  0  0  0  0  0  0  0  0  0  0  0
    1.4584   60.7399   71.3838 H   0  0  0  0  0  0  0  0  0  0  0  0
    3.0222   59.7561   68.4566 H   0  0  0  0  0  0  0  0  0  0  0  0
    4.6207   60.0534   69.2754 H   0  0  0  0  0  0  0  0  0  0  0  0
    3.3758   59.1044   71.2666 H   0  0  0  0  0  0  0  0  0  0  0  0
    2.3860   58.4021   70.1021 H   0  0  0  0  0  0  0  0  0  0  0  0
    4.0383   58.0876   70.1021 H   0  0  0  0  0  0  0  0  0  0  0  0
    2.3343   66.8560   70.6169 H   0  0  0  0  0  0  0  0  0  0  0  0
    2.3558   68.3446   68.6164 H   0  0  0  0  0  0  0  0  0  0  0  0
   -1.6014   66.9721   67.5464 H   0  0  0  0  0  0  0  0  0  0  0  0
   -1.6089   65.4636   69.5352 H   0  0  0  0  0  0  0  0  0  0  0  0
   -0.1808   67.9863   65.8732 H   0  0  0  0  0  0  0  0  0  0  0  0
    0.3380   69.4784   66.7788 H   0  0  0  0  0  0  0  0  0  0  0  0
    2.1009   69.1869   65.3265 H   0  0  0  0  0  0  0  0  0  0  0  0
    2.6553   68.2867   66.8142 H   0  0  0  0  0  0  0  0  0  0  0  0
  2  1  2  0
  4  3  1  0
  5  4  1  0
  6  5  1  0
  6  1  1  0
  7  6  1  0
  8  7  1  0
  8  3  1  0
  9  3  1  0
 10  9  1  0
 11  1  1  0
 12 11  1  0
 13 12  2  0
 14 13  1  0
 15 14  2  0
 16 15  1  0
 17 16  2  0
 17 12  1  0
 18 15  1  0
 19 18  1  0
 20 19  1  0
 21 20  2  0
 22 20  1  0
  3 23  1  6
  4 24  1  0
  4 25  1  0
  5 26  1  0
  5 27  1  0
  6 28  1  1
  7 29  1  0
  7 30  1  0
  8 31  1  0
  8 32  1  0
  9 33  1  0
  9 34  1  0
 10 35  1  0
 10 36  1  0
 10 37  1  0
 13 38  1  0
 14 39  1  0
 16 40  1  0
 17 41  1  0
 18 42  1  0
 18 43  1  0
 19 44  1  0
 19 45  1  0
M  CHG  2  10   1  22  -1
M  END
>  <score>  (4) 
-7.944

$$$$
=
     RDKit          3D

 45 46  0  0  0  0  0  0  0  0999 V2000
    5.0380   61.3310   71.4660 C   0  0  0  0  0  0  0  0  0  0  0  0
    5.2380   61.7710   72.5920 O   0  0  0  0  0  0  0  0  0  0  0  0
    2.1210   62.6890   70.9840 C   0  0  2  0  0  0  0  0  0  0  0  0
    2.9790   63.9440   70.7630 C   0  0  0  0  0  0  0  0  0  0  0  0
    4.4820   63.6580   70.6260 C   0  0  0  0  0  0  0  0  0  0  0  0
    4.8270   62.2100   70.2310 C   0  0  2  0  0  0  0  0  0  0  0  0
    3.7630   61.6790   69.2660 C   0  0  0  0  0  0  0  0  0  0  0  0
    2.3360   61.6920   69.8330 C   0  0  0  0  0  0  0  0  0  0  0  0
    0.6480   63.0880   71.1560 C   0  0  0  0  0  0  0  0  0  0  0  0
    0.1320   63.8230   70.0150 N   0  0  0  0  0  4  0  0  0  0  0  0
    5.0800   59.9850   71.1290 O   0  0  0  0  0  0  0  0  0  0  0  0
    4.1600   59.2180   71.8570 C   0  0  0  0  0  0  0  0  0  0  0  0
    3.8990   59.4110   73.2110 C   0  0  0  0  0  0  0  0  0  0  0  0
    2.8120   58.7650   73.7950 C   0  0  0  0  0  0  0  0  0  0  0  0
    2.0020   57.9080   73.0370 C   0  0  0  0  0  0  0  0  0  0  0  0
    2.3600   57.6190   71.7140 C   0  0  0  0  0  0  0  0  0  0  0  0
    3.4420   58.2700   71.1250 C   0  0  0  0  0  0  0  0  0  0  0  0
    0.7010   57.4020   73.6190 C   0  0  0  0  0  0  0  0  0  0  0  0
    0.5620   55.8830   73.5210 C   0  0  0  0  0  0  0  0  0  0  0  0
    1.6400   55.1370   74.2670 C   0  0  0  0  0  0  0  0  0  0  0  0
    2.3730   54.3050   73.6540 O   0  0  0  0  0  0  0  0  0  0  0  0
    1.8010   55.3990   75.5010 O   0  0  0  0  0  1  0  0  0  0  0  0
    2.4303   62.1809   71.9093 H   0  0  0  0  0  0  0  0  0  0  0  0
    2.6361   64.4396   69.8428 H   0  0  0  0  0  0  0  0  0  0  0  0
    2.8555   64.5748   71.6556 H   0  0  0  0  0  0  0  0  0  0  0  0
    4.8901   64.3298   69.8565 H   0  0  0  0  0  0  0  0  0  0  0  0
    4.9220   63.8225   71.6207 H   0  0  0  0  0  0  0  0  0  0  0  0
    5.7886   62.1864   69.6974 H   0  0  0  0  0  0  0  0  0  0  0  0
    3.7793   62.3006   68.3586 H   0  0  0  0  0  0  0  0  0  0  0  0
    4.0142   60.6268   69.0665 H   0  0  0  0  0  0  0  0  0  0  0  0
    1.6441   61.9520   69.0184 H   0  0  0  0  0  0  0  0  0  0  0  0
    2.1524   60.6894   70.2465 H   0  0  0  0  0  0  0  0  0  0  0  0
    0.0487   62.1750   71.2873 H   0  0  0  0  0  0  0  0  0  0  0  0
    0.5815   63.7466   72.0345 H   0  0  0  0  0  0  0  0  0  0  0  0
   -0.4285   64.6213   70.3458 H   0  0  0  0  0  0  0  0  0  0  0  0
    0.9175   64.1677   69.4449 H   0  0  0  0  0  0  0  0  0  0  0  0
   -0.4591   63.2013   69.4449 H   0  0  0  0  0  0  0  0  0  0  0  0
    4.5447   60.0670   73.8133 H   0  0  0  0  0  0  0  0  0  0  0  0
    2.5874   58.9286   74.8593 H   0  0  0  0  0  0  0  0  0  0  0  0
    1.7862   56.8771   71.1393 H   0  0  0  0  0  0  0  0  0  0  0  0
    3.7291   58.0384   70.0887 H   0  0  0  0  0  0  0  0  0  0  0  0
    0.6533   57.6920   74.6790 H   0  0  0  0  0  0  0  0  0  0  0  0
   -0.1190   57.8488   73.0376 H   0  0  0  0  0  0  0  0  0  0  0  0
   -0.4145   55.5940   73.9368 H   0  0  0  0  0  0  0  0  0  0  0  0
    0.6552   55.6147   72.4583 H   0  0  0  0  0  0  0  0  0  0  0  0
  2  1  2  0
  4  3  1  0
  5  4  1  0
  6  5  1  0
  6  1  1  0
  7  6  1  0
  8  7  1  0
  8  3  1  0
  9  3  1  0
 10  9  1  0
 11  1  1  0
 12 11  1  0
 13 12  2  0
 14 13  1  0
 15 14  2  0
 16 15  1  0
 17 16  2  0
 17 12  1  0
 18 15  1  0
 19 18  1  0
 20 19  1  0
 21 20  2  0
 22 20  1  0
  3 23  1  1
  4 24  1  0
  4 25  1  0
  5 26  1  0
  5 27  1  0
  6 28  1  6
  7 29  1  0
  7 30  1  0
  8 31  1  0
  8 32  1  0
  9 33  1  0
  9 34  1  0
 10 35  1  0
 10 36  1  0
 10 37  1  0
 13 38  1  0
 14 39  1  0
 16 40  1  0
 17 41  1  0
 18 42  1  0
 18 43  1  0
 19 44  1  0
 19 45  1  0
M  CHG  2  10   1  22  -1
M  END
>  <score>  (5) 
-7.9

$$$$
=
     RDKit          3D

 45 46  0  0  0  0  0  0  0  0999 V2000
    1.9000   67.1160   65.6500 C   0  0  0  0  0  0  0  0  0  0  0  0
    2.2040   66.3970   66.5950 O   0  0  0  0  0  0  0  0  0  0  0  0
    4.0990   68.3310   63.5810 C   0  0  2  0  0  0  0  0  0  0  0  0
    4.2800   66.8440   63.2370 C   0  0  0  0  0  0  0  0  0  0  0  0
    3.1920   65.9300   63.8180 C   0  0  0  0  0  0  0  0  0  0  0  0
    1.8820   66.6480   64.1930 C   0  0  2  0  0  0  0  0  0  0  0  0
    1.6100   67.7670   63.1850 C   0  0  0  0  0  0  0  0  0  0  0  0
    2.7240   68.8210   63.0970 C   0  0  0  0  0  0  0  0  0  0  0  0
    5.2600   69.1470   62.9950 C   0  0  0  0  0  0  0  0  0  0  0  0
    6.2100   68.3240   62.2680 N   0  0  0  0  0  4  0  0  0  0  0  0
    1.4300   68.4160   65.7700 O   0  0  0  0  0  0  0  0  0  0  0  0
    2.2070   69.1920   66.6410 C   0  0  0  0  0  0  0  0  0  0  0  0
    1.7330   69.6980   67.8500 C   0  0  0  0  0  0  0  0  0  0  0  0
    2.6320   70.2570   68.7540 C   0  0  0  0  0  0  0  0  0  0  0  0
    3.9970   70.3370   68.4450 C   0  0  0  0  0  0  0  0  0  0  0  0
    4.4340   69.9490   67.1730 C   0  0  0  0  0  0  0  0  0  0  0  0
    3.5390   69.3810   66.2680 C   0  0  0  0  0  0  0  0  0  0  0  0
    4.9840   70.7280   69.5210 C   0  0  0  0  0  0  0  0  0  0  0  0
    6.3690   71.0540   68.9620 C   0  0  0  0  0  0  0  0  0  0  0  0
    7.4530   71.0340   70.0100 C   0  0  0  0  0  0  0  0  0  0  0  0
    7.2880   70.3730   71.0780 O   0  0  0  0  0  0  0  0  0  0  0  0
    8.5300   71.6650   69.7650 O   0  0  0  0  0  1  0  0  0  0  0  0
    4.1229   68.4701   64.6719 H   0  0  0  0  0  0  0  0  0  0  0  0
    4.2711   66.7390   62.1421 H   0  0  0  0  0  0  0  0  0  0  0  0
    5.2332   66.5280   63.6860 H   0  0  0  0  0  0  0  0  0  0  0  0
    2.9578   65.1578   63.0704 H   0  0  0  0  0  0  0  0  0  0  0  0
    3.5991   65.5173   64.7529 H   0  0  0  0  0  0  0  0  0  0  0  0
    1.0385   65.9447   64.1315 H   0  0  0  0  0  0  0  0  0  0  0  0
    1.4857   67.3128   62.1909 H   0  0  0  0  0  0  0  0  0  0  0  0
    0.7066   68.2907   63.5308 H   0  0  0  0  0  0  0  0  0  0  0  0
    2.8199   69.1339   62.0468 H   0  0  0  0  0  0  0  0  0  0  0  0
    2.4309   69.6453   63.7638 H   0  0  0  0  0  0  0  0  0  0  0  0
    4.8489   69.9011   62.3077 H   0  0  0  0  0  0  0  0  0  0  0  0
    5.7969   69.6128   63.8345 H   0  0  0  0  0  0  0  0  0  0  0  0
    6.8021   67.8110   62.9367 H   0  0  0  0  0  0  0  0  0  0  0  0
    5.7002   67.6529   61.6758 H   0  0  0  0  0  0  0  0  0  0  0  0
    6.8016   68.9242   61.6758 H   0  0  0  0  0  0  0  0  0  0  0  0
    0.6597   69.6561   68.0874 H   0  0  0  0  0  0  0  0  0  0  0  0
    2.2681   70.6392   69.7191 H   0  0  0  0  0  0  0  0  0  0  0  0
    5.4864   70.0927   66.8870 H   0  0  0  0  0  0  0  0  0  0  0  0
    3.8802   69.0833   65.2655 H   0  0  0  0  0  0  0  0  0  0  0  0
    4.5990   71.6146   70.0461 H   0  0  0  0  0  0  0  0  0  0  0  0
    5.0936   69.8687   70.1990 H   0  0  0  0  0  0  0  0  0  0  0  0
    6.6171   70.3124   68.1884 H   0  0  0  0  0  0  0  0  0  0  0  0
    6.3254   72.0757   68.5566 H   0  0  0  0  0  0  0  0  0  0  0  0
  2  1  2  0
  4  3  1  0
  5  4  1  0
  6  5  1  0
  6  1  1  0
  7  6  1  0
  8  7  1  0
  8  3  1  0
  9  3  1  0
 10  9  1  0
 11  1  1  0
 12 11  1  0
 13 12  2  0
 14 13  1  0
 15 14  2  0
 16 15  1  0
 17 16  2  0
 17 12  1  0
 18 15  1  0
 19 18  1  0
 20 19  1  0
 21 20  2  0
 22 20  1  0
  3 23  1  1
  4 24  1  0
  4 25  1  0
  5 26  1  0
  5 27  1  0
  6 28  1  1
  7 29  1  0
  7 30  1  0
  8 31  1  0
  8 32  1  0
  9 33  1  0
  9 34  1  0
 10 35  1  0
 10 36  1  0
 10 37  1  0
 13 38  1  0
 14 39  1  0
 16 40  1  0
 17 41  1  0
 18 42  1  0
 18 43  1  0
 19 44  1  0
 19 45  1  0
M  CHG  2  10   1  22  -1
M  END
>  <score>  (6) 
-7.742

$$$$
=
     RDKit          3D

 45 46  0  0  0  0  0  0  0  0999 V2000
    0.2320   69.0470   67.4040 C   0  0  0  0  0  0  0  0  0  0  0  0
   -0.0890   70.2300   67.4070 O   0  0  0  0  0  0  0  0  0  0  0  0
    1.1630   68.4510   64.3440 C   0  0  2  0  0  0  0  0  0  0  0  0
    1.1310   66.9980   64.8440 C   0  0  0  0  0  0  0  0  0  0  0  0
    0.4500   66.8210   66.2090 C   0  0  0  0  0  0  0  0  0  0  0  0
   -0.5000   67.9660   66.6060 C   0  0  2  0  0  0  0  0  0  0  0  0
   -1.2120   68.4920   65.3570 C   0  0  0  0  0  0  0  0  0  0  0  0
   -0.2660   69.0130   64.2660 C   0  0  0  0  0  0  0  0  0  0  0  0
    1.9040   68.5230   63.0010 C   0  0  0  0  0  0  0  0  0  0  0  0
    1.0260   68.8590   61.8950 N   0  0  0  0  0  4  0  0  0  0  0  0
    1.3600   68.5370   68.0320 O   0  0  0  0  0  0  0  0  0  0  0  0
    2.4920   69.3410   67.8440 C   0  0  0  0  0  0  0  0  0  0  0  0
    3.0120   70.1790   68.8280 C   0  0  0  0  0  0  0  0  0  0  0  0
    4.2620   70.7600   68.6370 C   0  0  0  0  0  0  0  0  0  0  0  0
    4.9830   70.5300   67.4580 C   0  0  0  0  0  0  0  0  0  0  0  0
    4.3870   69.7970   66.4240 C   0  0  0  0  0  0  0  0  0  0  0  0
    3.1390   69.2060   66.6140 C   0  0  0  0  0  0  0  0  0  0  0  0
    6.4260   70.9730   67.3650 C   0  0  0  0  0  0  0  0  0  0  0  0
    7.3460   70.1900   68.3000 C   0  0  0  0  0  0  0  0  0  0  0  0
    7.6030   70.8950   69.6090 C   0  0  0  0  0  0  0  0  0  0  0  0
    7.1260   70.4240   70.6840 O   0  0  0  0  0  0  0  0  0  0  0  0
    8.3330   71.9370   69.5920 O   0  0  0  0  0  1  0  0  0  0  0  0
    1.7168   69.0822   65.0546 H   0  0  0  0  0  0  0  0  0  0  0  0
    0.5880   66.3901   64.1053 H   0  0  0  0  0  0  0  0  0  0  0  0
    2.1772   66.6812   64.9673 H   0  0  0  0  0  0  0  0  0  0  0  0
   -0.1304   65.8869   66.1840 H   0  0  0  0  0  0  0  0  0  0  0  0
    1.2545   66.8099   66.9591 H   0  0  0  0  0  0  0  0  0  0  0  0
   -1.2770   67.5881   67.2867 H   0  0  0  0  0  0  0  0  0  0  0  0
   -1.8119   67.6740   64.9316 H   0  0  0  0  0  0  0  0  0  0  0  0
   -1.8247   69.3470   65.6788 H   0  0  0  0  0  0  0  0  0  0  0  0
   -0.6887   68.7439   63.2867 H   0  0  0  0  0  0  0  0  0  0  0  0
   -0.1846   70.1000   64.4135 H   0  0  0  0  0  0  0  0  0  0  0  0
    2.6892   69.2900   63.0728 H   0  0  0  0  0  0  0  0  0  0  0  0
    2.3259   67.5272   62.8001 H   0  0  0  0  0  0  0  0  0  0  0  0
    0.1273   69.2029   62.2623 H   0  0  0  0  0  0  0  0  0  0  0  0
    1.4644   69.5917   61.3189 H   0  0  0  0  0  0  0  0  0  0  0  0
    0.8633   68.0208   61.3189 H   0  0  0  0  0  0  0  0  0  0  0  0
    2.4405   70.3793   69.7463 H   0  0  0  0  0  0  0  0  0  0  0  0
    4.6879   71.4058   69.4190 H   0  0  0  0  0  0  0  0  0  0  0  0
    4.9050   69.6875   65.4598 H   0  0  0  0  0  0  0  0  0  0  0  0
    2.6667   68.6367   65.7999 H   0  0  0  0  0  0  0  0  0  0  0  0
    6.7717   70.8301   66.3306 H   0  0  0  0  0  0  0  0  0  0  0  0
    6.4685   72.0300   67.6665 H   0  0  0  0  0  0  0  0  0  0  0  0
    6.8812   69.2160   68.5129 H   0  0  0  0  0  0  0  0  0  0  0  0
    8.3151   70.0830   67.7907 H   0  0  0  0  0  0  0  0  0  0  0  0
  2  1  2  0
  4  3  1  0
  5  4  1  0
  6  5  1  0
  6  1  1  0
  7  6  1  0
  8  7  1  0
  8  3  1  0
  9  3  1  0
 10  9  1  0
 11  1  1  0
 12 11  1  0
 13 12  2  0
 14 13  1  0
 15 14  2  0
 16 15  1  0
 17 16  2  0
 17 12  1  0
 18 15  1  0
 19 18  1  0
 20 19  1  0
 21 20  2  0
 22 20  1  0
  3 23  1  1
  4 24  1  0
  4 25  1  0
  5 26  1  0
  5 27  1  0
  6 28  1  1
  7 29  1  0
  7 30  1  0
  8 31  1  0
  8 32  1  0
  9 33  1  0
  9 34  1  0
 10 35  1  0
 10 36  1  0
 10 37  1  0
 13 38  1  0
 14 39  1  0
 16 40  1  0
 17 41  1  0
 18 42  1  0
 18 43  1  0
 19 44  1  0
 19 45  1  0
M  CHG  2  10   1  22  -1
M  END
>  <score>  (7) 
-7.713

$$$$
=
     RDKit          3D

 45 46  0  0  0  0  0  0  0  0999 V2000
    3.7430   60.4090   72.0150 C   0  0  0  0  0  0  0  0  0  0  0  0
    4.0570   60.7200   73.1590 O   0  0  0  0  0  0  0  0  0  0  0  0
    2.9390   63.2260   70.6020 C   0  0  2  0  0  0  0  0  0  0  0  0
    4.4590   63.4410   70.6550 C   0  0  0  0  0  0  0  0  0  0  0  0
    5.2570   62.1780   71.0140 C   0  0  0  0  0  0  0  0  0  0  0  0
    4.5090   60.8550   70.7680 C   0  0  2  0  0  0  0  0  0  0  0  0
    3.6360   60.9880   69.5180 C   0  0  0  0  0  0  0  0  0  0  0  0
    2.5970   62.1170   69.5930 C   0  0  0  0  0  0  0  0  0  0  0  0
    2.2360   64.5550   70.2840 C   0  0  0  0  0  0  0  0  0  0  0  0
    0.7970   64.4100   70.1590 N   0  0  0  0  0  4  0  0  0  0  0  0
    2.7200   59.5270   71.6940 O   0  0  0  0  0  0  0  0  0  0  0  0
    1.5830   59.7040   72.4940 C   0  0  0  0  0  0  0  0  0  0  0  0
    0.7890   60.8490   72.4580 C   0  0  0  0  0  0  0  0  0  0  0  0
   -0.4410   60.8450   73.1100 C   0  0  0  0  0  0  0  0  0  0  0  0
   -0.8700   59.7130   73.8170 C   0  0  0  0  0  0  0  0  0  0  0  0
   -0.0010   58.6230   73.9560 C   0  0  0  0  0  0  0  0  0  0  0  0
    1.2280   58.6200   73.2980 C   0  0  0  0  0  0  0  0  0  0  0  0
   -2.2950   59.6400   74.3180 C   0  0  0  0  0  0  0  0  0  0  0  0
   -3.0240   60.9790   74.2190 C   0  0  0  0  0  0  0  0  0  0  0  0
   -3.0210   61.7550   75.5120 C   0  0  0  0  0  0  0  0  0  0  0  0
   -3.4000   62.9640   75.5250 O   0  0  0  0  0  0  0  0  0  0  0  0
   -2.6650   61.1470   76.5710 O   0  0  0  0  0  1  0  0  0  0  0  0
    2.5723   62.8901   71.5832 H   0  0  0  0  0  0  0  0  0  0  0  0
    4.7932   63.7922   69.6676 H   0  0  0  0  0  0  0  0  0  0  0  0
    4.6489   64.1746   71.4523 H   0  0  0  0  0  0  0  0  0  0  0  0
    6.1762   62.1698   70.4098 H   0  0  0  0  0  0  0  0  0  0  0  0
    5.4515   62.2294   72.0954 H   0  0  0  0  0  0  0  0  0  0  0  0
    5.2305   60.0479   70.5731 H   0  0  0  0  0  0  0  0  0  0  0  0
    4.2931   61.1805   68.6571 H   0  0  0  0  0  0  0  0  0  0  0  0
    3.0742   60.0471   69.4232 H   0  0  0  0  0  0  0  0  0  0  0  0
    2.5114   62.5731   68.5957 H   0  0  0  0  0  0  0  0  0  0  0  0
    1.6577   61.6583   69.9355 H   0  0  0  0  0  0  0  0  0  0  0  0
    2.4491   65.2687   71.0935 H   0  0  0  0  0  0  0  0  0  0  0  0
    2.6199   64.9116   69.3168 H   0  0  0  0  0  0  0  0  0  0  0  0
    0.3735   64.3673   71.0969 H   0  0  0  0  0  0  0  0  0  0  0  0
    0.4139   65.2167   69.6457 H   0  0  0  0  0  0  0  0  0  0  0  0
    0.5826   63.5431   69.6457 H   0  0  0  0  0  0  0  0  0  0  0  0
    1.1305   61.7458   71.9204 H   0  0  0  0  0  0  0  0  0  0  0  0
   -1.0820   61.7380   73.0701 H   0  0  0  0  0  0  0  0  0  0  0  0
   -0.2889   57.7680   74.5854 H   0  0  0  0  0  0  0  0  0  0  0  0
    1.9142   57.7678   73.4119 H   0  0  0  0  0  0  0  0  0  0  0  0
   -2.8412   58.8968   73.7186 H   0  0  0  0  0  0  0  0  0  0  0  0
   -2.2596   59.3587   75.3808 H   0  0  0  0  0  0  0  0  0  0  0  0
   -2.5334   61.5876   73.4451 H   0  0  0  0  0  0  0  0  0  0  0  0
   -4.0734   60.7619   73.9710 H   0  0  0  0  0  0  0  0  0  0  0  0
  2  1  2  0
  4  3  1  0
  5  4  1  0
  6  5  1  0
  6  1  1  0
  7  6  1  0
  8  7  1  0
  8  3  1  0
  9  3  1  0
 10  9  1  0
 11  1  1  0
 12 11  1  0
 13 12  2  0
 14 13  1  0
 15 14  2  0
 16 15  1  0
 17 16  2  0
 17 12  1  0
 18 15  1  0
 19 18  1  0
 20 19  1  0
 21 20  2  0
 22 20  1  0
  3 23  1  1
  4 24  1  0
  4 25  1  0
  5 26  1  0
  5 27  1  0
  6 28  1  6
  7 29  1  0
  7 30  1  0
  8 31  1  0
  8 32  1  0
  9 33  1  0
  9 34  1  0
 10 35  1  0
 10 36  1  0
 10 37  1  0
 13 38  1  0
 14 39  1  0
 16 40  1  0
 17 41  1  0
 18 42  1  0
 18 43  1  0
 19 44  1  0
 19 45  1  0
M  CHG  2  10   1  22  -1
M  END
>  <score>  (8) 
-7.649

$$$$
=
     RDKit          3D

 45 46  0  0  0  0  0  0  0  0999 V2000
    3.1170   61.1530   70.6780 C   0  0  0  0  0  0  0  0  0  0  0  0
    2.5160   61.2530   69.6150 O   0  0  0  0  0  0  0  0  0  0  0  0
    2.2460   58.4990   72.3450 C   0  0  2  0  0  0  0  0  0  0  0  0
    2.9790   57.7950   71.1920 C   0  0  0  0  0  0  0  0  0  0  0  0
    3.8020   58.7410   70.3050 C   0  0  0  0  0  0  0  0  0  0  0  0
    4.1710   60.0820   70.9660 C   0  0  2  0  0  0  0  0  0  0  0  0
    4.4380   59.8590   72.4570 C   0  0  0  0  0  0  0  0  0  0  0  0
    3.2520   59.2580   73.2250 C   0  0  0  0  0  0  0  0  0  0  0  0
    1.4180   57.4760   73.1370 C   0  0  0  0  0  0  0  0  0  0  0  0
    2.0980   56.2010   73.2850 N   0  0  0  0  0  4  0  0  0  0  0  0
    3.0090   62.0530   71.7290 O   0  0  0  0  0  0  0  0  0  0  0  0
    2.3330   63.2270   71.3680 C   0  0  0  0  0  0  0  0  0  0  0  0
    2.9130   64.2480   70.6190 C   0  0  0  0  0  0  0  0  0  0  0  0
    2.1070   65.2640   70.1120 C   0  0  0  0  0  0  0  0  0  0  0  0
    0.7290   65.2770   70.3710 C   0  0  0  0  0  0  0  0  0  0  0  0
    0.1870   64.3190   71.2370 C   0  0  0  0  0  0  0  0  0  0  0  0
    0.9890   63.2960   71.7400 C   0  0  0  0  0  0  0  0  0  0  0  0
   -0.1620   66.2450   69.6270 C   0  0  0  0  0  0  0  0  0  0  0  0
    0.6260   67.2220   68.7550 C   0  0  0  0  0  0  0  0  0  0  0  0
   -0.0720   67.5610   67.4620 C   0  0  0  0  0  0  0  0  0  0  0  0
   -0.8750   66.7310   66.9410 O   0  0  0  0  0  0  0  0  0  0  0  0
    0.1470   68.7040   66.9470 O   0  0  0  0  0  1  0  0  0  0  0  0
    1.5443   59.2456   71.9447 H   0  0  0  0  0  0  0  0  0  0  0  0
    3.6589   57.0445   71.6214 H   0  0  0  0  0  0  0  0  0  0  0  0
    2.2062   57.3480   70.5494 H   0  0  0  0  0  0  0  0  0  0  0  0
    4.7344   58.2271   70.0282 H   0  0  0  0  0  0  0  0  0  0  0  0
    3.1694   58.9846   69.4387 H   0  0  0  0  0  0  0  0  0  0  0  0
    5.1009   60.4722   70.5266 H   0  0  0  0  0  0  0  0  0  0  0  0
    5.2948   59.1763   72.5558 H   0  0  0  0  0  0  0  0  0  0  0  0
    4.6299   60.8493   72.8957 H   0  0  0  0  0  0  0  0  0  0  0  0
    3.6474   58.5592   73.9769 H   0  0  0  0  0  0  0  0  0  0  0  0
    2.7056   60.1024   73.6704 H   0  0  0  0  0  0  0  0  0  0  0  0
    1.2157   57.8856   74.1377 H   0  0  0  0  0  0  0  0  0  0  0  0
    0.4886   57.2947   72.5771 H   0  0  0  0  0  0  0  0  0  0  0  0
    2.2122   55.9869   74.2860 H   0  0  0  0  0  0  0  0  0  0  0  0
    1.5400   55.4602   72.8370 H   0  0  0  0  0  0  0  0  0  0  0  0
    3.0241   56.2517   72.8370 H   0  0  0  0  0  0  0  0  0  0  0  0
    3.9966   64.2517   70.4299 H   0  0  0  0  0  0  0  0  0  0  0  0
    2.5551   66.0631   69.5032 H   0  0  0  0  0  0  0  0  0  0  0  0
   -0.8743   64.3741   71.5209 H   0  0  0  0  0  0  0  0  0  0  0  0
    0.5656   62.5475   72.4259 H   0  0  0  0  0  0  0  0  0  0  0  0
   -0.8449   65.6710   68.9834 H   0  0  0  0  0  0  0  0  0  0  0  0
   -0.7091   66.8358   70.3764 H   0  0  0  0  0  0  0  0  0  0  0  0
    0.7802   68.1513   69.3230 H   0  0  0  0  0  0  0  0  0  0  0  0
    1.5768   66.7339   68.4947 H   0  0  0  0  0  0  0  0  0  0  0  0
  2  1  2  0
  4  3  1  0
  5  4  1  0
  6  5  1  0
  6  1  1  0
  7  6  1  0
  8  7  1  0
  8  3  1  0
  9  3  1  0
 10  9  1  0
 11  1  1  0
 12 11  1  0
 13 12  2  0
 14 13  1  0
 15 14  2  0
 16 15  1  0
 17 16  2  0
 17 12  1  0
 18 15  1  0
 19 18  1  0
 20 19  1  0
 21 20  2  0
 22 20  1  0
  3 23  1  6
  4 24  1  0
  4 25  1  0
  5 26  1  0
  5 27  1  0
  6 28  1  6
  7 29  1  0
  7 30  1  0
  8 31  1  0
  8 32  1  0
  9 33  1  0
  9 34  1  0
 10 35  1  0
 10 36  1  0
 10 37  1  0
 13 38  1  0
 14 39  1  0
 16 40  1  0
 17 41  1  0
 18 42  1  0
 18 43  1  0
 19 44  1  0
 19 45  1  0
M  CHG  2  10   1  22  -1
M  END
>  <score>  (9) 
-7.57

$$$$
