=
     RDKit          3D

 19 18  0  0  0  0  0  0  0  0999 V2000
    3.6970   68.1140   62.3830 C   0  0  2  0  0  0  0  0  0  0  0  0
    3.5540   68.7310   60.9940 N   0  0  0  0  0  4  0  0  0  0  0  0
    4.0530   69.3920   64.3720 O   0  0  0  0  0  1  0  0  0  0  0  0
    4.5330   69.0580   63.2710 C   0  0  0  0  0  0  0  0  0  0  0  0
    5.6220   69.3450   62.6710 O   0  0  0  0  0  0  0  0  0  0  0  0
    4.4850   66.8130   62.2860 C   0  0  0  0  0  0  0  0  0  0  0  0
    4.5820   66.2410   63.6110 O   0  0  0  0  0  0  0  0  0  0  0  0
    4.2020   64.9510   63.6670 C   0  0  0  0  0  0  0  0  0  0  0  0
    4.4570   64.0390   62.9120 O   0  0  0  0  0  0  0  0  0  0  0  0
    3.3270   64.7780   64.8410 C   0  0  0  0  0  0  0  0  0  0  0  0
    2.3040   65.5960   64.8660 N   0  0  0  0  0  4  0  0  0  0  0  0
    1.3970   66.2870   64.8940 N   0  0  0  0  0  2  0  0  0  0  0  0
    2.6921   67.9447   62.7970 H   0  0  0  0  0  0  0  0  0  0  0  0
    3.3223   69.7305   61.0845 H   0  0  0  0  0  0  0  0  0  0  0  0
    4.4409   68.6293   60.4802 H   0  0  0  0  0  0  0  0  0  0  0  0
    2.8023   68.2495   60.4802 H   0  0  0  0  0  0  0  0  0  0  0  0
    3.9655   66.1125   61.6156 H   0  0  0  0  0  0  0  0  0  0  0  0
    5.4897   67.0076   61.8827 H   0  0  0  0  0  0  0  0  0  0  0  0
    3.5160   64.0298   65.6249 H   0  0  0  0  0  0  0  0  0  0  0  0
  2  1  1  0
  4  3  1  0
  4  1  1  0
  5  4  2  0
  6  1  1  0
  7  6  1  0
  8  7  1  0
  9  8  2  0
 10  8  1  0
 11 10  2  0
 12 11  2  0
  1 13  1  1
  2 14  1  0
  2 15  1  0
  2 16  1  0
  6 17  1  0
  6 18  1  0
 10 19  1  0
M  CHG  4   2   1   3  -1  11   1  12  -1
M  END
>  <score>  (1) 
-5.535

$$$$
=
     RDKit          3D

 19 18  0  0  0  0  0  0  0  0999 V2000
    4.4110   65.4380   63.9980 C   0  0  2  0  0  0  0  0  0  0  0  0
    4.4460   66.0740   62.6110 N   0  0  0  0  0  4  0  0  0  0  0  0
    5.6820   63.5250   63.3340 O   0  0  0  0  0  1  0  0  0  0  0  0
    4.6210   63.9160   63.8600 C   0  0  0  0  0  0  0  0  0  0  0  0
    3.6040   63.3060   64.3300 O   0  0  0  0  0  0  0  0  0  0  0  0
    3.0270   65.6210   64.6100 C   0  0  0  0  0  0  0  0  0  0  0  0
    2.7960   67.0370   64.7950 O   0  0  0  0  0  0  0  0  0  0  0  0
    1.4920   67.3590   64.8850 C   0  0  0  0  0  0  0  0  0  0  0  0
    0.6250   66.8770   65.5790 O   0  0  0  0  0  0  0  0  0  0  0  0
    1.2160   68.4410   63.9210 C   0  0  0  0  0  0  0  0  0  0  0  0
   -0.0470   68.5500   63.5940 N   0  0  0  0  0  4  0  0  0  0  0  0
   -1.1460   68.6730   63.3120 N   0  0  0  0  0  2  0  0  0  0  0  0
    5.1896   65.9058   64.6184 H   0  0  0  0  0  0  0  0  0  0  0  0
    4.5024   67.0982   62.7043 H   0  0  0  0  0  0  0  0  0  0  0  0
    5.2693   65.7303   62.0964 H   0  0  0  0  0  0  0  0  0  0  0  0
    3.5899   65.8227   62.0964 H   0  0  0  0  0  0  0  0  0  0  0  0
    2.2641   65.2046   63.9358 H   0  0  0  0  0  0  0  0  0  0  0  0
    2.9674   65.0978   65.5758 H   0  0  0  0  0  0  0  0  0  0  0  0
    2.0000   69.0965   63.5140 H   0  0  0  0  0  0  0  0  0  0  0  0
  2  1  1  0
  4  3  1  0
  4  1  1  0
  5  4  2  0
  6  1  1  0
  7  6  1  0
  8  7  1  0
  9  8  2  0
 10  8  1  0
 11 10  2  0
 12 11  2  0
  1 13  1  1
  2 14  1  0
  2 15  1  0
  2 16  1  0
  6 17  1  0
  6 18  1  0
 10 19  1  0
M  CHG  4   2   1   3  -1  11   1  12  -1
M  END
>  <score>  (2) 
-5.488

$$$$
=
     RDKit          3D

 19 18  0  0  0  0  0  0  0  0999 V2000
    2.0960   67.5220   65.5030 C   0  0  2  0  0  0  0  0  0  0  0  0
    2.1970   66.0770   65.0220 N   0  0  0  0  0  4  0  0  0  0  0  0
   -0.0920   66.8290   66.1730 O   0  0  0  0  0  1  0  0  0  0  0  0
    0.7950   67.6940   66.3140 C   0  0  0  0  0  0  0  0  0  0  0  0
    0.8710   68.7600   67.0100 O   0  0  0  0  0  0  0  0  0  0  0  0
    1.9760   68.4540   64.3040 C   0  0  0  0  0  0  0  0  0  0  0  0
    3.2490   68.4770   63.6180 O   0  0  0  0  0  0  0  0  0  0  0  0
    3.1420   68.3080   62.2860 C   0  0  0  0  0  0  0  0  0  0  0  0
    2.3120   68.7410   61.5180 O   0  0  0  0  0  0  0  0  0  0  0  0
    4.2350   67.4220   61.8440 C   0  0  0  0  0  0  0  0  0  0  0  0
    4.2050   66.2310   62.3890 N   0  0  0  0  0  4  0  0  0  0  0  0
    4.1840   65.1830   62.8380 N   0  0  0  0  0  2  0  0  0  0  0  0
    2.9877   67.7548   66.1036 H   0  0  0  0  0  0  0  0  0  0  0  0
    2.2411   65.4467   65.8354 H   0  0  0  0  0  0  0  0  0  0  0  0
    1.3701   65.8460   64.4530 H   0  0  0  0  0  0  0  0  0  0  0  0
    3.0480   65.9632   64.4530 H   0  0  0  0  0  0  0  0  0  0  0  0
    1.1935   68.0864   63.6239 H   0  0  0  0  0  0  0  0  0  0  0  0
    1.7063   69.4672   64.6368 H   0  0  0  0  0  0  0  0  0  0  0  0
    5.0051   67.7328   61.1226 H   0  0  0  0  0  0  0  0  0  0  0  0
  2  1  1  0
  4  3  1  0
  4  1  1  0
  5  4  2  0
  6  1  1  0
  7  6  1  0
  8  7  1  0
  9  8  2  0
 10  8  1  0
 11 10  2  0
 12 11  2  0
  1 13  1  1
  2 14  1  0
  2 15  1  0
  2 16  1  0
  6 17  1  0
  6 18  1  0
 10 19  1  0
M  CHG  4   2   1   3  -1  11   1  12  -1
M  END
>  <score>  (3) 
-5.469

$$$$
=
     RDKit          3D

 19 18  0  0  0  0  0  0  0  0999 V2000
    2.2530   69.5090   68.2500 C   0  0  2  0  0  0  0  0  0  0  0  0
    1.1190   70.5180   68.4120 N   0  0  0  0  0  4  0  0  0  0  0  0
    4.3700   70.2660   67.4380 O   0  0  0  0  0  1  0  0  0  0  0  0
    3.6030   70.2360   68.4200 C   0  0  0  0  0  0  0  0  0  0  0  0
    3.6910   70.6870   69.6100 O   0  0  0  0  0  0  0  0  0  0  0  0
    2.2450   68.9540   66.8310 C   0  0  0  0  0  0  0  0  0  0  0  0
    0.8710   68.8190   66.4030 O   0  0  0  0  0  0  0  0  0  0  0  0
    0.4630   67.5400   66.3060 C   0  0  0  0  0  0  0  0  0  0  0  0
    0.8580   66.6580   65.5760 O   0  0  0  0  0  0  0  0  0  0  0  0
   -0.6500   67.3370   67.2530 C   0  0  0  0  0  0  0  0  0  0  0  0
   -0.3050   66.7080   68.3490 N   0  0  0  0  0  4  0  0  0  0  0  0
   -0.0190   66.1800   69.3180 N   0  0  0  0  0  2  0  0  0  0  0  0
    2.1209   68.7097   68.9941 H   0  0  0  0  0  0  0  0  0  0  0  0
    0.9409   70.6764   69.4140 H   0  0  0  0  0  0  0  0  0  0  0  0
    1.3845   71.4075   67.9656 H   0  0  0  0  0  0  0  0  0  0  0  0
    0.2664   70.1509   67.9656 H   0  0  0  0  0  0  0  0  0  0  0  0
    2.7776   69.6433   66.1592 H   0  0  0  0  0  0  0  0  0  0  0  0
    2.7476   67.9759   66.8043 H   0  0  0  0  0  0  0  0  0  0  0  0
   -1.6758   67.6823   67.0566 H   0  0  0  0  0  0  0  0  0  0  0  0
  2  1  1  0
  4  3  1  0
  4  1  1  0
  5  4  2  0
  6  1  1  0
  7  6  1  0
  8  7  1  0
  9  8  2  0
 10  8  1  0
 11 10  2  0
 12 11  2  0
  1 13  1  1
  2 14  1  0
  2 15  1  0
  2 16  1  0
  6 17  1  0
  6 18  1  0
 10 19  1  0
M  CHG  4   2   1   3  -1  11   1  12  -1
M  END
>  <score>  (4) 
-5.375

$$$$
=
     RDKit          3D

 19 18  0  0  0  0  0  0  0  0999 V2000
    4.2060   65.7190   64.1340 C   0  0  2  0  0  0  0  0  0  0  0  0
    4.5150   66.1080   62.6900 N   0  0  0  0  0  4  0  0  0  0  0  0
    4.5180   63.5120   63.2690 O   0  0  0  0  0  1  0  0  0  0  0  0
    4.0940   64.1830   64.2300 C   0  0  0  0  0  0  0  0  0  0  0  0
    3.5450   63.8700   65.3380 O   0  0  0  0  0  0  0  0  0  0  0  0
    2.8420   66.2700   64.5320 C   0  0  0  0  0  0  0  0  0  0  0  0
    3.0490   67.4280   65.3730 O   0  0  0  0  0  0  0  0  0  0  0  0
    2.8730   68.5960   64.7280 C   0  0  0  0  0  0  0  0  0  0  0  0
    1.9010   69.0130   64.1390 O   0  0  0  0  0  0  0  0  0  0  0  0
    4.1350   69.3570   64.7990 C   0  0  0  0  0  0  0  0  0  0  0  0
    4.8900   69.2320   63.7360 N   0  0  0  0  0  4  0  0  0  0  0  0
    5.5510   69.1510   62.8100 N   0  0  0  0  0  2  0  0  0  0  0  0
    5.0026   66.1137   64.7818 H   0  0  0  0  0  0  0  0  0  0  0  0
    5.1556   66.9145   62.6813 H   0  0  0  0  0  0  0  0  0  0  0  0
    4.9574   65.3129   62.2074 H   0  0  0  0  0  0  0  0  0  0  0  0
    3.6404   66.3590   62.2074 H   0  0  0  0  0  0  0  0  0  0  0  0
    2.2805   66.5596   63.6316 H   0  0  0  0  0  0  0  0  0  0  0  0
    2.2673   65.5049   65.0745 H   0  0  0  0  0  0  0  0  0  0  0  0
    4.4162   69.9732   65.6657 H   0  0  0  0  0  0  0  0  0  0  0  0
  2  1  1  0
  4  3  1  0
  4  1  1  0
  5  4  2  0
  6  1  1  0
  7  6  1  0
  8  7  1  0
  9  8  2  0
 10  8  1  0
 11 10  2  0
 12 11  2  0
  1 13  1  1
  2 14  1  0
  2 15  1  0
  2 16  1  0
  6 17  1  0
  6 18  1  0
 10 19  1  0
M  CHG  4   2   1   3  -1  11   1  12  -1
M  END
>  <score>  (5) 
-5.348

$$$$
=
     RDKit          3D

 19 18  0  0  0  0  0  0  0  0999 V2000
    1.8200   67.9000   64.7140 C   0  0  2  0  0  0  0  0  0  0  0  0
    0.9640   66.8180   65.3670 N   0  0  0  0  0  4  0  0  0  0  0  0
    2.0550   68.3750   62.3830 O   0  0  0  0  0  1  0  0  0  0  0  0
    1.2470   68.2260   63.3200 C   0  0  0  0  0  0  0  0  0  0  0  0
   -0.0250   68.2960   63.3940 O   0  0  0  0  0  0  0  0  0  0  0  0
    3.2290   67.3660   64.4800 C   0  0  0  0  0  0  0  0  0  0  0  0
    3.1840   65.9230   64.5480 O   0  0  0  0  0  0  0  0  0  0  0  0
    4.0340   65.3210   63.6950 C   0  0  0  0  0  0  0  0  0  0  0  0
    4.2950   65.5950   62.5450 O   0  0  0  0  0  0  0  0  0  0  0  0
    4.6310   64.1590   64.3810 C   0  0  0  0  0  0  0  0  0  0  0  0
    5.3530   63.3950   63.5990 N   0  0  0  0  0  4  0  0  0  0  0  0
    6.0010   62.7290   62.9380 N   0  0  0  0  0  2  0  0  0  0  0  0
    1.8287   68.7830   65.3699 H   0  0  0  0  0  0  0  0  0  0  0  0
    1.0292   66.9004   66.3916 H   0  0  0  0  0  0  0  0  0  0  0  0
   -0.0170   66.9335   65.0750 H   0  0  0  0  0  0  0  0  0  0  0  0
    1.3021   65.8899   65.0750 H   0  0  0  0  0  0  0  0  0  0  0  0
    3.5862   67.6808   63.4884 H   0  0  0  0  0  0  0  0  0  0  0  0
    3.9157   67.7604   65.2435 H   0  0  0  0  0  0  0  0  0  0  0  0
    4.4833   63.9530   65.4514 H   0  0  0  0  0  0  0  0  0  0  0  0
  2  1  1  0
  4  3  1  0
  4  1  1  0
  5  4  2  0
  6  1  1  0
  7  6  1  0
  8  7  1  0
  9  8  2  0
 10  8  1  0
 11 10  2  0
 12 11  2  0
  1 13  1  1
  2 14  1  0
  2 15  1  0
  2 16  1  0
  6 17  1  0
  6 18  1  0
 10 19  1  0
M  CHG  4   2   1   3  -1  11   1  12  -1
M  END
>  <score>  (6) 
-5.336

$$$$
=
     RDKit          3D

 19 18  0  0  0  0  0  0  0  0999 V2000
    4.6310   69.4610   65.3730 C   0  0  2  0  0  0  0  0  0  0  0  0
    5.6530   68.5940   64.6430 N   0  0  0  0  0  4  0  0  0  0  0  0
    6.4180   70.0520   66.8470 O   0  0  0  0  0  1  0  0  0  0  0  0
    5.1920   69.8460   66.7570 C   0  0  0  0  0  0  0  0  0  0  0  0
    4.2390   69.8730   67.6050 O   0  0  0  0  0  0  0  0  0  0  0  0
    3.3680   68.6510   65.6370 C   0  0  0  0  0  0  0  0  0  0  0  0
    2.9940   67.9800   64.4120 O   0  0  0  0  0  0  0  0  0  0  0  0
    2.4860   66.7490   64.6090 C   0  0  0  0  0  0  0  0  0  0  0  0
    1.4120   66.4210   65.0600 O   0  0  0  0  0  0  0  0  0  0  0  0
    3.5050   65.7600   64.2090 C   0  0  0  0  0  0  0  0  0  0  0  0
    4.2550   66.1470   63.2070 N   0  0  0  0  0  4  0  0  0  0  0  0
    4.9310   66.4760   62.3500 N   0  0  0  0  0  2  0  0  0  0  0  0
    4.4181   70.3465   64.7560 H   0  0  0  0  0  0  0  0  0  0  0  0
    6.2371   68.0985   65.3316 H   0  0  0  0  0  0  0  0  0  0  0  0
    5.1618   67.9079   64.0524 H   0  0  0  0  0  0  0  0  0  0  0  0
    6.2499   69.1905   64.0524 H   0  0  0  0  0  0  0  0  0  0  0  0
    3.5609   67.9074   66.4243 H   0  0  0  0  0  0  0  0  0  0  0  0
    2.5554   69.3139   65.9691 H   0  0  0  0  0  0  0  0  0  0  0  0
    3.6242   64.7863   64.7067 H   0  0  0  0  0  0  0  0  0  0  0  0
  2  1  1  0
  4  3  1  0
  4  1  1  0
  5  4  2  0
  6  1  1  0
  7  6  1  0
  8  7  1  0
  9  8  2  0
 10  8  1  0
 11 10  2  0
 12 11  2  0
  1 13  1  6
  2 14  1  0
  2 15  1  0
  2 16  1  0
  6 17  1  0
  6 18  1  0
 10 19  1  0
M  CHG  4   2   1   3  -1  11   1  12  -1
M  END
>  <score>  (7) 
-5.166

$$$$
=
     RDKit          3D

 19 18  0  0  0  0  0  0  0  0999 V2000
    4.8690   69.4610   64.9210 C   0  0  2  0  0  0  0  0  0  0  0  0
    6.0060   68.5400   64.4840 N   0  0  0  0  0  4  0  0  0  0  0  0
    6.1480   69.8350   66.9060 O   0  0  0  0  0  1  0  0  0  0  0  0
    4.9990   69.7400   66.4330 C   0  0  0  0  0  0  0  0  0  0  0  0
    3.8340   69.8160   66.9480 O   0  0  0  0  0  0  0  0  0  0  0  0
    3.5340   68.7500   64.7340 C   0  0  0  0  0  0  0  0  0  0  0  0
    3.7770   67.3240   64.7200 O   0  0  0  0  0  0  0  0  0  0  0  0
    2.6620   66.5900   64.8920 C   0  0  0  0  0  0  0  0  0  0  0  0
    2.5360   65.3890   64.9790 O   0  0  0  0  0  0  0  0  0  0  0  0
    1.5060   67.5050   64.9250 C   0  0  0  0  0  0  0  0  0  0  0  0
    0.5720   67.1500   65.7720 N   0  0  0  0  0  4  0  0  0  0  0  0
   -0.2420   66.8670   66.5190 N   0  0  0  0  0  2  0  0  0  0  0  0
    4.9180   70.3855   64.3270 H   0  0  0  0  0  0  0  0  0  0  0  0
    6.4776   68.1580   65.3162 H   0  0  0  0  0  0  0  0  0  0  0  0
    5.6243   67.7669   63.9205 H   0  0  0  0  0  0  0  0  0  0  0  0
    6.6830   69.0739   63.9205 H   0  0  0  0  0  0  0  0  0  0  0  0
    2.8579   69.0040   65.5637 H   0  0  0  0  0  0  0  0  0  0  0  0
    3.0663   69.0641   63.7892 H   0  0  0  0  0  0  0  0  0  0  0  0
    1.4345   68.4042   64.2954 H   0  0  0  0  0  0  0  0  0  0  0  0
  2  1  1  0
  4  3  1  0
  4  1  1  0
  5  4  2  0
  6  1  1  0
  7  6  1  0
  8  7  1  0
  9  8  2  0
 10  8  1  0
 11 10  2  0
 12 11  2  0
  1 13  1  6
  2 14  1  0
  2 15  1  0
  2 16  1  0
  6 17  1  0
  6 18  1  0
 10 19  1  0
M  CHG  4   2   1   3  -1  11   1  12  -1
M  END
>  <score>  (8) 
-5.139

$$$$
=
     RDKit          3D

 19 18  0  0  0  0  0  0  0  0999 V2000
    1.1300   68.4040   62.4100 C   0  0  2  0  0  0  0  0  0  0  0  0
    1.8840   69.1060   61.2840 N   0  0  0  0  0  4  0  0  0  0  0  0
   -0.9530   68.6900   63.5480 O   0  0  0  0  0  1  0  0  0  0  0  0
   -0.2160   69.1230   62.6410 C   0  0  0  0  0  0  0  0  0  0  0  0
   -0.3330   70.0760   61.8020 O   0  0  0  0  0  0  0  0  0  0  0  0
    1.9120   68.5390   63.7120 C   0  0  0  0  0  0  0  0  0  0  0  0
    2.6780   67.3290   63.9080 O   0  0  0  0  0  0  0  0  0  0  0  0
    2.3390   66.6550   65.0230 C   0  0  0  0  0  0  0  0  0  0  0  0
    2.5210   65.4920   65.3060 O   0  0  0  0  0  0  0  0  0  0  0  0
    1.6200   67.5790   65.9200 C   0  0  0  0  0  0  0  0  0  0  0  0
    0.4230   67.1680   66.2560 N   0  0  0  0  0  4  0  0  0  0  0  0
   -0.6140   66.8160   66.5760 N   0  0  0  0  0  2  0  0  0  0  0  0
    0.9897   67.3486   62.1335 H   0  0  0  0  0  0  0  0  0  0  0  0
    2.5780   69.7521   61.6862 H   0  0  0  0  0  0  0  0  0  0  0  0
    2.3645   68.4043   60.7029 H   0  0  0  0  0  0  0  0  0  0  0  0
    1.2184   69.6353   60.7029 H   0  0  0  0  0  0  0  0  0  0  0  0
    2.5902   69.4029   63.6509 H   0  0  0  0  0  0  0  0  0  0  0  0
    1.2219   68.6918   64.5549 H   0  0  0  0  0  0  0  0  0  0  0  0
    2.0502   68.5273   66.2745 H   0  0  0  0  0  0  0  0  0  0  0  0
  2  1  1  0
  4  3  1  0
  4  1  1  0
  5  4  2  0
  6  1  1  0
  7  6  1  0
  8  7  1  0
  9  8  2  0
 10  8  1  0
 11 10  2  0
 12 11  2  0
  1 13  1  6
  2 14  1  0
  2 15  1  0
  2 16  1  0
  6 17  1  0
  6 18  1  0
 10 19  1  0
M  CHG  4   2   1   3  -1  11   1  12  -1
M  END
>  <score>  (9) 
-5.112

$$$$
