=
     RDKit          3D

 37 37  0  0  0  0  0  0  0  0999 V2000
    3.2320   67.7160   63.6950 C   0  0  0  0  0  0  0  0  0  0  0  0
   -3.0850   69.1690   64.7050 N   0  0  0  0  0  0  0  0  0  0  0  0
   -2.4330   68.6410   65.7450 C   0  0  0  0  0  0  0  0  0  0  0  0
   -1.1350   68.2980   65.7380 N   0  0  0  0  0  4  0  0  0  0  0  0
   -0.1830   68.3870   64.7350 C   0  0  0  0  0  0  0  0  0  0  0  0
   -0.5160   69.0400   63.1830 S   0  0  0  0  0  0  0  0  0  0  0  0
    1.0910   68.7320   62.6870 C   0  0  0  0  0  0  0  0  0  0  0  0
    1.8020   68.1600   63.7250 C   0  0  0  0  0  0  0  0  0  0  0  0
    1.0570   67.9770   64.8850 N   0  0  0  0  0  0  0  0  0  0  0  0
   -3.1420   68.4450   66.8710 N   0  0  0  0  0  0  0  0  0  0  0  0
    4.2570   68.8730   62.7130 S   0  0  0  0  0  0  0  0  0  0  0  0
    5.2850   69.5500   64.0650 C   0  0  0  0  0  0  0  0  0  0  0  0
    4.7980   69.0810   65.4390 C   0  0  0  0  0  0  0  0  0  0  0  0
    5.4210   69.8250   66.5780 C   0  0  0  0  0  0  0  0  0  0  0  0
    4.6430   70.1200   67.6010 N   0  0  0  0  0  4  0  0  0  0  0  0
    6.6960   70.1480   66.4510 N   0  0  0  0  0  0  0  0  0  0  0  0
    5.0910   70.9750   68.8780 S   0  0  0  0  0  6  0  0  0  0  0  0
    6.2930   70.4230   69.4420 O   0  0  0  0  0  0  0  0  0  0  0  0
    3.9450   71.3040   69.6930 O   0  0  0  0  0  0  0  0  0  0  0  0
    5.5610   72.4060   68.1690 N   0  0  0  0  0  0  0  0  0  0  0  0
    3.6185   67.6775   64.7241 H   0  0  0  0  0  0  0  0  0  0  0  0
    3.2807   66.7213   63.2280 H   0  0  0  0  0  0  0  0  0  0  0  0
   -4.0838   69.4059   64.7897 H   0  0  0  0  0  0  0  0  0  0  0  0
   -2.5888   69.3391   63.8186 H   0  0  0  0  0  0  0  0  0  0  0  0
   -0.7898   67.9035   66.6246 H   0  0  0  0  0  0  0  0  0  0  0  0
    1.4984   68.9558   61.6900 H   0  0  0  0  0  0  0  0  0  0  0  0
   -2.6873   68.0407   67.7021 H   0  0  0  0  0  0  0  0  0  0  0  0
   -4.1396   68.6992   66.9022 H   0  0  0  0  0  0  0  0  0  0  0  0
    6.3240   69.2177   63.9230 H   0  0  0  0  0  0  0  0  0  0  0  0
    5.2130   70.6472   64.0328 H   0  0  0  0  0  0  0  0  0  0  0  0
    3.7077   69.2187   65.4878 H   0  0  0  0  0  0  0  0  0  0  0  0
    5.0898   68.0256   65.5432 H   0  0  0  0  0  0  0  0  0  0  0  0
    3.6732   69.7739   67.5765 H   0  0  0  0  0  0  0  0  0  0  0  0
    7.1750   70.6607   67.2051 H   0  0  0  0  0  0  0  0  0  0  0  0
    7.2109   69.8871   65.5979 H   0  0  0  0  0  0  0  0  0  0  0  0
    5.7870   73.0941   68.9014 H   0  0  0  0  0  0  0  0  0  0  0  0
    6.3924   72.2422   67.5835 H   0  0  0  0  0  0  0  0  0  0  0  0
  3  2  1  0
  4  3  2  3
  5  4  1  0
  6  5  1  0
  7  6  1  0
  8  7  2  0
  8  1  1  0
  9  8  1  0
  9  5  2  0
 10  3  1  0
 11  1  1  0
 12 11  1  0
 13 12  1  0
 14 13  1  0
 15 14  2  0
 16 14  1  0
 17 15  1  0
 18 17  2  0
 19 17  2  0
 20 17  1  0
  1 21  1  0
  1 22  1  0
  2 23  1  0
  2 24  1  0
  4 25  1  0
  7 26  1  0
 10 27  1  0
 10 28  1  0
 12 29  1  0
 12 30  1  0
 13 31  1  0
 13 32  1  0
 15 33  1  0
 16 34  1  0
 16 35  1  0
 20 36  1  0
 20 37  1  0
M  CHG  2   4   1  15   1
M  END
>  <score>  (1) 
-8.327

$$$$
=
     RDKit          3D

 37 37  0  0  0  0  0  0  0  0999 V2000
    0.4010   67.9360   65.3900 C   0  0  0  0  0  0  0  0  0  0  0  0
    5.4110   70.6560   68.6370 N   0  0  0  0  0  0  0  0  0  0  0  0
    5.6710   70.2590   67.3880 C   0  0  0  0  0  0  0  0  0  0  0  0
    4.7710   69.7000   66.5620 N   0  0  0  0  0  4  0  0  0  0  0  0
    3.4320   69.4020   66.7540 C   0  0  0  0  0  0  0  0  0  0  0  0
    2.5930   69.7540   68.2100 S   0  0  0  0  0  0  0  0  0  0  0  0
    1.1610   69.0690   67.5740 C   0  0  0  0  0  0  0  0  0  0  0  0
    1.3870   68.6200   66.2870 C   0  0  0  0  0  0  0  0  0  0  0  0
    2.6870   68.8240   65.8370 N   0  0  0  0  0  0  0  0  0  0  0  0
    6.9270   70.4370   66.9420 N   0  0  0  0  0  0  0  0  0  0  0  0
   -0.2560   69.0960   64.1350 S   0  0  0  0  0  0  0  0  0  0  0  0
    0.4140   68.2910   62.6350 C   0  0  0  0  0  0  0  0  0  0  0  0
    1.3290   69.2320   61.8460 C   0  0  0  0  0  0  0  0  0  0  0  0
    2.7260   68.7200   61.6980 C   0  0  0  0  0  0  0  0  0  0  0  0
    3.3520   68.3500   62.7980 N   0  0  0  0  0  4  0  0  0  0  0  0
    3.2280   68.7050   60.4760 N   0  0  0  0  0  0  0  0  0  0  0  0
    4.8710   67.8510   62.8670 S   0  0  0  0  0  6  0  0  0  0  0  0
    5.0420   66.6820   62.0470 O   0  0  0  0  0  0  0  0  0  0  0  0
    5.3620   67.9110   64.2240 O   0  0  0  0  0  0  0  0  0  0  0  0
    5.6570   69.0720   62.0530 N   0  0  0  0  0  0  0  0  0  0  0  0
    0.8990   67.0982   64.8801 H   0  0  0  0  0  0  0  0  0  0  0  0
   -0.4362   67.5703   66.0026 H   0  0  0  0  0  0  0  0  0  0  0  0
    6.1567   71.0771   69.2093 H   0  0  0  0  0  0  0  0  0  0  0  0
    4.4649   70.5410   69.0275 H   0  0  0  0  0  0  0  0  0  0  0  0
    5.1373   69.4519   65.6319 H   0  0  0  0  0  0  0  0  0  0  0  0
    0.2029   68.9966   68.1096 H   0  0  0  0  0  0  0  0  0  0  0  0
    7.1799   70.1481   65.9863 H   0  0  0  0  0  0  0  0  0  0  0  0
    7.6362   70.8623   67.5561 H   0  0  0  0  0  0  0  0  0  0  0  0
    0.9896   67.4027   62.9344 H   0  0  0  0  0  0  0  0  0  0  0  0
   -0.4317   68.0142   61.9884 H   0  0  0  0  0  0  0  0  0  0  0  0
    0.9016   69.3727   60.8423 H   0  0  0  0  0  0  0  0  0  0  0  0
    1.3878   70.1745   62.4102 H   0  0  0  0  0  0  0  0  0  0  0  0
    2.8226   68.3848   63.6808 H   0  0  0  0  0  0  0  0  0  0  0  0
    4.1862   68.3621   60.3170 H   0  0  0  0  0  0  0  0  0  0  0  0
    2.6612   69.0362   59.6823 H   0  0  0  0  0  0  0  0  0  0  0  0
    6.0761   69.7231   62.7322 H   0  0  0  0  0  0  0  0  0  0  0  0
    6.3977   68.6690   61.4616 H   0  0  0  0  0  0  0  0  0  0  0  0
  3  2  1  0
  4  3  2  3
  5  4  1  0
  6  5  1  0
  7  6  1  0
  8  7  2  0
  8  1  1  0
  9  8  1  0
  9  5  2  0
 10  3  1  0
 11  1  1  0
 12 11  1  0
 13 12  1  0
 14 13  1  0
 15 14  2  0
 16 14  1  0
 17 15  1  0
 18 17  2  0
 19 17  2  0
 20 17  1  0
  1 21  1  0
  1 22  1  0
  2 23  1  0
  2 24  1  0
  4 25  1  0
  7 26  1  0
 10 27  1  0
 10 28  1  0
 12 29  1  0
 12 30  1  0
 13 31  1  0
 13 32  1  0
 15 33  1  0
 16 34  1  0
 16 35  1  0
 20 36  1  0
 20 37  1  0
M  CHG  2   4   1  15   1
M  END
>  <score>  (2) 
-8.024

$$$$
=
     RDKit          3D

 37 37  0  0  0  0  0  0  0  0999 V2000
    4.6320   67.9740   62.9470 C   0  0  0  0  0  0  0  0  0  0  0  0
    4.5170   70.9520   68.7920 N   0  0  0  0  0  0  0  0  0  0  0  0
    3.4300   70.2410   68.4760 C   0  0  0  0  0  0  0  0  0  0  0  0
    3.2760   69.5480   67.3370 N   0  0  0  0  0  4  0  0  0  0  0  0
    4.1280   69.3850   66.2570 C   0  0  0  0  0  0  0  0  0  0  0  0
    5.6950   70.0830   66.1860 S   0  0  0  0  0  0  0  0  0  0  0  0
    5.9420   69.4190   64.6300 C   0  0  0  0  0  0  0  0  0  0  0  0
    4.8310   68.6930   64.2470 C   0  0  0  0  0  0  0  0  0  0  0  0
    3.8100   68.6830   65.1910 N   0  0  0  0  0  0  0  0  0  0  0  0
    2.4280   70.2320   69.3730 N   0  0  0  0  0  0  0  0  0  0  0  0
    3.3110   68.7660   61.9570 S   0  0  0  0  0  0  0  0  0  0  0  0
    1.8640   67.9500   62.7220 C   0  0  0  0  0  0  0  0  0  0  0  0
    0.7660   68.9560   63.0760 C   0  0  0  0  0  0  0  0  0  0  0  0
    0.0970   68.6720   64.3830 C   0  0  0  0  0  0  0  0  0  0  0  0
    0.8220   68.0890   65.3170 N   0  0  0  0  0  4  0  0  0  0  0  0
   -1.1780   69.0060   64.4850 N   0  0  0  0  0  0  0  0  0  0  0  0
    0.2770   67.6300   66.7510 S   0  0  0  0  0  6  0  0  0  0  0  0
    1.3380   67.0240   67.5090 O   0  0  0  0  0  0  0  0  0  0  0  0
   -1.0220   67.0120   66.6230 O   0  0  0  0  0  0  0  0  0  0  0  0
    0.0030   69.0990   67.4850 N   0  0  0  0  0  0  0  0  0  0  0  0
    5.5719   67.9957   62.3760 H   0  0  0  0  0  0  0  0  0  0  0  0
    4.3361   66.9364   63.1613 H   0  0  0  0  0  0  0  0  0  0  0  0
    4.5589   71.4579   69.6882 H   0  0  0  0  0  0  0  0  0  0  0  0
    5.3127   70.9939   68.1393 H   0  0  0  0  0  0  0  0  0  0  0  0
    2.3752   69.0559   67.2518 H   0  0  0  0  0  0  0  0  0  0  0  0
    6.8506   69.5504   64.0240 H   0  0  0  0  0  0  0  0  0  0  0  0
    1.5678   69.6998   69.1789 H   0  0  0  0  0  0  0  0  0  0  0  0
    2.5208   70.7573   70.2541 H   0  0  0  0  0  0  0  0  0  0  0  0
    1.4565   67.2120   62.0154 H   0  0  0  0  0  0  0  0  0  0  0  0
    2.1965   67.4652   63.6517 H   0  0  0  0  0  0  0  0  0  0  0  0
    1.2151   69.9589   63.1252 H   0  0  0  0  0  0  0  0  0  0  0  0
   -0.0049   68.8826   62.2947 H   0  0  0  0  0  0  0  0  0  0  0  0
    1.8156   67.9154   65.1083 H   0  0  0  0  0  0  0  0  0  0  0  0
   -1.6872   68.8325   65.3634 H   0  0  0  0  0  0  0  0  0  0  0  0
   -1.6623   69.4398   63.6861 H   0  0  0  0  0  0  0  0  0  0  0  0
    0.0250   68.9811   68.5080 H   0  0  0  0  0  0  0  0  0  0  0  0
    0.7340   69.7666   67.2006 H   0  0  0  0  0  0  0  0  0  0  0  0
  3  2  1  0
  4  3  2  3
  5  4  1  0
  6  5  1  0
  7  6  1  0
  8  7  2  0
  8  1  1  0
  9  8  1  0
  9  5  2  0
 10  3  1  0
 11  1  1  0
 12 11  1  0
 13 12  1  0
 14 13  1  0
 15 14  2  0
 16 14  1  0
 17 15  1  0
 18 17  2  0
 19 17  2  0
 20 17  1  0
  1 21  1  0
  1 22  1  0
  2 23  1  0
  2 24  1  0
  4 25  1  0
  7 26  1  0
 10 27  1  0
 10 28  1  0
 12 29  1  0
 12 30  1  0
 13 31  1  0
 13 32  1  0
 15 33  1  0
 16 34  1  0
 16 35  1  0
 20 36  1  0
 20 37  1  0
M  CHG  2   4   1  15   1
M  END
>  <score>  (3) 
-7.795

$$$$
=
     RDKit          3D

 37 37  0  0  0  0  0  0  0  0999 V2000
    3.0510   67.6680   63.4020 C   0  0  0  0  0  0  0  0  0  0  0  0
   -2.3050   68.4300   67.1120 N   0  0  0  0  0  0  0  0  0  0  0  0
   -2.4200   68.8070   65.8350 C   0  0  0  0  0  0  0  0  0  0  0  0
   -1.4420   68.7100   64.9200 N   0  0  0  0  0  4  0  0  0  0  0  0
   -0.1470   68.2310   65.0290 C   0  0  0  0  0  0  0  0  0  0  0  0
    0.4930   67.5880   66.4870 S   0  0  0  0  0  0  0  0  0  0  0  0
    2.0010   67.3160   65.7270 C   0  0  0  0  0  0  0  0  0  0  0  0
    1.9400   67.7140   64.4060 C   0  0  0  0  0  0  0  0  0  0  0  0
    0.7040   68.2290   64.0270 N   0  0  0  0  0  0  0  0  0  0  0  0
   -3.6050   69.3180   65.4560 N   0  0  0  0  0  0  0  0  0  0  0  0
    4.6840   67.7000   64.2310 S   0  0  0  0  0  0  0  0  0  0  0  0
    4.6460   69.4200   64.8510 C   0  0  0  0  0  0  0  0  0  0  0  0
    5.6640   69.6420   65.9730 C   0  0  0  0  0  0  0  0  0  0  0  0
    5.0600   70.1950   67.2250 C   0  0  0  0  0  0  0  0  0  0  0  0
    3.8880   69.7150   67.5910 N   0  0  0  0  0  4  0  0  0  0  0  0
    5.7420   71.1400   67.8470 N   0  0  0  0  0  0  0  0  0  0  0  0
    3.0390   70.2250   68.8490 S   0  0  0  0  0  6  0  0  0  0  0  0
    1.9050   70.9870   68.4000 O   0  0  0  0  0  0  0  0  0  0  0  0
    3.9180   70.7030   69.8910 O   0  0  0  0  0  0  0  0  0  0  0  0
    2.4050   68.7950   69.4200 N   0  0  0  0  0  0  0  0  0  0  0  0
    2.9649   66.7437   62.8119 H   0  0  0  0  0  0  0  0  0  0  0  0
    2.9712   68.5498   62.7493 H   0  0  0  0  0  0  0  0  0  0  0  0
   -3.1031   68.5367   67.7543 H   0  0  0  0  0  0  0  0  0  0  0  0
   -1.4183   68.0327   67.4538 H   0  0  0  0  0  0  0  0  0  0  0  0
   -1.6973   69.0480   63.9811 H   0  0  0  0  0  0  0  0  0  0  0  0
    2.8876   66.8877   66.2175 H   0  0  0  0  0  0  0  0  0  0  0  0
   -3.7463   69.6239   64.4827 H   0  0  0  0  0  0  0  0  0  0  0  0
   -4.3712   69.4034   66.1391 H   0  0  0  0  0  0  0  0  0  0  0  0
    4.8768   70.1032   64.0204 H   0  0  0  0  0  0  0  0  0  0  0  0
    3.6422   69.6156   65.2561 H   0  0  0  0  0  0  0  0  0  0  0  0
    6.1363   68.6774   66.2107 H   0  0  0  0  0  0  0  0  0  0  0  0
    6.3906   70.3834   65.6091 H   0  0  0  0  0  0  0  0  0  0  0  0
    3.4879   68.9536   67.0243 H   0  0  0  0  0  0  0  0  0  0  0  0
    5.3725   71.5561   68.7138 H   0  0  0  0  0  0  0  0  0  0  0  0
    6.6432   71.4608   67.4652 H   0  0  0  0  0  0  0  0  0  0  0  0
    2.4092   68.8046   70.4499 H   0  0  0  0  0  0  0  0  0  0  0  0
    1.4380   68.6888   69.0816 H   0  0  0  0  0  0  0  0  0  0  0  0
  3  2  1  0
  4  3  2  3
  5  4  1  0
  6  5  1  0
  7  6  1  0
  8  7  2  0
  8  1  1  0
  9  8  1  0
  9  5  2  0
 10  3  1  0
 11  1  1  0
 12 11  1  0
 13 12  1  0
 14 13  1  0
 15 14  2  0
 16 14  1  0
 17 15  1  0
 18 17  2  0
 19 17  2  0
 20 17  1  0
  1 21  1  0
  1 22  1  0
  2 23  1  0
  2 24  1  0
  4 25  1  0
  7 26  1  0
 10 27  1  0
 10 28  1  0
 12 29  1  0
 12 30  1  0
 13 31  1  0
 13 32  1  0
 15 33  1  0
 16 34  1  0
 16 35  1  0
 20 36  1  0
 20 37  1  0
M  CHG  2   4   1  15   1
M  END
>  <score>  (4) 
-7.671

$$$$
=
     RDKit          3D

 37 37  0  0  0  0  0  0  0  0999 V2000
    4.0270   66.9930   63.0760 C   0  0  0  0  0  0  0  0  0  0  0  0
   -1.3970   68.3040   66.5260 N   0  0  0  0  0  0  0  0  0  0  0  0
   -0.6390   67.3040   66.9850 C   0  0  0  0  0  0  0  0  0  0  0  0
    0.5140   66.9020   66.4280 N   0  0  0  0  0  4  0  0  0  0  0  0
    1.1910   67.3710   65.3130 C   0  0  0  0  0  0  0  0  0  0  0  0
    0.6370   68.6950   64.3710 S   0  0  0  0  0  0  0  0  0  0  0  0
    1.9720   68.5260   63.3160 C   0  0  0  0  0  0  0  0  0  0  0  0
    2.7750   67.4840   63.7360 C   0  0  0  0  0  0  0  0  0  0  0  0
    2.3140   66.8420   64.8800 N   0  0  0  0  0  0  0  0  0  0  0  0
   -1.0780   66.6640   68.0840 N   0  0  0  0  0  0  0  0  0  0  0  0
    5.3220   68.2880   63.0820 S   0  0  0  0  0  0  0  0  0  0  0  0
    5.5080   68.4860   64.8910 C   0  0  0  0  0  0  0  0  0  0  0  0
    4.9440   69.8240   65.3770 C   0  0  0  0  0  0  0  0  0  0  0  0
    4.4530   69.7870   66.7890 C   0  0  0  0  0  0  0  0  0  0  0  0
    3.1700   69.5440   66.9750 N   0  0  0  0  0  4  0  0  0  0  0  0
    5.3440   70.0280   67.7350 N   0  0  0  0  0  0  0  0  0  0  0  0
    2.4330   69.5400   68.3960 S   0  0  0  0  0  6  0  0  0  0  0  0
    3.1130   70.4220   69.3050 O   0  0  0  0  0  0  0  0  0  0  0  0
    2.0630   68.1940   68.7680 O   0  0  0  0  0  0  0  0  0  0  0  0
    1.0040   70.3110   68.0280 N   0  0  0  0  0  0  0  0  0  0  0  0
    4.3977   66.1108   63.6186 H   0  0  0  0  0  0  0  0  0  0  0  0
    3.7950   66.7337   62.0325 H   0  0  0  0  0  0  0  0  0  0  0  0
   -2.2709   68.5524   67.0113 H   0  0  0  0  0  0  0  0  0  0  0  0
   -1.1074   68.8265   65.6869 H   0  0  0  0  0  0  0  0  0  0  0  0
    0.9717   66.1144   66.9087 H   0  0  0  0  0  0  0  0  0  0  0  0
    2.1629   69.1542   62.4335 H   0  0  0  0  0  0  0  0  0  0  0  0
   -0.5316   65.8855   68.4794 H   0  0  0  0  0  0  0  0  0  0  0  0
   -1.9605   66.9525   68.5300 H   0  0  0  0  0  0  0  0  0  0  0  0
    4.9716   67.6690   65.3957 H   0  0  0  0  0  0  0  0  0  0  0  0
    6.5815   68.4604   65.1294 H   0  0  0  0  0  0  0  0  0  0  0  0
    5.7367   70.5831   65.3038 H   0  0  0  0  0  0  0  0  0  0  0  0
    4.0792   70.0610   64.7399 H   0  0  0  0  0  0  0  0  0  0  0  0
    2.5987   69.3413   66.1423 H   0  0  0  0  0  0  0  0  0  0  0  0
    5.0602   70.0152   68.7251 H   0  0  0  0  0  0  0  0  0  0  0  0
    6.3221   70.2286   67.4822 H   0  0  0  0  0  0  0  0  0  0  0  0
    0.5204   70.5719   68.8992 H   0  0  0  0  0  0  0  0  0  0  0  0
    1.2031   71.1592   67.4786 H   0  0  0  0  0  0  0  0  0  0  0  0
  3  2  1  0
  4  3  2  3
  5  4  1  0
  6  5  1  0
  7  6  1  0
  8  7  2  0
  8  1  1  0
  9  8  1  0
  9  5  2  0
 10  3  1  0
 11  1  1  0
 12 11  1  0
 13 12  1  0
 14 13  1  0
 15 14  2  0
 16 14  1  0
 17 15  1  0
 18 17  2  0
 19 17  2  0
 20 17  1  0
  1 21  1  0
  1 22  1  0
  2 23  1  0
  2 24  1  0
  4 25  1  0
  7 26  1  0
 10 27  1  0
 10 28  1  0
 12 29  1  0
 12 30  1  0
 13 31  1  0
 13 32  1  0
 15 33  1  0
 16 34  1  0
 16 35  1  0
 20 36  1  0
 20 37  1  0
M  CHG  2   4   1  15   1
M  END
>  <score>  (5) 
-7.634

$$$$
=
     RDKit          3D

 37 37  0  0  0  0  0  0  0  0999 V2000
   -0.0960   68.0070   66.6270 C   0  0  0  0  0  0  0  0  0  0  0  0
    4.5640   65.9420   62.4970 N   0  0  0  0  0  0  0  0  0  0  0  0
    4.2670   65.1150   63.5040 C   0  0  0  0  0  0  0  0  0  0  0  0
    3.3300   65.3530   64.4360 N   0  0  0  0  0  4  0  0  0  0  0  0
    2.4780   66.4320   64.6040 C   0  0  0  0  0  0  0  0  0  0  0  0
    2.4420   67.7730   63.5330 S   0  0  0  0  0  0  0  0  0  0  0  0
    1.2270   68.5200   64.4770 C   0  0  0  0  0  0  0  0  0  0  0  0
    0.9020   67.7110   65.5490 C   0  0  0  0  0  0  0  0  0  0  0  0
    1.6230   66.5230   65.6000 N   0  0  0  0  0  0  0  0  0  0  0  0
    4.9650   63.9670   63.5740 N   0  0  0  0  0  0  0  0  0  0  0  0
    0.5750   67.5780   68.2760 S   0  0  0  0  0  0  0  0  0  0  0  0
    1.4700   69.1340   68.6240 C   0  0  0  0  0  0  0  0  0  0  0  0
    2.6610   69.3280   67.6820 C   0  0  0  0  0  0  0  0  0  0  0  0
    3.7290   70.2120   68.2430 C   0  0  0  0  0  0  0  0  0  0  0  0
    4.8930   70.2180   67.6250 N   0  0  0  0  0  4  0  0  0  0  0  0
    3.4240   70.8950   69.3330 N   0  0  0  0  0  0  0  0  0  0  0  0
    6.1860   71.0290   68.1080 S   0  0  0  0  0  6  0  0  0  0  0  0
    5.8990   72.4380   68.1360 O   0  0  0  0  0  0  0  0  0  0  0  0
    7.3750   70.5030   67.4810 O   0  0  0  0  0  0  0  0  0  0  0  0
    6.2830   70.5730   69.7060 N   0  0  0  0  0  0  0  0  0  0  0  0
   -0.3413   69.0791   66.6060 H   0  0  0  0  0  0  0  0  0  0  0  0
   -0.9972   67.4026   66.4466 H   0  0  0  0  0  0  0  0  0  0  0  0
    5.2980   65.6873   61.8208 H   0  0  0  0  0  0  0  0  0  0  0  0
    4.0589   66.8341   62.3971 H   0  0  0  0  0  0  0  0  0  0  0  0
    3.2281   64.6106   65.1426 H   0  0  0  0  0  0  0  0  0  0  0  0
    0.7722   69.4984   64.2627 H   0  0  0  0  0  0  0  0  0  0  0  0
    4.7755   63.2944   64.3307 H   0  0  0  0  0  0  0  0  0  0  0  0
    5.6889   63.7607   62.8709 H   0  0  0  0  0  0  0  0  0  0  0  0
    0.7766   69.9789   68.4999 H   0  0  0  0  0  0  0  0  0  0  0  0
    1.8533   69.0848   69.6539 H   0  0  0  0  0  0  0  0  0  0  0  0
    3.1010   68.3424   67.4698 H   0  0  0  0  0  0  0  0  0  0  0  0
    2.2788   69.8189   66.7749 H   0  0  0  0  0  0  0  0  0  0  0  0
    4.9773   69.6577   66.7649 H   0  0  0  0  0  0  0  0  0  0  0  0
    4.1221   71.5193   69.7618 H   0  0  0  0  0  0  0  0  0  0  0  0
    2.4883   70.8029   69.7535 H   0  0  0  0  0  0  0  0  0  0  0  0
    6.1090   71.3908   70.3076 H   0  0  0  0  0  0  0  0  0  0  0  0
    5.5774   69.8481   69.8996 H   0  0  0  0  0  0  0  0  0  0  0  0
  3  2  1  0
  4  3  2  3
  5  4  1  0
  6  5  1  0
  7  6  1  0
  8  7  2  0
  8  1  1  0
  9  8  1  0
  9  5  2  0
 10  3  1  0
 11  1  1  0
 12 11  1  0
 13 12  1  0
 14 13  1  0
 15 14  2  0
 16 14  1  0
 17 15  1  0
 18 17  2  0
 19 17  2  0
 20 17  1  0
  1 21  1  0
  1 22  1  0
  2 23  1  0
  2 24  1  0
  4 25  1  0
  7 26  1  0
 10 27  1  0
 10 28  1  0
 12 29  1  0
 12 30  1  0
 13 31  1  0
 13 32  1  0
 15 33  1  0
 16 34  1  0
 16 35  1  0
 20 36  1  0
 20 37  1  0
M  CHG  2   4   1  15   1
M  END
>  <score>  (6) 
-7.271

$$$$
=
     RDKit          3D

 37 37  0  0  0  0  0  0  0  0999 V2000
    0.4680   65.7650   70.5610 C   0  0  0  0  0  0  0  0  0  0  0  0
   -1.7250   69.1130   65.3630 N   0  0  0  0  0  0  0  0  0  0  0  0
   -2.6610   68.5430   66.1290 C   0  0  0  0  0  0  0  0  0  0  0  0
   -2.4090   67.8360   67.2420 N   0  0  0  0  0  4  0  0  0  0  0  0
   -1.2100   67.5240   67.8620 C   0  0  0  0  0  0  0  0  0  0  0  0
    0.3130   68.0600   67.2790 S   0  0  0  0  0  0  0  0  0  0  0  0
    1.1100   67.2380   68.5490 C   0  0  0  0  0  0  0  0  0  0  0  0
    0.1830   66.6090   69.3570 C   0  0  0  0  0  0  0  0  0  0  0  0
   -1.1350   66.7890   68.9500 N   0  0  0  0  0  0  0  0  0  0  0  0
   -3.9390   68.6960   65.7410 N   0  0  0  0  0  0  0  0  0  0  0  0
    1.9320   64.7010   70.2840 S   0  0  0  0  0  0  0  0  0  0  0  0
    1.2480   63.1210   70.9000 C   0  0  0  0  0  0  0  0  0  0  0  0
    1.4620   62.9570   72.4070 C   0  0  0  0  0  0  0  0  0  0  0  0
    2.6170   62.0720   72.7520 C   0  0  0  0  0  0  0  0  0  0  0  0
    3.2870   61.5370   71.7510 N   0  0  0  0  0  4  0  0  0  0  0  0
    2.8550   61.8790   74.0380 N   0  0  0  0  0  0  0  0  0  0  0  0
    4.5000   60.5040   71.9050 S   0  0  0  0  0  6  0  0  0  0  0  0
    5.0450   60.1900   70.6120 O   0  0  0  0  0  0  0  0  0  0  0  0
    4.1710   59.4780   72.8650 O   0  0  0  0  0  0  0  0  0  0  0  0
    5.6510   61.4550   72.6430 N   0  0  0  0  0  0  0  0  0  0  0  0
    0.6579   66.4209   71.4234 H   0  0  0  0  0  0  0  0  0  0  0  0
   -0.4028   65.1206   70.7516 H   0  0  0  0  0  0  0  0  0  0  0  0
   -1.9990   69.6409   64.5221 H   0  0  0  0  0  0  0  0  0  0  0  0
   -0.7300   69.0242   65.6138 H   0  0  0  0  0  0  0  0  0  0  0  0
   -3.2459   67.4638   67.7132 H   0  0  0  0  0  0  0  0  0  0  0  0
    2.1993   67.2137   68.7001 H   0  0  0  0  0  0  0  0  0  0  0  0
   -4.6992   68.2770   66.2954 H   0  0  0  0  0  0  0  0  0  0  0  0
   -4.1580   69.2322   64.8893 H   0  0  0  0  0  0  0  0  0  0  0  0
    0.1688   63.0939   70.6887 H   0  0  0  0  0  0  0  0  0  0  0  0
    1.7720   62.2997   70.3892 H   0  0  0  0  0  0  0  0  0  0  0  0
    1.6420   63.9506   72.8434 H   0  0  0  0  0  0  0  0  0  0  0  0
    0.5570   62.4812   72.8127 H   0  0  0  0  0  0  0  0  0  0  0  0
    3.0086   61.8042   70.7960 H   0  0  0  0  0  0  0  0  0  0  0  0
    3.6382   61.2783   74.3323 H   0  0  0  0  0  0  0  0  0  0  0  0
    2.2572   62.3293   74.7456 H   0  0  0  0  0  0  0  0  0  0  0  0
    5.5565   61.3770   73.6657 H   0  0  0  0  0  0  0  0  0  0  0  0
    6.5898   61.1398   72.3599 H   0  0  0  0  0  0  0  0  0  0  0  0
  3  2  1  0
  4  3  2  3
  5  4  1  0
  6  5  1  0
  7  6  1  0
  8  7  2  0
  8  1  1  0
  9  8  1  0
  9  5  2  0
 10  3  1  0
 11  1  1  0
 12 11  1  0
 13 12  1  0
 14 13  1  0
 15 14  2  0
 16 14  1  0
 17 15  1  0
 18 17  2  0
 19 17  2  0
 20 17  1  0
  1 21  1  0
  1 22  1  0
  2 23  1  0
  2 24  1  0
  4 25  1  0
  7 26  1  0
 10 27  1  0
 10 28  1  0
 12 29  1  0
 12 30  1  0
 13 31  1  0
 13 32  1  0
 15 33  1  0
 16 34  1  0
 16 35  1  0
 20 36  1  0
 20 37  1  0
M  CHG  2   4   1  15   1
M  END
>  <score>  (7) 
-7.235

$$$$
=
     RDKit          3D

 37 37  0  0  0  0  0  0  0  0999 V2000
    0.0430   67.8240   66.3760 C   0  0  0  0  0  0  0  0  0  0  0  0
    4.4080   67.4430   61.4930 N   0  0  0  0  0  0  0  0  0  0  0  0
    3.4630   68.3790   61.3610 C   0  0  0  0  0  0  0  0  0  0  0  0
    2.4980   68.6200   62.2620 N   0  0  0  0  0  4  0  0  0  0  0  0
    2.2300   68.0210   63.4820 C   0  0  0  0  0  0  0  0  0  0  0  0
    3.1930   66.7600   64.1370 S   0  0  0  0  0  0  0  0  0  0  0  0
    2.1710   66.6630   65.5050 C   0  0  0  0  0  0  0  0  0  0  0  0
    1.1590   67.5980   65.4020 C   0  0  0  0  0  0  0  0  0  0  0  0
    1.2140   68.3660   64.2430 N   0  0  0  0  0  0  0  0  0  0  0  0
    3.4950   69.1200   60.2400 N   0  0  0  0  0  0  0  0  0  0  0  0
    0.6200   67.5920   68.0990 S   0  0  0  0  0  0  0  0  0  0  0  0
    1.4080   69.2230   68.3490 C   0  0  0  0  0  0  0  0  0  0  0  0
    2.6800   69.3750   67.5120 C   0  0  0  0  0  0  0  0  0  0  0  0
    3.7160   70.2420   68.1540 C   0  0  0  0  0  0  0  0  0  0  0  0
    4.9230   70.2320   67.6220 N   0  0  0  0  0  4  0  0  0  0  0  0
    3.3420   70.9270   69.2200 N   0  0  0  0  0  0  0  0  0  0  0  0
    6.1880   71.0240   68.2020 S   0  0  0  0  0  6  0  0  0  0  0  0
    5.9260   72.4380   68.2010 O   0  0  0  0  0  0  0  0  0  0  0  0
    7.4140   70.4740   67.6720 O   0  0  0  0  0  0  0  0  0  0  0  0
    6.1520   70.5750   69.8050 N   0  0  0  0  0  0  0  0  0  0  0  0
   -0.3352   68.8502   66.2582 H   0  0  0  0  0  0  0  0  0  0  0  0
   -0.7542   67.0942   66.1717 H   0  0  0  0  0  0  0  0  0  0  0  0
    5.1163   67.3187   60.7556 H   0  0  0  0  0  0  0  0  0  0  0  0
    4.4280   66.8461   62.3321 H   0  0  0  0  0  0  0  0  0  0  0  0
    1.8484   69.3763   62.0033 H   0  0  0  0  0  0  0  0  0  0  0  0
    2.3001   65.9610   66.3419 H   0  0  0  0  0  0  0  0  0  0  0  0
    2.7897   69.8551   60.0883 H   0  0  0  0  0  0  0  0  0  0  0  0
    4.2248   68.9527   59.5327 H   0  0  0  0  0  0  0  0  0  0  0  0
    0.6959   70.0102   68.0605 H   0  0  0  0  0  0  0  0  0  0  0  0
    1.6851   69.3093   69.4100 H   0  0  0  0  0  0  0  0  0  0  0  0
    3.1125   68.3765   67.3512 H   0  0  0  0  0  0  0  0  0  0  0  0
    2.3906   69.8609   66.5685 H   0  0  0  0  0  0  0  0  0  0  0  0
    5.0623   69.6722   66.7687 H   0  0  0  0  0  0  0  0  0  0  0  0
    4.0159   71.5397   69.7010 H   0  0  0  0  0  0  0  0  0  0  0  0
    2.3765   70.8483   69.5701 H   0  0  0  0  0  0  0  0  0  0  0  0
    6.2193   71.4143   70.3982 H   0  0  0  0  0  0  0  0  0  0  0  0
    5.2689   70.0837   70.0042 H   0  0  0  0  0  0  0  0  0  0  0  0
  3  2  1  0
  4  3  2  3
  5  4  1  0
  6  5  1  0
  7  6  1  0
  8  7  2  0
  8  1  1  0
  9  8  1  0
  9  5  2  0
 10  3  1  0
 11  1  1  0
 12 11  1  0
 13 12  1  0
 14 13  1  0
 15 14  2  0
 16 14  1  0
 17 15  1  0
 18 17  2  0
 19 17  2  0
 20 17  1  0
  1 21  1  0
  1 22  1  0
  2 23  1  0
  2 24  1  0
  4 25  1  0
  7 26  1  0
 10 27  1  0
 10 28  1  0
 12 29  1  0
 12 30  1  0
 13 31  1  0
 13 32  1  0
 15 33  1  0
 16 34  1  0
 16 35  1  0
 20 36  1  0
 20 37  1  0
M  CHG  2   4   1  15   1
M  END
>  <score>  (8) 
-7.224

$$$$
=
     RDKit          3D

 37 37  0  0  0  0  0  0  0  0999 V2000
    2.4320   63.7540   70.5700 C   0  0  0  0  0  0  0  0  0  0  0  0
    3.5010   57.2900   70.9010 N   0  0  0  0  0  0  0  0  0  0  0  0
    2.7660   57.8120   71.8880 C   0  0  0  0  0  0  0  0  0  0  0  0
    2.4260   59.1070   71.9820 N   0  0  0  0  0  4  0  0  0  0  0  0
    2.7140   60.1800   71.1530 C   0  0  0  0  0  0  0  0  0  0  0  0
    3.6200   60.0250   69.7030 S   0  0  0  0  0  0  0  0  0  0  0  0
    3.4880   61.7060   69.4190 C   0  0  0  0  0  0  0  0  0  0  0  0
    2.7550   62.2980   70.4300 C   0  0  0  0  0  0  0  0  0  0  0  0
    2.3190   61.4080   71.4060 N   0  0  0  0  0  0  0  0  0  0  0  0
    2.3480   56.9670   72.8460 N   0  0  0  0  0  0  0  0  0  0  0  0
    0.8910   63.9930   71.5300 S   0  0  0  0  0  0  0  0  0  0  0  0
    0.2700   65.4940   70.6890 C   0  0  0  0  0  0  0  0  0  0  0  0
    1.4080   66.3100   70.0700 C   0  0  0  0  0  0  0  0  0  0  0  0
    0.9590   67.2230   68.9730 C   0  0  0  0  0  0  0  0  0  0  0  0
   -0.0630   66.8270   68.2410 N   0  0  0  0  0  4  0  0  0  0  0  0
    1.6440   68.3410   68.8120 N   0  0  0  0  0  0  0  0  0  0  0  0
   -0.6460   67.6150   66.9760 S   0  0  0  0  0  6  0  0  0  0  0  0
   -0.0050   67.1570   65.7730 O   0  0  0  0  0  0  0  0  0  0  0  0
   -0.7900   69.0200   67.2780 O   0  0  0  0  0  0  0  0  0  0  0  0
   -2.1970   67.0140   66.8990 N   0  0  0  0  0  0  0  0  0  0  0  0
    3.2609   64.2584   71.0882 H   0  0  0  0  0  0  0  0  0  0  0  0
    2.2899   64.1803   69.5660 H   0  0  0  0  0  0  0  0  0  0  0  0
    3.7204   56.2836   70.8991 H   0  0  0  0  0  0  0  0  0  0  0  0
    3.8480   57.8941   70.1424 H   0  0  0  0  0  0  0  0  0  0  0  0
    1.8565   59.3427   72.8072 H   0  0  0  0  0  0  0  0  0  0  0  0
    3.9221   62.2373   68.5592 H   0  0  0  0  0  0  0  0  0  0  0  0
    1.7786   57.3177   73.6294 H   0  0  0  0  0  0  0  0  0  0  0  0
    2.5971   55.9688   72.7968 H   0  0  0  0  0  0  0  0  0  0  0  0
   -0.4269   65.1936   69.8927 H   0  0  0  0  0  0  0  0  0  0  0  0
   -0.2335   66.1225   71.4383 H   0  0  0  0  0  0  0  0  0  0  0  0
    1.8711   66.9178   70.8613 H   0  0  0  0  0  0  0  0  0  0  0  0
    2.1155   65.5941   69.6262 H   0  0  0  0  0  0  0  0  0  0  0  0
   -0.5215   65.9427   68.5032 H   0  0  0  0  0  0  0  0  0  0  0  0
    1.3781   69.0058   68.0716 H   0  0  0  0  0  0  0  0  0  0  0  0
    2.4440   68.5479   69.4269 H   0  0  0  0  0  0  0  0  0  0  0  0
   -2.5587   66.8739   67.8532 H   0  0  0  0  0  0  0  0  0  0  0  0
   -2.7997   67.6824   66.3981 H   0  0  0  0  0  0  0  0  0  0  0  0
  3  2  1  0
  4  3  2  3
  5  4  1  0
  6  5  1  0
  7  6  1  0
  8  7  2  0
  8  1  1  0
  9  8  1  0
  9  5  2  0
 10  3  1  0
 11  1  1  0
 12 11  1  0
 13 12  1  0
 14 13  1  0
 15 14  2  0
 16 14  1  0
 17 15  1  0
 18 17  2  0
 19 17  2  0
 20 17  1  0
  1 21  1  0
  1 22  1  0
  2 23  1  0
  2 24  1  0
  4 25  1  0
  7 26  1  0
 10 27  1  0
 10 28  1  0
 12 29  1  0
 12 30  1  0
 13 31  1  0
 13 32  1  0
 15 33  1  0
 16 34  1  0
 16 35  1  0
 20 36  1  0
 20 37  1  0
M  CHG  2   4   1  15   1
M  END
>  <score>  (9) 
-7.171

$$$$
