=
     RDKit          3D

 18 19  0  0  0  0  0  0  0  0999 V2000
    4.1400   70.2850   68.7120 C   0  0  0  0  0  0  0  0  0  0  0  0
    5.2950   70.7740   69.3140 C   0  0  0  0  0  0  0  0  0  0  0  0
    6.4660   70.8590   68.5680 C   0  0  0  0  0  0  0  0  0  0  0  0
    6.4670   70.4550   67.2310 C   0  0  0  0  0  0  0  0  0  0  0  0
    5.2910   69.9610   66.6330 C   0  0  0  0  0  0  0  0  0  0  0  0
    4.1010   69.8720   67.3820 C   0  0  0  0  0  0  0  0  0  0  0  0
    2.9420   69.4070   66.8660 N   0  0  0  0  0  0  0  0  0  0  0  0
    2.9480   69.0170   65.5730 C   0  0  0  0  0  0  0  0  0  0  0  0
    4.0630   69.0660   64.7560 C   0  0  0  0  0  0  0  0  0  0  0  0
    5.2520   69.5450   65.2950 C   0  0  0  0  0  0  0  0  0  0  0  0
    2.9970   70.2100   69.4710 O   0  0  0  0  0  0  0  0  0  0  0  0
    5.2824   71.0897   70.3676 H   0  0  0  0  0  0  0  0  0  0  0  0
    7.3878   71.2430   69.0294 H   0  0  0  0  0  0  0  0  0  0  0  0
    7.3927   70.5230   66.6407 H   0  0  0  0  0  0  0  0  0  0  0  0
    2.0092   68.6373   65.1436 H   0  0  0  0  0  0  0  0  0  0  0  0
    4.0106   68.7350   63.7083 H   0  0  0  0  0  0  0  0  0  0  0  0
    6.1583   69.5972   64.6739 H   0  0  0  0  0  0  0  0  0  0  0  0
    2.1590   69.8664   69.0712 H   0  0  0  0  0  0  0  0  0  0  0  0
  2  1  2  0
  3  2  1  0
  4  3  2  0
  5  4  1  0
  6  5  2  0
  6  1  1  0
  7  6  1  0
  8  7  2  0
  9  8  1  0
 10  9  2  0
 10  5  1  0
 11  1  1  0
  2 12  1  0
  3 13  1  0
  4 14  1  0
  8 15  1  0
  9 16  1  0
 10 17  1  0
 11 18  1  0
M  END
>  <score>  (1) 
-7.856

$$$$
=
     RDKit          3D

 18 19  0  0  0  0  0  0  0  0999 V2000
    4.4560   70.4980   68.6620 C   0  0  0  0  0  0  0  0  0  0  0  0
    5.7890   70.8760   68.5260 C   0  0  0  0  0  0  0  0  0  0  0  0
    6.4500   70.6130   67.3300 C   0  0  0  0  0  0  0  0  0  0  0  0
    5.7710   69.9780   66.2880 C   0  0  0  0  0  0  0  0  0  0  0  0
    4.4220   69.6010   66.4380 C   0  0  0  0  0  0  0  0  0  0  0  0
    3.7460   69.8630   67.6460 C   0  0  0  0  0  0  0  0  0  0  0  0
    2.4530   69.5260   67.8510 N   0  0  0  0  0  0  0  0  0  0  0  0
    1.8020   68.9110   66.8400 C   0  0  0  0  0  0  0  0  0  0  0  0
    2.3780   68.6110   65.6180 C   0  0  0  0  0  0  0  0  0  0  0  0
    3.7080   68.9610   65.4160 C   0  0  0  0  0  0  0  0  0  0  0  0
    3.8250   70.7680   69.8530 O   0  0  0  0  0  0  0  0  0  0  0  0
    6.3132   71.3763   69.3536 H   0  0  0  0  0  0  0  0  0  0  0  0
    7.5035   70.9042   67.2059 H   0  0  0  0  0  0  0  0  0  0  0  0
    6.2937   69.7705   65.3426 H   0  0  0  0  0  0  0  0  0  0  0  0
    0.7498   68.6315   66.9975 H   0  0  0  0  0  0  0  0  0  0  0  0
    1.7993   68.1094   64.8283 H   0  0  0  0  0  0  0  0  0  0  0  0
    4.1983   68.7364   64.4573 H   0  0  0  0  0  0  0  0  0  0  0  0
    2.8773   70.5115   69.9804 H   0  0  0  0  0  0  0  0  0  0  0  0
  2  1  2  0
  3  2  1  0
  4  3  2  0
  5  4  1  0
  6  5  2  0
  6  1  1  0
  7  6  1  0
  8  7  2  0
  9  8  1  0
 10  9  2  0
 10  5  1  0
 11  1  1  0
  2 12  1  0
  3 13  1  0
  4 14  1  0
  8 15  1  0
  9 16  1  0
 10 17  1  0
 11 18  1  0
M  END
>  <score>  (2) 
-7.501

$$$$
=
     RDKit          3D

 18 19  0  0  0  0  0  0  0  0999 V2000
    2.9730   69.8690   68.2640 C   0  0  0  0  0  0  0  0  0  0  0  0
    2.1130   69.2820   67.3410 C   0  0  0  0  0  0  0  0  0  0  0  0
    2.5960   68.9530   66.0780 C   0  0  0  0  0  0  0  0  0  0  0  0
    3.9290   69.2140   65.7560 C   0  0  0  0  0  0  0  0  0  0  0  0
    4.7900   69.8090   66.6990 C   0  0  0  0  0  0  0  0  0  0  0  0
    4.3090   70.1450   67.9800 C   0  0  0  0  0  0  0  0  0  0  0  0
    5.0840   70.7170   68.9280 N   0  0  0  0  0  0  0  0  0  0  0  0
    6.3730   70.9670   68.6110 C   0  0  0  0  0  0  0  0  0  0  0  0
    6.9380   70.6750   67.3830 C   0  0  0  0  0  0  0  0  0  0  0  0
    6.1330   70.0870   66.4130 C   0  0  0  0  0  0  0  0  0  0  0  0
    2.4730   70.1850   69.5040 O   0  0  0  0  0  0  0  0  0  0  0  0
    1.0646   69.0806   67.6063 H   0  0  0  0  0  0  0  0  0  0  0  0
    1.9297   68.4889   65.3360 H   0  0  0  0  0  0  0  0  0  0  0  0
    4.3102   68.9529   64.7577 H   0  0  0  0  0  0  0  0  0  0  0  0
    7.0123   71.4312   69.3763 H   0  0  0  0  0  0  0  0  0  0  0  0
    7.9949   70.9015   67.1790 H   0  0  0  0  0  0  0  0  0  0  0  0
    6.5493   69.8412   65.4250 H   0  0  0  0  0  0  0  0  0  0  0  0
    3.0600   70.6036   70.1825 H   0  0  0  0  0  0  0  0  0  0  0  0
  2  1  2  0
  3  2  1  0
  4  3  2  0
  5  4  1  0
  6  5  2  0
  6  1  1  0
  7  6  1  0
  8  7  2  0
  9  8  1  0
 10  9  2  0
 10  5  1  0
 11  1  1  0
  2 12  1  0
  3 13  1  0
  4 14  1  0
  8 15  1  0
  9 16  1  0
 10 17  1  0
 11 18  1  0
M  END
>  <score>  (3) 
-7.441

$$$$
=
     RDKit          3D

 18 19  0  0  0  0  0  0  0  0999 V2000
    2.9410   69.3640   66.6430 C   0  0  0  0  0  0  0  0  0  0  0  0
    2.9830   68.9750   65.3080 C   0  0  0  0  0  0  0  0  0  0  0  0
    4.1790   69.0900   64.6050 C   0  0  0  0  0  0  0  0  0  0  0  0
    5.3140   69.5900   65.2460 C   0  0  0  0  0  0  0  0  0  0  0  0
    5.2580   69.9800   66.5990 C   0  0  0  0  0  0  0  0  0  0  0  0
    4.0510   69.8670   67.3170 C   0  0  0  0  0  0  0  0  0  0  0  0
    3.9330   70.2240   68.6150 N   0  0  0  0  0  0  0  0  0  0  0  0
    5.0350   70.7070   69.2310 C   0  0  0  0  0  0  0  0  0  0  0  0
    6.2630   70.8560   68.6120 C   0  0  0  0  0  0  0  0  0  0  0  0
    6.3750   70.4870   67.2770 C   0  0  0  0  0  0  0  0  0  0  0  0
    1.7480   69.2420   67.3150 O   0  0  0  0  0  0  0  0  0  0  0  0
    2.0824   68.5814   64.8141 H   0  0  0  0  0  0  0  0  0  0  0  0
    4.2296   68.7881   63.5485 H   0  0  0  0  0  0  0  0  0  0  0  0
    6.2592   69.6802   64.6907 H   0  0  0  0  0  0  0  0  0  0  0  0
    4.9501   70.9991   70.2881 H   0  0  0  0  0  0  0  0  0  0  0  0
    7.1277   71.2559   69.1618 H   0  0  0  0  0  0  0  0  0  0  0  0
    7.3370   70.5924   66.7541 H   0  0  0  0  0  0  0  0  0  0  0  0
    1.6858   69.5103   68.2659 H   0  0  0  0  0  0  0  0  0  0  0  0
  2  1  2  0
  3  2  1  0
  4  3  2  0
  5  4  1  0
  6  5  2  0
  6  1  1  0
  7  6  1  0
  8  7  2  0
  9  8  1  0
 10  9  2  0
 10  5  1  0
 11  1  1  0
  2 12  1  0
  3 13  1  0
  4 14  1  0
  8 15  1  0
  9 16  1  0
 10 17  1  0
 11 18  1  0
M  END
>  <score>  (4) 
-7.325

$$$$
=
     RDKit          3D

 18 19  0  0  0  0  0  0  0  0999 V2000
    5.8700   70.3950   67.3430 C   0  0  0  0  0  0  0  0  0  0  0  0
    5.5900   70.7360   68.6630 C   0  0  0  0  0  0  0  0  0  0  0  0
    4.3080   70.5230   69.1610 C   0  0  0  0  0  0  0  0  0  0  0  0
    3.3260   69.9720   68.3350 C   0  0  0  0  0  0  0  0  0  0  0  0
    3.6230   69.6320   67.0000 C   0  0  0  0  0  0  0  0  0  0  0  0
    4.9170   69.8450   66.4880 C   0  0  0  0  0  0  0  0  0  0  0  0
    5.2640   69.5390   65.2180 N   0  0  0  0  0  0  0  0  0  0  0  0
    4.3100   69.0070   64.4230 C   0  0  0  0  0  0  0  0  0  0  0  0
    3.0120   68.7610   64.8320 C   0  0  0  0  0  0  0  0  0  0  0  0
    2.6640   69.0790   66.1400 C   0  0  0  0  0  0  0  0  0  0  0  0
    7.1430   70.6160   66.8740 O   0  0  0  0  0  0  0  0  0  0  0  0
    6.3720   71.1684   69.3045 H   0  0  0  0  0  0  0  0  0  0  0  0
    4.0691   70.7877   70.2016 H   0  0  0  0  0  0  0  0  0  0  0  0
    2.3132   69.8021   68.7293 H   0  0  0  0  0  0  0  0  0  0  0  0
    4.5821   68.7542   63.3876 H   0  0  0  0  0  0  0  0  0  0  0  0
    2.2749   68.3256   64.1412 H   0  0  0  0  0  0  0  0  0  0  0  0
    1.6401   68.8974   66.4986 H   0  0  0  0  0  0  0  0  0  0  0  0
    7.3735   70.3840   65.9396 H   0  0  0  0  0  0  0  0  0  0  0  0
  2  1  2  0
  3  2  1  0
  4  3  2  0
  5  4  1  0
  6  5  2  0
  6  1  1  0
  7  6  1  0
  8  7  2  0
  9  8  1  0
 10  9  2  0
 10  5  1  0
 11  1  1  0
  2 12  1  0
  3 13  1  0
  4 14  1  0
  8 15  1  0
  9 16  1  0
 10 17  1  0
 11 18  1  0
M  END
>  <score>  (5) 
-7.129

$$$$
=
     RDKit          3D

 18 19  0  0  0  0  0  0  0  0999 V2000
    3.6210   69.2780   66.1250 C   0  0  0  0  0  0  0  0  0  0  0  0
    2.3070   69.1050   66.5500 C   0  0  0  0  0  0  0  0  0  0  0  0
    1.9550   69.4890   67.8400 C   0  0  0  0  0  0  0  0  0  0  0  0
    2.9190   70.0420   68.6850 C   0  0  0  0  0  0  0  0  0  0  0  0
    4.2460   70.2130   68.2430 C   0  0  0  0  0  0  0  0  0  0  0  0
    4.6100   69.8250   66.9390 C   0  0  0  0  0  0  0  0  0  0  0  0
    5.8650   69.9630   66.4560 N   0  0  0  0  0  0  0  0  0  0  0  0
    6.7940   70.4980   67.2790 C   0  0  0  0  0  0  0  0  0  0  0  0
    6.5350   70.9080   68.5740 C   0  0  0  0  0  0  0  0  0  0  0  0
    5.2410   70.7620   69.0630 C   0  0  0  0  0  0  0  0  0  0  0  0
    3.9440   68.8900   64.8470 O   0  0  0  0  0  0  0  0  0  0  0  0
    1.5560   68.6700   65.8742 H   0  0  0  0  0  0  0  0  0  0  0  0
    0.9214   69.3575   68.1927 H   0  0  0  0  0  0  0  0  0  0  0  0
    2.6402   70.3468   69.7045 H   0  0  0  0  0  0  0  0  0  0  0  0
    7.8184   70.6144   66.8954 H   0  0  0  0  0  0  0  0  0  0  0  0
    7.3306   71.3379   69.2003 H   0  0  0  0  0  0  0  0  0  0  0  0
    4.9997   71.0762   70.0892 H   0  0  0  0  0  0  0  0  0  0  0  0
    4.8703   69.0002   64.5154 H   0  0  0  0  0  0  0  0  0  0  0  0
  2  1  2  0
  3  2  1  0
  4  3  2  0
  5  4  1  0
  6  5  2  0
  6  1  1  0
  7  6  1  0
  8  7  2  0
  9  8  1  0
 10  9  2  0
 10  5  1  0
 11  1  1  0
  2 12  1  0
  3 13  1  0
  4 14  1  0
  8 15  1  0
  9 16  1  0
 10 17  1  0
 11 18  1  0
M  END
>  <score>  (6) 
-7.007

$$$$
=
     RDKit          3D

 18 19  0  0  0  0  0  0  0  0999 V2000
    3.4980   69.7320   67.2910 C   0  0  0  0  0  0  0  0  0  0  0  0
    4.5010   70.2060   68.1310 C   0  0  0  0  0  0  0  0  0  0  0  0
    5.7810   70.3950   67.6180 C   0  0  0  0  0  0  0  0  0  0  0  0
    6.0390   70.1100   66.2760 C   0  0  0  0  0  0  0  0  0  0  0  0
    5.0140   69.6310   65.4360 C   0  0  0  0  0  0  0  0  0  0  0  0
    3.7160   69.4360   65.9480 C   0  0  0  0  0  0  0  0  0  0  0  0
    2.6910   68.9790   65.1950 N   0  0  0  0  0  0  0  0  0  0  0  0
    2.9460   68.7050   63.8970 C   0  0  0  0  0  0  0  0  0  0  0  0
    4.1850   68.8630   63.3020 C   0  0  0  0  0  0  0  0  0  0  0  0
    5.2340   69.3320   64.0850 C   0  0  0  0  0  0  0  0  0  0  0  0
    2.2420   69.5530   67.8220 O   0  0  0  0  0  0  0  0  0  0  0  0
    4.2852   70.4284   69.1864 H   0  0  0  0  0  0  0  0  0  0  0  0
    6.5865   70.7677   68.2678 H   0  0  0  0  0  0  0  0  0  0  0  0
    7.0506   70.2606   65.8710 H   0  0  0  0  0  0  0  0  0  0  0  0
    2.1181   68.3336   63.2752 H   0  0  0  0  0  0  0  0  0  0  0  0
    4.3361   68.6242   62.2389 H   0  0  0  0  0  0  0  0  0  0  0  0
    6.2331   69.4678   63.6453 H   0  0  0  0  0  0  0  0  0  0  0  0
    1.5064   69.2171   67.2509 H   0  0  0  0  0  0  0  0  0  0  0  0
  2  1  2  0
  3  2  1  0
  4  3  2  0
  5  4  1  0
  6  5  2  0
  6  1  1  0
  7  6  1  0
  8  7  2  0
  9  8  1  0
 10  9  2  0
 10  5  1  0
 11  1  1  0
  2 12  1  0
  3 13  1  0
  4 14  1  0
  8 15  1  0
  9 16  1  0
 10 17  1  0
 11 18  1  0
M  END
>  <score>  (7) 
-6.988

$$$$
=
     RDKit          3D

 18 19  0  0  0  0  0  0  0  0999 V2000
    3.7300   68.8130   62.6760 C   0  0  0  0  0  0  0  0  0  0  0  0
    2.4600   68.4380   62.2460 C   0  0  0  0  0  0  0  0  0  0  0  0
    1.4260   68.3590   63.1730 C   0  0  0  0  0  0  0  0  0  0  0  0
    1.6740   68.6560   64.5150 C   0  0  0  0  0  0  0  0  0  0  0  0
    2.9630   69.0340   64.9380 C   0  0  0  0  0  0  0  0  0  0  0  0
    4.0160   69.1150   64.0060 C   0  0  0  0  0  0  0  0  0  0  0  0
    5.2740   69.4720   64.3480 N   0  0  0  0  0  0  0  0  0  0  0  0
    5.5080   69.7570   65.6480 C   0  0  0  0  0  0  0  0  0  0  0  0
    4.5430   69.7060   66.6370 C   0  0  0  0  0  0  0  0  0  0  0  0
    3.2510   69.3380   66.2750 C   0  0  0  0  0  0  0  0  0  0  0  0
    4.7350   68.8820   61.7420 O   0  0  0  0  0  0  0  0  0  0  0  0
    2.2766   68.2071   61.1863 H   0  0  0  0  0  0  0  0  0  0  0  0
    0.4167   68.0637   62.8503 H   0  0  0  0  0  0  0  0  0  0  0  0
    0.8558   68.5942   65.2476 H   0  0  0  0  0  0  0  0  0  0  0  0
    6.5288   70.0474   65.9372 H   0  0  0  0  0  0  0  0  0  0  0  0
    4.7899   69.9496   67.6809 H   0  0  0  0  0  0  0  0  0  0  0  0
    2.4583   69.2859   67.0359 H   0  0  0  0  0  0  0  0  0  0  0  0
    5.6488   69.1456   62.0167 H   0  0  0  0  0  0  0  0  0  0  0  0
  2  1  2  0
  3  2  1  0
  4  3  2  0
  5  4  1  0
  6  5  2  0
  6  1  1  0
  7  6  1  0
  8  7  2  0
  9  8  1  0
 10  9  2  0
 10  5  1  0
 11  1  1  0
  2 12  1  0
  3 13  1  0
  4 14  1  0
  8 15  1  0
  9 16  1  0
 10 17  1  0
 11 18  1  0
M  END
>  <score>  (8) 
-6.679

$$$$
=
     RDKit          3D

 18 19  0  0  0  0  0  0  0  0999 V2000
    4.4160   69.3660   65.1490 C   0  0  0  0  0  0  0  0  0  0  0  0
    5.6340   69.8750   65.5910 C   0  0  0  0  0  0  0  0  0  0  0  0
    5.7550   70.2930   66.9130 C   0  0  0  0  0  0  0  0  0  0  0  0
    4.6590   70.1950   67.7730 C   0  0  0  0  0  0  0  0  0  0  0  0
    3.4320   69.6780   67.3130 C   0  0  0  0  0  0  0  0  0  0  0  0
    3.3020   69.2540   65.9770 C   0  0  0  0  0  0  0  0  0  0  0  0
    2.1520   68.7490   65.4750 N   0  0  0  0  0  0  0  0  0  0  0  0
    1.0950   68.6580   66.3120 C   0  0  0  0  0  0  0  0  0  0  0  0
    1.1230   69.0480   67.6390 C   0  0  0  0  0  0  0  0  0  0  0  0
    2.3100   69.5660   68.1460 C   0  0  0  0  0  0  0  0  0  0  0  0
    4.3220   68.9610   63.8390 O   0  0  0  0  0  0  0  0  0  0  0  0
    6.4901   69.9459   64.9040 H   0  0  0  0  0  0  0  0  0  0  0  0
    6.7097   70.6988   67.2789 H   0  0  0  0  0  0  0  0  0  0  0  0
    4.7547   70.5242   68.8182 H   0  0  0  0  0  0  0  0  0  0  0  0
    0.1548   68.2488   65.9138 H   0  0  0  0  0  0  0  0  0  0  0  0
    0.2311   68.9511   68.2755 H   0  0  0  0  0  0  0  0  0  0  0  0
    2.3682   69.8866   69.1966 H   0  0  0  0  0  0  0  0  0  0  0  0
    3.4694   68.5945   63.4941 H   0  0  0  0  0  0  0  0  0  0  0  0
  2  1  2  0
  3  2  1  0
  4  3  2  0
  5  4  1  0
  6  5  2  0
  6  1  1  0
  7  6  1  0
  8  7  2  0
  9  8  1  0
 10  9  2  0
 10  5  1  0
 11  1  1  0
  2 12  1  0
  3 13  1  0
  4 14  1  0
  8 15  1  0
  9 16  1  0
 10 17  1  0
 11 18  1  0
M  END
>  <score>  (9) 
-6.652

$$$$
