=
     RDKit          3D

 19 19  0  0  0  0  0  0  0  0999 V2000
    5.2620   69.1070   64.9110 C   0  0  0  0  0  0  0  0  0  0  0  0
    4.8170   69.5770   66.2320 N   0  0  0  0  0  0  0  0  0  0  0  0
    5.7230   70.2340   67.0540 C   0  0  0  0  0  0  0  0  0  0  0  0
    5.4460   70.7170   68.2670 C   0  0  0  0  0  0  0  0  0  0  0  0
    4.0750   70.5430   68.7840 C   0  0  0  0  0  0  0  0  0  0  0  0
    3.7950   70.9530   69.9070 O   0  0  0  0  0  0  0  0  0  0  0  0
    3.0740   69.8550   67.8950 C   0  0  0  0  0  0  0  0  0  0  0  0
    3.4780   69.4260   66.6710 C   0  0  0  0  0  0  0  0  0  0  0  0
    2.5040   68.7920   65.6990 C   0  0  0  0  0  0  0  0  0  0  0  0
    1.7980   69.7040   68.4070 O   0  0  0  0  0  0  0  0  0  0  0  0
    6.0132   68.3136   65.0380 H   0  0  0  0  0  0  0  0  0  0  0  0
    4.4006   68.7105   64.3536 H   0  0  0  0  0  0  0  0  0  0  0  0
    5.7050   69.9455   64.3536 H   0  0  0  0  0  0  0  0  0  0  0  0
    6.7476   70.3666   66.6765 H   0  0  0  0  0  0  0  0  0  0  0  0
    6.2160   71.2290   68.8629 H   0  0  0  0  0  0  0  0  0  0  0  0
    1.7107   68.2756   66.2593 H   0  0  0  0  0  0  0  0  0  0  0  0
    2.0571   69.5728   65.0660 H   0  0  0  0  0  0  0  0  0  0  0  0
    3.0371   68.0673   65.0660 H   0  0  0  0  0  0  0  0  0  0  0  0
    1.0975   69.2589   67.8673 H   0  0  0  0  0  0  0  0  0  0  0  0
  2  1  1  0
  3  2  1  0
  4  3  2  0
  5  4  1  0
  6  5  2  0
  7  5  1  0
  8  7  2  0
  8  2  1  0
  9  8  1  0
 10  7  1  0
  1 11  1  0
  1 12  1  0
  1 13  1  0
  3 14  1  0
  4 15  1  0
  9 16  1  0
  9 17  1  0
  9 18  1  0
 10 19  1  0
M  END
>  <score>  (1) 
-5.916

$$$$
=
     RDKit          3D

 19 19  0  0  0  0  0  0  0  0999 V2000
    2.1060   69.1330   67.4830 C   0  0  0  0  0  0  0  0  0  0  0  0
    3.4030   69.7670   67.7670 N   0  0  0  0  0  0  0  0  0  0  0  0
    3.6340   70.2930   69.0310 C   0  0  0  0  0  0  0  0  0  0  0  0
    4.7650   70.8830   69.4200 C   0  0  0  0  0  0  0  0  0  0  0  0
    5.8610   70.9920   68.4380 C   0  0  0  0  0  0  0  0  0  0  0  0
    6.9060   71.5540   68.7570 O   0  0  0  0  0  0  0  0  0  0  0  0
    5.6370   70.4050   67.0710 C   0  0  0  0  0  0  0  0  0  0  0  0
    4.4440   69.8110   66.8060 C   0  0  0  0  0  0  0  0  0  0  0  0
    4.1800   69.1360   65.4760 C   0  0  0  0  0  0  0  0  0  0  0  0
    6.6810   70.5230   66.1710 O   0  0  0  0  0  0  0  0  0  0  0  0
    1.6029   68.8871   68.4298 H   0  0  0  0  0  0  0  0  0  0  0  0
    1.4783   69.8259   66.9034 H   0  0  0  0  0  0  0  0  0  0  0  0
    2.2671   68.2121   66.9034 H   0  0  0  0  0  0  0  0  0  0  0  0
    2.8214   70.2172   69.7685 H   0  0  0  0  0  0  0  0  0  0  0  0
    4.8774   71.2762   70.4412 H   0  0  0  0  0  0  0  0  0  0  0  0
    3.7844   68.1245   65.6503 H   0  0  0  0  0  0  0  0  0  0  0  0
    3.4455   69.7238   64.9059 H   0  0  0  0  0  0  0  0  0  0  0  0
    5.1184   69.0695   64.9059 H   0  0  0  0  0  0  0  0  0  0  0  0
    6.5900   70.1552   65.2564 H   0  0  0  0  0  0  0  0  0  0  0  0
  2  1  1  0
  3  2  1  0
  4  3  2  0
  5  4  1  0
  6  5  2  0
  7  5  1  0
  8  7  2  0
  8  2  1  0
  9  8  1  0
 10  7  1  0
  1 11  1  0
  1 12  1  0
  1 13  1  0
  3 14  1  0
  4 15  1  0
  9 16  1  0
  9 17  1  0
  9 18  1  0
 10 19  1  0
M  END
>  <score>  (2) 
-5.84

$$$$
=
     RDKit          3D

 19 19  0  0  0  0  0  0  0  0999 V2000
    6.5250   70.6650   67.6920 C   0  0  0  0  0  0  0  0  0  0  0  0
    5.2220   70.1660   67.2250 N   0  0  0  0  0  0  0  0  0  0  0  0
    5.1130   69.6760   65.9310 C   0  0  0  0  0  0  0  0  0  0  0  0
    3.9950   69.1870   65.3890 C   0  0  0  0  0  0  0  0  0  0  0  0
    2.7770   69.1630   66.2210 C   0  0  0  0  0  0  0  0  0  0  0  0
    1.7260   68.7430   65.7430 O   0  0  0  0  0  0  0  0  0  0  0  0
    2.8840   69.6670   67.6340 C   0  0  0  0  0  0  0  0  0  0  0  0
    4.0870   70.1210   68.0730 C   0  0  0  0  0  0  0  0  0  0  0  0
    4.2820   70.5730   69.5050 C   0  0  0  0  0  0  0  0  0  0  0  0
    1.7260   69.6330   68.3900 O   0  0  0  0  0  0  0  0  0  0  0  0
    6.5423   70.6716   68.7918 H   0  0  0  0  0  0  0  0  0  0  0  0
    7.3246   70.0095   67.3166 H   0  0  0  0  0  0  0  0  0  0  0  0
    6.6822   71.6870   67.3166 H   0  0  0  0  0  0  0  0  0  0  0  0
    6.0167   69.6917   65.3041 H   0  0  0  0  0  0  0  0  0  0  0  0
    3.9825   68.8137   64.3544 H   0  0  0  0  0  0  0  0  0  0  0  0
    3.9407   69.7819   70.1889 H   0  0  0  0  0  0  0  0  0  0  0  0
    5.3481   70.7769   69.6832 H   0  0  0  0  0  0  0  0  0  0  0  0
    3.6988   71.4885   69.6832 H   0  0  0  0  0  0  0  0  0  0  0  0
    1.7370   69.9523   69.3270 H   0  0  0  0  0  0  0  0  0  0  0  0
  2  1  1  0
  3  2  1  0
  4  3  2  0
  5  4  1  0
  6  5  2  0
  7  5  1  0
  8  7  2  0
  8  2  1  0
  9  8  1  0
 10  7  1  0
  1 11  1  0
  1 12  1  0
  1 13  1  0
  3 14  1  0
  4 15  1  0
  9 16  1  0
  9 17  1  0
  9 18  1  0
 10 19  1  0
M  END
>  <score>  (3) 
-5.723

$$$$
=
     RDKit          3D

 19 19  0  0  0  0  0  0  0  0999 V2000
    4.3240   70.5510   69.0720 C   0  0  0  0  0  0  0  0  0  0  0  0
    4.1370   70.0190   67.7130 N   0  0  0  0  0  0  0  0  0  0  0  0
    2.8890   69.5340   67.3460 C   0  0  0  0  0  0  0  0  0  0  0  0
    2.5840   69.0360   66.1460 C   0  0  0  0  0  0  0  0  0  0  0  0
    3.6480   68.9920   65.1250 C   0  0  0  0  0  0  0  0  0  0  0  0
    3.4070   68.5150   64.0190 O   0  0  0  0  0  0  0  0  0  0  0  0
    5.0000   69.5370   65.4990 C   0  0  0  0  0  0  0  0  0  0  0  0
    5.1770   70.0360   66.7500 C   0  0  0  0  0  0  0  0  0  0  0  0
    6.4890   70.6670   67.1670 C   0  0  0  0  0  0  0  0  0  0  0  0
    5.9780   69.4810   64.5220 O   0  0  0  0  0  0  0  0  0  0  0  0
    4.0529   69.7799   69.8081 H   0  0  0  0  0  0  0  0  0  0  0  0
    5.3768   70.8376   69.2119 H   0  0  0  0  0  0  0  0  0  0  0  0
    3.6821   71.4333   69.2119 H   0  0  0  0  0  0  0  0  0  0  0  0
    2.0906   69.5624   68.1021 H   0  0  0  0  0  0  0  0  0  0  0  0
    1.5706   68.6697   65.9250 H   0  0  0  0  0  0  0  0  0  0  0  0
    6.5493   70.6960   68.2650 H   0  0  0  0  0  0  0  0  0  0  0  0
    7.3246   70.0723   66.7695 H   0  0  0  0  0  0  0  0  0  0  0  0
    6.5461   71.6911   66.7695 H   0  0  0  0  0  0  0  0  0  0  0  0
    6.8869   69.8249   64.7111 H   0  0  0  0  0  0  0  0  0  0  0  0
  2  1  1  0
  3  2  1  0
  4  3  2  0
  5  4  1  0
  6  5  2  0
  7  5  1  0
  8  7  2  0
  8  2  1  0
  9  8  1  0
 10  7  1  0
  1 11  1  0
  1 12  1  0
  1 13  1  0
  3 14  1  0
  4 15  1  0
  9 16  1  0
  9 17  1  0
  9 18  1  0
 10 19  1  0
M  END
>  <score>  (4) 
-5.675

$$$$
=
     RDKit          3D

 19 19  0  0  0  0  0  0  0  0999 V2000
    2.8900   68.9040   65.8540 C   0  0  0  0  0  0  0  0  0  0  0  0
    3.3030   67.7760   65.0040 N   0  0  0  0  0  0  0  0  0  0  0  0
    2.7680   66.5180   65.2470 C   0  0  0  0  0  0  0  0  0  0  0  0
    3.0510   65.4180   64.5470 C   0  0  0  0  0  0  0  0  0  0  0  0
    4.0050   65.5370   63.4270 C   0  0  0  0  0  0  0  0  0  0  0  0
    4.3060   64.5370   62.7800 O   0  0  0  0  0  0  0  0  0  0  0  0
    4.5750   66.8980   63.1350 C   0  0  0  0  0  0  0  0  0  0  0  0
    4.1900   67.9450   63.9120 C   0  0  0  0  0  0  0  0  0  0  0  0
    4.6690   69.3530   63.6260 C   0  0  0  0  0  0  0  0  0  0  0  0
    5.4680   66.9780   62.0820 O   0  0  0  0  0  0  0  0  0  0  0  0
    2.9931   68.6225   66.9124 H   0  0  0  0  0  0  0  0  0  0  0  0
    3.5275   69.7751   65.6425 H   0  0  0  0  0  0  0  0  0  0  0  0
    1.8407   69.1575   65.6425 H   0  0  0  0  0  0  0  0  0  0  0  0
    2.0565   66.4209   66.0803 H   0  0  0  0  0  0  0  0  0  0  0  0
    2.5876   64.4521   64.7968 H   0  0  0  0  0  0  0  0  0  0  0  0
    4.8480   69.8793   64.5752 H   0  0  0  0  0  0  0  0  0  0  0  0
    5.6037   69.3119   63.0475 H   0  0  0  0  0  0  0  0  0  0  0  0
    3.9031   69.8904   63.0475 H   0  0  0  0  0  0  0  0  0  0  0  0
    5.8754   67.8482   61.8435 H   0  0  0  0  0  0  0  0  0  0  0  0
  2  1  1  0
  3  2  1  0
  4  3  2  0
  5  4  1  0
  6  5  2  0
  7  5  1  0
  8  7  2  0
  8  2  1  0
  9  8  1  0
 10  7  1  0
  1 11  1  0
  1 12  1  0
  1 13  1  0
  3 14  1  0
  4 15  1  0
  9 16  1  0
  9 17  1  0
  9 18  1  0
 10 19  1  0
M  END
>  <score>  (5) 
-5.48

$$$$
=
     RDKit          3D

 19 19  0  0  0  0  0  0  0  0999 V2000
    4.1500   70.5790   69.5090 C   0  0  0  0  0  0  0  0  0  0  0  0
    4.4110   70.2440   68.1000 N   0  0  0  0  0  0  0  0  0  0  0  0
    5.6880   70.4290   67.5890 C   0  0  0  0  0  0  0  0  0  0  0  0
    6.0580   70.1550   66.3360 C   0  0  0  0  0  0  0  0  0  0  0  0
    5.0390   69.6170   65.4160 C   0  0  0  0  0  0  0  0  0  0  0  0
    5.3410   69.3800   64.2490 O   0  0  0  0  0  0  0  0  0  0  0  0
    3.6550   69.3860   65.9610 C   0  0  0  0  0  0  0  0  0  0  0  0
    3.4110   69.6870   67.2640 C   0  0  0  0  0  0  0  0  0  0  0  0
    2.0630   69.4110   67.8950 C   0  0  0  0  0  0  0  0  0  0  0  0
    2.7200   68.8820   65.0750 O   0  0  0  0  0  0  0  0  0  0  0  0
    4.6952   69.8792   70.1593 H   0  0  0  0  0  0  0  0  0  0  0  0
    4.4883   71.6061   69.7104 H   0  0  0  0  0  0  0  0  0  0  0  0
    3.0713   70.5021   69.7104 H   0  0  0  0  0  0  0  0  0  0  0  0
    6.4536   70.8321   68.2682 H   0  0  0  0  0  0  0  0  0  0  0  0
    7.0915   70.3254   66.0001 H   0  0  0  0  0  0  0  0  0  0  0  0
    2.1600   69.4309   68.9905 H   0  0  0  0  0  0  0  0  0  0  0  0
    1.3446   70.1807   67.5765 H   0  0  0  0  0  0  0  0  0  0  0  0
    1.7049   68.4209   67.5765 H   0  0  0  0  0  0  0  0  0  0  0  0
    1.7933   68.7101   65.3779 H   0  0  0  0  0  0  0  0  0  0  0  0
  2  1  1  0
  3  2  1  0
  4  3  2  0
  5  4  1  0
  6  5  2  0
  7  5  1  0
  8  7  2  0
  8  2  1  0
  9  8  1  0
 10  7  1  0
  1 11  1  0
  1 12  1  0
  1 13  1  0
  3 14  1  0
  4 15  1  0
  9 16  1  0
  9 17  1  0
  9 18  1  0
 10 19  1  0
M  END
>  <score>  (6) 
-5.443

$$$$
=
     RDKit          3D

 19 19  0  0  0  0  0  0  0  0999 V2000
    1.2480   68.3070   63.3100 C   0  0  0  0  0  0  0  0  0  0  0  0
    2.3810   68.7420   64.1410 N   0  0  0  0  0  0  0  0  0  0  0  0
    2.2080   68.8480   65.5150 C   0  0  0  0  0  0  0  0  0  0  0  0
    3.1530   69.2200   66.3790 C   0  0  0  0  0  0  0  0  0  0  0  0
    4.4890   69.5490   65.8450 C   0  0  0  0  0  0  0  0  0  0  0  0
    5.3730   69.9200   66.6120 O   0  0  0  0  0  0  0  0  0  0  0  0
    4.7010   69.4150   64.3610 C   0  0  0  0  0  0  0  0  0  0  0  0
    3.6600   69.0060   63.5890 C   0  0  0  0  0  0  0  0  0  0  0  0
    3.8250   68.7810   62.1010 C   0  0  0  0  0  0  0  0  0  0  0  0
    5.9620   69.7320   63.8880 O   0  0  0  0  0  0  0  0  0  0  0  0
    0.4186   67.9886   63.9586 H   0  0  0  0  0  0  0  0  0  0  0  0
    0.9171   69.1420   62.6750 H   0  0  0  0  0  0  0  0  0  0  0  0
    1.5610   67.4651   62.6750 H   0  0  0  0  0  0  0  0  0  0  0  0
    1.2149   68.6065   65.9217 H   0  0  0  0  0  0  0  0  0  0  0  0
    2.9432   69.2799   67.4571 H   0  0  0  0  0  0  0  0  0  0  0  0
    4.4678   67.9045   61.9318 H   0  0  0  0  0  0  0  0  0  0  0  0
    2.8393   68.6064   61.6450 H   0  0  0  0  0  0  0  0  0  0  0  0
    4.2878   69.6686   61.6450 H   0  0  0  0  0  0  0  0  0  0  0  0
    6.1596   69.6625   62.9204 H   0  0  0  0  0  0  0  0  0  0  0  0
  2  1  1  0
  3  2  1  0
  4  3  2  0
  5  4  1  0
  6  5  2  0
  7  5  1  0
  8  7  2  0
  8  2  1  0
  9  8  1  0
 10  7  1  0
  1 11  1  0
  1 12  1  0
  1 13  1  0
  3 14  1  0
  4 15  1  0
  9 16  1  0
  9 17  1  0
  9 18  1  0
 10 19  1  0
M  END
>  <score>  (7) 
-5.399

$$$$
=
     RDKit          3D

 19 19  0  0  0  0  0  0  0  0999 V2000
    5.5010   69.8430   66.0380 C   0  0  0  0  0  0  0  0  0  0  0  0
    4.7960   69.4540   64.8060 N   0  0  0  0  0  0  0  0  0  0  0  0
    5.4920   69.4470   63.6050 C   0  0  0  0  0  0  0  0  0  0  0  0
    4.9760   69.1070   62.4230 C   0  0  0  0  0  0  0  0  0  0  0  0
    3.5560   68.7060   62.3780 C   0  0  0  0  0  0  0  0  0  0  0  0
    3.0440   68.4120   61.3010 O   0  0  0  0  0  0  0  0  0  0  0  0
    2.7940   68.6840   63.6750 C   0  0  0  0  0  0  0  0  0  0  0  0
    3.4420   69.0350   64.8170 C   0  0  0  0  0  0  0  0  0  0  0  0
    2.7550   68.9630   66.1650 C   0  0  0  0  0  0  0  0  0  0  0  0
    1.4650   68.3060   63.6020 O   0  0  0  0  0  0  0  0  0  0  0  0
    4.9165   69.5205   66.9123 H   0  0  0  0  0  0  0  0  0  0  0  0
    6.4906   69.3632   66.0612 H   0  0  0  0  0  0  0  0  0  0  0  0
    5.6228   70.9360   66.0612 H   0  0  0  0  0  0  0  0  0  0  0  0
    6.5506   69.7448   63.6300 H   0  0  0  0  0  0  0  0  0  0  0  0
    5.5895   69.1248   61.5101 H   0  0  0  0  0  0  0  0  0  0  0  0
    3.5066   69.0418   66.9643 H   0  0  0  0  0  0  0  0  0  0  0  0
    2.0361   69.7907   66.2548 H   0  0  0  0  0  0  0  0  0  0  0  0
    2.2233   68.0042   66.2548 H   0  0  0  0  0  0  0  0  0  0  0  0
    0.9139   68.2732   64.4237 H   0  0  0  0  0  0  0  0  0  0  0  0
  2  1  1  0
  3  2  1  0
  4  3  2  0
  5  4  1  0
  6  5  2  0
  7  5  1  0
  8  7  2  0
  8  2  1  0
  9  8  1  0
 10  7  1  0
  1 11  1  0
  1 12  1  0
  1 13  1  0
  3 14  1  0
  4 15  1  0
  9 16  1  0
  9 17  1  0
  9 18  1  0
 10 19  1  0
M  END
>  <score>  (8) 
-5.284

$$$$
