=
     RDKit          3D

 21 21  0  0  0  0  0  0  0  0999 V2000
    5.6280   70.0370   66.4910 C   0  0  0  0  0  0  0  0  0  0  0  0
    4.4120   69.8060   67.0050 C   0  0  0  0  0  0  0  0  0  0  0  0
    3.3380   69.2920   66.1310 C   0  0  0  0  0  0  0  0  0  0  0  0
    2.2170   69.0670   66.5720 O   0  0  0  0  0  0  0  0  0  0  0  0
    3.6760   69.0920   64.8210 N   0  0  0  0  0  0  0  0  0  0  0  0
    4.9090   69.3340   64.2930 C   0  0  0  0  0  0  0  0  0  0  0  0
    5.2460   69.0710   62.6870 S   0  0  0  0  0  0  0  0  0  0  0  0
    5.8590   69.8080   65.1540 N   0  0  0  0  0  0  0  0  0  0  0  0
    6.7740   70.5710   67.3100 C   0  0  0  0  0  0  0  0  0  0  0  0
    7.5500   70.8750   69.6890 C   0  0  0  0  0  0  0  0  0  0  0  0
    6.3560   70.8930   68.7470 C   0  0  0  0  0  0  0  0  0  0  0  0
    4.2152   69.9978   68.0701 H   0  0  0  0  0  0  0  0  0  0  0  0
    2.9468   68.7329   64.1883 H   0  0  0  0  0  0  0  0  0  0  0  0
    6.7990   70.0045   64.7817 H   0  0  0  0  0  0  0  0  0  0  0  0
    7.5741   69.8165   67.3343 H   0  0  0  0  0  0  0  0  0  0  0  0
    7.1186   71.5044   66.8410 H   0  0  0  0  0  0  0  0  0  0  0  0
    7.1956   70.8803   70.7303 H   0  0  0  0  0  0  0  0  0  0  0  0
    8.1454   69.9678   69.5090 H   0  0  0  0  0  0  0  0  0  0  0  0
    8.1725   71.7639   69.5090 H   0  0  0  0  0  0  0  0  0  0  0  0
    5.8963   71.8921   68.7708 H   0  0  0  0  0  0  0  0  0  0  0  0
    5.6407   70.1264   69.0797 H   0  0  0  0  0  0  0  0  0  0  0  0
  2  1  2  0
  3  2  1  0
  4  3  2  0
  5  3  1  0
  6  5  1  0
  7  6  2  0
  8  6  1  0
  8  1  1  0
  9  1  1  0
 11  9  1  0
 11 10  1  0
  2 12  1  0
  5 13  1  0
  8 14  1  0
  9 15  1  0
  9 16  1  0
 10 17  1  0
 10 18  1  0
 10 19  1  0
 11 20  1  0
 11 21  1  0
M  END
>  <score>  (1) 
-6.911

$$$$
=
     RDKit          3D

 21 21  0  0  0  0  0  0  0  0999 V2000
    5.3080   69.9500   66.5060 C   0  0  0  0  0  0  0  0  0  0  0  0
    5.2820   69.7010   65.1890 C   0  0  0  0  0  0  0  0  0  0  0  0
    4.0260   69.2450   64.5590 C   0  0  0  0  0  0  0  0  0  0  0  0
    3.9690   69.0120   63.3580 O   0  0  0  0  0  0  0  0  0  0  0  0
    2.9540   69.1020   65.3970 N   0  0  0  0  0  0  0  0  0  0  0  0
    2.9800   69.3470   66.7380 C   0  0  0  0  0  0  0  0  0  0  0  0
    1.6360   69.1460   67.6950 S   0  0  0  0  0  0  0  0  0  0  0  0
    4.1720   69.7660   67.2580 N   0  0  0  0  0  0  0  0  0  0  0  0
    6.5490   70.4070   67.2270 C   0  0  0  0  0  0  0  0  0  0  0  0
    7.5250   70.8970   69.5000 C   0  0  0  0  0  0  0  0  0  0  0  0
    6.2540   70.8400   68.6660 C   0  0  0  0  0  0  0  0  0  0  0  0
    6.1894   69.8353   64.5818 H   0  0  0  0  0  0  0  0  0  0  0  0
    2.0639   68.7868   64.9855 H   0  0  0  0  0  0  0  0  0  0  0  0
    4.2222   69.9544   68.2694 H   0  0  0  0  0  0  0  0  0  0  0  0
    7.2725   69.5787   67.2473 H   0  0  0  0  0  0  0  0  0  0  0  0
    6.9524   71.2769   66.6880 H   0  0  0  0  0  0  0  0  0  0  0  0
    7.2634   70.8853   70.5684 H   0  0  0  0  0  0  0  0  0  0  0  0
    8.1556   70.0262   69.2673 H   0  0  0  0  0  0  0  0  0  0  0  0
    8.0751   71.8207   69.2673 H   0  0  0  0  0  0  0  0  0  0  0  0
    5.7903   71.8374   68.6517 H   0  0  0  0  0  0  0  0  0  0  0  0
    5.5762   70.1009   69.1179 H   0  0  0  0  0  0  0  0  0  0  0  0
  2  1  2  0
  3  2  1  0
  4  3  2  0
  5  3  1  0
  6  5  1  0
  7  6  2  0
  8  6  1  0
  8  1  1  0
  9  1  1  0
 11  9  1  0
 11 10  1  0
  2 12  1  0
  5 13  1  0
  8 14  1  0
  9 15  1  0
  9 16  1  0
 10 17  1  0
 10 18  1  0
 10 19  1  0
 11 20  1  0
 11 21  1  0
M  END
>  <score>  (2) 
-6.634

$$$$
=
     RDKit          3D

 21 21  0  0  0  0  0  0  0  0999 V2000
    4.2650   69.6980   66.6980 C   0  0  0  0  0  0  0  0  0  0  0  0
    4.5930   70.2700   67.8650 C   0  0  0  0  0  0  0  0  0  0  0  0
    3.5810   70.3730   68.9350 C   0  0  0  0  0  0  0  0  0  0  0  0
    3.8510   70.8870   70.0140 O   0  0  0  0  0  0  0  0  0  0  0  0
    2.3450   69.8650   68.6410 N   0  0  0  0  0  0  0  0  0  0  0  0
    2.0060   69.2910   67.4520 C   0  0  0  0  0  0  0  0  0  0  0  0
    0.4790   68.6990   67.1650 S   0  0  0  0  0  0  0  0  0  0  0  0
    2.9870   69.2260   66.5040 N   0  0  0  0  0  0  0  0  0  0  0  0
    5.2330   69.5640   65.5510 C   0  0  0  0  0  0  0  0  0  0  0  0
    5.5080   69.2110   63.0700 C   0  0  0  0  0  0  0  0  0  0  0  0
    4.5230   69.2700   64.2280 C   0  0  0  0  0  0  0  0  0  0  0  0
    5.6091   70.6600   68.0244 H   0  0  0  0  0  0  0  0  0  0  0  0
    1.6193   69.9202   69.3698 H   0  0  0  0  0  0  0  0  0  0  0  0
    2.7578   68.8006   65.5944 H   0  0  0  0  0  0  0  0  0  0  0  0
    5.7953   70.5040   65.4502 H   0  0  0  0  0  0  0  0  0  0  0  0
    5.9024   68.7191   65.7705 H   0  0  0  0  0  0  0  0  0  0  0  0
    6.5333   69.1496   63.4636 H   0  0  0  0  0  0  0  0  0  0  0  0
    5.2977   68.3238   62.4546 H   0  0  0  0  0  0  0  0  0  0  0  0
    5.4051   70.1169   62.4546 H   0  0  0  0  0  0  0  0  0  0  0  0
    4.0053   68.3027   64.3070 H   0  0  0  0  0  0  0  0  0  0  0  0
    3.8067   70.0815   64.0319 H   0  0  0  0  0  0  0  0  0  0  0  0
  2  1  2  0
  3  2  1  0
  4  3  2  0
  5  3  1  0
  6  5  1  0
  7  6  2  0
  8  6  1  0
  8  1  1  0
  9  1  1  0
 11  9  1  0
 11 10  1  0
  2 12  1  0
  5 13  1  0
  8 14  1  0
  9 15  1  0
  9 16  1  0
 10 17  1  0
 10 18  1  0
 10 19  1  0
 11 20  1  0
 11 21  1  0
M  END
>  <score>  (3) 
-6.505

$$$$
=
     RDKit          3D

 21 21  0  0  0  0  0  0  0  0999 V2000
    2.8830   68.7310   65.2060 C   0  0  0  0  0  0  0  0  0  0  0  0
    2.2680   68.0500   66.1840 C   0  0  0  0  0  0  0  0  0  0  0  0
    0.8680   67.6170   66.0000 C   0  0  0  0  0  0  0  0  0  0  0  0
    0.2800   66.9910   66.8740 O   0  0  0  0  0  0  0  0  0  0  0  0
    0.2860   67.9610   64.8110 N   0  0  0  0  0  0  0  0  0  0  0  0
    0.9060   68.6610   63.8190 C   0  0  0  0  0  0  0  0  0  0  0  0
    0.1320   69.0470   62.3990 S   0  0  0  0  0  0  0  0  0  0  0  0
    2.2010   69.0310   64.0500 N   0  0  0  0  0  0  0  0  0  0  0  0
    4.3040   69.2180   65.3170 C   0  0  0  0  0  0  0  0  0  0  0  0
    6.0910   70.0860   66.8700 C   0  0  0  0  0  0  0  0  0  0  0  0
    4.6050   69.8080   66.6970 C   0  0  0  0  0  0  0  0  0  0  0  0
    2.8024   67.8156   67.1165 H   0  0  0  0  0  0  0  0  0  0  0  0
   -0.6897   67.6706   64.6540 H   0  0  0  0  0  0  0  0  0  0  0  0
    2.6932   69.5636   63.3185 H   0  0  0  0  0  0  0  0  0  0  0  0
    4.9838   68.3721   65.1371 H   0  0  0  0  0  0  0  0  0  0  0  0
    4.4488   70.0126   64.5703 H   0  0  0  0  0  0  0  0  0  0  0  0
    6.3332   70.1313   67.9421 H   0  0  0  0  0  0  0  0  0  0  0  0
    6.6722   69.2810   66.3965 H   0  0  0  0  0  0  0  0  0  0  0  0
    6.3419   71.0467   66.3965 H   0  0  0  0  0  0  0  0  0  0  0  0
    4.0489   70.7500   66.8125 H   0  0  0  0  0  0  0  0  0  0  0  0
    4.2984   69.0775   67.4601 H   0  0  0  0  0  0  0  0  0  0  0  0
  2  1  2  0
  3  2  1  0
  4  3  2  0
  5  3  1  0
  6  5  1  0
  7  6  2  0
  8  6  1  0
  8  1  1  0
  9  1  1  0
 11  9  1  0
 11 10  1  0
  2 12  1  0
  5 13  1  0
  8 14  1  0
  9 15  1  0
  9 16  1  0
 10 17  1  0
 10 18  1  0
 10 19  1  0
 11 20  1  0
 11 21  1  0
M  END
>  <score>  (4) 
-6.234

$$$$
=
     RDKit          3D

 21 21  0  0  0  0  0  0  0  0999 V2000
    3.5420   68.2350   65.1220 C   0  0  0  0  0  0  0  0  0  0  0  0
    2.2750   68.1810   65.5550 C   0  0  0  0  0  0  0  0  0  0  0  0
    1.5210   66.9160   65.4440 C   0  0  0  0  0  0  0  0  0  0  0  0
    0.3620   66.8340   65.8340 O   0  0  0  0  0  0  0  0  0  0  0  0
    2.1940   65.8650   64.8850 N   0  0  0  0  0  0  0  0  0  0  0  0
    3.4800   65.9190   64.4360 C   0  0  0  0  0  0  0  0  0  0  0  0
    4.2330   64.5990   63.7610 S   0  0  0  0  0  0  0  0  0  0  0  0
    4.1220   67.1180   64.5670 N   0  0  0  0  0  0  0  0  0  0  0  0
    4.3760   69.4880   65.1880 C   0  0  0  0  0  0  0  0  0  0  0  0
    6.1870   70.1020   66.8310 C   0  0  0  0  0  0  0  0  0  0  0  0
    4.6940   69.8940   66.6290 C   0  0  0  0  0  0  0  0  0  0  0  0
    1.7999   69.0726   65.9901 H   0  0  0  0  0  0  0  0  0  0  0  0
    1.6937   64.9690   64.7970 H   0  0  0  0  0  0  0  0  0  0  0  0
    5.0933   67.1893   64.2319 H   0  0  0  0  0  0  0  0  0  0  0  0
    5.3207   69.3137   64.6521 H   0  0  0  0  0  0  0  0  0  0  0  0
    3.7992   70.3030   64.7264 H   0  0  0  0  0  0  0  0  0  0  0  0
    6.4105   70.1331   67.9076 H   0  0  0  0  0  0  0  0  0  0  0  0
    6.7391   69.2721   66.3657 H   0  0  0  0  0  0  0  0  0  0  0  0
    6.4912   71.0512   66.3657 H   0  0  0  0  0  0  0  0  0  0  0  0
    4.1675   70.8316   66.8610 H   0  0  0  0  0  0  0  0  0  0  0  0
    4.3639   69.0849   67.2972 H   0  0  0  0  0  0  0  0  0  0  0  0
  2  1  2  0
  3  2  1  0
  4  3  2  0
  5  3  1  0
  6  5  1  0
  7  6  2  0
  8  6  1  0
  8  1  1  0
  9  1  1  0
 11  9  1  0
 11 10  1  0
  2 12  1  0
  5 13  1  0
  8 14  1  0
  9 15  1  0
  9 16  1  0
 10 17  1  0
 10 18  1  0
 10 19  1  0
 11 20  1  0
 11 21  1  0
M  END
>  <score>  (5) 
-6.117

$$$$
=
     RDKit          3D

 21 21  0  0  0  0  0  0  0  0999 V2000
    3.3790   69.1370   65.7130 C   0  0  0  0  0  0  0  0  0  0  0  0
    3.7670   69.0690   64.4320 C   0  0  0  0  0  0  0  0  0  0  0  0
    5.1340   69.4900   64.0630 C   0  0  0  0  0  0  0  0  0  0  0  0
    5.5200   69.4360   62.9010 O   0  0  0  0  0  0  0  0  0  0  0  0
    5.9210   69.9360   65.0890 N   0  0  0  0  0  0  0  0  0  0  0  0
    5.5260   70.0140   66.3920 C   0  0  0  0  0  0  0  0  0  0  0  0
    6.5380   70.5720   67.5860 S   0  0  0  0  0  0  0  0  0  0  0  0
    4.2500   69.6090   66.6670 N   0  0  0  0  0  0  0  0  0  0  0  0
    2.0000   68.7390   66.1720 C   0  0  0  0  0  0  0  0  0  0  0  0
    1.2010   67.7880   68.3670 C   0  0  0  0  0  0  0  0  0  0  0  0
    1.7900   69.0030   67.6650 C   0  0  0  0  0  0  0  0  0  0  0  0
    3.0729   68.7025   63.6613 H   0  0  0  0  0  0  0  0  0  0  0  0
    6.8802   70.2342   64.8613 H   0  0  0  0  0  0  0  0  0  0  0  0
    3.9227   69.6601   67.6423 H   0  0  0  0  0  0  0  0  0  0  0  0
    1.2566   69.3157   65.6021 H   0  0  0  0  0  0  0  0  0  0  0  0
    1.8852   67.6586   66.0003 H   0  0  0  0  0  0  0  0  0  0  0  0
    1.2678   67.9257   69.4563 H   0  0  0  0  0  0  0  0  0  0  0  0
    0.1466   67.6718   68.0761 H   0  0  0  0  0  0  0  0  0  0  0  0
    1.7629   66.8882   68.0761 H   0  0  0  0  0  0  0  0  0  0  0  0
    2.7590   69.2471   68.1249 H   0  0  0  0  0  0  0  0  0  0  0  0
    1.0846   69.8402   67.7723 H   0  0  0  0  0  0  0  0  0  0  0  0
  2  1  2  0
  3  2  1  0
  4  3  2  0
  5  3  1  0
  6  5  1  0
  7  6  2  0
  8  6  1  0
  8  1  1  0
  9  1  1  0
 11  9  1  0
 11 10  1  0
  2 12  1  0
  5 13  1  0
  8 14  1  0
  9 15  1  0
  9 16  1  0
 10 17  1  0
 10 18  1  0
 10 19  1  0
 11 20  1  0
 11 21  1  0
M  END
>  <score>  (6) 
-6.074

$$$$
=
     RDKit          3D

 21 21  0  0  0  0  0  0  0  0999 V2000
    1.6800   68.4650   64.8070 C   0  0  0  0  0  0  0  0  0  0  0  0
    1.5580   68.7740   63.5080 C   0  0  0  0  0  0  0  0  0  0  0  0
    0.2250   69.0860   62.9560 C   0  0  0  0  0  0  0  0  0  0  0  0
    0.0810   69.3750   61.7740 O   0  0  0  0  0  0  0  0  0  0  0  0
   -0.8180   69.0290   63.8400 N   0  0  0  0  0  0  0  0  0  0  0  0
   -0.6980   68.7070   65.1590 C   0  0  0  0  0  0  0  0  0  0  0  0
   -2.0140   68.6530   66.1740 S   0  0  0  0  0  0  0  0  0  0  0  0
    0.5620   68.4290   65.6080 N   0  0  0  0  0  0  0  0  0  0  0  0
    3.0000   68.1230   65.4460 C   0  0  0  0  0  0  0  0  0  0  0  0
    5.0420   69.4760   64.8460 C   0  0  0  0  0  0  0  0  0  0  0  0
    3.8300   69.3710   65.7600 C   0  0  0  0  0  0  0  0  0  0  0  0
    2.4452   68.7949   62.8581 H   0  0  0  0  0  0  0  0  0  0  0  0
   -1.7600   69.2446   63.4836 H   0  0  0  0  0  0  0  0  0  0  0  0
    0.6814   68.1789   66.6000 H   0  0  0  0  0  0  0  0  0  0  0  0
    2.8098   67.5788   66.3829 H   0  0  0  0  0  0  0  0  0  0  0  0
    3.5706   67.5075   64.7349 H   0  0  0  0  0  0  0  0  0  0  0  0
    5.9547   69.5551   65.4549 H   0  0  0  0  0  0  0  0  0  0  0  0
    5.1013   68.5796   64.2112 H   0  0  0  0  0  0  0  0  0  0  0  0
    4.9462   70.3692   64.2112 H   0  0  0  0  0  0  0  0  0  0  0  0
    3.2007   70.2629   65.6239 H   0  0  0  0  0  0  0  0  0  0  0  0
    4.1849   69.2985   66.7987 H   0  0  0  0  0  0  0  0  0  0  0  0
  2  1  2  0
  3  2  1  0
  4  3  2  0
  5  3  1  0
  6  5  1  0
  7  6  2  0
  8  6  1  0
  8  1  1  0
  9  1  1  0
 11  9  1  0
 11 10  1  0
  2 12  1  0
  5 13  1  0
  8 14  1  0
  9 15  1  0
  9 16  1  0
 10 17  1  0
 10 18  1  0
 10 19  1  0
 11 20  1  0
 11 21  1  0
M  END
>  <score>  (7) 
-5.952

$$$$
=
     RDKit          3D

 21 21  0  0  0  0  0  0  0  0999 V2000
    3.5390   69.4080   66.4480 C   0  0  0  0  0  0  0  0  0  0  0  0
    4.5040   69.8700   67.2560 C   0  0  0  0  0  0  0  0  0  0  0  0
    5.8460   70.1450   66.7030 C   0  0  0  0  0  0  0  0  0  0  0  0
    6.7480   70.5710   67.4150 O   0  0  0  0  0  0  0  0  0  0  0  0
    6.0060   69.8940   65.3680 N   0  0  0  0  0  0  0  0  0  0  0  0
    5.0290   69.4160   64.5460 C   0  0  0  0  0  0  0  0  0  0  0  0
    5.2990   69.1300   62.9310 S   0  0  0  0  0  0  0  0  0  0  0  0
    3.8100   69.1820   65.1190 N   0  0  0  0  0  0  0  0  0  0  0  0
    2.1480   69.0920   66.9330 C   0  0  0  0  0  0  0  0  0  0  0  0
    0.0840   67.6820   66.6040 C   0  0  0  0  0  0  0  0  0  0  0  0
    1.5150   67.9340   66.1570 C   0  0  0  0  0  0  0  0  0  0  0  0
    4.2980   70.0430   68.3226 H   0  0  0  0  0  0  0  0  0  0  0  0
    6.9308   70.0794   64.9541 H   0  0  0  0  0  0  0  0  0  0  0  0
    3.0536   68.8166   64.5229 H   0  0  0  0  0  0  0  0  0  0  0  0
    2.1971   68.8202   67.9977 H   0  0  0  0  0  0  0  0  0  0  0  0
    1.5245   69.9846   66.7765 H   0  0  0  0  0  0  0  0  0  0  0  0
    0.0392   67.6741   67.7031 H   0  0  0  0  0  0  0  0  0  0  0  0
   -0.5671   68.4793   66.2162 H   0  0  0  0  0  0  0  0  0  0  0  0
   -0.2555   66.7102   66.2162 H   0  0  0  0  0  0  0  0  0  0  0  0
    1.5169   68.1787   65.0846 H   0  0  0  0  0  0  0  0  0  0  0  0
    2.1031   67.0250   66.3516 H   0  0  0  0  0  0  0  0  0  0  0  0
  2  1  2  0
  3  2  1  0
  4  3  2  0
  5  3  1  0
  6  5  1  0
  7  6  2  0
  8  6  1  0
  8  1  1  0
  9  1  1  0
 11  9  1  0
 11 10  1  0
  2 12  1  0
  5 13  1  0
  8 14  1  0
  9 15  1  0
  9 16  1  0
 10 17  1  0
 10 18  1  0
 10 19  1  0
 11 20  1  0
 11 21  1  0
M  END
>  <score>  (8) 
-5.869

$$$$
=
     RDKit          3D

 21 21  0  0  0  0  0  0  0  0999 V2000
    3.8050   68.2520   64.4580 C   0  0  0  0  0  0  0  0  0  0  0  0
    3.6740   68.7410   63.2170 C   0  0  0  0  0  0  0  0  0  0  0  0
    3.8270   67.8380   62.0590 C   0  0  0  0  0  0  0  0  0  0  0  0
    3.7090   68.2540   60.9120 O   0  0  0  0  0  0  0  0  0  0  0  0
    4.1060   66.5310   62.3520 N   0  0  0  0  0  0  0  0  0  0  0  0
    4.2490   66.0320   63.6120 C   0  0  0  0  0  0  0  0  0  0  0  0
    4.5940   64.4300   63.8910 S   0  0  0  0  0  0  0  0  0  0  0  0
    4.0950   66.9190   64.6400 N   0  0  0  0  0  0  0  0  0  0  0  0
    3.6760   69.1060   65.6920 C   0  0  0  0  0  0  0  0  0  0  0  0
    5.0320   70.1580   67.5390 C   0  0  0  0  0  0  0  0  0  0  0  0
    4.9960   69.7870   66.0640 C   0  0  0  0  0  0  0  0  0  0  0  0
    3.4540   69.8076   63.0623 H   0  0  0  0  0  0  0  0  0  0  0  0
    4.2158   65.8773   61.5636 H   0  0  0  0  0  0  0  0  0  0  0  0
    4.2018   66.5710   65.6035 H   0  0  0  0  0  0  0  0  0  0  0  0
    2.9168   69.8807   65.5090 H   0  0  0  0  0  0  0  0  0  0  0  0
    3.3863   68.4514   66.5272 H   0  0  0  0  0  0  0  0  0  0  0  0
    4.9436   69.2466   68.1486 H   0  0  0  0  0  0  0  0  0  0  0  0
    5.9832   70.6611   67.7674 H   0  0  0  0  0  0  0  0  0  0  0  0
    4.1953   70.8346   67.7674 H   0  0  0  0  0  0  0  0  0  0  0  0
    5.8270   69.0996   65.8473 H   0  0  0  0  0  0  0  0  0  0  0  0
    5.0887   70.7096   65.4723 H   0  0  0  0  0  0  0  0  0  0  0  0
  2  1  2  0
  3  2  1  0
  4  3  2  0
  5  3  1  0
  6  5  1  0
  7  6  2  0
  8  6  1  0
  8  1  1  0
  9  1  1  0
 11  9  1  0
 11 10  1  0
  2 12  1  0
  5 13  1  0
  8 14  1  0
  9 15  1  0
  9 16  1  0
 10 17  1  0
 10 18  1  0
 10 19  1  0
 11 20  1  0
 11 21  1  0
M  END
>  <score>  (9) 
-5.664

$$$$
