=
     RDKit          3D

 19 20  0  0  0  0  0  0  0  0999 V2000
    6.9810   71.0600   68.6580 Cl  0  0  0  0  0  0  0  0  0  0  0  0
    5.7060   70.4470   67.6760 C   0  0  0  0  0  0  0  0  0  0  0  0
    4.4410   70.2120   68.2550 C   0  0  0  0  0  0  0  0  0  0  0  0
    3.3680   69.7130   67.4930 C   0  0  0  0  0  0  0  0  0  0  0  0
    2.0280   69.4650   68.1130 C   0  0  0  0  0  0  0  0  0  0  0  0
    3.6210   69.4650   66.1540 C   0  0  0  0  0  0  0  0  0  0  0  0
    4.8790   69.7030   65.5980 C   0  0  0  0  0  0  0  0  0  0  0  0
    5.9430   70.1930   66.3270 C   0  0  0  0  0  0  0  0  0  0  0  0
    4.8030   69.3410   64.1830 C   0  0  0  0  0  0  0  0  0  0  0  0
    5.6910   69.4060   63.3640 O   0  0  0  0  0  0  0  0  0  0  0  0
    3.3440   68.8570   63.9640 C   0  0  0  0  0  0  0  0  0  0  0  0
    2.8620   68.4650   62.9260 O   0  0  0  0  0  0  0  0  0  0  0  0
    2.7350   68.9730   65.1970 N   0  0  0  0  0  0  0  0  0  0  0  0
    4.2903   70.4231   69.3240 H   0  0  0  0  0  0  0  0  0  0  0  0
    2.1221   69.4824   69.2088 H   0  0  0  0  0  0  0  0  0  0  0  0
    1.3252   70.2483   67.7929 H   0  0  0  0  0  0  0  0  0  0  0  0
    1.6521   68.4820   67.7929 H   0  0  0  0  0  0  0  0  0  0  0  0
    6.9260   70.3735   65.8675 H   0  0  0  0  0  0  0  0  0  0  0  0
    1.7526   68.7277   65.3857 H   0  0  0  0  0  0  0  0  0  0  0  0
  2  1  1  0
  3  2  2  0
  4  3  1  0
  5  4  1  0
  6  4  2  0
  7  6  1  0
  8  7  2  0
  8  2  1  0
  9  7  1  0
 10  9  2  0
 11  9  1  0
 12 11  2  0
 13 11  1  0
 13  6  1  0
  3 14  1  0
  5 15  1  0
  5 16  1  0
  5 17  1  0
  8 18  1  0
 13 19  1  0
M  END
>  <score>  (1) 
-8.288

$$$$
=
     RDKit          3D

 19 20  0  0  0  0  0  0  0  0999 V2000
    6.1650   70.8690   68.7950 Cl  0  0  0  0  0  0  0  0  0  0  0  0
    5.1170   70.2310   67.5860 C   0  0  0  0  0  0  0  0  0  0  0  0
    5.6050   70.0570   66.2730 C   0  0  0  0  0  0  0  0  0  0  0  0
    4.7880   69.5400   65.2510 C   0  0  0  0  0  0  0  0  0  0  0  0
    5.3100   69.3570   63.8600 C   0  0  0  0  0  0  0  0  0  0  0  0
    3.4880   69.2140   65.6010 C   0  0  0  0  0  0  0  0  0  0  0  0
    3.0230   69.3930   66.9060 C   0  0  0  0  0  0  0  0  0  0  0  0
    3.8080   69.8980   67.9220 C   0  0  0  0  0  0  0  0  0  0  0  0
    1.6270   68.9550   66.9320 C   0  0  0  0  0  0  0  0  0  0  0  0
    0.8800   68.9560   67.8830 O   0  0  0  0  0  0  0  0  0  0  0  0
    1.3180   68.4930   65.4820 C   0  0  0  0  0  0  0  0  0  0  0  0
    0.2670   68.0540   65.0740 O   0  0  0  0  0  0  0  0  0  0  0  0
    2.4900   68.6910   64.7810 N   0  0  0  0  0  0  0  0  0  0  0  0
    6.6454   70.3312   66.0442 H   0  0  0  0  0  0  0  0  0  0  0  0
    6.3473   68.9934   63.9025 H   0  0  0  0  0  0  0  0  0  0  0  0
    4.6860   68.6240   63.3277 H   0  0  0  0  0  0  0  0  0  0  0  0
    5.2803   70.3192   63.3277 H   0  0  0  0  0  0  0  0  0  0  0  0
    3.4202   70.0304   68.9428 H   0  0  0  0  0  0  0  0  0  0  0  0
    2.6115   68.4794   63.7803 H   0  0  0  0  0  0  0  0  0  0  0  0
  2  1  1  0
  3  2  2  0
  4  3  1  0
  5  4  1  0
  6  4  2  0
  7  6  1  0
  8  7  2  0
  8  2  1  0
  9  7  1  0
 10  9  2  0
 11  9  1  0
 12 11  2  0
 13 11  1  0
 13  6  1  0
  3 14  1  0
  5 15  1  0
  5 16  1  0
  5 17  1  0
  8 18  1  0
 13 19  1  0
M  END
>  <score>  (2) 
-8.287

$$$$
=
     RDKit          3D

 19 20  0  0  0  0  0  0  0  0999 V2000
    0.5810   68.4540   66.2330 Cl  0  0  0  0  0  0  0  0  0  0  0  0
    2.1970   69.0200   66.4120 C   0  0  0  0  0  0  0  0  0  0  0  0
    3.0730   68.9640   65.3070 C   0  0  0  0  0  0  0  0  0  0  0  0
    4.4030   69.4140   65.4040 C   0  0  0  0  0  0  0  0  0  0  0  0
    5.3290   69.3520   64.2290 C   0  0  0  0  0  0  0  0  0  0  0  0
    4.8020   69.9110   66.6340 C   0  0  0  0  0  0  0  0  0  0  0  0
    3.9210   69.9590   67.7150 C   0  0  0  0  0  0  0  0  0  0  0  0
    2.6130   69.5230   67.6410 C   0  0  0  0  0  0  0  0  0  0  0  0
    4.6520   70.5330   68.8460 C   0  0  0  0  0  0  0  0  0  0  0  0
    4.2310   70.7360   69.9600 O   0  0  0  0  0  0  0  0  0  0  0  0
    6.0790   70.8200   68.3030 C   0  0  0  0  0  0  0  0  0  0  0  0
    7.0020   71.3000   68.9200 O   0  0  0  0  0  0  0  0  0  0  0  0
    6.0530   70.4140   66.9840 N   0  0  0  0  0  0  0  0  0  0  0  0
    2.7090   68.5605   64.3506 H   0  0  0  0  0  0  0  0  0  0  0  0
    6.3678   69.2824   64.5841 H   0  0  0  0  0  0  0  0  0  0  0  0
    5.0897   68.4679   63.6199 H   0  0  0  0  0  0  0  0  0  0  0  0
    5.2097   70.2601   63.6199 H   0  0  0  0  0  0  0  0  0  0  0  0
    1.9362   69.5707   68.5069 H   0  0  0  0  0  0  0  0  0  0  0  0
    6.8555   70.4751   66.3412 H   0  0  0  0  0  0  0  0  0  0  0  0
  2  1  1  0
  3  2  2  0
  4  3  1  0
  5  4  1  0
  6  4  2  0
  7  6  1  0
  8  7  2  0
  8  2  1  0
  9  7  1  0
 10  9  2  0
 11  9  1  0
 12 11  2  0
 13 11  1  0
 13  6  1  0
  3 14  1  0
  5 15  1  0
  5 16  1  0
  5 17  1  0
  8 18  1  0
 13 19  1  0
M  END
>  <score>  (3) 
-8.265

$$$$
=
     RDKit          3D

 19 20  0  0  0  0  0  0  0  0999 V2000
    0.8480   68.8700   67.9210 Cl  0  0  0  0  0  0  0  0  0  0  0  0
    2.2600   69.1060   66.9640 C   0  0  0  0  0  0  0  0  0  0  0  0
    3.4200   69.6390   67.5670 C   0  0  0  0  0  0  0  0  0  0  0  0
    4.5980   69.8500   66.8260 C   0  0  0  0  0  0  0  0  0  0  0  0
    5.8260   70.4160   67.4700 C   0  0  0  0  0  0  0  0  0  0  0  0
    4.5570   69.5100   65.4840 C   0  0  0  0  0  0  0  0  0  0  0  0
    3.4000   68.9830   64.9060 C   0  0  0  0  0  0  0  0  0  0  0  0
    2.2350   68.7680   65.6140 C   0  0  0  0  0  0  0  0  0  0  0  0
    3.6950   68.7360   63.4940 C   0  0  0  0  0  0  0  0  0  0  0  0
    2.9460   68.2840   62.6610 O   0  0  0  0  0  0  0  0  0  0  0  0
    5.1710   69.1810   63.3030 C   0  0  0  0  0  0  0  0  0  0  0  0
    5.8090   69.1420   62.2750 O   0  0  0  0  0  0  0  0  0  0  0  0
    5.5800   69.6210   64.5460 N   0  0  0  0  0  0  0  0  0  0  0  0
    3.4029   69.8944   68.6368 H   0  0  0  0  0  0  0  0  0  0  0  0
    5.7216   70.3679   68.5640 H   0  0  0  0  0  0  0  0  0  0  0  0
    6.7051   69.8322   67.1595 H   0  0  0  0  0  0  0  0  0  0  0  0
    5.9532   71.4636   67.1595 H   0  0  0  0  0  0  0  0  0  0  0  0
    1.3353   68.3520   65.1371 H   0  0  0  0  0  0  0  0  0  0  0  0
    6.5212   69.9847   64.7529 H   0  0  0  0  0  0  0  0  0  0  0  0
  2  1  1  0
  3  2  2  0
  4  3  1  0
  5  4  1  0
  6  4  2  0
  7  6  1  0
  8  7  2  0
  8  2  1  0
  9  7  1  0
 10  9  2  0
 11  9  1  0
 12 11  2  0
 13 11  1  0
 13  6  1  0
  3 14  1  0
  5 15  1  0
  5 16  1  0
  5 17  1  0
  8 18  1  0
 13 19  1  0
M  END
>  <score>  (4) 
-8.078

$$$$
=
     RDKit          3D

 19 20  0  0  0  0  0  0  0  0999 V2000
    5.5540   69.8550   67.0830 Cl  0  0  0  0  0  0  0  0  0  0  0  0
    4.5580   69.4600   65.7350 C   0  0  0  0  0  0  0  0  0  0  0  0
    5.1340   69.3980   64.4470 C   0  0  0  0  0  0  0  0  0  0  0  0
    4.3610   69.0790   63.3150 C   0  0  0  0  0  0  0  0  0  0  0  0
    4.9770   69.0150   61.9520 C   0  0  0  0  0  0  0  0  0  0  0  0
    3.0160   68.8330   63.5320 C   0  0  0  0  0  0  0  0  0  0  0  0
    2.4640   68.8980   64.8120 C   0  0  0  0  0  0  0  0  0  0  0  0
    3.2040   69.2090   65.9350 C   0  0  0  0  0  0  0  0  0  0  0  0
    1.0400   68.5870   64.6880 C   0  0  0  0  0  0  0  0  0  0  0  0
    0.2220   68.5430   65.5770 O   0  0  0  0  0  0  0  0  0  0  0  0
    0.8110   68.3270   63.1740 C   0  0  0  0  0  0  0  0  0  0  0  0
   -0.2360   68.0360   62.6420 O   0  0  0  0  0  0  0  0  0  0  0  0
    2.0480   68.5000   62.5860 N   0  0  0  0  0  0  0  0  0  0  0  0
    6.2079   69.6031   64.3262 H   0  0  0  0  0  0  0  0  0  0  0  0
    6.0670   68.9018   62.0472 H   0  0  0  0  0  0  0  0  0  0  0  0
    4.5655   68.1548   61.4037 H   0  0  0  0  0  0  0  0  0  0  0  0
    4.7511   69.9414   61.4037 H   0  0  0  0  0  0  0  0  0  0  0  0
    2.7476   69.2559   66.9348 H   0  0  0  0  0  0  0  0  0  0  0  0
    2.2320   68.3963   61.5779 H   0  0  0  0  0  0  0  0  0  0  0  0
  2  1  1  0
  3  2  2  0
  4  3  1  0
  5  4  1  0
  6  4  2  0
  7  6  1  0
  8  7  2  0
  8  2  1  0
  9  7  1  0
 10  9  2  0
 11  9  1  0
 12 11  2  0
 13 11  1  0
 13  6  1  0
  3 14  1  0
  5 15  1  0
  5 16  1  0
  5 17  1  0
  8 18  1  0
 13 19  1  0
M  END
>  <score>  (5) 
-7.942

$$$$
=
     RDKit          3D

 19 20  0  0  0  0  0  0  0  0999 V2000
    0.7070   68.6980   67.9760 Cl  0  0  0  0  0  0  0  0  0  0  0  0
    1.6470   68.8130   66.5370 C   0  0  0  0  0  0  0  0  0  0  0  0
    3.0270   69.0930   66.6360 C   0  0  0  0  0  0  0  0  0  0  0  0
    3.8360   69.1960   65.4890 C   0  0  0  0  0  0  0  0  0  0  0  0
    5.2990   69.4940   65.5990 C   0  0  0  0  0  0  0  0  0  0  0  0
    3.2090   69.0090   64.2680 C   0  0  0  0  0  0  0  0  0  0  0  0
    1.8430   68.7320   64.1910 C   0  0  0  0  0  0  0  0  0  0  0  0
    1.0320   68.6260   65.3020 C   0  0  0  0  0  0  0  0  0  0  0  0
    1.5090   68.5930   62.7730 C   0  0  0  0  0  0  0  0  0  0  0  0
    0.4230   68.3520   62.3000 O   0  0  0  0  0  0  0  0  0  0  0  0
    2.8450   68.8210   62.0150 C   0  0  0  0  0  0  0  0  0  0  0  0
    3.0090   68.7920   60.8170 O   0  0  0  0  0  0  0  0  0  0  0  0
    3.7830   69.0580   63.0000 N   0  0  0  0  0  0  0  0  0  0  0  0
    3.4789   69.2334   67.6290 H   0  0  0  0  0  0  0  0  0  0  0  0
    5.5826   69.5518   66.6602 H   0  0  0  0  0  0  0  0  0  0  0  0
    5.8739   68.6945   65.1088 H   0  0  0  0  0  0  0  0  0  0  0  0
    5.5154   70.4547   65.1088 H   0  0  0  0  0  0  0  0  0  0  0  0
   -0.0423   68.4057   65.2167 H   0  0  0  0  0  0  0  0  0  0  0  0
    4.7794   69.2468   62.8201 H   0  0  0  0  0  0  0  0  0  0  0  0
  2  1  1  0
  3  2  2  0
  4  3  1  0
  5  4  1  0
  6  4  2  0
  7  6  1  0
  8  7  2  0
  8  2  1  0
  9  7  1  0
 10  9  2  0
 11  9  1  0
 12 11  2  0
 13 11  1  0
 13  6  1  0
  3 14  1  0
  5 15  1  0
  5 16  1  0
  5 17  1  0
  8 18  1  0
 13 19  1  0
M  END
>  <score>  (6) 
-7.514

$$$$
=
     RDKit          3D

 19 20  0  0  0  0  0  0  0  0999 V2000
    0.0700   68.3330   62.5490 Cl  0  0  0  0  0  0  0  0  0  0  0  0
    1.1500   68.6350   63.8550 C   0  0  0  0  0  0  0  0  0  0  0  0
    0.6650   68.5710   65.1790 C   0  0  0  0  0  0  0  0  0  0  0  0
    1.5100   68.8090   66.2800 C   0  0  0  0  0  0  0  0  0  0  0  0
    0.9910   68.7400   67.6820 C   0  0  0  0  0  0  0  0  0  0  0  0
    2.8320   69.1080   65.9940 C   0  0  0  0  0  0  0  0  0  0  0  0
    3.2930   69.1660   64.6780 C   0  0  0  0  0  0  0  0  0  0  0  0
    2.4830   68.9350   63.5850 C   0  0  0  0  0  0  0  0  0  0  0  0
    4.7170   69.5000   64.7320 C   0  0  0  0  0  0  0  0  0  0  0  0
    5.4690   69.6410   63.7960 O   0  0  0  0  0  0  0  0  0  0  0  0
    5.0470   69.6340   66.2430 C   0  0  0  0  0  0  0  0  0  0  0  0
    6.1230   69.9030   66.7260 O   0  0  0  0  0  0  0  0  0  0  0  0
    3.8570   69.3810   66.8970 N   0  0  0  0  0  0  0  0  0  0  0  0
   -0.3940   68.3305   65.3542 H   0  0  0  0  0  0  0  0  0  0  0  0
    1.8269   68.8511   68.3883 H   0  0  0  0  0  0  0  0  0  0  0  0
    0.2639   69.5494   67.8441 H   0  0  0  0  0  0  0  0  0  0  0  0
    0.5007   67.7688   67.8441 H   0  0  0  0  0  0  0  0  0  0  0  0
    2.8692   68.9851   62.5562 H   0  0  0  0  0  0  0  0  0  0  0  0
    3.7423   69.3927   67.9205 H   0  0  0  0  0  0  0  0  0  0  0  0
  2  1  1  0
  3  2  2  0
  4  3  1  0
  5  4  1  0
  6  4  2  0
  7  6  1  0
  8  7  2  0
  8  2  1  0
  9  7  1  0
 10  9  2  0
 11  9  1  0
 12 11  2  0
 13 11  1  0
 13  6  1  0
  3 14  1  0
  5 15  1  0
  5 16  1  0
  5 17  1  0
  8 18  1  0
 13 19  1  0
M  END
>  <score>  (7) 
-7.025

$$$$
=
     RDKit          3D

 19 20  0  0  0  0  0  0  0  0999 V2000
    1.1550   67.3380   68.8720 Cl  0  0  0  0  0  0  0  0  0  0  0  0
    0.5200   67.8540   67.3560 C   0  0  0  0  0  0  0  0  0  0  0  0
   -0.8680   68.0780   67.2300 C   0  0  0  0  0  0  0  0  0  0  0  0
   -1.4330   68.5000   66.0120 C   0  0  0  0  0  0  0  0  0  0  0  0
   -2.9060   68.7370   65.8840 C   0  0  0  0  0  0  0  0  0  0  0  0
   -0.5600   68.6810   64.9530 C   0  0  0  0  0  0  0  0  0  0  0  0
    0.8100   68.4540   65.0960 C   0  0  0  0  0  0  0  0  0  0  0  0
    1.3850   68.0410   66.2810 C   0  0  0  0  0  0  0  0  0  0  0  0
    1.4340   68.7360   63.8030 C   0  0  0  0  0  0  0  0  0  0  0  0
    2.6080   68.6550   63.5260 O   0  0  0  0  0  0  0  0  0  0  0  0
    0.2660   69.1590   62.8710 C   0  0  0  0  0  0  0  0  0  0  0  0
    0.3510   69.4770   61.7070 O   0  0  0  0  0  0  0  0  0  0  0  0
   -0.8670   69.0900   63.6570 N   0  0  0  0  0  0  0  0  0  0  0  0
   -1.5209   67.9196   68.1010 H   0  0  0  0  0  0  0  0  0  0  0  0
   -3.3542   68.8091   66.8860 H   0  0  0  0  0  0  0  0  0  0  0  0
   -3.0803   69.6747   65.3360 H   0  0  0  0  0  0  0  0  0  0  0  0
   -3.3656   67.9013   65.3360 H   0  0  0  0  0  0  0  0  0  0  0  0
    2.4677   67.8690   66.3712 H   0  0  0  0  0  0  0  0  0  0  0  0
   -1.8172   69.3123   63.3276 H   0  0  0  0  0  0  0  0  0  0  0  0
  2  1  1  0
  3  2  2  0
  4  3  1  0
  5  4  1  0
  6  4  2  0
  7  6  1  0
  8  7  2  0
  8  2  1  0
  9  7  1  0
 10  9  2  0
 11  9  1  0
 12 11  2  0
 13 11  1  0
 13  6  1  0
  3 14  1  0
  5 15  1  0
  5 16  1  0
  5 17  1  0
  8 18  1  0
 13 19  1  0
M  END
>  <score>  (8) 
-6.906

$$$$
=
     RDKit          3D

 19 20  0  0  0  0  0  0  0  0999 V2000
    0.4490   68.6470   67.7610 Cl  0  0  0  0  0  0  0  0  0  0  0  0
    1.2760   68.7200   66.2520 C   0  0  0  0  0  0  0  0  0  0  0  0
    0.5320   68.6470   65.0540 C   0  0  0  0  0  0  0  0  0  0  0  0
    1.1630   68.7030   63.7970 C   0  0  0  0  0  0  0  0  0  0  0  0
    0.3710   68.6240   62.5300 C   0  0  0  0  0  0  0  0  0  0  0  0
    2.5420   68.8320   63.8000 C   0  0  0  0  0  0  0  0  0  0  0  0
    3.2600   68.9030   64.9950 C   0  0  0  0  0  0  0  0  0  0  0  0
    2.6620   68.8510   66.2370 C   0  0  0  0  0  0  0  0  0  0  0  0
    4.6750   69.0350   64.6440 C   0  0  0  0  0  0  0  0  0  0  0  0
    5.6100   69.1260   65.4040 O   0  0  0  0  0  0  0  0  0  0  0  0
    4.7100   69.0340   63.0910 C   0  0  0  0  0  0  0  0  0  0  0  0
    5.6930   69.1250   62.3920 O   0  0  0  0  0  0  0  0  0  0  0  0
    3.3930   68.9090   62.6990 N   0  0  0  0  0  0  0  0  0  0  0  0
   -0.5621   68.5444   65.1041 H   0  0  0  0  0  0  0  0  0  0  0  0
   -0.6969   68.5175   62.7712 H   0  0  0  0  0  0  0  0  0  0  0  0
    0.5247   69.5419   61.9437 H   0  0  0  0  0  0  0  0  0  0  0  0
    0.7030   67.7545   61.9437 H   0  0  0  0  0  0  0  0  0  0  0  0
    3.2487   68.9099   67.1656 H   0  0  0  0  0  0  0  0  0  0  0  0
    3.0791   68.8767   61.7185 H   0  0  0  0  0  0  0  0  0  0  0  0
  2  1  1  0
  3  2  2  0
  4  3  1  0
  5  4  1  0
  6  4  2  0
  7  6  1  0
  8  7  2  0
  8  2  1  0
  9  7  1  0
 10  9  2  0
 11  9  1  0
 12 11  2  0
 13 11  1  0
 13  6  1  0
  3 14  1  0
  5 15  1  0
  5 16  1  0
  5 17  1  0
  8 18  1  0
 13 19  1  0
M  END
>  <score>  (9) 
-6.836

$$$$
