=
     RDKit          3D

 38 39  0  0  0  0  0  0  0  0999 V2000
    5.5010   69.8170   64.1290 O   0  0  0  0  0  0  0  0  0  0  0  0
    4.8550   69.3230   65.0450 C   0  0  0  0  0  0  0  0  0  0  0  0
    5.0890   69.6010   66.5240 C   0  0  0  0  0  0  0  0  0  0  0  0
    6.1970   70.6480   66.7420 C   0  0  0  0  0  0  0  0  0  0  0  0
    6.0530   71.4300   68.0520 C   0  0  0  0  0  0  0  0  0  0  0  0
    5.3580   70.6120   69.1300 C   0  0  0  0  0  0  0  0  0  0  0  0
    3.9470   70.2010   68.7070 C   0  0  0  0  0  0  0  0  0  0  0  0
    3.7850   70.0380   67.1930 C   0  0  0  0  0  0  0  0  0  0  0  0
    3.7140   68.3680   64.7040 C   0  0  0  0  0  0  0  0  0  0  0  0
    3.7990   67.1970   65.0520 O   0  0  0  0  0  0  0  0  0  0  0  0
    2.5270   68.9640   63.9620 C   0  0  0  0  0  0  0  0  0  0  0  0
    1.2160   68.4930   64.6030 C   0  0  0  0  0  0  0  0  0  0  0  0
   -0.0030   69.0170   63.8480 C   0  0  0  0  0  0  0  0  0  0  0  0
    0.0500   68.6580   62.3670 C   0  0  0  0  0  0  0  0  0  0  0  0
    1.3520   69.1250   61.7240 C   0  0  0  0  0  0  0  0  0  0  0  0
    2.5690   68.5910   62.4740 C   0  0  0  0  0  0  0  0  0  0  0  0
    5.4313   68.6663   66.9920 H   0  0  0  0  0  0  0  0  0  0  0  0
    7.1676   70.1305   66.7508 H   0  0  0  0  0  0  0  0  0  0  0  0
    6.1186   71.3763   65.9213 H   0  0  0  0  0  0  0  0  0  0  0  0
    7.0545   71.7112   68.4098 H   0  0  0  0  0  0  0  0  0  0  0  0
    5.4382   72.3197   67.8510 H   0  0  0  0  0  0  0  0  0  0  0  0
    5.9494   69.7056   69.3265 H   0  0  0  0  0  0  0  0  0  0  0  0
    5.2775   71.2339   70.0337 H   0  0  0  0  0  0  0  0  0  0  0  0
    3.7050   69.2418   69.1881 H   0  0  0  0  0  0  0  0  0  0  0  0
    3.2681   71.0081   69.0195 H   0  0  0  0  0  0  0  0  0  0  0  0
    3.0132   69.2790   66.9976 H   0  0  0  0  0  0  0  0  0  0  0  0
    3.4969   71.0134   66.7739 H   0  0  0  0  0  0  0  0  0  0  0  0
    2.5821   70.0601   64.0364 H   0  0  0  0  0  0  0  0  0  0  0  0
    1.1922   67.3933   64.5986 H   0  0  0  0  0  0  0  0  0  0  0  0
    1.1770   68.8845   65.6302 H   0  0  0  0  0  0  0  0  0  0  0  0
   -0.9103   68.5779   64.2884 H   0  0  0  0  0  0  0  0  0  0  0  0
   -0.0125   70.1136   63.9336 H   0  0  0  0  0  0  0  0  0  0  0  0
   -0.0292   67.5660   62.2610 H   0  0  0  0  0  0  0  0  0  0  0  0
   -0.7855   69.1627   61.8598 H   0  0  0  0  0  0  0  0  0  0  0  0
    1.3865   68.7657   60.6849 H   0  0  0  0  0  0  0  0  0  0  0  0
    1.3796   70.2241   61.7594 H   0  0  0  0  0  0  0  0  0  0  0  0
    2.5921   67.4951   62.3817 H   0  0  0  0  0  0  0  0  0  0  0  0
    3.4695   69.0428   62.0324 H   0  0  0  0  0  0  0  0  0  0  0  0
  2  1  2  0
  3  2  1  0
  4  3  1  0
  5  4  1  0
  6  5  1  0
  7  6  1  0
  8  7  1  0
  8  3  1  0
  9  2  1  0
 10  9  2  0
 11  9  1  0
 12 11  1  0
 13 12  1  0
 14 13  1  0
 15 14  1  0
 16 15  1  0
 16 11  1  0
  3 17  1  0
  4 18  1  0
  4 19  1  0
  5 20  1  0
  5 21  1  0
  6 22  1  0
  6 23  1  0
  7 24  1  0
  7 25  1  0
  8 26  1  0
  8 27  1  0
 11 28  1  0
 12 29  1  0
 12 30  1  0
 13 31  1  0
 13 32  1  0
 14 33  1  0
 14 34  1  0
 15 35  1  0
 15 36  1  0
 16 37  1  0
 16 38  1  0
M  END
>  <score>  (1) 
-8.224

$$$$
=
     RDKit          3D

 38 39  0  0  0  0  0  0  0  0999 V2000
    1.5730   68.6470   67.9680 O   0  0  0  0  0  0  0  0  0  0  0  0
    2.2720   68.7910   66.9720 C   0  0  0  0  0  0  0  0  0  0  0  0
    3.4790   69.7150   66.8820 C   0  0  0  0  0  0  0  0  0  0  0  0
    3.9610   70.1670   68.2740 C   0  0  0  0  0  0  0  0  0  0  0  0
    5.4510   70.5210   68.3230 C   0  0  0  0  0  0  0  0  0  0  0  0
    5.9610   71.0270   66.9820 C   0  0  0  0  0  0  0  0  0  0  0  0
    5.7940   69.9790   65.8800 C   0  0  0  0  0  0  0  0  0  0  0  0
    4.6100   69.0360   66.1070 C   0  0  0  0  0  0  0  0  0  0  0  0
    1.9400   67.9820   65.7220 C   0  0  0  0  0  0  0  0  0  0  0  0
    1.8240   66.7660   65.8190 O   0  0  0  0  0  0  0  0  0  0  0  0
    1.7560   68.7670   64.4320 C   0  0  0  0  0  0  0  0  0  0  0  0
    0.2670   68.8560   64.0790 C   0  0  0  0  0  0  0  0  0  0  0  0
    0.0410   69.5820   62.7550 C   0  0  0  0  0  0  0  0  0  0  0  0
    0.8430   68.9530   61.6210 C   0  0  0  0  0  0  0  0  0  0  0  0
    2.3260   68.8630   61.9660 C   0  0  0  0  0  0  0  0  0  0  0  0
    2.5490   68.1270   63.2840 C   0  0  0  0  0  0  0  0  0  0  0  0
    3.1693   70.6192   66.3376 H   0  0  0  0  0  0  0  0  0  0  0  0
    3.3829   71.0545   68.5708 H   0  0  0  0  0  0  0  0  0  0  0  0
    3.8084   69.3197   68.9587 H   0  0  0  0  0  0  0  0  0  0  0  0
    5.6053   71.3040   69.0800 H   0  0  0  0  0  0  0  0  0  0  0  0
    6.0091   69.6075   68.5760 H   0  0  0  0  0  0  0  0  0  0  0  0
    5.3970   71.9295   66.7038 H   0  0  0  0  0  0  0  0  0  0  0  0
    7.0337   71.2480   67.0848 H   0  0  0  0  0  0  0  0  0  0  0  0
    5.6447   70.5009   64.9233 H   0  0  0  0  0  0  0  0  0  0  0  0
    6.7040   69.3610   65.8813 H   0  0  0  0  0  0  0  0  0  0  0  0
    4.2246   68.7079   65.1304 H   0  0  0  0  0  0  0  0  0  0  0  0
    4.9647   68.1811   66.7015 H   0  0  0  0  0  0  0  0  0  0  0  0
    2.1444   69.7849   64.5834 H   0  0  0  0  0  0  0  0  0  0  0  0
   -0.1420   67.8378   64.0012 H   0  0  0  0  0  0  0  0  0  0  0  0
   -0.2392   69.4257   64.8723 H   0  0  0  0  0  0  0  0  0  0  0  0
   -1.0286   69.5372   62.5023 H   0  0  0  0  0  0  0  0  0  0  0  0
    0.3755   70.6231   62.8742 H   0  0  0  0  0  0  0  0  0  0  0  0
    0.4585   67.9401   61.4307 H   0  0  0  0  0  0  0  0  0  0  0  0
    0.7347   69.5878   60.7292 H   0  0  0  0  0  0  0  0  0  0  0  0
    2.8480   68.3232   61.1622 H   0  0  0  0  0  0  0  0  0  0  0  0
    2.7191   69.8851   62.0702 H   0  0  0  0  0  0  0  0  0  0  0  0
    2.2271   67.0816   63.1676 H   0  0  0  0  0  0  0  0  0  0  0  0
    3.6191   68.1842   63.5323 H   0  0  0  0  0  0  0  0  0  0  0  0
  2  1  2  0
  3  2  1  0
  4  3  1  0
  5  4  1  0
  6  5  1  0
  7  6  1  0
  8  7  1  0
  8  3  1  0
  9  2  1  0
 10  9  2  0
 11  9  1  0
 12 11  1  0
 13 12  1  0
 14 13  1  0
 15 14  1  0
 16 15  1  0
 16 11  1  0
  3 17  1  0
  4 18  1  0
  4 19  1  0
  5 20  1  0
  5 21  1  0
  6 22  1  0
  6 23  1  0
  7 24  1  0
  7 25  1  0
  8 26  1  0
  8 27  1  0
 11 28  1  0
 12 29  1  0
 12 30  1  0
 13 31  1  0
 13 32  1  0
 14 33  1  0
 14 34  1  0
 15 35  1  0
 15 36  1  0
 16 37  1  0
 16 38  1  0
M  END
>  <score>  (2) 
-7.819

$$$$
=
     RDKit          3D

 38 39  0  0  0  0  0  0  0  0999 V2000
    1.0900   69.3730   64.1380 O   0  0  0  0  0  0  0  0  0  0  0  0
    1.3810   68.5850   65.0300 C   0  0  0  0  0  0  0  0  0  0  0  0
    0.3730   67.8360   65.8920 C   0  0  0  0  0  0  0  0  0  0  0  0
    0.9780   67.4100   67.2420 C   0  0  0  0  0  0  0  0  0  0  0  0
   -0.0600   67.2590   68.3600 C   0  0  0  0  0  0  0  0  0  0  0  0
   -1.4270   66.8700   67.8190 C   0  0  0  0  0  0  0  0  0  0  0  0
   -1.9730   67.9200   66.8500 C   0  0  0  0  0  0  0  0  0  0  0  0
   -0.8820   68.6860   66.0990 C   0  0  0  0  0  0  0  0  0  0  0  0
    2.8550   68.3040   65.3070 C   0  0  0  0  0  0  0  0  0  0  0  0
    3.3190   67.2150   64.9900 O   0  0  0  0  0  0  0  0  0  0  0  0
    3.6530   69.4280   65.9490 C   0  0  0  0  0  0  0  0  0  0  0  0
    5.1380   69.2900   65.5910 C   0  0  0  0  0  0  0  0  0  0  0  0
    5.9860   70.3630   66.2680 C   0  0  0  0  0  0  0  0  0  0  0  0
    5.7800   70.3780   67.7800 C   0  0  0  0  0  0  0  0  0  0  0  0
    4.3040   70.5160   68.1430 C   0  0  0  0  0  0  0  0  0  0  0  0
    3.4600   69.4350   67.4720 C   0  0  0  0  0  0  0  0  0  0  0  0
    0.0930   66.9155   65.3589 H   0  0  0  0  0  0  0  0  0  0  0  0
    1.4856   66.4436   67.1060 H   0  0  0  0  0  0  0  0  0  0  0  0
    1.6706   68.2069   67.5507 H   0  0  0  0  0  0  0  0  0  0  0  0
    0.2806   66.4800   69.0580 H   0  0  0  0  0  0  0  0  0  0  0  0
   -0.1586   68.2308   68.8658 H   0  0  0  0  0  0  0  0  0  0  0  0
   -1.3409   65.9087   67.2912 H   0  0  0  0  0  0  0  0  0  0  0  0
   -2.1221   66.7934   68.6681 H   0  0  0  0  0  0  0  0  0  0  0  0
   -2.6128   67.4133   66.1124 H   0  0  0  0  0  0  0  0  0  0  0  0
   -2.5286   68.6554   67.4505 H   0  0  0  0  0  0  0  0  0  0  0  0
   -1.2725   68.9887   65.1162 H   0  0  0  0  0  0  0  0  0  0  0  0
   -0.6041   69.5625   66.7027 H   0  0  0  0  0  0  0  0  0  0  0  0
    3.2834   70.3873   65.5576 H   0  0  0  0  0  0  0  0  0  0  0  0
    5.4918   68.2999   65.9144 H   0  0  0  0  0  0  0  0  0  0  0  0
    5.2399   69.4099   64.5023 H   0  0  0  0  0  0  0  0  0  0  0  0
    7.0469   70.1652   66.0552 H   0  0  0  0  0  0  0  0  0  0  0  0
    5.6790   71.3420   65.8714 H   0  0  0  0  0  0  0  0  0  0  0  0
    6.1655   69.4383   68.2024 H   0  0  0  0  0  0  0  0  0  0  0  0
    6.3189   71.2436   68.1928 H   0  0  0  0  0  0  0  0  0  0  0  0
    4.1945   70.4292   69.2341 H   0  0  0  0  0  0  0  0  0  0  0  0
    3.9520   71.4970   67.7912 H   0  0  0  0  0  0  0  0  0  0  0  0
    3.7532   68.4536   67.8730 H   0  0  0  0  0  0  0  0  0  0  0  0
    2.4013   69.6464   67.6826 H   0  0  0  0  0  0  0  0  0  0  0  0
  2  1  2  0
  3  2  1  0
  4  3  1  0
  5  4  1  0
  6  5  1  0
  7  6  1  0
  8  7  1  0
  8  3  1  0
  9  2  1  0
 10  9  2  0
 11  9  1  0
 12 11  1  0
 13 12  1  0
 14 13  1  0
 15 14  1  0
 16 15  1  0
 16 11  1  0
  3 17  1  0
  4 18  1  0
  4 19  1  0
  5 20  1  0
  5 21  1  0
  6 22  1  0
  6 23  1  0
  7 24  1  0
  7 25  1  0
  8 26  1  0
  8 27  1  0
 11 28  1  0
 12 29  1  0
 12 30  1  0
 13 31  1  0
 13 32  1  0
 14 33  1  0
 14 34  1  0
 15 35  1  0
 15 36  1  0
 16 37  1  0
 16 38  1  0
M  END
>  <score>  (3) 
-7.74

$$$$
=
     RDKit          3D

 38 39  0  0  0  0  0  0  0  0999 V2000
    1.9930   68.5310   67.9730 O   0  0  0  0  0  0  0  0  0  0  0  0
    2.6710   69.0890   67.1180 C   0  0  0  0  0  0  0  0  0  0  0  0
    3.7890   70.0810   67.4040 C   0  0  0  0  0  0  0  0  0  0  0  0
    3.9210   70.3780   68.9100 C   0  0  0  0  0  0  0  0  0  0  0  0
    5.3310   70.8030   69.3310 C   0  0  0  0  0  0  0  0  0  0  0  0
    6.0760   71.5030   68.2030 C   0  0  0  0  0  0  0  0  0  0  0  0
    6.2360   70.5950   66.9830 C   0  0  0  0  0  0  0  0  0  0  0  0
    5.1120   69.5680   66.8320 C   0  0  0  0  0  0  0  0  0  0  0  0
    2.4040   68.7680   65.6500 C   0  0  0  0  0  0  0  0  0  0  0  0
    1.3140   69.0550   65.1700 O   0  0  0  0  0  0  0  0  0  0  0  0
    3.5450   68.1240   64.8760 C   0  0  0  0  0  0  0  0  0  0  0  0
    3.8500   68.9380   63.6140 C   0  0  0  0  0  0  0  0  0  0  0  0
    4.9470   68.2900   62.7730 C   0  0  0  0  0  0  0  0  0  0  0  0
    4.6170   66.8400   62.4310 C   0  0  0  0  0  0  0  0  0  0  0  0
    4.3130   66.0240   63.6840 C   0  0  0  0  0  0  0  0  0  0  0  0
    3.2080   66.6700   64.5170 C   0  0  0  0  0  0  0  0  0  0  0  0
    3.5316   71.0286   66.9082 H   0  0  0  0  0  0  0  0  0  0  0  0
    3.2226   71.1880   69.1670 H   0  0  0  0  0  0  0  0  0  0  0  0
    3.6934   69.4435   69.4438 H   0  0  0  0  0  0  0  0  0  0  0  0
    5.2542   71.4905   70.1863 H   0  0  0  0  0  0  0  0  0  0  0  0
    5.8936   69.8964   69.5986 H   0  0  0  0  0  0  0  0  0  0  0  0
    5.5138   72.4012   67.9078 H   0  0  0  0  0  0  0  0  0  0  0  0
    7.0794   71.7685   68.5672 H   0  0  0  0  0  0  0  0  0  0  0  0
    6.2553   71.2245   66.0811 H   0  0  0  0  0  0  0  0  0  0  0  0
    7.1710   70.0320   67.1204 H   0  0  0  0  0  0  0  0  0  0  0  0
    4.9749   69.3455   65.7635 H   0  0  0  0  0  0  0  0  0  0  0  0
    5.3979   68.6653   67.3918 H   0  0  0  0  0  0  0  0  0  0  0  0
    4.4409   68.1156   65.5142 H   0  0  0  0  0  0  0  0  0  0  0  0
    2.9346   69.0129   63.0087 H   0  0  0  0  0  0  0  0  0  0  0  0
    4.2005   69.9331   63.9253 H   0  0  0  0  0  0  0  0  0  0  0  0
    5.0622   68.8589   61.8386 H   0  0  0  0  0  0  0  0  0  0  0  0
    5.8778   68.2997   63.3591 H   0  0  0  0  0  0  0  0  0  0  0  0
    3.7382   66.8200   61.7698 H   0  0  0  0  0  0  0  0  0  0  0  0
    5.4919   66.3954   61.9340 H   0  0  0  0  0  0  0  0  0  0  0  0
    3.9920   65.0154   63.3847 H   0  0  0  0  0  0  0  0  0  0  0  0
    5.2256   65.9783   64.2965 H   0  0  0  0  0  0  0  0  0  0  0  0
    2.2710   66.6529   63.9411 H   0  0  0  0  0  0  0  0  0  0  0  0
    3.1058   66.1003   65.4524 H   0  0  0  0  0  0  0  0  0  0  0  0
  2  1  2  0
  3  2  1  0
  4  3  1  0
  5  4  1  0
  6  5  1  0
  7  6  1  0
  8  7  1  0
  8  3  1  0
  9  2  1  0
 10  9  2  0
 11  9  1  0
 12 11  1  0
 13 12  1  0
 14 13  1  0
 15 14  1  0
 16 15  1  0
 16 11  1  0
  3 17  1  0
  4 18  1  0
  4 19  1  0
  5 20  1  0
  5 21  1  0
  6 22  1  0
  6 23  1  0
  7 24  1  0
  7 25  1  0
  8 26  1  0
  8 27  1  0
 11 28  1  0
 12 29  1  0
 12 30  1  0
 13 31  1  0
 13 32  1  0
 14 33  1  0
 14 34  1  0
 15 35  1  0
 15 36  1  0
 16 37  1  0
 16 38  1  0
M  END
>  <score>  (4) 
-7.589

$$$$
=
     RDKit          3D

 38 39  0  0  0  0  0  0  0  0999 V2000
    2.5760   66.0220   65.3760 O   0  0  0  0  0  0  0  0  0  0  0  0
    1.9170   67.0470   65.2460 C   0  0  0  0  0  0  0  0  0  0  0  0
    1.4620   67.6260   63.9140 C   0  0  0  0  0  0  0  0  0  0  0  0
    0.3030   68.6250   64.0880 C   0  0  0  0  0  0  0  0  0  0  0  0
    0.2300   69.6820   62.9810 C   0  0  0  0  0  0  0  0  0  0  0  0
    0.7860   69.1640   61.6630 C   0  0  0  0  0  0  0  0  0  0  0  0
    2.2550   68.7590   61.7880 C   0  0  0  0  0  0  0  0  0  0  0  0
    2.6410   68.2800   63.1900 C   0  0  0  0  0  0  0  0  0  0  0  0
    1.4940   67.8090   66.4990 C   0  0  0  0  0  0  0  0  0  0  0  0
    0.5430   67.3940   67.1500 O   0  0  0  0  0  0  0  0  0  0  0  0
    2.3170   69.0370   66.8600 C   0  0  0  0  0  0  0  0  0  0  0  0
    3.7490   68.8830   66.3330 C   0  0  0  0  0  0  0  0  0  0  0  0
    4.6270   70.0670   66.7290 C   0  0  0  0  0  0  0  0  0  0  0  0
    4.6130   70.3040   68.2360 C   0  0  0  0  0  0  0  0  0  0  0  0
    3.1910   70.4580   68.7660 C   0  0  0  0  0  0  0  0  0  0  0  0
    2.3180   69.2680   68.3770 C   0  0  0  0  0  0  0  0  0  0  0  0
    1.0840   66.7958   63.2993 H   0  0  0  0  0  0  0  0  0  0  0  0
   -0.6424   68.0626   64.0942 H   0  0  0  0  0  0  0  0  0  0  0  0
    0.4788   69.1603   65.0327 H   0  0  0  0  0  0  0  0  0  0  0  0
   -0.8212   69.9710   62.8343 H   0  0  0  0  0  0  0  0  0  0  0  0
    0.8389   70.5436   63.2922 H   0  0  0  0  0  0  0  0  0  0  0  0
    0.2002   68.2875   61.3491 H   0  0  0  0  0  0  0  0  0  0  0  0
    0.7156   69.9723   60.9203 H   0  0  0  0  0  0  0  0  0  0  0  0
    2.4532   67.9448   61.0754 H   0  0  0  0  0  0  0  0  0  0  0  0
    2.8562   69.6555   61.5763 H   0  0  0  0  0  0  0  0  0  0  0  0
    3.4563   67.5466   63.1034 H   0  0  0  0  0  0  0  0  0  0  0  0
    2.9567   69.1565   63.7749 H   0  0  0  0  0  0  0  0  0  0  0  0
    1.8592   69.9175   66.3856 H   0  0  0  0  0  0  0  0  0  0  0  0
    4.1844   67.9619   66.7479 H   0  0  0  0  0  0  0  0  0  0  0  0
    3.7072   68.8395   65.2347 H   0  0  0  0  0  0  0  0  0  0  0  0
    5.6604   69.8664   66.4097 H   0  0  0  0  0  0  0  0  0  0  0  0
    4.2289   70.9671   66.2377 H   0  0  0  0  0  0  0  0  0  0  0  0
    5.0900   69.4485   68.7365 H   0  0  0  0  0  0  0  0  0  0  0  0
    5.1607   71.2352   68.4434 H   0  0  0  0  0  0  0  0  0  0  0  0
    3.2244   70.5335   69.8629 H   0  0  0  0  0  0  0  0  0  0  0  0
    2.7542   71.3659   68.3245 H   0  0  0  0  0  0  0  0  0  0  0  0
    2.7028   68.3657   68.8748 H   0  0  0  0  0  0  0  0  0  0  0  0
    1.2861   69.4821   68.6920 H   0  0  0  0  0  0  0  0  0  0  0  0
  2  1  2  0
  3  2  1  0
  4  3  1  0
  5  4  1  0
  6  5  1  0
  7  6  1  0
  8  7  1  0
  8  3  1  0
  9  2  1  0
 10  9  2  0
 11  9  1  0
 12 11  1  0
 13 12  1  0
 14 13  1  0
 15 14  1  0
 16 15  1  0
 16 11  1  0
  3 17  1  0
  4 18  1  0
  4 19  1  0
  5 20  1  0
  5 21  1  0
  6 22  1  0
  6 23  1  0
  7 24  1  0
  7 25  1  0
  8 26  1  0
  8 27  1  0
 11 28  1  0
 12 29  1  0
 12 30  1  0
 13 31  1  0
 13 32  1  0
 14 33  1  0
 14 34  1  0
 15 35  1  0
 15 36  1  0
 16 37  1  0
 16 38  1  0
M  END
>  <score>  (5) 
-7.548

$$$$
=
     RDKit          3D

 38 39  0  0  0  0  0  0  0  0999 V2000
    2.4970   68.9350   65.4360 O   0  0  0  0  0  0  0  0  0  0  0  0
    1.9750   68.8840   66.5430 C   0  0  0  0  0  0  0  0  0  0  0  0
    0.8540   67.9300   66.9340 C   0  0  0  0  0  0  0  0  0  0  0  0
    1.1250   67.2520   68.2890 C   0  0  0  0  0  0  0  0  0  0  0  0
   -0.1480   66.8270   69.0290 C   0  0  0  0  0  0  0  0  0  0  0  0
   -1.2840   66.5070   68.0690 C   0  0  0  0  0  0  0  0  0  0  0  0
   -1.6570   67.7160   67.2100 C   0  0  0  0  0  0  0  0  0  0  0  0
   -0.4870   68.6670   66.9500 C   0  0  0  0  0  0  0  0  0  0  0  0
    2.4790   69.8250   67.6340 C   0  0  0  0  0  0  0  0  0  0  0  0
    1.6800   70.5680   68.1900 O   0  0  0  0  0  0  0  0  0  0  0  0
    3.9620   69.7480   67.9660 C   0  0  0  0  0  0  0  0  0  0  0  0
    4.2710   70.6130   69.1940 C   0  0  0  0  0  0  0  0  0  0  0  0
    5.7610   70.6160   69.5240 C   0  0  0  0  0  0  0  0  0  0  0  0
    6.6060   71.0340   68.3250 C   0  0  0  0  0  0  0  0  0  0  0  0
    6.3030   70.1770   67.1000 C   0  0  0  0  0  0  0  0  0  0  0  0
    4.8140   70.1840   66.7660 C   0  0  0  0  0  0  0  0  0  0  0  0
    0.8113   67.1331   66.1770 H   0  0  0  0  0  0  0  0  0  0  0  0
    1.7399   66.3571   68.1130 H   0  0  0  0  0  0  0  0  0  0  0  0
    1.6345   67.9922   68.9234 H   0  0  0  0  0  0  0  0  0  0  0  0
    0.0722   65.9323   69.6298 H   0  0  0  0  0  0  0  0  0  0  0  0
   -0.4669   67.6649   69.6663 H   0  0  0  0  0  0  0  0  0  0  0  0
   -0.9720   65.6839   67.4094 H   0  0  0  0  0  0  0  0  0  0  0  0
   -2.1653   66.2239   68.6633 H   0  0  0  0  0  0  0  0  0  0  0  0
   -2.0314   67.3524   66.2417 H   0  0  0  0  0  0  0  0  0  0  0  0
   -2.4173   68.2844   67.7658 H   0  0  0  0  0  0  0  0  0  0  0  0
   -0.6358   69.1560   65.9760 H   0  0  0  0  0  0  0  0  0  0  0  0
   -0.4605   69.4059   67.7645 H   0  0  0  0  0  0  0  0  0  0  0  0
    4.2155   68.7030   68.1976 H   0  0  0  0  0  0  0  0  0  0  0  0
    3.9487   71.6453   68.9927 H   0  0  0  0  0  0  0  0  0  0  0  0
    3.7308   70.1911   70.0544 H   0  0  0  0  0  0  0  0  0  0  0  0
    5.9414   71.3202   70.3495 H   0  0  0  0  0  0  0  0  0  0  0  0
    6.0507   69.5931   69.8064 H   0  0  0  0  0  0  0  0  0  0  0  0
    6.3919   72.0863   68.0866 H   0  0  0  0  0  0  0  0  0  0  0  0
    7.6659   70.8989   68.5865 H   0  0  0  0  0  0  0  0  0  0  0  0
    6.8639   70.5719   66.2401 H   0  0  0  0  0  0  0  0  0  0  0  0
    6.6019   69.1417   67.3210 H   0  0  0  0  0  0  0  0  0  0  0  0
    4.5195   71.2018   66.4705 H   0  0  0  0  0  0  0  0  0  0  0  0
    4.6427   69.4709   65.9461 H   0  0  0  0  0  0  0  0  0  0  0  0
  2  1  2  0
  3  2  1  0
  4  3  1  0
  5  4  1  0
  6  5  1  0
  7  6  1  0
  8  7  1  0
  8  3  1  0
  9  2  1  0
 10  9  2  0
 11  9  1  0
 12 11  1  0
 13 12  1  0
 14 13  1  0
 15 14  1  0
 16 15  1  0
 16 11  1  0
  3 17  1  0
  4 18  1  0
  4 19  1  0
  5 20  1  0
  5 21  1  0
  6 22  1  0
  6 23  1  0
  7 24  1  0
  7 25  1  0
  8 26  1  0
  8 27  1  0
 11 28  1  0
 12 29  1  0
 12 30  1  0
 13 31  1  0
 13 32  1  0
 14 33  1  0
 14 34  1  0
 15 35  1  0
 15 36  1  0
 16 37  1  0
 16 38  1  0
M  END
>  <score>  (6) 
-7.482

$$$$
=
     RDKit          3D

 38 39  0  0  0  0  0  0  0  0999 V2000
    2.2550   65.8000   65.0350 O   0  0  0  0  0  0  0  0  0  0  0  0
    2.3120   67.0240   65.0180 C   0  0  0  0  0  0  0  0  0  0  0  0
    3.5510   67.8420   65.3560 C   0  0  0  0  0  0  0  0  0  0  0  0
    4.3220   68.2660   64.0920 C   0  0  0  0  0  0  0  0  0  0  0  0
    5.1360   69.5520   64.2710 C   0  0  0  0  0  0  0  0  0  0  0  0
    5.5860   69.7450   65.7110 C   0  0  0  0  0  0  0  0  0  0  0  0
    4.3970   69.8410   66.6680 C   0  0  0  0  0  0  0  0  0  0  0  0
    3.1660   69.0620   66.1960 C   0  0  0  0  0  0  0  0  0  0  0  0
    1.0680   67.8090   64.6130 C   0  0  0  0  0  0  0  0  0  0  0  0
    0.8900   68.0660   63.4280 O   0  0  0  0  0  0  0  0  0  0  0  0
    0.1160   68.2020   65.7330 C   0  0  0  0  0  0  0  0  0  0  0  0
   -0.1100   67.0110   66.6720 C   0  0  0  0  0  0  0  0  0  0  0  0
   -1.1100   67.3430   67.7760 C   0  0  0  0  0  0  0  0  0  0  0  0
   -2.4290   67.8600   67.2090 C   0  0  0  0  0  0  0  0  0  0  0  0
   -2.2110   69.0450   66.2740 C   0  0  0  0  0  0  0  0  0  0  0  0
   -1.2180   68.7070   65.1650 C   0  0  0  0  0  0  0  0  0  0  0  0
    4.2250   67.2031   65.9455 H   0  0  0  0  0  0  0  0  0  0  0  0
    5.0111   67.4540   63.8165 H   0  0  0  0  0  0  0  0  0  0  0  0
    3.5742   68.4644   63.3100 H   0  0  0  0  0  0  0  0  0  0  0  0
    6.0247   69.5028   63.6247 H   0  0  0  0  0  0  0  0  0  0  0  0
    4.4931   70.4020   63.9989 H   0  0  0  0  0  0  0  0  0  0  0  0
    6.2128   68.8905   66.0060 H   0  0  0  0  0  0  0  0  0  0  0  0
    6.1503   70.6874   65.7702 H   0  0  0  0  0  0  0  0  0  0  0  0
    4.7053   69.4445   67.6466 H   0  0  0  0  0  0  0  0  0  0  0  0
    4.1082   70.9012   66.7184 H   0  0  0  0  0  0  0  0  0  0  0  0
    2.6001   68.7235   67.0764 H   0  0  0  0  0  0  0  0  0  0  0  0
    2.5591   69.7308   65.5680 H   0  0  0  0  0  0  0  0  0  0  0  0
    0.5702   69.0231   66.3071 H   0  0  0  0  0  0  0  0  0  0  0  0
   -0.4947   66.1633   66.0860 H   0  0  0  0  0  0  0  0  0  0  0  0
    0.8512   66.7604   67.1446 H   0  0  0  0  0  0  0  0  0  0  0  0
   -1.3068   66.4340   68.3633 H   0  0  0  0  0  0  0  0  0  0  0  0
   -0.6749   68.1336   68.4050 H   0  0  0  0  0  0  0  0  0  0  0  0
   -2.9196   67.0495   66.6500 H   0  0  0  0  0  0  0  0  0  0  0  0
   -3.0572   68.1941   68.0479 H   0  0  0  0  0  0  0  0  0  0  0  0
   -3.1732   69.3235   65.8196 H   0  0  0  0  0  0  0  0  0  0  0  0
   -1.8003   69.8784   66.8629 H   0  0  0  0  0  0  0  0  0  0  0  0
   -1.6516   67.9251   64.5241 H   0  0  0  0  0  0  0  0  0  0  0  0
   -1.0211   69.6235   64.5895 H   0  0  0  0  0  0  0  0  0  0  0  0
  2  1  2  0
  3  2  1  0
  4  3  1  0
  5  4  1  0
  6  5  1  0
  7  6  1  0
  8  7  1  0
  8  3  1  0
  9  2  1  0
 10  9  2  0
 11  9  1  0
 12 11  1  0
 13 12  1  0
 14 13  1  0
 15 14  1  0
 16 15  1  0
 16 11  1  0
  3 17  1  0
  4 18  1  0
  4 19  1  0
  5 20  1  0
  5 21  1  0
  6 22  1  0
  6 23  1  0
  7 24  1  0
  7 25  1  0
  8 26  1  0
  8 27  1  0
 11 28  1  0
 12 29  1  0
 12 30  1  0
 13 31  1  0
 13 32  1  0
 14 33  1  0
 14 34  1  0
 15 35  1  0
 15 36  1  0
 16 37  1  0
 16 38  1  0
M  END
>  <score>  (7) 
-7.342

$$$$
=
     RDKit          3D

 38 39  0  0  0  0  0  0  0  0999 V2000
    3.9470   58.9660   73.2770 O   0  0  0  0  0  0  0  0  0  0  0  0
    3.2230   59.2410   72.3280 C   0  0  0  0  0  0  0  0  0  0  0  0
    1.7620   59.6560   72.4390 C   0  0  0  0  0  0  0  0  0  0  0  0
    0.9600   58.6950   73.3350 C   0  0  0  0  0  0  0  0  0  0  0  0
   -0.2560   59.3470   74.0020 C   0  0  0  0  0  0  0  0  0  0  0  0
   -0.8200   60.4870   73.1660 C   0  0  0  0  0  0  0  0  0  0  0  0
    0.2110   61.5950   72.9510 C   0  0  0  0  0  0  0  0  0  0  0  0
    1.6580   61.0940   72.9490 C   0  0  0  0  0  0  0  0  0  0  0  0
    3.8110   59.1900   70.9210 C   0  0  0  0  0  0  0  0  0  0  0  0
    3.8550   58.1130   70.3370 O   0  0  0  0  0  0  0  0  0  0  0  0
    4.2870   60.5090   70.3330 C   0  0  0  0  0  0  0  0  0  0  0  0
    4.8060   61.4250   71.4480 C   0  0  0  0  0  0  0  0  0  0  0  0
    5.2350   62.7870   70.9090 C   0  0  0  0  0  0  0  0  0  0  0  0
    4.1200   63.4590   70.1150 C   0  0  0  0  0  0  0  0  0  0  0  0
    3.6000   62.5530   69.0030 C   0  0  0  0  0  0  0  0  0  0  0  0
    3.1620   61.1960   69.5470 C   0  0  0  0  0  0  0  0  0  0  0  0
    1.3199   59.6041   71.4331 H   0  0  0  0  0  0  0  0  0  0  0  0
    0.6089   57.8553   72.7172 H   0  0  0  0  0  0  0  0  0  0  0  0
    1.6334   58.3690   74.1414 H   0  0  0  0  0  0  0  0  0  0  0  0
   -1.0379   58.5853   74.1378 H   0  0  0  0  0  0  0  0  0  0  0  0
    0.0671   59.7611   74.9685 H   0  0  0  0  0  0  0  0  0  0  0  0
   -1.1283   60.0921   72.1867 H   0  0  0  0  0  0  0  0  0  0  0  0
   -1.6769   60.9163   73.7057 H   0  0  0  0  0  0  0  0  0  0  0  0
    0.0081   62.0757   71.9826 H   0  0  0  0  0  0  0  0  0  0  0  0
    0.1131   62.2947   73.7941 H   0  0  0  0  0  0  0  0  0  0  0  0
    2.2595   61.7464   72.2990 H   0  0  0  0  0  0  0  0  0  0  0  0
    2.0283   61.1165   73.9845 H   0  0  0  0  0  0  0  0  0  0  0  0
    5.1101   60.3025   69.6331 H   0  0  0  0  0  0  0  0  0  0  0  0
    4.0068   61.5712   72.1896 H   0  0  0  0  0  0  0  0  0  0  0  0
    5.6849   60.9452   71.9033 H   0  0  0  0  0  0  0  0  0  0  0  0
    5.5095   63.4343   71.7550 H   0  0  0  0  0  0  0  0  0  0  0  0
    6.0903   62.6336   70.2345 H   0  0  0  0  0  0  0  0  0  0  0  0
    3.2910   63.6997   70.7967 H   0  0  0  0  0  0  0  0  0  0  0  0
    4.5264   64.3716   69.6545 H   0  0  0  0  0  0  0  0  0  0  0  0
    2.7399   63.0387   68.5189 H   0  0  0  0  0  0  0  0  0  0  0  0
    4.4141   62.3895   68.2816 H   0  0  0  0  0  0  0  0  0  0  0  0
    2.2988   61.3409   70.2133 H   0  0  0  0  0  0  0  0  0  0  0  0
    2.8983   60.5537   68.6938 H   0  0  0  0  0  0  0  0  0  0  0  0
  2  1  2  0
  3  2  1  0
  4  3  1  0
  5  4  1  0
  6  5  1  0
  7  6  1  0
  8  7  1  0
  8  3  1  0
  9  2  1  0
 10  9  2  0
 11  9  1  0
 12 11  1  0
 13 12  1  0
 14 13  1  0
 15 14  1  0
 16 15  1  0
 16 11  1  0
  3 17  1  0
  4 18  1  0
  4 19  1  0
  5 20  1  0
  5 21  1  0
  6 22  1  0
  6 23  1  0
  7 24  1  0
  7 25  1  0
  8 26  1  0
  8 27  1  0
 11 28  1  0
 12 29  1  0
 12 30  1  0
 13 31  1  0
 13 32  1  0
 14 33  1  0
 14 34  1  0
 15 35  1  0
 15 36  1  0
 16 37  1  0
 16 38  1  0
M  END
>  <score>  (8) 
-7.255

$$$$
=
     RDKit          3D

 38 39  0  0  0  0  0  0  0  0999 V2000
    4.0210   58.4340   70.2890 O   0  0  0  0  0  0  0  0  0  0  0  0
    3.6240   59.2900   71.0710 C   0  0  0  0  0  0  0  0  0  0  0  0
    3.5140   60.7750   70.7540 C   0  0  0  0  0  0  0  0  0  0  0  0
    4.6100   61.5950   71.4580 C   0  0  0  0  0  0  0  0  0  0  0  0
    4.9700   62.8940   70.7300 C   0  0  0  0  0  0  0  0  0  0  0  0
    3.7940   63.4490   69.9410 C   0  0  0  0  0  0  0  0  0  0  0  0
    3.3130   62.4640   68.8730 C   0  0  0  0  0  0  0  0  0  0  0  0
    3.5520   60.9980   69.2410 C   0  0  0  0  0  0  0  0  0  0  0  0
    3.1840   58.8570   72.4670 C   0  0  0  0  0  0  0  0  0  0  0  0
    4.0160   58.8240   73.3650 O   0  0  0  0  0  0  0  0  0  0  0  0
    1.7120   58.5140   72.6400 C   0  0  0  0  0  0  0  0  0  0  0  0
    1.0080   59.6110   73.4480 C   0  0  0  0  0  0  0  0  0  0  0  0
   -0.4590   59.2750   73.7010 C   0  0  0  0  0  0  0  0  0  0  0  0
   -0.6210   57.9100   74.3620 C   0  0  0  0  0  0  0  0  0  0  0  0
    0.0760   56.8140   73.5620 C   0  0  0  0  0  0  0  0  0  0  0  0
    1.5460   57.1480   73.3200 C   0  0  0  0  0  0  0  0  0  0  0  0
    2.5472   61.1298   71.1405 H   0  0  0  0  0  0  0  0  0  0  0  0
    4.2583   61.8493   72.4688 H   0  0  0  0  0  0  0  0  0  0  0  0
    5.5171   60.9730   71.4736 H   0  0  0  0  0  0  0  0  0  0  0  0
    5.2843   63.6421   71.4727 H   0  0  0  0  0  0  0  0  0  0  0  0
    5.7812   62.6727   70.0208 H   0  0  0  0  0  0  0  0  0  0  0  0
    2.9654   63.6556   70.6343 H   0  0  0  0  0  0  0  0  0  0  0  0
    4.1239   64.3686   69.4354 H   0  0  0  0  0  0  0  0  0  0  0  0
    2.2336   62.6135   68.7227 H   0  0  0  0  0  0  0  0  0  0  0  0
    3.8939   62.6670   67.9612 H   0  0  0  0  0  0  0  0  0  0  0  0
    2.7713   60.3818   68.7712 H   0  0  0  0  0  0  0  0  0  0  0  0
    4.5519   60.7151   68.8802 H   0  0  0  0  0  0  0  0  0  0  0  0
    1.2467   58.4549   71.6450 H   0  0  0  0  0  0  0  0  0  0  0  0
    1.5193   59.7245   74.4153 H   0  0  0  0  0  0  0  0  0  0  0  0
    1.0499   60.5441   72.8670 H   0  0  0  0  0  0  0  0  0  0  0  0
   -0.8919   60.0429   74.3589 H   0  0  0  0  0  0  0  0  0  0  0  0
   -0.9763   59.2488   72.7306 H   0  0  0  0  0  0  0  0  0  0  0  0
   -0.1851   57.9478   75.3712 H   0  0  0  0  0  0  0  0  0  0  0  0
   -1.6945   57.6741   74.4071 H   0  0  0  0  0  0  0  0  0  0  0  0
    0.0113   55.8681   74.1197 H   0  0  0  0  0  0  0  0  0  0  0  0
   -0.4239   56.7276   72.5860 H   0  0  0  0  0  0  0  0  0  0  0  0
    2.0718   57.1642   74.2860 H   0  0  0  0  0  0  0  0  0  0  0  0
    1.9678   56.3799   72.6551 H   0  0  0  0  0  0  0  0  0  0  0  0
  2  1  2  0
  3  2  1  0
  4  3  1  0
  5  4  1  0
  6  5  1  0
  7  6  1  0
  8  7  1  0
  8  3  1  0
  9  2  1  0
 10  9  2  0
 11  9  1  0
 12 11  1  0
 13 12  1  0
 14 13  1  0
 15 14  1  0
 16 15  1  0
 16 11  1  0
  3 17  1  0
  4 18  1  0
  4 19  1  0
  5 20  1  0
  5 21  1  0
  6 22  1  0
  6 23  1  0
  7 24  1  0
  7 25  1  0
  8 26  1  0
  8 27  1  0
 11 28  1  0
 12 29  1  0
 12 30  1  0
 13 31  1  0
 13 32  1  0
 14 33  1  0
 14 34  1  0
 15 35  1  0
 15 36  1  0
 16 37  1  0
 16 38  1  0
M  END
>  <score>  (9) 
-7.065

$$$$
