=
     RDKit          3D

 20 21  0  0  0  0  0  0  0  0999 V2000
    4.7640   70.5060   67.9000 N   0  0  0  0  0  0  0  0  0  0  0  0
    3.6200   70.3010   68.6510 C   0  0  0  0  0  0  0  0  0  0  0  0
    3.3850   70.6270   69.7950 O   0  0  0  0  0  0  0  0  0  0  0  0
    2.6480   69.5410   67.7140 C   0  0  0  0  0  0  0  0  0  0  0  0
    1.5250   69.1690   67.9680 O   0  0  0  0  0  0  0  0  0  0  0  0
    3.3730   69.3660   66.4560 C   0  0  0  0  0  0  0  0  0  0  0  0
    4.6260   69.9560   66.6160 C   0  0  0  0  0  0  0  0  0  0  0  0
    5.5380   69.9450   65.5770 C   0  0  0  0  0  0  0  0  0  0  0  0
    5.1600   69.3260   64.3780 C   0  0  0  0  0  0  0  0  0  0  0  0
    3.8890   68.7330   64.2340 C   0  0  0  0  0  0  0  0  0  0  0  0
    2.9740   68.7490   65.2870 C   0  0  0  0  0  0  0  0  0  0  0  0
    5.9440   71.1360   68.4020 C   0  0  0  0  0  0  0  0  0  0  0  0
    5.8650   72.5190   68.1250 O   0  0  0  0  0  0  0  0  0  0  0  0
    6.5297   70.4078   65.6881 H   0  0  0  0  0  0  0  0  0  0  0  0
    5.8666   69.3024   63.5353 H   0  0  0  0  0  0  0  0  0  0  0  0
    3.6163   68.2532   63.2825 H   0  0  0  0  0  0  0  0  0  0  0  0
    1.9788   68.2904   65.1902 H   0  0  0  0  0  0  0  0  0  0  0  0
    6.0155   70.9785   69.4883 H   0  0  0  0  0  0  0  0  0  0  0  0
    6.8351   70.7053   67.9219 H   0  0  0  0  0  0  0  0  0  0  0  0
    5.8361   73.0248   68.9756 H   0  0  0  0  0  0  0  0  0  0  0  0
  2  1  1  0
  3  2  2  0
  4  2  1  0
  5  4  2  0
  6  4  1  0
  7  6  2  0
  7  1  1  0
  8  7  1  0
  9  8  2  0
 10  9  1  0
 11 10  2  0
 11  6  1  0
 12  1  1  0
 13 12  1  0
  8 14  1  0
  9 15  1  0
 10 16  1  0
 11 17  1  0
 12 18  1  0
 12 19  1  0
 13 20  1  0
M  END
>  <score>  (1) 
-8.071

$$$$
=
     RDKit          3D

 20 21  0  0  0  0  0  0  0  0999 V2000
    2.7990   69.6510   67.6670 N   0  0  0  0  0  0  0  0  0  0  0  0
    3.6430   70.2090   68.6110 C   0  0  0  0  0  0  0  0  0  0  0  0
    3.4110   70.5190   69.7600 O   0  0  0  0  0  0  0  0  0  0  0  0
    5.0060   70.3730   67.8920 C   0  0  0  0  0  0  0  0  0  0  0  0
    6.0310   70.8170   68.3560 O   0  0  0  0  0  0  0  0  0  0  0  0
    4.7940   69.8760   66.5340 C   0  0  0  0  0  0  0  0  0  0  0  0
    3.4670   69.4590   66.4470 C   0  0  0  0  0  0  0  0  0  0  0  0
    2.9760   68.9360   65.2660 C   0  0  0  0  0  0  0  0  0  0  0  0
    3.8520   68.8460   64.1750 C   0  0  0  0  0  0  0  0  0  0  0  0
    5.1900   69.2750   64.2780 C   0  0  0  0  0  0  0  0  0  0  0  0
    5.6780   69.8000   65.4740 C   0  0  0  0  0  0  0  0  0  0  0  0
    1.4160   69.3750   67.9000 C   0  0  0  0  0  0  0  0  0  0  0  0
    0.7960   70.5580   68.3610 O   0  0  0  0  0  0  0  0  0  0  0  0
    1.9314   68.6010   65.1844 H   0  0  0  0  0  0  0  0  0  0  0  0
    3.4884   68.4334   63.2223 H   0  0  0  0  0  0  0  0  0  0  0  0
    5.8562   69.1950   63.4064 H   0  0  0  0  0  0  0  0  0  0  0  0
    6.7202   70.1387   65.5698 H   0  0  0  0  0  0  0  0  0  0  0  0
    0.9400   69.0466   66.9642 H   0  0  0  0  0  0  0  0  0  0  0  0
    1.3112   68.5769   68.6497 H   0  0  0  0  0  0  0  0  0  0  0  0
    0.7926   70.5646   69.3510 H   0  0  0  0  0  0  0  0  0  0  0  0
  2  1  1  0
  3  2  2  0
  4  2  1  0
  5  4  2  0
  6  4  1  0
  7  6  2  0
  7  1  1  0
  8  7  1  0
  9  8  2  0
 10  9  1  0
 11 10  2  0
 11  6  1  0
 12  1  1  0
 13 12  1  0
  8 14  1  0
  9 15  1  0
 10 16  1  0
 11 17  1  0
 12 18  1  0
 12 19  1  0
 13 20  1  0
M  END
>  <score>  (2) 
-7.984

$$$$
=
     RDKit          3D

 20 21  0  0  0  0  0  0  0  0999 V2000
    2.6080   68.6200   63.2300 N   0  0  0  0  0  0  0  0  0  0  0  0
    1.3260   68.3580   63.6790 C   0  0  0  0  0  0  0  0  0  0  0  0
    0.3490   68.0130   63.0500 O   0  0  0  0  0  0  0  0  0  0  0  0
    1.3740   68.5990   65.2090 C   0  0  0  0  0  0  0  0  0  0  0  0
    0.4650   68.4750   65.9990 O   0  0  0  0  0  0  0  0  0  0  0  0
    2.7470   69.0070   65.4990 C   0  0  0  0  0  0  0  0  0  0  0  0
    3.4430   69.0060   64.2910 C   0  0  0  0  0  0  0  0  0  0  0  0
    4.7800   69.3540   64.2570 C   0  0  0  0  0  0  0  0  0  0  0  0
    5.3980   69.7050   65.4650 C   0  0  0  0  0  0  0  0  0  0  0  0
    4.6790   69.7030   66.6780 C   0  0  0  0  0  0  0  0  0  0  0  0
    3.3300   69.3490   66.7040 C   0  0  0  0  0  0  0  0  0  0  0  0
    2.9970   68.5660   61.8560 C   0  0  0  0  0  0  0  0  0  0  0  0
    1.9390   69.0780   61.0720 O   0  0  0  0  0  0  0  0  0  0  0  0
    5.3417   69.3555   63.3112 H   0  0  0  0  0  0  0  0  0  0  0  0
    6.4613   69.9866   65.4669 H   0  0  0  0  0  0  0  0  0  0  0  0
    5.1868   69.9833   67.6127 H   0  0  0  0  0  0  0  0  0  0  0  0
    2.7559   69.3424   67.6422 H   0  0  0  0  0  0  0  0  0  0  0  0
    3.9011   69.1733   61.7018 H   0  0  0  0  0  0  0  0  0  0  0  0
    3.2142   67.5275   61.5655 H   0  0  0  0  0  0  0  0  0  0  0  0
    1.2257   69.4232   61.6654 H   0  0  0  0  0  0  0  0  0  0  0  0
  2  1  1  0
  3  2  2  0
  4  2  1  0
  5  4  2  0
  6  4  1  0
  7  6  2  0
  7  1  1  0
  8  7  1  0
  9  8  2  0
 10  9  1  0
 11 10  2  0
 11  6  1  0
 12  1  1  0
 13 12  1  0
  8 14  1  0
  9 15  1  0
 10 16  1  0
 11 17  1  0
 12 18  1  0
 12 19  1  0
 13 20  1  0
M  END
>  <score>  (3) 
-7.78

$$$$
=
     RDKit          3D

 20 21  0  0  0  0  0  0  0  0999 V2000
    4.3020   68.9980   63.4750 N   0  0  0  0  0  0  0  0  0  0  0  0
    3.0090   68.6200   63.1560 C   0  0  0  0  0  0  0  0  0  0  0  0
    2.5490   68.2870   62.0850 O   0  0  0  0  0  0  0  0  0  0  0  0
    2.2210   68.7070   64.4870 C   0  0  0  0  0  0  0  0  0  0  0  0
    1.0510   68.4530   64.6640 O   0  0  0  0  0  0  0  0  0  0  0  0
    3.1870   69.1600   65.4860 C   0  0  0  0  0  0  0  0  0  0  0  0
    4.4100   69.3200   64.8360 C   0  0  0  0  0  0  0  0  0  0  0  0
    5.5220   69.7440   65.5390 C   0  0  0  0  0  0  0  0  0  0  0  0
    5.3730   70.0040   66.9080 C   0  0  0  0  0  0  0  0  0  0  0  0
    4.1280   69.8390   67.5500 C   0  0  0  0  0  0  0  0  0  0  0  0
    3.0110   69.4090   66.8340 C   0  0  0  0  0  0  0  0  0  0  0  0
    5.3580   69.1060   62.5170 C   0  0  0  0  0  0  0  0  0  0  0  0
    5.6210   67.8190   61.9960 O   0  0  0  0  0  0  0  0  0  0  0  0
    6.4935   69.8733   65.0395 H   0  0  0  0  0  0  0  0  0  0  0  0
    6.2417   70.3425   67.4918 H   0  0  0  0  0  0  0  0  0  0  0  0
    4.0372   70.0514   68.6255 H   0  0  0  0  0  0  0  0  0  0  0  0
    2.0337   69.2741   67.3204 H   0  0  0  0  0  0  0  0  0  0  0  0
    5.0540   69.7811   61.7035 H   0  0  0  0  0  0  0  0  0  0  0  0
    6.2617   69.5122   62.9948 H   0  0  0  0  0  0  0  0  0  0  0  0
    5.7513   67.1813   62.7420 H   0  0  0  0  0  0  0  0  0  0  0  0
  2  1  1  0
  3  2  2  0
  4  2  1  0
  5  4  2  0
  6  4  1  0
  7  6  2  0
  7  1  1  0
  8  7  1  0
  9  8  2  0
 10  9  1  0
 11 10  2  0
 11  6  1  0
 12  1  1  0
 13 12  1  0
  8 14  1  0
  9 15  1  0
 10 16  1  0
 11 17  1  0
 12 18  1  0
 12 19  1  0
 13 20  1  0
M  END
>  <score>  (4) 
-7.713

$$$$
=
     RDKit          3D

 20 21  0  0  0  0  0  0  0  0999 V2000
    1.5300   68.5450   65.2510 N   0  0  0  0  0  0  0  0  0  0  0  0
    1.4310   68.2860   63.8960 C   0  0  0  0  0  0  0  0  0  0  0  0
    0.4850   67.8720   63.2610 O   0  0  0  0  0  0  0  0  0  0  0  0
    2.8220   68.6410   63.3120 C   0  0  0  0  0  0  0  0  0  0  0  0
    3.1710   68.5690   62.1550 O   0  0  0  0  0  0  0  0  0  0  0  0
    3.6250   69.0800   64.4510 C   0  0  0  0  0  0  0  0  0  0  0  0
    2.8140   69.0050   65.5830 C   0  0  0  0  0  0  0  0  0  0  0  0
    3.3100   69.3640   66.8210 C   0  0  0  0  0  0  0  0  0  0  0  0
    4.6420   69.7970   66.8940 C   0  0  0  0  0  0  0  0  0  0  0  0
    5.4490   69.8650   65.7400 C   0  0  0  0  0  0  0  0  0  0  0  0
    4.9400   69.5020   64.4940 C   0  0  0  0  0  0  0  0  0  0  0  0
    0.4750   68.3060   66.1860 C   0  0  0  0  0  0  0  0  0  0  0  0
    0.1070   66.9440   66.1060 O   0  0  0  0  0  0  0  0  0  0  0  0
    2.6802   69.3120   67.7214 H   0  0  0  0  0  0  0  0  0  0  0  0
    5.0638   70.0882   67.8673 H   0  0  0  0  0  0  0  0  0  0  0  0
    6.4908   70.2080   65.8236 H   0  0  0  0  0  0  0  0  0  0  0  0
    5.5579   69.5494   63.5852 H   0  0  0  0  0  0  0  0  0  0  0  0
    0.8214   68.5379   67.2040 H   0  0  0  0  0  0  0  0  0  0  0  0
   -0.3892   68.9450   65.9516 H   0  0  0  0  0  0  0  0  0  0  0  0
    0.0073   66.5749   67.0192 H   0  0  0  0  0  0  0  0  0  0  0  0
  2  1  1  0
  3  2  2  0
  4  2  1  0
  5  4  2  0
  6  4  1  0
  7  6  2  0
  7  1  1  0
  8  7  1  0
  9  8  2  0
 10  9  1  0
 11 10  2  0
 11  6  1  0
 12  1  1  0
 13 12  1  0
  8 14  1  0
  9 15  1  0
 10 16  1  0
 11 17  1  0
 12 18  1  0
 12 19  1  0
 13 20  1  0
M  END
>  <score>  (5) 
-7.706

$$$$
=
     RDKit          3D

 20 21  0  0  0  0  0  0  0  0999 V2000
    4.4190   69.3780   65.6780 N   0  0  0  0  0  0  0  0  0  0  0  0
    3.0650   69.1820   65.8880 C   0  0  0  0  0  0  0  0  0  0  0  0
    2.2200   68.7770   65.1190 O   0  0  0  0  0  0  0  0  0  0  0  0
    2.8180   69.5970   67.3600 C   0  0  0  0  0  0  0  0  0  0  0  0
    1.7680   69.5740   67.9620 O   0  0  0  0  0  0  0  0  0  0  0  0
    4.1200   70.0220   67.8710 C   0  0  0  0  0  0  0  0  0  0  0  0
    5.0400   69.8750   66.8340 C   0  0  0  0  0  0  0  0  0  0  0  0
    6.3680   70.2030   67.0290 C   0  0  0  0  0  0  0  0  0  0  0  0
    6.7470   70.6840   68.2900 C   0  0  0  0  0  0  0  0  0  0  0  0
    5.8030   70.8290   69.3270 C   0  0  0  0  0  0  0  0  0  0  0  0
    4.4650   70.4950   69.1230 C   0  0  0  0  0  0  0  0  0  0  0  0
    5.0690   69.1620   64.4230 C   0  0  0  0  0  0  0  0  0  0  0  0
    4.8170   67.8340   64.0120 O   0  0  0  0  0  0  0  0  0  0  0  0
    7.1048   70.0902   66.2200 H   0  0  0  0  0  0  0  0  0  0  0  0
    7.7978   70.9526   68.4733 H   0  0  0  0  0  0  0  0  0  0  0  0
    6.1256   71.2097   70.3073 H   0  0  0  0  0  0  0  0  0  0  0  0
    3.7174   70.6031   69.9226 H   0  0  0  0  0  0  0  0  0  0  0  0
    4.6732   69.8639   63.6742 H   0  0  0  0  0  0  0  0  0  0  0  0
    6.1518   69.3265   64.5254 H   0  0  0  0  0  0  0  0  0  0  0  0
    4.7075   67.2570   64.8090 H   0  0  0  0  0  0  0  0  0  0  0  0
  2  1  1  0
  3  2  2  0
  4  2  1  0
  5  4  2  0
  6  4  1  0
  7  6  2  0
  7  1  1  0
  8  7  1  0
  9  8  2  0
 10  9  1  0
 11 10  2  0
 11  6  1  0
 12  1  1  0
 13 12  1  0
  8 14  1  0
  9 15  1  0
 10 16  1  0
 11 17  1  0
 12 18  1  0
 12 19  1  0
 13 20  1  0
M  END
>  <score>  (6) 
-7.461

$$$$
=
     RDKit          3D

 20 21  0  0  0  0  0  0  0  0999 V2000
   -1.8340   68.3760   66.0580 N   0  0  0  0  0  0  0  0  0  0  0  0
   -1.8630   67.7050   67.2680 C   0  0  0  0  0  0  0  0  0  0  0  0
   -2.8030   67.4930   68.0040 O   0  0  0  0  0  0  0  0  0  0  0  0
   -0.4020   67.2540   67.5190 C   0  0  0  0  0  0  0  0  0  0  0  0
    0.0190   66.6260   68.4640 O   0  0  0  0  0  0  0  0  0  0  0  0
    0.3620   67.7460   66.3750 C   0  0  0  0  0  0  0  0  0  0  0  0
   -0.5320   68.4080   65.5340 C   0  0  0  0  0  0  0  0  0  0  0  0
   -0.0880   68.9820   64.3580 C   0  0  0  0  0  0  0  0  0  0  0  0
    1.2760   68.8770   64.0510 C   0  0  0  0  0  0  0  0  0  0  0  0
    2.1670   68.2070   64.9130 C   0  0  0  0  0  0  0  0  0  0  0  0
    1.7100   67.6290   66.0980 C   0  0  0  0  0  0  0  0  0  0  0  0
   -2.9740   69.0060   65.4690 C   0  0  0  0  0  0  0  0  0  0  0  0
   -4.1160   68.2280   65.7640 O   0  0  0  0  0  0  0  0  0  0  0  0
   -0.7827   69.5047   63.6841 H   0  0  0  0  0  0  0  0  0  0  0  0
    1.6571   69.3252   63.1215 H   0  0  0  0  0  0  0  0  0  0  0  0
    3.2327   68.1390   64.6493 H   0  0  0  0  0  0  0  0  0  0  0  0
    2.3932   67.1034   66.7814 H   0  0  0  0  0  0  0  0  0  0  0  0
   -3.0958   70.0171   65.8848 H   0  0  0  0  0  0  0  0  0  0  0  0
   -2.8415   69.0847   64.3798 H   0  0  0  0  0  0  0  0  0  0  0  0
   -4.2217   68.1560   66.7457 H   0  0  0  0  0  0  0  0  0  0  0  0
  2  1  1  0
  3  2  2  0
  4  2  1  0
  5  4  2  0
  6  4  1  0
  7  6  2  0
  7  1  1  0
  8  7  1  0
  9  8  2  0
 10  9  1  0
 11 10  2  0
 11  6  1  0
 12  1  1  0
 13 12  1  0
  8 14  1  0
  9 15  1  0
 10 16  1  0
 11 17  1  0
 12 18  1  0
 12 19  1  0
 13 20  1  0
M  END
>  <score>  (7) 
-6.844

$$$$
=
     RDKit          3D

 20 21  0  0  0  0  0  0  0  0999 V2000
    4.5770   70.2200   67.7400 N   0  0  0  0  0  0  0  0  0  0  0  0
    5.5990   70.3220   66.8120 C   0  0  0  0  0  0  0  0  0  0  0  0
    6.7120   70.7850   66.9450 O   0  0  0  0  0  0  0  0  0  0  0  0
    5.0310   69.7040   65.5100 C   0  0  0  0  0  0  0  0  0  0  0  0
    5.5980   69.5830   64.4480 O   0  0  0  0  0  0  0  0  0  0  0  0
    3.6640   69.2990   65.8330 C   0  0  0  0  0  0  0  0  0  0  0  0
    3.4400   69.6260   67.1700 C   0  0  0  0  0  0  0  0  0  0  0  0
    2.2190   69.3550   67.7580 C   0  0  0  0  0  0  0  0  0  0  0  0
    1.2310   68.7490   66.9700 C   0  0  0  0  0  0  0  0  0  0  0  0
    1.4740   68.4260   65.6200 C   0  0  0  0  0  0  0  0  0  0  0  0
    2.7090   68.7020   65.0330 C   0  0  0  0  0  0  0  0  0  0  0  0
    4.6620   70.7190   69.0760 C   0  0  0  0  0  0  0  0  0  0  0  0
    5.9870   70.5440   69.5350 O   0  0  0  0  0  0  0  0  0  0  0  0
    2.0285   69.6071   68.8117 H   0  0  0  0  0  0  0  0  0  0  0  0
    0.2499   68.5218   67.4125 H   0  0  0  0  0  0  0  0  0  0  0  0
    0.6815   67.9513   65.0228 H   0  0  0  0  0  0  0  0  0  0  0  0
    2.9132   68.4554   63.9806 H   0  0  0  0  0  0  0  0  0  0  0  0
    4.4021   71.7878   69.0904 H   0  0  0  0  0  0  0  0  0  0  0  0
    3.9619   70.1753   69.7273 H   0  0  0  0  0  0  0  0  0  0  0  0
    5.9959   70.5428   70.5250 H   0  0  0  0  0  0  0  0  0  0  0  0
  2  1  1  0
  3  2  2  0
  4  2  1  0
  5  4  2  0
  6  4  1  0
  7  6  2  0
  7  1  1  0
  8  7  1  0
  9  8  2  0
 10  9  1  0
 11 10  2  0
 11  6  1  0
 12  1  1  0
 13 12  1  0
  8 14  1  0
  9 15  1  0
 10 16  1  0
 11 17  1  0
 12 18  1  0
 12 19  1  0
 13 20  1  0
M  END
>  <score>  (8) 
-6.797

$$$$
=
     RDKit          3D

 20 21  0  0  0  0  0  0  0  0999 V2000
    3.3590   67.9900   62.4460 N   0  0  0  0  0  0  0  0  0  0  0  0
    2.7130   68.7060   61.4540 C   0  0  0  0  0  0  0  0  0  0  0  0
    3.0940   68.9840   60.3370 O   0  0  0  0  0  0  0  0  0  0  0  0
    1.3450   69.1040   62.0640 C   0  0  0  0  0  0  0  0  0  0  0  0
    0.4600   69.7340   61.5310 O   0  0  0  0  0  0  0  0  0  0  0  0
    1.3480   68.5590   63.4200 C   0  0  0  0  0  0  0  0  0  0  0  0
    2.5660   67.9060   63.6020 C   0  0  0  0  0  0  0  0  0  0  0  0
    2.8530   67.2860   64.8030 C   0  0  0  0  0  0  0  0  0  0  0  0
    1.8860   67.3420   65.8170 C   0  0  0  0  0  0  0  0  0  0  0  0
    0.6600   68.0080   65.6180 C   0  0  0  0  0  0  0  0  0  0  0  0
    0.3780   68.6300   64.4020 C   0  0  0  0  0  0  0  0  0  0  0  0
    4.6850   67.4710   62.3180 C   0  0  0  0  0  0  0  0  0  0  0  0
    5.5380   68.5200   61.9100 O   0  0  0  0  0  0  0  0  0  0  0  0
    3.8093   66.7652   64.9587 H   0  0  0  0  0  0  0  0  0  0  0  0
    2.0877   66.8580   66.7840 H   0  0  0  0  0  0  0  0  0  0  0  0
   -0.0818   68.0375   66.4297 H   0  0  0  0  0  0  0  0  0  0  0  0
   -0.5742   69.1539   64.2320 H   0  0  0  0  0  0  0  0  0  0  0  0
    5.0230   67.0729   63.2861 H   0  0  0  0  0  0  0  0  0  0  0  0
    4.7027   66.6596   61.5755 H   0  0  0  0  0  0  0  0  0  0  0  0
    5.9074   68.9743   62.7082 H   0  0  0  0  0  0  0  0  0  0  0  0
  2  1  1  0
  3  2  2  0
  4  2  1  0
  5  4  2  0
  6  4  1  0
  7  6  2  0
  7  1  1  0
  8  7  1  0
  9  8  2  0
 10  9  1  0
 11 10  2  0
 11  6  1  0
 12  1  1  0
 13 12  1  0
  8 14  1  0
  9 15  1  0
 10 16  1  0
 11 17  1  0
 12 18  1  0
 12 19  1  0
 13 20  1  0
M  END
>  <score>  (9) 
-6.54

$$$$
