=
     RDKit          3D

 55 56  0  0  0  0  0  0  0  0999 V2000
    0.0310   67.3650   66.4790 C   0  0  0  0  0  0  0  0  0  0  0  0
    1.2360   67.9420   67.2450 C   0  0  0  0  0  0  0  0  0  0  0  0
    1.1700   67.7430   68.7560 C   0  0  0  0  0  0  0  0  0  0  0  0
    0.4160   66.4830   69.0660 N   0  0  0  0  0  4  0  0  0  0  0  0
   -1.0360   66.5630   68.6430 C   0  0  0  0  0  0  0  0  0  0  0  0
   -1.2100   67.4010   67.3750 C   0  0  0  0  0  0  0  0  0  0  0  0
   -0.2240   68.1020   65.1540 C   0  0  0  0  0  0  0  0  0  0  0  0
    1.0200   68.9170   63.1650 C   0  0  0  0  0  0  0  0  0  0  0  0
    0.1650   69.6930   62.7690 O   0  0  0  0  0  0  0  0  0  0  0  0
    0.9610   68.1800   64.3290 N   0  0  0  0  0  0  0  0  0  0  0  0
    2.2590   69.0810   61.1040 N   0  0  0  0  0  0  0  0  0  0  0  0
    2.2880   68.7250   62.3610 C   0  0  0  0  0  0  0  0  0  0  0  0
    3.5070   68.1540   63.0290 C   0  0  0  0  0  0  0  0  0  0  0  0
    3.7530   66.9650   62.8790 O   0  0  0  0  0  0  0  0  0  0  0  0
    4.3680   69.1240   63.7790 C   0  0  0  0  0  0  0  0  0  0  0  0
    3.4950   68.8490   60.4860 O   0  0  0  0  0  0  0  0  0  0  0  0
    0.5820   66.0640   70.5120 C   0  0  0  0  0  0  0  0  0  0  0  0
    1.0680   64.6490   70.6550 C   0  0  0  0  0  0  0  0  0  0  0  0
    0.2930   63.6820   71.3030 C   0  0  0  0  0  0  0  0  0  0  0  0
    0.7810   62.3810   71.4780 C   0  0  0  0  0  0  0  0  0  0  0  0
    2.0520   62.0140   71.0110 C   0  0  0  0  0  0  0  0  0  0  0  0
    2.8250   62.9760   70.3420 C   0  0  0  0  0  0  0  0  0  0  0  0
    2.3310   64.2790   70.1800 C   0  0  0  0  0  0  0  0  0  0  0  0
    4.0870   62.8340   69.8270 O   0  0  0  0  0  0  0  0  0  0  0  0
    5.1580   63.4590   70.5250 C   0  0  0  0  0  0  0  0  0  0  0  0
    2.5960   60.7760   71.2080 O   0  0  0  0  0  0  0  0  0  0  0  0
    2.3630   60.1210   72.4500 C   0  0  0  0  0  0  0  0  0  0  0  0
    0.2615   66.3219   66.2166 H   0  0  0  0  0  0  0  0  0  0  0  0
    2.1480   67.4530   66.8722 H   0  0  0  0  0  0  0  0  0  0  0  0
    1.2321   69.0278   67.0687 H   0  0  0  0  0  0  0  0  0  0  0  0
    2.1903   67.6678   69.1601 H   0  0  0  0  0  0  0  0  0  0  0  0
    0.6541   68.5994   69.2148 H   0  0  0  0  0  0  0  0  0  0  0  0
    0.8371   65.7351   68.4966 H   0  0  0  0  0  0  0  0  0  0  0  0
   -1.4083   65.5457   68.4520 H   0  0  0  0  0  0  0  0  0  0  0  0
   -1.6034   67.0445   69.4531 H   0  0  0  0  0  0  0  0  0  0  0  0
   -2.0673   67.0099   66.8075 H   0  0  0  0  0  0  0  0  0  0  0  0
   -1.3732   68.4447   67.6816 H   0  0  0  0  0  0  0  0  0  0  0  0
   -1.0073   67.5667   64.5973 H   0  0  0  0  0  0  0  0  0  0  0  0
   -0.5320   69.1299   65.3962 H   0  0  0  0  0  0  0  0  0  0  0  0
    1.8001   67.6609   64.6245 H   0  0  0  0  0  0  0  0  0  0  0  0
    4.2341   68.9731   64.8603 H   0  0  0  0  0  0  0  0  0  0  0  0
    5.4227   68.9593   63.5137 H   0  0  0  0  0  0  0  0  0  0  0  0
    4.0793   70.1517   63.5137 H   0  0  0  0  0  0  0  0  0  0  0  0
    3.6198   69.0721   59.5296 H   0  0  0  0  0  0  0  0  0  0  0  0
    1.3092   66.7358   70.9915 H   0  0  0  0  0  0  0  0  0  0  0  0
   -0.4065   66.1252   70.9907 H   0  0  0  0  0  0  0  0  0  0  0  0
   -0.7071   63.9451   71.6780 H   0  0  0  0  0  0  0  0  0  0  0  0
    0.1570   61.6340   71.9905 H   0  0  0  0  0  0  0  0  0  0  0  0
    2.9519   65.0282   69.6669 H   0  0  0  0  0  0  0  0  0  0  0  0
    4.9946   63.3636   71.6086 H   0  0  0  0  0  0  0  0  0  0  0  0
    6.1063   62.9725   70.2530 H   0  0  0  0  0  0  0  0  0  0  0  0
    5.2010   64.5240   70.2530 H   0  0  0  0  0  0  0  0  0  0  0  0
    2.6063   60.8049   73.2765 H   0  0  0  0  0  0  0  0  0  0  0  0
    1.3051   59.8270   72.5167 H   0  0  0  0  0  0  0  0  0  0  0  0
    2.9975   59.2249   72.5167 H   0  0  0  0  0  0  0  0  0  0  0  0
  2  1  1  0
  3  2  1  0
  4  3  1  0
  5  4  1  0
  6  5  1  0
  6  1  1  0
  7  1  1  0
  9  8  2  0
 10  8  1  0
 10  7  1  0
 12 11  2  0
 12  8  1  0
 13 12  1  0
 14 13  2  0
 15 13  1  0
 16 11  1  0
 17  4  1  0
 18 17  1  0
 19 18  2  0
 20 19  1  0
 21 20  2  0
 22 21  1  0
 23 22  2  0
 23 18  1  0
 24 22  1  0
 25 24  1  0
 26 21  1  0
 27 26  1  0
  1 28  1  0
  2 29  1  0
  2 30  1  0
  3 31  1  0
  3 32  1  0
  4 33  1  0
  5 34  1  0
  5 35  1  0
  6 36  1  0
  6 37  1  0
  7 38  1  0
  7 39  1  0
 10 40  1  0
 15 41  1  0
 15 42  1  0
 15 43  1  0
 16 44  1  0
 17 45  1  0
 17 46  1  0
 19 47  1  0
 20 48  1  0
 23 49  1  0
 25 50  1  0
 25 51  1  0
 25 52  1  0
 27 53  1  0
 27 54  1  0
 27 55  1  0
M  CHG  1   4   1
M  END
>  <score>  (1) 
-8.872

$$$$
=
     RDKit          3D

 55 56  0  0  0  0  0  0  0  0999 V2000
    0.0290   66.0630   70.0060 C   0  0  0  0  0  0  0  0  0  0  0  0
    1.5350   66.3620   69.8950 C   0  0  0  0  0  0  0  0  0  0  0  0
    1.8970   67.3520   68.7920 C   0  0  0  0  0  0  0  0  0  0  0  0
    0.7620   68.3130   68.5860 N   0  0  0  0  0  4  0  0  0  0  0  0
   -0.4850   67.6270   68.0690 C   0  0  0  0  0  0  0  0  0  0  0  0
   -0.6250   66.2110   68.6290 C   0  0  0  0  0  0  0  0  0  0  0  0
   -0.2460   64.6710   70.6010 C   0  0  0  0  0  0  0  0  0  0  0  0
    1.3180   62.8160   71.1270 C   0  0  0  0  0  0  0  0  0  0  0  0
    0.9410   62.6320   72.2730 O   0  0  0  0  0  0  0  0  0  0  0  0
    0.7610   63.7040   70.2300 N   0  0  0  0  0  0  0  0  0  0  0  0
    2.5520   60.7550   70.9360 N   0  0  0  0  0  0  0  0  0  0  0  0
    2.4750   62.0100   70.5790 C   0  0  0  0  0  0  0  0  0  0  0  0
    3.4660   62.6690   69.6590 C   0  0  0  0  0  0  0  0  0  0  0  0
    3.2600   62.6280   68.4540 O   0  0  0  0  0  0  0  0  0  0  0  0
    4.6030   63.3890   70.3160 C   0  0  0  0  0  0  0  0  0  0  0  0
    3.6680   60.1340   70.3570 O   0  0  0  0  0  0  0  0  0  0  0  0
    1.1720   69.4990   67.7380 C   0  0  0  0  0  0  0  0  0  0  0  0
    2.6290   69.8400   67.8810 C   0  0  0  0  0  0  0  0  0  0  0  0
    3.1090   70.4980   69.0170 C   0  0  0  0  0  0  0  0  0  0  0  0
    4.4580   70.8590   69.1130 C   0  0  0  0  0  0  0  0  0  0  0  0
    5.3610   70.5710   68.0780 C   0  0  0  0  0  0  0  0  0  0  0  0
    4.8890   69.8930   66.9430 C   0  0  0  0  0  0  0  0  0  0  0  0
    3.5320   69.5440   66.8530 C   0  0  0  0  0  0  0  0  0  0  0  0
    5.5900   69.5330   65.8230 O   0  0  0  0  0  0  0  0  0  0  0  0
    4.8730   69.4460   64.5960 C   0  0  0  0  0  0  0  0  0  0  0  0
    6.6740   70.9530   68.0980 O   0  0  0  0  0  0  0  0  0  0  0  0
    7.3930   70.8480   69.3210 C   0  0  0  0  0  0  0  0  0  0  0  0
   -0.4136   66.7923   70.7004 H   0  0  0  0  0  0  0  0  0  0  0  0
    1.8761   66.7758   70.8554 H   0  0  0  0  0  0  0  0  0  0  0  0
    2.0277   65.4119   69.6409 H   0  0  0  0  0  0  0  0  0  0  0  0
    2.8003   67.9089   69.0818 H   0  0  0  0  0  0  0  0  0  0  0  0
    2.0865   66.8043   67.8570 H   0  0  0  0  0  0  0  0  0  0  0  0
    0.5156   68.6890   69.5127 H   0  0  0  0  0  0  0  0  0  0  0  0
   -1.3651   68.2163   68.3658 H   0  0  0  0  0  0  0  0  0  0  0  0
   -0.4087   67.5567   66.9739 H   0  0  0  0  0  0  0  0  0  0  0  0
   -1.6946   65.9698   68.7177 H   0  0  0  0  0  0  0  0  0  0  0  0
   -0.1141   65.5240   67.9383 H   0  0  0  0  0  0  0  0  0  0  0  0
   -0.2689   64.7540   71.6976 H   0  0  0  0  0  0  0  0  0  0  0  0
   -1.2097   64.3208   70.2027 H   0  0  0  0  0  0  0  0  0  0  0  0
    1.0779   63.6762   69.2503 H   0  0  0  0  0  0  0  0  0  0  0  0
    4.4970   63.3219   71.4088 H   0  0  0  0  0  0  0  0  0  0  0  0
    5.5541   62.9282   70.0109 H   0  0  0  0  0  0  0  0  0  0  0  0
    4.5931   64.4458   70.0109 H   0  0  0  0  0  0  0  0  0  0  0  0
    3.8533   59.1788   70.5399 H   0  0  0  0  0  0  0  0  0  0  0  0
    0.9677   69.2643   66.6829 H   0  0  0  0  0  0  0  0  0  0  0  0
    0.5926   70.3686   68.0816 H   0  0  0  0  0  0  0  0  0  0  0  0
    2.4210   70.7340   69.8422 H   0  0  0  0  0  0  0  0  0  0  0  0
    4.8163   71.3771   70.0148 H   0  0  0  0  0  0  0  0  0  0  0  0
    3.1697   69.0255   65.9531 H   0  0  0  0  0  0  0  0  0  0  0  0
    3.8011   69.3159   64.8061 H   0  0  0  0  0  0  0  0  0  0  0  0
    5.0238   70.3690   64.0170 H   0  0  0  0  0  0  0  0  0  0  0  0
    5.2402   68.5858   64.0170 H   0  0  0  0  0  0  0  0  0  0  0  0
    6.6961   70.9498   70.1660 H   0  0  0  0  0  0  0  0  0  0  0  0
    7.8897   69.8678   69.3714 H   0  0  0  0  0  0  0  0  0  0  0  0
    8.1492   71.6452   69.3714 H   0  0  0  0  0  0  0  0  0  0  0  0
  2  1  1  0
  3  2  1  0
  4  3  1  0
  5  4  1  0
  6  5  1  0
  6  1  1  0
  7  1  1  0
  9  8  2  0
 10  8  1  0
 10  7  1  0
 12 11  2  0
 12  8  1  0
 13 12  1  0
 14 13  2  0
 15 13  1  0
 16 11  1  0
 17  4  1  0
 18 17  1  0
 19 18  2  0
 20 19  1  0
 21 20  2  0
 22 21  1  0
 23 22  2  0
 23 18  1  0
 24 22  1  0
 25 24  1  0
 26 21  1  0
 27 26  1  0
  1 28  1  0
  2 29  1  0
  2 30  1  0
  3 31  1  0
  3 32  1  0
  4 33  1  0
  5 34  1  0
  5 35  1  0
  6 36  1  0
  6 37  1  0
  7 38  1  0
  7 39  1  0
 10 40  1  0
 15 41  1  0
 15 42  1  0
 15 43  1  0
 16 44  1  0
 17 45  1  0
 17 46  1  0
 19 47  1  0
 20 48  1  0
 23 49  1  0
 25 50  1  0
 25 51  1  0
 25 52  1  0
 27 53  1  0
 27 54  1  0
 27 55  1  0
M  CHG  1   4   1
M  END
>  <score>  (2) 
-8.629

$$$$
=
     RDKit          3D

 55 56  0  0  0  0  0  0  0  0999 V2000
    0.0640   66.1130   70.0860 C   0  0  0  0  0  0  0  0  0  0  0  0
    1.5350   66.4960   69.8330 C   0  0  0  0  0  0  0  0  0  0  0  0
    1.7440   67.4130   68.6320 C   0  0  0  0  0  0  0  0  0  0  0  0
    0.5340   68.2800   68.4430 N   0  0  0  0  0  4  0  0  0  0  0  0
   -0.6980   67.4770   68.0810 C   0  0  0  0  0  0  0  0  0  0  0  0
   -0.6980   66.1060   68.7590 C   0  0  0  0  0  0  0  0  0  0  0  0
   -0.0680   64.7600   70.8070 C   0  0  0  0  0  0  0  0  0  0  0  0
    1.6810   63.0330   71.1520 C   0  0  0  0  0  0  0  0  0  0  0  0
    1.6030   62.9910   72.3700 O   0  0  0  0  0  0  0  0  0  0  0  0
    0.8750   63.7800   70.3190 N   0  0  0  0  0  0  0  0  0  0  0  0
    2.6560   60.8980   70.6010 N   0  0  0  0  0  0  0  0  0  0  0  0
    2.7190   62.1940   70.4380 C   0  0  0  0  0  0  0  0  0  0  0  0
    3.7530   62.8690   69.5810 C   0  0  0  0  0  0  0  0  0  0  0  0
    3.5440   62.9660   68.3790 O   0  0  0  0  0  0  0  0  0  0  0  0
    4.9420   63.4330   70.2970 C   0  0  0  0  0  0  0  0  0  0  0  0
    3.6720   60.2500   69.8860 O   0  0  0  0  0  0  0  0  0  0  0  0
    0.7960   69.4160   67.4770 C   0  0  0  0  0  0  0  0  0  0  0  0
    1.8840   69.0990   66.4880 C   0  0  0  0  0  0  0  0  0  0  0  0
    1.6120   68.3730   65.3240 C   0  0  0  0  0  0  0  0  0  0  0  0
    2.6440   68.0370   64.4400 C   0  0  0  0  0  0  0  0  0  0  0  0
    3.9700   68.4170   64.6950 C   0  0  0  0  0  0  0  0  0  0  0  0
    4.2450   69.1630   65.8510 C   0  0  0  0  0  0  0  0  0  0  0  0
    3.2050   69.4870   66.7360 C   0  0  0  0  0  0  0  0  0  0  0  0
    5.4600   69.6170   66.2940 O   0  0  0  0  0  0  0  0  0  0  0  0
    5.5060   70.2340   67.5760 C   0  0  0  0  0  0  0  0  0  0  0  0
    5.0200   68.0640   63.8930 O   0  0  0  0  0  0  0  0  0  0  0  0
    5.4780   68.9980   62.9220 C   0  0  0  0  0  0  0  0  0  0  0  0
   -0.3764   66.8675   70.7544 H   0  0  0  0  0  0  0  0  0  0  0  0
    1.9173   67.0077   70.7285 H   0  0  0  0  0  0  0  0  0  0  0  0
    2.0723   65.5613   69.6147 H   0  0  0  0  0  0  0  0  0  0  0  0
    2.6255   68.0477   68.8053 H   0  0  0  0  0  0  0  0  0  0  0  0
    1.9004   66.8031   67.7300 H   0  0  0  0  0  0  0  0  0  0  0  0
    0.3325   68.7143   69.3550 H   0  0  0  0  0  0  0  0  0  0  0  0
   -1.5922   68.0326   68.3999 H   0  0  0  0  0  0  0  0  0  0  0  0
   -0.6986   67.3214   66.9921 H   0  0  0  0  0  0  0  0  0  0  0  0
   -1.7389   65.8064   68.9506 H   0  0  0  0  0  0  0  0  0  0  0  0
   -0.1931   65.3980   68.0853 H   0  0  0  0  0  0  0  0  0  0  0  0
    0.1076   64.9142   71.8819 H   0  0  0  0  0  0  0  0  0  0  0  0
   -1.0804   64.3754   70.6144 H   0  0  0  0  0  0  0  0  0  0  0  0
    0.9486   63.6326   69.3023 H   0  0  0  0  0  0  0  0  0  0  0  0
    4.7852   63.3586   71.3832 H   0  0  0  0  0  0  0  0  0  0  0  0
    5.8418   62.8658   70.0167 H   0  0  0  0  0  0  0  0  0  0  0  0
    5.0720   64.4887   70.0167 H   0  0  0  0  0  0  0  0  0  0  0  0
    3.7469   59.2633   69.9166 H   0  0  0  0  0  0  0  0  0  0  0  0
   -0.1309   69.6284   66.9241 H   0  0  0  0  0  0  0  0  0  0  0  0
    1.1263   70.2837   68.0669 H   0  0  0  0  0  0  0  0  0  0  0  0
    0.5800   68.0639   65.1016 H   0  0  0  0  0  0  0  0  0  0  0  0
    2.4112   67.4651   63.5297 H   0  0  0  0  0  0  0  0  0  0  0  0
    3.4341   70.0599   67.6467 H   0  0  0  0  0  0  0  0  0  0  0  0
    5.4484   69.4615   68.3570 H   0  0  0  0  0  0  0  0  0  0  0  0
    6.4482   70.7919   67.6808 H   0  0  0  0  0  0  0  0  0  0  0  0
    4.6569   70.9254   67.6808 H   0  0  0  0  0  0  0  0  0  0  0  0
    5.9076   69.8740   63.4299 H   0  0  0  0  0  0  0  0  0  0  0  0
    6.2466   68.5255   62.2927 H   0  0  0  0  0  0  0  0  0  0  0  0
    4.6338   69.3164   62.2927 H   0  0  0  0  0  0  0  0  0  0  0  0
  2  1  1  0
  3  2  1  0
  4  3  1  0
  5  4  1  0
  6  5  1  0
  6  1  1  0
  7  1  1  0
  9  8  2  0
 10  8  1  0
 10  7  1  0
 12 11  2  0
 12  8  1  0
 13 12  1  0
 14 13  2  0
 15 13  1  0
 16 11  1  0
 17  4  1  0
 18 17  1  0
 19 18  2  0
 20 19  1  0
 21 20  2  0
 22 21  1  0
 23 22  2  0
 23 18  1  0
 24 22  1  0
 25 24  1  0
 26 21  1  0
 27 26  1  0
  1 28  1  0
  2 29  1  0
  2 30  1  0
  3 31  1  0
  3 32  1  0
  4 33  1  0
  5 34  1  0
  5 35  1  0
  6 36  1  0
  6 37  1  0
  7 38  1  0
  7 39  1  0
 10 40  1  0
 15 41  1  0
 15 42  1  0
 15 43  1  0
 16 44  1  0
 17 45  1  0
 17 46  1  0
 19 47  1  0
 20 48  1  0
 23 49  1  0
 25 50  1  0
 25 51  1  0
 25 52  1  0
 27 53  1  0
 27 54  1  0
 27 55  1  0
M  CHG  1   4   1
M  END
>  <score>  (3) 
-8.145

$$$$
=
     RDKit          3D

 55 56  0  0  0  0  0  0  0  0999 V2000
    0.0770   66.0880   70.0510 C   0  0  0  0  0  0  0  0  0  0  0  0
    1.5290   66.5170   69.7680 C   0  0  0  0  0  0  0  0  0  0  0  0
    1.6810   67.4630   68.5800 C   0  0  0  0  0  0  0  0  0  0  0  0
    0.4440   68.3000   68.4410 N   0  0  0  0  0  4  0  0  0  0  0  0
   -0.7760   67.4700   68.0960 C   0  0  0  0  0  0  0  0  0  0  0  0
   -0.7200   66.0860   68.7450 C   0  0  0  0  0  0  0  0  0  0  0  0
    0.0010   64.7190   70.7470 C   0  0  0  0  0  0  0  0  0  0  0  0
    1.5480   62.8010   71.0470 C   0  0  0  0  0  0  0  0  0  0  0  0
    1.1630   62.4780   72.1600 O   0  0  0  0  0  0  0  0  0  0  0  0
    1.0040   63.7970   70.2650 N   0  0  0  0  0  0  0  0  0  0  0  0
    2.7720   60.7710   70.6100 N   0  0  0  0  0  0  0  0  0  0  0  0
    2.7050   62.0610   70.4100 C   0  0  0  0  0  0  0  0  0  0  0  0
    3.7040   62.8210   69.5830 C   0  0  0  0  0  0  0  0  0  0  0  0
    3.4980   62.9440   68.3840 O   0  0  0  0  0  0  0  0  0  0  0  0
    4.8520   63.4320   70.3270 C   0  0  0  0  0  0  0  0  0  0  0  0
    3.8870   60.2180   69.9650 O   0  0  0  0  0  0  0  0  0  0  0  0
    0.6490   69.4620   67.4920 C   0  0  0  0  0  0  0  0  0  0  0  0
    1.3670   69.0630   66.2330 C   0  0  0  0  0  0  0  0  0  0  0  0
    2.7630   69.0840   66.1600 C   0  0  0  0  0  0  0  0  0  0  0  0
    3.4180   68.7630   64.9650 C   0  0  0  0  0  0  0  0  0  0  0  0
    2.6950   68.4150   63.8140 C   0  0  0  0  0  0  0  0  0  0  0  0
    1.2940   68.3730   63.8860 C   0  0  0  0  0  0  0  0  0  0  0  0
    0.6480   68.7050   65.0870 C   0  0  0  0  0  0  0  0  0  0  0  0
    0.4060   68.0770   62.8860 O   0  0  0  0  0  0  0  0  0  0  0  0
   -0.2810   69.1630   62.2730 C   0  0  0  0  0  0  0  0  0  0  0  0
    3.2840   68.1510   62.6080 O   0  0  0  0  0  0  0  0  0  0  0  0
    4.2450   67.1040   62.5360 C   0  0  0  0  0  0  0  0  0  0  0  0
   -0.3656   66.8168   70.7460 H   0  0  0  0  0  0  0  0  0  0  0  0
    1.9204   67.0219   70.6635 H   0  0  0  0  0  0  0  0  0  0  0  0
    2.0860   65.6022   69.5172 H   0  0  0  0  0  0  0  0  0  0  0  0
    2.5497   68.1180   68.7425 H   0  0  0  0  0  0  0  0  0  0  0  0
    1.8292   66.8753   67.6620 H   0  0  0  0  0  0  0  0  0  0  0  0
    0.2557   68.7111   69.3665 H   0  0  0  0  0  0  0  0  0  0  0  0
   -1.6757   67.9940   68.4507 H   0  0  0  0  0  0  0  0  0  0  0  0
   -0.8026   67.3363   67.0045 H   0  0  0  0  0  0  0  0  0  0  0  0
   -1.7467   65.7535   68.9578 H   0  0  0  0  0  0  0  0  0  0  0  0
   -0.2143   65.4060   68.0436 H   0  0  0  0  0  0  0  0  0  0  0  0
    0.1455   64.8642   71.8278 H   0  0  0  0  0  0  0  0  0  0  0  0
   -0.9855   64.2857   70.5256 H   0  0  0  0  0  0  0  0  0  0  0  0
    1.3275   63.8885   69.2914 H   0  0  0  0  0  0  0  0  0  0  0  0
    4.6783   63.3396   71.4093 H   0  0  0  0  0  0  0  0  0  0  0  0
    5.7822   62.9097   70.0590 H   0  0  0  0  0  0  0  0  0  0  0  0
    4.9383   64.4954   70.0590 H   0  0  0  0  0  0  0  0  0  0  0  0
    4.0649   59.2463   70.0299 H   0  0  0  0  0  0  0  0  0  0  0  0
   -0.3348   69.8728   67.2210 H   0  0  0  0  0  0  0  0  0  0  0  0
    1.2725   70.2067   68.0083 H   0  0  0  0  0  0  0  0  0  0  0  0
    3.3516   69.3550   67.0489 H   0  0  0  0  0  0  0  0  0  0  0  0
    4.5172   68.7840   64.9279 H   0  0  0  0  0  0  0  0  0  0  0  0
   -0.4510   68.6833   65.1285 H   0  0  0  0  0  0  0  0  0  0  0  0
   -0.6966   69.8200   63.0512 H   0  0  0  0  0  0  0  0  0  0  0  0
    0.4205   69.7342   61.6471 H   0  0  0  0  0  0  0  0  0  0  0  0
   -1.0976   68.7739   61.6471 H   0  0  0  0  0  0  0  0  0  0  0  0
    4.5281   66.7956   63.5532 H   0  0  0  0  0  0  0  0  0  0  0  0
    3.8132   66.2462   61.9996 H   0  0  0  0  0  0  0  0  0  0  0  0
    5.1366   67.4609   61.9996 H   0  0  0  0  0  0  0  0  0  0  0  0
  2  1  1  0
  3  2  1  0
  4  3  1  0
  5  4  1  0
  6  5  1  0
  6  1  1  0
  7  1  1  0
  9  8  2  0
 10  8  1  0
 10  7  1  0
 12 11  2  0
 12  8  1  0
 13 12  1  0
 14 13  2  0
 15 13  1  0
 16 11  1  0
 17  4  1  0
 18 17  1  0
 19 18  2  0
 20 19  1  0
 21 20  2  0
 22 21  1  0
 23 22  2  0
 23 18  1  0
 24 22  1  0
 25 24  1  0
 26 21  1  0
 27 26  1  0
  1 28  1  0
  2 29  1  0
  2 30  1  0
  3 31  1  0
  3 32  1  0
  4 33  1  0
  5 34  1  0
  5 35  1  0
  6 36  1  0
  6 37  1  0
  7 38  1  0
  7 39  1  0
 10 40  1  0
 15 41  1  0
 15 42  1  0
 15 43  1  0
 16 44  1  0
 17 45  1  0
 17 46  1  0
 19 47  1  0
 20 48  1  0
 23 49  1  0
 25 50  1  0
 25 51  1  0
 25 52  1  0
 27 53  1  0
 27 54  1  0
 27 55  1  0
M  CHG  1   4   1
M  END
>  <score>  (4) 
-8.046

$$$$
=
     RDKit          3D

 55 56  0  0  0  0  0  0  0  0999 V2000
    0.2370   66.8020   68.5040 C   0  0  0  0  0  0  0  0  0  0  0  0
   -1.2490   66.7700   68.1000 C   0  0  0  0  0  0  0  0  0  0  0  0
   -1.6300   67.7960   67.0370 C   0  0  0  0  0  0  0  0  0  0  0  0
   -0.4520   68.0570   66.1440 N   0  0  0  0  0  4  0  0  0  0  0  0
    0.6980   68.7070   66.8860 C   0  0  0  0  0  0  0  0  0  0  0  0
    0.7840   68.2220   68.3330 C   0  0  0  0  0  0  0  0  0  0  0  0
    0.4620   66.2920   69.9380 C   0  0  0  0  0  0  0  0  0  0  0  0
    0.8860   64.1060   71.0360 C   0  0  0  0  0  0  0  0  0  0  0  0
    0.1510   64.2820   71.9940 O   0  0  0  0  0  0  0  0  0  0  0  0
    1.0370   64.9670   69.9680 N   0  0  0  0  0  0  0  0  0  0  0  0
    1.3760   61.8520   71.7330 N   0  0  0  0  0  0  0  0  0  0  0  0
    1.7090   62.8400   70.9450 C   0  0  0  0  0  0  0  0  0  0  0  0
    2.8470   62.7660   69.9650 C   0  0  0  0  0  0  0  0  0  0  0  0
    2.6260   62.3310   68.8430 O   0  0  0  0  0  0  0  0  0  0  0  0
    4.1630   63.3050   70.4370 C   0  0  0  0  0  0  0  0  0  0  0  0
    2.2190   60.7480   71.5430 O   0  0  0  0  0  0  0  0  0  0  0  0
   -0.8460   68.8150   64.8930 C   0  0  0  0  0  0  0  0  0  0  0  0
    0.2340   68.8130   63.8480 C   0  0  0  0  0  0  0  0  0  0  0  0
    0.0930   69.5390   62.6620 C   0  0  0  0  0  0  0  0  0  0  0  0
    1.0820   69.4850   61.6730 C   0  0  0  0  0  0  0  0  0  0  0  0
    2.2360   68.7050   61.8430 C   0  0  0  0  0  0  0  0  0  0  0  0
    2.3920   67.9890   63.0400 C   0  0  0  0  0  0  0  0  0  0  0  0
    1.3900   68.0430   64.0220 C   0  0  0  0  0  0  0  0  0  0  0  0
    3.4230   67.1610   63.4000 O   0  0  0  0  0  0  0  0  0  0  0  0
    4.4580   67.7120   64.2080 C   0  0  0  0  0  0  0  0  0  0  0  0
    3.2010   68.5720   60.8840 O   0  0  0  0  0  0  0  0  0  0  0  0
    4.3530   69.4030   60.9610 C   0  0  0  0  0  0  0  0  0  0  0  0
    0.7858   66.1179   67.8401 H   0  0  0  0  0  0  0  0  0  0  0  0
   -1.4790   65.7675   67.7100 H   0  0  0  0  0  0  0  0  0  0  0  0
   -1.8273   67.0193   69.0019 H   0  0  0  0  0  0  0  0  0  0  0  0
   -2.4658   67.4078   66.4364 H   0  0  0  0  0  0  0  0  0  0  0  0
   -1.9325   68.7337   67.5261 H   0  0  0  0  0  0  0  0  0  0  0  0
   -0.1049   67.1396   65.8297 H   0  0  0  0  0  0  0  0  0  0  0  0
    1.6386   68.4613   66.3713 H   0  0  0  0  0  0  0  0  0  0  0  0
    0.5273   69.7936   66.8984 H   0  0  0  0  0  0  0  0  0  0  0  0
    1.8377   68.2354   68.6485 H   0  0  0  0  0  0  0  0  0  0  0  0
    0.1709   68.8951   68.9503 H   0  0  0  0  0  0  0  0  0  0  0  0
    1.1422   66.9839   70.4563 H   0  0  0  0  0  0  0  0  0  0  0  0
   -0.5186   66.2431   70.4340 H   0  0  0  0  0  0  0  0  0  0  0  0
    1.5847   64.6504   69.1552 H   0  0  0  0  0  0  0  0  0  0  0  0
    4.1827   63.3131   71.5368 H   0  0  0  0  0  0  0  0  0  0  0  0
    4.9766   62.6677   70.0604 H   0  0  0  0  0  0  0  0  0  0  0  0
    4.2958   64.3299   70.0604 H   0  0  0  0  0  0  0  0  0  0  0  0
    2.0833   59.9242   72.0750 H   0  0  0  0  0  0  0  0  0  0  0  0
   -1.7472   68.3486   64.4683 H   0  0  0  0  0  0  0  0  0  0  0  0
   -1.0262   69.8610   65.1818 H   0  0  0  0  0  0  0  0  0  0  0  0
   -0.8026   70.1579   62.5045 H   0  0  0  0  0  0  0  0  0  0  0  0
    0.9524   70.0639   60.7467 H   0  0  0  0  0  0  0  0  0  0  0  0
    1.5164   67.4665   64.9502 H   0  0  0  0  0  0  0  0  0  0  0  0
    4.2051   67.5773   65.2700 H   0  0  0  0  0  0  0  0  0  0  0  0
    5.4063   67.1994   63.9891 H   0  0  0  0  0  0  0  0  0  0  0  0
    4.5622   68.7849   63.9891 H   0  0  0  0  0  0  0  0  0  0  0  0
    4.6044   69.5844   62.0164 H   0  0  0  0  0  0  0  0  0  0  0  0
    5.1981   68.9052   60.4631 H   0  0  0  0  0  0  0  0  0  0  0  0
    4.1473   70.3620   60.4631 H   0  0  0  0  0  0  0  0  0  0  0  0
  2  1  1  0
  3  2  1  0
  4  3  1  0
  5  4  1  0
  6  5  1  0
  6  1  1  0
  7  1  1  0
  9  8  2  0
 10  8  1  0
 10  7  1  0
 12 11  2  0
 12  8  1  0
 13 12  1  0
 14 13  2  0
 15 13  1  0
 16 11  1  0
 17  4  1  0
 18 17  1  0
 19 18  2  0
 20 19  1  0
 21 20  2  0
 22 21  1  0
 23 22  2  0
 23 18  1  0
 24 22  1  0
 25 24  1  0
 26 21  1  0
 27 26  1  0
  1 28  1  0
  2 29  1  0
  2 30  1  0
  3 31  1  0
  3 32  1  0
  4 33  1  0
  5 34  1  0
  5 35  1  0
  6 36  1  0
  6 37  1  0
  7 38  1  0
  7 39  1  0
 10 40  1  0
 15 41  1  0
 15 42  1  0
 15 43  1  0
 16 44  1  0
 17 45  1  0
 17 46  1  0
 19 47  1  0
 20 48  1  0
 23 49  1  0
 25 50  1  0
 25 51  1  0
 25 52  1  0
 27 53  1  0
 27 54  1  0
 27 55  1  0
M  CHG  1   4   1
M  END
>  <score>  (5) 
-8.015

$$$$
=
     RDKit          3D

 55 56  0  0  0  0  0  0  0  0999 V2000
    0.8650   65.3420   69.8980 C   0  0  0  0  0  0  0  0  0  0  0  0
   -0.5170   65.5660   69.2580 C   0  0  0  0  0  0  0  0  0  0  0  0
   -0.6580   66.8960   68.5240 C   0  0  0  0  0  0  0  0  0  0  0  0
    0.6760   67.3110   67.9740 N   0  0  0  0  0  4  0  0  0  0  0  0
    1.6830   67.6010   69.0680 C   0  0  0  0  0  0  0  0  0  0  0  0
    1.4780   66.6920   70.2800 C   0  0  0  0  0  0  0  0  0  0  0  0
    0.7980   64.4020   71.1140 C   0  0  0  0  0  0  0  0  0  0  0  0
    2.4620   62.7220   70.3570 C   0  0  0  0  0  0  0  0  0  0  0  0
    1.9990   62.5550   69.2400 O   0  0  0  0  0  0  0  0  0  0  0  0
    2.0110   63.6350   71.2870 N   0  0  0  0  0  0  0  0  0  0  0  0
    4.6950   62.5520   71.2500 N   0  0  0  0  0  0  0  0  0  0  0  0
    3.6510   61.9010   70.8070 C   0  0  0  0  0  0  0  0  0  0  0  0
    3.5830   60.4010   70.7360 C   0  0  0  0  0  0  0  0  0  0  0  0
    4.2570   59.8240   69.8930 O   0  0  0  0  0  0  0  0  0  0  0  0
    2.7310   59.7270   71.7680 C   0  0  0  0  0  0  0  0  0  0  0  0
    5.7150   61.6690   71.6290 O   0  0  0  0  0  0  0  0  0  0  0  0
    0.5500   68.4460   66.9790 C   0  0  0  0  0  0  0  0  0  0  0  0
    1.7950   68.6430   66.1610 C   0  0  0  0  0  0  0  0  0  0  0  0
    1.9310   68.0570   64.8990 C   0  0  0  0  0  0  0  0  0  0  0  0
    3.1190   68.2030   64.1720 C   0  0  0  0  0  0  0  0  0  0  0  0
    4.1980   68.9370   64.6860 C   0  0  0  0  0  0  0  0  0  0  0  0
    4.0600   69.5440   65.9440 C   0  0  0  0  0  0  0  0  0  0  0  0
    2.8690   69.3840   66.6680 C   0  0  0  0  0  0  0  0  0  0  0  0
    4.9870   70.2830   66.6300 O   0  0  0  0  0  0  0  0  0  0  0  0
    4.8600   70.3480   68.0470 C   0  0  0  0  0  0  0  0  0  0  0  0
    5.3980   69.0590   64.0410 O   0  0  0  0  0  0  0  0  0  0  0  0
    5.4170   68.9800   62.6210 C   0  0  0  0  0  0  0  0  0  0  0  0
    1.5083   64.8470   69.1557 H   0  0  0  0  0  0  0  0  0  0  0  0
   -0.6998   64.7540   68.5388 H   0  0  0  0  0  0  0  0  0  0  0  0
   -1.2477   65.5796   70.0802 H   0  0  0  0  0  0  0  0  0  0  0  0
   -1.3759   66.7841   67.6981 H   0  0  0  0  0  0  0  0  0  0  0  0
   -1.0195   67.6635   69.2243 H   0  0  0  0  0  0  0  0  0  0  0  0
    1.0481   66.5056   67.4508 H   0  0  0  0  0  0  0  0  0  0  0  0
    2.6965   67.4426   68.6708 H   0  0  0  0  0  0  0  0  0  0  0  0
    1.5457   68.6428   69.3933 H   0  0  0  0  0  0  0  0  0  0  0  0
    2.4527   66.5151   70.7582 H   0  0  0  0  0  0  0  0  0  0  0  0
    0.7800   67.1965   70.9643 H   0  0  0  0  0  0  0  0  0  0  0  0
    0.6302   65.0058   72.0180 H   0  0  0  0  0  0  0  0  0  0  0  0
   -0.0252   63.6925   70.9436 H   0  0  0  0  0  0  0  0  0  0  0  0
    2.5639   63.7769   72.1443 H   0  0  0  0  0  0  0  0  0  0  0  0
    3.0827   60.0052   72.7724 H   0  0  0  0  0  0  0  0  0  0  0  0
    1.6852   60.0449   71.6446 H   0  0  0  0  0  0  0  0  0  0  0  0
    2.7996   58.6361   71.6446 H   0  0  0  0  0  0  0  0  0  0  0  0
    6.5686   62.0222   71.9849 H   0  0  0  0  0  0  0  0  0  0  0  0
   -0.2863   68.2263   66.2991 H   0  0  0  0  0  0  0  0  0  0  0  0
    0.3789   69.3703   67.5503 H   0  0  0  0  0  0  0  0  0  0  0  0
    1.0986   67.4769   64.4739 H   0  0  0  0  0  0  0  0  0  0  0  0
    3.2074   67.7340   63.1809 H   0  0  0  0  0  0  0  0  0  0  0  0
    2.7768   69.8526   67.6589 H   0  0  0  0  0  0  0  0  0  0  0  0
    5.7459   69.8946   68.5157 H   0  0  0  0  0  0  0  0  0  0  0  0
    4.7772   71.3993   68.3599 H   0  0  0  0  0  0  0  0  0  0  0  0
    3.9588   69.8003   68.3599 H   0  0  0  0  0  0  0  0  0  0  0  0
    5.6640   67.9529   62.3142 H   0  0  0  0  0  0  0  0  0  0  0  0
    4.4276   69.2530   62.2253 H   0  0  0  0  0  0  0  0  0  0  0  0
    6.1741   69.6730   62.2253 H   0  0  0  0  0  0  0  0  0  0  0  0
  2  1  1  0
  3  2  1  0
  4  3  1  0
  5  4  1  0
  6  5  1  0
  6  1  1  0
  7  1  1  0
  9  8  2  0
 10  8  1  0
 10  7  1  0
 12 11  2  0
 12  8  1  0
 13 12  1  0
 14 13  2  0
 15 13  1  0
 16 11  1  0
 17  4  1  0
 18 17  1  0
 19 18  2  0
 20 19  1  0
 21 20  2  0
 22 21  1  0
 23 22  2  0
 23 18  1  0
 24 22  1  0
 25 24  1  0
 26 21  1  0
 27 26  1  0
  1 28  1  0
  2 29  1  0
  2 30  1  0
  3 31  1  0
  3 32  1  0
  4 33  1  0
  5 34  1  0
  5 35  1  0
  6 36  1  0
  6 37  1  0
  7 38  1  0
  7 39  1  0
 10 40  1  0
 15 41  1  0
 15 42  1  0
 15 43  1  0
 16 44  1  0
 17 45  1  0
 17 46  1  0
 19 47  1  0
 20 48  1  0
 23 49  1  0
 25 50  1  0
 25 51  1  0
 25 52  1  0
 27 53  1  0
 27 54  1  0
 27 55  1  0
M  CHG  1   4   1
M  END
>  <score>  (6) 
-7.827

$$$$
=
     RDKit          3D

 55 56  0  0  0  0  0  0  0  0999 V2000
    2.7640   62.3390   69.7330 C   0  0  0  0  0  0  0  0  0  0  0  0
    1.3940   62.2450   70.4310 C   0  0  0  0  0  0  0  0  0  0  0  0
    0.8790   63.5740   70.9770 C   0  0  0  0  0  0  0  0  0  0  0  0
    1.3890   64.7000   70.1260 N   0  0  0  0  0  4  0  0  0  0  0  0
    2.8970   64.8350   70.1960 C   0  0  0  0  0  0  0  0  0  0  0  0
    3.5790   63.4760   70.3550 C   0  0  0  0  0  0  0  0  0  0  0  0
    3.5380   61.0100   69.7890 C   0  0  0  0  0  0  0  0  0  0  0  0
    3.9030   60.1170   72.0760 C   0  0  0  0  0  0  0  0  0  0  0  0
    4.8700   60.8110   72.3480 O   0  0  0  0  0  0  0  0  0  0  0  0
    3.1560   60.1960   70.9200 N   0  0  0  0  0  0  0  0  0  0  0  0
    4.1660   58.8710   74.1220 N   0  0  0  0  0  0  0  0  0  0  0  0
    3.4240   59.0780   73.0660 C   0  0  0  0  0  0  0  0  0  0  0  0
    2.1360   58.3470   72.8060 C   0  0  0  0  0  0  0  0  0  0  0  0
    2.1830   57.2600   72.2490 O   0  0  0  0  0  0  0  0  0  0  0  0
    0.8890   58.9980   73.3240 C   0  0  0  0  0  0  0  0  0  0  0  0
    3.6040   57.8880   74.9490 O   0  0  0  0  0  0  0  0  0  0  0  0
    0.6710   66.0010   70.4170 C   0  0  0  0  0  0  0  0  0  0  0  0
    0.1610   66.6740   69.1740 C   0  0  0  0  0  0  0  0  0  0  0  0
   -1.1290   66.4240   68.6950 C   0  0  0  0  0  0  0  0  0  0  0  0
   -1.5720   67.0150   67.5050 C   0  0  0  0  0  0  0  0  0  0  0  0
   -0.7400   67.8690   66.7660 C   0  0  0  0  0  0  0  0  0  0  0  0
    0.5480   68.1390   67.2530 C   0  0  0  0  0  0  0  0  0  0  0  0
    0.9860   67.5340   68.4410 C   0  0  0  0  0  0  0  0  0  0  0  0
    1.5180   68.9230   66.6840 O   0  0  0  0  0  0  0  0  0  0  0  0
    2.5330   69.4390   67.5390 C   0  0  0  0  0  0  0  0  0  0  0  0
   -1.1050   68.4230   65.5710 O   0  0  0  0  0  0  0  0  0  0  0  0
   -2.4350   68.9050   65.4230 C   0  0  0  0  0  0  0  0  0  0  0  0
    2.5906   62.5552   68.6685 H   0  0  0  0  0  0  0  0  0  0  0  0
    0.6618   61.8633   69.7043 H   0  0  0  0  0  0  0  0  0  0  0  0
    1.5240   61.5767   71.2950 H   0  0  0  0  0  0  0  0  0  0  0  0
   -0.2209   63.5738   70.9630 H   0  0  0  0  0  0  0  0  0  0  0  0
    1.2344   63.7068   72.0095 H   0  0  0  0  0  0  0  0  0  0  0  0
    1.1695   64.4598   69.1488 H   0  0  0  0  0  0  0  0  0  0  0  0
    3.2560   65.3080   69.2701 H   0  0  0  0  0  0  0  0  0  0  0  0
    3.1462   65.4488   71.0741 H   0  0  0  0  0  0  0  0  0  0  0  0
    4.5630   63.5148   69.8648 H   0  0  0  0  0  0  0  0  0  0  0  0
    3.6735   63.2715   71.4317 H   0  0  0  0  0  0  0  0  0  0  0  0
    3.3393   60.4466   68.8654 H   0  0  0  0  0  0  0  0  0  0  0  0
    4.6066   61.2490   69.8941 H   0  0  0  0  0  0  0  0  0  0  0  0
    2.2851   59.6493   70.8598 H   0  0  0  0  0  0  0  0  0  0  0  0
    0.9017   58.9914   74.4239 H   0  0  0  0  0  0  0  0  0  0  0  0
    0.8408   60.0363   72.9641 H   0  0  0  0  0  0  0  0  0  0  0  0
    0.0095   58.4440   72.9641 H   0  0  0  0  0  0  0  0  0  0  0  0
    4.0599   57.6274   75.7883 H   0  0  0  0  0  0  0  0  0  0  0  0
   -0.1823   65.7914   71.0787 H   0  0  0  0  0  0  0  0  0  0  0  0
    1.3953   66.6811   70.8891 H   0  0  0  0  0  0  0  0  0  0  0  0
   -1.8006   65.7583   69.2570 H   0  0  0  0  0  0  0  0  0  0  0  0
   -2.5897   66.8059   67.1437 H   0  0  0  0  0  0  0  0  0  0  0  0
    2.0032   67.7410   68.8050 H   0  0  0  0  0  0  0  0  0  0  0  0
    2.2392   69.2897   68.5885 H   0  0  0  0  0  0  0  0  0  0  0  0
    3.4789   68.9124   67.3445 H   0  0  0  0  0  0  0  0  0  0  0  0
    2.6649   70.5136   67.3445 H   0  0  0  0  0  0  0  0  0  0  0  0
   -2.8793   69.0660   66.4163 H   0  0  0  0  0  0  0  0  0  0  0  0
   -2.4211   69.8553   64.8691 H   0  0  0  0  0  0  0  0  0  0  0  0
   -3.0331   68.1665   64.8691 H   0  0  0  0  0  0  0  0  0  0  0  0
  2  1  1  0
  3  2  1  0
  4  3  1  0
  5  4  1  0
  6  5  1  0
  6  1  1  0
  7  1  1  0
  9  8  2  0
 10  8  1  0
 10  7  1  0
 12 11  2  0
 12  8  1  0
 13 12  1  0
 14 13  2  0
 15 13  1  0
 16 11  1  0
 17  4  1  0
 18 17  1  0
 19 18  2  0
 20 19  1  0
 21 20  2  0
 22 21  1  0
 23 22  2  0
 23 18  1  0
 24 22  1  0
 25 24  1  0
 26 21  1  0
 27 26  1  0
  1 28  1  0
  2 29  1  0
  2 30  1  0
  3 31  1  0
  3 32  1  0
  4 33  1  0
  5 34  1  0
  5 35  1  0
  6 36  1  0
  6 37  1  0
  7 38  1  0
  7 39  1  0
 10 40  1  0
 15 41  1  0
 15 42  1  0
 15 43  1  0
 16 44  1  0
 17 45  1  0
 17 46  1  0
 19 47  1  0
 20 48  1  0
 23 49  1  0
 25 50  1  0
 25 51  1  0
 25 52  1  0
 27 53  1  0
 27 54  1  0
 27 55  1  0
M  CHG  1   4   1
M  END
>  <score>  (7) 
-7.787

$$$$
=
     RDKit          3D

 55 56  0  0  0  0  0  0  0  0999 V2000
    1.2300   64.5540   70.9650 C   0  0  0  0  0  0  0  0  0  0  0  0
    0.6050   63.3030   70.3190 C   0  0  0  0  0  0  0  0  0  0  0  0
    1.6170   62.2290   69.9290 C   0  0  0  0  0  0  0  0  0  0  0  0
    2.7890   62.2780   70.8650 N   0  0  0  0  0  4  0  0  0  0  0  0
    3.5660   63.5740   70.7450 C   0  0  0  0  0  0  0  0  0  0  0  0
    2.6480   64.7550   70.4240 C   0  0  0  0  0  0  0  0  0  0  0  0
    0.3730   65.8120   70.7460 C   0  0  0  0  0  0  0  0  0  0  0  0
    0.7260   67.1960   68.7150 C   0  0  0  0  0  0  0  0  0  0  0  0
    1.5570   67.9490   69.1980 O   0  0  0  0  0  0  0  0  0  0  0  0
    0.1680   66.1040   69.3450 N   0  0  0  0  0  0  0  0  0  0  0  0
    1.0290   67.0080   66.3310 N   0  0  0  0  0  0  0  0  0  0  0  0
    0.2490   67.4180   67.2960 C   0  0  0  0  0  0  0  0  0  0  0  0
   -1.0810   68.0780   67.0580 C   0  0  0  0  0  0  0  0  0  0  0  0
   -1.0960   69.2350   66.6620 O   0  0  0  0  0  0  0  0  0  0  0  0
   -2.2920   67.2220   67.2660 C   0  0  0  0  0  0  0  0  0  0  0  0
    0.4640   67.2750   65.0770 O   0  0  0  0  0  0  0  0  0  0  0  0
    3.6700   61.0530   70.7340 C   0  0  0  0  0  0  0  0  0  0  0  0
    3.0700   59.8350   71.3770 C   0  0  0  0  0  0  0  0  0  0  0  0
    3.3260   58.5540   70.8770 C   0  0  0  0  0  0  0  0  0  0  0  0
    2.7170   57.4320   71.4520 C   0  0  0  0  0  0  0  0  0  0  0  0
    1.8400   57.5610   72.5390 C   0  0  0  0  0  0  0  0  0  0  0  0
    1.5950   58.8420   73.0570 C   0  0  0  0  0  0  0  0  0  0  0  0
    2.2030   59.9610   72.4680 C   0  0  0  0  0  0  0  0  0  0  0  0
    0.7670   59.1890   74.0930 O   0  0  0  0  0  0  0  0  0  0  0  0
    1.3110   59.1620   75.4080 C   0  0  0  0  0  0  0  0  0  0  0  0
    1.1750   56.5040   73.0980 O   0  0  0  0  0  0  0  0  0  0  0  0
    1.8710   55.6780   74.0240 C   0  0  0  0  0  0  0  0  0  0  0  0
    1.2737   64.3910   72.0520 H   0  0  0  0  0  0  0  0  0  0  0  0
   -0.1058   62.8638   71.0344 H   0  0  0  0  0  0  0  0  0  0  0  0
    0.1220   63.6354   69.3883 H   0  0  0  0  0  0  0  0  0  0  0  0
    1.1416   61.2389   69.9892 H   0  0  0  0  0  0  0  0  0  0  0  0
    1.9631   62.4094   68.9006 H   0  0  0  0  0  0  0  0  0  0  0  0
    2.4091   62.2616   71.8222 H   0  0  0  0  0  0  0  0  0  0  0  0
    4.0807   63.7708   71.6970 H   0  0  0  0  0  0  0  0  0  0  0  0
    4.2880   63.4666   69.9221 H   0  0  0  0  0  0  0  0  0  0  0  0
    3.0722   65.6649   70.8736 H   0  0  0  0  0  0  0  0  0  0  0  0
    2.5810   64.8407   69.3294 H   0  0  0  0  0  0  0  0  0  0  0  0
   -0.6069   65.6587   71.2217 H   0  0  0  0  0  0  0  0  0  0  0  0
    0.9089   66.6636   71.1905 H   0  0  0  0  0  0  0  0  0  0  0  0
   -0.4224   65.4666   68.7918 H   0  0  0  0  0  0  0  0  0  0  0  0
   -2.4709   67.0956   68.3440 H   0  0  0  0  0  0  0  0  0  0  0  0
   -3.1658   67.7043   66.8034 H   0  0  0  0  0  0  0  0  0  0  0  0
   -2.1289   66.2374   66.8034 H   0  0  0  0  0  0  0  0  0  0  0  0
    0.9466   67.0178   64.2517 H   0  0  0  0  0  0  0  0  0  0  0  0
    3.8271   60.8453   69.6653 H   0  0  0  0  0  0  0  0  0  0  0  0
    4.6171   61.2685   71.2504 H   0  0  0  0  0  0  0  0  0  0  0  0
    4.0109   58.4271   70.0257 H   0  0  0  0  0  0  0  0  0  0  0  0
    2.9299   56.4327   71.0445 H   0  0  0  0  0  0  0  0  0  0  0  0
    1.9930   60.9616   72.8738 H   0  0  0  0  0  0  0  0  0  0  0  0
    0.4942   59.2025   76.1436 H   0  0  0  0  0  0  0  0  0  0  0  0
    1.8851   58.2343   75.5483 H   0  0  0  0  0  0  0  0  0  0  0  0
    1.9742   60.0283   75.5483 H   0  0  0  0  0  0  0  0  0  0  0  0
    1.6154   55.9813   75.0500 H   0  0  0  0  0  0  0  0  0  0  0  0
    1.5810   54.6283   73.8690 H   0  0  0  0  0  0  0  0  0  0  0  0
    2.9547   55.7858   73.8690 H   0  0  0  0  0  0  0  0  0  0  0  0
  2  1  1  0
  3  2  1  0
  4  3  1  0
  5  4  1  0
  6  5  1  0
  6  1  1  0
  7  1  1  0
  9  8  2  0
 10  8  1  0
 10  7  1  0
 12 11  2  0
 12  8  1  0
 13 12  1  0
 14 13  2  0
 15 13  1  0
 16 11  1  0
 17  4  1  0
 18 17  1  0
 19 18  2  0
 20 19  1  0
 21 20  2  0
 22 21  1  0
 23 22  2  0
 23 18  1  0
 24 22  1  0
 25 24  1  0
 26 21  1  0
 27 26  1  0
  1 28  1  0
  2 29  1  0
  2 30  1  0
  3 31  1  0
  3 32  1  0
  4 33  1  0
  5 34  1  0
  5 35  1  0
  6 36  1  0
  6 37  1  0
  7 38  1  0
  7 39  1  0
 10 40  1  0
 15 41  1  0
 15 42  1  0
 15 43  1  0
 16 44  1  0
 17 45  1  0
 17 46  1  0
 19 47  1  0
 20 48  1  0
 23 49  1  0
 25 50  1  0
 25 51  1  0
 25 52  1  0
 27 53  1  0
 27 54  1  0
 27 55  1  0
M  CHG  1   4   1
M  END
>  <score>  (8) 
-7.732

$$$$
=
     RDKit          3D

 55 56  0  0  0  0  0  0  0  0999 V2000
    0.2080   66.1250   69.5720 C   0  0  0  0  0  0  0  0  0  0  0  0
   -1.1040   66.4430   68.8300 C   0  0  0  0  0  0  0  0  0  0  0  0
   -0.9370   67.3790   67.6360 C   0  0  0  0  0  0  0  0  0  0  0  0
    0.4240   67.1860   67.0330 N   0  0  0  0  0  4  0  0  0  0  0  0
    1.5350   67.5960   67.9780 C   0  0  0  0  0  0  0  0  0  0  0  0
    1.1720   67.3070   69.4350 C   0  0  0  0  0  0  0  0  0  0  0  0
   -0.0300   65.7750   71.0510 C   0  0  0  0  0  0  0  0  0  0  0  0
    0.5210   63.9980   72.6950 C   0  0  0  0  0  0  0  0  0  0  0  0
   -0.3160   64.3090   73.5280 O   0  0  0  0  0  0  0  0  0  0  0  0
    0.6780   64.5820   71.4550 N   0  0  0  0  0  0  0  0  0  0  0  0
    1.9890   62.8010   74.1850 N   0  0  0  0  0  0  0  0  0  0  0  0
    1.4790   62.8630   72.9830 C   0  0  0  0  0  0  0  0  0  0  0  0
    1.7940   61.8680   71.9010 C   0  0  0  0  0  0  0  0  0  0  0  0
    1.2000   60.7990   71.8990 O   0  0  0  0  0  0  0  0  0  0  0  0
    2.7780   62.3090   70.8610 C   0  0  0  0  0  0  0  0  0  0  0  0
    2.8540   61.7060   74.3100 O   0  0  0  0  0  0  0  0  0  0  0  0
    0.5400   67.8450   65.6740 C   0  0  0  0  0  0  0  0  0  0  0  0
    1.9630   67.9730   65.2090 C   0  0  0  0  0  0  0  0  0  0  0  0
    2.7280   69.1000   65.5280 C   0  0  0  0  0  0  0  0  0  0  0  0
    4.0340   69.2330   65.0430 C   0  0  0  0  0  0  0  0  0  0  0  0
    4.6090   68.2450   64.2290 C   0  0  0  0  0  0  0  0  0  0  0  0
    3.8530   67.1030   63.9230 C   0  0  0  0  0  0  0  0  0  0  0  0
    2.5420   66.9840   64.4070 C   0  0  0  0  0  0  0  0  0  0  0  0
    4.2140   66.0370   63.1400 O   0  0  0  0  0  0  0  0  0  0  0  0
    4.3940   64.7790   63.7820 C   0  0  0  0  0  0  0  0  0  0  0  0
    5.8580   68.3540   63.6830 O   0  0  0  0  0  0  0  0  0  0  0  0
    5.9970   69.0170   62.4320 C   0  0  0  0  0  0  0  0  0  0  0  0
    0.6556   65.2334   69.1085 H   0  0  0  0  0  0  0  0  0  0  0  0
   -1.5341   65.4971   68.4692 H   0  0  0  0  0  0  0  0  0  0  0  0
   -1.7558   66.9611   69.5488 H   0  0  0  0  0  0  0  0  0  0  0  0
   -1.7066   67.1533   66.8831 H   0  0  0  0  0  0  0  0  0  0  0  0
   -1.0445   68.4214   67.9705 H   0  0  0  0  0  0  0  0  0  0  0  0
    0.5414   66.1746   66.8775 H   0  0  0  0  0  0  0  0  0  0  0  0
    2.4469   67.0375   67.7201 H   0  0  0  0  0  0  0  0  0  0  0  0
    1.6937   68.6793   67.8720 H   0  0  0  0  0  0  0  0  0  0  0  0
    2.0936   67.0776   69.9900 H   0  0  0  0  0  0  0  0  0  0  0  0
    0.6699   68.1984   69.8392 H   0  0  0  0  0  0  0  0  0  0  0  0
    0.3113   66.6160   71.6725 H   0  0  0  0  0  0  0  0  0  0  0  0
   -1.1059   65.5876   71.1826 H   0  0  0  0  0  0  0  0  0  0  0  0
    1.3300   64.1475   70.7864 H   0  0  0  0  0  0  0  0  0  0  0  0
    3.6758   62.7114   71.3529 H   0  0  0  0  0  0  0  0  0  0  0  0
    3.0577   61.4501   70.2332 H   0  0  0  0  0  0  0  0  0  0  0  0
    2.3230   63.0893   70.2332 H   0  0  0  0  0  0  0  0  0  0  0  0
    3.3139   61.5341   75.1697 H   0  0  0  0  0  0  0  0  0  0  0  0
   -0.0161   67.2411   64.9419 H   0  0  0  0  0  0  0  0  0  0  0  0
    0.1275   68.8609   65.7621 H   0  0  0  0  0  0  0  0  0  0  0  0
    2.2996   69.8878   66.1651 H   0  0  0  0  0  0  0  0  0  0  0  0
    4.6195   70.1268   65.3042 H   0  0  0  0  0  0  0  0  0  0  0  0
    1.9544   66.0905   64.1494 H   0  0  0  0  0  0  0  0  0  0  0  0
    4.3741   64.9180   64.8730 H   0  0  0  0  0  0  0  0  0  0  0  0
    3.5844   64.0963   63.4845 H   0  0  0  0  0  0  0  0  0  0  0  0
    5.3626   64.3508   63.4845 H   0  0  0  0  0  0  0  0  0  0  0  0
    6.2200   70.0804   62.6034 H   0  0  0  0  0  0  0  0  0  0  0  0
    6.8183   68.5573   61.8627 H   0  0  0  0  0  0  0  0  0  0  0  0
    5.0602   68.9259   61.8627 H   0  0  0  0  0  0  0  0  0  0  0  0
  2  1  1  0
  3  2  1  0
  4  3  1  0
  5  4  1  0
  6  5  1  0
  6  1  1  0
  7  1  1  0
  9  8  2  0
 10  8  1  0
 10  7  1  0
 12 11  2  0
 12  8  1  0
 13 12  1  0
 14 13  2  0
 15 13  1  0
 16 11  1  0
 17  4  1  0
 18 17  1  0
 19 18  2  0
 20 19  1  0
 21 20  2  0
 22 21  1  0
 23 22  2  0
 23 18  1  0
 24 22  1  0
 25 24  1  0
 26 21  1  0
 27 26  1  0
  1 28  1  0
  2 29  1  0
  2 30  1  0
  3 31  1  0
  3 32  1  0
  4 33  1  0
  5 34  1  0
  5 35  1  0
  6 36  1  0
  6 37  1  0
  7 38  1  0
  7 39  1  0
 10 40  1  0
 15 41  1  0
 15 42  1  0
 15 43  1  0
 16 44  1  0
 17 45  1  0
 17 46  1  0
 19 47  1  0
 20 48  1  0
 23 49  1  0
 25 50  1  0
 25 51  1  0
 25 52  1  0
 27 53  1  0
 27 54  1  0
 27 55  1  0
M  CHG  1   4   1
M  END
>  <score>  (9) 
-7.49

$$$$
