=
     RDKit          3D

 33 34  0  0  0  0  0  0  0  0999 V2000
    1.8760   65.0500   69.8700 N   0  0  0  0  0  0  0  0  0  0  0  0
    0.9570   66.0780   70.0230 C   0  0  0  0  0  0  0  0  0  0  0  0
    0.0220   66.0890   70.8190 O   0  0  0  0  0  0  0  0  0  0  0  0
    1.0890   67.2460   69.1070 C   0  0  0  0  0  0  0  0  0  0  0  0
    2.1250   68.1830   69.2660 C   0  0  0  0  0  0  0  0  0  0  0  0
    2.2330   69.2690   68.3780 C   0  0  0  0  0  0  0  0  0  0  0  0
    1.3140   69.4460   67.3410 C   0  0  0  0  0  0  0  0  0  0  0  0
    0.2760   68.5180   67.2190 C   0  0  0  0  0  0  0  0  0  0  0  0
    0.1400   67.4280   68.0840 C   0  0  0  0  0  0  0  0  0  0  0  0
   -0.6760   68.7110   66.1490 N   0  0  0  0  0  4  0  0  0  0  0  0
   -1.8000   69.1150   66.4760 O   0  0  0  0  0  0  0  0  0  0  0  0
   -0.3160   68.3780   65.0130 O   0  0  0  0  0  1  0  0  0  0  0  0
    3.3330   70.2270   68.5450 N   0  0  0  0  0  4  0  0  0  0  0  0
    3.4070   70.8210   69.6290 O   0  0  0  0  0  0  0  0  0  0  0  0
    4.1170   70.3730   67.5990 O   0  0  0  0  0  1  0  0  0  0  0  0
   -0.9080   66.5660   67.9010 O   0  0  0  0  0  0  0  0  0  0  0  0
    2.3140   62.8620   70.2460 C   0  0  0  0  0  0  0  0  0  0  0  0
    1.7810   63.9560   70.6850 N   0  0  0  0  0  0  0  0  0  0  0  0
    2.6370   59.5220   71.4030 C   0  0  0  0  0  0  0  0  0  0  0  0
    2.0170   60.0030   72.5320 C   0  0  0  0  0  0  0  0  0  0  0  0
    1.7860   61.3790   72.2780 C   0  0  0  0  0  0  0  0  0  0  0  0
    2.2810   61.6440   71.0100 C   0  0  0  0  0  0  0  0  0  0  0  0
    2.8040   60.4970   70.4730 O   0  0  0  0  0  0  0  0  0  0  0  0
    2.6310   57.2480   71.6610 O   0  0  0  0  0  1  0  0  0  0  0  0
    3.1120   58.2170   71.0650 N   0  0  0  0  0  4  0  0  0  0  0  0
    3.9840   58.1680   70.1850 O   0  0  0  0  0  0  0  0  0  0  0  0
    2.6159   65.1097   69.1560 H   0  0  0  0  0  0  0  0  0  0  0  0
    2.8509   68.0671   70.0843 H   0  0  0  0  0  0  0  0  0  0  0  0
    1.4045   70.2902   66.6416 H   0  0  0  0  0  0  0  0  0  0  0  0
   -1.0205   65.7886   68.5036 H   0  0  0  0  0  0  0  0  0  0  0  0
    2.8056   62.8634   69.2620 H   0  0  0  0  0  0  0  0  0  0  0  0
    1.7555   59.4398   73.4400 H   0  0  0  0  0  0  0  0  0  0  0  0
    1.3058   62.0988   72.9572 H   0  0  0  0  0  0  0  0  0  0  0  0
  2  1  1  0
  3  2  2  0
  4  2  1  0
  5  4  2  0
  6  5  1  0
  7  6  2  0
  8  7  1  0
  9  8  2  0
  9  4  1  0
 10  8  1  0
 11 10  2  0
 12 10  1  0
 13  6  1  0
 14 13  2  0
 15 13  1  0
 16  9  1  0
 18 17  2  0
 18  1  1  0
 20 19  2  0
 21 20  1  0
 22 17  1  0
 22 21  2  0
 23 19  1  0
 23 22  1  0
 25 24  1  0
 25 19  1  0
 26 25  2  0
  1 27  1  0
  5 28  1  0
  7 29  1  0
 16 30  1  0
 17 31  1  0
 20 32  1  0
 21 33  1  0
M  CHG  6  10   1  12  -1  13   1  15  -1  24  -1  25   1
M  END
>  <score>  (1) 
-8.794

$$$$
=
     RDKit          3D

 33 34  0  0  0  0  0  0  0  0999 V2000
    1.1250   65.7240   69.8870 N   0  0  0  0  0  0  0  0  0  0  0  0
    0.3190   66.5260   69.0930 C   0  0  0  0  0  0  0  0  0  0  0  0
   -0.9050   66.4540   69.0140 O   0  0  0  0  0  0  0  0  0  0  0  0
    1.0020   67.5260   68.2260 C   0  0  0  0  0  0  0  0  0  0  0  0
    1.9370   68.4320   68.7560 C   0  0  0  0  0  0  0  0  0  0  0  0
    2.5770   69.3580   67.9110 C   0  0  0  0  0  0  0  0  0  0  0  0
    2.2890   69.4050   66.5450 C   0  0  0  0  0  0  0  0  0  0  0  0
    1.3370   68.5130   66.0450 C   0  0  0  0  0  0  0  0  0  0  0  0
    0.6820   67.5820   66.8570 C   0  0  0  0  0  0  0  0  0  0  0  0
    1.0370   68.5720   64.6320 N   0  0  0  0  0  4  0  0  0  0  0  0
   -0.1610   68.6000   64.3220 O   0  0  0  0  0  0  0  0  0  0  0  0
    1.9970   68.5060   63.8540 O   0  0  0  0  0  1  0  0  0  0  0  0
    3.5670   70.2830   68.4770 N   0  0  0  0  0  4  0  0  0  0  0  0
    4.5560   70.5490   67.7810 O   0  0  0  0  0  0  0  0  0  0  0  0
    3.3470   70.7400   69.6050 O   0  0  0  0  0  1  0  0  0  0  0  0
   -0.2430   66.7460   66.2900 O   0  0  0  0  0  0  0  0  0  0  0  0
    1.2010   63.6940   70.8850 C   0  0  0  0  0  0  0  0  0  0  0  0
    0.5350   64.7860   70.6880 N   0  0  0  0  0  0  0  0  0  0  0  0
   -0.7200   61.6690   73.0780 C   0  0  0  0  0  0  0  0  0  0  0  0
    0.2650   60.7370   72.8520 C   0  0  0  0  0  0  0  0  0  0  0  0
    1.1780   61.3610   71.9640 C   0  0  0  0  0  0  0  0  0  0  0  0
    0.6880   62.6320   71.7080 C   0  0  0  0  0  0  0  0  0  0  0  0
   -0.4830   62.8200   72.3970 O   0  0  0  0  0  0  0  0  0  0  0  0
   -2.7830   60.8120   73.5780 O   0  0  0  0  0  1  0  0  0  0  0  0
   -1.9020   61.6250   73.8800 N   0  0  0  0  0  4  0  0  0  0  0  0
   -1.9450   62.4230   74.8280 O   0  0  0  0  0  0  0  0  0  0  0  0
    2.1491   65.8329   69.8736 H   0  0  0  0  0  0  0  0  0  0  0  0
    2.1685   68.4173   69.8313 H   0  0  0  0  0  0  0  0  0  0  0  0
    2.7962   70.1224   65.8832 H   0  0  0  0  0  0  0  0  0  0  0  0
   -0.7169   66.0803   66.8489 H   0  0  0  0  0  0  0  0  0  0  0  0
    2.1861   63.5749   70.4101 H   0  0  0  0  0  0  0  0  0  0  0  0
    0.3310   59.7221   73.2712 H   0  0  0  0  0  0  0  0  0  0  0  0
    2.0996   60.9202   71.5561 H   0  0  0  0  0  0  0  0  0  0  0  0
  2  1  1  0
  3  2  2  0
  4  2  1  0
  5  4  2  0
  6  5  1  0
  7  6  2  0
  8  7  1  0
  9  8  2  0
  9  4  1  0
 10  8  1  0
 11 10  2  0
 12 10  1  0
 13  6  1  0
 14 13  2  0
 15 13  1  0
 16  9  1  0
 18 17  2  0
 18  1  1  0
 20 19  2  0
 21 20  1  0
 22 17  1  0
 22 21  2  0
 23 19  1  0
 23 22  1  0
 25 24  1  0
 25 19  1  0
 26 25  2  0
  1 27  1  0
  5 28  1  0
  7 29  1  0
 16 30  1  0
 17 31  1  0
 20 32  1  0
 21 33  1  0
M  CHG  6  10   1  12  -1  13   1  15  -1  24  -1  25   1
M  END
>  <score>  (2) 
-8.446

$$$$
=
     RDKit          3D

 33 34  0  0  0  0  0  0  0  0999 V2000
    1.1590   65.5920   69.6780 N   0  0  0  0  0  0  0  0  0  0  0  0
    0.3480   66.5150   69.0340 C   0  0  0  0  0  0  0  0  0  0  0  0
   -0.8800   66.5430   69.0810 O   0  0  0  0  0  0  0  0  0  0  0  0
    1.0220   67.5270   68.1750 C   0  0  0  0  0  0  0  0  0  0  0  0
    1.9570   68.4310   68.7090 C   0  0  0  0  0  0  0  0  0  0  0  0
    2.5890   69.3680   67.8710 C   0  0  0  0  0  0  0  0  0  0  0  0
    2.2930   69.4290   66.5070 C   0  0  0  0  0  0  0  0  0  0  0  0
    1.3410   68.5390   66.0020 C   0  0  0  0  0  0  0  0  0  0  0  0
    0.6940   67.5970   66.8080 C   0  0  0  0  0  0  0  0  0  0  0  0
    1.0330   68.6130   64.5920 N   0  0  0  0  0  4  0  0  0  0  0  0
    1.9920   68.7530   63.8230 O   0  0  0  0  0  0  0  0  0  0  0  0
   -0.1650   68.6130   64.2810 O   0  0  0  0  0  1  0  0  0  0  0  0
    3.5790   70.2900   68.4410 N   0  0  0  0  0  4  0  0  0  0  0  0
    4.5550   70.5810   67.7350 O   0  0  0  0  0  0  0  0  0  0  0  0
    3.3730   70.7210   69.5820 O   0  0  0  0  0  1  0  0  0  0  0  0
   -0.2320   66.7650   66.2380 O   0  0  0  0  0  0  0  0  0  0  0  0
    1.2960   63.6040   70.7490 C   0  0  0  0  0  0  0  0  0  0  0  0
    0.5750   64.6410   70.4670 N   0  0  0  0  0  0  0  0  0  0  0  0
    0.8920   60.6450   72.6680 C   0  0  0  0  0  0  0  0  0  0  0  0
   -0.3890   61.1080   72.8530 C   0  0  0  0  0  0  0  0  0  0  0  0
   -0.4520   62.3340   72.1420 C   0  0  0  0  0  0  0  0  0  0  0  0
    0.7950   62.5350   71.5710 C   0  0  0  0  0  0  0  0  0  0  0  0
    1.6220   61.4910   71.8970 O   0  0  0  0  0  0  0  0  0  0  0  0
    2.7390   59.5530   73.4660 O   0  0  0  0  0  1  0  0  0  0  0  0
    1.5510   59.4660   73.1350 N   0  0  0  0  0  4  0  0  0  0  0  0
    0.8630   58.4360   73.1680 O   0  0  0  0  0  0  0  0  0  0  0  0
    2.1822   65.6228   69.5637 H   0  0  0  0  0  0  0  0  0  0  0  0
    2.1946   68.4057   69.7827 H   0  0  0  0  0  0  0  0  0  0  0  0
    2.7940   70.1555   65.8504 H   0  0  0  0  0  0  0  0  0  0  0  0
   -0.7003   66.0918   66.7925 H   0  0  0  0  0  0  0  0  0  0  0  0
    2.3188   63.5382   70.3497 H   0  0  0  0  0  0  0  0  0  0  0  0
   -1.1942   60.6295   73.4298 H   0  0  0  0  0  0  0  0  0  0  0  0
   -1.3245   62.9987   72.0595 H   0  0  0  0  0  0  0  0  0  0  0  0
  2  1  1  0
  3  2  2  0
  4  2  1  0
  5  4  2  0
  6  5  1  0
  7  6  2  0
  8  7  1  0
  9  8  2  0
  9  4  1  0
 10  8  1  0
 11 10  2  0
 12 10  1  0
 13  6  1  0
 14 13  2  0
 15 13  1  0
 16  9  1  0
 18 17  2  0
 18  1  1  0
 20 19  2  0
 21 20  1  0
 22 17  1  0
 22 21  2  0
 23 19  1  0
 23 22  1  0
 25 24  1  0
 25 19  1  0
 26 25  2  0
  1 27  1  0
  5 28  1  0
  7 29  1  0
 16 30  1  0
 17 31  1  0
 20 32  1  0
 21 33  1  0
M  CHG  6  10   1  12  -1  13   1  15  -1  24  -1  25   1
M  END
>  <score>  (3) 
-8.361

$$$$
=
     RDKit          3D

 33 34  0  0  0  0  0  0  0  0999 V2000
    1.2260   64.4080   70.5610 N   0  0  0  0  0  0  0  0  0  0  0  0
    1.7310   63.1590   70.2320 C   0  0  0  0  0  0  0  0  0  0  0  0
    2.3080   62.8750   69.1850 O   0  0  0  0  0  0  0  0  0  0  0  0
    1.5090   62.0580   71.2110 C   0  0  0  0  0  0  0  0  0  0  0  0
    0.3250   61.9790   71.9630 C   0  0  0  0  0  0  0  0  0  0  0  0
    0.1370   60.9210   72.8710 C   0  0  0  0  0  0  0  0  0  0  0  0
    1.1190   59.9450   73.0530 C   0  0  0  0  0  0  0  0  0  0  0  0
    2.3010   60.0590   72.3140 C   0  0  0  0  0  0  0  0  0  0  0  0
    2.5200   61.0980   71.4050 C   0  0  0  0  0  0  0  0  0  0  0  0
    3.3170   59.0500   72.5130 N   0  0  0  0  0  4  0  0  0  0  0  0
    3.4860   58.2450   71.5880 O   0  0  0  0  0  0  0  0  0  0  0  0
    3.8720   59.0270   73.6190 O   0  0  0  0  0  1  0  0  0  0  0  0
   -1.1160   60.8420   73.6330 N   0  0  0  0  0  4  0  0  0  0  0  0
   -1.6720   61.9110   73.9200 O   0  0  0  0  0  0  0  0  0  0  0  0
   -1.5360   59.7180   73.9330 O   0  0  0  0  0  1  0  0  0  0  0  0
    3.7070   61.1410   70.7240 O   0  0  0  0  0  0  0  0  0  0  0  0
    0.3380   66.1030   69.3540 C   0  0  0  0  0  0  0  0  0  0  0  0
    1.4000   65.4410   69.6830 N   0  0  0  0  0  0  0  0  0  0  0  0
   -0.2540   68.4350   66.7440 C   0  0  0  0  0  0  0  0  0  0  0  0
    0.8480   69.0770   67.2580 C   0  0  0  0  0  0  0  0  0  0  0  0
    1.2660   68.2840   68.3580 C   0  0  0  0  0  0  0  0  0  0  0  0
    0.3910   67.2120   68.4390 C   0  0  0  0  0  0  0  0  0  0  0  0
   -0.5460   67.3070   67.4420 O   0  0  0  0  0  0  0  0  0  0  0  0
   -0.6290   68.6880   64.5000 O   0  0  0  0  0  1  0  0  0  0  0  0
   -1.1050   68.7490   65.6390 N   0  0  0  0  0  4  0  0  0  0  0  0
   -2.2690   69.0650   65.9230 O   0  0  0  0  0  0  0  0  0  0  0  0
    0.7287   64.5546   71.4510 H   0  0  0  0  0  0  0  0  0  0  0  0
   -0.4554   62.7447   71.8418 H   0  0  0  0  0  0  0  0  0  0  0  0
    0.9676   59.1124   73.7557 H   0  0  0  0  0  0  0  0  0  0  0  0
    3.8799   61.8694   70.0762 H   0  0  0  0  0  0  0  0  0  0  0  0
   -0.6307   65.8102   69.7852 H   0  0  0  0  0  0  0  0  0  0  0  0
    1.3078   70.0076   66.8939 H   0  0  0  0  0  0  0  0  0  0  0  0
    2.1216   68.4822   69.0204 H   0  0  0  0  0  0  0  0  0  0  0  0
  2  1  1  0
  3  2  2  0
  4  2  1  0
  5  4  2  0
  6  5  1  0
  7  6  2  0
  8  7  1  0
  9  8  2  0
  9  4  1  0
 10  8  1  0
 11 10  2  0
 12 10  1  0
 13  6  1  0
 14 13  2  0
 15 13  1  0
 16  9  1  0
 18 17  2  0
 18  1  1  0
 20 19  2  0
 21 20  1  0
 22 17  1  0
 22 21  2  0
 23 19  1  0
 23 22  1  0
 25 24  1  0
 25 19  1  0
 26 25  2  0
  1 27  1  0
  5 28  1  0
  7 29  1  0
 16 30  1  0
 17 31  1  0
 20 32  1  0
 21 33  1  0
M  CHG  6  10   1  12  -1  13   1  15  -1  24  -1  25   1
M  END
>  <score>  (4) 
-8.139

$$$$
=
     RDKit          3D

 33 34  0  0  0  0  0  0  0  0999 V2000
    0.0330   65.3650   69.9730 N   0  0  0  0  0  0  0  0  0  0  0  0
    1.2000   64.6920   70.3040 C   0  0  0  0  0  0  0  0  0  0  0  0
    2.2950   64.8530   69.7720 O   0  0  0  0  0  0  0  0  0  0  0  0
    1.1030   63.6490   71.3640 C   0  0  0  0  0  0  0  0  0  0  0  0
    1.6540   62.3700   71.1810 C   0  0  0  0  0  0  0  0  0  0  0  0
    1.5600   61.4090   72.2040 C   0  0  0  0  0  0  0  0  0  0  0  0
    0.9100   61.6980   73.4060 C   0  0  0  0  0  0  0  0  0  0  0  0
    0.3440   62.9680   73.5560 C   0  0  0  0  0  0  0  0  0  0  0  0
    0.4190   63.9450   72.5590 C   0  0  0  0  0  0  0  0  0  0  0  0
   -0.3350   63.2590   74.7980 N   0  0  0  0  0  4  0  0  0  0  0  0
   -1.4220   62.6960   74.9790 O   0  0  0  0  0  0  0  0  0  0  0  0
    0.1860   64.1060   75.5350 O   0  0  0  0  0  1  0  0  0  0  0  0
    2.1600   60.0840   72.0040 N   0  0  0  0  0  4  0  0  0  0  0  0
    1.6730   59.1400   72.6400 O   0  0  0  0  0  0  0  0  0  0  0  0
    3.1060   59.9950   71.2120 O   0  0  0  0  0  1  0  0  0  0  0  0
   -0.1650   65.1630   72.7810 O   0  0  0  0  0  0  0  0  0  0  0  0
   -0.9970   66.4870   68.2990 C   0  0  0  0  0  0  0  0  0  0  0  0
    0.0800   66.3210   68.9970 N   0  0  0  0  0  0  0  0  0  0  0  0
   -0.4600   68.4560   65.3950 C   0  0  0  0  0  0  0  0  0  0  0  0
   -1.5670   69.1450   65.8300 C   0  0  0  0  0  0  0  0  0  0  0  0
   -1.9650   68.5010   67.0290 C   0  0  0  0  0  0  0  0  0  0  0  0
   -1.0730   67.4620   67.2450 C   0  0  0  0  0  0  0  0  0  0  0  0
   -0.1450   67.4370   66.2360 O   0  0  0  0  0  0  0  0  0  0  0  0
    1.5660   68.9240   64.4360 O   0  0  0  0  0  1  0  0  0  0  0  0
    0.3790   68.6330   64.2510 N   0  0  0  0  0  4  0  0  0  0  0  0
   -0.1670   68.4770   63.1490 O   0  0  0  0  0  0  0  0  0  0  0  0
   -0.8520   65.1485   70.4534 H   0  0  0  0  0  0  0  0  0  0  0  0
    2.1596   62.1196   70.2367 H   0  0  0  0  0  0  0  0  0  0  0  0
    0.8453   60.9498   74.2098 H   0  0  0  0  0  0  0  0  0  0  0  0
   -0.1217   65.8667   72.0860 H   0  0  0  0  0  0  0  0  0  0  0  0
   -1.8779   65.8656   68.5179 H   0  0  0  0  0  0  0  0  0  0  0  0
   -2.0433   70.0124   65.3497 H   0  0  0  0  0  0  0  0  0  0  0  0
   -2.8190   68.7739   67.6664 H   0  0  0  0  0  0  0  0  0  0  0  0
  2  1  1  0
  3  2  2  0
  4  2  1  0
  5  4  2  0
  6  5  1  0
  7  6  2  0
  8  7  1  0
  9  8  2  0
  9  4  1  0
 10  8  1  0
 11 10  2  0
 12 10  1  0
 13  6  1  0
 14 13  2  0
 15 13  1  0
 16  9  1  0
 18 17  2  0
 18  1  1  0
 20 19  2  0
 21 20  1  0
 22 17  1  0
 22 21  2  0
 23 19  1  0
 23 22  1  0
 25 24  1  0
 25 19  1  0
 26 25  2  0
  1 27  1  0
  5 28  1  0
  7 29  1  0
 16 30  1  0
 17 31  1  0
 20 32  1  0
 21 33  1  0
M  CHG  6  10   1  12  -1  13   1  15  -1  24  -1  25   1
M  END
>  <score>  (5) 
-8.041

$$$$
=
     RDKit          3D

 33 34  0  0  0  0  0  0  0  0999 V2000
    1.2170   65.3050   70.2690 N   0  0  0  0  0  0  0  0  0  0  0  0
    2.0050   64.1660   70.2130 C   0  0  0  0  0  0  0  0  0  0  0  0
    2.5890   63.7480   69.2160 O   0  0  0  0  0  0  0  0  0  0  0  0
    2.1120   63.3530   71.4570 C   0  0  0  0  0  0  0  0  0  0  0  0
    1.1870   63.5000   72.5050 C   0  0  0  0  0  0  0  0  0  0  0  0
    1.3040   62.7100   73.6630 C   0  0  0  0  0  0  0  0  0  0  0  0
    2.3400   61.7840   73.8020 C   0  0  0  0  0  0  0  0  0  0  0  0
    3.2640   61.6740   72.7590 C   0  0  0  0  0  0  0  0  0  0  0  0
    3.1770   62.4440   71.5950 C   0  0  0  0  0  0  0  0  0  0  0  0
    4.3390   60.7190   72.9110 N   0  0  0  0  0  4  0  0  0  0  0  0
    5.4900   61.1640   72.8230 O   0  0  0  0  0  0  0  0  0  0  0  0
    4.0170   59.5300   73.0320 O   0  0  0  0  0  1  0  0  0  0  0  0
    0.3160   62.8610   74.7400 N   0  0  0  0  0  4  0  0  0  0  0  0
    0.5820   62.3350   75.8290 O   0  0  0  0  0  0  0  0  0  0  0  0
   -0.7090   63.5080   74.4930 O   0  0  0  0  0  1  0  0  0  0  0  0
    4.1260   62.2800   70.6220 O   0  0  0  0  0  0  0  0  0  0  0  0
   -0.1100   66.4730   68.8560 C   0  0  0  0  0  0  0  0  0  0  0  0
    1.0860   66.0700   69.1440 N   0  0  0  0  0  0  0  0  0  0  0  0
    0.0310   68.1640   65.7380 C   0  0  0  0  0  0  0  0  0  0  0  0
   -1.1970   68.6580   66.1110 C   0  0  0  0  0  0  0  0  0  0  0  0
   -1.4620   68.0880   67.3820 C   0  0  0  0  0  0  0  0  0  0  0  0
   -0.3780   67.2850   67.6990 C   0  0  0  0  0  0  0  0  0  0  0  0
    0.5420   67.3330   66.6830 O   0  0  0  0  0  0  0  0  0  0  0  0
    1.9200   68.9280   64.6950 O   0  0  0  0  0  1  0  0  0  0  0  0
    0.8220   68.3750   64.5670 N   0  0  0  0  0  4  0  0  0  0  0  0
    0.3310   67.9780   63.5000 O   0  0  0  0  0  0  0  0  0  0  0  0
    0.7391   65.5699   71.1421 H   0  0  0  0  0  0  0  0  0  0  0  0
    0.3713   64.2331   72.4196 H   0  0  0  0  0  0  0  0  0  0  0  0
    2.4262   61.1606   74.7042 H   0  0  0  0  0  0  0  0  0  0  0  0
    4.0808   62.8163   69.7911 H   0  0  0  0  0  0  0  0  0  0  0  0
   -0.9440   66.1868   69.5137 H   0  0  0  0  0  0  0  0  0  0  0  0
   -1.8379   69.3489   65.5436 H   0  0  0  0  0  0  0  0  0  0  0  0
   -2.3577   68.2520   67.9991 H   0  0  0  0  0  0  0  0  0  0  0  0
  2  1  1  0
  3  2  2  0
  4  2  1  0
  5  4  2  0
  6  5  1  0
  7  6  2  0
  8  7  1  0
  9  8  2  0
  9  4  1  0
 10  8  1  0
 11 10  2  0
 12 10  1  0
 13  6  1  0
 14 13  2  0
 15 13  1  0
 16  9  1  0
 18 17  2  0
 18  1  1  0
 20 19  2  0
 21 20  1  0
 22 17  1  0
 22 21  2  0
 23 19  1  0
 23 22  1  0
 25 24  1  0
 25 19  1  0
 26 25  2  0
  1 27  1  0
  5 28  1  0
  7 29  1  0
 16 30  1  0
 17 31  1  0
 20 32  1  0
 21 33  1  0
M  CHG  6  10   1  12  -1  13   1  15  -1  24  -1  25   1
M  END
>  <score>  (6) 
-8.032

$$$$
=
     RDKit          3D

 33 34  0  0  0  0  0  0  0  0999 V2000
    0.8630   64.9870   70.9630 N   0  0  0  0  0  0  0  0  0  0  0  0
    1.2510   63.6730   70.7470 C   0  0  0  0  0  0  0  0  0  0  0  0
    1.1980   63.0790   69.6730 O   0  0  0  0  0  0  0  0  0  0  0  0
    1.7280   62.9040   71.9300 C   0  0  0  0  0  0  0  0  0  0  0  0
    2.8620   62.0760   71.8530 C   0  0  0  0  0  0  0  0  0  0  0  0
    3.2980   61.3720   72.9900 C   0  0  0  0  0  0  0  0  0  0  0  0
    2.6120   61.4670   74.2030 C   0  0  0  0  0  0  0  0  0  0  0  0
    1.4710   62.2740   74.2500 C   0  0  0  0  0  0  0  0  0  0  0  0
    1.0110   62.9860   73.1380 C   0  0  0  0  0  0  0  0  0  0  0  0
    0.7610   62.3620   75.5050 N   0  0  0  0  0  4  0  0  0  0  0  0
    0.2180   61.3240   75.9070 O   0  0  0  0  0  0  0  0  0  0  0  0
    0.6850   63.4810   76.0280 O   0  0  0  0  0  1  0  0  0  0  0  0
    4.4960   60.5280   72.8980 N   0  0  0  0  0  4  0  0  0  0  0  0
    5.4420   60.9610   72.2240 O   0  0  0  0  0  0  0  0  0  0  0  0
    4.4880   59.4490   73.5010 O   0  0  0  0  0  1  0  0  0  0  0  0
   -0.1180   63.7500   73.2650 O   0  0  0  0  0  0  0  0  0  0  0  0
    1.1590   66.7040   69.5190 C   0  0  0  0  0  0  0  0  0  0  0  0
    0.4090   65.7210   69.9030 N   0  0  0  0  0  0  0  0  0  0  0  0
   -0.5100   68.3140   66.8310 C   0  0  0  0  0  0  0  0  0  0  0  0
    0.6410   69.0630   66.7520 C   0  0  0  0  0  0  0  0  0  0  0  0
    1.4840   68.5680   67.7790 C   0  0  0  0  0  0  0  0  0  0  0  0
    0.7910   67.5500   68.4160 C   0  0  0  0  0  0  0  0  0  0  0  0
   -0.4380   67.3950   67.8290 O   0  0  0  0  0  0  0  0  0  0  0  0
   -1.6510   68.7100   64.8870 O   0  0  0  0  0  1  0  0  0  0  0  0
   -1.7160   68.3440   66.0650 N   0  0  0  0  0  4  0  0  0  0  0  0
   -2.7460   67.9950   66.6610 O   0  0  0  0  0  0  0  0  0  0  0  0
    0.9160   65.4018   71.9043 H   0  0  0  0  0  0  0  0  0  0  0  0
    3.4083   61.9788   70.9032 H   0  0  0  0  0  0  0  0  0  0  0  0
    2.9588   60.9235   75.0942 H   0  0  0  0  0  0  0  0  0  0  0  0
   -0.4595   64.2614   72.4892 H   0  0  0  0  0  0  0  0  0  0  0  0
    2.1025   66.8971   70.0505 H   0  0  0  0  0  0  0  0  0  0  0  0
    0.8609   69.8742   66.0424 H   0  0  0  0  0  0  0  0  0  0  0  0
    2.4956   68.9240   68.0238 H   0  0  0  0  0  0  0  0  0  0  0  0
  2  1  1  0
  3  2  2  0
  4  2  1  0
  5  4  2  0
  6  5  1  0
  7  6  2  0
  8  7  1  0
  9  8  2  0
  9  4  1  0
 10  8  1  0
 11 10  2  0
 12 10  1  0
 13  6  1  0
 14 13  2  0
 15 13  1  0
 16  9  1  0
 18 17  2  0
 18  1  1  0
 20 19  2  0
 21 20  1  0
 22 17  1  0
 22 21  2  0
 23 19  1  0
 23 22  1  0
 25 24  1  0
 25 19  1  0
 26 25  2  0
  1 27  1  0
  5 28  1  0
  7 29  1  0
 16 30  1  0
 17 31  1  0
 20 32  1  0
 21 33  1  0
M  CHG  6  10   1  12  -1  13   1  15  -1  24  -1  25   1
M  END
>  <score>  (7) 
-7.96

$$$$
=
     RDKit          3D

 33 34  0  0  0  0  0  0  0  0999 V2000
    1.2280   64.2550   70.8490 N   0  0  0  0  0  0  0  0  0  0  0  0
    1.6860   62.9960   70.4890 C   0  0  0  0  0  0  0  0  0  0  0  0
    2.3000   62.7270   69.4590 O   0  0  0  0  0  0  0  0  0  0  0  0
    1.3640   61.8690   71.4070 C   0  0  0  0  0  0  0  0  0  0  0  0
    0.1280   61.8010   72.0730 C   0  0  0  0  0  0  0  0  0  0  0  0
   -0.1550   60.7170   72.9240 C   0  0  0  0  0  0  0  0  0  0  0  0
    0.7820   59.7040   73.1350 C   0  0  0  0  0  0  0  0  0  0  0  0
    2.0150   59.8050   72.4850 C   0  0  0  0  0  0  0  0  0  0  0  0
    2.3290   60.8690   71.6340 C   0  0  0  0  0  0  0  0  0  0  0  0
    2.9850   58.7580   72.7140 N   0  0  0  0  0  4  0  0  0  0  0  0
    3.8210   58.9630   73.6030 O   0  0  0  0  0  0  0  0  0  0  0  0
    2.9480   57.7850   71.9500 O   0  0  0  0  0  1  0  0  0  0  0  0
   -1.4600   60.6510   73.5950 N   0  0  0  0  0  4  0  0  0  0  0  0
   -2.3410   61.4260   73.1970 O   0  0  0  0  0  0  0  0  0  0  0  0
   -1.5970   59.8250   74.5050 O   0  0  0  0  0  1  0  0  0  0  0  0
    3.5610   60.8980   71.0380 O   0  0  0  0  0  0  0  0  0  0  0  0
    0.4810   66.0300   69.6610 C   0  0  0  0  0  0  0  0  0  0  0  0
    1.4950   65.3130   70.0260 N   0  0  0  0  0  0  0  0  0  0  0  0
    1.6210   68.9440   67.9860 C   0  0  0  0  0  0  0  0  0  0  0  0
    0.4550   68.8170   67.2690 C   0  0  0  0  0  0  0  0  0  0  0  0
   -0.1870   67.6660   67.7950 C   0  0  0  0  0  0  0  0  0  0  0  0
    0.6320   67.1700   68.7970 C   0  0  0  0  0  0  0  0  0  0  0  0
    1.7460   67.9600   68.9130 O   0  0  0  0  0  0  0  0  0  0  0  0
    3.4800   69.8230   66.9790 O   0  0  0  0  0  1  0  0  0  0  0  0
    2.6770   69.9040   67.9160 N   0  0  0  0  0  4  0  0  0  0  0  0
    2.7010   70.7530   68.8200 O   0  0  0  0  0  0  0  0  0  0  0  0
    0.6963   64.3900   71.7208 H   0  0  0  0  0  0  0  0  0  0  0  0
   -0.6185   62.5959   71.9287 H   0  0  0  0  0  0  0  0  0  0  0  0
    0.5566   58.8519   73.7931 H   0  0  0  0  0  0  0  0  0  0  0  0
    3.8005   61.6437   70.4325 H   0  0  0  0  0  0  0  0  0  0  0  0
   -0.5228   65.7603   70.0211 H   0  0  0  0  0  0  0  0  0  0  0  0
    0.0958   69.4692   66.4593 H   0  0  0  0  0  0  0  0  0  0  0  0
   -1.1508   67.2473   67.4696 H   0  0  0  0  0  0  0  0  0  0  0  0
  2  1  1  0
  3  2  2  0
  4  2  1  0
  5  4  2  0
  6  5  1  0
  7  6  2  0
  8  7  1  0
  9  8  2  0
  9  4  1  0
 10  8  1  0
 11 10  2  0
 12 10  1  0
 13  6  1  0
 14 13  2  0
 15 13  1  0
 16  9  1  0
 18 17  2  0
 18  1  1  0
 20 19  2  0
 21 20  1  0
 22 17  1  0
 22 21  2  0
 23 19  1  0
 23 22  1  0
 25 24  1  0
 25 19  1  0
 26 25  2  0
  1 27  1  0
  5 28  1  0
  7 29  1  0
 16 30  1  0
 17 31  1  0
 20 32  1  0
 21 33  1  0
M  CHG  6  10   1  12  -1  13   1  15  -1  24  -1  25   1
M  END
>  <score>  (8) 
-7.854

$$$$
=
     RDKit          3D

 33 34  0  0  0  0  0  0  0  0999 V2000
    1.7640   64.6700   70.6200 N   0  0  0  0  0  0  0  0  0  0  0  0
    1.1010   63.6540   71.2920 C   0  0  0  0  0  0  0  0  0  0  0  0
   -0.1150   63.5710   71.4420 O   0  0  0  0  0  0  0  0  0  0  0  0
    1.9410   62.6000   71.9260 C   0  0  0  0  0  0  0  0  0  0  0  0
    1.7680   62.2420   73.2740 C   0  0  0  0  0  0  0  0  0  0  0  0
    2.5660   61.2330   73.8430 C   0  0  0  0  0  0  0  0  0  0  0  0
    3.5490   60.5830   73.0920 C   0  0  0  0  0  0  0  0  0  0  0  0
    3.7220   60.9740   71.7620 C   0  0  0  0  0  0  0  0  0  0  0  0
    2.9470   61.9730   71.1660 C   0  0  0  0  0  0  0  0  0  0  0  0
    4.7460   60.3030   70.9920 N   0  0  0  0  0  4  0  0  0  0  0  0
    5.8950   60.7520   71.0920 O   0  0  0  0  0  0  0  0  0  0  0  0
    4.3740   59.3950   70.2390 O   0  0  0  0  0  1  0  0  0  0  0  0
    2.3570   60.8560   75.2470 N   0  0  0  0  0  4  0  0  0  0  0  0
    1.5500   61.5320   75.9000 O   0  0  0  0  0  0  0  0  0  0  0  0
    2.9910   59.8890   75.6830 O   0  0  0  0  0  1  0  0  0  0  0  0
    3.1840   62.3020   69.8580 O   0  0  0  0  0  0  0  0  0  0  0  0
    1.5600   66.2500   69.0130 C   0  0  0  0  0  0  0  0  0  0  0  0
    1.0280   65.6620   70.0350 N   0  0  0  0  0  0  0  0  0  0  0  0
   -0.7490   68.2380   67.1920 C   0  0  0  0  0  0  0  0  0  0  0  0
    0.2130   69.2130   67.3110 C   0  0  0  0  0  0  0  0  0  0  0  0
    1.2720   68.6100   68.0370 C   0  0  0  0  0  0  0  0  0  0  0  0
    0.8850   67.3080   68.3110 C   0  0  0  0  0  0  0  0  0  0  0  0
   -0.3620   67.0810   67.7890 O   0  0  0  0  0  0  0  0  0  0  0  0
   -2.1030   68.5590   65.3740 O   0  0  0  0  0  1  0  0  0  0  0  0
   -2.0340   68.2440   66.5680 N   0  0  0  0  0  4  0  0  0  0  0  0
   -2.9910   67.9300   67.2910 O   0  0  0  0  0  0  0  0  0  0  0  0
    2.7924   64.6769   70.5628 H   0  0  0  0  0  0  0  0  0  0  0  0
    1.0079   62.7513   73.8846 H   0  0  0  0  0  0  0  0  0  0  0  0
    4.1674   59.7881   73.5344 H   0  0  0  0  0  0  0  0  0  0  0  0
    2.6449   63.0071   69.4194 H   0  0  0  0  0  0  0  0  0  0  0  0
    2.5561   65.9320   68.6715 H   0  0  0  0  0  0  0  0  0  0  0  0
    0.1705   70.2422   66.9251 H   0  0  0  0  0  0  0  0  0  0  0  0
    2.2204   69.0857   68.3273 H   0  0  0  0  0  0  0  0  0  0  0  0
  2  1  1  0
  3  2  2  0
  4  2  1  0
  5  4  2  0
  6  5  1  0
  7  6  2  0
  8  7  1  0
  9  8  2  0
  9  4  1  0
 10  8  1  0
 11 10  2  0
 12 10  1  0
 13  6  1  0
 14 13  2  0
 15 13  1  0
 16  9  1  0
 18 17  2  0
 18  1  1  0
 20 19  2  0
 21 20  1  0
 22 17  1  0
 22 21  2  0
 23 19  1  0
 23 22  1  0
 25 24  1  0
 25 19  1  0
 26 25  2  0
  1 27  1  0
  5 28  1  0
  7 29  1  0
 16 30  1  0
 17 31  1  0
 20 32  1  0
 21 33  1  0
M  CHG  6  10   1  12  -1  13   1  15  -1  24  -1  25   1
M  END
>  <score>  (9) 
-7.79

$$$$
