=
     RDKit          3D

122126  0  0  0  0  0  0  0  0999 V2000
    1.6240   58.5040   76.4950 C   0  0  1  0  0  0  0  0  0  0  0  0
    0.5420   59.3720   76.8830 O   0  0  0  0  0  0  0  0  0  0  0  0
    0.9090   60.6280   77.4700 C   0  0  1  0  0  0  0  0  0  0  0  0
    1.4260   61.5270   76.3630 C   0  0  0  0  0  0  0  0  0  0  0  0
    0.7230   62.5410   75.8370 C   0  0  0  0  0  0  0  0  0  0  0  0
   -0.6480   62.8710   76.3340 C   0  0  2  0  0  0  0  0  0  0  0  0
   -1.2250   61.7860   77.2880 C   0  0  1  0  0  0  0  0  0  0  0  0
   -0.2210   61.2310   78.1320 O   0  0  0  0  0  0  0  0  0  0  0  0
   -2.2880   62.4000   78.1950 C   0  0  0  0  0  0  0  0  0  0  0  0
   -3.0790   61.1850   78.6200 C   0  0  0  0  0  0  0  0  0  0  0  0
   -3.0280   60.2740   77.3840 C   0  0  1  0  0  0  0  0  0  0  0  0
   -1.9380   60.7760   76.5540 O   0  0  0  0  0  0  0  0  0  0  0  0
   -2.6870   58.8390   77.7900 C   0  0  0  0  0  0  0  0  0  0  0  0
    1.9110   60.4210   78.6430 C   0  0  1  0  0  0  0  0  0  0  0  0
    3.0400   59.4460   78.3130 C   0  0  0  0  0  0  0  0  0  0  0  0
    2.4540   58.1420   77.7500 C   0  0  2  0  0  0  0  0  0  0  0  0
    3.5790   57.1320   77.5540 C   0  0  0  0  0  0  0  0  0  0  0  0
    2.4780   61.7330   79.2010 C   0  0  0  0  0  0  0  0  0  0  0  0
   -4.3220   60.3400   76.5190 C   0  0  1  0  0  0  0  0  0  0  0  0
   -4.1240   61.0310   75.1640 C   0  0  0  0  0  0  0  0  0  0  0  0
   -5.0670   60.5030   74.0870 C   0  0  0  0  0  0  0  0  0  0  0  0
   -6.4190   60.0340   74.6530 C   0  0  2  0  0  0  0  0  0  0  0  0
   -6.1160   58.9240   75.7130 C   0  0  1  0  0  0  0  0  0  0  0  0
   -4.8040   59.0030   76.3020 O   0  0  0  0  0  0  0  0  0  0  0  0
   -7.1280   58.7420   76.8380 C   0  0  0  0  0  0  0  0  0  0  0  0
   -7.1340   59.4240   73.5580 O   0  0  0  0  0  0  0  0  0  0  0  0
   -7.2470   61.2520   75.1360 C   0  0  0  0  0  0  0  0  0  0  0  0
   -8.4790   61.5980   74.3040 C   0  0  0  0  0  0  0  0  0  0  0  0
   -1.4840   63.0780   75.1960 O   0  0  0  0  0  0  0  0  0  0  0  0
    1.0570   57.3630   75.5860 C   0  0  1  0  0  0  0  0  0  0  0  0
   -0.0640   55.1600   76.3070 C   0  0  0  0  0  0  0  0  0  0  0  0
   -0.1560   56.6800   76.2700 C   0  0  0  0  0  0  0  0  0  0  0  0
    0.7320   57.8150   74.1470 C   0  0  0  0  0  0  0  0  0  0  0  0
   -0.4240   57.7690   73.7170 O   0  0  0  0  0  0  0  0  0  0  0  0
    1.8970   58.2100   73.2150 C   0  0  1  0  0  0  0  0  0  0  0  0
    2.0370   57.1030   72.1510 C   0  0  0  0  0  0  0  0  0  0  0  0
    1.8340   59.5910   72.5150 C   0  0  2  0  0  0  0  0  0  0  0  0
    3.1950   60.3330   72.3880 C   0  0  2  0  0  0  0  0  0  0  0  0
    3.5880   61.0660   73.6820 C   0  0  0  0  0  0  0  0  0  0  0  0
    3.2080   61.3650   71.2190 C   0  0  2  0  0  0  0  0  0  0  0  0
    1.8780   61.7310   70.8760 O   0  0  0  0  0  0  0  0  0  0  0  0
    1.7580   63.0000   70.2090 C   0  0  2  0  0  0  0  0  0  0  0  0
    2.9570   63.2040   69.2620 C   0  0  0  0  0  0  0  0  0  0  0  0
    3.4850   61.8660   68.7450 C   0  0  0  0  0  0  0  0  0  0  0  0
    3.8980   60.9230   69.9030 C   0  0  2  0  0  0  0  0  0  0  0  0
    3.6240   59.4800   69.4720 C   0  0  0  0  0  0  0  0  0  0  0  0
    1.5660   64.1190   71.2460 C   0  0  2  0  0  0  0  0  0  0  0  0
    0.2480   63.7390   71.9580 C   0  0  0  0  0  0  0  0  0  0  0  0
   -0.3920   62.7820   71.4260 O   0  0  0  0  0  0  0  0  0  0  0  0
   -0.0330   64.3970   73.0000 O   0  0  0  0  0  1  0  0  0  0  0  0
    1.4300   65.5410   70.6720 C   0  0  0  0  0  0  0  0  0  0  0  0
    0.1210   65.8180   69.9460 C   0  0  0  0  0  0  0  0  0  0  0  0
    0.8220   60.4060   73.0920 O   0  0  0  0  0  0  0  0  0  0  0  0
    2.3761   58.9736   75.8440 H   0  0  0  0  0  0  0  0  0  0  0  0
    2.4352   61.3364   75.9691 H   0  0  0  0  0  0  0  0  0  0  0  0
    1.1627   63.1401   75.0260 H   0  0  0  0  0  0  0  0  0  0  0  0
   -0.6011   63.7848   76.9446 H   0  0  0  0  0  0  0  0  0  0  0  0
   -1.8325   62.9031   79.0607 H   0  0  0  0  0  0  0  0  0  0  0  0
   -2.8953   63.1750   77.7046 H   0  0  0  0  0  0  0  0  0  0  0  0
   -2.6129   60.6963   79.4883 H   0  0  0  0  0  0  0  0  0  0  0  0
   -4.1057   61.4291   78.9305 H   0  0  0  0  0  0  0  0  0  0  0  0
   -2.6689   58.7628   78.8872 H   0  0  0  0  0  0  0  0  0  0  0  0
   -3.4473   58.1535   77.3874 H   0  0  0  0  0  0  0  0  0  0  0  0
   -1.6996   58.5688   77.3874 H   0  0  0  0  0  0  0  0  0  0  0  0
    1.3024   59.9628   79.4365 H   0  0  0  0  0  0  0  0  0  0  0  0
    3.7070   59.8994   77.5650 H   0  0  0  0  0  0  0  0  0  0  0  0
    3.6069   59.2235   79.2290 H   0  0  0  0  0  0  0  0  0  0  0  0
    1.7563   57.6392   78.4359 H   0  0  0  0  0  0  0  0  0  0  0  0
    3.9488   56.8000   78.5353 H   0  0  0  0  0  0  0  0  0  0  0  0
    3.2000   56.2653   76.9926 H   0  0  0  0  0  0  0  0  0  0  0  0
    4.4000   57.6019   76.9926 H   0  0  0  0  0  0  0  0  0  0  0  0
    2.4639   61.7003   80.3004 H   0  0  0  0  0  0  0  0  0  0  0  0
    3.5128   61.8633   78.8513 H   0  0  0  0  0  0  0  0  0  0  0  0
    1.8639   62.5759   78.8513 H   0  0  0  0  0  0  0  0  0  0  0  0
   -5.0494   60.9478   77.0771 H   0  0  0  0  0  0  0  0  0  0  0  0
   -4.3029   62.1090   75.2899 H   0  0  0  0  0  0  0  0  0  0  0  0
   -3.0954   60.8236   74.8339 H   0  0  0  0  0  0  0  0  0  0  0  0
   -5.2512   61.3054   73.3575 H   0  0  0  0  0  0  0  0  0  0  0  0
   -4.5830   59.6311   73.6227 H   0  0  0  0  0  0  0  0  0  0  0  0
   -6.1892   58.0367   75.0670 H   0  0  0  0  0  0  0  0  0  0  0  0
   -6.6180   58.8337   77.8083 H   0  0  0  0  0  0  0  0  0  0  0  0
   -7.9072   59.5144   76.7588 H   0  0  0  0  0  0  0  0  0  0  0  0
   -7.5892   57.7465   76.7588 H   0  0  0  0  0  0  0  0  0  0  0  0
   -7.8363   58.8248   73.9155 H   0  0  0  0  0  0  0  0  0  0  0  0
   -7.5822   61.0447   76.1630 H   0  0  0  0  0  0  0  0  0  0  0  0
   -6.5766   62.1195   75.0468 H   0  0  0  0  0  0  0  0  0  0  0  0
   -9.3192   61.8340   74.9736 H   0  0  0  0  0  0  0  0  0  0  0  0
   -8.2600   62.4694   73.6694 H   0  0  0  0  0  0  0  0  0  0  0  0
   -8.7457   60.7400   73.6694 H   0  0  0  0  0  0  0  0  0  0  0  0
   -2.3998   63.3047   75.4961 H   0  0  0  0  0  0  0  0  0  0  0  0
    1.8612   56.6211   75.4723 H   0  0  0  0  0  0  0  0  0  0  0  0
   -0.0434   54.8193   77.3527 H   0  0  0  0  0  0  0  0  0  0  0  0
   -0.9376   54.7273   75.7975 H   0  0  0  0  0  0  0  0  0  0  0  0
    0.8554   54.8358   75.7975 H   0  0  0  0  0  0  0  0  0  0  0  0
   -0.2243   57.0488   77.3041 H   0  0  0  0  0  0  0  0  0  0  0  0
   -1.0450   56.9332   75.6738 H   0  0  0  0  0  0  0  0  0  0  0  0
    2.7676   58.3122   73.8796 H   0  0  0  0  0  0  0  0  0  0  0  0
    2.1601   56.1297   72.6485 H   0  0  0  0  0  0  0  0  0  0  0  0
    1.1343   57.0821   71.5227 H   0  0  0  0  0  0  0  0  0  0  0  0
    2.9164   57.3074   71.5227 H   0  0  0  0  0  0  0  0  0  0  0  0
    1.5598   59.3770   71.4714 H   0  0  0  0  0  0  0  0  0  0  0  0
    3.9282   59.5398   72.1802 H   0  0  0  0  0  0  0  0  0  0  0  0
    3.2694   60.4718   74.5512 H   0  0  0  0  0  0  0  0  0  0  0  0
    4.6794   61.2008   73.7101 H   0  0  0  0  0  0  0  0  0  0  0  0
    3.0962   62.0496   73.7101 H   0  0  0  0  0  0  0  0  0  0  0  0
    3.8067   62.1923   71.6277 H   0  0  0  0  0  0  0  0  0  0  0  0
    0.8618   63.0268   69.5717 H   0  0  0  0  0  0  0  0  0  0  0  0
    2.6389   63.8189   68.4072 H   0  0  0  0  0  0  0  0  0  0  0  0
    3.7617   63.7043   69.8206 H   0  0  0  0  0  0  0  0  0  0  0  0
    2.6975   61.3778   68.1521 H   0  0  0  0  0  0  0  0  0  0  0  0
    4.3764   62.0646   68.1319 H   0  0  0  0  0  0  0  0  0  0  0  0
    4.9746   60.9822   70.1206 H   0  0  0  0  0  0  0  0  0  0  0  0
    3.5039   58.8475   70.3639 H   0  0  0  0  0  0  0  0  0  0  0  0
    2.7032   59.4453   68.8712 H   0  0  0  0  0  0  0  0  0  0  0  0
    4.4680   59.1102   68.8712 H   0  0  0  0  0  0  0  0  0  0  0  0
    2.4582   64.1736   71.8871 H   0  0  0  0  0  0  0  0  0  0  0  0
    1.5165   66.2549   71.5044 H   0  0  0  0  0  0  0  0  0  0  0  0
    2.2270   65.6476   69.9214 H   0  0  0  0  0  0  0  0  0  0  0  0
   -0.6782   65.9871   70.6827 H   0  0  0  0  0  0  0  0  0  0  0  0
    0.2336   66.7122   69.3154 H   0  0  0  0  0  0  0  0  0  0  0  0
   -0.1383   64.9548   69.3154 H   0  0  0  0  0  0  0  0  0  0  0  0
    0.8821   60.3576   74.0790 H   0  0  0  0  0  0  0  0  0  0  0  0
  2  1  1  0
  3  2  1  6
  4  3  1  0
  5  4  2  0
  6  5  1  0
  7  6  1  0
  7  8  1  1
  8  3  1  0
  9  7  1  0
 10  9  1  0
 11 10  1  0
 12 11  1  0
 12  7  1  0
 11 13  1  1
 14  3  1  0
 15 14  1  0
 16 15  1  0
 16  1  1  0
 17 16  1  0
 18 14  1  0
 19 11  1  0
 20 19  1  0
 21 20  1  0
 22 21  1  0
 23 22  1  0
 24 23  1  0
 24 19  1  0
 25 23  1  0
 22 26  1  6
 27 22  1  0
 28 27  1  0
 29  6  1  0
 30  1  1  0
 32 30  1  0
 32 31  1  0
 33 30  1  0
 34 33  2  0
 35 33  1  0
 36 35  1  0
 37 35  1  0
 38 37  1  0
 39 38  1  0
 40 38  1  0
 41 40  1  0
 42 41  1  0
 43 42  1  0
 44 43  1  0
 45 44  1  0
 45 40  1  0
 46 45  1  0
 47 42  1  0
 48 47  1  0
 49 48  2  0
 50 48  1  0
 51 47  1  0
 52 51  1  0
 53 37  1  0
  1 54  1  6
  4 55  1  0
  5 56  1  0
  6 57  1  1
  9 58  1  0
  9 59  1  0
 10 60  1  0
 10 61  1  0
 13 62  1  0
 13 63  1  0
 13 64  1  0
 14 65  1  1
 15 66  1  0
 15 67  1  0
 16 68  1  1
 17 69  1  0
 17 70  1  0
 17 71  1  0
 18 72  1  0
 18 73  1  0
 18 74  1  0
 19 75  1  1
 20 76  1  0
 20 77  1  0
 21 78  1  0
 21 79  1  0
 23 80  1  6
 25 81  1  0
 25 82  1  0
 25 83  1  0
 26 84  1  0
 27 85  1  0
 27 86  1  0
 28 87  1  0
 28 88  1  0
 28 89  1  0
 29 90  1  0
 30 91  1  6
 31 92  1  0
 31 93  1  0
 31 94  1  0
 32 95  1  0
 32 96  1  0
 35 97  1  1
 36 98  1  0
 36 99  1  0
 36100  1  0
 37101  1  6
 38102  1  6
 39103  1  0
 39104  1  0
 39105  1  0
 40106  1  1
 42107  1  6
 43108  1  0
 43109  1  0
 44110  1  0
 44111  1  0
 45112  1  1
 46113  1  0
 46114  1  0
 46115  1  0
 47116  1  1
 51117  1  0
 51118  1  0
 52119  1  0
 52120  1  0
 52121  1  0
 53122  1  0
M  CHG  1  50  -1
M  END
>  <score>  (1) 
-8.142

$$$$
=
     RDKit          3D

122126  0  0  0  0  0  0  0  0999 V2000
    1.0520   59.0150   77.8320 C   0  0  1  0  0  0  0  0  0  0  0  0
   -0.0490   59.9410   77.9060 O   0  0  0  0  0  0  0  0  0  0  0  0
    0.2520   61.2550   78.3950 C   0  0  1  0  0  0  0  0  0  0  0  0
    0.9960   62.0010   77.3040 C   0  0  0  0  0  0  0  0  0  0  0  0
    0.4390   62.9510   76.5380 C   0  0  0  0  0  0  0  0  0  0  0  0
   -0.9860   63.3610   76.7300 C   0  0  2  0  0  0  0  0  0  0  0  0
   -1.7670   62.4120   77.6840 C   0  0  1  0  0  0  0  0  0  0  0  0
   -0.9550   61.9530   78.7600 O   0  0  0  0  0  0  0  0  0  0  0  0
   -2.9530   63.1510   78.2980 C   0  0  0  0  0  0  0  0  0  0  0  0
   -3.8540   62.0110   78.7130 C   0  0  0  0  0  0  0  0  0  0  0  0
   -3.6140   60.9520   77.6260 C   0  0  1  0  0  0  0  0  0  0  0  0
   -2.3720   61.3300   76.9580 O   0  0  0  0  0  0  0  0  0  0  0  0
   -3.4060   59.5740   78.2580 C   0  0  0  0  0  0  0  0  0  0  0  0
    1.0160   61.1820   79.7500 C   0  0  1  0  0  0  0  0  0  0  0  0
    2.1490   60.1560   79.7540 C   0  0  0  0  0  0  0  0  0  0  0  0
    1.6260   58.8000   79.2540 C   0  0  2  0  0  0  0  0  0  0  0  0
    2.7290   57.7570   79.3920 C   0  0  0  0  0  0  0  0  0  0  0  0
    1.5220   62.5440   80.2410 C   0  0  0  0  0  0  0  0  0  0  0  0
   -4.7260   60.9280   76.5360 C   0  0  1  0  0  0  0  0  0  0  0  0
   -4.2010   61.1730   75.1150 C   0  0  0  0  0  0  0  0  0  0  0  0
   -5.0420   60.4800   74.0460 C   0  0  0  0  0  0  0  0  0  0  0  0
   -6.5280   60.3650   74.4360 C   0  0  2  0  0  0  0  0  0  0  0  0
   -6.5910   59.5760   75.7850 C   0  0  1  0  0  0  0  0  0  0  0  0
   -5.3930   59.6560   76.5810 O   0  0  0  0  0  0  0  0  0  0  0  0
   -7.7820   59.8510   76.6950 C   0  0  0  0  0  0  0  0  0  0  0  0
   -7.1590   59.5610   73.4170 O   0  0  0  0  0  0  0  0  0  0  0  0
   -7.1950   61.7640   74.4130 C   0  0  0  0  0  0  0  0  0  0  0  0
   -8.2920   61.9670   73.3710 C   0  0  0  0  0  0  0  0  0  0  0  0
   -1.5930   63.4360   75.4400 O   0  0  0  0  0  0  0  0  0  0  0  0
    0.6170   57.7770   76.9780 C   0  0  1  0  0  0  0  0  0  0  0  0
   -1.7050   56.7590   76.5330 C   0  0  0  0  0  0  0  0  0  0  0  0
   -0.8110   57.9870   76.4130 C   0  0  0  0  0  0  0  0  0  0  0  0
    1.6270   57.3950   75.8760 C   0  0  0  0  0  0  0  0  0  0  0  0
    1.5050   56.3400   75.2470 O   0  0  0  0  0  0  0  0  0  0  0  0
    2.8610   58.2950   75.6580 C   0  0  1  0  0  0  0  0  0  0  0  0
    4.1100   57.4690   76.0240 C   0  0  0  0  0  0  0  0  0  0  0  0
    3.0590   58.9360   74.2620 C   0  0  2  0  0  0  0  0  0  0  0  0
    1.8950   58.7060   73.2560 C   0  0  2  0  0  0  0  0  0  0  0  0
    2.2340   57.6400   72.2000 C   0  0  0  0  0  0  0  0  0  0  0  0
    1.4770   60.0130   72.5140 C   0  0  2  0  0  0  0  0  0  0  0  0
    2.3880   61.0600   72.8200 O   0  0  0  0  0  0  0  0  0  0  0  0
    2.4310   62.1200   71.8490 C   0  0  2  0  0  0  0  0  0  0  0  0
    1.0150   62.3720   71.2920 C   0  0  0  0  0  0  0  0  0  0  0  0
   -0.0530   62.0300   72.3290 C   0  0  0  0  0  0  0  0  0  0  0  0
    0.0580   60.5610   72.8100 C   0  0  2  0  0  0  0  0  0  0  0  0
   -0.3780   60.4980   74.2750 C   0  0  0  0  0  0  0  0  0  0  0  0
    3.4900   61.8070   70.7790 C   0  0  2  0  0  0  0  0  0  0  0  0
    4.6780   61.2420   71.5920 C   0  0  0  0  0  0  0  0  0  0  0  0
    5.0520   60.0780   71.2540 O   0  0  0  0  0  0  0  0  0  0  0  0
    5.1610   62.0030   72.4770 O   0  0  0  0  0  1  0  0  0  0  0  0
    3.9790   63.0110   69.9530 C   0  0  0  0  0  0  0  0  0  0  0  0
    3.7750   62.8830   68.4500 C   0  0  0  0  0  0  0  0  0  0  0  0
    4.3250   58.5870   73.7180 O   0  0  0  0  0  0  0  0  0  0  0  0
    1.9267   59.3886   77.2794 H   0  0  0  0  0  0  0  0  0  0  0  0
    2.0526   61.7487   77.1310 H   0  0  0  0  0  0  0  0  0  0  0  0
    1.0407   63.4365   75.7555 H   0  0  0  0  0  0  0  0  0  0  0  0
   -1.0166   64.3431   77.2246 H   0  0  0  0  0  0  0  0  0  0  0  0
   -2.6435   63.7519   79.1658 H   0  0  0  0  0  0  0  0  0  0  0  0
   -3.4312   63.8673   77.6138 H   0  0  0  0  0  0  0  0  0  0  0  0
   -3.5720   61.6277   79.7048 H   0  0  0  0  0  0  0  0  0  0  0  0
   -4.9099   62.3076   78.7973 H   0  0  0  0  0  0  0  0  0  0  0  0
   -3.4201   59.6673   79.3539 H   0  0  0  0  0  0  0  0  0  0  0  0
   -4.2123   58.8980   77.9372 H   0  0  0  0  0  0  0  0  0  0  0  0
   -2.4361   59.1661   77.9372 H   0  0  0  0  0  0  0  0  0  0  0  0
    0.2561   60.8368   80.4665 H   0  0  0  0  0  0  0  0  0  0  0  0
    2.9571   60.5019   79.0927 H   0  0  0  0  0  0  0  0  0  0  0  0
    2.5317   60.0419   80.7790 H   0  0  0  0  0  0  0  0  0  0  0  0
    0.7972   58.3973   79.8548 H   0  0  0  0  0  0  0  0  0  0  0  0
    2.9261   57.5706   80.4580 H   0  0  0  0  0  0  0  0  0  0  0  0
    2.4113   56.8213   78.9088 H   0  0  0  0  0  0  0  0  0  0  0  0
    3.6455   58.1264   78.9088 H   0  0  0  0  0  0  0  0  0  0  0  0
    1.5273   62.5584   81.3409 H   0  0  0  0  0  0  0  0  0  0  0  0
    2.5427   62.7125   79.8671 H   0  0  0  0  0  0  0  0  0  0  0  0
    0.8589   63.3380   79.8671 H   0  0  0  0  0  0  0  0  0  0  0  0
   -5.4152   61.7548   76.7627 H   0  0  0  0  0  0  0  0  0  0  0  0
   -4.2071   62.2555   74.9199 H   0  0  0  0  0  0  0  0  0  0  0  0
   -3.1853   60.7542   75.0604 H   0  0  0  0  0  0  0  0  0  0  0  0
   -4.9675   61.0564   73.1121 H   0  0  0  0  0  0  0  0  0  0  0  0
   -4.6509   59.4587   73.9280 H   0  0  0  0  0  0  0  0  0  0  0  0
   -6.7153   58.5570   75.3897 H   0  0  0  0  0  0  0  0  0  0  0  0
   -7.4651   59.7778   77.7458 H   0  0  0  0  0  0  0  0  0  0  0  0
   -8.1682   60.8620   76.4980 H   0  0  0  0  0  0  0  0  0  0  0  0
   -8.5724   59.1117   76.4980 H   0  0  0  0  0  0  0  0  0  0  0  0
   -7.7101   58.8587   73.8450 H   0  0  0  0  0  0  0  0  0  0  0  0
   -7.6361   61.9426   75.4048 H   0  0  0  0  0  0  0  0  0  0  0  0
   -6.3951   62.4687   74.1416 H   0  0  0  0  0  0  0  0  0  0  0  0
   -9.2516   62.1446   73.8786 H   0  0  0  0  0  0  0  0  0  0  0  0
   -8.0440   62.8345   72.7418 H   0  0  0  0  0  0  0  0  0  0  0  0
   -8.3709   61.0682   72.7418 H   0  0  0  0  0  0  0  0  0  0  0  0
   -2.5703   63.5568   75.5417 H   0  0  0  0  0  0  0  0  0  0  0  0
    0.6027   56.9122   77.6576 H   0  0  0  0  0  0  0  0  0  0  0  0
   -1.8721   56.5295   77.5957 H   0  0  0  0  0  0  0  0  0  0  0  0
   -2.6703   56.9591   76.0449 H   0  0  0  0  0  0  0  0  0  0  0  0
   -1.2181   55.9019   76.0449 H   0  0  0  0  0  0  0  0  0  0  0  0
   -1.2832   58.8150   76.9620 H   0  0  0  0  0  0  0  0  0  0  0  0
   -0.7031   58.2019   75.3396 H   0  0  0  0  0  0  0  0  0  0  0  0
    2.6899   59.1681   76.3049 H   0  0  0  0  0  0  0  0  0  0  0  0
    4.2017   57.4084   77.1185 H   0  0  0  0  0  0  0  0  0  0  0  0
    4.0144   56.4555   75.6073 H   0  0  0  0  0  0  0  0  0  0  0  0
    5.0052   57.9538   75.6073 H   0  0  0  0  0  0  0  0  0  0  0  0
    3.0394   60.0222   74.4344 H   0  0  0  0  0  0  0  0  0  0  0  0
    1.0552   58.3552   73.8737 H   0  0  0  0  0  0  0  0  0  0  0  0
    2.5306   56.7075   72.7024 H   0  0  0  0  0  0  0  0  0  0  0  0
    1.3510   57.4529   71.5712 H   0  0  0  0  0  0  0  0  0  0  0  0
    3.0628   57.9973   71.5712 H   0  0  0  0  0  0  0  0  0  0  0  0
    1.4850   59.7102   71.4565 H   0  0  0  0  0  0  0  0  0  0  0  0
    2.7465   63.0658   72.3137 H   0  0  0  0  0  0  0  0  0  0  0  0
    0.9211   63.4327   71.0160 H   0  0  0  0  0  0  0  0  0  0  0  0
    0.8662   61.7288   70.4122 H   0  0  0  0  0  0  0  0  0  0  0  0
    0.0655   62.6977   73.1951 H   0  0  0  0  0  0  0  0  0  0  0  0
   -1.0389   62.1613   71.8591 H   0  0  0  0  0  0  0  0  0  0  0  0
   -0.6184   59.8918   72.2580 H   0  0  0  0  0  0  0  0  0  0  0  0
    0.5005   60.6249   74.9248 H   0  0  0  0  0  0  0  0  0  0  0  0
   -1.1024   61.3008   74.4768 H   0  0  0  0  0  0  0  0  0  0  0  0
   -0.8455   59.5230   74.4768 H   0  0  0  0  0  0  0  0  0  0  0  0
    3.0558   61.1288   70.0297 H   0  0  0  0  0  0  0  0  0  0  0  0
    3.4363   63.9040   70.2966 H   0  0  0  0  0  0  0  0  0  0  0  0
    5.0656   63.0733   70.1124 H   0  0  0  0  0  0  0  0  0  0  0  0
    2.8584   62.3079   68.2520 H   0  0  0  0  0  0  0  0  0  0  0  0
    3.6822   63.8851   68.0059 H   0  0  0  0  0  0  0  0  0  0  0  0
    4.6369   62.3635   68.0059 H   0  0  0  0  0  0  0  0  0  0  0  0
    4.9633   58.4110   74.4540 H   0  0  0  0  0  0  0  0  0  0  0  0
  2  1  1  0
  3  2  1  6
  4  3  1  0
  5  4  2  0
  6  5  1  0
  7  6  1  0
  7  8  1  1
  8  3  1  0
  9  7  1  0
 10  9  1  0
 11 10  1  0
 12 11  1  0
 12  7  1  0
 11 13  1  1
 14  3  1  0
 15 14  1  0
 16 15  1  0
 16  1  1  0
 17 16  1  0
 18 14  1  0
 19 11  1  0
 20 19  1  0
 21 20  1  0
 22 21  1  0
 23 22  1  0
 24 23  1  0
 24 19  1  0
 25 23  1  0
 22 26  1  6
 27 22  1  0
 28 27  1  0
 29  6  1  0
 30  1  1  0
 32 30  1  0
 32 31  1  0
 33 30  1  0
 34 33  2  0
 35 33  1  0
 36 35  1  0
 37 35  1  0
 38 37  1  0
 39 38  1  0
 40 38  1  0
 41 40  1  0
 42 41  1  0
 43 42  1  0
 44 43  1  0
 45 44  1  0
 45 40  1  0
 46 45  1  0
 47 42  1  0
 48 47  1  0
 49 48  2  0
 50 48  1  0
 51 47  1  0
 52 51  1  0
 53 37  1  0
  1 54  1  6
  4 55  1  0
  5 56  1  0
  6 57  1  1
  9 58  1  0
  9 59  1  0
 10 60  1  0
 10 61  1  0
 13 62  1  0
 13 63  1  0
 13 64  1  0
 14 65  1  1
 15 66  1  0
 15 67  1  0
 16 68  1  1
 17 69  1  0
 17 70  1  0
 17 71  1  0
 18 72  1  0
 18 73  1  0
 18 74  1  0
 19 75  1  1
 20 76  1  0
 20 77  1  0
 21 78  1  0
 21 79  1  0
 23 80  1  6
 25 81  1  0
 25 82  1  0
 25 83  1  0
 26 84  1  0
 27 85  1  0
 27 86  1  0
 28 87  1  0
 28 88  1  0
 28 89  1  0
 29 90  1  0
 30 91  1  1
 31 92  1  0
 31 93  1  0
 31 94  1  0
 32 95  1  0
 32 96  1  0
 35 97  1  1
 36 98  1  0
 36 99  1  0
 36100  1  0
 37101  1  1
 38102  1  1
 39103  1  0
 39104  1  0
 39105  1  0
 40106  1  6
 42107  1  1
 43108  1  0
 43109  1  0
 44110  1  0
 44111  1  0
 45112  1  6
 46113  1  0
 46114  1  0
 46115  1  0
 47116  1  6
 51117  1  0
 51118  1  0
 52119  1  0
 52120  1  0
 52121  1  0
 53122  1  0
M  CHG  1  50  -1
M  END
>  <score>  (2) 
-7.935

$$$$
=
     RDKit          3D

122126  0  0  0  0  0  0  0  0999 V2000
   -4.0690   62.1920   75.8980 C   0  0  1  0  0  0  0  0  0  0  0  0
   -4.5520   60.8750   76.2260 O   0  0  0  0  0  0  0  0  0  0  0  0
   -5.9700   60.6750   76.1460 C   0  0  1  0  0  0  0  0  0  0  0  0
   -6.3510   60.6080   74.6800 C   0  0  0  0  0  0  0  0  0  0  0  0
   -6.6520   59.4690   74.0400 C   0  0  0  0  0  0  0  0  0  0  0  0
   -6.6510   58.1560   74.7550 C   0  0  2  0  0  0  0  0  0  0  0  0
   -6.0270   58.2410   76.1780 C   0  0  1  0  0  0  0  0  0  0  0  0
   -6.3530   59.4650   76.8300 O   0  0  0  0  0  0  0  0  0  0  0  0
   -6.5600   57.1090   77.0510 C   0  0  0  0  0  0  0  0  0  0  0  0
   -5.5020   57.0140   78.1250 C   0  0  0  0  0  0  0  0  0  0  0  0
   -4.2040   57.3600   77.3800 C   0  0  1  0  0  0  0  0  0  0  0  0
   -4.6090   58.0080   76.1370 O   0  0  0  0  0  0  0  0  0  0  0  0
   -3.3760   58.3630   78.1840 C   0  0  0  0  0  0  0  0  0  0  0  0
   -6.7310   61.7680   76.9530 C   0  0  1  0  0  0  0  0  0  0  0  0
   -6.2080   63.1810   76.7030 C   0  0  0  0  0  0  0  0  0  0  0  0
   -4.6820   63.2130   76.8870 C   0  0  2  0  0  0  0  0  0  0  0  0
   -4.1940   64.6520   76.7700 C   0  0  0  0  0  0  0  0  0  0  0  0
   -8.2530   61.7160   76.7670 C   0  0  0  0  0  0  0  0  0  0  0  0
   -3.3700   56.1040   76.9840 C   0  0  1  0  0  0  0  0  0  0  0  0
   -3.0630   56.0160   75.4840 C   0  0  0  0  0  0  0  0  0  0  0  0
   -1.7520   55.2920   75.1900 C   0  0  0  0  0  0  0  0  0  0  0  0
   -1.4240   54.2040   76.2280 C   0  0  2  0  0  0  0  0  0  0  0  0
   -1.3670   54.9010   77.6270 C   0  0  1  0  0  0  0  0  0  0  0  0
   -2.1360   56.1170   77.7200 O   0  0  0  0  0  0  0  0  0  0  0  0
   -1.6900   54.0450   78.8450 C   0  0  0  0  0  0  0  0  0  0  0  0
   -0.1000   53.7220   75.9140 O   0  0  0  0  0  0  0  0  0  0  0  0
   -2.4060   53.0130   76.0810 C   0  0  0  0  0  0  0  0  0  0  0  0
   -2.1190   52.0450   74.9370 C   0  0  0  0  0  0  0  0  0  0  0  0
   -5.9680   57.2130   73.9300 O   0  0  0  0  0  0  0  0  0  0  0  0
   -2.5170   62.1310   75.7120 C   0  0  1  0  0  0  0  0  0  0  0  0
   -0.9010   62.7490   77.6180 C   0  0  0  0  0  0  0  0  0  0  0  0
   -1.8320   61.6950   77.0330 C   0  0  0  0  0  0  0  0  0  0  0  0
   -2.0660   61.2710   74.5130 C   0  0  0  0  0  0  0  0  0  0  0  0
   -2.7470   61.2150   73.4850 O   0  0  0  0  0  0  0  0  0  0  0  0
   -0.8120   60.3850   74.6680 C   0  0  1  0  0  0  0  0  0  0  0  0
   -1.1460   59.0000   74.0770 C   0  0  0  0  0  0  0  0  0  0  0  0
    0.5200   60.8950   74.0640 C   0  0  2  0  0  0  0  0  0  0  0  0
    1.7050   59.8900   74.1280 C   0  0  2  0  0  0  0  0  0  0  0  0
    2.6450   60.1650   75.3140 C   0  0  0  0  0  0  0  0  0  0  0  0
    2.5570   59.8850   72.8210 C   0  0  2  0  0  0  0  0  0  0  0  0
    1.8280   60.4890   71.7610 O   0  0  0  0  0  0  0  0  0  0  0  0
    2.6400   61.0020   70.6900 C   0  0  2  0  0  0  0  0  0  0  0  0
    3.8430   60.0660   70.4580 C   0  0  0  0  0  0  0  0  0  0  0  0
    3.5000   58.6240   70.8290 C   0  0  0  0  0  0  0  0  0  0  0  0
    3.0300   58.5040   72.3010 C   0  0  2  0  0  0  0  0  0  0  0  0
    1.9950   57.3800   72.3870 C   0  0  0  0  0  0  0  0  0  0  0  0
    3.0160   62.4660   70.9740 C   0  0  2  0  0  0  0  0  0  0  0  0
    1.6550   63.1990   70.9860 C   0  0  0  0  0  0  0  0  0  0  0  0
    1.0050   63.1400   69.8980 O   0  0  0  0  0  0  0  0  0  0  0  0
    1.3270   63.7500   72.0750 O   0  0  0  0  0  1  0  0  0  0  0  0
    3.9330   63.1320   69.9320 C   0  0  0  0  0  0  0  0  0  0  0  0
    5.2780   63.6030   70.4690 C   0  0  0  0  0  0  0  0  0  0  0  0
    0.8590   62.1710   74.5910 O   0  0  0  0  0  0  0  0  0  0  0  0
   -4.4088   62.5744   74.9242 H   0  0  0  0  0  0  0  0  0  0  0  0
   -6.3822   61.5476   74.1089 H   0  0  0  0  0  0  0  0  0  0  0  0
   -6.9042   59.5011   72.9698 H   0  0  0  0  0  0  0  0  0  0  0  0
   -7.6895   57.8346   74.9227 H   0  0  0  0  0  0  0  0  0  0  0  0
   -7.5414   57.3623   77.4784 H   0  0  0  0  0  0  0  0  0  0  0  0
   -6.7230   56.1679   76.5053 H   0  0  0  0  0  0  0  0  0  0  0  0
   -5.6959   57.7348   78.9330 H   0  0  0  0  0  0  0  0  0  0  0  0
   -5.4689   56.0263   78.6081 H   0  0  0  0  0  0  0  0  0  0  0  0
   -3.5246   58.1830   79.2589 H   0  0  0  0  0  0  0  0  0  0  0  0
   -2.3112   58.2420   77.9357 H   0  0  0  0  0  0  0  0  0  0  0  0
   -3.6965   59.3856   77.9357 H   0  0  0  0  0  0  0  0  0  0  0  0
   -6.5204   61.5202   78.0038 H   0  0  0  0  0  0  0  0  0  0  0  0
   -6.4583   63.4865   75.6763 H   0  0  0  0  0  0  0  0  0  0  0  0
   -6.6743   63.8725   77.4202 H   0  0  0  0  0  0  0  0  0  0  0  0
   -4.3510   62.8970   77.8873 H   0  0  0  0  0  0  0  0  0  0  0  0
   -4.0510   65.0736   77.7759 H   0  0  0  0  0  0  0  0  0  0  0  0
   -3.2388   64.6721   76.2248 H   0  0  0  0  0  0  0  0  0  0  0  0
   -4.9399   65.2490   76.2248 H   0  0  0  0  0  0  0  0  0  0  0  0
   -8.7424   61.6993   77.7520 H   0  0  0  0  0  0  0  0  0  0  0  0
   -8.5846   62.6033   76.2078 H   0  0  0  0  0  0  0  0  0  0  0  0
   -8.5233   60.8081   76.2078 H   0  0  0  0  0  0  0  0  0  0  0  0
   -3.9799   55.2224   77.2306 H   0  0  0  0  0  0  0  0  0  0  0  0
   -3.8823   55.4743   74.9888 H   0  0  0  0  0  0  0  0  0  0  0  0
   -2.9657   57.0441   75.1050 H   0  0  0  0  0  0  0  0  0  0  0  0
   -1.8257   54.8209   74.1987 H   0  0  0  0  0  0  0  0  0  0  0  0
   -0.9458   56.0394   75.2285 H   0  0  0  0  0  0  0  0  0  0  0  0
   -0.2912   55.1268   77.6688 H   0  0  0  0  0  0  0  0  0  0  0  0
   -1.4750   54.6148   79.7610 H   0  0  0  0  0  0  0  0  0  0  0  0
   -2.7544   53.7681   78.8267 H   0  0  0  0  0  0  0  0  0  0  0  0
   -1.0738   53.1340   78.8267 H   0  0  0  0  0  0  0  0  0  0  0  0
    0.3934   53.5424   76.7533 H   0  0  0  0  0  0  0  0  0  0  0  0
   -2.3830   52.4403   77.0199 H   0  0  0  0  0  0  0  0  0  0  0  0
   -3.3834   53.4620   75.8506 H   0  0  0  0  0  0  0  0  0  0  0  0
   -1.8290   51.0669   75.3483 H   0  0  0  0  0  0  0  0  0  0  0  0
   -3.0216   51.9298   74.3190 H   0  0  0  0  0  0  0  0  0  0  0  0
   -1.2995   52.4404   74.3190 H   0  0  0  0  0  0  0  0  0  0  0  0
   -5.4935   56.5579   74.5008 H   0  0  0  0  0  0  0  0  0  0  0  0
   -2.1878   63.1511   75.4648 H   0  0  0  0  0  0  0  0  0  0  0  0
   -0.9406   62.7042   78.7164 H   0  0  0  0  0  0  0  0  0  0  0  0
    0.1281   62.5574   77.2801 H   0  0  0  0  0  0  0  0  0  0  0  0
   -1.2182   63.7466   77.2801 H   0  0  0  0  0  0  0  0  0  0  0  0
   -2.6149   61.4740   77.7734 H   0  0  0  0  0  0  0  0  0  0  0  0
   -1.2143   60.8153   76.7992 H   0  0  0  0  0  0  0  0  0  0  0  0
   -0.6029   60.3783   75.7479 H   0  0  0  0  0  0  0  0  0  0  0  0
   -1.3186   58.2845   74.8944 H   0  0  0  0  0  0  0  0  0  0  0  0
   -2.0519   59.0745   73.4575 H   0  0  0  0  0  0  0  0  0  0  0  0
   -0.3057   58.6533   73.4575 H   0  0  0  0  0  0  0  0  0  0  0  0
    0.3310   60.9998   72.9854 H   0  0  0  0  0  0  0  0  0  0  0  0
    1.2316   58.9055   74.2571 H   0  0  0  0  0  0  0  0  0  0  0  0
    2.1016   60.0060   76.2571 H   0  0  0  0  0  0  0  0  0  0  0  0
    3.5050   59.4808   75.2665 H   0  0  0  0  0  0  0  0  0  0  0  0
    3.0006   61.2048   75.2665 H   0  0  0  0  0  0  0  0  0  0  0  0
    3.4606   60.4400   73.1131 H   0  0  0  0  0  0  0  0  0  0  0  0
    2.0803   61.0163   69.7432 H   0  0  0  0  0  0  0  0  0  0  0  0
    4.1288   60.1052   69.3965 H   0  0  0  0  0  0  0  0  0  0  0  0
    4.6740   60.4018   71.0958 H   0  0  0  0  0  0  0  0  0  0  0  0
    2.6956   58.2682   70.1684 H   0  0  0  0  0  0  0  0  0  0  0  0
    4.4084   58.0152   70.7097 H   0  0  0  0  0  0  0  0  0  0  0  0
    3.8508   58.2206   72.9762 H   0  0  0  0  0  0  0  0  0  0  0  0
    1.7865   57.1536   73.4431 H   0  0  0  0  0  0  0  0  0  0  0  0
    1.0666   57.6976   71.8899 H   0  0  0  0  0  0  0  0  0  0  0  0
    2.3880   56.4809   71.8899 H   0  0  0  0  0  0  0  0  0  0  0  0
    3.5950   62.5154   71.9080 H   0  0  0  0  0  0  0  0  0  0  0  0
    4.1216   62.4049   69.1284 H   0  0  0  0  0  0  0  0  0  0  0  0
    3.4052   64.0338   69.5883 H   0  0  0  0  0  0  0  0  0  0  0  0
    5.2567   63.5955   71.5688 H   0  0  0  0  0  0  0  0  0  0  0  0
    6.0712   62.9292   70.1131 H   0  0  0  0  0  0  0  0  0  0  0  0
    5.4776   64.6245   70.1131 H   0  0  0  0  0  0  0  0  0  0  0  0
    0.8488   62.1328   75.5802 H   0  0  0  0  0  0  0  0  0  0  0  0
  2  1  1  0
  3  2  1  6
  4  3  1  0
  5  4  2  0
  6  5  1  0
  7  6  1  0
  7  8  1  1
  8  3  1  0
  9  7  1  0
 10  9  1  0
 11 10  1  0
 12 11  1  0
 12  7  1  0
 11 13  1  1
 14  3  1  0
 15 14  1  0
 16 15  1  0
 16  1  1  0
 17 16  1  0
 18 14  1  0
 19 11  1  0
 20 19  1  0
 21 20  1  0
 22 21  1  0
 23 22  1  0
 24 23  1  0
 24 19  1  0
 25 23  1  0
 22 26  1  6
 27 22  1  0
 28 27  1  0
 29  6  1  0
 30  1  1  0
 32 30  1  0
 32 31  1  0
 33 30  1  0
 34 33  2  0
 35 33  1  0
 36 35  1  0
 37 35  1  0
 38 37  1  0
 39 38  1  0
 40 38  1  0
 41 40  1  0
 42 41  1  0
 43 42  1  0
 44 43  1  0
 45 44  1  0
 45 40  1  0
 46 45  1  0
 47 42  1  0
 48 47  1  0
 49 48  2  0
 50 48  1  0
 51 47  1  0
 52 51  1  0
 53 37  1  0
  1 54  1  6
  4 55  1  0
  5 56  1  0
  6 57  1  1
  9 58  1  0
  9 59  1  0
 10 60  1  0
 10 61  1  0
 13 62  1  0
 13 63  1  0
 13 64  1  0
 14 65  1  1
 15 66  1  0
 15 67  1  0
 16 68  1  1
 17 69  1  0
 17 70  1  0
 17 71  1  0
 18 72  1  0
 18 73  1  0
 18 74  1  0
 19 75  1  1
 20 76  1  0
 20 77  1  0
 21 78  1  0
 21 79  1  0
 23 80  1  1
 25 81  1  0
 25 82  1  0
 25 83  1  0
 26 84  1  0
 27 85  1  0
 27 86  1  0
 28 87  1  0
 28 88  1  0
 28 89  1  0
 29 90  1  0
 30 91  1  6
 31 92  1  0
 31 93  1  0
 31 94  1  0
 32 95  1  0
 32 96  1  0
 35 97  1  1
 36 98  1  0
 36 99  1  0
 36100  1  0
 37101  1  6
 38102  1  1
 39103  1  0
 39104  1  0
 39105  1  0
 40106  1  1
 42107  1  6
 43108  1  0
 43109  1  0
 44110  1  0
 44111  1  0
 45112  1  1
 46113  1  0
 46114  1  0
 46115  1  0
 47116  1  1
 51117  1  0
 51118  1  0
 52119  1  0
 52120  1  0
 52121  1  0
 53122  1  0
M  CHG  1  50  -1
M  END
>  <score>  (3) 
-7.89

$$$$
=
     RDKit          3D

122126  0  0  0  0  0  0  0  0999 V2000
   -2.8390   58.3020   76.0630 C   0  0  1  0  0  0  0  0  0  0  0  0
   -4.1530   58.8740   76.2050 O   0  0  0  0  0  0  0  0  0  0  0  0
   -4.9210   58.4370   77.3340 C   0  0  1  0  0  0  0  0  0  0  0  0
   -4.3430   59.0910   78.5740 C   0  0  0  0  0  0  0  0  0  0  0  0
   -4.9170   60.1240   79.2080 C   0  0  0  0  0  0  0  0  0  0  0  0
   -6.2110   60.7020   78.7320 C   0  0  2  0  0  0  0  0  0  0  0  0
   -6.6370   60.1650   77.3350 C   0  0  1  0  0  0  0  0  0  0  0  0
   -6.3100   58.7880   77.1720 O   0  0  0  0  0  0  0  0  0  0  0  0
   -8.1480   60.2940   77.1640 C   0  0  0  0  0  0  0  0  0  0  0  0
   -8.2990   60.2620   75.6620 C   0  0  0  0  0  0  0  0  0  0  0  0
   -7.0340   60.9740   75.1590 C   0  0  1  0  0  0  0  0  0  0  0  0
   -6.0990   60.9790   76.2800 O   0  0  0  0  0  0  0  0  0  0  0  0
   -6.3930   60.1860   74.0160 C   0  0  0  0  0  0  0  0  0  0  0  0
   -4.9760   56.8830   77.4010 C   0  0  1  0  0  0  0  0  0  0  0  0
   -3.6200   56.2170   77.1780 C   0  0  0  0  0  0  0  0  0  0  0  0
   -2.9730   56.7680   75.8970 C   0  0  2  0  0  0  0  0  0  0  0  0
   -1.6870   55.9990   75.6150 C   0  0  0  0  0  0  0  0  0  0  0  0
   -5.6350   56.3480   78.6790 C   0  0  0  0  0  0  0  0  0  0  0  0
   -7.2820   62.4620   74.7700 C   0  0  1  0  0  0  0  0  0  0  0  0
   -8.6970   62.7350   74.2440 C   0  0  0  0  0  0  0  0  0  0  0  0
   -9.1730   64.1550   74.5360 C   0  0  0  0  0  0  0  0  0  0  0  0
   -8.0230   65.1790   74.5590 C   0  0  2  0  0  0  0  0  0  0  0  0
   -7.0040   64.7040   75.6470 C   0  0  1  0  0  0  0  0  0  0  0  0
   -7.0370   63.2900   75.9190 O   0  0  0  0  0  0  0  0  0  0  0  0
   -5.5480   65.1160   75.4630 C   0  0  0  0  0  0  0  0  0  0  0  0
   -8.5950   66.4300   74.9970 O   0  0  0  0  0  0  0  0  0  0  0  0
   -7.4680   65.3900   73.1270 C   0  0  0  0  0  0  0  0  0  0  0  0
   -8.5000   65.6940   72.0450 C   0  0  0  0  0  0  0  0  0  0  0  0
   -6.0790   62.1230   78.7370 O   0  0  0  0  0  0  0  0  0  0  0  0
   -2.0380   59.1270   75.0010 C   0  0  1  0  0  0  0  0  0  0  0  0
   -2.1710   61.1910   73.4690 C   0  0  0  0  0  0  0  0  0  0  0  0
   -2.8790   60.3340   74.5100 C   0  0  0  0  0  0  0  0  0  0  0  0
   -0.6320   59.5530   75.4740 C   0  0  0  0  0  0  0  0  0  0  0  0
   -0.4950   60.3910   76.3700 O   0  0  0  0  0  0  0  0  0  0  0  0
    0.5990   59.0050   74.7220 C   0  0  1  0  0  0  0  0  0  0  0  0
    0.0840   58.1160   73.5730 C   0  0  0  0  0  0  0  0  0  0  0  0
    1.6250   60.0230   74.1650 C   0  0  2  0  0  0  0  0  0  0  0  0
    2.8900   59.3990   73.5100 C   0  0  2  0  0  0  0  0  0  0  0  0
    4.1530   59.5990   74.3660 C   0  0  0  0  0  0  0  0  0  0  0  0
    3.1710   59.9680   72.0850 C   0  0  2  0  0  0  0  0  0  0  0  0
    2.0010   60.5890   71.5680 O   0  0  0  0  0  0  0  0  0  0  0  0
    2.2440   61.5670   70.5420 C   0  0  2  0  0  0  0  0  0  0  0  0
    3.4140   61.1030   69.6510 C   0  0  0  0  0  0  0  0  0  0  0  0
    3.4960   59.5780   69.5980 C   0  0  0  0  0  0  0  0  0  0  0  0
    3.6470   58.9590   71.0100 C   0  0  2  0  0  0  0  0  0  0  0  0
    2.9360   57.6040   71.0220 C   0  0  0  0  0  0  0  0  0  0  0  0
    2.4350   62.9540   71.1760 C   0  0  2  0  0  0  0  0  0  0  0  0
    1.0380   63.6060   71.0630 C   0  0  0  0  0  0  0  0  0  0  0  0
    0.6390   64.2020   72.1090 O   0  0  0  0  0  0  0  0  0  0  0  0
    0.4620   63.5010   69.9430 O   0  0  0  0  0  1  0  0  0  0  0  0
    3.4670   63.8640   70.4850 C   0  0  0  0  0  0  0  0  0  0  0  0
    4.9220   63.4900   70.7360 C   0  0  0  0  0  0  0  0  0  0  0  0
    1.9450   61.0050   75.1410 O   0  0  0  0  0  0  0  0  0  0  0  0
   -2.2047   58.3882   76.9575 H   0  0  0  0  0  0  0  0  0  0  0  0
   -3.3988   58.6955   78.9766 H   0  0  0  0  0  0  0  0  0  0  0  0
   -4.4269   60.5537   80.0941 H   0  0  0  0  0  0  0  0  0  0  0  0
   -7.0182   60.3906   79.4113 H   0  0  0  0  0  0  0  0  0  0  0  0
   -8.6767   59.4532   77.6367 H   0  0  0  0  0  0  0  0  0  0  0  0
   -8.5717   61.1944   77.6328 H   0  0  0  0  0  0  0  0  0  0  0  0
   -8.3404   59.2266   75.2930 H   0  0  0  0  0  0  0  0  0  0  0  0
   -9.2266   60.7402   75.3144 H   0  0  0  0  0  0  0  0  0  0  0  0
   -5.7501   59.3957   74.4309 H   0  0  0  0  0  0  0  0  0  0  0  0
   -7.1806   59.7310   73.3975 H   0  0  0  0  0  0  0  0  0  0  0  0
   -5.7871   60.8645   73.3975 H   0  0  0  0  0  0  0  0  0  0  0  0
   -5.6233   56.6030   76.5568 H   0  0  0  0  0  0  0  0  0  0  0  0
   -2.9651   56.4258   78.0367 H   0  0  0  0  0  0  0  0  0  0  0  0
   -3.7616   55.1310   77.0750 H   0  0  0  0  0  0  0  0  0  0  0  0
   -3.5817   56.6153   74.9936 H   0  0  0  0  0  0  0  0  0  0  0  0
   -1.2131   55.7156   76.5664 H   0  0  0  0  0  0  0  0  0  0  0  0
   -1.9210   55.0924   75.0376 H   0  0  0  0  0  0  0  0  0  0  0  0
   -0.9991   56.6341   75.0376 H   0  0  0  0  0  0  0  0  0  0  0  0
   -5.1218   56.7646   79.5582 H   0  0  0  0  0  0  0  0  0  0  0  0
   -6.6939   56.6452   78.6975 H   0  0  0  0  0  0  0  0  0  0  0  0
   -5.5618   55.2506   78.6975 H   0  0  0  0  0  0  0  0  0  0  0  0
   -6.5911   62.6964   73.9468 H   0  0  0  0  0  0  0  0  0  0  0  0
   -8.7032   62.5792   73.1551 H   0  0  0  0  0  0  0  0  0  0  0  0
   -9.3807   62.0442   74.7591 H   0  0  0  0  0  0  0  0  0  0  0  0
   -9.8916   64.4515   73.7577 H   0  0  0  0  0  0  0  0  0  0  0  0
   -9.6316   64.1507   75.5358 H   0  0  0  0  0  0  0  0  0  0  0  0
   -7.3907   65.2653   76.5104 H   0  0  0  0  0  0  0  0  0  0  0  0
   -5.0773   65.2492   76.4482 H   0  0  0  0  0  0  0  0  0  0  0  0
   -5.0134   64.3339   74.9040 H   0  0  0  0  0  0  0  0  0  0  0  0
   -5.5025   66.0623   74.9040 H   0  0  0  0  0  0  0  0  0  0  0  0
   -8.6080   66.4584   75.9865 H   0  0  0  0  0  0  0  0  0  0  0  0
   -6.7597   66.2309   73.1616 H   0  0  0  0  0  0  0  0  0  0  0  0
   -7.0147   64.4293   72.8413 H   0  0  0  0  0  0  0  0  0  0  0  0
   -9.4534   65.9749   72.5162 H   0  0  0  0  0  0  0  0  0  0  0  0
   -8.1415   66.5247   71.4194 H   0  0  0  0  0  0  0  0  0  0  0  0
   -8.6491   64.8016   71.4194 H   0  0  0  0  0  0  0  0  0  0  0  0
   -6.0488   62.4483   79.6715 H   0  0  0  0  0  0  0  0  0  0  0  0
   -1.8557   58.4551   74.1493 H   0  0  0  0  0  0  0  0  0  0  0  0
   -1.5490   61.9438   73.9754 H   0  0  0  0  0  0  0  0  0  0  0  0
   -1.5339   60.5520   72.8399 H   0  0  0  0  0  0  0  0  0  0  0  0
   -2.9187   61.6961   72.8399 H   0  0  0  0  0  0  0  0  0  0  0  0
   -3.8111   59.9512   74.0688 H   0  0  0  0  0  0  0  0  0  0  0  0
   -3.0610   60.9758   75.3846 H   0  0  0  0  0  0  0  0  0  0  0  0
    1.1794   58.4665   75.4857 H   0  0  0  0  0  0  0  0  0  0  0  0
   -0.4260   57.2356   73.9910 H   0  0  0  0  0  0  0  0  0  0  0  0
   -0.6219   58.6892   72.9540 H   0  0  0  0  0  0  0  0  0  0  0  0
    0.9324   57.7888   72.9540 H   0  0  0  0  0  0  0  0  0  0  0  0
    1.1185   60.5177   73.3231 H   0  0  0  0  0  0  0  0  0  0  0  0
    2.6652   58.3249   73.4334 H   0  0  0  0  0  0  0  0  0  0  0  0
    3.8841   59.5564   75.4318 H   0  0  0  0  0  0  0  0  0  0  0  0
    4.8793   58.8047   74.1391 H   0  0  0  0  0  0  0  0  0  0  0  0
    4.5984   60.5789   74.1391 H   0  0  0  0  0  0  0  0  0  0  0  0
    4.0058   60.6631   72.2577 H   0  0  0  0  0  0  0  0  0  0  0  0
    1.3748   61.6626   69.8747 H   0  0  0  0  0  0  0  0  0  0  0  0
    3.2648   61.4901   68.6322 H   0  0  0  0  0  0  0  0  0  0  0  0
    4.3517   61.4880   70.0783 H   0  0  0  0  0  0  0  0  0  0  0  0
    2.5775   59.1882   69.1350 H   0  0  0  0  0  0  0  0  0  0  0  0
    4.3836   59.3043   69.0087 H   0  0  0  0  0  0  0  0  0  0  0  0
    4.6985   58.7590   71.2637 H   0  0  0  0  0  0  0  0  0  0  0  0
    2.7694   57.2865   72.0619 H   0  0  0  0  0  0  0  0  0  0  0  0
    1.9684   57.6930   70.5063 H   0  0  0  0  0  0  0  0  0  0  0  0
    3.5591   56.8584   70.5063 H   0  0  0  0  0  0  0  0  0  0  0  0
    2.8259   62.8334   72.1971 H   0  0  0  0  0  0  0  0  0  0  0  0
    3.2861   63.8239   69.4007 H   0  0  0  0  0  0  0  0  0  0  0  0
    3.3284   64.8679   70.9129 H   0  0  0  0  0  0  0  0  0  0  0  0
    5.1067   63.4425   71.8193 H   0  0  0  0  0  0  0  0  0  0  0  0
    5.1314   62.5088   70.2850 H   0  0  0  0  0  0  0  0  0  0  0  0
    5.5786   64.2486   70.2850 H   0  0  0  0  0  0  0  0  0  0  0  0
    1.8207   60.6235   76.0461 H   0  0  0  0  0  0  0  0  0  0  0  0
  2  1  1  0
  3  2  1  6
  4  3  1  0
  5  4  2  0
  6  5  1  0
  7  6  1  0
  7  8  1  6
  8  3  1  0
  9  7  1  0
 10  9  1  0
 11 10  1  0
 12 11  1  0
 12  7  1  0
 11 13  1  6
 14  3  1  0
 15 14  1  0
 16 15  1  0
 16  1  1  0
 17 16  1  0
 18 14  1  0
 19 11  1  0
 20 19  1  0
 21 20  1  0
 22 21  1  0
 23 22  1  0
 24 23  1  0
 24 19  1  0
 25 23  1  0
 22 26  1  1
 27 22  1  0
 28 27  1  0
 29  6  1  0
 30  1  1  0
 32 30  1  0
 32 31  1  0
 33 30  1  0
 34 33  2  0
 35 33  1  0
 36 35  1  0
 37 35  1  0
 38 37  1  0
 39 38  1  0
 40 38  1  0
 41 40  1  0
 42 41  1  0
 43 42  1  0
 44 43  1  0
 45 44  1  0
 45 40  1  0
 46 45  1  0
 47 42  1  0
 48 47  1  0
 49 48  2  0
 50 48  1  0
 51 47  1  0
 52 51  1  0
 53 37  1  0
  1 54  1  1
  4 55  1  0
  5 56  1  0
  6 57  1  1
  9 58  1  0
  9 59  1  0
 10 60  1  0
 10 61  1  0
 13 62  1  0
 13 63  1  0
 13 64  1  0
 14 65  1  6
 15 66  1  0
 15 67  1  0
 16 68  1  6
 17 69  1  0
 17 70  1  0
 17 71  1  0
 18 72  1  0
 18 73  1  0
 18 74  1  0
 19 75  1  6
 20 76  1  0
 20 77  1  0
 21 78  1  0
 21 79  1  0
 23 80  1  1
 25 81  1  0
 25 82  1  0
 25 83  1  0
 26 84  1  0
 27 85  1  0
 27 86  1  0
 28 87  1  0
 28 88  1  0
 28 89  1  0
 29 90  1  0
 30 91  1  6
 31 92  1  0
 31 93  1  0
 31 94  1  0
 32 95  1  0
 32 96  1  0
 35 97  1  1
 36 98  1  0
 36 99  1  0
 36100  1  0
 37101  1  6
 38102  1  6
 39103  1  0
 39104  1  0
 39105  1  0
 40106  1  1
 42107  1  6
 43108  1  0
 43109  1  0
 44110  1  0
 44111  1  0
 45112  1  1
 46113  1  0
 46114  1  0
 46115  1  0
 47116  1  1
 51117  1  0
 51118  1  0
 52119  1  0
 52120  1  0
 52121  1  0
 53122  1  0
M  CHG  1  50  -1
M  END
>  <score>  (4) 
-7.803

$$$$
=
     RDKit          3D

122126  0  0  0  0  0  0  0  0999 V2000
   -2.2260   61.6320   76.3000 C   0  0  1  0  0  0  0  0  0  0  0  0
   -1.7840   60.2920   76.5920 O   0  0  0  0  0  0  0  0  0  0  0  0
   -2.3690   59.2410   75.8120 C   0  0  1  0  0  0  0  0  0  0  0  0
   -1.7600   59.2940   74.4240 C   0  0  0  0  0  0  0  0  0  0  0  0
   -0.8320   58.4320   73.9840 C   0  0  0  0  0  0  0  0  0  0  0  0
   -0.3380   57.3190   74.8520 C   0  0  2  0  0  0  0  0  0  0  0  0
   -0.8060   57.4480   76.3300 C   0  0  1  0  0  0  0  0  0  0  0  0
   -2.1330   57.9580   76.4250 O   0  0  0  0  0  0  0  0  0  0  0  0
   -0.8000   56.0780   77.0010 C   0  0  0  0  0  0  0  0  0  0  0  0
   -0.7330   56.4440   78.4650 C   0  0  0  0  0  0  0  0  0  0  0  0
    0.1240   57.7190   78.4770 C   0  0  1  0  0  0  0  0  0  0  0  0
    0.1290   58.2170   77.1050 O   0  0  0  0  0  0  0  0  0  0  0  0
   -0.5180   58.7890   79.3620 C   0  0  0  0  0  0  0  0  0  0  0  0
   -3.9240   59.3360   75.8290 C   0  0  1  0  0  0  0  0  0  0  0  0
   -4.4480   60.7530   75.6020 C   0  0  0  0  0  0  0  0  0  0  0  0
   -3.7490   61.7280   76.5610 C   0  0  2  0  0  0  0  0  0  0  0  0
   -4.3780   63.1090   76.4170 C   0  0  0  0  0  0  0  0  0  0  0  0
   -4.6070   58.3480   74.8750 C   0  0  0  0  0  0  0  0  0  0  0  0
    1.6080   57.4570   78.8680 C   0  0  1  0  0  0  0  0  0  0  0  0
    1.7720   56.5570   80.1000 C   0  0  0  0  0  0  0  0  0  0  0  0
    3.0610   55.7420   80.0710 C   0  0  0  0  0  0  0  0  0  0  0  0
    4.2090   56.4640   79.3420 C   0  0  2  0  0  0  0  0  0  0  0  0
    3.7150   56.7680   77.8890 C   0  0  1  0  0  0  0  0  0  0  0  0
    2.2840   56.8560   77.7510 O   0  0  0  0  0  0  0  0  0  0  0  0
    4.3320   57.9680   77.1810 C   0  0  0  0  0  0  0  0  0  0  0  0
    5.2990   55.5220   79.2570 O   0  0  0  0  0  0  0  0  0  0  0  0
    4.6960   57.6740   80.1800 C   0  0  0  0  0  0  0  0  0  0  0  0
    6.2040   57.7800   80.3920 C   0  0  0  0  0  0  0  0  0  0  0  0
    1.0850   57.2860   74.7450 O   0  0  0  0  0  0  0  0  0  0  0  0
   -1.2560   62.6470   76.9910 C   0  0  1  0  0  0  0  0  0  0  0  0
   -1.1500   63.7790   79.3010 C   0  0  0  0  0  0  0  0  0  0  0  0
   -1.3000   62.4720   78.5310 C   0  0  0  0  0  0  0  0  0  0  0  0
    0.1860   62.6040   76.4430 C   0  0  0  0  0  0  0  0  0  0  0  0
    1.0670   61.9740   77.0350 O   0  0  0  0  0  0  0  0  0  0  0  0
    0.5350   63.4630   75.2090 C   0  0  1  0  0  0  0  0  0  0  0  0
    1.3620   64.6670   75.7000 C   0  0  0  0  0  0  0  0  0  0  0  0
    1.2700   62.7780   74.0300 C   0  0  2  0  0  0  0  0  0  0  0  0
    0.5610   62.8920   72.6500 C   0  0  2  0  0  0  0  0  0  0  0  0
   -0.8040   62.1830   72.6320 C   0  0  0  0  0  0  0  0  0  0  0  0
    1.4240   62.3190   71.4840 C   0  0  2  0  0  0  0  0  0  0  0  0
    2.7430   62.0500   71.9390 O   0  0  0  0  0  0  0  0  0  0  0  0
    3.4620   61.0800   71.1580 C   0  0  2  0  0  0  0  0  0  0  0  0
    3.1040   61.2470   69.6670 C   0  0  0  0  0  0  0  0  0  0  0  0
    2.7410   62.6970   69.3470 C   0  0  0  0  0  0  0  0  0  0  0  0
    1.5650   63.2030   70.2190 C   0  0  2  0  0  0  0  0  0  0  0  0
    1.7680   64.6970   70.4820 C   0  0  0  0  0  0  0  0  0  0  0  0
    3.2150   59.6700   71.7180 C   0  0  2  0  0  0  0  0  0  0  0  0
    4.0520   59.6390   73.0170 C   0  0  0  0  0  0  0  0  0  0  0  0
    3.5520   58.9550   73.9610 O   0  0  0  0  0  0  0  0  0  0  0  0
    5.1480   60.2690   72.9900 O   0  0  0  0  0  1  0  0  0  0  0  0
    3.6580   58.5060   70.8120 C   0  0  0  0  0  0  0  0  0  0  0  0
    2.9350   57.1890   71.0590 C   0  0  0  0  0  0  0  0  0  0  0  0
    1.6150   61.4390   74.3560 O   0  0  0  0  0  0  0  0  0  0  0  0
   -2.1516   61.9179   75.2404 H   0  0  0  0  0  0  0  0  0  0  0  0
   -2.0991   60.0850   73.7389 H   0  0  0  0  0  0  0  0  0  0  0  0
   -0.4273   58.5454   72.9675 H   0  0  0  0  0  0  0  0  0  0  0  0
   -0.7700   56.3692   74.5039 H   0  0  0  0  0  0  0  0  0  0  0  0
   -1.7177   55.5167   76.7712 H   0  0  0  0  0  0  0  0  0  0  0  0
    0.0215   55.4260   76.6694 H   0  0  0  0  0  0  0  0  0  0  0  0
   -1.7376   56.6417   78.8672 H   0  0  0  0  0  0  0  0  0  0  0  0
   -0.3144   55.6405   79.0888 H   0  0  0  0  0  0  0  0  0  0  0  0
   -0.3632   58.5310   80.4200 H   0  0  0  0  0  0  0  0  0  0  0  0
   -0.0561   59.7648   79.1512 H   0  0  0  0  0  0  0  0  0  0  0  0
   -1.5964   58.8406   79.1512 H   0  0  0  0  0  0  0  0  0  0  0  0
   -4.1990   59.0444   76.8534 H   0  0  0  0  0  0  0  0  0  0  0  0
   -4.2460   61.0547   74.5637 H   0  0  0  0  0  0  0  0  0  0  0  0
   -5.5315   60.7733   75.7907 H   0  0  0  0  0  0  0  0  0  0  0  0
   -3.8878   61.4777   77.6231 H   0  0  0  0  0  0  0  0  0  0  0  0
   -4.5699   63.5303   77.4148 H   0  0  0  0  0  0  0  0  0  0  0  0
   -3.6916   63.7689   75.8661 H   0  0  0  0  0  0  0  0  0  0  0  0
   -5.3264   63.0243   75.8661 H   0  0  0  0  0  0  0  0  0  0  0  0
   -5.1371   57.5812   75.4590 H   0  0  0  0  0  0  0  0  0  0  0  0
   -5.3257   58.8878   74.2409 H   0  0  0  0  0  0  0  0  0  0  0  0
   -3.8481   57.8664   74.2409 H   0  0  0  0  0  0  0  0  0  0  0  0
    2.0460   58.4313   79.1306 H   0  0  0  0  0  0  0  0  0  0  0  0
    1.7771   57.1903   80.9994 H   0  0  0  0  0  0  0  0  0  0  0  0
    0.9319   55.8469   80.1048 H   0  0  0  0  0  0  0  0  0  0  0  0
    3.3734   55.5420   81.1066 H   0  0  0  0  0  0  0  0  0  0  0  0
    2.8523   54.8130   79.5202 H   0  0  0  0  0  0  0  0  0  0  0  0
    4.0907   55.8671   77.3819 H   0  0  0  0  0  0  0  0  0  0  0  0
    4.7008   58.6853   77.9290 H   0  0  0  0  0  0  0  0  0  0  0  0
    5.1690   57.6318   76.5515 H   0  0  0  0  0  0  0  0  0  0  0  0
    3.5716   58.4532   76.5515 H   0  0  0  0  0  0  0  0  0  0  0  0
    5.5898   55.2707   80.1693 H   0  0  0  0  0  0  0  0  0  0  0  0
    4.3627   58.5909   79.6718 H   0  0  0  0  0  0  0  0  0  0  0  0
    4.2657   57.5319   81.1823 H   0  0  0  0  0  0  0  0  0  0  0  0
    6.4225   57.7954   81.4700 H   0  0  0  0  0  0  0  0  0  0  0  0
    6.7010   56.9146   79.9294 H   0  0  0  0  0  0  0  0  0  0  0  0
    6.5751   58.7064   79.9294 H   0  0  0  0  0  0  0  0  0  0  0  0
    1.4839   57.2767   75.6510 H   0  0  0  0  0  0  0  0  0  0  0  0
   -1.6210   63.6539   76.7403 H   0  0  0  0  0  0  0  0  0  0  0  0
   -1.1737   63.5729   80.3813 H   0  0  0  0  0  0  0  0  0  0  0  0
   -0.1918   64.2512   79.0387 H   0  0  0  0  0  0  0  0  0  0  0  0
   -1.9763   64.4560   79.0387 H   0  0  0  0  0  0  0  0  0  0  0  0
   -2.2649   62.0184   78.8015 H   0  0  0  0  0  0  0  0  0  0  0  0
   -0.4454   61.8367   78.8068 H   0  0  0  0  0  0  0  0  0  0  0  0
   -0.4360   63.7319   74.7675 H   0  0  0  0  0  0  0  0  0  0  0  0
    1.3717   64.6811   76.7999 H   0  0  0  0  0  0  0  0  0  0  0  0
    2.3927   64.5812   75.3253 H   0  0  0  0  0  0  0  0  0  0  0  0
    0.9120   65.5982   75.3253 H   0  0  0  0  0  0  0  0  0  0  0  0
    2.1968   63.3538   73.8904 H   0  0  0  0  0  0  0  0  0  0  0  0
    0.4153   63.9715   72.4970 H   0  0  0  0  0  0  0  0  0  0  0  0
   -1.1401   62.0084   73.6647 H   0  0  0  0  0  0  0  0  0  0  0  0
   -1.5380   62.8138   72.1092 H   0  0  0  0  0  0  0  0  0  0  0  0
   -0.7100   61.2198   72.1092 H   0  0  0  0  0  0  0  0  0  0  0  0
    0.8650   61.4210   71.1823 H   0  0  0  0  0  0  0  0  0  0  0  0
    4.5474   61.2435   71.2300 H   0  0  0  0  0  0  0  0  0  0  0  0
    3.9680   60.9495   69.0546 H   0  0  0  0  0  0  0  0  0  0  0  0
    2.2343   60.6117   69.4433 H   0  0  0  0  0  0  0  0  0  0  0  0
    3.6197   63.3327   69.5311 H   0  0  0  0  0  0  0  0  0  0  0  0
    2.4302   62.7464   68.2930 H   0  0  0  0  0  0  0  0  0  0  0  0
    0.5971   63.1075   69.7051 H   0  0  0  0  0  0  0  0  0  0  0  0
    1.7926   64.8783   71.5667 H   0  0  0  0  0  0  0  0  0  0  0  0
    2.7186   65.0223   70.0342 H   0  0  0  0  0  0  0  0  0  0  0  0
    0.9387   65.2641   70.0342 H   0  0  0  0  0  0  0  0  0  0  0  0
    2.1328   59.5153   71.8406 H   0  0  0  0  0  0  0  0  0  0  0  0
    3.4828   58.8010   69.7669 H   0  0  0  0  0  0  0  0  0  0  0  0
    4.7181   58.3232   71.0416 H   0  0  0  0  0  0  0  0  0  0  0  0
    2.8419   57.0193   72.1418 H   0  0  0  0  0  0  0  0  0  0  0  0
    1.9331   57.2303   70.6068 H   0  0  0  0  0  0  0  0  0  0  0  0
    3.5077   56.3659   70.6068 H   0  0  0  0  0  0  0  0  0  0  0  0
    1.6417   61.3354   75.3402 H   0  0  0  0  0  0  0  0  0  0  0  0
  2  1  1  0
  3  2  1  1
  4  3  1  0
  5  4  2  0
  6  5  1  0
  7  6  1  0
  7  8  1  6
  8  3  1  0
  9  7  1  0
 10  9  1  0
 11 10  1  0
 12 11  1  0
 12  7  1  0
 11 13  1  1
 14  3  1  0
 15 14  1  0
 16 15  1  0
 16  1  1  0
 17 16  1  0
 18 14  1  0
 19 11  1  0
 20 19  1  0
 21 20  1  0
 22 21  1  0
 23 22  1  0
 24 23  1  0
 24 19  1  0
 25 23  1  0
 22 26  1  6
 27 22  1  0
 28 27  1  0
 29  6  1  0
 30  1  1  0
 32 30  1  0
 32 31  1  0
 33 30  1  0
 34 33  2  0
 35 33  1  0
 36 35  1  0
 37 35  1  0
 38 37  1  0
 39 38  1  0
 40 38  1  0
 41 40  1  0
 42 41  1  0
 43 42  1  0
 44 43  1  0
 45 44  1  0
 45 40  1  0
 46 45  1  0
 47 42  1  0
 48 47  1  0
 49 48  2  0
 50 48  1  0
 51 47  1  0
 52 51  1  0
 53 37  1  0
  1 54  1  6
  4 55  1  0
  5 56  1  0
  6 57  1  6
  9 58  1  0
  9 59  1  0
 10 60  1  0
 10 61  1  0
 13 62  1  0
 13 63  1  0
 13 64  1  0
 14 65  1  1
 15 66  1  0
 15 67  1  0
 16 68  1  1
 17 69  1  0
 17 70  1  0
 17 71  1  0
 18 72  1  0
 18 73  1  0
 18 74  1  0
 19 75  1  1
 20 76  1  0
 20 77  1  0
 21 78  1  0
 21 79  1  0
 23 80  1  6
 25 81  1  0
 25 82  1  0
 25 83  1  0
 26 84  1  0
 27 85  1  0
 27 86  1  0
 28 87  1  0
 28 88  1  0
 28 89  1  0
 29 90  1  0
 30 91  1  1
 31 92  1  0
 31 93  1  0
 31 94  1  0
 32 95  1  0
 32 96  1  0
 35 97  1  6
 36 98  1  0
 36 99  1  0
 36100  1  0
 37101  1  6
 38102  1  6
 39103  1  0
 39104  1  0
 39105  1  0
 40106  1  6
 42107  1  6
 43108  1  0
 43109  1  0
 44110  1  0
 44111  1  0
 45112  1  6
 46113  1  0
 46114  1  0
 46115  1  0
 47116  1  1
 51117  1  0
 51118  1  0
 52119  1  0
 52120  1  0
 52121  1  0
 53122  1  0
M  CHG  1  50  -1
M  END
>  <score>  (5) 
-7.795

$$$$
=
     RDKit          3D

122126  0  0  0  0  0  0  0  0999 V2000
    1.8420   60.5260   78.3690 C   0  0  1  0  0  0  0  0  0  0  0  0
    1.2990   60.8020   77.0640 O   0  0  0  0  0  0  0  0  0  0  0  0
   -0.0390   61.3160   77.0230 C   0  0  1  0  0  0  0  0  0  0  0  0
    0.0040   62.7650   77.4710 C   0  0  0  0  0  0  0  0  0  0  0  0
   -0.0980   63.8070   76.6330 C   0  0  0  0  0  0  0  0  0  0  0  0
   -0.2850   63.6020   75.1640 C   0  0  2  0  0  0  0  0  0  0  0  0
   -0.0830   62.1220   74.7270 C   0  0  1  0  0  0  0  0  0  0  0  0
   -0.5880   61.2080   75.6950 O   0  0  0  0  0  0  0  0  0  0  0  0
   -0.8280   61.8560   73.4220 C   0  0  0  0  0  0  0  0  0  0  0  0
   -0.1100   60.6380   72.8920 C   0  0  0  0  0  0  0  0  0  0  0  0
    1.3410   60.8500   73.3480 C   0  0  1  0  0  0  0  0  0  0  0  0
    1.2920   61.8620   74.3990 O   0  0  0  0  0  0  0  0  0  0  0  0
    1.9040   59.5660   73.9600 C   0  0  0  0  0  0  0  0  0  0  0  0
   -1.0040   60.4210   77.8560 C   0  0  1  0  0  0  0  0  0  0  0  0
   -0.4440   60.0320   79.2230 C   0  0  0  0  0  0  0  0  0  0  0  0
    0.9690   59.4510   79.0610 C   0  0  2  0  0  0  0  0  0  0  0  0
    1.4590   58.9430   80.4130 C   0  0  0  0  0  0  0  0  0  0  0  0
   -2.4140   61.0100   77.9980 C   0  0  0  0  0  0  0  0  0  0  0  0
    2.2620   61.4090   72.2230 C   0  0  1  0  0  0  0  0  0  0  0  0
    1.7520   62.7150   71.6010 C   0  0  0  0  0  0  0  0  0  0  0  0
    2.8790   63.6050   71.0840 C   0  0  0  0  0  0  0  0  0  0  0  0
    4.0960   62.8010   70.5880 C   0  0  2  0  0  0  0  0  0  0  0  0
    4.5890   61.9240   71.7850 C   0  0  1  0  0  0  0  0  0  0  0  0
    3.5760   61.6260   72.7650 O   0  0  0  0  0  0  0  0  0  0  0  0
    5.3130   60.6270   71.4440 C   0  0  0  0  0  0  0  0  0  0  0  0
    5.1270   63.7630   70.2820 O   0  0  0  0  0  0  0  0  0  0  0  0
    3.7430   62.0560   69.2750 C   0  0  0  0  0  0  0  0  0  0  0  0
    3.7490   62.8990   68.0020 C   0  0  0  0  0  0  0  0  0  0  0  0
    0.6090   64.4840   74.4860 O   0  0  0  0  0  0  0  0  0  0  0  0
    3.3850   60.3040   78.2390 C   0  0  1  0  0  0  0  0  0  0  0  0
    3.3880   62.3420   79.8120 C   0  0  0  0  0  0  0  0  0  0  0  0
    4.1400   61.1080   79.3290 C   0  0  0  0  0  0  0  0  0  0  0  0
    3.8020   58.8180   78.2220 C   0  0  0  0  0  0  0  0  0  0  0  0
    4.5730   58.3690   79.0750 O   0  0  0  0  0  0  0  0  0  0  0  0
    3.3340   57.9320   77.0480 C   0  0  1  0  0  0  0  0  0  0  0  0
    4.4870   57.8680   76.0260 C   0  0  0  0  0  0  0  0  0  0  0  0
    2.8490   56.4950   77.3680 C   0  0  2  0  0  0  0  0  0  0  0  0
    1.3090   56.3320   77.5130 C   0  0  2  0  0  0  0  0  0  0  0  0
    0.9120   54.9340   78.0180 C   0  0  0  0  0  0  0  0  0  0  0  0
    0.5490   56.6040   76.1790 C   0  0  2  0  0  0  0  0  0  0  0  0
   -0.7180   55.9600   76.1990 O   0  0  0  0  0  0  0  0  0  0  0  0
   -1.6930   56.5250   75.3060 C   0  0  2  0  0  0  0  0  0  0  0  0
   -1.0010   56.9800   74.0050 C   0  0  0  0  0  0  0  0  0  0  0  0
    0.2290   56.1250   73.7060 C   0  0  0  0  0  0  0  0  0  0  0  0
    1.2510   56.1570   74.8710 C   0  0  2  0  0  0  0  0  0  0  0  0
    1.9530   54.7990   74.9350 C   0  0  0  0  0  0  0  0  0  0  0  0
   -2.4860   57.6280   76.0260 C   0  0  2  0  0  0  0  0  0  0  0  0
   -3.0190   56.9280   77.2970 C   0  0  0  0  0  0  0  0  0  0  0  0
   -3.8640   56.0050   77.0860 O   0  0  0  0  0  0  0  0  0  0  0  0
   -2.5400   57.3260   78.3960 O   0  0  0  0  0  1  0  0  0  0  0  0
   -3.6750   58.2130   75.2420 C   0  0  0  0  0  0  0  0  0  0  0  0
   -3.4980   59.6570   74.7900 C   0  0  0  0  0  0  0  0  0  0  0  0
    3.5610   55.9540   78.4730 O   0  0  0  0  0  0  0  0  0  0  0  0
    1.7828   61.3666   79.0760 H   0  0  0  0  0  0  0  0  0  0  0  0
    0.1258   62.9726   78.5443 H   0  0  0  0  0  0  0  0  0  0  0  0
   -0.0431   64.8301   77.0334 H   0  0  0  0  0  0  0  0  0  0  0  0
   -1.3265   63.8334   74.8960 H   0  0  0  0  0  0  0  0  0  0  0  0
   -1.8918   61.6444   73.6053 H   0  0  0  0  0  0  0  0  0  0  0  0
   -0.8245   62.7094   72.7279 H   0  0  0  0  0  0  0  0  0  0  0  0
   -0.5273   59.7166   73.3243 H   0  0  0  0  0  0  0  0  0  0  0  0
   -0.2043   60.5259   71.8018 H   0  0  0  0  0  0  0  0  0  0  0  0
    1.8723   59.6382   75.0572 H   0  0  0  0  0  0  0  0  0  0  0  0
    1.2997   58.7076   73.6314 H   0  0  0  0  0  0  0  0  0  0  0  0
    2.9448   59.4289   73.6314 H   0  0  0  0  0  0  0  0  0  0  0  0
   -1.0923   59.4988   77.2629 H   0  0  0  0  0  0  0  0  0  0  0  0
   -0.4008   60.9229   79.8668 H   0  0  0  0  0  0  0  0  0  0  0  0
   -1.0975   59.2748   79.6809 H   0  0  0  0  0  0  0  0  0  0  0  0
    1.0103   58.5661   78.4089 H   0  0  0  0  0  0  0  0  0  0  0  0
    0.9385   59.4826   81.2180 H   0  0  0  0  0  0  0  0  0  0  0  0
    1.2495   57.8665   80.4981 H   0  0  0  0  0  0  0  0  0  0  0  0
    2.5424   59.1135   80.4981 H   0  0  0  0  0  0  0  0  0  0  0  0
   -2.6623   61.1137   79.0646 H   0  0  0  0  0  0  0  0  0  0  0  0
   -2.4490   61.9980   77.5156 H   0  0  0  0  0  0  0  0  0  0  0  0
   -3.1413   60.3405   77.5156 H   0  0  0  0  0  0  0  0  0  0  0  0
    2.2735   60.6609   71.4166 H   0  0  0  0  0  0  0  0  0  0  0  0
    1.0864   62.4675   70.7609 H   0  0  0  0  0  0  0  0  0  0  0  0
    1.2252   63.2729   72.3891 H   0  0  0  0  0  0  0  0  0  0  0  0
    2.4942   64.2102   70.2500 H   0  0  0  0  0  0  0  0  0  0  0  0
    3.2163   64.2323   71.9223 H   0  0  0  0  0  0  0  0  0  0  0  0
    5.3375   62.6086   72.2106 H   0  0  0  0  0  0  0  0  0  0  0  0
    5.6003   60.1123   72.3728 H   0  0  0  0  0  0  0  0  0  0  0  0
    4.6464   59.9785   70.8566 H   0  0  0  0  0  0  0  0  0  0  0  0
    6.2149   60.8540   70.8566 H   0  0  0  0  0  0  0  0  0  0  0  0
    5.5075   64.1180   71.1242 H   0  0  0  0  0  0  0  0  0  0  0  0
    4.4724   61.2432   69.1433 H   0  0  0  0  0  0  0  0  0  0  0  0
    2.7045   61.7151   69.3987 H   0  0  0  0  0  0  0  0  0  0  0  0
    3.7566   63.9661   68.2689 H   0  0  0  0  0  0  0  0  0  0  0  0
    4.6455   62.6627   67.4100 H   0  0  0  0  0  0  0  0  0  0  0  0
    2.8492   62.6755   67.4100 H   0  0  0  0  0  0  0  0  0  0  0  0
    1.1314   64.9994   75.1506 H   0  0  0  0  0  0  0  0  0  0  0  0
    3.6773   60.6894   77.2511 H   0  0  0  0  0  0  0  0  0  0  0  0
    3.3781   62.3582   80.9118 H   0  0  0  0  0  0  0  0  0  0  0  0
    3.8884   63.2467   79.4364 H   0  0  0  0  0  0  0  0  0  0  0  0
    2.3545   62.3119   79.4364 H   0  0  0  0  0  0  0  0  0  0  0  0
    4.3123   60.4469   80.1911 H   0  0  0  0  0  0  0  0  0  0  0  0
    5.0783   61.4606   78.8759 H   0  0  0  0  0  0  0  0  0  0  0  0
    2.4223   58.4194   76.6721 H   0  0  0  0  0  0  0  0  0  0  0  0
    5.4474   57.8147   76.5596 H   0  0  0  0  0  0  0  0  0  0  0  0
    4.3682   56.9751   75.3947 H   0  0  0  0  0  0  0  0  0  0  0  0
    4.4678   58.7686   75.3947 H   0  0  0  0  0  0  0  0  0  0  0  0
    3.0865   55.9002   76.4737 H   0  0  0  0  0  0  0  0  0  0  0  0
    1.0156   57.0869   78.2573 H   0  0  0  0  0  0  0  0  0  0  0  0
    0.9104   54.9283   79.1180 H   0  0  0  0  0  0  0  0  0  0  0  0
   -0.0931   54.6824   77.6485 H   0  0  0  0  0  0  0  0  0  0  0  0
    1.6349   54.1917   77.6485 H   0  0  0  0  0  0  0  0  0  0  0  0
    0.4904   57.7020   76.1479 H   0  0  0  0  0  0  0  0  0  0  0  0
   -2.4364   55.7714   75.0070 H   0  0  0  0  0  0  0  0  0  0  0  0
   -1.7118   56.8906   73.1702 H   0  0  0  0  0  0  0  0  0  0  0  0
   -0.6779   58.0242   74.1289 H   0  0  0  0  0  0  0  0  0  0  0  0
   -0.0915   55.0855   73.5423 H   0  0  0  0  0  0  0  0  0  0  0  0
    0.7195   56.5340   72.8103 H   0  0  0  0  0  0  0  0  0  0  0  0
    2.0403   56.9059   74.7092 H   0  0  0  0  0  0  0  0  0  0  0  0
    2.1013   54.5121   75.9865 H   0  0  0  0  0  0  0  0  0  0  0  0
    1.3333   54.0419   74.4322 H   0  0  0  0  0  0  0  0  0  0  0  0
    2.9290   54.8667   74.4322 H   0  0  0  0  0  0  0  0  0  0  0  0
   -1.8280   58.4929   76.1959 H   0  0  0  0  0  0  0  0  0  0  0  0
   -3.8332   57.5922   74.3478 H   0  0  0  0  0  0  0  0  0  0  0  0
   -4.5313   58.2090   75.9324 H   0  0  0  0  0  0  0  0  0  0  0  0
   -3.4180   60.3100   75.6716 H   0  0  0  0  0  0  0  0  0  0  0  0
   -2.5826   59.7426   74.1860 H   0  0  0  0  0  0  0  0  0  0  0  0
   -4.3656   59.9611   74.1860 H   0  0  0  0  0  0  0  0  0  0  0  0
    3.1486   56.2674   79.3167 H   0  0  0  0  0  0  0  0  0  0  0  0
  2  1  1  0
  3  2  1  6
  4  3  1  0
  5  4  2  0
  6  5  1  0
  7  6  1  0
  7  8  1  1
  8  3  1  0
  9  7  1  0
 10  9  1  0
 11 10  1  0
 12 11  1  0
 12  7  1  0
 11 13  1  1
 14  3  1  0
 15 14  1  0
 16 15  1  0
 16  1  1  0
 17 16  1  0
 18 14  1  0
 19 11  1  0
 20 19  1  0
 21 20  1  0
 22 21  1  0
 23 22  1  0
 24 23  1  0
 24 19  1  0
 25 23  1  0
 22 26  1  6
 27 22  1  0
 28 27  1  0
 29  6  1  0
 30  1  1  0
 32 30  1  0
 32 31  1  0
 33 30  1  0
 34 33  2  0
 35 33  1  0
 36 35  1  0
 37 35  1  0
 38 37  1  0
 39 38  1  0
 40 38  1  0
 41 40  1  0
 42 41  1  0
 43 42  1  0
 44 43  1  0
 45 44  1  0
 45 40  1  0
 46 45  1  0
 47 42  1  0
 48 47  1  0
 49 48  2  0
 50 48  1  0
 51 47  1  0
 52 51  1  0
 53 37  1  0
  1 54  1  1
  4 55  1  0
  5 56  1  0
  6 57  1  6
  9 58  1  0
  9 59  1  0
 10 60  1  0
 10 61  1  0
 13 62  1  0
 13 63  1  0
 13 64  1  0
 14 65  1  6
 15 66  1  0
 15 67  1  0
 16 68  1  6
 17 69  1  0
 17 70  1  0
 17 71  1  0
 18 72  1  0
 18 73  1  0
 18 74  1  0
 19 75  1  6
 20 76  1  0
 20 77  1  0
 21 78  1  0
 21 79  1  0
 23 80  1  1
 25 81  1  0
 25 82  1  0
 25 83  1  0
 26 84  1  0
 27 85  1  0
 27 86  1  0
 28 87  1  0
 28 88  1  0
 28 89  1  0
 29 90  1  0
 30 91  1  6
 31 92  1  0
 31 93  1  0
 31 94  1  0
 32 95  1  0
 32 96  1  0
 35 97  1  6
 36 98  1  0
 36 99  1  0
 36100  1  0
 37101  1  6
 38102  1  1
 39103  1  0
 39104  1  0
 39105  1  0
 40106  1  6
 42107  1  6
 43108  1  0
 43109  1  0
 44110  1  0
 44111  1  0
 45112  1  6
 46113  1  0
 46114  1  0
 46115  1  0
 47116  1  1
 51117  1  0
 51118  1  0
 52119  1  0
 52120  1  0
 52121  1  0
 53122  1  0
M  CHG  1  50  -1
M  END
>  <score>  (6) 
-7.772

$$$$
=
     RDKit          3D

122126  0  0  0  0  0  0  0  0999 V2000
    0.5540   57.0070   75.4850 C   0  0  1  0  0  0  0  0  0  0  0  0
   -0.7720   57.5570   75.6070 O   0  0  0  0  0  0  0  0  0  0  0  0
   -1.8110   56.6430   75.9840 C   0  0  1  0  0  0  0  0  0  0  0  0
   -1.6470   56.3310   77.4590 C   0  0  0  0  0  0  0  0  0  0  0  0
   -2.4290   56.8440   78.4200 C   0  0  0  0  0  0  0  0  0  0  0  0
   -3.5570   57.7670   78.0890 C   0  0  2  0  0  0  0  0  0  0  0  0
   -3.5360   58.2430   76.6080 C   0  0  1  0  0  0  0  0  0  0  0  0
   -3.1100   57.2120   75.7230 O   0  0  0  0  0  0  0  0  0  0  0  0
   -4.9380   58.6600   76.1740 C   0  0  0  0  0  0  0  0  0  0  0  0
   -4.6490   59.5590   74.9950 C   0  0  0  0  0  0  0  0  0  0  0  0
   -3.3290   60.2430   75.3820 C   0  0  1  0  0  0  0  0  0  0  0  0
   -2.7580   59.4430   76.4600 O   0  0  0  0  0  0  0  0  0  0  0  0
   -2.3480   60.2190   74.2080 C   0  0  0  0  0  0  0  0  0  0  0  0
   -1.8070   55.3870   75.0630 C   0  0  1  0  0  0  0  0  0  0  0  0
   -0.4130   54.8060   74.8340 C   0  0  0  0  0  0  0  0  0  0  0  0
    0.5480   55.9180   74.3840 C   0  0  2  0  0  0  0  0  0  0  0  0
    1.8960   55.3010   74.0290 C   0  0  0  0  0  0  0  0  0  0  0  0
   -2.7790   54.2910   75.5200 C   0  0  0  0  0  0  0  0  0  0  0  0
   -3.5260   61.6830   75.9430 C   0  0  1  0  0  0  0  0  0  0  0  0
   -4.8500   62.3340   75.5210 C   0  0  0  0  0  0  0  0  0  0  0  0
   -5.3730   63.3320   76.5500 C   0  0  0  0  0  0  0  0  0  0  0  0
   -4.2460   64.0370   77.3270 C   0  0  2  0  0  0  0  0  0  0  0  0
   -3.3970   62.9220   78.0210 C   0  0  1  0  0  0  0  0  0  0  0  0
   -3.4600   61.6350   77.3780 O   0  0  0  0  0  0  0  0  0  0  0  0
   -1.9330   63.2380   78.3030 C   0  0  0  0  0  0  0  0  0  0  0  0
   -4.8850   64.8210   78.3570 O   0  0  0  0  0  0  0  0  0  0  0  0
   -3.4860   65.0140   76.3940 C   0  0  0  0  0  0  0  0  0  0  0  0
   -3.9820   66.4580   76.3870 C   0  0  0  0  0  0  0  0  0  0  0  0
   -3.5020   58.8640   79.0010 O   0  0  0  0  0  0  0  0  0  0  0  0
    1.5850   58.1810   75.4050 C   0  0  1  0  0  0  0  0  0  0  0  0
    4.1040   57.9380   75.8760 C   0  0  0  0  0  0  0  0  0  0  0  0
    2.9590   57.6610   74.9100 C   0  0  0  0  0  0  0  0  0  0  0  0
    1.0910   59.3890   74.5810 C   0  0  0  0  0  0  0  0  0  0  0  0
    1.0130   59.3240   73.3510 O   0  0  0  0  0  0  0  0  0  0  0  0
    0.8140   60.7200   75.3110 C   0  0  1  0  0  0  0  0  0  0  0  0
    0.8340   60.4320   76.8260 C   0  0  0  0  0  0  0  0  0  0  0  0
    1.7370   61.9250   75.0040 C   0  0  2  0  0  0  0  0  0  0  0  0
    1.1330   62.9990   74.0550 C   0  0  2  0  0  0  0  0  0  0  0  0
   -0.3660   63.2340   74.3140 C   0  0  0  0  0  0  0  0  0  0  0  0
    1.3180   62.6400   72.5490 C   0  0  2  0  0  0  0  0  0  0  0  0
    2.6820   62.7870   72.1760 O   0  0  0  0  0  0  0  0  0  0  0  0
    3.0730   62.0260   71.0200 C   0  0  2  0  0  0  0  0  0  0  0  0
    1.9190   62.0060   69.9970 C   0  0  0  0  0  0  0  0  0  0  0  0
    1.0680   63.2710   70.1020 C   0  0  0  0  0  0  0  0  0  0  0  0
    0.4900   63.4610   71.5270 C   0  0  2  0  0  0  0  0  0  0  0  0
    0.3960   64.9610   71.8140 C   0  0  0  0  0  0  0  0  0  0  0  0
    3.5670   60.6360   71.4510 C   0  0  2  0  0  0  0  0  0  0  0  0
    5.0740   60.8490   71.7230 C   0  0  0  0  0  0  0  0  0  0  0  0
    5.8310   60.6650   70.7220 O   0  0  0  0  0  0  0  0  0  0  0  0
    5.3840   61.2080   72.8950 O   0  0  0  0  0  1  0  0  0  0  0  0
    3.4030   59.5170   70.4060 C   0  0  0  0  0  0  0  0  0  0  0  0
    3.3970   58.1040   70.9740 C   0  0  0  0  0  0  0  0  0  0  0  0
    3.0210   61.4860   74.5810 O   0  0  0  0  0  0  0  0  0  0  0  0
    0.8995   56.4483   76.3673 H   0  0  0  0  0  0  0  0  0  0  0  0
   -0.8407   55.6449   77.7575 H   0  0  0  0  0  0  0  0  0  0  0  0
   -2.2369   56.5808   79.4706 H   0  0  0  0  0  0  0  0  0  0  0  0
   -4.5096   57.2276   78.1972 H   0  0  0  0  0  0  0  0  0  0  0  0
   -5.5390   57.7888   75.8742 H   0  0  0  0  0  0  0  0  0  0  0  0
   -5.5216   59.1465   76.9694 H   0  0  0  0  0  0  0  0  0  0  0  0
   -4.5320   58.9720   74.0721 H   0  0  0  0  0  0  0  0  0  0  0  0
   -5.4595   60.2746   74.7925 H   0  0  0  0  0  0  0  0  0  0  0  0
   -1.3174   60.1938   74.5918 H   0  0  0  0  0  0  0  0  0  0  0  0
   -2.5326   59.3251   73.5941 H   0  0  0  0  0  0  0  0  0  0  0  0
   -2.4887   61.1209   73.5941 H   0  0  0  0  0  0  0  0  0  0  0  0
   -2.1691   55.7642   74.0952 H   0  0  0  0  0  0  0  0  0  0  0  0
   -0.0443   54.3618   75.7704 H   0  0  0  0  0  0  0  0  0  0  0  0
   -0.4657   54.0337   74.0525 H   0  0  0  0  0  0  0  0  0  0  0  0
    0.2332   56.4269   73.4610 H   0  0  0  0  0  0  0  0  0  0  0  0
    2.4398   55.0521   74.9522 H   0  0  0  0  0  0  0  0  0  0  0  0
    1.7366   54.3862   73.4393 H   0  0  0  0  0  0  0  0  0  0  0  0
    2.4842   56.0195   73.4393 H   0  0  0  0  0  0  0  0  0  0  0  0
   -2.8063   54.2602   76.6192 H   0  0  0  0  0  0  0  0  0  0  0  0
   -3.7857   54.5095   75.1342 H   0  0  0  0  0  0  0  0  0  0  0  0
   -2.4418   53.3177   75.1342 H   0  0  0  0  0  0  0  0  0  0  0  0
   -2.7224   62.3039   75.5202 H   0  0  0  0  0  0  0  0  0  0  0  0
   -4.6945   62.8609   74.5680 H   0  0  0  0  0  0  0  0  0  0  0  0
   -5.5978   61.5327   75.4272 H   0  0  0  0  0  0  0  0  0  0  0  0
   -5.9696   64.0945   76.0278 H   0  0  0  0  0  0  0  0  0  0  0  0
   -5.9751   62.7698   77.2790 H   0  0  0  0  0  0  0  0  0  0  0  0
   -3.9120   62.8853   78.9923 H   0  0  0  0  0  0  0  0  0  0  0  0
   -1.7684   63.2735   79.3900 H   0  0  0  0  0  0  0  0  0  0  0  0
   -1.2975   62.4563   77.8613 H   0  0  0  0  0  0  0  0  0  0  0  0
   -1.6765   64.2122   77.8613 H   0  0  0  0  0  0  0  0  0  0  0  0
   -4.6103   64.4840   79.2464 H   0  0  0  0  0  0  0  0  0  0  0  0
   -2.4306   65.0225   76.7041 H   0  0  0  0  0  0  0  0  0  0  0  0
   -3.6534   64.6389   75.3736 H   0  0  0  0  0  0  0  0  0  0  0  0
   -4.1027   66.8093   77.4224 H   0  0  0  0  0  0  0  0  0  0  0  0
   -3.2509   67.0943   75.8668 H   0  0  0  0  0  0  0  0  0  0  0  0
   -4.9498   66.5108   75.8668 H   0  0  0  0  0  0  0  0  0  0  0  0
   -3.5191   58.5221   79.9299 H   0  0  0  0  0  0  0  0  0  0  0  0
    1.7033   58.5677   76.4280 H   0  0  0  0  0  0  0  0  0  0  0  0
    3.7404   57.8500   76.9104 H   0  0  0  0  0  0  0  0  0  0  0  0
    4.9104   57.2090   75.7075 H   0  0  0  0  0  0  0  0  0  0  0  0
    4.4880   58.9549   75.7075 H   0  0  0  0  0  0  0  0  0  0  0  0
    2.8856   56.5735   74.7615 H   0  0  0  0  0  0  0  0  0  0  0  0
    3.1885   58.1979   73.9778 H   0  0  0  0  0  0  0  0  0  0  0  0
   -0.1606   61.0552   74.9266 H   0  0  0  0  0  0  0  0  0  0  0  0
    0.7682   61.3798   77.3803 H   0  0  0  0  0  0  0  0  0  0  0  0
   -0.0219   59.7932   77.0891 H   0  0  0  0  0  0  0  0  0  0  0  0
    1.7700   59.9176   77.0891 H   0  0  0  0  0  0  0  0  0  0  0  0
    1.8461   62.4589   75.9596 H   0  0  0  0  0  0  0  0  0  0  0  0
    1.6923   63.9192   74.2795 H   0  0  0  0  0  0  0  0  0  0  0  0
   -0.5507   63.2630   75.3980 H   0  0  0  0  0  0  0  0  0  0  0  0
   -0.6702   64.1908   73.8645 H   0  0  0  0  0  0  0  0  0  0  0  0
   -0.9484   62.4162   73.8645 H   0  0  0  0  0  0  0  0  0  0  0  0
    0.9501   61.6047   72.4958 H   0  0  0  0  0  0  0  0  0  0  0  0
    3.9237   62.4988   70.5074 H   0  0  0  0  0  0  0  0  0  0  0  0
    2.3393   61.9391   68.9827 H   0  0  0  0  0  0  0  0  0  0  0  0
    1.2795   61.1364   70.2090 H   0  0  0  0  0  0  0  0  0  0  0  0
    1.6924   64.1415   69.8524 H   0  0  0  0  0  0  0  0  0  0  0  0
    0.2250   63.1742   69.4020 H   0  0  0  0  0  0  0  0  0  0  0  0
   -0.5322   63.0643   71.6152 H   0  0  0  0  0  0  0  0  0  0  0  0
    0.3856   65.1263   72.9015 H   0  0  0  0  0  0  0  0  0  0  0  0
    1.2638   65.4737   71.3734 H   0  0  0  0  0  0  0  0  0  0  0  0
   -0.5290   65.3614   71.3734 H   0  0  0  0  0  0  0  0  0  0  0  0
    2.9691   60.2910   72.3074 H   0  0  0  0  0  0  0  0  0  0  0  0
    2.4503   59.6778   69.8801 H   0  0  0  0  0  0  0  0  0  0  0  0
    4.2810   59.5802   69.7464 H   0  0  0  0  0  0  0  0  0  0  0  0
    3.3972   58.1506   72.0730 H   0  0  0  0  0  0  0  0  0  0  0  0
    2.4966   57.5742   70.6296 H   0  0  0  0  0  0  0  0  0  0  0  0
    4.2929   57.5666   70.6296 H   0  0  0  0  0  0  0  0  0  0  0  0
    3.5819   61.2942   75.3739 H   0  0  0  0  0  0  0  0  0  0  0  0
  2  1  1  0
  3  2  1  6
  4  3  1  0
  5  4  2  0
  6  5  1  0
  7  6  1  0
  7  8  1  6
  8  3  1  0
  9  7  1  0
 10  9  1  0
 11 10  1  0
 12 11  1  0
 12  7  1  0
 11 13  1  6
 14  3  1  0
 15 14  1  0
 16 15  1  0
 16  1  1  0
 17 16  1  0
 18 14  1  0
 19 11  1  0
 20 19  1  0
 21 20  1  0
 22 21  1  0
 23 22  1  0
 24 23  1  0
 24 19  1  0
 25 23  1  0
 22 26  1  1
 27 22  1  0
 28 27  1  0
 29  6  1  0
 30  1  1  0
 32 30  1  0
 32 31  1  0
 33 30  1  0
 34 33  2  0
 35 33  1  0
 36 35  1  0
 37 35  1  0
 38 37  1  0
 39 38  1  0
 40 38  1  0
 41 40  1  0
 42 41  1  0
 43 42  1  0
 44 43  1  0
 45 44  1  0
 45 40  1  0
 46 45  1  0
 47 42  1  0
 48 47  1  0
 49 48  2  0
 50 48  1  0
 51 47  1  0
 52 51  1  0
 53 37  1  0
  1 54  1  1
  4 55  1  0
  5 56  1  0
  6 57  1  1
  9 58  1  0
  9 59  1  0
 10 60  1  0
 10 61  1  0
 13 62  1  0
 13 63  1  0
 13 64  1  0
 14 65  1  6
 15 66  1  0
 15 67  1  0
 16 68  1  6
 17 69  1  0
 17 70  1  0
 17 71  1  0
 18 72  1  0
 18 73  1  0
 18 74  1  0
 19 75  1  6
 20 76  1  0
 20 77  1  0
 21 78  1  0
 21 79  1  0
 23 80  1  1
 25 81  1  0
 25 82  1  0
 25 83  1  0
 26 84  1  0
 27 85  1  0
 27 86  1  0
 28 87  1  0
 28 88  1  0
 28 89  1  0
 29 90  1  0
 30 91  1  1
 31 92  1  0
 31 93  1  0
 31 94  1  0
 32 95  1  0
 32 96  1  0
 35 97  1  6
 36 98  1  0
 36 99  1  0
 36100  1  0
 37101  1  1
 38102  1  6
 39103  1  0
 39104  1  0
 39105  1  0
 40106  1  1
 42107  1  6
 43108  1  0
 43109  1  0
 44110  1  0
 44111  1  0
 45112  1  6
 46113  1  0
 46114  1  0
 46115  1  0
 47116  1  1
 51117  1  0
 51118  1  0
 52119  1  0
 52120  1  0
 52121  1  0
 53122  1  0
M  CHG  1  50  -1
M  END
>  <score>  (7) 
-7.756

$$$$
=
     RDKit          3D

122126  0  0  0  0  0  0  0  0999 V2000
   -2.0640   58.3870   75.9800 C   0  0  1  0  0  0  0  0  0  0  0  0
   -0.6710   58.4720   75.6230 O   0  0  0  0  0  0  0  0  0  0  0  0
    0.1400   57.3310   75.9310 C   0  0  1  0  0  0  0  0  0  0  0  0
   -0.1980   56.2360   74.9370 C   0  0  0  0  0  0  0  0  0  0  0  0
    0.5900   55.8980   73.9060 C   0  0  0  0  0  0  0  0  0  0  0  0
    1.8970   56.5850   73.6730 C   0  0  2  0  0  0  0  0  0  0  0  0
    2.0850   57.8480   74.5630 C   0  0  1  0  0  0  0  0  0  0  0  0
    1.5400   57.6670   75.8660 O   0  0  0  0  0  0  0  0  0  0  0  0
    3.5710   58.1490   74.7330 C   0  0  0  0  0  0  0  0  0  0  0  0
    3.5550   59.6120   75.1130 C   0  0  0  0  0  0  0  0  0  0  0  0
    2.3650   60.1730   74.3200 C   0  0  1  0  0  0  0  0  0  0  0  0
    1.5670   59.0210   73.9150 O   0  0  0  0  0  0  0  0  0  0  0  0
    1.4940   61.0570   75.2150 C   0  0  0  0  0  0  0  0  0  0  0  0
   -0.0330   56.9130   77.4210 C   0  0  1  0  0  0  0  0  0  0  0  0
   -1.4900   56.8810   77.8780 C   0  0  0  0  0  0  0  0  0  0  0  0
   -2.1810   58.2050   77.5130 C   0  0  2  0  0  0  0  0  0  0  0  0
   -3.5900   58.2120   78.0940 C   0  0  0  0  0  0  0  0  0  0  0  0
    0.6710   55.5960   77.7730 C   0  0  0  0  0  0  0  0  0  0  0  0
    2.7900   60.9100   73.0150 C   0  0  1  0  0  0  0  0  0  0  0  0
    1.8350   62.0380   72.6040 C   0  0  0  0  0  0  0  0  0  0  0  0
    2.5360   63.1600   71.8440 C   0  0  0  0  0  0  0  0  0  0  0  0
    3.7310   62.6630   71.0100 C   0  0  2  0  0  0  0  0  0  0  0  0
    4.7220   61.9620   71.9960 C   0  0  1  0  0  0  0  0  0  0  0  0
    4.1100   61.4520   73.1970 O   0  0  0  0  0  0  0  0  0  0  0  0
    5.6170   60.8700   71.4230 C   0  0  0  0  0  0  0  0  0  0  0  0
    4.3810   63.8380   70.4820 O   0  0  0  0  0  0  0  0  0  0  0  0
    3.2290   61.8210   69.8090 C   0  0  0  0  0  0  0  0  0  0  0  0
    3.5180   62.3920   68.4230 C   0  0  0  0  0  0  0  0  0  0  0  0
    1.9820   56.8960   72.2830 O   0  0  0  0  0  0  0  0  0  0  0  0
   -2.8400   59.5510   75.2780 C   0  0  1  0  0  0  0  0  0  0  0  0
   -1.8400   61.5360   73.9810 C   0  0  0  0  0  0  0  0  0  0  0  0
   -2.0700   60.0310   74.0200 C   0  0  0  0  0  0  0  0  0  0  0  0
   -4.3130   59.2160   74.9640 C   0  0  0  0  0  0  0  0  0  0  0  0
   -4.7330   58.0600   75.0630 O   0  0  0  0  0  0  0  0  0  0  0  0
   -5.2220   60.3310   74.4040 C   0  0  1  0  0  0  0  0  0  0  0  0
   -6.6220   59.7250   74.1860 C   0  0  0  0  0  0  0  0  0  0  0  0
   -5.3500   61.6440   75.2170 C   0  0  2  0  0  0  0  0  0  0  0  0
   -4.9160   61.5450   76.7080 C   0  0  2  0  0  0  0  0  0  0  0  0
   -6.0500   61.0380   77.6160 C   0  0  0  0  0  0  0  0  0  0  0  0
   -4.4080   62.9060   77.2750 C   0  0  2  0  0  0  0  0  0  0  0  0
   -4.1330   63.8070   76.2110 O   0  0  0  0  0  0  0  0  0  0  0  0
   -4.1590   65.1970   76.5790 C   0  0  2  0  0  0  0  0  0  0  0  0
   -3.5790   65.3680   77.9970 C   0  0  0  0  0  0  0  0  0  0  0  0
   -2.5420   64.2880   78.3030 C   0  0  0  0  0  0  0  0  0  0  0  0
   -3.1340   62.8630   78.1570 C   0  0  2  0  0  0  0  0  0  0  0  0
   -2.0260   61.9290   77.6650 C   0  0  0  0  0  0  0  0  0  0  0  0
   -5.5790   65.7600   76.3990 C   0  0  2  0  0  0  0  0  0  0  0  0
   -5.5560   66.3670   74.9770 C   0  0  0  0  0  0  0  0  0  0  0  0
   -4.4030   66.6620   74.5390 O   0  0  0  0  0  0  0  0  0  0  0  0
   -6.6750   66.4760   74.3990 O   0  0  0  0  0  1  0  0  0  0  0  0
   -5.9940   66.8520   77.4010 C   0  0  0  0  0  0  0  0  0  0  0  0
   -7.4400   66.7730   77.8740 C   0  0  0  0  0  0  0  0  0  0  0  0
   -6.6430   62.2110   75.0630 O   0  0  0  0  0  0  0  0  0  0  0  0
   -2.5797   57.4940   75.5970 H   0  0  0  0  0  0  0  0  0  0  0  0
   -1.1428   55.6884   75.0694 H   0  0  0  0  0  0  0  0  0  0  0  0
    0.2689   55.1009   73.2194 H   0  0  0  0  0  0  0  0  0  0  0  0
    2.7168   55.9119   73.9642 H   0  0  0  0  0  0  0  0  0  0  0  0
    4.0145   57.5341   75.5300 H   0  0  0  0  0  0  0  0  0  0  0  0
    4.1726   57.9301   73.8385 H   0  0  0  0  0  0  0  0  0  0  0  0
    3.4004   59.7359   76.1950 H   0  0  0  0  0  0  0  0  0  0  0  0
    4.5016   60.1247   74.8869 H   0  0  0  0  0  0  0  0  0  0  0  0
    1.7110   60.8367   76.2706 H   0  0  0  0  0  0  0  0  0  0  0  0
    1.7122   62.1153   75.0089 H   0  0  0  0  0  0  0  0  0  0  0  0
    0.4326   60.8545   75.0089 H   0  0  0  0  0  0  0  0  0  0  0  0
    0.4704   57.7139   77.9824 H   0  0  0  0  0  0  0  0  0  0  0  0
   -2.0101   56.0488   77.3811 H   0  0  0  0  0  0  0  0  0  0  0  0
   -1.5249   56.7424   78.9687 H   0  0  0  0  0  0  0  0  0  0  0  0
   -1.7027   59.0900   77.9580 H   0  0  0  0  0  0  0  0  0  0  0  0
   -3.5336   58.2117   79.1926 H   0  0  0  0  0  0  0  0  0  0  0  0
   -4.1222   59.1128   77.7544 H   0  0  0  0  0  0  0  0  0  0  0  0
   -4.1311   57.3165   77.7544 H   0  0  0  0  0  0  0  0  0  0  0  0
    0.7271   55.4911   78.8665 H   0  0  0  0  0  0  0  0  0  0  0  0
    0.1032   54.7529   77.3524 H   0  0  0  0  0  0  0  0  0  0  0  0
    1.6874   55.5997   77.3524 H   0  0  0  0  0  0  0  0  0  0  0  0
    2.7641   60.1665   72.2048 H   0  0  0  0  0  0  0  0  0  0  0  0
    1.0489   61.6158   71.9608 H   0  0  0  0  0  0  0  0  0  0  0  0
    1.4196   62.4719   73.5255 H   0  0  0  0  0  0  0  0  0  0  0  0
    1.8089   63.6337   71.1680 H   0  0  0  0  0  0  0  0  0  0  0  0
    2.9255   63.8699   72.5885 H   0  0  0  0  0  0  0  0  0  0  0  0
    5.3701   62.8183   72.2343 H   0  0  0  0  0  0  0  0  0  0  0  0
    6.0796   60.3056   72.2461 H   0  0  0  0  0  0  0  0  0  0  0  0
    5.0141   60.1887   70.8046 H   0  0  0  0  0  0  0  0  0  0  0  0
    6.4034   61.3274   70.8046 H   0  0  0  0  0  0  0  0  0  0  0  0
    4.6950   64.4056   71.2299 H   0  0  0  0  0  0  0  0  0  0  0  0
    3.7039   60.8307   69.8706 H   0  0  0  0  0  0  0  0  0  0  0  0
    2.1328   61.8014   69.8986 H   0  0  0  0  0  0  0  0  0  0  0  0
    4.0126   63.3692   68.5249 H   0  0  0  0  0  0  0  0  0  0  0  0
    4.1762   61.7035   67.8727 H   0  0  0  0  0  0  0  0  0  0  0  0
    2.5735   62.5147   67.8727 H   0  0  0  0  0  0  0  0  0  0  0  0
    2.2414   57.8450   72.1724 H   0  0  0  0  0  0  0  0  0  0  0  0
   -2.8878   60.3805   75.9989 H   0  0  0  0  0  0  0  0  0  0  0  0
   -1.7806   61.9246   75.0084 H   0  0  0  0  0  0  0  0  0  0  0  0
   -0.8988   61.7495   73.4532 H   0  0  0  0  0  0  0  0  0  0  0  0
   -2.6745   62.0209   73.4532 H   0  0  0  0  0  0  0  0  0  0  0  0
   -1.0913   59.5293   73.9993 H   0  0  0  0  0  0  0  0  0  0  0  0
   -2.6897   59.7775   73.1472 H   0  0  0  0  0  0  0  0  0  0  0  0
   -4.7242   60.6629   73.4809 H   0  0  0  0  0  0  0  0  0  0  0  0
   -7.0897   59.5225   75.1608 H   0  0  0  0  0  0  0  0  0  0  0  0
   -7.2446   60.4342   73.6208 H   0  0  0  0  0  0  0  0  0  0  0  0
   -6.5310   58.7857   73.6208 H   0  0  0  0  0  0  0  0  0  0  0  0
   -4.6117   62.3323   74.7797 H   0  0  0  0  0  0  0  0  0  0  0  0
   -4.0899   60.8186   76.7134 H   0  0  0  0  0  0  0  0  0  0  0  0
   -5.7615   61.1670   78.6696 H   0  0  0  0  0  0  0  0  0  0  0  0
   -6.9662   61.6122   77.4138 H   0  0  0  0  0  0  0  0  0  0  0  0
   -6.2330   59.9724   77.4138 H   0  0  0  0  0  0  0  0  0  0  0  0
   -5.2348   63.2255   77.9264 H   0  0  0  0  0  0  0  0  0  0  0  0
   -3.5160   65.7922   75.9140 H   0  0  0  0  0  0  0  0  0  0  0  0
   -3.1014   66.3560   78.0727 H   0  0  0  0  0  0  0  0  0  0  0  0
   -4.4006   65.2782   78.7229 H   0  0  0  0  0  0  0  0  0  0  0  0
   -1.6987   64.3963   77.6051 H   0  0  0  0  0  0  0  0  0  0  0  0
   -2.2125   64.4160   79.3446 H   0  0  0  0  0  0  0  0  0  0  0  0
   -3.4774   62.4559   79.1195 H   0  0  0  0  0  0  0  0  0  0  0  0
   -1.5056   61.4903   78.5292 H   0  0  0  0  0  0  0  0  0  0  0  0
   -2.4669   61.1260   77.0561 H   0  0  0  0  0  0  0  0  0  0  0  0
   -1.3091   62.4994   77.0561 H   0  0  0  0  0  0  0  0  0  0  0  0
   -6.3101   64.9550   76.5647 H   0  0  0  0  0  0  0  0  0  0  0  0
   -5.3413   66.7724   78.2828 H   0  0  0  0  0  0  0  0  0  0  0  0
   -5.8950   67.8107   76.8708 H   0  0  0  0  0  0  0  0  0  0  0  0
   -7.4665   66.7716   78.9737 H   0  0  0  0  0  0  0  0  0  0  0  0
   -7.9978   67.6420   77.4949 H   0  0  0  0  0  0  0  0  0  0  0  0
   -7.8998   65.8484   77.4949 H   0  0  0  0  0  0  0  0  0  0  0  0
   -7.0361   62.3834   75.9551 H   0  0  0  0  0  0  0  0  0  0  0  0
  2  1  1  0
  3  2  1  6
  4  3  1  0
  5  4  2  0
  6  5  1  0
  7  6  1  0
  7  8  1  1
  8  3  1  0
  9  7  1  0
 10  9  1  0
 11 10  1  0
 12 11  1  0
 12  7  1  0
 11 13  1  1
 14  3  1  0
 15 14  1  0
 16 15  1  0
 16  1  1  0
 17 16  1  0
 18 14  1  0
 19 11  1  0
 20 19  1  0
 21 20  1  0
 22 21  1  0
 23 22  1  0
 24 23  1  0
 24 19  1  0
 25 23  1  0
 22 26  1  6
 27 22  1  0
 28 27  1  0
 29  6  1  0
 30  1  1  0
 32 30  1  0
 32 31  1  0
 33 30  1  0
 34 33  2  0
 35 33  1  0
 36 35  1  0
 37 35  1  0
 38 37  1  0
 39 38  1  0
 40 38  1  0
 41 40  1  0
 42 41  1  0
 43 42  1  0
 44 43  1  0
 45 44  1  0
 45 40  1  0
 46 45  1  0
 47 42  1  0
 48 47  1  0
 49 48  2  0
 50 48  1  0
 51 47  1  0
 52 51  1  0
 53 37  1  0
  1 54  1  6
  4 55  1  0
  5 56  1  0
  6 57  1  1
  9 58  1  0
  9 59  1  0
 10 60  1  0
 10 61  1  0
 13 62  1  0
 13 63  1  0
 13 64  1  0
 14 65  1  1
 15 66  1  0
 15 67  1  0
 16 68  1  1
 17 69  1  0
 17 70  1  0
 17 71  1  0
 18 72  1  0
 18 73  1  0
 18 74  1  0
 19 75  1  6
 20 76  1  0
 20 77  1  0
 21 78  1  0
 21 79  1  0
 23 80  1  1
 25 81  1  0
 25 82  1  0
 25 83  1  0
 26 84  1  0
 27 85  1  0
 27 86  1  0
 28 87  1  0
 28 88  1  0
 28 89  1  0
 29 90  1  0
 30 91  1  1
 31 92  1  0
 31 93  1  0
 31 94  1  0
 32 95  1  0
 32 96  1  0
 35 97  1  6
 36 98  1  0
 36 99  1  0
 36100  1  0
 37101  1  6
 38102  1  6
 39103  1  0
 39104  1  0
 39105  1  0
 40106  1  1
 42107  1  6
 43108  1  0
 43109  1  0
 44110  1  0
 44111  1  0
 45112  1  1
 46113  1  0
 46114  1  0
 46115  1  0
 47116  1  6
 51117  1  0
 51118  1  0
 52119  1  0
 52120  1  0
 52121  1  0
 53122  1  0
M  CHG  1  50  -1
M  END
>  <score>  (8) 
-7.722

$$$$
=
     RDKit          3D

122126  0  0  0  0  0  0  0  0999 V2000
   -1.4080   57.5390   75.0940 C   0  0  1  0  0  0  0  0  0  0  0  0
   -2.7340   57.7690   75.6080 O   0  0  0  0  0  0  0  0  0  0  0  0
   -3.1580   56.9230   76.6860 C   0  0  1  0  0  0  0  0  0  0  0  0
   -2.4360   57.3710   77.9420 C   0  0  0  0  0  0  0  0  0  0  0  0
   -3.0170   58.0780   78.9230 C   0  0  0  0  0  0  0  0  0  0  0  0
   -4.4590   58.4640   78.8480 C   0  0  2  0  0  0  0  0  0  0  0  0
   -5.0870   58.1960   77.4500 C   0  0  1  0  0  0  0  0  0  0  0  0
   -4.5860   56.9990   76.8630 O   0  0  0  0  0  0  0  0  0  0  0  0
   -6.5990   58.0370   77.5790 C   0  0  0  0  0  0  0  0  0  0  0  0
   -7.0680   58.3320   76.1730 C   0  0  0  0  0  0  0  0  0  0  0  0
   -6.0750   59.3950   75.6810 C   0  0  1  0  0  0  0  0  0  0  0  0
   -4.9310   59.3330   76.5850 O   0  0  0  0  0  0  0  0  0  0  0  0
   -5.5790   59.0550   74.2740 C   0  0  0  0  0  0  0  0  0  0  0  0
   -2.9450   55.4220   76.3310 C   0  0  1  0  0  0  0  0  0  0  0  0
   -1.5810   55.1330   75.7080 C   0  0  0  0  0  0  0  0  0  0  0  0
   -1.3260   56.0960   74.5380 C   0  0  2  0  0  0  0  0  0  0  0  0
   -0.0270   55.7070   73.8430 C   0  0  0  0  0  0  0  0  0  0  0  0
   -3.2150   54.4720   77.5050 C   0  0  0  0  0  0  0  0  0  0  0  0
   -6.6380   60.8460   75.7630 C   0  0  1  0  0  0  0  0  0  0  0  0
   -5.7380   61.8130   76.5420 C   0  0  0  0  0  0  0  0  0  0  0  0
   -5.8570   63.2540   76.0550 C   0  0  0  0  0  0  0  0  0  0  0  0
   -7.2580   63.5890   75.5120 C   0  0  2  0  0  0  0  0  0  0  0  0
   -7.5540   62.5870   74.3480 C   0  0  1  0  0  0  0  0  0  0  0  0
   -6.8260   61.3460   74.4280 O   0  0  0  0  0  0  0  0  0  0  0  0
   -9.0160   62.2590   74.0680 C   0  0  0  0  0  0  0  0  0  0  0  0
   -7.1760   64.9160   74.9510 O   0  0  0  0  0  0  0  0  0  0  0  0
   -8.2840   63.6310   76.6740 C   0  0  0  0  0  0  0  0  0  0  0  0
   -9.0980   64.9160   76.8040 C   0  0  0  0  0  0  0  0  0  0  0  0
   -4.5600   59.8370   79.2230 O   0  0  0  0  0  0  0  0  0  0  0  0
   -1.0030   58.7440   74.1810 C   0  0  1  0  0  0  0  0  0  0  0  0
   -1.8690   61.0020   73.2990 C   0  0  0  0  0  0  0  0  0  0  0  0
   -2.0010   59.9170   74.3610 C   0  0  0  0  0  0  0  0  0  0  0  0
    0.4620   59.1960   74.3600 C   0  0  0  0  0  0  0  0  0  0  0  0
    1.2800   59.0600   73.4460 O   0  0  0  0  0  0  0  0  0  0  0  0
    0.9150   59.7060   75.7440 C   0  0  1  0  0  0  0  0  0  0  0  0
    1.5450   58.5160   76.4950 C   0  0  0  0  0  0  0  0  0  0  0  0
    1.8810   60.9160   75.7940 C   0  0  2  0  0  0  0  0  0  0  0  0
    1.2200   62.3030   75.5520 C   0  0  2  0  0  0  0  0  0  0  0  0
   -0.1840   62.4000   76.1740 C   0  0  0  0  0  0  0  0  0  0  0  0
    1.1090   62.6580   74.0380 C   0  0  2  0  0  0  0  0  0  0  0  0
    2.3730   63.0780   73.5400 O   0  0  0  0  0  0  0  0  0  0  0  0
    2.5340   62.9390   72.1180 C   0  0  2  0  0  0  0  0  0  0  0  0
    1.2030   63.2630   71.4110 C   0  0  0  0  0  0  0  0  0  0  0  0
    0.3820   64.2700   72.2150 C   0  0  0  0  0  0  0  0  0  0  0  0
    0.0930   63.7630   73.6510 C   0  0  2  0  0  0  0  0  0  0  0  0
    0.0500   64.9710   74.5900 C   0  0  0  0  0  0  0  0  0  0  0  0
    3.1100   61.5520   71.7890 C   0  0  2  0  0  0  0  0  0  0  0  0
    4.6340   61.7330   71.9750 C   0  0  0  0  0  0  0  0  0  0  0  0
    5.1950   62.4770   71.1140 O   0  0  0  0  0  0  0  0  0  0  0  0
    5.1480   61.1490   72.9720 O   0  0  0  0  0  1  0  0  0  0  0  0
    2.8390   61.0390   70.3630 C   0  0  0  0  0  0  0  0  0  0  0  0
    3.3970   59.6550   70.0620 C   0  0  0  0  0  0  0  0  0  0  0  0
    3.0100   60.6980   74.9590 O   0  0  0  0  0  0  0  0  0  0  0  0
   -0.6153   57.5419   75.8566 H   0  0  0  0  0  0  0  0  0  0  0  0
   -1.3757   57.1009   78.0552 H   0  0  0  0  0  0  0  0  0  0  0  0
   -2.4218   58.3788   79.7978 H   0  0  0  0  0  0  0  0  0  0  0  0
   -5.0386   57.8355   79.5401 H   0  0  0  0  0  0  0  0  0  0  0  0
   -6.8687   57.0151   77.8840 H   0  0  0  0  0  0  0  0  0  0  0  0
   -7.0496   58.6884   78.3423 H   0  0  0  0  0  0  0  0  0  0  0  0
   -7.0216   57.4298   75.5454 H   0  0  0  0  0  0  0  0  0  0  0  0
   -8.1139   58.6702   76.1318 H   0  0  0  0  0  0  0  0  0  0  0  0
   -4.6736   58.4343   74.3444 H   0  0  0  0  0  0  0  0  0  0  0  0
   -6.3612   58.5023   73.7330 H   0  0  0  0  0  0  0  0  0  0  0  0
   -5.3456   59.9839   73.7330 H   0  0  0  0  0  0  0  0  0  0  0  0
   -3.7061   55.2180   75.5635 H   0  0  0  0  0  0  0  0  0  0  0  0
   -0.7971   55.2668   76.4680 H   0  0  0  0  0  0  0  0  0  0  0  0
   -1.5649   54.0981   75.3355 H   0  0  0  0  0  0  0  0  0  0  0  0
   -2.0841   56.0364   73.7432 H   0  0  0  0  0  0  0  0  0  0  0  0
    0.7387   55.4777   74.5987 H   0  0  0  0  0  0  0  0  0  0  0  0
   -0.1986   54.8208   73.2143 H   0  0  0  0  0  0  0  0  0  0  0  0
    0.3167   56.5416   73.2143 H   0  0  0  0  0  0  0  0  0  0  0  0
   -3.0626   55.0083   78.4532 H   0  0  0  0  0  0  0  0  0  0  0  0
   -4.2519   54.1088   77.4518 H   0  0  0  0  0  0  0  0  0  0  0  0
   -2.5241   53.6177   77.4518 H   0  0  0  0  0  0  0  0  0  0  0  0
   -7.5888   60.7910   76.3134 H   0  0  0  0  0  0  0  0  0  0  0  0
   -6.0200   61.7768   77.6046 H   0  0  0  0  0  0  0  0  0  0  0  0
   -4.6966   61.4954   76.3850 H   0  0  0  0  0  0  0  0  0  0  0  0
   -5.6360   63.9280   76.8957 H   0  0  0  0  0  0  0  0  0  0  0  0
   -5.1430   63.3831   75.2283 H   0  0  0  0  0  0  0  0  0  0  0  0
   -7.1899   63.1865   73.5006 H   0  0  0  0  0  0  0  0  0  0  0  0
   -9.5536   62.1384   75.0201 H   0  0  0  0  0  0  0  0  0  0  0  0
   -9.4714   63.0773   73.4909 H   0  0  0  0  0  0  0  0  0  0  0  0
   -9.0781   61.3246   73.4909 H   0  0  0  0  0  0  0  0  0  0  0  0
   -7.1349   65.5816   75.6827 H   0  0  0  0  0  0  0  0  0  0  0  0
   -8.9893   62.7993   76.5300 H   0  0  0  0  0  0  0  0  0  0  0  0
   -7.6890   63.5631   77.5967 H   0  0  0  0  0  0  0  0  0  0  0  0
   -9.2462   65.1500   77.8685 H   0  0  0  0  0  0  0  0  0  0  0  0
   -8.5584   65.7426   76.3186 H   0  0  0  0  0  0  0  0  0  0  0  0
  -10.0759   64.7813   76.3186 H   0  0  0  0  0  0  0  0  0  0  0  0
   -4.5654   59.9099   80.2103 H   0  0  0  0  0  0  0  0  0  0  0  0
   -1.0625   58.3879   73.1419 H   0  0  0  0  0  0  0  0  0  0  0  0
   -1.7500   61.9805   73.7873 H   0  0  0  0  0  0  0  0  0  0  0  0
   -0.9893   60.7959   72.6716 H   0  0  0  0  0  0  0  0  0  0  0  0
   -2.7725   61.0128   72.6716 H   0  0  0  0  0  0  0  0  0  0  0  0
   -3.0232   59.5128   74.3193 H   0  0  0  0  0  0  0  0  0  0  0  0
   -1.7744   60.3861   75.3298 H   0  0  0  0  0  0  0  0  0  0  0  0
    0.0017   60.1033   76.2109 H   0  0  0  0  0  0  0  0  0  0  0  0
    1.4585   58.6795   77.5793 H   0  0  0  0  0  0  0  0  0  0  0  0
    1.0192   57.5895   76.2207 H   0  0  0  0  0  0  0  0  0  0  0  0
    2.6068   58.4300   76.2207 H   0  0  0  0  0  0  0  0  0  0  0  0
    2.2230   60.9736   76.8379 H   0  0  0  0  0  0  0  0  0  0  0  0
    1.8896   63.0232   76.0449 H   0  0  0  0  0  0  0  0  0  0  0  0
   -0.1003   62.3942   77.2708 H   0  0  0  0  0  0  0  0  0  0  0  0
   -0.6658   63.3336   75.8479 H   0  0  0  0  0  0  0  0  0  0  0  0
   -0.7896   61.5416   75.8479 H   0  0  0  0  0  0  0  0  0  0  0  0
    0.7433   61.7212   73.5924 H   0  0  0  0  0  0  0  0  0  0  0  0
    3.2658   63.6642   71.7326 H   0  0  0  0  0  0  0  0  0  0  0  0
    1.4174   63.6857   70.4184 H   0  0  0  0  0  0  0  0  0  0  0  0
    0.6218   62.3336   71.3190 H   0  0  0  0  0  0  0  0  0  0  0  0
    0.9405   65.2156   72.2772 H   0  0  0  0  0  0  0  0  0  0  0  0
   -0.5810   64.4119   71.7027 H   0  0  0  0  0  0  0  0  0  0  0  0
   -0.8901   63.2755   73.7275 H   0  0  0  0  0  0  0  0  0  0  0  0
    0.0623   64.6246   75.6339 H   0  0  0  0  0  0  0  0  0  0  0  0
    0.9260   65.6102   74.4054 H   0  0  0  0  0  0  0  0  0  0  0  0
   -0.8692   65.5463   74.4054 H   0  0  0  0  0  0  0  0  0  0  0  0
    2.6338   60.8013   72.4368 H   0  0  0  0  0  0  0  0  0  0  0  0
    1.7498   61.0083   70.2123 H   0  0  0  0  0  0  0  0  0  0  0  0
    3.3538   61.7334   69.6827 H   0  0  0  0  0  0  0  0  0  0  0  0
    3.6081   59.1315   71.0061 H   0  0  0  0  0  0  0  0  0  0  0  0
    2.6601   59.0809   69.4812 H   0  0  0  0  0  0  0  0  0  0  0  0
    4.3261   59.7526   69.4812 H   0  0  0  0  0  0  0  0  0  0  0  0
    3.8107   60.5434   75.5203 H   0  0  0  0  0  0  0  0  0  0  0  0
  2  1  1  0
  3  2  1  6
  4  3  1  0
  5  4  2  0
  6  5  1  0
  7  6  1  0
  7  8  1  6
  8  3  1  0
  9  7  1  0
 10  9  1  0
 11 10  1  0
 12 11  1  0
 12  7  1  0
 11 13  1  6
 14  3  1  0
 15 14  1  0
 16 15  1  0
 16  1  1  0
 17 16  1  0
 18 14  1  0
 19 11  1  0
 20 19  1  0
 21 20  1  0
 22 21  1  0
 23 22  1  0
 24 23  1  0
 24 19  1  0
 25 23  1  0
 22 26  1  6
 27 22  1  0
 28 27  1  0
 29  6  1  0
 30  1  1  0
 32 30  1  0
 32 31  1  0
 33 30  1  0
 34 33  2  0
 35 33  1  0
 36 35  1  0
 37 35  1  0
 38 37  1  0
 39 38  1  0
 40 38  1  0
 41 40  1  0
 42 41  1  0
 43 42  1  0
 44 43  1  0
 45 44  1  0
 45 40  1  0
 46 45  1  0
 47 42  1  0
 48 47  1  0
 49 48  2  0
 50 48  1  0
 51 47  1  0
 52 51  1  0
 53 37  1  0
  1 54  1  1
  4 55  1  0
  5 56  1  0
  6 57  1  1
  9 58  1  0
  9 59  1  0
 10 60  1  0
 10 61  1  0
 13 62  1  0
 13 63  1  0
 13 64  1  0
 14 65  1  6
 15 66  1  0
 15 67  1  0
 16 68  1  6
 17 69  1  0
 17 70  1  0
 17 71  1  0
 18 72  1  0
 18 73  1  0
 18 74  1  0
 19 75  1  1
 20 76  1  0
 20 77  1  0
 21 78  1  0
 21 79  1  0
 23 80  1  6
 25 81  1  0
 25 82  1  0
 25 83  1  0
 26 84  1  0
 27 85  1  0
 27 86  1  0
 28 87  1  0
 28 88  1  0
 28 89  1  0
 29 90  1  0
 30 91  1  6
 31 92  1  0
 31 93  1  0
 31 94  1  0
 32 95  1  0
 32 96  1  0
 35 97  1  1
 36 98  1  0
 36 99  1  0
 36100  1  0
 37101  1  1
 38102  1  1
 39103  1  0
 39104  1  0
 39105  1  0
 40106  1  6
 42107  1  6
 43108  1  0
 43109  1  0
 44110  1  0
 44111  1  0
 45112  1  6
 46113  1  0
 46114  1  0
 46115  1  0
 47116  1  1
 51117  1  0
 51118  1  0
 52119  1  0
 52120  1  0
 52121  1  0
 53122  1  0
M  CHG  1  50  -1
M  END
>  <score>  (9) 
-7.612

$$$$
