=
     RDKit          3D

 72 74  0  0  0  0  0  0  0  0999 V2000
    4.0760   61.9120   71.2770 C   0  0  1  0  0  0  0  0  0  0  0  0
    4.9060   63.0250   70.5940 C   0  0  0  0  0  0  0  0  0  0  0  0
    3.9410   64.2050   70.3660 C   0  0  0  0  0  0  0  0  0  0  0  0
    2.6610   63.8060   71.1100 C   0  0  2  0  0  0  0  0  0  0  0  0
    2.6020   62.2670   70.9180 C   0  0  1  0  0  0  0  0  0  0  0  0
    2.2190   61.8590   69.4780 C   0  0  0  0  0  0  0  0  0  0  0  0
    1.5670   61.6950   71.9090 C   0  0  0  0  0  0  0  0  0  0  0  0
    0.1890   62.3610   71.7480 C   0  0  0  0  0  0  0  0  0  0  0  0
    0.2500   63.8970   71.7630 C   0  0  0  0  0  0  0  0  0  0  0  0
    1.3180   64.4560   70.8360 C   0  0  0  0  0  0  0  0  0  0  0  0
    1.1430   65.4130   69.9040 C   0  0  0  0  0  0  0  0  0  0  0  0
   -0.0960   66.0870   69.5660 C   0  0  0  0  0  0  0  0  0  0  0  0
   -0.2520   67.0830   68.6700 C   0  0  0  0  0  0  0  0  0  0  0  0
   -1.6260   67.6270   68.3370 C   0  0  0  0  0  0  0  0  0  0  0  0
   -1.9020   67.5710   66.8280 C   0  0  2  0  0  0  0  0  0  0  0  0
   -0.7950   68.2730   66.0400 C   0  0  0  0  0  0  0  0  0  0  0  0
    0.5820   67.7130   66.3970 C   0  0  0  0  0  0  0  0  0  0  0  0
    0.8080   67.7210   67.8890 C   0  0  0  0  0  0  0  0  0  0  0  0
    1.8570   68.3360   68.4570 C   0  0  0  0  0  0  0  0  0  0  0  0
   -3.1430   68.2080   66.5290 O   0  0  0  0  0  0  0  0  0  0  0  0
    4.5490   60.4490   71.0570 C   0  0  2  0  0  0  0  0  0  0  0  0
    4.2260   60.0330   69.6090 C   0  0  0  0  0  0  0  0  0  0  0  0
    3.9550   59.4070   72.0330 C   0  0  0  0  0  0  0  0  0  0  0  0
    3.2420   58.2560   71.3130 C   0  0  0  0  0  0  0  0  0  0  0  0
    2.1980   57.5430   72.1850 C   0  0  0  0  0  0  0  0  0  0  0  0
    2.2180   57.3040   74.7260 C   0  0  0  0  0  0  0  0  0  0  0  0
    1.8810   58.2060   73.5390 C   0  0  0  0  0  0  0  0  0  0  0  0
    0.4000   58.5940   73.5880 C   0  0  0  0  0  0  0  0  0  0  0  0
    4.2169   61.9050   72.3679 H   0  0  0  0  0  0  0  0  0  0  0  0
    5.7379   63.3333   71.2442 H   0  0  0  0  0  0  0  0  0  0  0  0
    5.3412   62.6751   69.6463 H   0  0  0  0  0  0  0  0  0  0  0  0
    4.3583   65.1340   70.7816 H   0  0  0  0  0  0  0  0  0  0  0  0
    3.7606   64.3965   69.2979 H   0  0  0  0  0  0  0  0  0  0  0  0
    2.7756   64.1979   72.1314 H   0  0  0  0  0  0  0  0  0  0  0  0
    1.4665   61.0574   69.5119 H   0  0  0  0  0  0  0  0  0  0  0  0
    1.8041   62.7293   68.9484 H   0  0  0  0  0  0  0  0  0  0  0  0
    3.1137   61.4999   68.9484 H   0  0  0  0  0  0  0  0  0  0  0  0
    1.4628   60.6146   71.7302 H   0  0  0  0  0  0  0  0  0  0  0  0
    1.9253   61.8955   72.9295 H   0  0  0  0  0  0  0  0  0  0  0  0
   -0.2449   62.0382   70.7901 H   0  0  0  0  0  0  0  0  0  0  0  0
   -0.4247   62.0511   72.6067 H   0  0  0  0  0  0  0  0  0  0  0  0
   -0.7281   64.2902   71.4489 H   0  0  0  0  0  0  0  0  0  0  0  0
    0.5063   64.2071   72.7868 H   0  0  0  0  0  0  0  0  0  0  0  0
    2.0364   65.7159   69.3382 H   0  0  0  0  0  0  0  0  0  0  0  0
   -1.0007   65.7517   70.0943 H   0  0  0  0  0  0  0  0  0  0  0  0
   -2.3846   67.0277   68.8617 H   0  0  0  0  0  0  0  0  0  0  0  0
   -1.6680   68.6786   68.6570 H   0  0  0  0  0  0  0  0  0  0  0  0
   -1.9399   66.5108   66.5374 H   0  0  0  0  0  0  0  0  0  0  0  0
   -0.9732   68.1272   64.9644 H   0  0  0  0  0  0  0  0  0  0  0  0
   -0.8117   69.3427   66.2959 H   0  0  0  0  0  0  0  0  0  0  0  0
    0.6544   66.6788   66.0293 H   0  0  0  0  0  0  0  0  0  0  0  0
    1.3473   68.3481   65.9268 H   0  0  0  0  0  0  0  0  0  0  0  0
    1.9810   68.3155   69.5498 H   0  0  0  0  0  0  0  0  0  0  0  0
    2.5928   68.8606   67.8297 H   0  0  0  0  0  0  0  0  0  0  0  0
   -3.6041   68.4447   67.3725 H   0  0  0  0  0  0  0  0  0  0  0  0
    5.6305   60.4513   71.2580 H   0  0  0  0  0  0  0  0  0  0  0  0
    3.5514   59.1642   69.6189 H   0  0  0  0  0  0  0  0  0  0  0  0
    3.7386   60.8697   69.0872 H   0  0  0  0  0  0  0  0  0  0  0  0
    5.1574   59.7681   69.0872 H   0  0  0  0  0  0  0  0  0  0  0  0
    4.7714   58.9893   72.6405 H   0  0  0  0  0  0  0  0  0  0  0  0
    3.2072   59.9231   72.6531 H   0  0  0  0  0  0  0  0  0  0  0  0
    2.7357   58.6612   70.4245 H   0  0  0  0  0  0  0  0  0  0  0  0
    4.0091   57.5120   71.0522 H   0  0  0  0  0  0  0  0  0  0  0  0
    1.2616   57.4870   71.6105 H   0  0  0  0  0  0  0  0  0  0  0  0
    2.6357   56.5640   72.4300 H   0  0  0  0  0  0  0  0  0  0  0  0
    2.0170   57.8421   75.6641 H   0  0  0  0  0  0  0  0  0  0  0  0
    1.5984   56.3960   74.6841 H   0  0  0  0  0  0  0  0  0  0  0  0
    3.2811   57.0247   74.6841 H   0  0  0  0  0  0  0  0  0  0  0  0
    2.5128   59.1027   73.6212 H   0  0  0  0  0  0  0  0  0  0  0  0
    0.0776   58.6785   74.6363 H   0  0  0  0  0  0  0  0  0  0  0  0
    0.2571   59.5599   73.0814 H   0  0  0  0  0  0  0  0  0  0  0  0
   -0.1982   57.8223   73.0814 H   0  0  0  0  0  0  0  0  0  0  0  0
  2  1  1  0
  3  2  1  0
  4  3  1  0
  5  4  1  0
  5  1  1  0
  5  6  1  6
  7  5  1  0
  8  7  1  0
  9  8  1  0
 10  9  1  0
 10  4  1  0
 11 10  2  0
 12 11  1  0
 13 12  2  0
 14 13  1  0
 15 14  1  0
 16 15  1  0
 17 16  1  0
 18 17  1  0
 18 13  1  0
 19 18  2  0
 20 15  1  0
 21  1  1  0
 22 21  1  0
 23 21  1  0
 24 23  1  0
 25 24  1  0
 27 26  1  0
 27 25  1  0
 28 27  1  0
  1 29  1  1
  2 30  1  0
  2 31  1  0
  3 32  1  0
  3 33  1  0
  4 34  1  1
  6 35  1  0
  6 36  1  0
  6 37  1  0
  7 38  1  0
  7 39  1  0
  8 40  1  0
  8 41  1  0
  9 42  1  0
  9 43  1  0
 11 44  1  0
 12 45  1  0
 14 46  1  0
 14 47  1  0
 15 48  1  6
 16 49  1  0
 16 50  1  0
 17 51  1  0
 17 52  1  0
 19 53  1  0
 19 54  1  0
 20 55  1  0
 21 56  1  6
 22 57  1  0
 22 58  1  0
 22 59  1  0
 23 60  1  0
 23 61  1  0
 24 62  1  0
 24 63  1  0
 25 64  1  0
 25 65  1  0
 26 66  1  0
 26 67  1  0
 26 68  1  0
 27 69  1  0
 28 70  1  0
 28 71  1  0
 28 72  1  0
M  END
>  <score>  (1) 
-9.58

$$$$
=
     RDKit          3D

 72 74  0  0  0  0  0  0  0  0999 V2000
    0.4990   62.7010   73.1840 C   0  0  1  0  0  0  0  0  0  0  0  0
   -0.9420   62.1850   72.9650 C   0  0  0  0  0  0  0  0  0  0  0  0
   -0.9160   60.6790   73.2900 C   0  0  0  0  0  0  0  0  0  0  0  0
    0.4770   60.4350   73.8810 C   0  0  2  0  0  0  0  0  0  0  0  0
    1.3770   61.4180   73.0850 C   0  0  1  0  0  0  0  0  0  0  0  0
    1.6160   60.9640   71.6270 C   0  0  0  0  0  0  0  0  0  0  0  0
    2.7310   61.5340   73.8170 C   0  0  0  0  0  0  0  0  0  0  0  0
    3.3950   60.1620   74.0190 C   0  0  0  0  0  0  0  0  0  0  0  0
    2.4580   59.1200   74.6520 C   0  0  0  0  0  0  0  0  0  0  0  0
    1.0990   59.0550   73.9720 C   0  0  0  0  0  0  0  0  0  0  0  0
    0.4860   57.9440   73.5200 C   0  0  0  0  0  0  0  0  0  0  0  0
    0.9990   56.5880   73.5550 C   0  0  0  0  0  0  0  0  0  0  0  0
    0.5760   55.5880   74.3550 C   0  0  0  0  0  0  0  0  0  0  0  0
    1.1320   54.1850   74.2140 C   0  0  0  0  0  0  0  0  0  0  0  0
    0.0120   53.1550   74.0080 C   0  0  2  0  0  0  0  0  0  0  0  0
   -1.0370   53.2540   75.1160 C   0  0  0  0  0  0  0  0  0  0  0  0
   -1.5780   54.6770   75.2450 C   0  0  0  0  0  0  0  0  0  0  0  0
   -0.4580   55.6800   75.3850 C   0  0  0  0  0  0  0  0  0  0  0  0
   -0.3780   56.5320   76.4190 C   0  0  0  0  0  0  0  0  0  0  0  0
    0.5510   51.8340   74.0110 O   0  0  0  0  0  0  0  0  0  0  0  0
    0.9310   63.9470   72.3630 C   0  0  2  0  0  0  0  0  0  0  0  0
    0.0140   65.1290   72.7310 C   0  0  0  0  0  0  0  0  0  0  0  0
    0.9320   63.7600   70.8270 C   0  0  0  0  0  0  0  0  0  0  0  0
    2.1840   64.3410   70.1590 C   0  0  0  0  0  0  0  0  0  0  0  0
    3.4930   63.9090   70.8340 C   0  0  0  0  0  0  0  0  0  0  0  0
    3.6980   62.3400   68.8300 C   0  0  0  0  0  0  0  0  0  0  0  0
    4.4250   63.0130   69.9940 C   0  0  0  0  0  0  0  0  0  0  0  0
    5.0610   61.9480   70.8920 C   0  0  0  0  0  0  0  0  0  0  0  0
    0.6201   63.1774   74.1680 H   0  0  0  0  0  0  0  0  0  0  0  0
   -1.6398   62.7075   73.6359 H   0  0  0  0  0  0  0  0  0  0  0  0
   -1.2790   62.3657   71.9336 H   0  0  0  0  0  0  0  0  0  0  0  0
   -1.6978   60.4260   74.0212 H   0  0  0  0  0  0  0  0  0  0  0  0
   -1.1075   60.0574   72.4029 H   0  0  0  0  0  0  0  0  0  0  0  0
    0.3721   60.5871   74.9654 H   0  0  0  0  0  0  0  0  0  0  0  0
    2.1284   59.9906   71.6254 H   0  0  0  0  0  0  0  0  0  0  0  0
    0.6501   60.8707   71.1090 H   0  0  0  0  0  0  0  0  0  0  0  0
    2.2396   61.7075   71.1090 H   0  0  0  0  0  0  0  0  0  0  0  0
    3.4032   62.1699   73.2221 H   0  0  0  0  0  0  0  0  0  0  0  0
    2.5449   61.9712   74.8091 H   0  0  0  0  0  0  0  0  0  0  0  0
    3.7243   59.7859   73.0392 H   0  0  0  0  0  0  0  0  0  0  0  0
    4.2370   60.3065   74.7119 H   0  0  0  0  0  0  0  0  0  0  0  0
    2.9338   58.1308   74.5805 H   0  0  0  0  0  0  0  0  0  0  0  0
    2.2900   59.4191   75.6971 H   0  0  0  0  0  0  0  0  0  0  0  0
   -0.5114   58.0799   73.0764 H   0  0  0  0  0  0  0  0  0  0  0  0
    1.8164   56.3509   72.8581 H   0  0  0  0  0  0  0  0  0  0  0  0
    1.8098   54.1543   73.3482 H   0  0  0  0  0  0  0  0  0  0  0  0
    1.6687   53.9313   75.1400 H   0  0  0  0  0  0  0  0  0  0  0  0
   -0.4621   53.3693   73.0388 H   0  0  0  0  0  0  0  0  0  0  0  0
   -1.8697   52.5742   74.8825 H   0  0  0  0  0  0  0  0  0  0  0  0
   -0.5621   52.9762   76.0685 H   0  0  0  0  0  0  0  0  0  0  0  0
   -2.1658   54.9195   74.3474 H   0  0  0  0  0  0  0  0  0  0  0  0
   -2.2051   54.7292   76.1472 H   0  0  0  0  0  0  0  0  0  0  0  0
    0.4564   57.2462   76.4799 H   0  0  0  0  0  0  0  0  0  0  0  0
   -1.1468   56.5161   77.2055 H   0  0  0  0  0  0  0  0  0  0  0  0
    0.6749   51.5303   74.9451 H   0  0  0  0  0  0  0  0  0  0  0  0
    1.9805   64.1343   72.6340 H   0  0  0  0  0  0  0  0  0  0  0  0
   -0.0524   65.2146   73.8257 H   0  0  0  0  0  0  0  0  0  0  0  0
    0.4295   66.0587   72.3151 H   0  0  0  0  0  0  0  0  0  0  0  0
   -0.9898   64.9577   72.3151 H   0  0  0  0  0  0  0  0  0  0  0  0
    0.8817   62.6841   70.6038 H   0  0  0  0  0  0  0  0  0  0  0  0
    0.0617   64.3007   70.4268 H   0  0  0  0  0  0  0  0  0  0  0  0
    2.2060   64.0079   69.1109 H   0  0  0  0  0  0  0  0  0  0  0  0
    2.1199   65.4356   70.2470 H   0  0  0  0  0  0  0  0  0  0  0  0
    4.0509   64.8192   71.0992 H   0  0  0  0  0  0  0  0  0  0  0  0
    3.1927   63.2965   71.6969 H   0  0  0  0  0  0  0  0  0  0  0  0
    2.9440   61.6420   69.2230 H   0  0  0  0  0  0  0  0  0  0  0  0
    3.2032   63.1059   68.2147 H   0  0  0  0  0  0  0  0  0  0  0  0
    4.4235   61.7877   68.2147 H   0  0  0  0  0  0  0  0  0  0  0  0
    5.2018   63.6610   69.5620 H   0  0  0  0  0  0  0  0  0  0  0  0
    4.9015   62.2151   71.9471 H   0  0  0  0  0  0  0  0  0  0  0  0
    4.5981   60.9714   70.6870 H   0  0  0  0  0  0  0  0  0  0  0  0
    6.1403   61.8924   70.6870 H   0  0  0  0  0  0  0  0  0  0  0  0
  2  1  1  0
  3  2  1  0
  4  3  1  0
  5  4  1  0
  5  1  1  0
  5  6  1  6
  7  5  1  0
  8  7  1  0
  9  8  1  0
 10  9  1  0
 10  4  1  0
 11 10  2  0
 12 11  1  0
 13 12  2  0
 14 13  1  0
 15 14  1  0
 16 15  1  0
 17 16  1  0
 18 17  1  0
 18 13  1  0
 19 18  2  0
 20 15  1  0
 21  1  1  0
 22 21  1  0
 23 21  1  0
 24 23  1  0
 25 24  1  0
 27 26  1  0
 27 25  1  0
 28 27  1  0
  1 29  1  1
  2 30  1  0
  2 31  1  0
  3 32  1  0
  3 33  1  0
  4 34  1  1
  6 35  1  0
  6 36  1  0
  6 37  1  0
  7 38  1  0
  7 39  1  0
  8 40  1  0
  8 41  1  0
  9 42  1  0
  9 43  1  0
 11 44  1  0
 12 45  1  0
 14 46  1  0
 14 47  1  0
 15 48  1  6
 16 49  1  0
 16 50  1  0
 17 51  1  0
 17 52  1  0
 19 53  1  0
 19 54  1  0
 20 55  1  0
 21 56  1  1
 22 57  1  0
 22 58  1  0
 22 59  1  0
 23 60  1  0
 23 61  1  0
 24 62  1  0
 24 63  1  0
 25 64  1  0
 25 65  1  0
 26 66  1  0
 26 67  1  0
 26 68  1  0
 27 69  1  0
 28 70  1  0
 28 71  1  0
 28 72  1  0
M  END
>  <score>  (2) 
-9.025

$$$$
=
     RDKit          3D

 72 74  0  0  0  0  0  0  0  0999 V2000
    1.9280   62.9400   71.0030 C   0  0  1  0  0  0  0  0  0  0  0  0
    3.4630   63.1080   70.9120 C   0  0  0  0  0  0  0  0  0  0  0  0
    4.0760   61.8800   71.6130 C   0  0  0  0  0  0  0  0  0  0  0  0
    2.8820   60.9590   71.8900 C   0  0  2  0  0  0  0  0  0  0  0  0
    1.7280   61.9520   72.1910 C   0  0  1  0  0  0  0  0  0  0  0  0
    1.8720   62.6350   73.5700 C   0  0  0  0  0  0  0  0  0  0  0  0
    0.3960   61.1760   72.1360 C   0  0  0  0  0  0  0  0  0  0  0  0
    0.3940   59.9680   73.0880 C   0  0  0  0  0  0  0  0  0  0  0  0
    1.6240   59.0610   72.9210 C   0  0  0  0  0  0  0  0  0  0  0  0
    2.9330   59.8350   72.9070 C   0  0  0  0  0  0  0  0  0  0  0  0
    4.0200   59.5770   73.6600 C   0  0  0  0  0  0  0  0  0  0  0  0
    4.1630   58.5350   74.6590 C   0  0  0  0  0  0  0  0  0  0  0  0
    3.4420   58.4010   75.7910 C   0  0  0  0  0  0  0  0  0  0  0  0
    3.6270   57.2010   76.6980 C   0  0  0  0  0  0  0  0  0  0  0  0
    2.2970   56.4760   76.9480 C   0  0  2  0  0  0  0  0  0  0  0  0
    1.2330   57.4420   77.4740 C   0  0  0  0  0  0  0  0  0  0  0  0
    1.0700   58.6470   76.5480 C   0  0  0  0  0  0  0  0  0  0  0  0
    2.3970   59.3070   76.2660 C   0  0  0  0  0  0  0  0  0  0  0  0
    2.6230   60.6080   76.5110 C   0  0  0  0  0  0  0  0  0  0  0  0
    2.4760   55.4340   77.9060 O   0  0  0  0  0  0  0  0  0  0  0  0
    1.0770   64.2380   70.9800 C   0  0  2  0  0  0  0  0  0  0  0  0
   -0.2620   63.9440   70.2780 C   0  0  0  0  0  0  0  0  0  0  0  0
    1.7500   65.4590   70.3090 C   0  0  0  0  0  0  0  0  0  0  0  0
    0.7440   66.5440   69.9040 C   0  0  0  0  0  0  0  0  0  0  0  0
    1.1510   67.3100   68.6380 C   0  0  0  0  0  0  0  0  0  0  0  0
   -0.2300   69.0240   67.3430 C   0  0  0  0  0  0  0  0  0  0  0  0
    0.0370   67.5400   67.5980 C   0  0  0  0  0  0  0  0  0  0  0  0
   -1.2510   66.8560   68.0630 C   0  0  0  0  0  0  0  0  0  0  0  0
    1.5039   62.5227   70.0778 H   0  0  0  0  0  0  0  0  0  0  0  0
    3.7804   63.1433   69.8594 H   0  0  0  0  0  0  0  0  0  0  0  0
    3.7911   64.0442   71.3872 H   0  0  0  0  0  0  0  0  0  0  0  0
    4.8065   61.3829   70.9578 H   0  0  0  0  0  0  0  0  0  0  0  0
    4.6173   62.1502   72.5317 H   0  0  0  0  0  0  0  0  0  0  0  0
    2.7929   60.3123   71.0046 H   0  0  0  0  0  0  0  0  0  0  0  0
    1.7153   61.8916   74.3655 H   0  0  0  0  0  0  0  0  0  0  0  0
    2.8804   63.0644   73.6630 H   0  0  0  0  0  0  0  0  0  0  0  0
    1.1228   63.4350   73.6630 H   0  0  0  0  0  0  0  0  0  0  0  0
   -0.4221   61.8540   72.4206 H   0  0  0  0  0  0  0  0  0  0  0  0
    0.2630   60.8010   71.1105 H   0  0  0  0  0  0  0  0  0  0  0  0
    0.3717   60.3392   74.1232 H   0  0  0  0  0  0  0  0  0  0  0  0
   -0.4924   59.3633   72.8457 H   0  0  0  0  0  0  0  0  0  0  0  0
    1.6483   58.3455   73.7561 H   0  0  0  0  0  0  0  0  0  0  0  0
    1.5303   58.5536   71.9495 H   0  0  0  0  0  0  0  0  0  0  0  0
    4.8932   60.2265   73.5000 H   0  0  0  0  0  0  0  0  0  0  0  0
    4.9384   57.7769   74.4746 H   0  0  0  0  0  0  0  0  0  0  0  0
    4.3326   56.5014   76.2261 H   0  0  0  0  0  0  0  0  0  0  0  0
    4.0149   57.5548   77.6646 H   0  0  0  0  0  0  0  0  0  0  0  0
    1.9630   56.0557   75.9879 H   0  0  0  0  0  0  0  0  0  0  0  0
    0.2717   56.9121   77.5449 H   0  0  0  0  0  0  0  0  0  0  0  0
    1.5516   57.8045   78.4625 H   0  0  0  0  0  0  0  0  0  0  0  0
    0.6280   58.3115   75.5982 H   0  0  0  0  0  0  0  0  0  0  0  0
    0.4171   59.3798   77.0446 H   0  0  0  0  0  0  0  0  0  0  0  0
    3.6071   61.0466   76.2893 H   0  0  0  0  0  0  0  0  0  0  0  0
    1.8240   61.2350   76.9334 H   0  0  0  0  0  0  0  0  0  0  0  0
    2.4113   55.8107   78.8193 H   0  0  0  0  0  0  0  0  0  0  0  0
    0.9400   64.5245   72.0332 H   0  0  0  0  0  0  0  0  0  0  0  0
   -1.0425   63.7726   71.0340 H   0  0  0  0  0  0  0  0  0  0  0  0
   -0.5425   64.8019   69.6493 H   0  0  0  0  0  0  0  0  0  0  0  0
   -0.1573   63.0474   69.6493 H   0  0  0  0  0  0  0  0  0  0  0  0
    2.4717   65.8949   71.0155 H   0  0  0  0  0  0  0  0  0  0  0  0
    2.2413   65.1036   69.3912 H   0  0  0  0  0  0  0  0  0  0  0  0
   -0.2306   66.0665   69.7245 H   0  0  0  0  0  0  0  0  0  0  0  0
    0.7042   67.2734   70.7264 H   0  0  0  0  0  0  0  0  0  0  0  0
    1.5299   68.2950   68.9482 H   0  0  0  0  0  0  0  0  0  0  0  0
    1.8978   66.6769   68.1365 H   0  0  0  0  0  0  0  0  0  0  0  0
   -0.3246   69.5500   68.3044 H   0  0  0  0  0  0  0  0  0  0  0  0
    0.6052   69.4538   66.7706 H   0  0  0  0  0  0  0  0  0  0  0  0
   -1.1627   69.1357   66.7706 H   0  0  0  0  0  0  0  0  0  0  0  0
    0.3799   67.1023   66.6489 H   0  0  0  0  0  0  0  0  0  0  0  0
   -1.2813   66.8399   69.1625 H   0  0  0  0  0  0  0  0  0  0  0  0
   -2.1199   67.4115   67.6803 H   0  0  0  0  0  0  0  0  0  0  0  0
   -1.2774   65.8250   67.6803 H   0  0  0  0  0  0  0  0  0  0  0  0
  2  1  1  0
  3  2  1  0
  4  3  1  0
  5  4  1  0
  5  1  1  0
  5  6  1  1
  7  5  1  0
  8  7  1  0
  9  8  1  0
 10  9  1  0
 10  4  1  0
 11 10  2  0
 12 11  1  0
 13 12  2  0
 14 13  1  0
 15 14  1  0
 16 15  1  0
 17 16  1  0
 18 17  1  0
 18 13  1  0
 19 18  2  0
 20 15  1  0
 21  1  1  0
 22 21  1  0
 23 21  1  0
 24 23  1  0
 25 24  1  0
 27 26  1  0
 27 25  1  0
 28 27  1  0
  1 29  1  6
  2 30  1  0
  2 31  1  0
  3 32  1  0
  3 33  1  0
  4 34  1  6
  6 35  1  0
  6 36  1  0
  6 37  1  0
  7 38  1  0
  7 39  1  0
  8 40  1  0
  8 41  1  0
  9 42  1  0
  9 43  1  0
 11 44  1  0
 12 45  1  0
 14 46  1  0
 14 47  1  0
 15 48  1  6
 16 49  1  0
 16 50  1  0
 17 51  1  0
 17 52  1  0
 19 53  1  0
 19 54  1  0
 20 55  1  0
 21 56  1  1
 22 57  1  0
 22 58  1  0
 22 59  1  0
 23 60  1  0
 23 61  1  0
 24 62  1  0
 24 63  1  0
 25 64  1  0
 25 65  1  0
 26 66  1  0
 26 67  1  0
 26 68  1  0
 27 69  1  0
 28 70  1  0
 28 71  1  0
 28 72  1  0
M  END
>  <score>  (3) 
-8.971

$$$$
=
     RDKit          3D

 72 74  0  0  0  0  0  0  0  0999 V2000
    2.8120   59.9210   72.7560 C   0  0  1  0  0  0  0  0  0  0  0  0
    1.5700   60.6090   72.1420 C   0  0  0  0  0  0  0  0  0  0  0  0
    0.3600   60.1320   72.9680 C   0  0  0  0  0  0  0  0  0  0  0  0
    0.9730   59.3640   74.1440 C   0  0  2  0  0  0  0  0  0  0  0  0
    2.2260   58.6950   73.5180 C   0  0  1  0  0  0  0  0  0  0  0  0
    1.8690   57.5200   72.5800 C   0  0  0  0  0  0  0  0  0  0  0  0
    3.1270   58.1870   74.6630 C   0  0  0  0  0  0  0  0  0  0  0  0
    2.3700   57.2440   75.6130 C   0  0  0  0  0  0  0  0  0  0  0  0
    1.0360   57.8230   76.1110 C   0  0  0  0  0  0  0  0  0  0  0  0
    0.1790   58.3850   74.9880 C   0  0  0  0  0  0  0  0  0  0  0  0
   -1.1160   58.0990   74.7540 C   0  0  0  0  0  0  0  0  0  0  0  0
   -1.9550   57.1770   75.4950 C   0  0  0  0  0  0  0  0  0  0  0  0
   -1.7950   55.8410   75.5890 C   0  0  0  0  0  0  0  0  0  0  0  0
   -2.6880   55.0080   76.4870 C   0  0  0  0  0  0  0  0  0  0  0  0
   -1.8650   54.1730   77.4780 C   0  0  2  0  0  0  0  0  0  0  0  0
   -0.8220   53.3250   76.7500 C   0  0  0  0  0  0  0  0  0  0  0  0
    0.0620   54.1840   75.8460 C   0  0  0  0  0  0  0  0  0  0  0  0
   -0.7690   55.0410   74.9220 C   0  0  0  0  0  0  0  0  0  0  0  0
   -0.6290   55.0090   73.5880 C   0  0  0  0  0  0  0  0  0  0  0  0
   -2.7200   53.3040   78.2190 O   0  0  0  0  0  0  0  0  0  0  0  0
    4.0220   59.6840   71.8110 C   0  0  2  0  0  0  0  0  0  0  0  0
    5.0940   60.7530   72.0960 C   0  0  0  0  0  0  0  0  0  0  0  0
    3.6910   59.6810   70.3000 C   0  0  0  0  0  0  0  0  0  0  0  0
    4.2860   60.8860   69.5590 C   0  0  0  0  0  0  0  0  0  0  0  0
    3.2400   61.9430   69.1750 C   0  0  0  0  0  0  0  0  0  0  0  0
    4.9120   63.5280   70.2760 C   0  0  0  0  0  0  0  0  0  0  0  0
    3.5230   63.3800   69.6530 C   0  0  0  0  0  0  0  0  0  0  0  0
    2.4550   63.8070   70.6640 C   0  0  0  0  0  0  0  0  0  0  0  0
    3.3492   60.5852   73.4489 H   0  0  0  0  0  0  0  0  0  0  0  0
    1.6688   61.7026   72.2075 H   0  0  0  0  0  0  0  0  0  0  0  0
    1.4549   60.3521   71.0786 H   0  0  0  0  0  0  0  0  0  0  0  0
   -0.2268   60.9899   73.3281 H   0  0  0  0  0  0  0  0  0  0  0  0
   -0.3290   59.5102   72.3776 H   0  0  0  0  0  0  0  0  0  0  0  0
    1.1234   60.1088   74.9394 H   0  0  0  0  0  0  0  0  0  0  0  0
    1.6013   56.6389   73.1816 H   0  0  0  0  0  0  0  0  0  0  0  0
    1.0164   57.8035   71.9453 H   0  0  0  0  0  0  0  0  0  0  0  0
    2.7351   57.2813   71.9453 H   0  0  0  0  0  0  0  0  0  0  0  0
    3.9809   57.6453   74.2300 H   0  0  0  0  0  0  0  0  0  0  0  0
    3.4636   59.0582   75.2441 H   0  0  0  0  0  0  0  0  0  0  0  0
    2.1651   56.3034   75.0808 H   0  0  0  0  0  0  0  0  0  0  0  0
    3.0080   57.0910   76.4959 H   0  0  0  0  0  0  0  0  0  0  0  0
    0.4732   57.0240   76.6158 H   0  0  0  0  0  0  0  0  0  0  0  0
    1.2707   58.6527   76.7940 H   0  0  0  0  0  0  0  0  0  0  0  0
   -1.5886   58.6214   73.9092 H   0  0  0  0  0  0  0  0  0  0  0  0
   -2.8089   57.6115   76.0355 H   0  0  0  0  0  0  0  0  0  0  0  0
   -3.3538   55.6782   77.0505 H   0  0  0  0  0  0  0  0  0  0  0  0
   -3.2693   54.3206   75.8549 H   0  0  0  0  0  0  0  0  0  0  0  0
   -1.3543   54.8717   78.1569 H   0  0  0  0  0  0  0  0  0  0  0  0
   -0.1889   52.8195   77.4941 H   0  0  0  0  0  0  0  0  0  0  0  0
   -1.3489   52.5908   76.1229 H   0  0  0  0  0  0  0  0  0  0  0  0
    0.6890   54.8357   76.4722 H   0  0  0  0  0  0  0  0  0  0  0  0
    0.6858   53.5162   75.2336 H   0  0  0  0  0  0  0  0  0  0  0  0
   -1.2569   55.6518   72.9535 H   0  0  0  0  0  0  0  0  0  0  0  0
    0.1137   54.3400   73.1288 H   0  0  0  0  0  0  0  0  0  0  0  0
   -2.5778   53.4486   79.1880 H   0  0  0  0  0  0  0  0  0  0  0  0
    4.3795   58.6674   72.0319 H   0  0  0  0  0  0  0  0  0  0  0  0
    5.2133   60.8720   73.1830 H   0  0  0  0  0  0  0  0  0  0  0  0
    6.0513   60.4392   71.6542 H   0  0  0  0  0  0  0  0  0  0  0  0
    4.7829   61.7112   71.6542 H   0  0  0  0  0  0  0  0  0  0  0  0
    4.0939   58.7599   69.8537 H   0  0  0  0  0  0  0  0  0  0  0  0
    2.5970   59.7378   70.2003 H   0  0  0  0  0  0  0  0  0  0  0  0
    5.0372   61.3588   70.2088 H   0  0  0  0  0  0  0  0  0  0  0  0
    4.7243   60.5080   68.6236 H   0  0  0  0  0  0  0  0  0  0  0  0
    3.1680   61.9617   68.0775 H   0  0  0  0  0  0  0  0  0  0  0  0
    2.3125   61.6395   69.6826 H   0  0  0  0  0  0  0  0  0  0  0  0
    4.8249   63.5187   71.3725 H   0  0  0  0  0  0  0  0  0  0  0  0
    5.5502   62.6928   69.9518 H   0  0  0  0  0  0  0  0  0  0  0  0
    5.3599   64.4789   69.9518 H   0  0  0  0  0  0  0  0  0  0  0  0
    3.4914   64.0316   68.7673 H   0  0  0  0  0  0  0  0  0  0  0  0
    2.8350   63.6551   71.6850 H   0  0  0  0  0  0  0  0  0  0  0  0
    2.2148   64.8703   70.5166 H   0  0  0  0  0  0  0  0  0  0  0  0
    1.5480   63.2024   70.5166 H   0  0  0  0  0  0  0  0  0  0  0  0
  2  1  1  0
  3  2  1  0
  4  3  1  0
  5  4  1  0
  5  1  1  0
  5  6  1  6
  7  5  1  0
  8  7  1  0
  9  8  1  0
 10  9  1  0
 10  4  1  0
 11 10  2  0
 12 11  1  0
 13 12  2  0
 14 13  1  0
 15 14  1  0
 16 15  1  0
 17 16  1  0
 18 17  1  0
 18 13  1  0
 19 18  2  0
 20 15  1  0
 21  1  1  0
 22 21  1  0
 23 21  1  0
 24 23  1  0
 25 24  1  0
 27 26  1  0
 27 25  1  0
 28 27  1  0
  1 29  1  1
  2 30  1  0
  2 31  1  0
  3 32  1  0
  3 33  1  0
  4 34  1  1
  6 35  1  0
  6 36  1  0
  6 37  1  0
  7 38  1  0
  7 39  1  0
  8 40  1  0
  8 41  1  0
  9 42  1  0
  9 43  1  0
 11 44  1  0
 12 45  1  0
 14 46  1  0
 14 47  1  0
 15 48  1  1
 16 49  1  0
 16 50  1  0
 17 51  1  0
 17 52  1  0
 19 53  1  0
 19 54  1  0
 20 55  1  0
 21 56  1  1
 22 57  1  0
 22 58  1  0
 22 59  1  0
 23 60  1  0
 23 61  1  0
 24 62  1  0
 24 63  1  0
 25 64  1  0
 25 65  1  0
 26 66  1  0
 26 67  1  0
 26 68  1  0
 27 69  1  0
 28 70  1  0
 28 71  1  0
 28 72  1  0
M  END
>  <score>  (4) 
-8.892

$$$$
=
     RDKit          3D

 72 74  0  0  0  0  0  0  0  0999 V2000
    2.5760   60.3380   72.8990 C   0  0  1  0  0  0  0  0  0  0  0  0
    1.5550   61.0840   72.0090 C   0  0  0  0  0  0  0  0  0  0  0  0
    0.1740   60.8620   72.6570 C   0  0  0  0  0  0  0  0  0  0  0  0
    0.4800   60.1810   73.9960 C   0  0  2  0  0  0  0  0  0  0  0  0
    1.7120   59.2960   73.6710 C   0  0  1  0  0  0  0  0  0  0  0  0
    1.3520   58.0610   72.8130 C   0  0  0  0  0  0  0  0  0  0  0  0
    2.3400   58.8330   75.0020 C   0  0  0  0  0  0  0  0  0  0  0  0
    1.3190   58.1140   75.8990 C   0  0  0  0  0  0  0  0  0  0  0  0
    0.0150   58.9040   76.0930 C   0  0  0  0  0  0  0  0  0  0  0  0
   -0.5650   59.4180   74.7850 C   0  0  0  0  0  0  0  0  0  0  0  0
   -1.8340   59.2590   74.3590 C   0  0  0  0  0  0  0  0  0  0  0  0
   -2.8990   58.5440   75.0350 C   0  0  0  0  0  0  0  0  0  0  0  0
   -4.1490   58.9930   75.2680 C   0  0  0  0  0  0  0  0  0  0  0  0
   -5.1980   58.0980   75.8960 C   0  0  0  0  0  0  0  0  0  0  0  0
   -6.4610   58.0160   75.0260 C   0  0  2  0  0  0  0  0  0  0  0  0
   -7.0030   59.4110   74.7110 C   0  0  0  0  0  0  0  0  0  0  0  0
   -5.9270   60.2980   74.0860 C   0  0  0  0  0  0  0  0  0  0  0  0
   -4.6730   60.3150   74.9260 C   0  0  0  0  0  0  0  0  0  0  0  0
   -4.1300   61.4520   75.3890 C   0  0  0  0  0  0  0  0  0  0  0  0
   -7.4770   57.2770   75.7010 O   0  0  0  0  0  0  0  0  0  0  0  0
    3.8770   59.8420   72.2100 C   0  0  2  0  0  0  0  0  0  0  0  0
    5.0300   60.7940   72.5800 C   0  0  0  0  0  0  0  0  0  0  0  0
    3.8000   59.7060   70.6710 C   0  0  0  0  0  0  0  0  0  0  0  0
    4.5780   60.8050   69.9370 C   0  0  0  0  0  0  0  0  0  0  0  0
    3.6740   61.8290   69.2380 C   0  0  0  0  0  0  0  0  0  0  0  0
    5.1850   63.5050   70.4320 C   0  0  0  0  0  0  0  0  0  0  0  0
    3.9160   63.3070   69.6020 C   0  0  0  0  0  0  0  0  0  0  0  0
    2.7070   63.8540   70.3660 C   0  0  0  0  0  0  0  0  0  0  0  0
    3.0822   61.0163   73.6016 H   0  0  0  0  0  0  0  0  0  0  0  0
    1.7919   62.1577   71.9752 H   0  0  0  0  0  0  0  0  0  0  0  0
    1.5767   60.7095   70.9750 H   0  0  0  0  0  0  0  0  0  0  0  0
   -0.3384   61.8220   72.8178 H   0  0  0  0  0  0  0  0  0  0  0  0
   -0.4915   60.2569   72.0238 H   0  0  0  0  0  0  0  0  0  0  0  0
    0.6030   60.9964   74.7240 H   0  0  0  0  0  0  0  0  0  0  0  0
    1.1056   57.2157   73.4723 H   0  0  0  0  0  0  0  0  0  0  0  0
    0.4849   58.2957   72.1781 H   0  0  0  0  0  0  0  0  0  0  0  0
    2.2094   57.7930   72.1781 H   0  0  0  0  0  0  0  0  0  0  0  0
    3.1687   58.1435   74.7832 H   0  0  0  0  0  0  0  0  0  0  0  0
    2.6966   59.7245   75.5387 H   0  0  0  0  0  0  0  0  0  0  0  0
    1.0745   57.1442   75.4412 H   0  0  0  0  0  0  0  0  0  0  0  0
    1.7809   58.0005   76.8909 H   0  0  0  0  0  0  0  0  0  0  0  0
   -0.7259   58.2465   76.5712 H   0  0  0  0  0  0  0  0  0  0  0  0
    0.2487   59.7791   76.7172 H   0  0  0  0  0  0  0  0  0  0  0  0
   -2.0892   59.7217   73.3942 H   0  0  0  0  0  0  0  0  0  0  0  0
   -2.6631   57.5316   75.3946 H   0  0  0  0  0  0  0  0  0  0  0  0
   -4.7804   57.0875   76.0161 H   0  0  0  0  0  0  0  0  0  0  0  0
   -5.4772   58.5244   76.8708 H   0  0  0  0  0  0  0  0  0  0  0  0
   -6.1859   57.5125   74.0875 H   0  0  0  0  0  0  0  0  0  0  0  0
   -7.8436   59.3182   74.0076 H   0  0  0  0  0  0  0  0  0  0  0  0
   -7.3318   59.8758   75.6522 H   0  0  0  0  0  0  0  0  0  0  0  0
   -5.6824   59.9130   73.0850 H   0  0  0  0  0  0  0  0  0  0  0  0
   -6.3168   61.3247   74.0240 H   0  0  0  0  0  0  0  0  0  0  0  0
   -3.2146   61.4162   75.9979 H   0  0  0  0  0  0  0  0  0  0  0  0
   -4.6004   62.4195   75.1595 H   0  0  0  0  0  0  0  0  0  0  0  0
   -7.3548   57.3659   76.6794 H   0  0  0  0  0  0  0  0  0  0  0  0
    4.0437   58.8211   72.5840 H   0  0  0  0  0  0  0  0  0  0  0  0
    5.1124   60.8620   73.6748 H   0  0  0  0  0  0  0  0  0  0  0  0
    5.9724   60.4073   72.1647 H   0  0  0  0  0  0  0  0  0  0  0  0
    4.8287   61.7925   72.1647 H   0  0  0  0  0  0  0  0  0  0  0  0
    4.2160   58.7292   70.3834 H   0  0  0  0  0  0  0  0  0  0  0  0
    2.7426   59.8004   70.3829 H   0  0  0  0  0  0  0  0  0  0  0  0
    5.2054   61.3357   70.6683 H   0  0  0  0  0  0  0  0  0  0  0  0
    5.1757   60.3129   69.1556 H   0  0  0  0  0  0  0  0  0  0  0  0
    3.8208   61.7217   68.1531 H   0  0  0  0  0  0  0  0  0  0  0  0
    2.6530   61.6038   69.5799 H   0  0  0  0  0  0  0  0  0  0  0  0
    4.9331   63.4657   71.5020 H   0  0  0  0  0  0  0  0  0  0  0  0
    5.9058   62.7085   70.1955 H   0  0  0  0  0  0  0  0  0  0  0  0
    5.6289   64.4833   70.1955 H   0  0  0  0  0  0  0  0  0  0  0  0
    4.0525   63.8590   68.6604 H   0  0  0  0  0  0  0  0  0  0  0  0
    2.8889   63.7717   71.4477 H   0  0  0  0  0  0  0  0  0  0  0  0
    2.5520   64.9099   70.0996 H   0  0  0  0  0  0  0  0  0  0  0  0
    1.8115   63.2733   70.0996 H   0  0  0  0  0  0  0  0  0  0  0  0
  2  1  1  0
  3  2  1  0
  4  3  1  0
  5  4  1  0
  5  1  1  0
  5  6  1  6
  7  5  1  0
  8  7  1  0
  9  8  1  0
 10  9  1  0
 10  4  1  0
 11 10  2  0
 12 11  1  0
 13 12  2  0
 14 13  1  0
 15 14  1  0
 16 15  1  0
 17 16  1  0
 18 17  1  0
 18 13  1  0
 19 18  2  0
 20 15  1  0
 21  1  1  0
 22 21  1  0
 23 21  1  0
 24 23  1  0
 25 24  1  0
 27 26  1  0
 27 25  1  0
 28 27  1  0
  1 29  1  1
  2 30  1  0
  2 31  1  0
  3 32  1  0
  3 33  1  0
  4 34  1  1
  6 35  1  0
  6 36  1  0
  6 37  1  0
  7 38  1  0
  7 39  1  0
  8 40  1  0
  8 41  1  0
  9 42  1  0
  9 43  1  0
 11 44  1  0
 12 45  1  0
 14 46  1  0
 14 47  1  0
 15 48  1  6
 16 49  1  0
 16 50  1  0
 17 51  1  0
 17 52  1  0
 19 53  1  0
 19 54  1  0
 20 55  1  0
 21 56  1  1
 22 57  1  0
 22 58  1  0
 22 59  1  0
 23 60  1  0
 23 61  1  0
 24 62  1  0
 24 63  1  0
 25 64  1  0
 25 65  1  0
 26 66  1  0
 26 67  1  0
 26 68  1  0
 27 69  1  0
 28 70  1  0
 28 71  1  0
 28 72  1  0
M  END
>  <score>  (5) 
-8.891

$$$$
=
     RDKit          3D

 72 74  0  0  0  0  0  0  0  0999 V2000
    2.0110   62.8450   72.4310 C   0  0  1  0  0  0  0  0  0  0  0  0
    1.4390   63.4590   73.7310 C   0  0  0  0  0  0  0  0  0  0  0  0
    1.5780   62.3760   74.8180 C   0  0  0  0  0  0  0  0  0  0  0  0
    2.4080   61.2690   74.1580 C   0  0  2  0  0  0  0  0  0  0  0  0
    1.9400   61.3080   72.6790 C   0  0  1  0  0  0  0  0  0  0  0  0
    0.5180   60.7340   72.4870 C   0  0  0  0  0  0  0  0  0  0  0  0
    2.9420   60.4960   71.8320 C   0  0  0  0  0  0  0  0  0  0  0  0
    3.1080   59.0610   72.3590 C   0  0  0  0  0  0  0  0  0  0  0  0
    3.4040   58.9950   73.8660 C   0  0  0  0  0  0  0  0  0  0  0  0
    2.4570   59.8510   74.6920 C   0  0  0  0  0  0  0  0  0  0  0  0
    1.7570   59.4500   75.7720 C   0  0  0  0  0  0  0  0  0  0  0  0
    1.7320   58.1220   76.3520 C   0  0  0  0  0  0  0  0  0  0  0  0
    1.1630   57.0210   75.8190 C   0  0  0  0  0  0  0  0  0  0  0  0
    1.3020   55.6670   76.4870 C   0  0  0  0  0  0  0  0  0  0  0  0
    1.8770   54.6210   75.5210 C   0  0  2  0  0  0  0  0  0  0  0  0
    1.0560   54.5500   74.2330 C   0  0  0  0  0  0  0  0  0  0  0  0
    0.9220   55.9260   73.5820 C   0  0  0  0  0  0  0  0  0  0  0  0
    0.4140   56.9530   74.5650 C   0  0  0  0  0  0  0  0  0  0  0  0
   -0.6880   57.6850   74.3390 C   0  0  0  0  0  0  0  0  0  0  0  0
    1.8750   53.3320   76.1320 O   0  0  0  0  0  0  0  0  0  0  0  0
    1.4530   63.3960   71.0900 C   0  0  2  0  0  0  0  0  0  0  0  0
    2.6350   63.7760   70.1790 C   0  0  0  0  0  0  0  0  0  0  0  0
    0.4960   64.6040   71.2190 C   0  0  0  0  0  0  0  0  0  0  0  0
    0.8750   65.7640   70.2890 C   0  0  0  0  0  0  0  0  0  0  0  0
   -0.3310   66.4050   69.5890 C   0  0  0  0  0  0  0  0  0  0  0  0
    0.8180   68.0960   68.0600 C   0  0  0  0  0  0  0  0  0  0  0  0
   -0.1020   66.8770   68.1400 C   0  0  0  0  0  0  0  0  0  0  0  0
   -1.4480   67.2000   67.4850 C   0  0  0  0  0  0  0  0  0  0  0  0
    3.0491   63.1596   72.2486 H   0  0  0  0  0  0  0  0  0  0  0  0
    2.0101   64.3562   74.0119 H   0  0  0  0  0  0  0  0  0  0  0  0
    0.3899   63.7634   73.6016 H   0  0  0  0  0  0  0  0  0  0  0  0
    2.0975   62.7766   75.7010 H   0  0  0  0  0  0  0  0  0  0  0  0
    0.6019   62.0113   75.1704 H   0  0  0  0  0  0  0  0  0  0  0  0
    3.4578   61.5125   74.3786 H   0  0  0  0  0  0  0  0  0  0  0  0
    0.0611   60.5496   73.4705 H   0  0  0  0  0  0  0  0  0  0  0  0
   -0.0958   61.4548   71.9269 H   0  0  0  0  0  0  0  0  0  0  0  0
    0.5765   59.7891   71.9269 H   0  0  0  0  0  0  0  0  0  0  0  0
    2.5786   60.4540   70.7946 H   0  0  0  0  0  0  0  0  0  0  0  0
    3.9203   60.9955   71.8897 H   0  0  0  0  0  0  0  0  0  0  0  0
    2.1783   58.5072   72.1616 H   0  0  0  0  0  0  0  0  0  0  0  0
    3.9718   58.6216   71.8386 H   0  0  0  0  0  0  0  0  0  0  0  0
    3.3116   57.9499   74.1966 H   0  0  0  0  0  0  0  0  0  0  0  0
    4.4212   59.3842   74.0204 H   0  0  0  0  0  0  0  0  0  0  0  0
    1.1379   60.2131   76.2665 H   0  0  0  0  0  0  0  0  0  0  0  0
    2.2276   57.9993   77.3263 H   0  0  0  0  0  0  0  0  0  0  0  0
    1.9742   55.7624   77.3524 H   0  0  0  0  0  0  0  0  0  0  0  0
    0.3027   55.3332   76.8033 H   0  0  0  0  0  0  0  0  0  0  0  0
    2.9062   54.9242   75.2785 H   0  0  0  0  0  0  0  0  0  0  0  0
    1.5535   53.8674   73.5284 H   0  0  0  0  0  0  0  0  0  0  0  0
    0.0489   54.1854   74.4835 H   0  0  0  0  0  0  0  0  0  0  0  0
    1.9073   56.2434   73.2099 H   0  0  0  0  0  0  0  0  0  0  0  0
    0.1991   55.8496   72.7564 H   0  0  0  0  0  0  0  0  0  0  0  0
   -1.0210   58.4223   75.0844 H   0  0  0  0  0  0  0  0  0  0  0  0
   -1.2582   57.5477   73.4084 H   0  0  0  0  0  0  0  0  0  0  0  0
    1.8752   53.4336   77.1168 H   0  0  0  0  0  0  0  0  0  0  0  0
    0.8424   62.5867   70.6631 H   0  0  0  0  0  0  0  0  0  0  0  0
    3.5005   64.0543   70.7982 H   0  0  0  0  0  0  0  0  0  0  0  0
    2.8993   62.9175   69.5440 H   0  0  0  0  0  0  0  0  0  0  0  0
    2.3495   64.6276   69.5440 H   0  0  0  0  0  0  0  0  0  0  0  0
   -0.5233   64.2731   70.9709 H   0  0  0  0  0  0  0  0  0  0  0  0
    0.5647   64.9723   72.2532 H   0  0  0  0  0  0  0  0  0  0  0  0
    1.3831   66.5365   70.8849 H   0  0  0  0  0  0  0  0  0  0  0  0
    1.5238   65.3504   69.5029 H   0  0  0  0  0  0  0  0  0  0  0  0
   -1.1448   65.6650   69.5767 H   0  0  0  0  0  0  0  0  0  0  0  0
   -0.5569   67.3152   70.1640 H   0  0  0  0  0  0  0  0  0  0  0  0
    1.0713   68.4316   69.0765 H   0  0  0  0  0  0  0  0  0  0  0  0
    1.7391   67.8256   67.5230 H   0  0  0  0  0  0  0  0  0  0  0  0
    0.3054   68.9077   67.5230 H   0  0  0  0  0  0  0  0  0  0  0  0
    0.3959   66.0568   67.6021 H   0  0  0  0  0  0  0  0  0  0  0  0
   -2.2016   67.3808   68.2656 H   0  0  0  0  0  0  0  0  0  0  0  0
   -1.3450   68.0989   66.8594 H   0  0  0  0  0  0  0  0  0  0  0  0
   -1.7642   66.3522   66.8594 H   0  0  0  0  0  0  0  0  0  0  0  0
  2  1  1  0
  3  2  1  0
  4  3  1  0
  5  4  1  0
  5  1  1  0
  5  6  1  1
  7  5  1  0
  8  7  1  0
  9  8  1  0
 10  9  1  0
 10  4  1  0
 11 10  2  0
 12 11  1  0
 13 12  2  0
 14 13  1  0
 15 14  1  0
 16 15  1  0
 17 16  1  0
 18 17  1  0
 18 13  1  0
 19 18  2  0
 20 15  1  0
 21  1  1  0
 22 21  1  0
 23 21  1  0
 24 23  1  0
 25 24  1  0
 27 26  1  0
 27 25  1  0
 28 27  1  0
  1 29  1  6
  2 30  1  0
  2 31  1  0
  3 32  1  0
  3 33  1  0
  4 34  1  6
  6 35  1  0
  6 36  1  0
  6 37  1  0
  7 38  1  0
  7 39  1  0
  8 40  1  0
  8 41  1  0
  9 42  1  0
  9 43  1  0
 11 44  1  0
 12 45  1  0
 14 46  1  0
 14 47  1  0
 15 48  1  6
 16 49  1  0
 16 50  1  0
 17 51  1  0
 17 52  1  0
 19 53  1  0
 19 54  1  0
 20 55  1  0
 21 56  1  6
 22 57  1  0
 22 58  1  0
 22 59  1  0
 23 60  1  0
 23 61  1  0
 24 62  1  0
 24 63  1  0
 25 64  1  0
 25 65  1  0
 26 66  1  0
 26 67  1  0
 26 68  1  0
 27 69  1  0
 28 70  1  0
 28 71  1  0
 28 72  1  0
M  END
>  <score>  (6) 
-8.88

$$$$
=
     RDKit          3D

 72 74  0  0  0  0  0  0  0  0999 V2000
    2.6540   61.7740   70.3220 C   0  0  1  0  0  0  0  0  0  0  0  0
    3.7220   60.7040   69.9950 C   0  0  0  0  0  0  0  0  0  0  0  0
    3.4850   59.5410   70.9790 C   0  0  0  0  0  0  0  0  0  0  0  0
    2.1710   59.8950   71.6850 C   0  0  2  0  0  0  0  0  0  0  0  0
    2.2250   61.4430   71.7830 C   0  0  1  0  0  0  0  0  0  0  0  0
    3.2430   61.9400   72.8350 C   0  0  0  0  0  0  0  0  0  0  0  0
    0.8160   61.9550   72.1480 C   0  0  0  0  0  0  0  0  0  0  0  0
    0.2830   61.3020   73.4340 C   0  0  0  0  0  0  0  0  0  0  0  0
    0.3810   59.7680   73.4250 C   0  0  0  0  0  0  0  0  0  0  0  0
    1.7510   59.2650   72.9990 C   0  0  0  0  0  0  0  0  0  0  0  0
    2.5110   58.3670   73.6570 C   0  0  0  0  0  0  0  0  0  0  0  0
    2.2010   57.7170   74.9160 C   0  0  0  0  0  0  0  0  0  0  0  0
    1.5450   56.5510   75.0790 C   0  0  0  0  0  0  0  0  0  0  0  0
    1.3800   55.9320   76.4530 C   0  0  0  0  0  0  0  0  0  0  0  0
    1.9100   54.4910   76.4870 C   0  0  2  0  0  0  0  0  0  0  0  0
    1.2670   53.6420   75.3880 C   0  0  0  0  0  0  0  0  0  0  0  0
    1.4380   54.2890   74.0140 C   0  0  0  0  0  0  0  0  0  0  0  0
    0.9690   55.7240   74.0200 C   0  0  0  0  0  0  0  0  0  0  0  0
    0.0350   56.1810   73.1710 C   0  0  0  0  0  0  0  0  0  0  0  0
    1.6240   53.8900   77.7490 O   0  0  0  0  0  0  0  0  0  0  0  0
    3.0090   63.2470   69.9810 C   0  0  2  0  0  0  0  0  0  0  0  0
    4.5380   63.4190   70.0470 C   0  0  0  0  0  0  0  0  0  0  0  0
    2.3350   64.3140   70.8740 C   0  0  0  0  0  0  0  0  0  0  0  0
    1.0180   64.8370   70.2850 C   0  0  0  0  0  0  0  0  0  0  0  0
    1.0080   66.3570   70.0680 C   0  0  0  0  0  0  0  0  0  0  0  0
    1.3940   68.2010   68.3460 C   0  0  0  0  0  0  0  0  0  0  0  0
    0.7710   66.8330   68.6220 C   0  0  0  0  0  0  0  0  0  0  0  0
   -0.7330   66.8820   68.3360 C   0  0  0  0  0  0  0  0  0  0  0  0
    1.7908   61.7147   69.6427 H   0  0  0  0  0  0  0  0  0  0  0  0
    3.6066   60.3552   68.9582 H   0  0  0  0  0  0  0  0  0  0  0  0
    4.7391   61.1109   70.0946 H   0  0  0  0  0  0  0  0  0  0  0  0
    3.3910   58.5877   70.4383 H   0  0  0  0  0  0  0  0  0  0  0  0
    4.3184   59.4157   71.6860 H   0  0  0  0  0  0  0  0  0  0  0  0
    1.3746   59.4403   71.0775 H   0  0  0  0  0  0  0  0  0  0  0  0
    2.8503   61.7483   73.8445 H   0  0  0  0  0  0  0  0  0  0  0  0
    4.1956   61.4056   72.7045 H   0  0  0  0  0  0  0  0  0  0  0  0
    3.4075   63.0198   72.7045 H   0  0  0  0  0  0  0  0  0  0  0  0
    0.8605   63.0443   72.2946 H   0  0  0  0  0  0  0  0  0  0  0  0
    0.1346   61.6926   71.3252 H   0  0  0  0  0  0  0  0  0  0  0  0
    0.8648   61.6837   74.2860 H   0  0  0  0  0  0  0  0  0  0  0  0
   -0.7838   61.5590   73.5109 H   0  0  0  0  0  0  0  0  0  0  0  0
    0.1706   59.3969   74.4389 H   0  0  0  0  0  0  0  0  0  0  0  0
   -0.3500   59.3949   72.6925 H   0  0  0  0  0  0  0  0  0  0  0  0
    3.4694   58.0982   73.1888 H   0  0  0  0  0  0  0  0  0  0  0  0
    2.5354   58.2277   75.8311 H   0  0  0  0  0  0  0  0  0  0  0  0
    1.9359   56.5350   77.1860 H   0  0  0  0  0  0  0  0  0  0  0  0
    0.3075   55.9117   76.6965 H   0  0  0  0  0  0  0  0  0  0  0  0
    2.9971   54.5334   76.3246 H   0  0  0  0  0  0  0  0  0  0  0  0
    1.7415   52.6496   75.3782 H   0  0  0  0  0  0  0  0  0  0  0  0
    0.1910   53.5571   75.6000 H   0  0  0  0  0  0  0  0  0  0  0  0
    2.5016   54.2610   73.7349 H   0  0  0  0  0  0  0  0  0  0  0  0
    0.8299   53.7285   73.2887 H   0  0  0  0  0  0  0  0  0  0  0  0
   -0.2764   57.2352   73.2114 H   0  0  0  0  0  0  0  0  0  0  0  0
   -0.4190   55.5012   72.4349 H   0  0  0  0  0  0  0  0  0  0  0  0
    1.9126   54.4965   78.4763 H   0  0  0  0  0  0  0  0  0  0  0  0
    2.6138   63.4235   68.9697 H   0  0  0  0  0  0  0  0  0  0  0  0
    4.8579   63.4550   71.0989 H   0  0  0  0  0  0  0  0  0  0  0  0
    5.0245   62.5699   69.5446 H   0  0  0  0  0  0  0  0  0  0  0  0
    4.8237   64.3550   69.5446 H   0  0  0  0  0  0  0  0  0  0  0  0
    2.1274   63.8685   71.8581 H   0  0  0  0  0  0  0  0  0  0  0  0
    3.0257   65.1668   70.9495 H   0  0  0  0  0  0  0  0  0  0  0  0
    0.8501   64.3453   69.3155 H   0  0  0  0  0  0  0  0  0  0  0  0
    0.2239   64.6074   71.0108 H   0  0  0  0  0  0  0  0  0  0  0  0
    0.2110   66.7811   70.6965 H   0  0  0  0  0  0  0  0  0  0  0  0
    2.0198   66.6999   70.3302 H   0  0  0  0  0  0  0  0  0  0  0  0
    1.6211   68.6996   69.2998 H   0  0  0  0  0  0  0  0  0  0  0  0
    2.3220   68.0717   67.7698 H   0  0  0  0  0  0  0  0  0  0  0  0
    0.6873   68.8162   67.7698 H   0  0  0  0  0  0  0  0  0  0  0  0
    1.2625   66.1103   67.9541 H   0  0  0  0  0  0  0  0  0  0  0  0
   -1.2866   66.9000   69.2864 H   0  0  0  0  0  0  0  0  0  0  0  0
   -0.9670   67.7882   67.7581 H   0  0  0  0  0  0  0  0  0  0  0  0
   -1.0255   65.9929   67.7581 H   0  0  0  0  0  0  0  0  0  0  0  0
  2  1  1  0
  3  2  1  0
  4  3  1  0
  5  4  1  0
  5  1  1  0
  5  6  1  1
  7  5  1  0
  8  7  1  0
  9  8  1  0
 10  9  1  0
 10  4  1  0
 11 10  2  0
 12 11  1  0
 13 12  2  0
 14 13  1  0
 15 14  1  0
 16 15  1  0
 17 16  1  0
 18 17  1  0
 18 13  1  0
 19 18  2  0
 20 15  1  0
 21  1  1  0
 22 21  1  0
 23 21  1  0
 24 23  1  0
 25 24  1  0
 27 26  1  0
 27 25  1  0
 28 27  1  0
  1 29  1  6
  2 30  1  0
  2 31  1  0
  3 32  1  0
  3 33  1  0
  4 34  1  6
  6 35  1  0
  6 36  1  0
  6 37  1  0
  7 38  1  0
  7 39  1  0
  8 40  1  0
  8 41  1  0
  9 42  1  0
  9 43  1  0
 11 44  1  0
 12 45  1  0
 14 46  1  0
 14 47  1  0
 15 48  1  6
 16 49  1  0
 16 50  1  0
 17 51  1  0
 17 52  1  0
 19 53  1  0
 19 54  1  0
 20 55  1  0
 21 56  1  6
 22 57  1  0
 22 58  1  0
 22 59  1  0
 23 60  1  0
 23 61  1  0
 24 62  1  0
 24 63  1  0
 25 64  1  0
 25 65  1  0
 26 66  1  0
 26 67  1  0
 26 68  1  0
 27 69  1  0
 28 70  1  0
 28 71  1  0
 28 72  1  0
M  END
>  <score>  (7) 
-8.776

$$$$
=
     RDKit          3D

 72 74  0  0  0  0  0  0  0  0999 V2000
    3.6160   60.2550   71.9980 C   0  0  1  0  0  0  0  0  0  0  0  0
    3.9130   61.2090   73.1800 C   0  0  0  0  0  0  0  0  0  0  0  0
    3.4700   60.4660   74.4560 C   0  0  0  0  0  0  0  0  0  0  0  0
    3.1370   59.0470   73.9810 C   0  0  2  0  0  0  0  0  0  0  0  0
    2.5460   59.2760   72.5650 C   0  0  1  0  0  0  0  0  0  0  0  0
    1.1280   59.8910   72.6010 C   0  0  0  0  0  0  0  0  0  0  0  0
    2.4990   57.9170   71.8340 C   0  0  0  0  0  0  0  0  0  0  0  0
    1.7180   56.8610   72.6350 C   0  0  0  0  0  0  0  0  0  0  0  0
    2.1780   56.7420   74.0960 C   0  0  0  0  0  0  0  0  0  0  0  0
    2.2890   58.0880   74.7940 C   0  0  0  0  0  0  0  0  0  0  0  0
    1.7440   58.4180   75.9820 C   0  0  0  0  0  0  0  0  0  0  0  0
    0.9170   57.5790   76.8260 C   0  0  0  0  0  0  0  0  0  0  0  0
   -0.2990   57.0810   76.5220 C   0  0  0  0  0  0  0  0  0  0  0  0
   -1.0110   56.1280   77.4610 C   0  0  0  0  0  0  0  0  0  0  0  0
   -1.4020   54.8250   76.7480 C   0  0  2  0  0  0  0  0  0  0  0  0
   -2.2170   55.1120   75.4850 C   0  0  0  0  0  0  0  0  0  0  0  0
   -1.4830   56.0800   74.5580 C   0  0  0  0  0  0  0  0  0  0  0  0
   -1.0550   57.3270   75.2940 C   0  0  0  0  0  0  0  0  0  0  0  0
   -1.4090   58.5580   74.8950 C   0  0  0  0  0  0  0  0  0  0  0  0
   -2.1830   54.0040   77.6150 O   0  0  0  0  0  0  0  0  0  0  0  0
    3.3480   60.9130   70.6160 C   0  0  2  0  0  0  0  0  0  0  0  0
    3.7710   59.9310   69.5080 C   0  0  0  0  0  0  0  0  0  0  0  0
    4.0430   62.2750   70.3860 C   0  0  0  0  0  0  0  0  0  0  0  0
    3.0550   63.4480   70.3560 C   0  0  0  0  0  0  0  0  0  0  0  0
    1.5930   63.0110   70.1860 C   0  0  0  0  0  0  0  0  0  0  0  0
    0.3980   65.1820   70.7990 C   0  0  0  0  0  0  0  0  0  0  0  0
    0.5690   63.6950   71.1120 C   0  0  0  0  0  0  0  0  0  0  0  0
    0.9980   63.5200   72.5720 C   0  0  0  0  0  0  0  0  0  0  0  0
    4.5122   59.7032   71.6779 H   0  0  0  0  0  0  0  0  0  0  0  0
    4.9883   61.4363   73.2253 H   0  0  0  0  0  0  0  0  0  0  0  0
    3.3792   62.1642   73.0673 H   0  0  0  0  0  0  0  0  0  0  0  0
    4.2833   60.4469   75.1964 H   0  0  0  0  0  0  0  0  0  0  0  0
    2.6146   60.9532   74.9468 H   0  0  0  0  0  0  0  0  0  0  0  0
    4.0732   58.4760   74.0675 H   0  0  0  0  0  0  0  0  0  0  0  0
    0.8139   60.0272   73.6463 H   0  0  0  0  0  0  0  0  0  0  0  0
    1.1380   60.8656   72.0911 H   0  0  0  0  0  0  0  0  0  0  0  0
    0.4233   59.2177   72.0911 H   0  0  0  0  0  0  0  0  0  0  0  0
    2.0113   58.0551   70.8577 H   0  0  0  0  0  0  0  0  0  0  0  0
    3.5321   57.5586   71.7143 H   0  0  0  0  0  0  0  0  0  0  0  0
    0.6524   57.1338   72.6258 H   0  0  0  0  0  0  0  0  0  0  0  0
    1.9015   55.8880   72.1559 H   0  0  0  0  0  0  0  0  0  0  0  0
    1.4523   56.1221   74.6428 H   0  0  0  0  0  0  0  0  0  0  0  0
    3.1809   56.2901   74.0900 H   0  0  0  0  0  0  0  0  0  0  0  0
    1.9492   59.4339   76.3506 H   0  0  0  0  0  0  0  0  0  0  0  0
    1.3225   57.3221   77.8157 H   0  0  0  0  0  0  0  0  0  0  0  0
   -0.3435   55.8891   78.3021 H   0  0  0  0  0  0  0  0  0  0  0  0
   -1.9299   56.6161   77.8178 H   0  0  0  0  0  0  0  0  0  0  0  0
   -0.4725   54.3064   76.4704 H   0  0  0  0  0  0  0  0  0  0  0  0
   -2.3928   54.1672   74.9497 H   0  0  0  0  0  0  0  0  0  0  0  0
   -3.1698   55.5732   75.7842 H   0  0  0  0  0  0  0  0  0  0  0  0
   -0.5914   55.5802   74.1515 H   0  0  0  0  0  0  0  0  0  0  0  0
   -2.1683   56.3726   73.7489 H   0  0  0  0  0  0  0  0  0  0  0  0
   -1.0733   59.4381   75.4631 H   0  0  0  0  0  0  0  0  0  0  0  0
   -2.0349   58.6872   73.9997 H   0  0  0  0  0  0  0  0  0  0  0  0
   -1.9727   54.2251   78.5568 H   0  0  0  0  0  0  0  0  0  0  0  0
    2.2699   61.1299   70.5907 H   0  0  0  0  0  0  0  0  0  0  0  0
    4.1670   59.0118   69.9643 H   0  0  0  0  0  0  0  0  0  0  0  0
    2.8992   59.6845   68.8841 H   0  0  0  0  0  0  0  0  0  0  0  0
    4.5490   60.3952   68.8841 H   0  0  0  0  0  0  0  0  0  0  0  0
    4.7642   62.4435   71.1993 H   0  0  0  0  0  0  0  0  0  0  0  0
    4.5379   62.2331   69.4045 H   0  0  0  0  0  0  0  0  0  0  0  0
    3.1450   64.0037   71.3011 H   0  0  0  0  0  0  0  0  0  0  0  0
    3.3122   64.0663   69.4833 H   0  0  0  0  0  0  0  0  0  0  0  0
    1.2985   63.2198   69.1469 H   0  0  0  0  0  0  0  0  0  0  0  0
    1.5699   61.9450   70.4563 H   0  0  0  0  0  0  0  0  0  0  0  0
    0.3327   65.7494   71.7391 H   0  0  0  0  0  0  0  0  0  0  0  0
    1.2614   65.5357   70.2164 H   0  0  0  0  0  0  0  0  0  0  0  0
   -0.5231   65.3305   70.2164 H   0  0  0  0  0  0  0  0  0  0  0  0
   -0.4038   63.2112   70.9398 H   0  0  0  0  0  0  0  0  0  0  0  0
    0.1854   63.8515   73.2352 H   0  0  0  0  0  0  0  0  0  0  0  0
    1.2191   62.4598   72.7646 H   0  0  0  0  0  0  0  0  0  0  0  0
    1.8976   64.1230   72.7646 H   0  0  0  0  0  0  0  0  0  0  0  0
  2  1  1  0
  3  2  1  0
  4  3  1  0
  5  4  1  0
  5  1  1  0
  5  6  1  1
  7  5  1  0
  8  7  1  0
  9  8  1  0
 10  9  1  0
 10  4  1  0
 11 10  2  0
 12 11  1  0
 13 12  2  0
 14 13  1  0
 15 14  1  0
 16 15  1  0
 17 16  1  0
 18 17  1  0
 18 13  1  0
 19 18  2  0
 20 15  1  0
 21  1  1  0
 22 21  1  0
 23 21  1  0
 24 23  1  0
 25 24  1  0
 27 26  1  0
 27 25  1  0
 28 27  1  0
  1 29  1  6
  2 30  1  0
  2 31  1  0
  3 32  1  0
  3 33  1  0
  4 34  1  6
  6 35  1  0
  6 36  1  0
  6 37  1  0
  7 38  1  0
  7 39  1  0
  8 40  1  0
  8 41  1  0
  9 42  1  0
  9 43  1  0
 11 44  1  0
 12 45  1  0
 14 46  1  0
 14 47  1  0
 15 48  1  6
 16 49  1  0
 16 50  1  0
 17 51  1  0
 17 52  1  0
 19 53  1  0
 19 54  1  0
 20 55  1  0
 21 56  1  6
 22 57  1  0
 22 58  1  0
 22 59  1  0
 23 60  1  0
 23 61  1  0
 24 62  1  0
 24 63  1  0
 25 64  1  0
 25 65  1  0
 26 66  1  0
 26 67  1  0
 26 68  1  0
 27 69  1  0
 28 70  1  0
 28 71  1  0
 28 72  1  0
M  END
>  <score>  (8) 
-8.614

$$$$
