=
     RDKit          3D

 56 61  0  0  0  0  0  0  0  0999 V2000
    3.2650   68.1810   62.9060 C   0  0  1  0  0  0  0  0  0  0  0  0
    2.1880   68.8290   62.0440 C   0  0  0  0  0  0  0  0  0  0  0  0
    1.0000   69.2040   62.5380 C   0  0  0  0  0  0  0  0  0  0  0  0
   -0.2180   69.6980   61.8100 C   0  0  0  0  0  0  0  0  0  0  0  0
   -1.3460   69.6250   62.8620 C   0  0  0  0  0  0  0  0  0  0  0  0
   -0.8150   68.6950   63.9230 N   0  0  1  0  0  4  0  0  0  0  0  0
    0.6450   68.9830   63.9630 C   0  0  1  0  0  0  0  0  0  0  0  0
    1.3900   67.8160   64.6120 C   0  0  1  0  0  0  0  0  0  0  0  0
    2.9070   68.1050   64.4330 C   0  0  2  0  0  0  0  0  0  0  0  0
    0.8140   67.5930   66.0080 C   0  0  0  0  0  0  0  0  0  0  0  0
    1.5430   66.8870   66.9790 C   0  0  0  0  0  0  0  0  0  0  0  0
    0.9590   66.6670   68.2090 C   0  0  0  0  0  0  0  0  0  0  0  0
    1.5330   66.0110   69.2520 O   0  0  0  0  0  0  0  0  0  0  0  0
    0.4890   66.1000   70.2450 C   0  0  0  0  0  0  0  0  0  0  0  0
   -0.6910   66.7840   69.7650 O   0  0  0  0  0  0  0  0  0  0  0  0
   -0.3070   67.1020   68.5010 C   0  0  0  0  0  0  0  0  0  0  0  0
   -1.0760   67.7770   67.5790 C   0  0  0  0  0  0  0  0  0  0  0  0
   -0.5280   68.0190   66.3060 C   0  0  0  0  0  0  0  0  0  0  0  0
   -1.3810   68.7720   65.2990 C   0  0  0  0  0  0  0  0  0  0  0  0
    3.4020   66.8510   62.3730 O   0  0  0  0  0  0  0  0  0  0  0  0
    4.2370   64.9790   63.5230 C   0  0  0  0  0  0  0  0  0  0  0  0
    4.5520   66.2120   62.7330 C   0  0  0  0  0  0  0  0  0  0  0  0
    5.6760   66.5990   62.4590 O   0  0  0  0  0  0  0  0  0  0  0  0
    3.2180   69.3940   65.0170 O   0  0  0  0  0  0  0  0  0  0  0  0
    4.4840   69.5600   65.4840 C   0  0  0  0  0  0  0  0  0  0  0  0
    5.5040   69.3870   64.8410 O   0  0  0  0  0  0  0  0  0  0  0  0
    4.4620   69.9220   66.9240 C   0  0  0  0  0  0  0  0  0  0  0  0
    3.2960   69.8500   67.6980 C   0  0  0  0  0  0  0  0  0  0  0  0
    3.3310   70.2010   69.0500 C   0  0  0  0  0  0  0  0  0  0  0  0
    4.5260   70.6260   69.6310 C   0  0  0  0  0  0  0  0  0  0  0  0
    5.6870   70.7070   68.8640 C   0  0  0  0  0  0  0  0  0  0  0  0
    5.6570   70.3580   67.5130 C   0  0  0  0  0  0  0  0  0  0  0  0
    4.1859   68.7813   62.8659 H   0  0  0  0  0  0  0  0  0  0  0  0
    2.3935   68.9951   60.9762 H   0  0  0  0  0  0  0  0  0  0  0  0
   -0.0731   70.7324   61.4650 H   0  0  0  0  0  0  0  0  0  0  0  0
   -0.4413   69.1033   60.9120 H   0  0  0  0  0  0  0  0  0  0  0  0
   -1.5488   70.6204   63.2839 H   0  0  0  0  0  0  0  0  0  0  0  0
   -2.2950   69.2708   62.4330 H   0  0  0  0  0  0  0  0  0  0  0  0
   -1.0902   67.7407   63.6500 H   0  0  0  0  0  0  0  0  0  0  0  0
    0.9204   69.8572   64.5712 H   0  0  0  0  0  0  0  0  0  0  0  0
    1.2530   66.8270   64.1503 H   0  0  0  0  0  0  0  0  0  0  0  0
    3.4776   67.3000   64.9192 H   0  0  0  0  0  0  0  0  0  0  0  0
    2.5566   66.5180   66.7634 H   0  0  0  0  0  0  0  0  0  0  0  0
    0.2049   65.0812   70.5471 H   0  0  0  0  0  0  0  0  0  0  0  0
    0.8866   66.6830   71.0888 H   0  0  0  0  0  0  0  0  0  0  0  0
   -2.0911   68.1176   67.8311 H   0  0  0  0  0  0  0  0  0  0  0  0
   -1.4387   69.8281   65.6011 H   0  0  0  0  0  0  0  0  0  0  0  0
   -2.3785   68.3087   65.2835 H   0  0  0  0  0  0  0  0  0  0  0  0
    4.2953   65.2071   64.5975 H   0  0  0  0  0  0  0  0  0  0  0  0
    3.2220   64.6345   63.2758 H   0  0  0  0  0  0  0  0  0  0  0  0
    4.9624   64.1899   63.2758 H   0  0  0  0  0  0  0  0  0  0  0  0
    2.3526   69.5169   67.2409 H   0  0  0  0  0  0  0  0  0  0  0  0
    2.4154   70.1422   69.6568 H   0  0  0  0  0  0  0  0  0  0  0  0
    4.5521   70.8977   70.6966 H   0  0  0  0  0  0  0  0  0  0  0  0
    6.6271   71.0461   69.3236 H   0  0  0  0  0  0  0  0  0  0  0  0
    6.5737   70.4253   66.9087 H   0  0  0  0  0  0  0  0  0  0  0  0
  2  1  1  0
  3  2  2  0
  4  3  1  0
  5  4  1  0
  6  5  1  0
  7  6  1  0
  7  3  1  0
  8  7  1  0
  9  8  1  0
  9  1  1  0
 10  8  1  0
 11 10  2  0
 12 11  1  0
 13 12  1  0
 14 13  1  0
 15 14  1  0
 16 15  1  0
 16 12  2  0
 17 16  1  0
 18 17  2  0
 18 10  1  0
 19  6  1  0
 19 18  1  0
 20  1  1  0
 22 21  1  0
 22 20  1  0
 23 22  2  0
 24  9  1  0
 25 24  1  0
 26 25  2  0
 27 25  1  0
 28 27  2  0
 29 28  1  0
 30 29  2  0
 31 30  1  0
 32 27  1  0
 32 31  2  0
  1 33  1  1
  2 34  1  0
  4 35  1  0
  4 36  1  0
  5 37  1  0
  5 38  1  0
  6 39  1  6
  7 40  1  1
  8 41  1  6
  9 42  1  1
 11 43  1  0
 14 44  1  0
 14 45  1  0
 17 46  1  0
 19 47  1  0
 19 48  1  0
 21 49  1  0
 21 50  1  0
 21 51  1  0
 28 52  1  0
 29 53  1  0
 30 54  1  0
 31 55  1  0
 32 56  1  0
M  CHG  1   6   1
M  END
>  <score>  (1) 
-11.437

$$$$
=
     RDKit          3D

 56 61  0  0  0  0  0  0  0  0999 V2000
    4.3340   67.1530   63.6740 C   0  0  1  0  0  0  0  0  0  0  0  0
    4.2840   67.7880   62.2890 C   0  0  0  0  0  0  0  0  0  0  0  0
    3.2610   68.5550   61.8850 C   0  0  0  0  0  0  0  0  0  0  0  0
    2.9760   69.1140   60.5200 C   0  0  0  0  0  0  0  0  0  0  0  0
    1.5120   69.5970   60.6060 C   0  0  0  0  0  0  0  0  0  0  0  0
    0.9470   68.8840   61.8090 N   0  0  1  0  0  4  0  0  0  0  0  0
    2.0890   68.8130   62.7600 C   0  0  1  0  0  0  0  0  0  0  0  0
    1.8390   67.7180   63.7960 C   0  0  1  0  0  0  0  0  0  0  0  0
    3.1510   67.5750   64.6160 C   0  0  2  0  0  0  0  0  0  0  0  0
    0.5210   68.0190   64.5070 C   0  0  0  0  0  0  0  0  0  0  0  0
    0.2330   67.4440   65.7560 C   0  0  0  0  0  0  0  0  0  0  0  0
   -0.9910   67.7060   66.3350 C   0  0  0  0  0  0  0  0  0  0  0  0
   -1.4170   67.2330   67.5350 O   0  0  0  0  0  0  0  0  0  0  0  0
   -2.7270   67.8320   67.6210 C   0  0  0  0  0  0  0  0  0  0  0  0
   -3.0630   68.6260   66.4610 O   0  0  0  0  0  0  0  0  0  0  0  0
   -1.9300   68.4950   65.7230 C   0  0  0  0  0  0  0  0  0  0  0  0
   -1.7100   69.0640   64.4880 C   0  0  0  0  0  0  0  0  0  0  0  0
   -0.4800   68.8190   63.8520 C   0  0  0  0  0  0  0  0  0  0  0  0
   -0.2450   69.4580   62.4940 C   0  0  0  0  0  0  0  0  0  0  0  0
    4.2740   65.7370   63.4250 O   0  0  0  0  0  0  0  0  0  0  0  0
    4.8650   63.8070   64.6280 C   0  0  0  0  0  0  0  0  0  0  0  0
    3.9460   64.9830   64.5130 C   0  0  0  0  0  0  0  0  0  0  0  0
    3.0260   65.2290   65.2770 O   0  0  0  0  0  0  0  0  0  0  0  0
    3.4930   68.8590   65.1950 O   0  0  0  0  0  0  0  0  0  0  0  0
    3.3480   68.9780   66.5420 C   0  0  0  0  0  0  0  0  0  0  0  0
    2.3960   68.5800   67.1880 O   0  0  0  0  0  0  0  0  0  0  0  0
    4.4920   69.7240   67.1230 C   0  0  0  0  0  0  0  0  0  0  0  0
    5.7210   69.8510   66.4580 C   0  0  0  0  0  0  0  0  0  0  0  0
    6.7650   70.5660   67.0500 C   0  0  0  0  0  0  0  0  0  0  0  0
    6.5880   71.1530   68.3030 C   0  0  0  0  0  0  0  0  0  0  0  0
    5.3720   71.0230   68.9720 C   0  0  0  0  0  0  0  0  0  0  0  0
    4.3260   70.3090   68.3850 C   0  0  0  0  0  0  0  0  0  0  0  0
    5.2418   67.4805   64.2020 H   0  0  0  0  0  0  0  0  0  0  0  0
    5.1186   67.6103   61.5949 H   0  0  0  0  0  0  0  0  0  0  0  0
    3.6507   69.9527   60.2933 H   0  0  0  0  0  0  0  0  0  0  0  0
    3.1288   68.3733   59.7213 H   0  0  0  0  0  0  0  0  0  0  0  0
    1.4702   70.6873   60.7456 H   0  0  0  0  0  0  0  0  0  0  0  0
    0.9461   69.3797   59.6881 H   0  0  0  0  0  0  0  0  0  0  0  0
    0.5680   67.9863   61.4751 H   0  0  0  0  0  0  0  0  0  0  0  0
    2.2427   69.7249   63.3556 H   0  0  0  0  0  0  0  0  0  0  0  0
    1.6600   66.7047   63.4073 H   0  0  0  0  0  0  0  0  0  0  0  0
    2.9956   66.8153   65.3962 H   0  0  0  0  0  0  0  0  0  0  0  0
    0.9674   66.7992   66.2609 H   0  0  0  0  0  0  0  0  0  0  0  0
   -3.4728   67.0301   67.7247 H   0  0  0  0  0  0  0  0  0  0  0  0
   -2.7240   68.5055   68.4907 H   0  0  0  0  0  0  0  0  0  0  0  0
   -2.4762   69.6934   64.0118 H   0  0  0  0  0  0  0  0  0  0  0  0
   -0.0904   70.5384   62.6313 H   0  0  0  0  0  0  0  0  0  0  0  0
   -1.1268   69.2602   61.8669 H   0  0  0  0  0  0  0  0  0  0  0  0
    5.0410   63.5817   65.6902 H   0  0  0  0  0  0  0  0  0  0  0  0
    4.4070   62.9345   64.1392 H   0  0  0  0  0  0  0  0  0  0  0  0
    5.8223   64.0406   64.1392 H   0  0  0  0  0  0  0  0  0  0  0  0
    5.8624   69.3875   65.4705 H   0  0  0  0  0  0  0  0  0  0  0  0
    7.7278   70.6662   66.5275 H   0  0  0  0  0  0  0  0  0  0  0  0
    7.4101   71.7199   68.7643 H   0  0  0  0  0  0  0  0  0  0  0  0
    5.2368   71.4829   69.9621 H   0  0  0  0  0  0  0  0  0  0  0  0
    3.3679   70.2053   68.9153 H   0  0  0  0  0  0  0  0  0  0  0  0
  2  1  1  0
  3  2  2  0
  4  3  1  0
  5  4  1  0
  6  5  1  0
  7  6  1  0
  7  3  1  0
  8  7  1  0
  9  8  1  0
  9  1  1  0
 10  8  1  0
 11 10  2  0
 12 11  1  0
 13 12  1  0
 14 13  1  0
 15 14  1  0
 16 15  1  0
 16 12  2  0
 17 16  1  0
 18 17  2  0
 18 10  1  0
 19  6  1  0
 19 18  1  0
 20  1  1  0
 22 21  1  0
 22 20  1  0
 23 22  2  0
 24  9  1  0
 25 24  1  0
 26 25  2  0
 27 25  1  0
 28 27  2  0
 29 28  1  0
 30 29  2  0
 31 30  1  0
 32 27  1  0
 32 31  2  0
  1 33  1  1
  2 34  1  0
  4 35  1  0
  4 36  1  0
  5 37  1  0
  5 38  1  0
  6 39  1  6
  7 40  1  1
  8 41  1  6
  9 42  1  1
 11 43  1  0
 14 44  1  0
 14 45  1  0
 17 46  1  0
 19 47  1  0
 19 48  1  0
 21 49  1  0
 21 50  1  0
 21 51  1  0
 28 52  1  0
 29 53  1  0
 30 54  1  0
 31 55  1  0
 32 56  1  0
M  CHG  1   6   1
M  END
>  <score>  (2) 
-9.133

$$$$
=
     RDKit          3D

 56 61  0  0  0  0  0  0  0  0999 V2000
    0.4740   63.2830   71.5450 C   0  0  1  0  0  0  0  0  0  0  0  0
    1.2830   62.9740   70.2910 C   0  0  0  0  0  0  0  0  0  0  0  0
    2.1550   61.9570   70.2290 C   0  0  0  0  0  0  0  0  0  0  0  0
    3.1390   61.6160   69.1460 C   0  0  0  0  0  0  0  0  0  0  0  0
    4.0770   60.5780   69.7990 C   0  0  0  0  0  0  0  0  0  0  0  0
    3.8550   60.7450   71.2810 N   0  0  1  0  0  4  0  0  0  0  0  0
    2.4100   61.0790   71.3990 C   0  0  1  0  0  0  0  0  0  0  0  0
    2.1360   61.7480   72.7460 C   0  0  1  0  0  0  0  0  0  0  0  0
    0.6630   62.2400   72.7040 C   0  0  2  0  0  0  0  0  0  0  0  0
    2.5970   60.8050   73.8550 C   0  0  0  0  0  0  0  0  0  0  0  0
    2.1150   60.9520   75.1660 C   0  0  0  0  0  0  0  0  0  0  0  0
    2.5990   60.1080   76.1430 C   0  0  0  0  0  0  0  0  0  0  0  0
    2.2300   60.1180   77.4520 O   0  0  0  0  0  0  0  0  0  0  0  0
    3.0320   59.0380   77.9740 C   0  0  0  0  0  0  0  0  0  0  0  0
    3.8770   58.4260   76.9750 O   0  0  0  0  0  0  0  0  0  0  0  0
    3.5390   59.1480   75.8750 C   0  0  0  0  0  0  0  0  0  0  0  0
    4.0640   58.9760   74.6130 C   0  0  0  0  0  0  0  0  0  0  0  0
    3.6080   59.8180   73.5830 C   0  0  0  0  0  0  0  0  0  0  0  0
    4.1870   59.6150   72.1930 C   0  0  0  0  0  0  0  0  0  0  0  0
    0.9480   64.5730   71.9720 O   0  0  0  0  0  0  0  0  0  0  0  0
    0.1500   66.1110   70.3830 C   0  0  0  0  0  0  0  0  0  0  0  0
    0.0620   65.5930   71.7860 C   0  0  0  0  0  0  0  0  0  0  0  0
   -0.6860   66.0280   72.6460 O   0  0  0  0  0  0  0  0  0  0  0  0
   -0.2080   61.1160   72.4230 O   0  0  0  0  0  0  0  0  0  0  0  0
   -1.1710   60.8480   73.3440 C   0  0  0  0  0  0  0  0  0  0  0  0
   -2.0090   61.6370   73.7410 O   0  0  0  0  0  0  0  0  0  0  0  0
   -1.0260   59.4620   73.8580 C   0  0  0  0  0  0  0  0  0  0  0  0
    0.0190   58.6180   73.4550 C   0  0  0  0  0  0  0  0  0  0  0  0
    0.1090   57.3230   73.9710 C   0  0  0  0  0  0  0  0  0  0  0  0
   -0.8400   56.8670   74.8860 C   0  0  0  0  0  0  0  0  0  0  0  0
   -1.8850   57.7000   75.2840 C   0  0  0  0  0  0  0  0  0  0  0  0
   -1.9810   58.9940   74.7710 C   0  0  0  0  0  0  0  0  0  0  0  0
   -0.6007   63.2506   71.3129 H   0  0  0  0  0  0  0  0  0  0  0  0
    1.1466   63.6091   69.4033 H   0  0  0  0  0  0  0  0  0  0  0  0
    2.6256   61.1839   68.2744 H   0  0  0  0  0  0  0  0  0  0  0  0
    3.6806   62.4990   68.7758 H   0  0  0  0  0  0  0  0  0  0  0  0
    3.8121   59.5595   69.4789 H   0  0  0  0  0  0  0  0  0  0  0  0
    5.1289   60.7289   69.5149 H   0  0  0  0  0  0  0  0  0  0  0  0
    4.5219   61.4604   71.6042 H   0  0  0  0  0  0  0  0  0  0  0  0
    1.7384   60.2080   71.3840 H   0  0  0  0  0  0  0  0  0  0  0  0
    2.7116   62.6582   72.9702 H   0  0  0  0  0  0  0  0  0  0  0  0
    0.4198   62.6988   73.6737 H   0  0  0  0  0  0  0  0  0  0  0  0
    1.3684   61.7228   75.4078 H   0  0  0  0  0  0  0  0  0  0  0  0
    3.6702   59.4328   78.7782 H   0  0  0  0  0  0  0  0  0  0  0  0
    2.3416   58.2634   78.3391 H   0  0  0  0  0  0  0  0  0  0  0  0
    4.8195   58.2010   74.4163 H   0  0  0  0  0  0  0  0  0  0  0  0
    3.7785   58.6853   71.7702 H   0  0  0  0  0  0  0  0  0  0  0  0
    5.2819   59.5622   72.2848 H   0  0  0  0  0  0  0  0  0  0  0  0
    0.3342   67.1953   70.4033 H   0  0  0  0  0  0  0  0  0  0  0  0
    0.9757   65.6086   69.8578 H   0  0  0  0  0  0  0  0  0  0  0  0
   -0.7953   65.9095   69.8578 H   0  0  0  0  0  0  0  0  0  0  0  0
    0.7676   58.9757   72.7327 H   0  0  0  0  0  0  0  0  0  0  0  0
    0.9295   56.6618   73.6553 H   0  0  0  0  0  0  0  0  0  0  0  0
   -0.7639   55.8484   75.2943 H   0  0  0  0  0  0  0  0  0  0  0  0
   -2.6342   57.3367   76.0029 H   0  0  0  0  0  0  0  0  0  0  0  0
   -2.8080   59.6484   75.0838 H   0  0  0  0  0  0  0  0  0  0  0  0
  2  1  1  0
  3  2  2  0
  4  3  1  0
  5  4  1  0
  6  5  1  0
  7  6  1  0
  7  3  1  0
  8  7  1  0
  9  8  1  0
  9  1  1  0
 10  8  1  0
 11 10  2  0
 12 11  1  0
 13 12  1  0
 14 13  1  0
 15 14  1  0
 16 15  1  0
 16 12  2  0
 17 16  1  0
 18 17  2  0
 18 10  1  0
 19  6  1  0
 19 18  1  0
 20  1  1  0
 22 21  1  0
 22 20  1  0
 23 22  2  0
 24  9  1  0
 25 24  1  0
 26 25  2  0
 27 25  1  0
 28 27  2  0
 29 28  1  0
 30 29  2  0
 31 30  1  0
 32 27  1  0
 32 31  2  0
  1 33  1  6
  2 34  1  0
  4 35  1  0
  4 36  1  0
  5 37  1  0
  5 38  1  0
  6 39  1  1
  7 40  1  6
  8 41  1  6
  9 42  1  1
 11 43  1  0
 14 44  1  0
 14 45  1  0
 17 46  1  0
 19 47  1  0
 19 48  1  0
 21 49  1  0
 21 50  1  0
 21 51  1  0
 28 52  1  0
 29 53  1  0
 30 54  1  0
 31 55  1  0
 32 56  1  0
M  CHG  1   6   1
M  END
>  <score>  (3) 
-8.914

$$$$
=
     RDKit          3D

 56 61  0  0  0  0  0  0  0  0999 V2000
    2.3980   57.9960   74.5240 C   0  0  1  0  0  0  0  0  0  0  0  0
    1.0430   57.5630   75.0710 C   0  0  0  0  0  0  0  0  0  0  0  0
   -0.1030   58.1570   74.7090 C   0  0  0  0  0  0  0  0  0  0  0  0
   -1.4860   57.9690   75.2650 C   0  0  0  0  0  0  0  0  0  0  0  0
   -2.2880   59.1600   74.6970 C   0  0  0  0  0  0  0  0  0  0  0  0
   -1.2390   60.1510   74.2610 N   0  0  1  0  0  4  0  0  0  0  0  0
   -0.1200   59.3050   73.7660 C   0  0  1  0  0  0  0  0  0  0  0  0
    1.1790   60.1110   73.7510 C   0  0  1  0  0  0  0  0  0  0  0  0
    2.3190   59.1090   73.4190 C   0  0  2  0  0  0  0  0  0  0  0  0
    0.9680   61.3460   72.8780 C   0  0  0  0  0  0  0  0  0  0  0  0
    2.0660   62.0440   72.3480 C   0  0  0  0  0  0  0  0  0  0  0  0
    1.8260   63.1830   71.6070 C   0  0  0  0  0  0  0  0  0  0  0  0
    2.7740   63.9620   71.0240 O   0  0  0  0  0  0  0  0  0  0  0  0
    1.9560   64.9710   70.3940 C   0  0  0  0  0  0  0  0  0  0  0  0
    0.5430   64.7850   70.6360 O   0  0  0  0  0  0  0  0  0  0  0  0
    0.5580   63.6550   71.3890 C   0  0  0  0  0  0  0  0  0  0  0  0
   -0.5530   63.0240   71.9060 C   0  0  0  0  0  0  0  0  0  0  0  0
   -0.3600   61.8630   72.6750 C   0  0  0  0  0  0  0  0  0  0  0  0
   -1.5920   61.1710   73.2340 C   0  0  0  0  0  0  0  0  0  0  0  0
    3.1050   58.5020   75.6710 O   0  0  0  0  0  0  0  0  0  0  0  0
    3.3920   57.8590   77.9140 C   0  0  0  0  0  0  0  0  0  0  0  0
    3.6470   57.5410   76.4730 C   0  0  0  0  0  0  0  0  0  0  0  0
    4.2620   56.5670   76.0710 O   0  0  0  0  0  0  0  0  0  0  0  0
    2.0240   58.4510   72.1610 O   0  0  0  0  0  0  0  0  0  0  0  0
    3.0870   58.1500   71.3690 C   0  0  0  0  0  0  0  0  0  0  0  0
    3.4560   57.0270   71.0780 O   0  0  0  0  0  0  0  0  0  0  0  0
    3.7910   59.3890   70.9520 C   0  0  0  0  0  0  0  0  0  0  0  0
    4.8200   59.9610   71.7140 C   0  0  0  0  0  0  0  0  0  0  0  0
    5.4500   61.1280   71.2740 C   0  0  0  0  0  0  0  0  0  0  0  0
    5.0550   61.7260   70.0770 C   0  0  0  0  0  0  0  0  0  0  0  0
    4.0280   61.1660   69.3190 C   0  0  0  0  0  0  0  0  0  0  0  0
    3.3940   60.0020   69.7550 C   0  0  0  0  0  0  0  0  0  0  0  0
    2.8891   57.1455   74.0285 H   0  0  0  0  0  0  0  0  0  0  0  0
    1.0039   56.7315   75.7901 H   0  0  0  0  0  0  0  0  0  0  0  0
   -1.9152   57.0137   74.9285 H   0  0  0  0  0  0  0  0  0  0  0  0
   -1.4975   57.9395   76.3645 H   0  0  0  0  0  0  0  0  0  0  0  0
   -2.9016   58.8422   73.8412 H   0  0  0  0  0  0  0  0  0  0  0  0
   -2.9827   59.5857   75.4361 H   0  0  0  0  0  0  0  0  0  0  0  0
   -1.0388   60.7514   75.0736 H   0  0  0  0  0  0  0  0  0  0  0  0
   -0.2378   58.9552   72.7298 H   0  0  0  0  0  0  0  0  0  0  0  0
    1.4919   60.5584   74.7059 H   0  0  0  0  0  0  0  0  0  0  0  0
    3.2679   59.6628   73.3657 H   0  0  0  0  0  0  0  0  0  0  0  0
    3.0934   61.6906   72.5198 H   0  0  0  0  0  0  0  0  0  0  0  0
    2.2518   65.9560   70.7843 H   0  0  0  0  0  0  0  0  0  0  0  0
    2.1167   64.8942   69.3085 H   0  0  0  0  0  0  0  0  0  0  0  0
   -1.5633   63.4181   71.7219 H   0  0  0  0  0  0  0  0  0  0  0  0
   -2.1262   60.6756   72.4099 H   0  0  0  0  0  0  0  0  0  0  0  0
   -2.2228   61.9337   73.7141 H   0  0  0  0  0  0  0  0  0  0  0  0
    3.9539   57.1583   78.5491 H   0  0  0  0  0  0  0  0  0  0  0  0
    3.7181   58.8880   78.1257 H   0  0  0  0  0  0  0  0  0  0  0  0
    2.3167   57.7643   78.1257 H   0  0  0  0  0  0  0  0  0  0  0  0
    5.1313   59.4908   72.6585 H   0  0  0  0  0  0  0  0  0  0  0  0
    6.2578   61.5755   71.8717 H   0  0  0  0  0  0  0  0  0  0  0  0
    5.5555   62.6422   69.7304 H   0  0  0  0  0  0  0  0  0  0  0  0
    3.7173   61.6417   68.3771 H   0  0  0  0  0  0  0  0  0  0  0  0
    2.5805   59.5640   69.1580 H   0  0  0  0  0  0  0  0  0  0  0  0
  2  1  1  0
  3  2  2  0
  4  3  1  0
  5  4  1  0
  6  5  1  0
  7  6  1  0
  7  3  1  0
  8  7  1  0
  9  8  1  0
  9  1  1  0
 10  8  1  0
 11 10  2  0
 12 11  1  0
 13 12  1  0
 14 13  1  0
 15 14  1  0
 16 15  1  0
 16 12  2  0
 17 16  1  0
 18 17  2  0
 18 10  1  0
 19  6  1  0
 19 18  1  0
 20  1  1  0
 22 21  1  0
 22 20  1  0
 23 22  2  0
 24  9  1  0
 25 24  1  0
 26 25  2  0
 27 25  1  0
 28 27  2  0
 29 28  1  0
 30 29  2  0
 31 30  1  0
 32 27  1  0
 32 31  2  0
  1 33  1  6
  2 34  1  0
  4 35  1  0
  4 36  1  0
  5 37  1  0
  5 38  1  0
  6 39  1  1
  7 40  1  6
  8 41  1  1
  9 42  1  6
 11 43  1  0
 14 44  1  0
 14 45  1  0
 17 46  1  0
 19 47  1  0
 19 48  1  0
 21 49  1  0
 21 50  1  0
 21 51  1  0
 28 52  1  0
 29 53  1  0
 30 54  1  0
 31 55  1  0
 32 56  1  0
M  CHG  1   6   1
M  END
>  <score>  (4) 
-8.715

$$$$
=
     RDKit          3D

 56 61  0  0  0  0  0  0  0  0999 V2000
    1.9330   68.8370   64.8630 C   0  0  1  0  0  0  0  0  0  0  0  0
    0.5450   69.1740   64.3300 C   0  0  0  0  0  0  0  0  0  0  0  0
   -0.5690   68.9700   65.0460 C   0  0  0  0  0  0  0  0  0  0  0  0
   -2.0050   69.0890   64.6210 C   0  0  0  0  0  0  0  0  0  0  0  0
   -2.7950   68.3970   65.7520 C   0  0  0  0  0  0  0  0  0  0  0  0
   -1.7700   67.5600   66.4740 N   0  0  1  0  0  4  0  0  0  0  0  0
   -0.5230   68.3680   66.4040 C   0  0  1  0  0  0  0  0  0  0  0  0
    0.6940   67.4750   66.6420 C   0  0  1  0  0  0  0  0  0  0  0  0
    1.9470   68.3470   66.3550 C   0  0  2  0  0  0  0  0  0  0  0  0
    0.5320   66.7930   67.9990 C   0  0  0  0  0  0  0  0  0  0  0  0
    1.6430   66.2500   68.6650 C   0  0  0  0  0  0  0  0  0  0  0  0
    1.4390   65.5990   69.8640 C   0  0  0  0  0  0  0  0  0  0  0  0
    2.4050   65.0290   70.6300 O   0  0  0  0  0  0  0  0  0  0  0  0
    1.6240   64.5270   71.7350 C   0  0  0  0  0  0  0  0  0  0  0  0
    0.2100   64.7870   71.5920 O   0  0  0  0  0  0  0  0  0  0  0  0
    0.1900   65.4570   70.4100 C   0  0  0  0  0  0  0  0  0  0  0  0
   -0.9370   65.9480   69.7880 C   0  0  0  0  0  0  0  0  0  0  0  0
   -0.7820   66.6120   68.5580 C   0  0  0  0  0  0  0  0  0  0  0  0
   -2.0300   67.1560   67.8850 C   0  0  0  0  0  0  0  0  0  0  0  0
    2.4040   67.7840   64.0020 O   0  0  0  0  0  0  0  0  0  0  0  0
    4.3500   68.7770   63.1370 C   0  0  0  0  0  0  0  0  0  0  0  0
    2.9930   68.2140   62.8490 C   0  0  0  0  0  0  0  0  0  0  0  0
    2.4790   68.1580   61.7440 O   0  0  0  0  0  0  0  0  0  0  0  0
    1.9130   69.5250   67.1990 O   0  0  0  0  0  0  0  0  0  0  0  0
    2.7310   69.5190   68.2840 C   0  0  0  0  0  0  0  0  0  0  0  0
    2.4090   69.1910   69.4120 O   0  0  0  0  0  0  0  0  0  0  0  0
    4.0750   70.0350   67.9230 C   0  0  0  0  0  0  0  0  0  0  0  0
    4.8500   70.7980   68.8080 C   0  0  0  0  0  0  0  0  0  0  0  0
    6.1100   71.2570   68.4170 C   0  0  0  0  0  0  0  0  0  0  0  0
    6.5990   70.9600   67.1450 C   0  0  0  0  0  0  0  0  0  0  0  0
    5.8300   70.2090   66.2580 C   0  0  0  0  0  0  0  0  0  0  0  0
    4.5700   69.7480   66.6430 C   0  0  0  0  0  0  0  0  0  0  0  0
    2.5628   69.7389   64.8605 H   0  0  0  0  0  0  0  0  0  0  0  0
    0.4547   69.6005   63.3201 H   0  0  0  0  0  0  0  0  0  0  0  0
   -2.2985   70.1452   64.5303 H   0  0  0  0  0  0  0  0  0  0  0  0
   -2.1918   68.6331   63.6375 H   0  0  0  0  0  0  0  0  0  0  0  0
   -3.2355   69.1424   66.4305 H   0  0  0  0  0  0  0  0  0  0  0  0
   -3.6312   67.7939   65.3685 H   0  0  0  0  0  0  0  0  0  0  0  0
   -1.7522   66.6420   66.0073 H   0  0  0  0  0  0  0  0  0  0  0  0
   -0.4441   69.1500   67.1736 H   0  0  0  0  0  0  0  0  0  0  0  0
    0.8119   66.6142   65.9674 H   0  0  0  0  0  0  0  0  0  0  0  0
    2.8457   67.7437   66.5510 H   0  0  0  0  0  0  0  0  0  0  0  0
    2.6534   66.3418   68.2399 H   0  0  0  0  0  0  0  0  0  0  0  0
    1.7750   63.4397   71.8054 H   0  0  0  0  0  0  0  0  0  0  0  0
    1.9641   65.0487   72.6417 H   0  0  0  0  0  0  0  0  0  0  0  0
   -1.9315   65.8240   70.2414 H   0  0  0  0  0  0  0  0  0  0  0  0
   -2.3831   68.0334   68.4467 H   0  0  0  0  0  0  0  0  0  0  0  0
   -2.7878   66.3587   67.8770 H   0  0  0  0  0  0  0  0  0  0  0  0
    4.4981   68.8384   64.2253 H   0  0  0  0  0  0  0  0  0  0  0  0
    5.1187   68.1235   62.6987 H   0  0  0  0  0  0  0  0  0  0  0  0
    4.4303   69.7827   62.6987 H   0  0  0  0  0  0  0  0  0  0  0  0
    4.4655   71.0353   69.8109 H   0  0  0  0  0  0  0  0  0  0  0  0
    6.7175   71.8536   69.1134 H   0  0  0  0  0  0  0  0  0  0  0  0
    7.5934   71.3192   66.8414 H   0  0  0  0  0  0  0  0  0  0  0  0
    6.2162   69.9794   65.2539 H   0  0  0  0  0  0  0  0  0  0  0  0
    3.9636   69.1578   65.9401 H   0  0  0  0  0  0  0  0  0  0  0  0
  2  1  1  0
  3  2  2  0
  4  3  1  0
  5  4  1  0
  6  5  1  0
  7  6  1  0
  7  3  1  0
  8  7  1  0
  9  8  1  0
  9  1  1  0
 10  8  1  0
 11 10  2  0
 12 11  1  0
 13 12  1  0
 14 13  1  0
 15 14  1  0
 16 15  1  0
 16 12  2  0
 17 16  1  0
 18 17  2  0
 18 10  1  0
 19  6  1  0
 19 18  1  0
 20  1  1  0
 22 21  1  0
 22 20  1  0
 23 22  2  0
 24  9  1  0
 25 24  1  0
 26 25  2  0
 27 25  1  0
 28 27  2  0
 29 28  1  0
 30 29  2  0
 31 30  1  0
 32 27  1  0
 32 31  2  0
  1 33  1  1
  2 34  1  0
  4 35  1  0
  4 36  1  0
  5 37  1  0
  5 38  1  0
  6 39  1  6
  7 40  1  1
  8 41  1  6
  9 42  1  1
 11 43  1  0
 14 44  1  0
 14 45  1  0
 17 46  1  0
 19 47  1  0
 19 48  1  0
 21 49  1  0
 21 50  1  0
 21 51  1  0
 28 52  1  0
 29 53  1  0
 30 54  1  0
 31 55  1  0
 32 56  1  0
M  CHG  1   6   1
M  END
>  <score>  (5) 
-8.613

$$$$
=
     RDKit          3D

 56 61  0  0  0  0  0  0  0  0999 V2000
    1.2950   63.3210   72.9360 C   0  0  1  0  0  0  0  0  0  0  0  0
    0.8870   64.0110   74.2330 C   0  0  0  0  0  0  0  0  0  0  0  0
    0.8410   63.3660   75.4070 C   0  0  0  0  0  0  0  0  0  0  0  0
    0.3110   63.8420   76.7300 C   0  0  0  0  0  0  0  0  0  0  0  0
    0.2090   62.5580   77.5830 C   0  0  0  0  0  0  0  0  0  0  0  0
    0.2400   61.4340   76.5790 N   0  0  1  0  0  4  0  0  0  0  0  0
    1.1590   61.9190   75.5140 C   0  0  1  0  0  0  0  0  0  0  0  0
    0.9220   61.1380   74.2220 C   0  0  1  0  0  0  0  0  0  0  0  0
    1.7680   61.8350   73.1210 C   0  0  2  0  0  0  0  0  0  0  0  0
    1.1220   59.6520   74.5150 C   0  0  0  0  0  0  0  0  0  0  0  0
    1.3740   58.7440   73.4720 C   0  0  0  0  0  0  0  0  0  0  0  0
    1.4970   57.4060   73.7810 C   0  0  0  0  0  0  0  0  0  0  0  0
    1.7460   56.4080   72.8930 O   0  0  0  0  0  0  0  0  0  0  0  0
    1.7790   55.2600   73.7660 C   0  0  0  0  0  0  0  0  0  0  0  0
    1.5250   55.5940   75.1490 O   0  0  0  0  0  0  0  0  0  0  0  0
    1.3670   56.9410   75.0640 C   0  0  0  0  0  0  0  0  0  0  0  0
    1.0960   57.7830   76.1200 C   0  0  0  0  0  0  0  0  0  0  0  0
    0.9530   59.1560   75.8550 C   0  0  0  0  0  0  0  0  0  0  0  0
    0.6630   60.0770   77.0280 C   0  0  0  0  0  0  0  0  0  0  0  0
    0.1090   63.3540   72.1210 O   0  0  0  0  0  0  0  0  0  0  0  0
    1.4410   64.7880   70.8190 C   0  0  0  0  0  0  0  0  0  0  0  0
    0.3070   63.8100   70.8510 C   0  0  0  0  0  0  0  0  0  0  0  0
   -0.3550   63.4760   69.8820 O   0  0  0  0  0  0  0  0  0  0  0  0
    3.1560   61.8690   73.5360 O   0  0  0  0  0  0  0  0  0  0  0  0
    4.0490   61.2390   72.7280 C   0  0  0  0  0  0  0  0  0  0  0  0
    4.8710   60.4160   73.0880 O   0  0  0  0  0  0  0  0  0  0  0  0
    3.9310   61.7400   71.3350 C   0  0  0  0  0  0  0  0  0  0  0  0
    3.0640   61.1580   70.3990 C   0  0  0  0  0  0  0  0  0  0  0  0
    2.9910   61.6700   69.1010 C   0  0  0  0  0  0  0  0  0  0  0  0
    3.7810   62.7590   68.7340 C   0  0  0  0  0  0  0  0  0  0  0  0
    4.6500   63.3370   69.6590 C   0  0  0  0  0  0  0  0  0  0  0  0
    4.7280   62.8290   70.9560 C   0  0  0  0  0  0  0  0  0  0  0  0
    2.1609   63.8368   72.4953 H   0  0  0  0  0  0  0  0  0  0  0  0
    0.6205   65.0778   74.2041 H   0  0  0  0  0  0  0  0  0  0  0  0
    1.0029   64.5623   77.1909 H   0  0  0  0  0  0  0  0  0  0  0  0
   -0.6539   64.3615   76.6345 H   0  0  0  0  0  0  0  0  0  0  0  0
    1.0596   62.4834   78.2765 H   0  0  0  0  0  0  0  0  0  0  0  0
   -0.6990   62.5393   78.2036 H   0  0  0  0  0  0  0  0  0  0  0  0
   -0.7354   61.2554   76.3005 H   0  0  0  0  0  0  0  0  0  0  0  0
    2.2269   61.7706   75.7323 H   0  0  0  0  0  0  0  0  0  0  0  0
   -0.1008   61.1540   73.8174 H   0  0  0  0  0  0  0  0  0  0  0  0
    1.6479   61.2766   72.1809 H   0  0  0  0  0  0  0  0  0  0  0  0
    1.4708   59.0929   72.4333 H   0  0  0  0  0  0  0  0  0  0  0  0
    1.0137   54.5438   73.4322 H   0  0  0  0  0  0  0  0  0  0  0  0
    2.7918   54.8344   73.7113 H   0  0  0  0  0  0  0  0  0  0  0  0
    0.9943   57.3915   77.1429 H   0  0  0  0  0  0  0  0  0  0  0  0
    1.5730   60.1722   77.6386 H   0  0  0  0  0  0  0  0  0  0  0  0
   -0.1613   59.6384   77.6096 H   0  0  0  0  0  0  0  0  0  0  0  0
    1.7354   65.0419   71.8480 H   0  0  0  0  0  0  0  0  0  0  0  0
    2.2968   64.3400   70.2927 H   0  0  0  0  0  0  0  0  0  0  0  0
    1.1236   65.7003   70.2927 H   0  0  0  0  0  0  0  0  0  0  0  0
    2.4412   60.2982   70.6867 H   0  0  0  0  0  0  0  0  0  0  0  0
    2.3097   61.2136   68.3679 H   0  0  0  0  0  0  0  0  0  0  0  0
    3.7186   63.1629   67.7128 H   0  0  0  0  0  0  0  0  0  0  0  0
    5.2743   64.1939   69.3658 H   0  0  0  0  0  0  0  0  0  0  0  0
    5.4167   63.2842   71.6830 H   0  0  0  0  0  0  0  0  0  0  0  0
  2  1  1  0
  3  2  2  0
  4  3  1  0
  5  4  1  0
  6  5  1  0
  7  6  1  0
  7  3  1  0
  8  7  1  0
  9  8  1  0
  9  1  1  0
 10  8  1  0
 11 10  2  0
 12 11  1  0
 13 12  1  0
 14 13  1  0
 15 14  1  0
 16 15  1  0
 16 12  2  0
 17 16  1  0
 18 17  2  0
 18 10  1  0
 19  6  1  0
 19 18  1  0
 20  1  1  0
 22 21  1  0
 22 20  1  0
 23 22  2  0
 24  9  1  0
 25 24  1  0
 26 25  2  0
 27 25  1  0
 28 27  2  0
 29 28  1  0
 30 29  2  0
 31 30  1  0
 32 27  1  0
 32 31  2  0
  1 33  1  6
  2 34  1  0
  4 35  1  0
  4 36  1  0
  5 37  1  0
  5 38  1  0
  6 39  1  6
  7 40  1  1
  8 41  1  6
  9 42  1  6
 11 43  1  0
 14 44  1  0
 14 45  1  0
 17 46  1  0
 19 47  1  0
 19 48  1  0
 21 49  1  0
 21 50  1  0
 21 51  1  0
 28 52  1  0
 29 53  1  0
 30 54  1  0
 31 55  1  0
 32 56  1  0
M  CHG  1   6   1
M  END
>  <score>  (6) 
-8.565

$$$$
