=
     RDKit          3D

 19 20  0  0  0  0  0  0  0  0999 V2000
    5.6320   69.3920   63.7510 O   0  0  0  0  0  0  0  0  0  0  0  0
    5.2570   69.5840   64.8860 C   0  0  0  0  0  0  0  0  0  0  0  0
    5.9840   70.0780   65.9520 N   0  0  0  0  0  0  0  0  0  0  0  0
    5.2000   70.1540   67.1030 C   0  0  0  0  0  0  0  0  0  0  0  0
    3.9000   69.7120   66.8570 C   0  0  0  0  0  0  0  0  0  0  0  0
    3.8340   69.3190   65.4470 C   0  0  0  0  0  0  0  0  0  0  0  0
    2.8770   68.8820   64.8520 O   0  0  0  0  0  0  0  0  0  0  0  0
    2.9220   69.6840   67.8290 C   0  0  0  0  0  0  0  0  0  0  0  0
    3.2860   70.1270   69.1000 C   0  0  0  0  0  0  0  0  0  0  0  0
    4.5980   70.5780   69.3610 C   0  0  0  0  0  0  0  0  0  0  0  0
    5.5830   70.5990   68.3580 C   0  0  0  0  0  0  0  0  0  0  0  0
    6.9710   71.0790   68.6450 C   0  0  0  0  0  0  0  0  0  0  0  0
    6.9751   70.3540   65.9031 H   0  0  0  0  0  0  0  0  0  0  0  0
    1.9037   69.3292   67.6120 H   0  0  0  0  0  0  0  0  0  0  0  0
    2.5414   70.1250   69.9096 H   0  0  0  0  0  0  0  0  0  0  0  0
    4.8559   70.9213   70.3737 H   0  0  0  0  0  0  0  0  0  0  0  0
    7.1231   71.1316   69.7332 H   0  0  0  0  0  0  0  0  0  0  0  0
    7.6986   70.3803   68.2064 H   0  0  0  0  0  0  0  0  0  0  0  0
    7.1115   72.0779   68.2064 H   0  0  0  0  0  0  0  0  0  0  0  0
  2  1  2  0
  3  2  1  0
  4  3  1  0
  5  4  2  0
  6  2  1  0
  6  5  1  0
  7  6  2  0
  8  5  1  0
  9  8  2  0
 10  9  1  0
 11 10  2  0
 11  4  1  0
 12 11  1  0
  3 13  1  0
  8 14  1  0
  9 15  1  0
 10 16  1  0
 12 17  1  0
 12 18  1  0
 12 19  1  0
M  END
>  <score>  (1) 
-8.235

$$$$
=
     RDKit          3D

 19 20  0  0  0  0  0  0  0  0999 V2000
    7.1220   71.4990   68.7960 O   0  0  0  0  0  0  0  0  0  0  0  0
    6.2070   70.9720   68.2020 C   0  0  0  0  0  0  0  0  0  0  0  0
    6.1640   70.5780   66.8790 N   0  0  0  0  0  0  0  0  0  0  0  0
    4.9320   70.0060   66.5640 C   0  0  0  0  0  0  0  0  0  0  0  0
    4.0860   69.9910   67.6730 C   0  0  0  0  0  0  0  0  0  0  0  0
    4.8190   70.5960   68.7870 C   0  0  0  0  0  0  0  0  0  0  0  0
    4.4260   70.7650   69.9180 O   0  0  0  0  0  0  0  0  0  0  0  0
    2.8060   69.4800   67.6320 C   0  0  0  0  0  0  0  0  0  0  0  0
    2.3740   68.9620   66.4110 C   0  0  0  0  0  0  0  0  0  0  0  0
    3.2210   68.9710   65.2820 C   0  0  0  0  0  0  0  0  0  0  0  0
    4.5240   69.4970   65.3420 C   0  0  0  0  0  0  0  0  0  0  0  0
    5.4140   69.5020   64.1390 C   0  0  0  0  0  0  0  0  0  0  0  0
    6.9406   70.6918   66.2121 H   0  0  0  0  0  0  0  0  0  0  0  0
    2.1565   69.4808   68.5198 H   0  0  0  0  0  0  0  0  0  0  0  0
    1.3610   68.5414   66.3270 H   0  0  0  0  0  0  0  0  0  0  0  0
    2.8530   68.5565   64.3319 H   0  0  0  0  0  0  0  0  0  0  0  0
    6.4658   69.5079   64.4611 H   0  0  0  0  0  0  0  0  0  0  0  0
    5.2203   68.6028   63.5358 H   0  0  0  0  0  0  0  0  0  0  0  0
    5.2102   70.3990   63.5358 H   0  0  0  0  0  0  0  0  0  0  0  0
  2  1  2  0
  3  2  1  0
  4  3  1  0
  5  4  2  0
  6  2  1  0
  6  5  1  0
  7  6  2  0
  8  5  1  0
  9  8  2  0
 10  9  1  0
 11 10  2  0
 11  4  1  0
 12 11  1  0
  3 13  1  0
  8 14  1  0
  9 15  1  0
 10 16  1  0
 12 17  1  0
 12 18  1  0
 12 19  1  0
M  END
>  <score>  (2) 
-7.999

$$$$
=
     RDKit          3D

 19 20  0  0  0  0  0  0  0  0999 V2000
    3.7330   70.8390   69.9990 O   0  0  0  0  0  0  0  0  0  0  0  0
    3.8650   70.4430   68.8620 C   0  0  0  0  0  0  0  0  0  0  0  0
    2.9210   69.8410   68.0550 N   0  0  0  0  0  0  0  0  0  0  0  0
    3.4540   69.5260   66.8050 C   0  0  0  0  0  0  0  0  0  0  0  0
    4.7930   69.9080   66.7190 C   0  0  0  0  0  0  0  0  0  0  0  0
    5.1560   70.5120   68.0030 C   0  0  0  0  0  0  0  0  0  0  0  0
    6.2300   70.9660   68.3210 O   0  0  0  0  0  0  0  0  0  0  0  0
    5.5570   69.7090   65.5880 C   0  0  0  0  0  0  0  0  0  0  0  0
    4.9280   69.0990   64.5030 C   0  0  0  0  0  0  0  0  0  0  0  0
    3.5730   68.7090   64.5780 C   0  0  0  0  0  0  0  0  0  0  0  0
    2.8090   68.9190   65.7400 C   0  0  0  0  0  0  0  0  0  0  0  0
    1.3740   68.5020   65.8080 C   0  0  0  0  0  0  0  0  0  0  0  0
    1.9496   69.6493   68.3387 H   0  0  0  0  0  0  0  0  0  0  0  0
    6.6121   70.0168   65.5439 H   0  0  0  0  0  0  0  0  0  0  0  0
    5.4945   68.9195   63.5773 H   0  0  0  0  0  0  0  0  0  0  0  0
    3.1036   68.2293   63.7065 H   0  0  0  0  0  0  0  0  0  0  0  0
    1.0675   68.4129   66.8607 H   0  0  0  0  0  0  0  0  0  0  0  0
    0.7490   69.2557   65.3067 H   0  0  0  0  0  0  0  0  0  0  0  0
    1.2503   67.5307   65.3067 H   0  0  0  0  0  0  0  0  0  0  0  0
  2  1  2  0
  3  2  1  0
  4  3  1  0
  5  4  2  0
  6  2  1  0
  6  5  1  0
  7  6  2  0
  8  5  1  0
  9  8  2  0
 10  9  1  0
 11 10  2  0
 11  4  1  0
 12 11  1  0
  3 13  1  0
  8 14  1  0
  9 15  1  0
 10 16  1  0
 12 17  1  0
 12 18  1  0
 12 19  1  0
M  END
>  <score>  (3) 
-7.743

$$$$
=
     RDKit          3D

 19 20  0  0  0  0  0  0  0  0999 V2000
    0.2000   67.9060   65.0320 O   0  0  0  0  0  0  0  0  0  0  0  0
    1.2300   68.3770   65.4590 C   0  0  0  0  0  0  0  0  0  0  0  0
    2.4150   68.5910   64.7820 N   0  0  0  0  0  0  0  0  0  0  0  0
    3.3780   69.1530   65.6190 C   0  0  0  0  0  0  0  0  0  0  0  0
    2.8770   69.3440   66.9060 C   0  0  0  0  0  0  0  0  0  0  0  0
    1.4910   68.8710   66.9070 C   0  0  0  0  0  0  0  0  0  0  0  0
    0.7180   68.8680   67.8370 O   0  0  0  0  0  0  0  0  0  0  0  0
    3.6270   69.8850   67.9290 C   0  0  0  0  0  0  0  0  0  0  0  0
    4.9390   70.2470   67.6250 C   0  0  0  0  0  0  0  0  0  0  0  0
    5.4570   70.0600   66.3250 C   0  0  0  0  0  0  0  0  0  0  0  0
    4.6780   69.5050   65.2940 C   0  0  0  0  0  0  0  0  0  0  0  0
    5.2380   69.3110   63.9200 C   0  0  0  0  0  0  0  0  0  0  0  0
    2.5672   68.3649   63.7887 H   0  0  0  0  0  0  0  0  0  0  0  0
    3.2100   70.0244   68.9373 H   0  0  0  0  0  0  0  0  0  0  0  0
    5.5777   70.6833   68.4071 H   0  0  0  0  0  0  0  0  0  0  0  0
    6.4952   70.3556   66.1134 H   0  0  0  0  0  0  0  0  0  0  0  0
    6.2750   68.9517   63.9941 H   0  0  0  0  0  0  0  0  0  0  0  0
    4.6313   68.5707   63.3779 H   0  0  0  0  0  0  0  0  0  0  0  0
    5.2193   70.2680   63.3779 H   0  0  0  0  0  0  0  0  0  0  0  0
  2  1  2  0
  3  2  1  0
  4  3  1  0
  5  4  2  0
  6  2  1  0
  6  5  1  0
  7  6  2  0
  8  5  1  0
  9  8  2  0
 10  9  1  0
 11 10  2  0
 11  4  1  0
 12 11  1  0
  3 13  1  0
  8 14  1  0
  9 15  1  0
 10 16  1  0
 12 17  1  0
 12 18  1  0
 12 19  1  0
M  END
>  <score>  (4) 
-7.733

$$$$
=
     RDKit          3D

 19 20  0  0  0  0  0  0  0  0999 V2000
    0.5740   67.9870   63.2050 O   0  0  0  0  0  0  0  0  0  0  0  0
    1.5240   68.3710   63.8500 C   0  0  0  0  0  0  0  0  0  0  0  0
    1.5780   68.6550   65.2010 N   0  0  0  0  0  0  0  0  0  0  0  0
    2.8540   69.0730   65.5760 C   0  0  0  0  0  0  0  0  0  0  0  0
    3.7200   69.0870   64.4840 C   0  0  0  0  0  0  0  0  0  0  0  0
    2.9540   68.6480   63.3150 C   0  0  0  0  0  0  0  0  0  0  0  0
    3.3520   68.5290   62.1810 O   0  0  0  0  0  0  0  0  0  0  0  0
    5.0440   69.4630   64.5820 C   0  0  0  0  0  0  0  0  0  0  0  0
    5.4990   69.8370   65.8460 C   0  0  0  0  0  0  0  0  0  0  0  0
    4.6320   69.8270   66.9600 C   0  0  0  0  0  0  0  0  0  0  0  0
    3.2840   69.4410   66.8410 C   0  0  0  0  0  0  0  0  0  0  0  0
    2.3730   69.4340   68.0280 C   0  0  0  0  0  0  0  0  0  0  0  0
    0.7800   68.5691   65.8466 H   0  0  0  0  0  0  0  0  0  0  0  0
    5.7085   69.4675   63.7054 H   0  0  0  0  0  0  0  0  0  0  0  0
    6.5472   70.1438   65.9767 H   0  0  0  0  0  0  0  0  0  0  0  0
    5.0193   70.1281   67.9445 H   0  0  0  0  0  0  0  0  0  0  0  0
    2.9724   69.4386   68.9503 H   0  0  0  0  0  0  0  0  0  0  0  0
    1.7315   70.3272   68.0032 H   0  0  0  0  0  0  0  0  0  0  0  0
    1.7453   68.5310   68.0032 H   0  0  0  0  0  0  0  0  0  0  0  0
  2  1  2  0
  3  2  1  0
  4  3  1  0
  5  4  2  0
  6  2  1  0
  6  5  1  0
  7  6  2  0
  8  5  1  0
  9  8  2  0
 10  9  1  0
 11 10  2  0
 11  4  1  0
 12 11  1  0
  3 13  1  0
  8 14  1  0
  9 15  1  0
 10 16  1  0
 12 17  1  0
 12 18  1  0
 12 19  1  0
M  END
>  <score>  (5) 
-7.617

$$$$
=
     RDKit          3D

 19 20  0  0  0  0  0  0  0  0999 V2000
   -0.4250   68.4270   67.6350 O   0  0  0  0  0  0  0  0  0  0  0  0
    0.7070   68.7150   67.3140 C   0  0  0  0  0  0  0  0  0  0  0  0
    1.6810   69.3230   68.0800 N   0  0  0  0  0  0  0  0  0  0  0  0
    2.8610   69.4890   67.3550 C   0  0  0  0  0  0  0  0  0  0  0  0
    2.7280   68.9930   66.0590 C   0  0  0  0  0  0  0  0  0  0  0  0
    1.3670   68.4700   65.9310 C   0  0  0  0  0  0  0  0  0  0  0  0
    0.8670   67.9570   64.9570 O   0  0  0  0  0  0  0  0  0  0  0  0
    3.7500   69.0340   65.1330 C   0  0  0  0  0  0  0  0  0  0  0  0
    4.9540   69.6020   65.5490 C   0  0  0  0  0  0  0  0  0  0  0  0
    5.1000   70.1070   66.8600 C   0  0  0  0  0  0  0  0  0  0  0  0
    4.0470   70.0570   67.7910 C   0  0  0  0  0  0  0  0  0  0  0  0
    4.2130   70.5950   69.1770 C   0  0  0  0  0  0  0  0  0  0  0  0
    1.5532   69.6159   69.0592 H   0  0  0  0  0  0  0  0  0  0  0  0
    3.6213   68.6376   64.1150 H   0  0  0  0  0  0  0  0  0  0  0  0
    5.7998   69.6573   64.8479 H   0  0  0  0  0  0  0  0  0  0  0  0
    6.0609   70.5503   67.1602 H   0  0  0  0  0  0  0  0  0  0  0  0
    3.9704   69.8087   69.9070 H   0  0  0  0  0  0  0  0  0  0  0  0
    5.2536   70.9211   69.3216 H   0  0  0  0  0  0  0  0  0  0  0  0
    3.5371   71.4507   69.3216 H   0  0  0  0  0  0  0  0  0  0  0  0
  2  1  2  0
  3  2  1  0
  4  3  1  0
  5  4  2  0
  6  2  1  0
  6  5  1  0
  7  6  2  0
  8  5  1  0
  9  8  2  0
 10  9  1  0
 11 10  2  0
 11  4  1  0
 12 11  1  0
  3 13  1  0
  8 14  1  0
  9 15  1  0
 10 16  1  0
 12 17  1  0
 12 18  1  0
 12 19  1  0
M  END
>  <score>  (6) 
-7.592

$$$$
=
     RDKit          3D

 19 20  0  0  0  0  0  0  0  0999 V2000
    3.3910   63.4760   64.2700 O   0  0  0  0  0  0  0  0  0  0  0  0
    3.3770   64.6750   64.4360 C   0  0  0  0  0  0  0  0  0  0  0  0
    2.6150   65.4030   65.3280 N   0  0  0  0  0  0  0  0  0  0  0  0
    2.8810   66.7680   65.2200 C   0  0  0  0  0  0  0  0  0  0  0  0
    3.8410   67.0170   64.2400 C   0  0  0  0  0  0  0  0  0  0  0  0
    4.2280   65.7240   63.6710 C   0  0  0  0  0  0  0  0  0  0  0  0
    5.0350   65.5210   62.7950 O   0  0  0  0  0  0  0  0  0  0  0  0
    4.2850   68.2870   63.9320 C   0  0  0  0  0  0  0  0  0  0  0  0
    3.7250   69.3410   64.6530 C   0  0  0  0  0  0  0  0  0  0  0  0
    2.7530   69.1010   65.6470 C   0  0  0  0  0  0  0  0  0  0  0  0
    2.3120   67.8000   65.9490 C   0  0  0  0  0  0  0  0  0  0  0  0
    1.2800   67.5570   67.0050 C   0  0  0  0  0  0  0  0  0  0  0  0
    1.9386   64.9919   65.9870 H   0  0  0  0  0  0  0  0  0  0  0  0
    5.0443   68.4595   63.1550 H   0  0  0  0  0  0  0  0  0  0  0  0
    4.0451   70.3725   64.4442 H   0  0  0  0  0  0  0  0  0  0  0  0
    2.3295   69.9526   66.1996 H   0  0  0  0  0  0  0  0  0  0  0  0
    1.7395   67.6652   67.9985 H   0  0  0  0  0  0  0  0  0  0  0  0
    0.4651   68.2878   66.8964 H   0  0  0  0  0  0  0  0  0  0  0  0
    0.8768   66.5393   66.8964 H   0  0  0  0  0  0  0  0  0  0  0  0
  2  1  2  0
  3  2  1  0
  4  3  1  0
  5  4  2  0
  6  2  1  0
  6  5  1  0
  7  6  2  0
  8  5  1  0
  9  8  2  0
 10  9  1  0
 11 10  2  0
 11  4  1  0
 12 11  1  0
  3 13  1  0
  8 14  1  0
  9 15  1  0
 10 16  1  0
 12 17  1  0
 12 18  1  0
 12 19  1  0
M  END
>  <score>  (7) 
-6.924

$$$$
=
     RDKit          3D

 19 20  0  0  0  0  0  0  0  0999 V2000
    6.3180   70.2220   66.7010 O   0  0  0  0  0  0  0  0  0  0  0  0
    5.2630   69.8380   66.2480 C   0  0  0  0  0  0  0  0  0  0  0  0
    4.0990   69.5410   66.9300 N   0  0  0  0  0  0  0  0  0  0  0  0
    3.0950   69.1270   66.0560 C   0  0  0  0  0  0  0  0  0  0  0  0
    3.5450   69.1290   64.7360 C   0  0  0  0  0  0  0  0  0  0  0  0
    4.9400   69.5740   64.7530 C   0  0  0  0  0  0  0  0  0  0  0  0
    5.6780   69.7060   63.8050 O   0  0  0  0  0  0  0  0  0  0  0  0
    2.7470   68.7600   63.6720 C   0  0  0  0  0  0  0  0  0  0  0  0
    1.4390   68.3770   63.9690 C   0  0  0  0  0  0  0  0  0  0  0  0
    0.9730   68.3730   65.3010 C   0  0  0  0  0  0  0  0  0  0  0  0
    1.8000   68.7510   66.3740 C   0  0  0  0  0  0  0  0  0  0  0  0
    1.2940   68.7420   67.7820 C   0  0  0  0  0  0  0  0  0  0  0  0
    3.9875   69.6157   67.9512 H   0  0  0  0  0  0  0  0  0  0  0  0
    3.1246   68.7676   62.6389 H   0  0  0  0  0  0  0  0  0  0  0  0
    0.7630   68.0746   63.1556 H   0  0  0  0  0  0  0  0  0  0  0  0
   -0.0635   68.0664   65.5053 H   0  0  0  0  0  0  0  0  0  0  0  0
    2.1458   68.7572   68.4778 H   0  0  0  0  0  0  0  0  0  0  0  0
    0.6661   69.6291   67.9517 H   0  0  0  0  0  0  0  0  0  0  0  0
    0.6981   67.8331   67.9517 H   0  0  0  0  0  0  0  0  0  0  0  0
  2  1  2  0
  3  2  1  0
  4  3  1  0
  5  4  2  0
  6  2  1  0
  6  5  1  0
  7  6  2  0
  8  5  1  0
  9  8  2  0
 10  9  1  0
 11 10  2  0
 11  4  1  0
 12 11  1  0
  3 13  1  0
  8 14  1  0
  9 15  1  0
 10 16  1  0
 12 17  1  0
 12 18  1  0
 12 19  1  0
M  END
>  <score>  (8) 
-6.835

$$$$
=
     RDKit          3D

 19 20  0  0  0  0  0  0  0  0999 V2000
    4.1500   66.2250   62.2990 O   0  0  0  0  0  0  0  0  0  0  0  0
    3.9880   66.9210   63.2770 C   0  0  0  0  0  0  0  0  0  0  0  0
    2.9210   66.9240   64.1530 N   0  0  0  0  0  0  0  0  0  0  0  0
    3.0990   67.8740   65.1590 C   0  0  0  0  0  0  0  0  0  0  0  0
    4.3050   68.5550   65.0000 C   0  0  0  0  0  0  0  0  0  0  0  0
    4.9570   68.0120   63.8060 C   0  0  0  0  0  0  0  0  0  0  0  0
    6.0200   68.3440   63.3380 O   0  0  0  0  0  0  0  0  0  0  0  0
    4.7230   69.5480   65.8610 C   0  0  0  0  0  0  0  0  0  0  0  0
    3.8770   69.8550   66.9270 C   0  0  0  0  0  0  0  0  0  0  0  0
    2.6540   69.1710   67.0990 C   0  0  0  0  0  0  0  0  0  0  0  0
    2.2430   68.1620   66.2100 C   0  0  0  0  0  0  0  0  0  0  0  0
    0.9440   67.4430   66.4020 C   0  0  0  0  0  0  0  0  0  0  0  0
    2.1009   66.3058   64.0742 H   0  0  0  0  0  0  0  0  0  0  0  0
    5.6783   70.0731   65.7141 H   0  0  0  0  0  0  0  0  0  0  0  0
    4.1663   70.6393   67.6420 H   0  0  0  0  0  0  0  0  0  0  0  0
    2.0070   69.4337   67.9489 H   0  0  0  0  0  0  0  0  0  0  0  0
    0.7422   67.3313   67.4776 H   0  0  0  0  0  0  0  0  0  0  0  0
    0.1327   68.0205   65.9348 H   0  0  0  0  0  0  0  0  0  0  0  0
    1.0026   66.4489   65.9348 H   0  0  0  0  0  0  0  0  0  0  0  0
  2  1  2  0
  3  2  1  0
  4  3  1  0
  5  4  2  0
  6  2  1  0
  6  5  1  0
  7  6  2  0
  8  5  1  0
  9  8  2  0
 10  9  1  0
 11 10  2  0
 11  4  1  0
 12 11  1  0
  3 13  1  0
  8 14  1  0
  9 15  1  0
 10 16  1  0
 12 17  1  0
 12 18  1  0
 12 19  1  0
M  END
>  <score>  (9) 
-6.732

$$$$
