=
     RDKit          3D

 70 71  0  0  0  0  0  0  0  0999 V2000
   -1.7960   66.6100   67.3780 C   0  0  0  0  0  0  0  0  0  0  0  0
   -2.4990   67.8740   66.8650 C   0  0  0  0  0  0  0  0  0  0  0  0
   -1.5870   68.9720   66.3020 C   0  0  0  0  0  0  0  0  0  0  0  0
   -1.2970   68.8840   64.8020 C   0  0  0  0  0  0  0  0  0  0  0  0
    2.9210   68.7040   64.0680 C   0  0  0  0  0  0  0  0  0  0  0  0
    1.9960   68.7310   63.0190 C   0  0  0  0  0  0  0  0  0  0  0  0
    0.6290   68.7950   63.2770 C   0  0  0  0  0  0  0  0  0  0  0  0
    0.1640   68.8420   64.5450 N   0  0  0  0  0  4  0  0  0  0  0  0
    1.0260   68.8000   65.5860 C   0  0  0  0  0  0  0  0  0  0  0  0
    2.4000   68.7370   65.3690 C   0  0  0  0  0  0  0  0  0  0  0  0
    4.8920   69.1390   62.4530 C   0  0  0  0  0  0  0  0  0  0  0  0
    4.4440   68.6310   63.8420 C   0  0  0  0  0  0  0  0  0  0  0  0
    5.1670   69.4930   64.8990 C   0  0  0  0  0  0  0  0  0  0  0  0
    4.9170   67.1670   63.9690 C   0  0  0  0  0  0  0  0  0  0  0  0
   -1.0830   66.7350   68.7320 C   0  0  0  0  0  0  0  0  0  0  0  0
    0.4070   67.0900   68.6730 C   0  0  0  0  0  0  0  0  0  0  0  0
    1.2480   66.6290   69.8690 C   0  0  0  0  0  0  0  0  0  0  0  0
    0.5290   65.6140   70.7560 C   0  0  0  0  0  0  0  0  0  0  0  0
    1.3220   64.3630   70.8200 N   0  0  0  0  0  4  0  0  0  0  0  0
    0.7960   63.2580   71.3900 C   0  0  0  0  0  0  0  0  0  0  0  0
    1.5260   62.0730   71.4490 C   0  0  0  0  0  0  0  0  0  0  0  0
    2.8210   61.9990   70.9160 C   0  0  0  0  0  0  0  0  0  0  0  0
    3.3290   63.1640   70.3310 C   0  0  0  0  0  0  0  0  0  0  0  0
    2.5670   64.3300   70.2910 C   0  0  0  0  0  0  0  0  0  0  0  0
    3.6180   60.6820   70.9860 C   0  0  0  0  0  0  0  0  0  0  0  0
    5.0730   60.8590   71.4760 C   0  0  0  0  0  0  0  0  0  0  0  0
    2.9220   59.7060   71.9590 C   0  0  0  0  0  0  0  0  0  0  0  0
    3.6830   60.0410   69.5830 C   0  0  0  0  0  0  0  0  0  0  0  0
   -2.5537   65.8178   67.4692 H   0  0  0  0  0  0  0  0  0  0  0  0
   -1.0036   66.3953   66.6459 H   0  0  0  0  0  0  0  0  0  0  0  0
   -3.1935   67.5720   66.0672 H   0  0  0  0  0  0  0  0  0  0  0  0
   -2.9878   68.3180   67.7447 H   0  0  0  0  0  0  0  0  0  0  0  0
   -2.0651   69.9430   66.4981 H   0  0  0  0  0  0  0  0  0  0  0  0
   -0.6168   68.8453   66.8047 H   0  0  0  0  0  0  0  0  0  0  0  0
   -1.7596   67.9710   64.3990 H   0  0  0  0  0  0  0  0  0  0  0  0
   -1.7139   69.7758   64.3113 H   0  0  0  0  0  0  0  0  0  0  0  0
    2.3523   68.7013   61.9787 H   0  0  0  0  0  0  0  0  0  0  0  0
   -0.0817   68.8075   62.4375 H   0  0  0  0  0  0  0  0  0  0  0  0
    0.6377   68.8158   66.6151 H   0  0  0  0  0  0  0  0  0  0  0  0
    3.0852   68.7128   66.2292 H   0  0  0  0  0  0  0  0  0  0  0  0
    5.6149   69.9587   62.5780 H   0  0  0  0  0  0  0  0  0  0  0  0
    5.3636   68.3159   61.8961 H   0  0  0  0  0  0  0  0  0  0  0  0
    4.0164   69.5040   61.8961 H   0  0  0  0  0  0  0  0  0  0  0  0
    4.8824   69.1537   65.9059 H   0  0  0  0  0  0  0  0  0  0  0  0
    6.2550   69.3926   64.7721 H   0  0  0  0  0  0  0  0  0  0  0  0
    4.8788   70.5470   64.7721 H   0  0  0  0  0  0  0  0  0  0  0  0
    5.0031   66.9005   65.0327 H   0  0  0  0  0  0  0  0  0  0  0  0
    4.1878   66.5026   63.4824 H   0  0  0  0  0  0  0  0  0  0  0  0
    5.8971   67.0548   63.4824 H   0  0  0  0  0  0  0  0  0  0  0  0
   -1.5936   67.5187   69.3109 H   0  0  0  0  0  0  0  0  0  0  0  0
   -1.1333   65.7355   69.1887 H   0  0  0  0  0  0  0  0  0  0  0  0
    0.8282   66.6307   67.7666 H   0  0  0  0  0  0  0  0  0  0  0  0
    0.4539   68.1890   68.6793 H   0  0  0  0  0  0  0  0  0  0  0  0
    2.1722   66.1687   69.4896 H   0  0  0  0  0  0  0  0  0  0  0  0
    1.4511   67.5163   70.4867 H   0  0  0  0  0  0  0  0  0  0  0  0
    0.4152   66.0280   71.7687 H   0  0  0  0  0  0  0  0  0  0  0  0
   -0.4636   65.3973   70.3343 H   0  0  0  0  0  0  0  0  0  0  0  0
   -0.2192   63.2937   71.8121 H   0  0  0  0  0  0  0  0  0  0  0  0
    1.0809   61.1840   71.9197 H   0  0  0  0  0  0  0  0  0  0  0  0
    4.3403   63.1595   69.8982 H   0  0  0  0  0  0  0  0  0  0  0  0
    2.9827   65.2348   69.8236 H   0  0  0  0  0  0  0  0  0  0  0  0
    5.0918   60.8613   72.5758 H   0  0  0  0  0  0  0  0  0  0  0  0
    5.6899   60.0293   71.1005 H   0  0  0  0  0  0  0  0  0  0  0  0
    5.4730   61.8124   71.1005 H   0  0  0  0  0  0  0  0  0  0  0  0
    3.1362   60.0064   72.9953 H   0  0  0  0  0  0  0  0  0  0  0  0
    1.8357   59.7296   71.7875 H   0  0  0  0  0  0  0  0  0  0  0  0
    3.2982   58.6867   71.7875 H   0  0  0  0  0  0  0  0  0  0  0  0
    3.7935   58.9511   69.6826 H   0  0  0  0  0  0  0  0  0  0  0  0
    2.7573   60.2670   69.0334 H   0  0  0  0  0  0  0  0  0  0  0  0
    4.5445   60.4482   69.0334 H   0  0  0  0  0  0  0  0  0  0  0  0
  2  1  1  0
  3  2  1  0
  4  3  1  0
  6  5  2  0
  7  6  1  0
  8  7  2  0
  8  4  1  0
  9  8  1  0
 10  5  1  0
 10  9  2  0
 12 11  1  0
 12  5  1  0
 13 12  1  0
 14 12  1  0
 15  1  1  0
 16 15  1  0
 17 16  1  0
 18 17  1  0
 19 18  1  0
 20 19  2  0
 21 20  1  0
 22 21  2  0
 23 22  1  0
 24 23  2  0
 24 19  1  0
 25 22  1  0
 26 25  1  0
 27 25  1  0
 28 25  1  0
  1 29  1  0
  1 30  1  0
  2 31  1  0
  2 32  1  0
  3 33  1  0
  3 34  1  0
  4 35  1  0
  4 36  1  0
  6 37  1  0
  7 38  1  0
  9 39  1  0
 10 40  1  0
 11 41  1  0
 11 42  1  0
 11 43  1  0
 13 44  1  0
 13 45  1  0
 13 46  1  0
 14 47  1  0
 14 48  1  0
 14 49  1  0
 15 50  1  0
 15 51  1  0
 16 52  1  0
 16 53  1  0
 17 54  1  0
 17 55  1  0
 18 56  1  0
 18 57  1  0
 20 58  1  0
 21 59  1  0
 23 60  1  0
 24 61  1  0
 26 62  1  0
 26 63  1  0
 26 64  1  0
 27 65  1  0
 27 66  1  0
 27 67  1  0
 28 68  1  0
 28 69  1  0
 28 70  1  0
M  CHG  2   8   1  19   1
M  END
>  <score>  (1) 
-9.042

$$$$
=
     RDKit          3D

 70 71  0  0  0  0  0  0  0  0999 V2000
   -0.8150   66.5750   68.7490 C   0  0  0  0  0  0  0  0  0  0  0  0
    0.6290   66.8890   69.1650 C   0  0  0  0  0  0  0  0  0  0  0  0
    1.1800   66.0840   70.3490 C   0  0  0  0  0  0  0  0  0  0  0  0
    0.3070   64.9200   70.8190 C   0  0  0  0  0  0  0  0  0  0  0  0
    2.5990   61.3040   71.0160 C   0  0  0  0  0  0  0  0  0  0  0  0
    1.4800   61.5060   71.8310 C   0  0  0  0  0  0  0  0  0  0  0  0
    0.7450   62.6870   71.7490 C   0  0  0  0  0  0  0  0  0  0  0  0
    1.0880   63.6580   70.8750 N   0  0  0  0  0  4  0  0  0  0  0  0
    2.1730   63.5070   70.0830 C   0  0  0  0  0  0  0  0  0  0  0  0
    2.9330   62.3420   70.1350 C   0  0  0  0  0  0  0  0  0  0  0  0
    3.9570   59.5560   69.6820 C   0  0  0  0  0  0  0  0  0  0  0  0
    3.4510   60.0210   71.0660 C   0  0  0  0  0  0  0  0  0  0  0  0
    4.6940   60.2570   71.9510 C   0  0  0  0  0  0  0  0  0  0  0  0
    2.6150   58.8670   71.6590 C   0  0  0  0  0  0  0  0  0  0  0  0
   -1.1750   66.8640   67.2850 C   0  0  0  0  0  0  0  0  0  0  0  0
   -1.5210   68.3210   66.9570 C   0  0  0  0  0  0  0  0  0  0  0  0
   -0.3280   69.2320   66.6390 C   0  0  0  0  0  0  0  0  0  0  0  0
    0.8660   68.4790   66.0550 C   0  0  0  0  0  0  0  0  0  0  0  0
    2.1230   69.0600   66.5850 N   0  0  0  0  0  4  0  0  0  0  0  0
    2.1480   69.6050   67.8200 C   0  0  0  0  0  0  0  0  0  0  0  0
    3.3230   70.1450   68.3350 C   0  0  0  0  0  0  0  0  0  0  0  0
    4.5090   70.1330   67.5860 C   0  0  0  0  0  0  0  0  0  0  0  0
    4.4430   69.5560   66.3130 C   0  0  0  0  0  0  0  0  0  0  0  0
    3.2480   69.0250   65.8330 C   0  0  0  0  0  0  0  0  0  0  0  0
    5.8050   70.7330   68.1670 C   0  0  0  0  0  0  0  0  0  0  0  0
    6.0170   70.4240   69.6660 C   0  0  0  0  0  0  0  0  0  0  0  0
    7.0240   70.1690   67.4060 C   0  0  0  0  0  0  0  0  0  0  0  0
    5.7780   72.2690   68.0150 C   0  0  0  0  0  0  0  0  0  0  0  0
   -0.9927   65.5053   68.9337 H   0  0  0  0  0  0  0  0  0  0  0  0
   -1.4472   67.2481   69.3467 H   0  0  0  0  0  0  0  0  0  0  0  0
    1.2778   66.6979   68.2975 H   0  0  0  0  0  0  0  0  0  0  0  0
    0.6192   67.9370   69.4990 H   0  0  0  0  0  0  0  0  0  0  0  0
    2.1584   65.6762   70.0551 H   0  0  0  0  0  0  0  0  0  0  0  0
    1.2270   66.7859   71.1946 H   0  0  0  0  0  0  0  0  0  0  0  0
   -0.0842   65.1458   71.8220 H   0  0  0  0  0  0  0  0  0  0  0  0
   -0.5186   64.7899   70.1038 H   0  0  0  0  0  0  0  0  0  0  0  0
    1.1773   60.7247   72.5437 H   0  0  0  0  0  0  0  0  0  0  0  0
   -0.1263   62.8304   72.4049 H   0  0  0  0  0  0  0  0  0  0  0  0
    2.4581   64.3127   69.3906 H   0  0  0  0  0  0  0  0  0  0  0  0
    3.8072   62.2344   69.4761 H   0  0  0  0  0  0  0  0  0  0  0  0
    4.7610   58.8171   69.8148 H   0  0  0  0  0  0  0  0  0  0  0  0
    3.1274   59.0986   69.1230 H   0  0  0  0  0  0  0  0  0  0  0  0
    4.3428   60.4212   69.1230 H   0  0  0  0  0  0  0  0  0  0  0  0
    4.4052   60.2022   73.0110 H   0  0  0  0  0  0  0  0  0  0  0  0
    5.4487   59.4861   71.7363 H   0  0  0  0  0  0  0  0  0  0  0  0
    5.1137   61.2509   71.7363 H   0  0  0  0  0  0  0  0  0  0  0  0
    2.6502   58.9155   72.7574 H   0  0  0  0  0  0  0  0  0  0  0  0
    1.5722   58.9584   71.3211 H   0  0  0  0  0  0  0  0  0  0  0  0
    3.0269   57.9046   71.3211 H   0  0  0  0  0  0  0  0  0  0  0  0
   -0.3159   66.5730   66.6627 H   0  0  0  0  0  0  0  0  0  0  0  0
   -2.0899   66.2875   67.0835 H   0  0  0  0  0  0  0  0  0  0  0  0
   -2.1891   68.3214   66.0831 H   0  0  0  0  0  0  0  0  0  0  0  0
   -1.9789   68.7332   67.8682 H   0  0  0  0  0  0  0  0  0  0  0  0
   -0.6520   69.9912   65.9119 H   0  0  0  0  0  0  0  0  0  0  0  0
    0.0015   69.6817   67.5873 H   0  0  0  0  0  0  0  0  0  0  0  0
    0.8045   67.4178   66.3380 H   0  0  0  0  0  0  0  0  0  0  0  0
    0.8547   68.5669   64.9586 H   0  0  0  0  0  0  0  0  0  0  0  0
    1.2299   69.6225   68.4257 H   0  0  0  0  0  0  0  0  0  0  0  0
    3.3215   70.5869   69.3423 H   0  0  0  0  0  0  0  0  0  0  0  0
    5.3449   69.5213   65.6842 H   0  0  0  0  0  0  0  0  0  0  0  0
    3.2182   68.5719   64.8311 H   0  0  0  0  0  0  0  0  0  0  0  0
    5.4981   71.1803   70.2732 H   0  0  0  0  0  0  0  0  0  0  0  0
    5.6113   69.4277   69.8960 H   0  0  0  0  0  0  0  0  0  0  0  0
    7.0925   70.4440   69.8960 H   0  0  0  0  0  0  0  0  0  0  0  0
    7.7775   69.8204   68.1276 H   0  0  0  0  0  0  0  0  0  0  0  0
    6.7044   69.3273   66.7741 H   0  0  0  0  0  0  0  0  0  0  0  0
    7.4587   70.9575   66.7741 H   0  0  0  0  0  0  0  0  0  0  0  0
    5.7698   72.7359   69.0109 H   0  0  0  0  0  0  0  0  0  0  0  0
    6.6705   72.5986   67.4629 H   0  0  0  0  0  0  0  0  0  0  0  0
    4.8745   72.5670   67.4629 H   0  0  0  0  0  0  0  0  0  0  0  0
  2  1  1  0
  3  2  1  0
  4  3  1  0
  6  5  2  0
  7  6  1  0
  8  7  2  0
  8  4  1  0
  9  8  1  0
 10  5  1  0
 10  9  2  0
 12 11  1  0
 12  5  1  0
 13 12  1  0
 14 12  1  0
 15  1  1  0
 16 15  1  0
 17 16  1  0
 18 17  1  0
 19 18  1  0
 20 19  2  0
 21 20  1  0
 22 21  2  0
 23 22  1  0
 24 23  2  0
 24 19  1  0
 25 22  1  0
 26 25  1  0
 27 25  1  0
 28 25  1  0
  1 29  1  0
  1 30  1  0
  2 31  1  0
  2 32  1  0
  3 33  1  0
  3 34  1  0
  4 35  1  0
  4 36  1  0
  6 37  1  0
  7 38  1  0
  9 39  1  0
 10 40  1  0
 11 41  1  0
 11 42  1  0
 11 43  1  0
 13 44  1  0
 13 45  1  0
 13 46  1  0
 14 47  1  0
 14 48  1  0
 14 49  1  0
 15 50  1  0
 15 51  1  0
 16 52  1  0
 16 53  1  0
 17 54  1  0
 17 55  1  0
 18 56  1  0
 18 57  1  0
 20 58  1  0
 21 59  1  0
 23 60  1  0
 24 61  1  0
 26 62  1  0
 26 63  1  0
 26 64  1  0
 27 65  1  0
 27 66  1  0
 27 67  1  0
 28 68  1  0
 28 69  1  0
 28 70  1  0
M  CHG  2   8   1  19   1
M  END
>  <score>  (2) 
-8.819

$$$$
=
     RDKit          3D

 70 71  0  0  0  0  0  0  0  0999 V2000
    0.2560   66.0020   70.2510 C   0  0  0  0  0  0  0  0  0  0  0  0
    1.0480   66.8970   69.2870 C   0  0  0  0  0  0  0  0  0  0  0  0
    0.2420   67.5520   68.1580 C   0  0  0  0  0  0  0  0  0  0  0  0
    0.7570   68.9110   67.6820 C   0  0  0  0  0  0  0  0  0  0  0  0
    3.2120   68.5340   64.1890 C   0  0  0  0  0  0  0  0  0  0  0  0
    3.7030   69.0990   65.3720 C   0  0  0  0  0  0  0  0  0  0  0  0
    2.8900   69.2080   66.4980 C   0  0  0  0  0  0  0  0  0  0  0  0
    1.6150   68.7640   66.4800 N   0  0  0  0  0  4  0  0  0  0  0  0
    1.0990   68.2280   65.3510 C   0  0  0  0  0  0  0  0  0  0  0  0
    1.8790   68.1000   64.2040 C   0  0  0  0  0  0  0  0  0  0  0  0
    4.5760   66.9530   62.6660 C   0  0  0  0  0  0  0  0  0  0  0  0
    4.0630   68.3890   62.9130 C   0  0  0  0  0  0  0  0  0  0  0  0
    3.2240   68.7940   61.6820 C   0  0  0  0  0  0  0  0  0  0  0  0
    5.3000   69.3080   63.0090 C   0  0  0  0  0  0  0  0  0  0  0  0
    1.0220   64.8190   70.8590 C   0  0  0  0  0  0  0  0  0  0  0  0
    2.4200   64.5600   70.2830 C   0  0  0  0  0  0  0  0  0  0  0  0
    3.2170   63.4360   70.9550 C   0  0  0  0  0  0  0  0  0  0  0  0
    3.0800   62.0920   70.2420 C   0  0  0  0  0  0  0  0  0  0  0  0
    2.4910   61.0970   71.1710 N   0  0  0  0  0  4  0  0  0  0  0  0
    1.3820   61.4060   71.8770 C   0  0  0  0  0  0  0  0  0  0  0  0
    0.8130   60.4790   72.7460 C   0  0  0  0  0  0  0  0  0  0  0  0
    1.3740   59.2030   72.9060 C   0  0  0  0  0  0  0  0  0  0  0  0
    2.5190   58.9210   72.1550 C   0  0  0  0  0  0  0  0  0  0  0  0
    3.0600   59.8750   71.2950 C   0  0  0  0  0  0  0  0  0  0  0  0
    0.7340   58.1850   73.8700 C   0  0  0  0  0  0  0  0  0  0  0  0
   -0.7810   58.4010   74.0890 C   0  0  0  0  0  0  0  0  0  0  0  0
    0.9170   56.7570   73.3120 C   0  0  0  0  0  0  0  0  0  0  0  0
    1.4140   58.2820   75.2520 C   0  0  0  0  0  0  0  0  0  0  0  0
   -0.1002   66.6327   71.0789 H   0  0  0  0  0  0  0  0  0  0  0  0
   -0.5464   65.5544   69.6462 H   0  0  0  0  0  0  0  0  0  0  0  0
    1.5119   67.7001   69.8784 H   0  0  0  0  0  0  0  0  0  0  0  0
    1.7671   66.2305   68.7884 H   0  0  0  0  0  0  0  0  0  0  0  0
    0.2473   66.8674   67.2970 H   0  0  0  0  0  0  0  0  0  0  0  0
   -0.7601   67.7377   68.5718 H   0  0  0  0  0  0  0  0  0  0  0  0
   -0.1006   69.5542   67.4352 H   0  0  0  0  0  0  0  0  0  0  0  0
    1.3566   69.3600   68.4875 H   0  0  0  0  0  0  0  0  0  0  0  0
    4.7411   69.4605   65.4129 H   0  0  0  0  0  0  0  0  0  0  0  0
    3.2927   69.6625   67.4152 H   0  0  0  0  0  0  0  0  0  0  0  0
    0.0525   67.8895   65.3381 H   0  0  0  0  0  0  0  0  0  0  0  0
    1.4434   67.6526   63.2984 H   0  0  0  0  0  0  0  0  0  0  0  0
    4.7536   66.4560   63.6311 H   0  0  0  0  0  0  0  0  0  0  0  0
    3.8241   66.3881   62.0955 H   0  0  0  0  0  0  0  0  0  0  0  0
    5.5157   66.9924   62.0955 H   0  0  0  0  0  0  0  0  0  0  0  0
    2.2800   69.2497   62.0155 H   0  0  0  0  0  0  0  0  0  0  0  0
    3.7875   69.5193   61.0767 H   0  0  0  0  0  0  0  0  0  0  0  0
    3.0067   67.9016   61.0767 H   0  0  0  0  0  0  0  0  0  0  0  0
    5.5420   69.4878   64.0669 H   0  0  0  0  0  0  0  0  0  0  0  0
    6.1553   68.8245   62.5143 H   0  0  0  0  0  0  0  0  0  0  0  0
    5.0840   70.2664   62.5143 H   0  0  0  0  0  0  0  0  0  0  0  0
    1.1310   65.0064   71.9374 H   0  0  0  0  0  0  0  0  0  0  0  0
    0.4295   63.9243   70.6171 H   0  0  0  0  0  0  0  0  0  0  0  0
    2.3054   64.3040   69.2194 H   0  0  0  0  0  0  0  0  0  0  0  0
    2.9933   65.4819   70.4601 H   0  0  0  0  0  0  0  0  0  0  0  0
    4.2798   63.7193   70.9659 H   0  0  0  0  0  0  0  0  0  0  0  0
    2.8126   63.3103   71.9702 H   0  0  0  0  0  0  0  0  0  0  0  0
    2.4258   62.2071   69.3652 H   0  0  0  0  0  0  0  0  0  0  0  0
    4.0724   61.7469   69.9164 H   0  0  0  0  0  0  0  0  0  0  0  0
    0.9239   62.3997   71.7644 H   0  0  0  0  0  0  0  0  0  0  0  0
   -0.0885   60.7506   73.3148 H   0  0  0  0  0  0  0  0  0  0  0  0
    2.9984   57.9349   72.2439 H   0  0  0  0  0  0  0  0  0  0  0  0
    3.9596   59.6322   70.7104 H   0  0  0  0  0  0  0  0  0  0  0  0
   -0.9949   58.4315   75.1676 H   0  0  0  0  0  0  0  0  0  0  0  0
   -1.0863   59.3518   73.6276 H   0  0  0  0  0  0  0  0  0  0  0  0
   -1.3398   57.5734   73.6276 H   0  0  0  0  0  0  0  0  0  0  0  0
    1.0081   56.0461   74.1465 H   0  0  0  0  0  0  0  0  0  0  0  0
    0.0458   56.4896   72.6960 H   0  0  0  0  0  0  0  0  0  0  0  0
    1.8275   56.7179   72.6960 H   0  0  0  0  0  0  0  0  0  0  0  0
    0.6562   58.1739   76.0419 H   0  0  0  0  0  0  0  0  0  0  0  0
    2.1621   57.4815   75.3496 H   0  0  0  0  0  0  0  0  0  0  0  0
    1.9084   59.2598   75.3496 H   0  0  0  0  0  0  0  0  0  0  0  0
  2  1  1  0
  3  2  1  0
  4  3  1  0
  6  5  2  0
  7  6  1  0
  8  7  2  0
  8  4  1  0
  9  8  1  0
 10  5  1  0
 10  9  2  0
 12 11  1  0
 12  5  1  0
 13 12  1  0
 14 12  1  0
 15  1  1  0
 16 15  1  0
 17 16  1  0
 18 17  1  0
 19 18  1  0
 20 19  2  0
 21 20  1  0
 22 21  2  0
 23 22  1  0
 24 23  2  0
 24 19  1  0
 25 22  1  0
 26 25  1  0
 27 25  1  0
 28 25  1  0
  1 29  1  0
  1 30  1  0
  2 31  1  0
  2 32  1  0
  3 33  1  0
  3 34  1  0
  4 35  1  0
  4 36  1  0
  6 37  1  0
  7 38  1  0
  9 39  1  0
 10 40  1  0
 11 41  1  0
 11 42  1  0
 11 43  1  0
 13 44  1  0
 13 45  1  0
 13 46  1  0
 14 47  1  0
 14 48  1  0
 14 49  1  0
 15 50  1  0
 15 51  1  0
 16 52  1  0
 16 53  1  0
 17 54  1  0
 17 55  1  0
 18 56  1  0
 18 57  1  0
 20 58  1  0
 21 59  1  0
 23 60  1  0
 24 61  1  0
 26 62  1  0
 26 63  1  0
 26 64  1  0
 27 65  1  0
 27 66  1  0
 27 67  1  0
 28 68  1  0
 28 69  1  0
 28 70  1  0
M  CHG  2   8   1  19   1
M  END
>  <score>  (3) 
-8.781

$$$$
=
     RDKit          3D

 70 71  0  0  0  0  0  0  0  0999 V2000
    0.1000   68.5820   62.4770 C   0  0  0  0  0  0  0  0  0  0  0  0
   -0.5810   69.0770   63.7600 C   0  0  0  0  0  0  0  0  0  0  0  0
    0.0830   68.6630   65.0800 C   0  0  0  0  0  0  0  0  0  0  0  0
   -0.7130   68.9790   66.3470 C   0  0  0  0  0  0  0  0  0  0  0  0
    0.2360   66.1690   69.4400 C   0  0  0  0  0  0  0  0  0  0  0  0
    1.1450   67.1560   69.0440 C   0  0  0  0  0  0  0  0  0  0  0  0
    0.8160   68.0640   68.0400 C   0  0  0  0  0  0  0  0  0  0  0  0
   -0.3900   68.0190   67.4320 N   0  0  0  0  0  4  0  0  0  0  0  0
   -1.2880   67.0690   67.7750 C   0  0  0  0  0  0  0  0  0  0  0  0
   -0.9970   66.1440   68.7740 C   0  0  0  0  0  0  0  0  0  0  0  0
   -0.0700   63.7450   70.2820 C   0  0  0  0  0  0  0  0  0  0  0  0
    0.5460   65.1370   70.5420 C   0  0  0  0  0  0  0  0  0  0  0  0
    2.0740   64.9470   70.6590 C   0  0  0  0  0  0  0  0  0  0  0  0
   -0.0090   65.6390   71.8920 C   0  0  0  0  0  0  0  0  0  0  0  0
    1.3000   69.4050   61.9880 C   0  0  0  0  0  0  0  0  0  0  0  0
    2.5430   68.6020   61.5870 C   0  0  0  0  0  0  0  0  0  0  0  0
    3.7700   68.7820   62.4890 C   0  0  0  0  0  0  0  0  0  0  0  0
    3.7380   67.8970   63.7330 C   0  0  0  0  0  0  0  0  0  0  0  0
    4.2400   68.6640   64.8990 N   0  0  0  0  0  4  0  0  0  0  0  0
    3.4020   68.9870   65.9070 C   0  0  0  0  0  0  0  0  0  0  0  0
    3.8610   69.6990   67.0120 C   0  0  0  0  0  0  0  0  0  0  0  0
    5.2040   70.0930   67.1070 C   0  0  0  0  0  0  0  0  0  0  0  0
    6.0410   69.7350   66.0450 C   0  0  0  0  0  0  0  0  0  0  0  0
    5.5440   69.0220   64.9560 C   0  0  0  0  0  0  0  0  0  0  0  0
    5.7000   70.8790   68.3360 C   0  0  0  0  0  0  0  0  0  0  0  0
    5.6630   72.4120   68.1520 C   0  0  0  0  0  0  0  0  0  0  0  0
    4.8180   70.5420   69.5580 C   0  0  0  0  0  0  0  0  0  0  0  0
    7.1630   70.4900   68.6430 C   0  0  0  0  0  0  0  0  0  0  0  0
    0.4483   67.5542   62.6566 H   0  0  0  0  0  0  0  0  0  0  0  0
   -0.6600   68.6699   61.6866 H   0  0  0  0  0  0  0  0  0  0  0  0
   -0.6039   70.1762   63.7257 H   0  0  0  0  0  0  0  0  0  0  0  0
   -1.5744   68.6046   63.7682 H   0  0  0  0  0  0  0  0  0  0  0  0
    0.2513   67.5764   65.0481 H   0  0  0  0  0  0  0  0  0  0  0  0
    1.0080   69.2541   65.1502 H   0  0  0  0  0  0  0  0  0  0  0  0
   -0.4660   69.9971   66.6823 H   0  0  0  0  0  0  0  0  0  0  0  0
   -1.7855   68.8986   66.1160 H   0  0  0  0  0  0  0  0  0  0  0  0
    2.1298   67.2157   69.5305 H   0  0  0  0  0  0  0  0  0  0  0  0
    1.5477   68.8278   67.7381 H   0  0  0  0  0  0  0  0  0  0  0  0
   -2.2588   67.0262   67.2596 H   0  0  0  0  0  0  0  0  0  0  0  0
   -1.7445   65.3836   69.0441 H   0  0  0  0  0  0  0  0  0  0  0  0
   -0.2869   63.2548   71.2426 H   0  0  0  0  0  0  0  0  0  0  0  0
   -1.0023   63.8578   69.7091 H   0  0  0  0  0  0  0  0  0  0  0  0
    0.6404   63.1309   69.7091 H   0  0  0  0  0  0  0  0  0  0  0  0
    2.3588   64.9116   71.7209 H   0  0  0  0  0  0  0  0  0  0  0  0
    2.3650   64.0058   70.1697 H   0  0  0  0  0  0  0  0  0  0  0  0
    2.5866   65.7883   70.1697 H   0  0  0  0  0  0  0  0  0  0  0  0
    0.5319   65.1498   72.7155 H   0  0  0  0  0  0  0  0  0  0  0  0
    0.1253   66.7286   71.9613 H   0  0  0  0  0  0  0  0  0  0  0  0
   -1.0797   65.3964   71.9613 H   0  0  0  0  0  0  0  0  0  0  0  0
    0.9762   69.9852   61.1114 H   0  0  0  0  0  0  0  0  0  0  0  0
    1.6075   70.0218   62.8453 H   0  0  0  0  0  0  0  0  0  0  0  0
    2.2729   67.5357   61.5925 H   0  0  0  0  0  0  0  0  0  0  0  0
    2.8393   68.9818   60.5981 H   0  0  0  0  0  0  0  0  0  0  0  0
    4.6705   68.5350   61.9075 H   0  0  0  0  0  0  0  0  0  0  0  0
    3.7728   69.8272   62.8318 H   0  0  0  0  0  0  0  0  0  0  0  0
    2.7048   67.5721   63.9252 H   0  0  0  0  0  0  0  0  0  0  0  0
    4.3759   67.0154   63.5721 H   0  0  0  0  0  0  0  0  0  0  0  0
    2.3457   68.6846   65.8548 H   0  0  0  0  0  0  0  0  0  0  0  0
    3.1614   69.9559   67.8210 H   0  0  0  0  0  0  0  0  0  0  0  0
    7.1033   70.0195   66.0699 H   0  0  0  0  0  0  0  0  0  0  0  0
    6.2196   68.7467   64.1327 H   0  0  0  0  0  0  0  0  0  0  0  0
    5.6512   72.8995   69.1380 H   0  0  0  0  0  0  0  0  0  0  0  0
    6.5536   72.7359   67.5935 H   0  0  0  0  0  0  0  0  0  0  0  0
    4.7578   72.6925   67.5935 H   0  0  0  0  0  0  0  0  0  0  0  0
    5.3752   70.7549   70.4822 H   0  0  0  0  0  0  0  0  0  0  0  0
    3.9047   71.1545   69.5311 H   0  0  0  0  0  0  0  0  0  0  0  0
    4.5458   69.4765   69.5311 H   0  0  0  0  0  0  0  0  0  0  0  0
    7.3111   70.4506   69.7323 H   0  0  0  0  0  0  0  0  0  0  0  0
    7.3791   69.5032   68.2077 H   0  0  0  0  0  0  0  0  0  0  0  0
    7.8407   71.2392   68.2077 H   0  0  0  0  0  0  0  0  0  0  0  0
  2  1  1  0
  3  2  1  0
  4  3  1  0
  6  5  2  0
  7  6  1  0
  8  7  2  0
  8  4  1  0
  9  8  1  0
 10  5  1  0
 10  9  2  0
 12 11  1  0
 12  5  1  0
 13 12  1  0
 14 12  1  0
 15  1  1  0
 16 15  1  0
 17 16  1  0
 18 17  1  0
 19 18  1  0
 20 19  2  0
 21 20  1  0
 22 21  2  0
 23 22  1  0
 24 23  2  0
 24 19  1  0
 25 22  1  0
 26 25  1  0
 27 25  1  0
 28 25  1  0
  1 29  1  0
  1 30  1  0
  2 31  1  0
  2 32  1  0
  3 33  1  0
  3 34  1  0
  4 35  1  0
  4 36  1  0
  6 37  1  0
  7 38  1  0
  9 39  1  0
 10 40  1  0
 11 41  1  0
 11 42  1  0
 11 43  1  0
 13 44  1  0
 13 45  1  0
 13 46  1  0
 14 47  1  0
 14 48  1  0
 14 49  1  0
 15 50  1  0
 15 51  1  0
 16 52  1  0
 16 53  1  0
 17 54  1  0
 17 55  1  0
 18 56  1  0
 18 57  1  0
 20 58  1  0
 21 59  1  0
 23 60  1  0
 24 61  1  0
 26 62  1  0
 26 63  1  0
 26 64  1  0
 27 65  1  0
 27 66  1  0
 27 67  1  0
 28 68  1  0
 28 69  1  0
 28 70  1  0
M  CHG  2   8   1  19   1
M  END
>  <score>  (4) 
-8.779

$$$$
=
     RDKit          3D

 70 71  0  0  0  0  0  0  0  0999 V2000
    0.4340   67.1600   68.7730 C   0  0  0  0  0  0  0  0  0  0  0  0
    1.1070   66.6990   70.0730 C   0  0  0  0  0  0  0  0  0  0  0  0
    1.5200   65.2230   70.1330 C   0  0  0  0  0  0  0  0  0  0  0  0
    0.4910   64.2740   70.7500 C   0  0  0  0  0  0  0  0  0  0  0  0
    2.2610   60.5080   71.7770 C   0  0  0  0  0  0  0  0  0  0  0  0
    2.8610   61.3710   70.8530 C   0  0  0  0  0  0  0  0  0  0  0  0
    2.2730   62.5940   70.5360 C   0  0  0  0  0  0  0  0  0  0  0  0
    1.1160   62.9790   71.1190 N   0  0  0  0  0  4  0  0  0  0  0  0
    0.4970   62.1640   72.0030 C   0  0  0  0  0  0  0  0  0  0  0  0
    1.0530   60.9350   72.3460 C   0  0  0  0  0  0  0  0  0  0  0  0
    1.8900   58.2300   72.9390 C   0  0  0  0  0  0  0  0  0  0  0  0
    2.8640   59.1440   72.1630 C   0  0  0  0  0  0  0  0  0  0  0  0
    3.2890   58.3840   70.8880 C   0  0  0  0  0  0  0  0  0  0  0  0
    4.1010   59.3610   73.0610 C   0  0  0  0  0  0  0  0  0  0  0  0
   -0.9180   66.5110   68.4450 C   0  0  0  0  0  0  0  0  0  0  0  0
   -1.8640   67.3430   67.5720 C   0  0  0  0  0  0  0  0  0  0  0  0
   -1.2660   68.6220   66.9750 C   0  0  0  0  0  0  0  0  0  0  0  0
   -1.4890   68.7450   65.4680 C   0  0  0  0  0  0  0  0  0  0  0  0
   -0.1860   68.6530   64.7670 N   0  0  0  0  0  4  0  0  0  0  0  0
    0.8890   68.1380   65.4030 C   0  0  0  0  0  0  0  0  0  0  0  0
    2.1170   68.0360   64.7540 C   0  0  0  0  0  0  0  0  0  0  0  0
    2.2660   68.4620   63.4250 C   0  0  0  0  0  0  0  0  0  0  0  0
    1.1290   68.9850   62.8010 C   0  0  0  0  0  0  0  0  0  0  0  0
   -0.0830   69.0700   63.4840 C   0  0  0  0  0  0  0  0  0  0  0  0
    3.6290   68.3420   62.7170 C   0  0  0  0  0  0  0  0  0  0  0  0
    4.2260   66.9180   62.7500 C   0  0  0  0  0  0  0  0  0  0  0  0
    3.4800   68.7420   61.2330 C   0  0  0  0  0  0  0  0  0  0  0  0
    4.6490   69.2820   63.3960 C   0  0  0  0  0  0  0  0  0  0  0  0
    0.2770   68.2465   68.8429 H   0  0  0  0  0  0  0  0  0  0  0  0
    1.1130   66.8528   67.9639 H   0  0  0  0  0  0  0  0  0  0  0  0
    2.0122   67.3073   70.2168 H   0  0  0  0  0  0  0  0  0  0  0  0
    0.3482   66.8255   70.8592 H   0  0  0  0  0  0  0  0  0  0  0  0
    1.7188   64.8850   69.1053 H   0  0  0  0  0  0  0  0  0  0  0  0
    2.3999   65.1830   70.7920 H   0  0  0  0  0  0  0  0  0  0  0  0
    0.0681   64.7394   71.6525 H   0  0  0  0  0  0  0  0  0  0  0  0
   -0.2989   64.0834   70.0086 H   0  0  0  0  0  0  0  0  0  0  0  0
    3.8067   61.0809   70.3719 H   0  0  0  0  0  0  0  0  0  0  0  0
    2.7569   63.2547   69.8016 H   0  0  0  0  0  0  0  0  0  0  0  0
   -0.4559   62.4756   72.4557 H   0  0  0  0  0  0  0  0  0  0  0  0
    0.5378   60.2902   73.0732 H   0  0  0  0  0  0  0  0  0  0  0  0
    2.0387   58.3696   74.0199 H   0  0  0  0  0  0  0  0  0  0  0  0
    0.8543   58.4897   72.6748 H   0  0  0  0  0  0  0  0  0  0  0  0
    2.0834   57.1799   72.6748 H   0  0  0  0  0  0  0  0  0  0  0  0
    3.8079   57.4560   71.1701 H   0  0  0  0  0  0  0  0  0  0  0  0
    2.3970   58.1389   70.2928 H   0  0  0  0  0  0  0  0  0  0  0  0
    3.9648   59.0156   70.2928 H   0  0  0  0  0  0  0  0  0  0  0  0
    3.8006   59.3083   74.1179 H   0  0  0  0  0  0  0  0  0  0  0  0
    4.8470   58.5800   72.8525 H   0  0  0  0  0  0  0  0  0  0  0  0
    4.5367   60.3493   72.8525 H   0  0  0  0  0  0  0  0  0  0  0  0
   -0.7195   65.5648   67.9204 H   0  0  0  0  0  0  0  0  0  0  0  0
   -1.4322   66.3890   69.4097 H   0  0  0  0  0  0  0  0  0  0  0  0
   -2.2022   66.7079   66.7400 H   0  0  0  0  0  0  0  0  0  0  0  0
   -2.6739   67.6738   68.2388 H   0  0  0  0  0  0  0  0  0  0  0  0
   -1.7301   69.4884   67.4689 H   0  0  0  0  0  0  0  0  0  0  0  0
   -0.1795   68.5837   67.1424 H   0  0  0  0  0  0  0  0  0  0  0  0
   -2.1471   67.9322   65.1271 H   0  0  0  0  0  0  0  0  0  0  0  0
   -1.9582   69.7145   65.2445 H   0  0  0  0  0  0  0  0  0  0  0  0
    0.7933   67.7958   66.4440 H   0  0  0  0  0  0  0  0  0  0  0  0
    2.9811   67.6162   65.2898 H   0  0  0  0  0  0  0  0  0  0  0  0
    1.1919   69.3332   61.7595 H   0  0  0  0  0  0  0  0  0  0  0  0
   -0.9665   69.4811   62.9737 H   0  0  0  0  0  0  0  0  0  0  0  0
    4.3592   66.6004   63.7947 H   0  0  0  0  0  0  0  0  0  0  0  0
    3.5437   66.2224   62.2394 H   0  0  0  0  0  0  0  0  0  0  0  0
    5.2003   66.9170   62.2394 H   0  0  0  0  0  0  0  0  0  0  0  0
    3.0967   69.7710   61.1673 H   0  0  0  0  0  0  0  0  0  0  0  0
    4.4602   68.6835   60.7373 H   0  0  0  0  0  0  0  0  0  0  0  0
    2.7769   68.0565   60.7373 H   0  0  0  0  0  0  0  0  0  0  0  0
    4.5559   69.1962   64.4887 H   0  0  0  0  0  0  0  0  0  0  0  0
    5.6675   68.9992   63.0915 H   0  0  0  0  0  0  0  0  0  0  0  0
    4.4502   70.3201   63.0915 H   0  0  0  0  0  0  0  0  0  0  0  0
  2  1  1  0
  3  2  1  0
  4  3  1  0
  6  5  2  0
  7  6  1  0
  8  7  2  0
  8  4  1  0
  9  8  1  0
 10  5  1  0
 10  9  2  0
 12 11  1  0
 12  5  1  0
 13 12  1  0
 14 12  1  0
 15  1  1  0
 16 15  1  0
 17 16  1  0
 18 17  1  0
 19 18  1  0
 20 19  2  0
 21 20  1  0
 22 21  2  0
 23 22  1  0
 24 23  2  0
 24 19  1  0
 25 22  1  0
 26 25  1  0
 27 25  1  0
 28 25  1  0
  1 29  1  0
  1 30  1  0
  2 31  1  0
  2 32  1  0
  3 33  1  0
  3 34  1  0
  4 35  1  0
  4 36  1  0
  6 37  1  0
  7 38  1  0
  9 39  1  0
 10 40  1  0
 11 41  1  0
 11 42  1  0
 11 43  1  0
 13 44  1  0
 13 45  1  0
 13 46  1  0
 14 47  1  0
 14 48  1  0
 14 49  1  0
 15 50  1  0
 15 51  1  0
 16 52  1  0
 16 53  1  0
 17 54  1  0
 17 55  1  0
 18 56  1  0
 18 57  1  0
 20 58  1  0
 21 59  1  0
 23 60  1  0
 24 61  1  0
 26 62  1  0
 26 63  1  0
 26 64  1  0
 27 65  1  0
 27 66  1  0
 27 67  1  0
 28 68  1  0
 28 69  1  0
 28 70  1  0
M  CHG  2   8   1  19   1
M  END
>  <score>  (5) 
-8.777

$$$$
=
     RDKit          3D

 70 71  0  0  0  0  0  0  0  0999 V2000
    0.8190   64.9380   70.8170 C   0  0  0  0  0  0  0  0  0  0  0  0
    2.2790   64.7200   70.3960 C   0  0  0  0  0  0  0  0  0  0  0  0
    2.9760   63.4900   70.9910 C   0  0  0  0  0  0  0  0  0  0  0  0
    2.7350   62.1730   70.2520 C   0  0  0  0  0  0  0  0  0  0  0  0
    1.4840   59.0690   72.9300 C   0  0  0  0  0  0  0  0  0  0  0  0
    2.5900   58.9080   72.0880 C   0  0  0  0  0  0  0  0  0  0  0  0
    2.9850   59.9300   71.2270 C   0  0  0  0  0  0  0  0  0  0  0  0
    2.3160   61.1040   71.1920 N   0  0  0  0  0  4  0  0  0  0  0  0
    1.2310   61.2910   71.9780 C   0  0  0  0  0  0  0  0  0  0  0  0
    0.8060   60.2940   72.8520 C   0  0  0  0  0  0  0  0  0  0  0  0
    1.6190   58.0730   75.3110 C   0  0  0  0  0  0  0  0  0  0  0  0
    1.0010   57.9730   73.8980 C   0  0  0  0  0  0  0  0  0  0  0  0
   -0.5310   58.0640   74.0620 C   0  0  0  0  0  0  0  0  0  0  0  0
    1.3710   56.5840   73.3340 C   0  0  0  0  0  0  0  0  0  0  0  0
    0.0840   66.0990   70.1330 C   0  0  0  0  0  0  0  0  0  0  0  0
    0.9190   66.9380   69.1590 C   0  0  0  0  0  0  0  0  0  0  0  0
    0.1400   67.6050   68.0190 C   0  0  0  0  0  0  0  0  0  0  0  0
    0.7050   68.9670   67.6200 C   0  0  0  0  0  0  0  0  0  0  0  0
    1.5650   68.8140   66.4220 N   0  0  0  0  0  4  0  0  0  0  0  0
    1.0370   68.3630   65.2630 C   0  0  0  0  0  0  0  0  0  0  0  0
    1.8300   68.2230   64.1280 C   0  0  0  0  0  0  0  0  0  0  0  0
    3.1940   68.5500   64.1580 C   0  0  0  0  0  0  0  0  0  0  0  0
    3.7020   69.0160   65.3750 C   0  0  0  0  0  0  0  0  0  0  0  0
    2.8760   69.1430   66.4900 C   0  0  0  0  0  0  0  0  0  0  0  0
    4.0620   68.3920   62.8940 C   0  0  0  0  0  0  0  0  0  0  0  0
    4.5800   66.9540   62.6690 C   0  0  0  0  0  0  0  0  0  0  0  0
    3.2390   68.7840   61.6480 C   0  0  0  0  0  0  0  0  0  0  0  0
    5.2970   69.3130   62.9960 C   0  0  0  0  0  0  0  0  0  0  0  0
    0.2646   64.0137   70.5975 H   0  0  0  0  0  0  0  0  0  0  0  0
    0.8559   65.2004   71.8846 H   0  0  0  0  0  0  0  0  0  0  0  0
    2.3020   64.6223   69.3006 H   0  0  0  0  0  0  0  0  0  0  0  0
    2.8312   65.5889   70.7833 H   0  0  0  0  0  0  0  0  0  0  0  0
    4.0589   63.6831   70.9944 H   0  0  0  0  0  0  0  0  0  0  0  0
    2.5455   63.3557   71.9943 H   0  0  0  0  0  0  0  0  0  0  0  0
    1.9451   62.3214   69.5010 H   0  0  0  0  0  0  0  0  0  0  0  0
    3.6741   61.8658   69.7685 H   0  0  0  0  0  0  0  0  0  0  0  0
    3.1541   57.9638   72.1060 H   0  0  0  0  0  0  0  0  0  0  0  0
    3.8523   59.7794   70.5674 H   0  0  0  0  0  0  0  0  0  0  0  0
    0.6786   62.2408   71.9261 H   0  0  0  0  0  0  0  0  0  0  0  0
   -0.0730   60.4695   73.4896 H   0  0  0  0  0  0  0  0  0  0  0  0
    0.8296   57.9453   76.0663 H   0  0  0  0  0  0  0  0  0  0  0  0
    2.3771   57.2858   75.4362 H   0  0  0  0  0  0  0  0  0  0  0  0
    2.0902   59.0591   75.4362 H   0  0  0  0  0  0  0  0  0  0  0  0
   -0.7849   58.0791   75.1322 H   0  0  0  0  0  0  0  0  0  0  0  0
   -0.8967   58.9855   73.5854 H   0  0  0  0  0  0  0  0  0  0  0  0
   -1.0032   57.1923   73.5854 H   0  0  0  0  0  0  0  0  0  0  0  0
    1.5564   55.8881   74.1655 H   0  0  0  0  0  0  0  0  0  0  0  0
    0.5422   56.2060   72.7174 H   0  0  0  0  0  0  0  0  0  0  0  0
    2.2780   56.6684   72.7174 H   0  0  0  0  0  0  0  0  0  0  0  0
   -0.7645   65.6781   69.5736 H   0  0  0  0  0  0  0  0  0  0  0  0
   -0.2082   66.7846   70.9420 H   0  0  0  0  0  0  0  0  0  0  0  0
    1.4171   67.7305   69.7368 H   0  0  0  0  0  0  0  0  0  0  0  0
    1.6131   66.2344   68.6762 H   0  0  0  0  0  0  0  0  0  0  0  0
    0.1703   66.9432   67.1409 H   0  0  0  0  0  0  0  0  0  0  0  0
   -0.8869   67.7695   68.3774 H   0  0  0  0  0  0  0  0  0  0  0  0
   -0.1227   69.6546   67.3917 H   0  0  0  0  0  0  0  0  0  0  0  0
    1.3016   69.3737   68.4499 H   0  0  0  0  0  0  0  0  0  0  0  0
   -0.0310   68.1037   65.2160 H   0  0  0  0  0  0  0  0  0  0  0  0
    1.3814   67.8510   63.1950 H   0  0  0  0  0  0  0  0  0  0  0  0
    4.7657   69.2853   65.4528 H   0  0  0  0  0  0  0  0  0  0  0  0
    3.2945   69.5151   67.4368 H   0  0  0  0  0  0  0  0  0  0  0  0
    4.7541   66.4706   63.6416 H   0  0  0  0  0  0  0  0  0  0  0  0
    3.8324   66.3794   62.1026 H   0  0  0  0  0  0  0  0  0  0  0  0
    5.5223   66.9881   62.1026 H   0  0  0  0  0  0  0  0  0  0  0  0
    2.2879   69.2370   61.9644 H   0  0  0  0  0  0  0  0  0  0  0  0
    3.8076   69.5080   61.0459 H   0  0  0  0  0  0  0  0  0  0  0  0
    3.0351   67.8863   61.0459 H   0  0  0  0  0  0  0  0  0  0  0  0
    5.5354   69.4908   64.0550 H   0  0  0  0  0  0  0  0  0  0  0  0
    6.1547   68.8322   62.5028 H   0  0  0  0  0  0  0  0  0  0  0  0
    5.0808   70.2722   62.5028 H   0  0  0  0  0  0  0  0  0  0  0  0
  2  1  1  0
  3  2  1  0
  4  3  1  0
  6  5  2  0
  7  6  1  0
  8  7  2  0
  8  4  1  0
  9  8  1  0
 10  5  1  0
 10  9  2  0
 12 11  1  0
 12  5  1  0
 13 12  1  0
 14 12  1  0
 15  1  1  0
 16 15  1  0
 17 16  1  0
 18 17  1  0
 19 18  1  0
 20 19  2  0
 21 20  1  0
 22 21  2  0
 23 22  1  0
 24 23  2  0
 24 19  1  0
 25 22  1  0
 26 25  1  0
 27 25  1  0
 28 25  1  0
  1 29  1  0
  1 30  1  0
  2 31  1  0
  2 32  1  0
  3 33  1  0
  3 34  1  0
  4 35  1  0
  4 36  1  0
  6 37  1  0
  7 38  1  0
  9 39  1  0
 10 40  1  0
 11 41  1  0
 11 42  1  0
 11 43  1  0
 13 44  1  0
 13 45  1  0
 13 46  1  0
 14 47  1  0
 14 48  1  0
 14 49  1  0
 15 50  1  0
 15 51  1  0
 16 52  1  0
 16 53  1  0
 17 54  1  0
 17 55  1  0
 18 56  1  0
 18 57  1  0
 20 58  1  0
 21 59  1  0
 23 60  1  0
 24 61  1  0
 26 62  1  0
 26 63  1  0
 26 64  1  0
 27 65  1  0
 27 66  1  0
 27 67  1  0
 28 68  1  0
 28 69  1  0
 28 70  1  0
M  CHG  2   8   1  19   1
M  END
>  <score>  (6) 
-8.765

$$$$
=
     RDKit          3D

 70 71  0  0  0  0  0  0  0  0999 V2000
    0.7500   64.9140   70.6210 C   0  0  0  0  0  0  0  0  0  0  0  0
    2.0930   64.1790   70.5130 C   0  0  0  0  0  0  0  0  0  0  0  0
    2.0450   62.7720   69.9020 C   0  0  0  0  0  0  0  0  0  0  0  0
    3.1550   61.8200   70.3490 C   0  0  0  0  0  0  0  0  0  0  0  0
    1.6460   58.7720   72.9580 C   0  0  0  0  0  0  0  0  0  0  0  0
    1.0290   60.0250   72.8610 C   0  0  0  0  0  0  0  0  0  0  0  0
    1.5320   61.0010   72.0040 C   0  0  0  0  0  0  0  0  0  0  0  0
    2.6190   60.7590   71.2390 N   0  0  0  0  0  4  0  0  0  0  0  0
    3.2530   59.5670   71.3170 C   0  0  0  0  0  0  0  0  0  0  0  0
    2.7810   58.5660   72.1610 C   0  0  0  0  0  0  0  0  0  0  0  0
   -0.4030   57.5240   73.9190 C   0  0  0  0  0  0  0  0  0  0  0  0
    1.1360   57.6570   73.8900 C   0  0  0  0  0  0  0  0  0  0  0  0
    1.7040   56.2960   73.4300 C   0  0  0  0  0  0  0  0  0  0  0  0
    1.5990   57.9380   75.3360 C   0  0  0  0  0  0  0  0  0  0  0  0
    0.7870   66.4290   70.3780 C   0  0  0  0  0  0  0  0  0  0  0  0
    0.5460   66.8800   68.9320 C   0  0  0  0  0  0  0  0  0  0  0  0
    1.3640   68.0910   68.4690 C   0  0  0  0  0  0  0  0  0  0  0  0
    0.7090   68.8570   67.3210 C   0  0  0  0  0  0  0  0  0  0  0  0
    1.5510   68.7430   66.1050 N   0  0  0  0  0  4  0  0  0  0  0  0
    2.8710   69.0170   66.1710 C   0  0  0  0  0  0  0  0  0  0  0  0
    3.6770   68.9050   65.0400 C   0  0  0  0  0  0  0  0  0  0  0  0
    3.1370   68.5020   63.8100 C   0  0  0  0  0  0  0  0  0  0  0  0
    1.7670   68.2230   63.7850 C   0  0  0  0  0  0  0  0  0  0  0  0
    0.9940   68.3460   64.9380 C   0  0  0  0  0  0  0  0  0  0  0  0
    4.0390   68.3790   62.5660 C   0  0  0  0  0  0  0  0  0  0  0  0
    3.3510   68.8140   61.2520 C   0  0  0  0  0  0  0  0  0  0  0  0
    5.2900   69.2670   62.7430 C   0  0  0  0  0  0  0  0  0  0  0  0
    4.4790   66.9100   62.3880 C   0  0  0  0  0  0  0  0  0  0  0  0
    0.0648   64.4720   69.8826 H   0  0  0  0  0  0  0  0  0  0  0  0
    0.4292   64.7905   71.6659 H   0  0  0  0  0  0  0  0  0  0  0  0
    2.7629   64.7923   69.8924 H   0  0  0  0  0  0  0  0  0  0  0  0
    2.4381   64.0401   71.5482 H   0  0  0  0  0  0  0  0  0  0  0  0
    1.0803   62.3181   70.1727 H   0  0  0  0  0  0  0  0  0  0  0  0
    2.1835   62.9089   68.8194 H   0  0  0  0  0  0  0  0  0  0  0  0
    3.6061   61.3515   69.4619 H   0  0  0  0  0  0  0  0  0  0  0  0
    3.9087   62.3967   70.9053 H   0  0  0  0  0  0  0  0  0  0  0  0
    0.1375   60.2410   73.4681 H   0  0  0  0  0  0  0  0  0  0  0  0
    1.0375   61.9821   71.9493 H   0  0  0  0  0  0  0  0  0  0  0  0
    4.1507   59.3868   70.7073 H   0  0  0  0  0  0  0  0  0  0  0  0
    3.3056   57.6001   72.2033 H   0  0  0  0  0  0  0  0  0  0  0  0
   -0.7488   57.4941   74.9628 H   0  0  0  0  0  0  0  0  0  0  0  0
   -0.8553   58.3864   73.4074 H   0  0  0  0  0  0  0  0  0  0  0  0
   -0.7006   56.5968   73.4074 H   0  0  0  0  0  0  0  0  0  0  0  0
    1.9577   55.6880   74.3109 H   0  0  0  0  0  0  0  0  0  0  0  0
    0.9505   55.7695   72.8258 H   0  0  0  0  0  0  0  0  0  0  0  0
    2.6082   56.4614   72.8258 H   0  0  0  0  0  0  0  0  0  0  0  0
    0.8787   57.5008   76.0431 H   0  0  0  0  0  0  0  0  0  0  0  0
    2.5901   57.4889   75.4975 H   0  0  0  0  0  0  0  0  0  0  0  0
    1.6581   59.0245   75.4975 H   0  0  0  0  0  0  0  0  0  0  0  0
    0.0132   66.8908   71.0088 H   0  0  0  0  0  0  0  0  0  0  0  0
    1.8118   66.7455   70.6224 H   0  0  0  0  0  0  0  0  0  0  0  0
    0.7876   66.0356   68.2697 H   0  0  0  0  0  0  0  0  0  0  0  0
   -0.5072   67.1943   68.8872 H   0  0  0  0  0  0  0  0  0  0  0  0
    1.4871   68.7760   69.3209 H   0  0  0  0  0  0  0  0  0  0  0  0
    2.3286   67.7120   68.1004 H   0  0  0  0  0  0  0  0  0  0  0  0
   -0.2860   68.4339   67.1187 H   0  0  0  0  0  0  0  0  0  0  0  0
    0.6080   69.9166   67.5984 H   0  0  0  0  0  0  0  0  0  0  0  0
    3.3148   69.3318   67.1270 H   0  0  0  0  0  0  0  0  0  0  0  0
    4.7501   69.1355   65.1127 H   0  0  0  0  0  0  0  0  0  0  0  0
    1.2942   67.9029   62.8448 H   0  0  0  0  0  0  0  0  0  0  0  0
   -0.0813   68.1177   64.8987 H   0  0  0  0  0  0  0  0  0  0  0  0
    2.4426   69.3883   61.4864 H   0  0  0  0  0  0  0  0  0  0  0  0
    4.0404   69.4407   60.6672 H   0  0  0  0  0  0  0  0  0  0  0  0
    3.0804   67.9225   60.6672 H   0  0  0  0  0  0  0  0  0  0  0  0
    5.4901   69.4090   63.8153 H   0  0  0  0  0  0  0  0  0  0  0  0
    6.1554   68.7799   62.2699 H   0  0  0  0  0  0  0  0  0  0  0  0
    5.1156   70.2446   62.2699 H   0  0  0  0  0  0  0  0  0  0  0  0
    4.6178   66.4465   63.3759 H   0  0  0  0  0  0  0  0  0  0  0  0
    3.7060   66.3607   61.8306 H   0  0  0  0  0  0  0  0  0  0  0  0
    5.4267   66.8761   61.8306 H   0  0  0  0  0  0  0  0  0  0  0  0
  2  1  1  0
  3  2  1  0
  4  3  1  0
  6  5  2  0
  7  6  1  0
  8  7  2  0
  8  4  1  0
  9  8  1  0
 10  5  1  0
 10  9  2  0
 12 11  1  0
 12  5  1  0
 13 12  1  0
 14 12  1  0
 15  1  1  0
 16 15  1  0
 17 16  1  0
 18 17  1  0
 19 18  1  0
 20 19  2  0
 21 20  1  0
 22 21  2  0
 23 22  1  0
 24 23  2  0
 24 19  1  0
 25 22  1  0
 26 25  1  0
 27 25  1  0
 28 25  1  0
  1 29  1  0
  1 30  1  0
  2 31  1  0
  2 32  1  0
  3 33  1  0
  3 34  1  0
  4 35  1  0
  4 36  1  0
  6 37  1  0
  7 38  1  0
  9 39  1  0
 10 40  1  0
 11 41  1  0
 11 42  1  0
 11 43  1  0
 13 44  1  0
 13 45  1  0
 13 46  1  0
 14 47  1  0
 14 48  1  0
 14 49  1  0
 15 50  1  0
 15 51  1  0
 16 52  1  0
 16 53  1  0
 17 54  1  0
 17 55  1  0
 18 56  1  0
 18 57  1  0
 20 58  1  0
 21 59  1  0
 23 60  1  0
 24 61  1  0
 26 62  1  0
 26 63  1  0
 26 64  1  0
 27 65  1  0
 27 66  1  0
 27 67  1  0
 28 68  1  0
 28 69  1  0
 28 70  1  0
M  CHG  2   8   1  19   1
M  END
>  <score>  (7) 
-8.425

$$$$
=
     RDKit          3D

 70 71  0  0  0  0  0  0  0  0999 V2000
    4.4240   64.1790   64.1860 C   0  0  0  0  0  0  0  0  0  0  0  0
    4.5100   65.6680   63.8240 C   0  0  0  0  0  0  0  0  0  0  0  0
    3.2520   66.5030   64.0970 C   0  0  0  0  0  0  0  0  0  0  0  0
    3.3850   68.0030   63.8290 C   0  0  0  0  0  0  0  0  0  0  0  0
    5.0280   70.0810   67.1980 C   0  0  0  0  0  0  0  0  0  0  0  0
    3.6850   69.6910   67.1620 C   0  0  0  0  0  0  0  0  0  0  0  0
    3.1700   69.0120   66.0600 C   0  0  0  0  0  0  0  0  0  0  0  0
    3.9560   68.7050   65.0050 N   0  0  0  0  0  4  0  0  0  0  0  0
    5.2550   69.0800   64.9950 C   0  0  0  0  0  0  0  0  0  0  0  0
    5.8070   69.7600   66.0780 C   0  0  0  0  0  0  0  0  0  0  0  0
    7.1240   70.4610   68.6610 C   0  0  0  0  0  0  0  0  0  0  0  0
    5.6500   70.8360   68.3880 C   0  0  0  0  0  0  0  0  0  0  0  0
    5.6070   72.3550   68.1190 C   0  0  0  0  0  0  0  0  0  0  0  0
    4.8530   70.5240   69.6730 C   0  0  0  0  0  0  0  0  0  0  0  0
    3.5570   63.8280   65.4030 C   0  0  0  0  0  0  0  0  0  0  0  0
    4.3170   63.4060   66.6660 C   0  0  0  0  0  0  0  0  0  0  0  0
    3.4680   62.7650   67.7700 C   0  0  0  0  0  0  0  0  0  0  0  0
    3.9570   63.1020   69.1780 C   0  0  0  0  0  0  0  0  0  0  0  0
    3.5350   62.0340   70.1170 N   0  0  0  0  0  4  0  0  0  0  0  0
    2.3280   62.1020   70.7190 C   0  0  0  0  0  0  0  0  0  0  0  0
    1.9140   61.1020   71.5950 C   0  0  0  0  0  0  0  0  0  0  0  0
    2.7380   60.0010   71.8700 C   0  0  0  0  0  0  0  0  0  0  0  0
    3.9780   59.9650   71.2240 C   0  0  0  0  0  0  0  0  0  0  0  0
    4.3560   60.9850   70.3530 C   0  0  0  0  0  0  0  0  0  0  0  0
    2.2680   58.8990   72.8410 C   0  0  0  0  0  0  0  0  0  0  0  0
    2.1490   57.5030   72.1890 C   0  0  0  0  0  0  0  0  0  0  0  0
    3.2700   58.7750   74.0090 C   0  0  0  0  0  0  0  0  0  0  0  0
    0.8770   59.2630   73.4020 C   0  0  0  0  0  0  0  0  0  0  0  0
    4.0139   63.6450   63.3162 H   0  0  0  0  0  0  0  0  0  0  0  0
    5.4477   63.8817   64.4574 H   0  0  0  0  0  0  0  0  0  0  0  0
    5.3367   66.1071   64.4017 H   0  0  0  0  0  0  0  0  0  0  0  0
    4.6544   65.6991   62.7340 H   0  0  0  0  0  0  0  0  0  0  0  0
    2.4434   66.1155   63.4598 H   0  0  0  0  0  0  0  0  0  0  0  0
    3.0535   66.4057   65.1746 H   0  0  0  0  0  0  0  0  0  0  0  0
    4.0455   68.1564   62.9629 H   0  0  0  0  0  0  0  0  0  0  0  0
    2.3843   68.4131   63.6281 H   0  0  0  0  0  0  0  0  0  0  0  0
    3.0283   69.9231   68.0134 H   0  0  0  0  0  0  0  0  0  0  0  0
    2.1090   68.7219   66.0487 H   0  0  0  0  0  0  0  0  0  0  0  0
    5.8824   68.8456   64.1224 H   0  0  0  0  0  0  0  0  0  0  0  0
    6.8681   70.0488   66.0540 H   0  0  0  0  0  0  0  0  0  0  0  0
    7.2962   70.4172   69.7466 H   0  0  0  0  0  0  0  0  0  0  0  0
    7.3411   69.4790   68.2154 H   0  0  0  0  0  0  0  0  0  0  0  0
    7.7840   71.2198   68.2154 H   0  0  0  0  0  0  0  0  0  0  0  0
    5.5917   72.8966   69.0763 H   0  0  0  0  0  0  0  0  0  0  0  0
    6.4971   72.6510   67.5445 H   0  0  0  0  0  0  0  0  0  0  0  0
    4.7016   72.6001   67.5445 H   0  0  0  0  0  0  0  0  0  0  0  0
    5.4675   70.7646   70.5531 H   0  0  0  0  0  0  0  0  0  0  0  0
    3.9344   71.1289   69.6907 H   0  0  0  0  0  0  0  0  0  0  0  0
    4.5892   69.4562   69.6907 H   0  0  0  0  0  0  0  0  0  0  0  0
    2.9526   64.7125   65.6528 H   0  0  0  0  0  0  0  0  0  0  0  0
    2.9649   62.9504   65.1041 H   0  0  0  0  0  0  0  0  0  0  0  0
    5.0890   62.6808   66.3693 H   0  0  0  0  0  0  0  0  0  0  0  0
    4.7192   64.3342   67.0980 H   0  0  0  0  0  0  0  0  0  0  0  0
    2.4323   63.1204   67.6653 H   0  0  0  0  0  0  0  0  0  0  0  0
    3.5449   61.6743   67.6497 H   0  0  0  0  0  0  0  0  0  0  0  0
    5.0545   63.1766   69.1769 H   0  0  0  0  0  0  0  0  0  0  0  0
    3.5244   64.0620   69.4963 H   0  0  0  0  0  0  0  0  0  0  0  0
    1.6653   62.9560   70.5152 H   0  0  0  0  0  0  0  0  0  0  0  0
    0.9282   61.1765   72.0774 H   0  0  0  0  0  0  0  0  0  0  0  0
    4.6620   59.1228   71.4054 H   0  0  0  0  0  0  0  0  0  0  0  0
    5.3337   60.9366   69.8513 H   0  0  0  0  0  0  0  0  0  0  0  0
    2.0836   56.7358   72.9746 H   0  0  0  0  0  0  0  0  0  0  0  0
    1.2444   57.4660   71.5642 H   0  0  0  0  0  0  0  0  0  0  0  0
    3.0342   57.3135   71.5642 H   0  0  0  0  0  0  0  0  0  0  0  0
    2.7293   58.8419   74.9646 H   0  0  0  0  0  0  0  0  0  0  0  0
    3.7870   57.8060   73.9473 H   0  0  0  0  0  0  0  0  0  0  0  0
    4.0076   59.5887   73.9473 H   0  0  0  0  0  0  0  0  0  0  0  0
    0.9112   59.2540   74.5014 H   0  0  0  0  0  0  0  0  0  0  0  0
    0.5916   60.2661   73.0522 H   0  0  0  0  0  0  0  0  0  0  0  0
    0.1368   58.5283   73.0522 H   0  0  0  0  0  0  0  0  0  0  0  0
  2  1  1  0
  3  2  1  0
  4  3  1  0
  6  5  2  0
  7  6  1  0
  8  7  2  0
  8  4  1  0
  9  8  1  0
 10  5  1  0
 10  9  2  0
 12 11  1  0
 12  5  1  0
 13 12  1  0
 14 12  1  0
 15  1  1  0
 16 15  1  0
 17 16  1  0
 18 17  1  0
 19 18  1  0
 20 19  2  0
 21 20  1  0
 22 21  2  0
 23 22  1  0
 24 23  2  0
 24 19  1  0
 25 22  1  0
 26 25  1  0
 27 25  1  0
 28 25  1  0
  1 29  1  0
  1 30  1  0
  2 31  1  0
  2 32  1  0
  3 33  1  0
  3 34  1  0
  4 35  1  0
  4 36  1  0
  6 37  1  0
  7 38  1  0
  9 39  1  0
 10 40  1  0
 11 41  1  0
 11 42  1  0
 11 43  1  0
 13 44  1  0
 13 45  1  0
 13 46  1  0
 14 47  1  0
 14 48  1  0
 14 49  1  0
 15 50  1  0
 15 51  1  0
 16 52  1  0
 16 53  1  0
 17 54  1  0
 17 55  1  0
 18 56  1  0
 18 57  1  0
 20 58  1  0
 21 59  1  0
 23 60  1  0
 24 61  1  0
 26 62  1  0
 26 63  1  0
 26 64  1  0
 27 65  1  0
 27 66  1  0
 27 67  1  0
 28 68  1  0
 28 69  1  0
 28 70  1  0
M  CHG  2   8   1  19   1
M  END
>  <score>  (8) 
-8.135

$$$$
=
     RDKit          3D

 70 71  0  0  0  0  0  0  0  0999 V2000
    1.5550   66.7440   66.1920 C   0  0  0  0  0  0  0  0  0  0  0  0
    1.8510   66.3620   64.7350 C   0  0  0  0  0  0  0  0  0  0  0  0
    3.2760   66.6420   64.2400 C   0  0  0  0  0  0  0  0  0  0  0  0
    3.5740   68.0970   63.8730 C   0  0  0  0  0  0  0  0  0  0  0  0
    5.2360   70.1630   67.2400 C   0  0  0  0  0  0  0  0  0  0  0  0
    6.0350   69.7460   66.1700 C   0  0  0  0  0  0  0  0  0  0  0  0
    5.4760   69.0800   65.0820 C   0  0  0  0  0  0  0  0  0  0  0  0
    4.1490   68.8300   65.0290 N   0  0  0  0  0  4  0  0  0  0  0  0
    3.3470   69.2010   66.0520 C   0  0  0  0  0  0  0  0  0  0  0  0
    3.8680   69.8700   67.1570 C   0  0  0  0  0  0  0  0  0  0  0  0
    7.2530   70.5070   68.8200 C   0  0  0  0  0  0  0  0  0  0  0  0
    5.8010   70.9010   68.4700 C   0  0  0  0  0  0  0  0  0  0  0  0
    5.7890   72.4230   68.2120 C   0  0  0  0  0  0  0  0  0  0  0  0
    4.9300   70.5880   69.7060 C   0  0  0  0  0  0  0  0  0  0  0  0
    0.1300   67.2280   66.4890 C   0  0  0  0  0  0  0  0  0  0  0  0
   -0.1470   67.6450   67.9380 C   0  0  0  0  0  0  0  0  0  0  0  0
   -0.0960   66.5170   68.9760 C   0  0  0  0  0  0  0  0  0  0  0  0
    1.1600   66.5550   69.8440 C   0  0  0  0  0  0  0  0  0  0  0  0
    1.3860   65.2170   70.4440 N   0  0  0  0  0  4  0  0  0  0  0  0
    2.5850   64.6110   70.3100 C   0  0  0  0  0  0  0  0  0  0  0  0
    2.8150   63.3600   70.8760 C   0  0  0  0  0  0  0  0  0  0  0  0
    1.8100   62.7020   71.6010 C   0  0  0  0  0  0  0  0  0  0  0  0
    0.5850   63.3650   71.7210 C   0  0  0  0  0  0  0  0  0  0  0  0
    0.3930   64.6170   71.1400 C   0  0  0  0  0  0  0  0  0  0  0  0
    2.0780   61.3180   72.2250 C   0  0  0  0  0  0  0  0  0  0  0  0
    3.0150   61.3580   73.4520 C   0  0  0  0  0  0  0  0  0  0  0  0
    0.7440   60.6920   72.6870 C   0  0  0  0  0  0  0  0  0  0  0  0
    2.7360   60.3960   71.1760 C   0  0  0  0  0  0  0  0  0  0  0  0
    1.7458   65.8588   66.8165 H   0  0  0  0  0  0  0  0  0  0  0  0
    2.2086   67.6014   66.4102 H   0  0  0  0  0  0  0  0  0  0  0  0
    1.6629   65.2838   64.6254 H   0  0  0  0  0  0  0  0  0  0  0  0
    1.1952   66.9991   64.1234 H   0  0  0  0  0  0  0  0  0  0  0  0
    3.9752   66.3434   65.0349 H   0  0  0  0  0  0  0  0  0  0  0  0
    3.3896   66.0673   63.3090 H   0  0  0  0  0  0  0  0  0  0  0  0
    4.2924   68.1181   63.0402 H   0  0  0  0  0  0  0  0  0  0  0  0
    2.6322   68.5850   63.5818 H   0  0  0  0  0  0  0  0  0  0  0  0
    7.1165   69.9463   66.1882 H   0  0  0  0  0  0  0  0  0  0  0  0
    6.1233   68.7531   64.2548 H   0  0  0  0  0  0  0  0  0  0  0  0
    2.2718   68.9722   66.0114 H   0  0  0  0  0  0  0  0  0  0  0  0
    3.1973   70.1722   67.9748 H   0  0  0  0  0  0  0  0  0  0  0  0
    7.3709   70.4750   69.9132 H   0  0  0  0  0  0  0  0  0  0  0  0
    7.4759   69.5159   68.3980 H   0  0  0  0  0  0  0  0  0  0  0  0
    7.9463   71.2495   68.3980 H   0  0  0  0  0  0  0  0  0  0  0  0
    5.7848   72.9578   69.1732 H   0  0  0  0  0  0  0  0  0  0  0  0
    6.6850   72.7049   67.6395 H   0  0  0  0  0  0  0  0  0  0  0  0
    4.8887   72.6908   67.6395 H   0  0  0  0  0  0  0  0  0  0  0  0
    5.5044   70.7944   70.6211 H   0  0  0  0  0  0  0  0  0  0  0  0
    4.0288   71.2185   69.6887 H   0  0  0  0  0  0  0  0  0  0  0  0
    4.6363   69.5281   69.6887 H   0  0  0  0  0  0  0  0  0  0  0  0
   -0.0726   68.0957   65.8440 H   0  0  0  0  0  0  0  0  0  0  0  0
   -0.5237   66.3643   66.2976 H   0  0  0  0  0  0  0  0  0  0  0  0
    0.6017   68.3994   68.2216 H   0  0  0  0  0  0  0  0  0  0  0  0
   -1.1820   68.0172   67.9503 H   0  0  0  0  0  0  0  0  0  0  0  0
   -0.9760   66.6038   69.6303 H   0  0  0  0  0  0  0  0  0  0  0  0
   -0.0837   65.5653   68.4245 H   0  0  0  0  0  0  0  0  0  0  0  0
    2.0261   66.8301   69.2242 H   0  0  0  0  0  0  0  0  0  0  0  0
    1.0310   67.2990   70.6439 H   0  0  0  0  0  0  0  0  0  0  0  0
    3.3880   65.1106   69.7482 H   0  0  0  0  0  0  0  0  0  0  0  0
    3.7976   62.8811   70.7532 H   0  0  0  0  0  0  0  0  0  0  0  0
   -0.2364   62.8931   72.2802 H   0  0  0  0  0  0  0  0  0  0  0  0
   -0.5774   65.1235   71.2485 H   0  0  0  0  0  0  0  0  0  0  0  0
    2.4142   61.3324   74.3731 H   0  0  0  0  0  0  0  0  0  0  0  0
    3.6874   60.4877   73.4284 H   0  0  0  0  0  0  0  0  0  0  0  0
    3.6108   62.2824   73.4284 H   0  0  0  0  0  0  0  0  0  0  0  0
    0.7081   60.6752   73.7863 H   0  0  0  0  0  0  0  0  0  0  0  0
   -0.0947   61.2905   72.3019 H   0  0  0  0  0  0  0  0  0  0  0  0
    0.6684   59.6644   72.3019 H   0  0  0  0  0  0  0  0  0  0  0  0
    3.3016   59.6034   71.6878 H   0  0  0  0  0  0  0  0  0  0  0  0
    1.9565   59.9421   70.5464 H   0  0  0  0  0  0  0  0  0  0  0  0
    3.4187   60.9856   70.5464 H   0  0  0  0  0  0  0  0  0  0  0  0
  2  1  1  0
  3  2  1  0
  4  3  1  0
  6  5  2  0
  7  6  1  0
  8  7  2  0
  8  4  1  0
  9  8  1  0
 10  5  1  0
 10  9  2  0
 12 11  1  0
 12  5  1  0
 13 12  1  0
 14 12  1  0
 15  1  1  0
 16 15  1  0
 17 16  1  0
 18 17  1  0
 19 18  1  0
 20 19  2  0
 21 20  1  0
 22 21  2  0
 23 22  1  0
 24 23  2  0
 24 19  1  0
 25 22  1  0
 26 25  1  0
 27 25  1  0
 28 25  1  0
  1 29  1  0
  1 30  1  0
  2 31  1  0
  2 32  1  0
  3 33  1  0
  3 34  1  0
  4 35  1  0
  4 36  1  0
  6 37  1  0
  7 38  1  0
  9 39  1  0
 10 40  1  0
 11 41  1  0
 11 42  1  0
 11 43  1  0
 13 44  1  0
 13 45  1  0
 13 46  1  0
 14 47  1  0
 14 48  1  0
 14 49  1  0
 15 50  1  0
 15 51  1  0
 16 52  1  0
 16 53  1  0
 17 54  1  0
 17 55  1  0
 18 56  1  0
 18 57  1  0
 20 58  1  0
 21 59  1  0
 23 60  1  0
 24 61  1  0
 26 62  1  0
 26 63  1  0
 26 64  1  0
 27 65  1  0
 27 66  1  0
 27 67  1  0
 28 68  1  0
 28 69  1  0
 28 70  1  0
M  CHG  2   8   1  19   1
M  END
>  <score>  (9) 
-8.098

$$$$
