=
     RDKit          3D

140142  0  0  0  0  0  0  0  0999 V2000
   -1.9300   66.4930   76.2360 C   0  0  2  0  0  0  0  0  0  0  0  0
   -1.6800   64.9850   76.3880 C   0  0  0  0  0  0  0  0  0  0  0  0
   -0.1960   64.5960   76.3410 C   0  0  0  0  0  0  0  0  0  0  0  0
    0.6190   64.9510   75.0870 C   0  0  2  0  0  0  0  0  0  0  0  0
    0.1680   64.3180   73.7400 C   0  0  1  0  0  0  0  0  0  0  0  0
    0.1760   62.7810   73.7150 C   0  0  0  0  0  0  0  0  0  0  0  0
    1.4500   62.1330   73.1310 C   0  0  2  0  0  0  0  0  0  0  0  0
    1.5250   62.3430   71.6170 C   0  0  0  0  0  0  0  0  0  0  0  0
    2.5970   61.4750   70.9560 C   0  0  1  0  0  0  0  0  0  0  0  0
    2.4300   60.0200   71.3940 C   0  0  2  0  0  0  0  0  0  0  0  0
    2.4550   59.9520   72.9260 C   0  0  1  0  0  0  0  0  0  0  0  0
    1.3610   60.7370   73.4380 O   0  0  0  0  0  0  0  0  0  0  0  0
    2.3670   58.5770   73.6450 C   0  0  0  0  0  0  0  0  0  0  0  0
    1.5190   57.4610   72.9870 C   0  0  2  0  0  0  0  0  0  0  0  0
    0.1350   57.4410   73.5920 C   0  0  0  0  0  0  0  0  0  0  0  0
   -0.4720   56.3930   74.1740 C   0  0  0  0  0  0  0  0  0  0  0  0
   -1.8020   56.4450   74.7390 C   0  0  0  0  0  0  0  0  0  0  0  0
   -2.2000   57.3750   75.6220 C   0  0  0  0  0  0  0  0  0  0  0  0
   -3.5090   57.4210   76.2310 C   0  0  0  0  0  0  0  0  0  0  0  0
   -4.6620   57.3770   75.5450 C   0  0  0  0  0  0  0  0  0  0  0  0
   -5.9670   57.5110   76.1510 C   0  0  0  0  0  0  0  0  0  0  0  0
   -6.3940   56.7870   77.1970 C   0  0  0  0  0  0  0  0  0  0  0  0
   -7.7560   56.9500   77.8140 C   0  0  0  0  0  0  0  0  0  0  0  0
   -7.6570   57.2240   79.3190 C   0  0  0  0  0  0  0  0  0  0  0  0
   -8.9930   57.6120   79.8950 C   0  0  0  0  0  0  0  0  0  0  0  0
   -9.3420   58.7940   80.4290 C   0  0  0  0  0  0  0  0  0  0  0  0
   -8.5100   59.9670   80.5600 C   0  0  0  0  0  0  0  0  0  0  0  0
   -7.8830   60.5660   79.5340 C   0  0  0  0  0  0  0  0  0  0  0  0
   -6.9890   61.7850   79.6350 C   0  0  1  0  0  0  0  0  0  0  0  0
   -7.6800   63.0320   80.2680 C   0  0  2  0  0  0  0  0  0  0  0  0
   -8.5610   63.8420   79.2770 C   0  0  2  0  0  0  0  0  0  0  0  0
   -9.1510   65.1040   79.9700 C   0  0  1  0  0  0  0  0  0  0  0  0
   -9.4010   66.1230   78.9660 O   0  0  0  0  0  0  0  0  0  0  0  0
   -8.4490   66.9230   78.4280 C   0  0  0  0  0  0  0  0  0  0  0  0
   -8.6600   67.4930   77.3570 O   0  0  0  0  0  0  0  0  0  0  0  0
   -7.1730   67.1850   79.1920 C   0  0  0  0  0  0  0  0  0  0  0  0
   -5.9400   66.7210   78.4140 C   0  0  1  0  0  0  0  0  0  0  0  0
   -4.6810   67.4400   78.9140 C   0  0  0  0  0  0  0  0  0  0  0  0
   -3.3600   66.8980   78.3450 C   0  0  1  0  0  0  0  0  0  0  0  0
   -3.2790   66.9530   76.8150 C   0  0  0  0  0  0  0  0  0  0  0  0
  -10.4780   64.8590   80.6900 C   0  0  0  0  0  0  0  0  0  0  0  0
   -9.6370   63.0180   78.5630 C   0  0  0  0  0  0  0  0  0  0  0  0
   -5.6890   61.3790   80.3460 C   0  0  0  0  0  0  0  0  0  0  0  0
    3.4990   59.1880   70.7220 C   0  0  0  0  0  0  0  0  0  0  0  0
    4.3890   59.8490   70.1130 O   0  0  0  0  0  0  0  0  0  0  0  0
    3.4120   57.9270   70.6780 O   0  0  0  0  0  1  0  0  0  0  0  0
   -1.9240   66.8160   74.8360 O   0  0  0  0  0  0  0  0  0  0  0  0
    1.9740   64.5750   75.3680 O   0  0  0  0  0  0  0  0  0  0  0  0
   -1.1400   64.7630   73.3770 O   0  0  0  0  0  0  0  0  0  0  0  0
    2.6170   62.6740   73.7320 O   0  0  0  0  0  0  0  0  0  0  0  0
    2.4140   61.6250   69.5430 O   0  0  0  0  0  0  0  0  0  0  0  0
   -2.2940   67.6690   78.9080 O   0  0  0  0  0  0  0  0  0  0  0  0
   -5.7440   65.3160   78.5470 O   0  0  0  0  0  0  0  0  0  0  0  0
   -6.6800   63.9460   80.7700 O   0  0  0  0  0  0  0  0  0  0  0  0
    2.1510   56.1640   73.1850 O   0  0  0  0  0  0  0  0  0  0  0  0
    1.4240   55.3370   74.1070 C   0  0  2  0  0  0  0  0  0  0  0  0
    2.1050   55.2230   75.3740 O   0  0  0  0  0  0  0  0  0  0  0  0
    1.3750   54.4120   76.3260 C   0  0  2  0  0  0  0  0  0  0  0  0
    2.2020   54.3790   77.6070 C   0  0  0  0  0  0  0  0  0  0  0  0
    1.0810   52.9720   75.7990 C   0  0  2  0  0  0  0  0  0  0  0  0
    0.4200   53.1270   74.4260 C   0  0  1  0  0  0  0  0  0  0  0  0
    1.3510   53.9210   73.5410 C   0  0  2  0  0  0  0  0  0  0  0  0
    0.1370   51.8340   73.7420 N   0  0  0  0  0  4  0  0  0  0  0  0
    2.6500   53.2830   73.4860 O   0  0  0  0  0  0  0  0  0  0  0  0
    0.2020   52.2310   76.6510 O   0  0  0  0  0  0  0  0  0  0  0  0
   -1.1341   67.0063   76.7955 H   0  0  0  0  0  0  0  0  0  0  0  0
   -2.0933   64.6605   77.3544 H   0  0  0  0  0  0  0  0  0  0  0  0
   -2.1681   64.4914   75.5347 H   0  0  0  0  0  0  0  0  0  0  0  0
    0.2945   65.0851   77.1955 H   0  0  0  0  0  0  0  0  0  0  0  0
   -0.2069   63.4961   76.3509 H   0  0  0  0  0  0  0  0  0  0  0  0
    0.4700   66.0269   74.9130 H   0  0  0  0  0  0  0  0  0  0  0  0
    0.9221   64.6599   73.0158 H   0  0  0  0  0  0  0  0  0  0  0  0
    0.0577   62.4245   74.7489 H   0  0  0  0  0  0  0  0  0  0  0  0
   -0.6468   62.4852   73.0475 H   0  0  0  0  0  0  0  0  0  0  0  0
    0.5482   62.0924   71.1776 H   0  0  0  0  0  0  0  0  0  0  0  0
    1.7914   63.3953   71.4390 H   0  0  0  0  0  0  0  0  0  0  0  0
    3.6138   61.7782   71.2461 H   0  0  0  0  0  0  0  0  0  0  0  0
    1.4607   59.6040   71.0820 H   0  0  0  0  0  0  0  0  0  0  0  0
    3.4706   60.3125   73.1466 H   0  0  0  0  0  0  0  0  0  0  0  0
    3.3933   58.1930   73.7415 H   0  0  0  0  0  0  0  0  0  0  0  0
    1.8456   58.7954   74.5886 H   0  0  0  0  0  0  0  0  0  0  0  0
    1.4456   57.6663   71.9088 H   0  0  0  0  0  0  0  0  0  0  0  0
   -0.4346   58.3812   73.5520 H   0  0  0  0  0  0  0  0  0  0  0  0
    0.0748   55.4398   74.2235 H   0  0  0  0  0  0  0  0  0  0  0  0
   -2.5285   55.6798   74.4280 H   0  0  0  0  0  0  0  0  0  0  0  0
   -1.4784   58.1569   75.9013 H   0  0  0  0  0  0  0  0  0  0  0  0
   -3.5646   57.4969   77.3270 H   0  0  0  0  0  0  0  0  0  0  0  0
   -4.6103   57.2301   74.4561 H   0  0  0  0  0  0  0  0  0  0  0  0
   -6.6561   58.2560   75.7266 H   0  0  0  0  0  0  0  0  0  0  0  0
   -5.7134   56.0362   77.6249 H   0  0  0  0  0  0  0  0  0  0  0  0
   -8.2702   57.7931   77.3294 H   0  0  0  0  0  0  0  0  0  0  0  0
   -8.3174   56.0154   77.6676 H   0  0  0  0  0  0  0  0  0  0  0  0
   -7.2989   56.3156   79.8255 H   0  0  0  0  0  0  0  0  0  0  0  0
   -6.9572   58.0585   79.4740 H   0  0  0  0  0  0  0  0  0  0  0  0
   -9.7739   56.8375   79.8763 H   0  0  0  0  0  0  0  0  0  0  0  0
  -10.3717   58.8774   80.8069 H   0  0  0  0  0  0  0  0  0  0  0  0
   -8.3814   60.3975   81.5640 H   0  0  0  0  0  0  0  0  0  0  0  0
   -8.0316   60.1338   78.5334 H   0  0  0  0  0  0  0  0  0  0  0  0
   -6.7517   62.1271   78.6168 H   0  0  0  0  0  0  0  0  0  0  0  0
   -8.3270   62.6283   81.0607 H   0  0  0  0  0  0  0  0  0  0  0  0
   -7.8878   64.1666   78.4698 H   0  0  0  0  0  0  0  0  0  0  0  0
   -8.4065   65.4078   80.7206 H   0  0  0  0  0  0  0  0  0  0  0  0
   -7.0878   68.2649   79.3833 H   0  0  0  0  0  0  0  0  0  0  0  0
   -7.2160   66.6189   80.1342 H   0  0  0  0  0  0  0  0  0  0  0  0
   -6.1141   66.9651   77.3556 H   0  0  0  0  0  0  0  0  0  0  0  0
   -4.7617   68.5021   78.6393 H   0  0  0  0  0  0  0  0  0  0  0  0
   -4.6410   67.2745   80.0007 H   0  0  0  0  0  0  0  0  0  0  0  0
   -3.2892   65.8337   78.6140 H   0  0  0  0  0  0  0  0  0  0  0  0
   -3.4540   67.9916   76.4978 H   0  0  0  0  0  0  0  0  0  0  0  0
   -4.0398   66.2559   76.4338 H   0  0  0  0  0  0  0  0  0  0  0  0
  -10.3160   64.8889   81.7776 H   0  0  0  0  0  0  0  0  0  0  0  0
  -11.1992   65.6392   80.4051 H   0  0  0  0  0  0  0  0  0  0  0  0
  -10.8731   63.8727   80.4051 H   0  0  0  0  0  0  0  0  0  0  0  0
  -10.2783   62.5269   79.3096 H   0  0  0  0  0  0  0  0  0  0  0  0
  -10.2487   63.6808   77.9333 H   0  0  0  0  0  0  0  0  0  0  0  0
   -9.1566   62.2546   77.9333 H   0  0  0  0  0  0  0  0  0  0  0  0
   -5.8369   61.4252   81.4350 H   0  0  0  0  0  0  0  0  0  0  0  0
   -5.4174   60.3533   80.0560 H   0  0  0  0  0  0  0  0  0  0  0  0
   -4.8819   62.0679   80.0560 H   0  0  0  0  0  0  0  0  0  0  0  0
   -1.9057   67.7995   74.7243 H   0  0  0  0  0  0  0  0  0  0  0  0
    2.1096   64.5374   76.3480 H   0  0  0  0  0  0  0  0  0  0  0  0
   -1.6667   64.9422   74.1959 H   0  0  0  0  0  0  0  0  0  0  0  0
    2.5298   62.6336   74.7173 H   0  0  0  0  0  0  0  0  0  0  0  0
    1.6599   62.2431   69.3717 H   0  0  0  0  0  0  0  0  0  0  0  0
   -2.3457   67.6316   79.8959 H   0  0  0  0  0  0  0  0  0  0  0  0
   -5.7106   65.0769   79.5071 H   0  0  0  0  0  0  0  0  0  0  0  0
   -6.6910   63.9360   81.7599 H   0  0  0  0  0  0  0  0  0  0  0  0
    0.4343   55.7952   74.2503 H   0  0  0  0  0  0  0  0  0  0  0  0
    0.3843   54.8552   76.5050 H   0  0  0  0  0  0  0  0  0  0  0  0
    1.5304   54.4058   78.4778 H   0  0  0  0  0  0  0  0  0  0  0  0
    2.8002   53.4563   77.6336 H   0  0  0  0  0  0  0  0  0  0  0  0
    2.8718   55.2511   77.6336 H   0  0  0  0  0  0  0  0  0  0  0  0
    2.0279   52.4137   75.7586 H   0  0  0  0  0  0  0  0  0  0  0  0
   -0.5459   53.6259   74.5934 H   0  0  0  0  0  0  0  0  0  0  0  0
    0.9812   53.9647   72.5059 H   0  0  0  0  0  0  0  0  0  0  0  0
   -0.0235   51.1005   74.4471 H   0  0  0  0  0  0  0  0  0  0  0  0
   -0.7021   51.9336   73.1530 H   0  0  0  0  0  0  0  0  0  0  0  0
    0.9410   51.5740   73.1530 H   0  0  0  0  0  0  0  0  0  0  0  0
    2.9778   53.1220   74.4062 H   0  0  0  0  0  0  0  0  0  0  0  0
    0.4242   52.4183   77.5974 H   0  0  0  0  0  0  0  0  0  0  0  0
  2  1  1  0
  3  2  1  0
  4  3  1  0
  5  4  1  0
  6  5  1  0
  7  6  1  0
  8  7  1  0
  9  8  1  0
 10  9  1  0
 11 10  1  0
 12 11  1  0
 12  7  1  0
 13 11  1  0
 14 13  1  0
 15 14  1  0
 16 15  2  0
 17 16  1  0
 18 17  2  0
 19 18  1  0
 20 19  2  0
 21 20  1  0
 22 21  2  0
 23 22  1  0
 24 23  1  0
 25 24  1  0
 26 25  2  0
 27 26  1  0
 28 27  2  0
 29 28  1  0
 30 29  1  0
 31 30  1  0
 32 31  1  0
 33 32  1  0
 34 33  1  0
 35 34  2  0
 36 34  1  0
 37 36  1  0
 38 37  1  0
 39 38  1  0
 40  1  1  0
 40 39  1  0
 41 32  1  0
 42 31  1  0
 43 29  1  0
 44 10  1  0
 45 44  2  0
 46 44  1  0
 47  1  1  0
 48  4  1  0
 49  5  1  0
  7 50  1  1
 51  9  1  0
 52 39  1  0
 53 37  1  0
 54 30  1  0
 55 14  1  0
 56 55  1  0
 57 56  1  0
 58 57  1  0
 59 58  1  0
 60 58  1  0
 61 60  1  0
 62 61  1  0
 62 56  1  0
 63 61  1  0
 64 62  1  0
 65 60  1  0
  1 66  1  1
  2 67  1  0
  2 68  1  0
  3 69  1  0
  3 70  1  0
  4 71  1  6
  5 72  1  6
  6 73  1  0
  6 74  1  0
  8 75  1  0
  8 76  1  0
  9 77  1  1
 10 78  1  6
 11 79  1  1
 13 80  1  0
 13 81  1  0
 14 82  1  6
 15 83  1  0
 16 84  1  0
 17 85  1  0
 18 86  1  0
 19 87  1  0
 20 88  1  0
 21 89  1  0
 22 90  1  0
 23 91  1  0
 23 92  1  0
 24 93  1  0
 24 94  1  0
 25 95  1  0
 26 96  1  0
 27 97  1  0
 28 98  1  0
 29 99  1  6
 30100  1  1
 31101  1  6
 32102  1  1
 36103  1  0
 36104  1  0
 37105  1  6
 38106  1  0
 38107  1  0
 39108  1  1
 40109  1  0
 40110  1  0
 41111  1  0
 41112  1  0
 41113  1  0
 42114  1  0
 42115  1  0
 42116  1  0
 43117  1  0
 43118  1  0
 43119  1  0
 47120  1  0
 48121  1  0
 49122  1  0
 50123  1  0
 51124  1  0
 52125  1  0
 53126  1  0
 54127  1  0
 56128  1  1
 58129  1  1
 59130  1  0
 59131  1  0
 59132  1  0
 60133  1  6
 61134  1  1
 62135  1  6
 63136  1  0
 63137  1  0
 63138  1  0
 64139  1  0
 65140  1  0
M  CHG  2  46  -1  63   1
M  END
>  <score>  (1) 
-5.22

$$$$
