=
     RDKit          3D

 55 58  0  0  0  0  0  0  0  0999 V2000
    1.1940   68.7710   67.7470 C   0  0  0  0  0  0  0  0  0  0  0  0
    1.9650   69.1170   66.5400 N   0  0  0  0  0  0  0  0  0  0  0  0
    1.3330   68.9220   65.2750 C   0  0  0  0  0  0  0  0  0  0  0  0
   -0.0710   68.7990   65.1440 C   0  0  0  0  0  0  0  0  0  0  0  0
   -0.7020   68.6190   63.9070 C   0  0  0  0  0  0  0  0  0  0  0  0
    0.0520   68.5630   62.7480 C   0  0  0  0  0  0  0  0  0  0  0  0
    1.4320   68.6890   62.8330 C   0  0  0  0  0  0  0  0  0  0  0  0
    2.0720   68.8710   64.0750 C   0  0  0  0  0  0  0  0  0  0  0  0
    3.8400   68.9860   64.0030 S   0  0  0  0  0  0  0  0  0  0  0  0
    4.2610   69.4610   65.6580 C   0  0  0  0  0  0  0  0  0  0  0  0
    3.3410   69.4590   66.7280 C   0  0  0  0  0  0  0  0  0  0  0  0
    3.8550   69.8440   67.9870 C   0  0  0  0  0  0  0  0  0  0  0  0
    5.1980   70.1980   68.1740 C   0  0  0  0  0  0  0  0  0  0  0  0
    5.7370   70.6560   69.7420 Cl  0  0  0  0  0  0  0  0  0  0  0  0
    6.0820   70.1840   67.1120 C   0  0  0  0  0  0  0  0  0  0  0  0
    5.6120   69.8160   65.8560 C   0  0  0  0  0  0  0  0  0  0  0  0
    1.1550   67.2490   67.9650 C   0  0  0  0  0  0  0  0  0  0  0  0
    1.2290   66.8590   69.4400 C   0  0  0  0  0  0  0  0  0  0  0  0
    1.4170   63.5960   72.1060 N   0  0  0  0  0  4  0  0  0  0  0  0
    2.3750   63.4790   70.9360 C   0  0  0  0  0  0  0  0  0  0  0  0
    2.5330   64.8360   70.2150 C   0  0  0  0  0  0  0  0  0  0  0  0
    1.1940   65.3410   69.6430 N   0  0  0  0  0  4  0  0  0  0  0  0
   -0.0350   64.8520   70.4340 C   0  0  0  0  0  0  0  0  0  0  0  0
    0.2780   64.5900   71.9250 C   0  0  0  0  0  0  0  0  0  0  0  0
    0.9940   62.2340   72.6800 C   0  0  0  0  0  0  0  0  0  0  0  0
    1.9460   61.9030   73.8380 C   0  0  0  0  0  0  0  0  0  0  0  0
    1.9450   63.0440   74.7110 O   0  0  0  0  0  0  0  0  0  0  0  0
    1.6630   69.2467   68.6209 H   0  0  0  0  0  0  0  0  0  0  0  0
    0.1627   69.1306   67.6164 H   0  0  0  0  0  0  0  0  0  0  0  0
   -0.6917   68.8468   66.0509 H   0  0  0  0  0  0  0  0  0  0  0  0
   -1.7966   68.5222   63.8566 H   0  0  0  0  0  0  0  0  0  0  0  0
   -0.4356   68.4205   61.7723 H   0  0  0  0  0  0  0  0  0  0  0  0
    2.0362   68.6460   61.9148 H   0  0  0  0  0  0  0  0  0  0  0  0
    3.1758   69.8666   68.8520 H   0  0  0  0  0  0  0  0  0  0  0  0
    7.1372   70.4587   67.2573 H   0  0  0  0  0  0  0  0  0  0  0  0
    6.3055   69.8014   65.0022 H   0  0  0  0  0  0  0  0  0  0  0  0
    0.2166   66.8580   67.5450 H   0  0  0  0  0  0  0  0  0  0  0  0
    2.0363   66.8207   67.4651 H   0  0  0  0  0  0  0  0  0  0  0  0
    2.1659   67.2508   69.8628 H   0  0  0  0  0  0  0  0  0  0  0  0
    0.3503   67.2862   69.9453 H   0  0  0  0  0  0  0  0  0  0  0  0
    1.9781   64.0405   72.8466 H   0  0  0  0  0  0  0  0  0  0  0  0
    3.3576   63.1515   71.3065 H   0  0  0  0  0  0  0  0  0  0  0  0
    1.9699   62.7468   70.2220 H   0  0  0  0  0  0  0  0  0  0  0  0
    2.9159   65.5773   70.9318 H   0  0  0  0  0  0  0  0  0  0  0  0
    3.2318   64.6979   69.3768 H   0  0  0  0  0  0  0  0  0  0  0  0
    1.0775   64.9132   68.7133 H   0  0  0  0  0  0  0  0  0  0  0  0
   -0.8221   65.6177   70.3693 H   0  0  0  0  0  0  0  0  0  0  0  0
   -0.3564   63.8981   69.9904 H   0  0  0  0  0  0  0  0  0  0  0  0
    0.5586   65.5412   72.4008 H   0  0  0  0  0  0  0  0  0  0  0  0
   -0.6223   64.1612   72.3894 H   0  0  0  0  0  0  0  0  0  0  0  0
   -0.0410   62.2874   73.0487 H   0  0  0  0  0  0  0  0  0  0  0  0
    1.0434   61.4555   71.9044 H   0  0  0  0  0  0  0  0  0  0  0  0
    1.5916   61.0123   74.3775 H   0  0  0  0  0  0  0  0  0  0  0  0
    2.9595   61.6879   73.4684 H   0  0  0  0  0  0  0  0  0  0  0  0
    1.9453   62.7389   75.6528 H   0  0  0  0  0  0  0  0  0  0  0  0
  2  1  1  0
  3  2  1  0
  4  3  2  0
  5  4  1  0
  6  5  2  0
  7  6  1  0
  8  7  2  0
  8  3  1  0
  9  8  1  0
 10  9  1  0
 11 10  2  0
 11  2  1  0
 12 11  1  0
 13 12  2  0
 14 13  1  0
 15 13  1  0
 16 10  1  0
 16 15  2  0
 17  1  1  0
 18 17  1  0
 20 19  1  0
 21 20  1  0
 22 21  1  0
 22 18  1  0
 23 22  1  0
 24 23  1  0
 24 19  1  0
 25 19  1  0
 26 25  1  0
 27 26  1  0
  1 28  1  0
  1 29  1  0
  4 30  1  0
  5 31  1  0
  6 32  1  0
  7 33  1  0
 12 34  1  0
 15 35  1  0
 16 36  1  0
 17 37  1  0
 17 38  1  0
 18 39  1  0
 18 40  1  0
 19 41  1  0
 20 42  1  0
 20 43  1  0
 21 44  1  0
 21 45  1  0
 22 46  1  0
 23 47  1  0
 23 48  1  0
 24 49  1  0
 24 50  1  0
 25 51  1  0
 25 52  1  0
 26 53  1  0
 26 54  1  0
 27 55  1  0
M  CHG  2  19   1  22   1
M  END
>  <score>  (1) 
-8.908

$$$$
=
     RDKit          3D

 55 58  0  0  0  0  0  0  0  0999 V2000
    1.5190   68.5450   68.2970 C   0  0  0  0  0  0  0  0  0  0  0  0
    1.4480   68.9070   66.8710 N   0  0  0  0  0  0  0  0  0  0  0  0
    0.1710   68.8420   66.2360 C   0  0  0  0  0  0  0  0  0  0  0  0
   -1.0380   68.8350   66.9730 C   0  0  0  0  0  0  0  0  0  0  0  0
   -2.2960   68.7830   66.3600 C   0  0  0  0  0  0  0  0  0  0  0  0
   -2.3920   68.7430   64.9800 C   0  0  0  0  0  0  0  0  0  0  0  0
   -1.2290   68.7570   64.2220 C   0  0  0  0  0  0  0  0  0  0  0  0
    0.0390   68.8110   64.8320 C   0  0  0  0  0  0  0  0  0  0  0  0
    1.4160   68.7950   63.7150 S   0  0  0  0  0  0  0  0  0  0  0  0
    2.7860   69.1310   64.7900 C   0  0  0  0  0  0  0  0  0  0  0  0
    2.6900   69.1310   66.1980 C   0  0  0  0  0  0  0  0  0  0  0  0
    3.8890   69.3950   66.9000 C   0  0  0  0  0  0  0  0  0  0  0  0
    5.1040   69.6330   66.2460 C   0  0  0  0  0  0  0  0  0  0  0  0
    6.5150   69.9490   67.1800 Cl  0  0  0  0  0  0  0  0  0  0  0  0
    5.1740   69.6200   64.8660 C   0  0  0  0  0  0  0  0  0  0  0  0
    4.0150   69.3680   64.1410 C   0  0  0  0  0  0  0  0  0  0  0  0
    0.9300   67.1460   68.5460 C   0  0  0  0  0  0  0  0  0  0  0  0
    1.2490   66.6080   69.9390 C   0  0  0  0  0  0  0  0  0  0  0  0
    1.9460   63.0900   72.1610 N   0  0  0  0  0  4  0  0  0  0  0  0
    2.6610   63.1150   70.8230 C   0  0  0  0  0  0  0  0  0  0  0  0
    2.6780   64.5410   70.2330 C   0  0  0  0  0  0  0  0  0  0  0  0
    1.2540   65.0770   69.9840 N   0  0  0  0  0  4  0  0  0  0  0  0
    0.2000   64.4840   70.9400 C   0  0  0  0  0  0  0  0  0  0  0  0
    0.7940   64.0740   72.3070 C   0  0  0  0  0  0  0  0  0  0  0  0
    1.6420   61.6680   72.6580 C   0  0  0  0  0  0  0  0  0  0  0  0
    2.6330   61.3490   73.7850 C   0  0  0  0  0  0  0  0  0  0  0  0
    2.2380   62.1380   74.9180 O   0  0  0  0  0  0  0  0  0  0  0  0
    2.5713   68.5534   68.6173 H   0  0  0  0  0  0  0  0  0  0  0  0
    0.9326   69.2770   68.8717 H   0  0  0  0  0  0  0  0  0  0  0  0
   -0.9870   68.8719   68.0712 H   0  0  0  0  0  0  0  0  0  0  0  0
   -3.2078   68.7739   66.9753 H   0  0  0  0  0  0  0  0  0  0  0  0
   -3.3762   68.7007   64.4905 H   0  0  0  0  0  0  0  0  0  0  0  0
   -1.2993   68.7253   63.1247 H   0  0  0  0  0  0  0  0  0  0  0  0
    3.8663   69.4141   67.9996 H   0  0  0  0  0  0  0  0  0  0  0  0
    6.1282   69.8054   64.3512 H   0  0  0  0  0  0  0  0  0  0  0  0
    4.0575   69.3532   63.0419 H   0  0  0  0  0  0  0  0  0  0  0  0
   -0.1628   67.1995   68.4318 H   0  0  0  0  0  0  0  0  0  0  0  0
    1.3841   66.4610   67.8149 H   0  0  0  0  0  0  0  0  0  0  0  0
    2.2415   66.9740   70.2408 H   0  0  0  0  0  0  0  0  0  0  0  0
    0.4647   66.9621   70.6242 H   0  0  0  0  0  0  0  0  0  0  0  0
    2.6389   63.4660   72.8239 H   0  0  0  0  0  0  0  0  0  0  0  0
    3.6964   62.7705   70.9617 H   0  0  0  0  0  0  0  0  0  0  0  0
    2.1254   62.4533   70.1264 H   0  0  0  0  0  0  0  0  0  0  0  0
    3.1922   65.2113   70.9375 H   0  0  0  0  0  0  0  0  0  0  0  0
    3.2022   64.5040   69.2666 H   0  0  0  0  0  0  0  0  0  0  0  0
    0.9613   64.7464   69.0534 H   0  0  0  0  0  0  0  0  0  0  0  0
   -0.5841   65.2367   71.1091 H   0  0  0  0  0  0  0  0  0  0  0  0
   -0.2015   63.5754   70.4676 H   0  0  0  0  0  0  0  0  0  0  0  0
    1.1611   64.9759   72.8187 H   0  0  0  0  0  0  0  0  0  0  0  0
   -0.0004   63.5807   72.8863 H   0  0  0  0  0  0  0  0  0  0  0  0
    0.6114   61.6161   73.0389 H   0  0  0  0  0  0  0  0  0  0  0  0
    1.7430   60.9421   71.8377 H   0  0  0  0  0  0  0  0  0  0  0  0
    2.5907   60.2787   74.0352 H   0  0  0  0  0  0  0  0  0  0  0  0
    3.6647   61.5809   73.4819 H   0  0  0  0  0  0  0  0  0  0  0  0
    2.4769   61.6608   75.7519 H   0  0  0  0  0  0  0  0  0  0  0  0
  2  1  1  0
  3  2  1  0
  4  3  2  0
  5  4  1  0
  6  5  2  0
  7  6  1  0
  8  7  2  0
  8  3  1  0
  9  8  1  0
 10  9  1  0
 11 10  2  0
 11  2  1  0
 12 11  1  0
 13 12  2  0
 14 13  1  0
 15 13  1  0
 16 10  1  0
 16 15  2  0
 17  1  1  0
 18 17  1  0
 20 19  1  0
 21 20  1  0
 22 21  1  0
 22 18  1  0
 23 22  1  0
 24 23  1  0
 24 19  1  0
 25 19  1  0
 26 25  1  0
 27 26  1  0
  1 28  1  0
  1 29  1  0
  4 30  1  0
  5 31  1  0
  6 32  1  0
  7 33  1  0
 12 34  1  0
 15 35  1  0
 16 36  1  0
 17 37  1  0
 17 38  1  0
 18 39  1  0
 18 40  1  0
 19 41  1  0
 20 42  1  0
 20 43  1  0
 21 44  1  0
 21 45  1  0
 22 46  1  0
 23 47  1  0
 23 48  1  0
 24 49  1  0
 24 50  1  0
 25 51  1  0
 25 52  1  0
 26 53  1  0
 26 54  1  0
 27 55  1  0
M  CHG  2  19   1  22   1
M  END
>  <score>  (2) 
-8.324

$$$$
=
     RDKit          3D

 55 58  0  0  0  0  0  0  0  0999 V2000
    0.2940   63.3430   71.0060 C   0  0  0  0  0  0  0  0  0  0  0  0
    1.0670   62.2990   71.7010 N   0  0  0  0  0  0  0  0  0  0  0  0
    2.4670   62.2250   71.4310 C   0  0  0  0  0  0  0  0  0  0  0  0
    3.1840   63.3060   70.8650 C   0  0  0  0  0  0  0  0  0  0  0  0
    4.5590   63.2480   70.6070 C   0  0  0  0  0  0  0  0  0  0  0  0
    5.2720   62.1030   70.9140 C   0  0  0  0  0  0  0  0  0  0  0  0
    4.6070   61.0240   71.4790 C   0  0  0  0  0  0  0  0  0  0  0  0
    3.2240   61.0770   71.7430 C   0  0  0  0  0  0  0  0  0  0  0  0
    2.5310   59.6010   72.4410 S   0  0  0  0  0  0  0  0  0  0  0  0
    0.8880   60.1140   72.8660 C   0  0  0  0  0  0  0  0  0  0  0  0
    0.3230   61.3410   72.4590 C   0  0  0  0  0  0  0  0  0  0  0  0
   -1.0090   61.5760   72.8690 C   0  0  0  0  0  0  0  0  0  0  0  0
   -1.7360   60.6480   73.6260 C   0  0  0  0  0  0  0  0  0  0  0  0
   -3.3530   61.0180   74.0840 Cl  0  0  0  0  0  0  0  0  0  0  0  0
   -1.1640   59.4490   74.0070 C   0  0  0  0  0  0  0  0  0  0  0  0
    0.1470   59.1850   73.6260 C   0  0  0  0  0  0  0  0  0  0  0  0
    0.4050   64.6950   71.7320 C   0  0  0  0  0  0  0  0  0  0  0  0
   -0.3080   65.8250   70.9930 C   0  0  0  0  0  0  0  0  0  0  0  0
    0.6580   68.2480   67.6780 N   0  0  0  0  0  4  0  0  0  0  0  0
   -0.4080   67.2110   67.3810 C   0  0  0  0  0  0  0  0  0  0  0  0
   -0.9810   66.6190   68.6880 C   0  0  0  0  0  0  0  0  0  0  0  0
    0.1070   65.9110   69.5210 N   0  0  0  0  0  4  0  0  0  0  0  0
    1.5180   66.4930   69.3100 C   0  0  0  0  0  0  0  0  0  0  0  0
    1.4970   67.9890   68.9220 C   0  0  0  0  0  0  0  0  0  0  0  0
    1.4640   68.6590   66.4350 C   0  0  0  0  0  0  0  0  0  0  0  0
    2.7390   69.3610   66.9210 C   0  0  0  0  0  0  0  0  0  0  0  0
    3.7610   69.0770   65.9510 O   0  0  0  0  0  0  0  0  0  0  0  0
    0.6800   63.4531   69.9819 H   0  0  0  0  0  0  0  0  0  0  0  0
   -0.7638   63.0414   70.9920 H   0  0  0  0  0  0  0  0  0  0  0  0
    2.6391   64.2290   70.6178 H   0  0  0  0  0  0  0  0  0  0  0  0
    5.0720   64.1125   70.1604 H   0  0  0  0  0  0  0  0  0  0  0  0
    6.3521   62.0485   70.7129 H   0  0  0  0  0  0  0  0  0  0  0  0
    5.1695   60.1113   71.7251 H   0  0  0  0  0  0  0  0  0  0  0  0
   -1.4924   62.5219   72.5834 H   0  0  0  0  0  0  0  0  0  0  0  0
   -1.7342   58.7184   74.5996 H   0  0  0  0  0  0  0  0  0  0  0  0
    0.6147   58.2346   73.9226 H   0  0  0  0  0  0  0  0  0  0  0  0
   -0.0403   64.5939   72.7327 H   0  0  0  0  0  0  0  0  0  0  0  0
    1.4724   64.9557   71.7841 H   0  0  0  0  0  0  0  0  0  0  0  0
   -1.3931   65.6520   71.0449 H   0  0  0  0  0  0  0  0  0  0  0  0
   -0.0281   66.7723   71.4770 H   0  0  0  0  0  0  0  0  0  0  0  0
    0.1250   69.0876   67.9462 H   0  0  0  0  0  0  0  0  0  0  0  0
   -1.2223   67.6842   66.8127 H   0  0  0  0  0  0  0  0  0  0  0  0
    0.0464   66.3975   66.7964 H   0  0  0  0  0  0  0  0  0  0  0  0
   -1.4151   67.4329   69.2873 H   0  0  0  0  0  0  0  0  0  0  0  0
   -1.7452   65.8746   68.4201 H   0  0  0  0  0  0  0  0  0  0  0  0
    0.1819   64.9456   69.1698 H   0  0  0  0  0  0  0  0  0  0  0  0
    2.0880   66.3801   70.2440 H   0  0  0  0  0  0  0  0  0  0  0  0
    1.9827   65.9419   68.4792 H   0  0  0  0  0  0  0  0  0  0  0  0
    1.0774   68.5664   69.7590 H   0  0  0  0  0  0  0  0  0  0  0  0
    2.5303   68.2959   68.7028 H   0  0  0  0  0  0  0  0  0  0  0  0
    1.7274   67.7675   65.8469 H   0  0  0  0  0  0  0  0  0  0  0  0
    0.8726   69.3307   65.7954 H   0  0  0  0  0  0  0  0  0  0  0  0
    2.5720   70.4461   66.9894 H   0  0  0  0  0  0  0  0  0  0  0  0
    3.0310   69.0048   67.9199 H   0  0  0  0  0  0  0  0  0  0  0  0
    4.6025   68.8432   66.4171 H   0  0  0  0  0  0  0  0  0  0  0  0
  2  1  1  0
  3  2  1  0
  4  3  2  0
  5  4  1  0
  6  5  2  0
  7  6  1  0
  8  7  2  0
  8  3  1  0
  9  8  1  0
 10  9  1  0
 11 10  2  0
 11  2  1  0
 12 11  1  0
 13 12  2  0
 14 13  1  0
 15 13  1  0
 16 10  1  0
 16 15  2  0
 17  1  1  0
 18 17  1  0
 20 19  1  0
 21 20  1  0
 22 21  1  0
 22 18  1  0
 23 22  1  0
 24 23  1  0
 24 19  1  0
 25 19  1  0
 26 25  1  0
 27 26  1  0
  1 28  1  0
  1 29  1  0
  4 30  1  0
  5 31  1  0
  6 32  1  0
  7 33  1  0
 12 34  1  0
 15 35  1  0
 16 36  1  0
 17 37  1  0
 17 38  1  0
 18 39  1  0
 18 40  1  0
 19 41  1  0
 20 42  1  0
 20 43  1  0
 21 44  1  0
 21 45  1  0
 22 46  1  0
 23 47  1  0
 23 48  1  0
 24 49  1  0
 24 50  1  0
 25 51  1  0
 25 52  1  0
 26 53  1  0
 26 54  1  0
 27 55  1  0
M  CHG  2  19   1  22   1
M  END
>  <score>  (3) 
-8.293

$$$$
=
     RDKit          3D

 55 58  0  0  0  0  0  0  0  0999 V2000
    0.4280   63.6320   70.8350 C   0  0  0  0  0  0  0  0  0  0  0  0
    1.3620   62.7870   71.5990 N   0  0  0  0  0  0  0  0  0  0  0  0
    2.3240   62.0330   70.8620 C   0  0  0  0  0  0  0  0  0  0  0  0
    2.6700   62.3510   69.5270 C   0  0  0  0  0  0  0  0  0  0  0  0
    3.6200   61.6260   68.7980 C   0  0  0  0  0  0  0  0  0  0  0  0
    4.2690   60.5530   69.3850 C   0  0  0  0  0  0  0  0  0  0  0  0
    3.9650   60.2150   70.6970 C   0  0  0  0  0  0  0  0  0  0  0  0
    3.0100   60.9420   71.4350 C   0  0  0  0  0  0  0  0  0  0  0  0
    2.7250   60.3570   73.0840 S   0  0  0  0  0  0  0  0  0  0  0  0
    1.6990   61.6290   73.7700 C   0  0  0  0  0  0  0  0  0  0  0  0
    1.1180   62.6610   73.0030 C   0  0  0  0  0  0  0  0  0  0  0  0
    0.3070   63.5780   73.7110 C   0  0  0  0  0  0  0  0  0  0  0  0
    0.0800   63.4700   75.0890 C   0  0  0  0  0  0  0  0  0  0  0  0
   -0.9200   64.6320   75.8700 Cl  0  0  0  0  0  0  0  0  0  0  0  0
    0.6530   62.4450   75.8180 C   0  0  0  0  0  0  0  0  0  0  0  0
    1.4610   61.5270   75.1560 C   0  0  0  0  0  0  0  0  0  0  0  0
    0.8110   65.1190   70.9360 C   0  0  0  0  0  0  0  0  0  0  0  0
    1.2100   65.7220   69.5920 C   0  0  0  0  0  0  0  0  0  0  0  0
   -0.5960   68.2550   66.7430 N   0  0  0  0  0  4  0  0  0  0  0  0
    0.4230   68.9570   67.6190 C   0  0  0  0  0  0  0  0  0  0  0  0
    1.3040   67.9340   68.3690 C   0  0  0  0  0  0  0  0  0  0  0  0
    0.4690   67.0300   69.2980 N   0  0  0  0  0  4  0  0  0  0  0  0
   -0.9790   66.8240   68.8140 C   0  0  0  0  0  0  0  0  0  0  0  0
   -1.1180   66.9280   67.2770 C   0  0  0  0  0  0  0  0  0  0  0  0
   -1.6810   69.2000   66.2010 C   0  0  0  0  0  0  0  0  0  0  0  0
   -2.8750   68.3370   65.7720 C   0  0  0  0  0  0  0  0  0  0  0  0
   -4.0040   68.7810   66.5420 O   0  0  0  0  0  0  0  0  0  0  0  0
    0.4507   63.3269   69.7784 H   0  0  0  0  0  0  0  0  0  0  0  0
   -0.5805   63.5033   71.2550 H   0  0  0  0  0  0  0  0  0  0  0  0
    2.1717   63.2033   69.0421 H   0  0  0  0  0  0  0  0  0  0  0  0
    3.8506   61.9084   67.7602 H   0  0  0  0  0  0  0  0  0  0  0  0
    5.0155   59.9760   68.8195 H   0  0  0  0  0  0  0  0  0  0  0  0
    4.4789   59.3645   71.1686 H   0  0  0  0  0  0  0  0  0  0  0  0
   -0.1625   64.4060   73.1597 H   0  0  0  0  0  0  0  0  0  0  0  0
    0.4736   62.3572   76.8997 H   0  0  0  0  0  0  0  0  0  0  0  0
    1.9230   60.7061   75.7241 H   0  0  0  0  0  0  0  0  0  0  0  0
   -0.0512   65.6776   71.3292 H   0  0  0  0  0  0  0  0  0  0  0  0
    1.6835   65.1907   71.6021 H   0  0  0  0  0  0  0  0  0  0  0  0
    2.2915   65.9227   69.6016 H   0  0  0  0  0  0  0  0  0  0  0  0
    0.9420   64.9999   68.8067 H   0  0  0  0  0  0  0  0  0  0  0  0
   -0.0563   67.9594   65.9170 H   0  0  0  0  0  0  0  0  0  0  0  0
    1.0642   69.5905   66.9885 H   0  0  0  0  0  0  0  0  0  0  0  0
   -0.1128   69.5688   68.3597 H   0  0  0  0  0  0  0  0  0  0  0  0
    1.8235   67.3039   67.6321 H   0  0  0  0  0  0  0  0  0  0  0  0
    2.0215   68.4912   68.9893 H   0  0  0  0  0  0  0  0  0  0  0  0
    0.3634   67.5263   70.1943 H   0  0  0  0  0  0  0  0  0  0  0  0
   -1.3168   65.8262   69.1307 H   0  0  0  0  0  0  0  0  0  0  0  0
   -1.5928   67.6223   69.2567 H   0  0  0  0  0  0  0  0  0  0  0  0
   -0.5474   66.1099   66.8131 H   0  0  0  0  0  0  0  0  0  0  0  0
   -2.1874   66.8600   67.0283 H   0  0  0  0  0  0  0  0  0  0  0  0
   -1.9907   69.9052   66.9863 H   0  0  0  0  0  0  0  0  0  0  0  0
   -1.2976   69.7804   65.3489 H   0  0  0  0  0  0  0  0  0  0  0  0
   -3.0726   68.4704   64.6981 H   0  0  0  0  0  0  0  0  0  0  0  0
   -2.6737   67.2695   65.9449 H   0  0  0  0  0  0  0  0  0  0  0  0
   -3.7978   68.6999   67.5069 H   0  0  0  0  0  0  0  0  0  0  0  0
  2  1  1  0
  3  2  1  0
  4  3  2  0
  5  4  1  0
  6  5  2  0
  7  6  1  0
  8  7  2  0
  8  3  1  0
  9  8  1  0
 10  9  1  0
 11 10  2  0
 11  2  1  0
 12 11  1  0
 13 12  2  0
 14 13  1  0
 15 13  1  0
 16 10  1  0
 16 15  2  0
 17  1  1  0
 18 17  1  0
 20 19  1  0
 21 20  1  0
 22 21  1  0
 22 18  1  0
 23 22  1  0
 24 23  1  0
 24 19  1  0
 25 19  1  0
 26 25  1  0
 27 26  1  0
  1 28  1  0
  1 29  1  0
  4 30  1  0
  5 31  1  0
  6 32  1  0
  7 33  1  0
 12 34  1  0
 15 35  1  0
 16 36  1  0
 17 37  1  0
 17 38  1  0
 18 39  1  0
 18 40  1  0
 19 41  1  0
 20 42  1  0
 20 43  1  0
 21 44  1  0
 21 45  1  0
 22 46  1  0
 23 47  1  0
 23 48  1  0
 24 49  1  0
 24 50  1  0
 25 51  1  0
 25 52  1  0
 26 53  1  0
 26 54  1  0
 27 55  1  0
M  CHG  2  19   1  22   1
M  END
>  <score>  (4) 
-7.786

$$$$
=
     RDKit          3D

 55 58  0  0  0  0  0  0  0  0999 V2000
    2.0120   69.8120   67.6390 C   0  0  0  0  0  0  0  0  0  0  0  0
    3.3380   69.6640   67.0140 N   0  0  0  0  0  0  0  0  0  0  0  0
    4.4780   70.0380   67.7880 C   0  0  0  0  0  0  0  0  0  0  0  0
    4.4260   70.1590   69.1980 C   0  0  0  0  0  0  0  0  0  0  0  0
    5.5410   70.5140   69.9680 C   0  0  0  0  0  0  0  0  0  0  0  0
    6.7570   70.7560   69.3520 C   0  0  0  0  0  0  0  0  0  0  0  0
    6.8510   70.6390   67.9720 C   0  0  0  0  0  0  0  0  0  0  0  0
    5.7330   70.2810   67.1930 C   0  0  0  0  0  0  0  0  0  0  0  0
    6.0240   70.2040   65.4450 S   0  0  0  0  0  0  0  0  0  0  0  0
    4.5190   69.4910   64.8370 C   0  0  0  0  0  0  0  0  0  0  0  0
    3.3630   69.3180   65.6270 C   0  0  0  0  0  0  0  0  0  0  0  0
    2.2440   68.7550   64.9710 C   0  0  0  0  0  0  0  0  0  0  0  0
    2.2690   68.3970   63.6180 C   0  0  0  0  0  0  0  0  0  0  0  0
    0.8610   67.7150   62.9010 Cl  0  0  0  0  0  0  0  0  0  0  0  0
    3.4120   68.5840   62.8620 C   0  0  0  0  0  0  0  0  0  0  0  0
    4.5340   69.1310   63.4740 C   0  0  0  0  0  0  0  0  0  0  0  0
    1.3220   68.4480   67.8120 C   0  0  0  0  0  0  0  0  0  0  0  0
    1.5380   67.8450   69.1980 C   0  0  0  0  0  0  0  0  0  0  0  0
    0.6510   64.4600   71.5540 N   0  0  0  0  0  4  0  0  0  0  0  0
    1.7190   64.2080   70.5060 C   0  0  0  0  0  0  0  0  0  0  0  0
    2.2620   65.5380   69.9400 C   0  0  0  0  0  0  0  0  0  0  0  0
    1.1550   66.3630   69.2540 N   0  0  0  0  0  4  0  0  0  0  0  0
   -0.2500   66.1100   69.8360 C   0  0  0  0  0  0  0  0  0  0  0  0
   -0.2140   65.6910   71.3240 C   0  0  0  0  0  0  0  0  0  0  0  0
   -0.1260   63.1920   71.9410 C   0  0  0  0  0  0  0  0  0  0  0  0
    0.1970   62.8810   73.4090 C   0  0  0  0  0  0  0  0  0  0  0  0
   -0.2780   63.9950   74.1820 O   0  0  0  0  0  0  0  0  0  0  0  0
    2.1314   70.2813   68.6267 H   0  0  0  0  0  0  0  0  0  0  0  0
    1.3869   70.4376   66.9848 H   0  0  0  0  0  0  0  0  0  0  0  0
    3.4713   69.9664   69.7093 H   0  0  0  0  0  0  0  0  0  0  0  0
    5.4505   70.6004   71.0609 H   0  0  0  0  0  0  0  0  0  0  0  0
    7.6374   71.0374   69.9485 H   0  0  0  0  0  0  0  0  0  0  0  0
    7.8153   70.8291   67.4780 H   0  0  0  0  0  0  0  0  0  0  0  0
    1.3199   68.5924   65.5450 H   0  0  0  0  0  0  0  0  0  0  0  0
    3.4328   68.3055   61.7980 H   0  0  0  0  0  0  0  0  0  0  0  0
    5.4497   69.2857   62.8844 H   0  0  0  0  0  0  0  0  0  0  0  0
    0.2418   68.5780   67.6501 H   0  0  0  0  0  0  0  0  0  0  0  0
    1.7654   67.7582   67.0789 H   0  0  0  0  0  0  0  0  0  0  0  0
    2.6000   67.9461   69.4661 H   0  0  0  0  0  0  0  0  0  0  0  0
    0.8917   68.3863   69.9046 H   0  0  0  0  0  0  0  0  0  0  0  0
    1.1805   64.7210   72.3980 H   0  0  0  0  0  0  0  0  0  0  0  0
    2.5470   63.6469   70.9637 H   0  0  0  0  0  0  0  0  0  0  0  0
    1.2729   63.6320   69.6818 H   0  0  0  0  0  0  0  0  0  0  0  0
    2.6870   66.1288   70.7648 H   0  0  0  0  0  0  0  0  0  0  0  0
    3.0283   65.3015   69.1871 H   0  0  0  0  0  0  0  0  0  0  0  0
    1.0848   66.0310   68.2815 H   0  0  0  0  0  0  0  0  0  0  0  0
   -0.8400   67.0339   69.7449 H   0  0  0  0  0  0  0  0  0  0  0  0
   -0.6999   65.2818   69.2688 H   0  0  0  0  0  0  0  0  0  0  0  0
    0.1910   66.5243   71.9170 H   0  0  0  0  0  0  0  0  0  0  0  0
   -1.2412   65.4438   71.6301 H   0  0  0  0  0  0  0  0  0  0  0  0
   -1.2062   63.3629   71.8225 H   0  0  0  0  0  0  0  0  0  0  0  0
    0.1619   62.3497   71.2948 H   0  0  0  0  0  0  0  0  0  0  0  0
   -0.3128   61.9578   73.7218 H   0  0  0  0  0  0  0  0  0  0  0  0
    1.2773   62.7318   73.5531 H   0  0  0  0  0  0  0  0  0  0  0  0
   -0.1901   63.7889   75.1463 H   0  0  0  0  0  0  0  0  0  0  0  0
  2  1  1  0
  3  2  1  0
  4  3  2  0
  5  4  1  0
  6  5  2  0
  7  6  1  0
  8  7  2  0
  8  3  1  0
  9  8  1  0
 10  9  1  0
 11 10  2  0
 11  2  1  0
 12 11  1  0
 13 12  2  0
 14 13  1  0
 15 13  1  0
 16 10  1  0
 16 15  2  0
 17  1  1  0
 18 17  1  0
 20 19  1  0
 21 20  1  0
 22 21  1  0
 22 18  1  0
 23 22  1  0
 24 23  1  0
 24 19  1  0
 25 19  1  0
 26 25  1  0
 27 26  1  0
  1 28  1  0
  1 29  1  0
  4 30  1  0
  5 31  1  0
  6 32  1  0
  7 33  1  0
 12 34  1  0
 15 35  1  0
 16 36  1  0
 17 37  1  0
 17 38  1  0
 18 39  1  0
 18 40  1  0
 19 41  1  0
 20 42  1  0
 20 43  1  0
 21 44  1  0
 21 45  1  0
 22 46  1  0
 23 47  1  0
 23 48  1  0
 24 49  1  0
 24 50  1  0
 25 51  1  0
 25 52  1  0
 26 53  1  0
 26 54  1  0
 27 55  1  0
M  CHG  2  19   1  22   1
M  END
>  <score>  (5) 
-7.588

$$$$
=
     RDKit          3D

 55 58  0  0  0  0  0  0  0  0999 V2000
    0.3710   62.3440   73.5160 C   0  0  0  0  0  0  0  0  0  0  0  0
    1.4290   62.8050   72.6010 N   0  0  0  0  0  0  0  0  0  0  0  0
    1.1580   63.9600   71.8060 C   0  0  0  0  0  0  0  0  0  0  0  0
    0.1280   64.8740   72.1320 C   0  0  0  0  0  0  0  0  0  0  0  0
   -0.1390   66.0160   71.3670 C   0  0  0  0  0  0  0  0  0  0  0  0
    0.6240   66.2900   70.2450 C   0  0  0  0  0  0  0  0  0  0  0  0
    1.6500   65.4220   69.8970 C   0  0  0  0  0  0  0  0  0  0  0  0
    1.9240   64.2720   70.6640 C   0  0  0  0  0  0  0  0  0  0  0  0
    3.2500   63.2610   70.0620 S   0  0  0  0  0  0  0  0  0  0  0  0
    3.4710   62.0940   71.3780 C   0  0  0  0  0  0  0  0  0  0  0  0
    2.5740   61.9600   72.4600 C   0  0  0  0  0  0  0  0  0  0  0  0
    2.8930   60.9600   73.4070 C   0  0  0  0  0  0  0  0  0  0  0  0
    4.0230   60.1420   73.2830 C   0  0  0  0  0  0  0  0  0  0  0  0
    4.3360   58.9520   74.4870 Cl  0  0  0  0  0  0  0  0  0  0  0  0
    4.8830   60.2880   72.2110 C   0  0  0  0  0  0  0  0  0  0  0  0
    4.6040   61.2630   71.2610 C   0  0  0  0  0  0  0  0  0  0  0  0
   -0.6170   61.4080   72.7990 C   0  0  0  0  0  0  0  0  0  0  0  0
   -1.1450   60.2970   73.7050 C   0  0  0  0  0  0  0  0  0  0  0  0
    0.0620   56.6810   75.5090 N   0  0  0  0  0  4  0  0  0  0  0  0
    0.4600   57.9140   76.2970 C   0  0  0  0  0  0  0  0  0  0  0  0
   -0.3120   59.1570   75.8030 C   0  0  0  0  0  0  0  0  0  0  0  0
   -0.0170   59.4640   74.3210 N   0  0  0  0  0  4  0  0  0  0  0  0
    0.3490   58.2140   73.4970 C   0  0  0  0  0  0  0  0  0  0  0  0
   -0.2960   56.9220   74.0500 C   0  0  0  0  0  0  0  0  0  0  0  0
    0.9950   55.4830   75.7520 C   0  0  0  0  0  0  0  0  0  0  0  0
    2.4180   56.0310   75.9240 C   0  0  0  0  0  0  0  0  0  0  0  0
    3.2960   55.1230   75.2400 O   0  0  0  0  0  0  0  0  0  0  0  0
    0.8331   61.8030   74.3549 H   0  0  0  0  0  0  0  0  0  0  0  0
   -0.1827   63.2227   73.8784 H   0  0  0  0  0  0  0  0  0  0  0  0
   -0.4878   64.6795   73.0224 H   0  0  0  0  0  0  0  0  0  0  0  0
   -0.9544   66.6948   71.6574 H   0  0  0  0  0  0  0  0  0  0  0  0
    0.4200   67.1838   69.6371 H   0  0  0  0  0  0  0  0  0  0  0  0
    2.2599   65.6357   69.0068 H   0  0  0  0  0  0  0  0  0  0  0  0
    2.2294   60.8192   74.2729 H   0  0  0  0  0  0  0  0  0  0  0  0
    5.7703   59.6455   72.1118 H   0  0  0  0  0  0  0  0  0  0  0  0
    5.2795   61.3888   70.4020 H   0  0  0  0  0  0  0  0  0  0  0  0
   -1.4693   62.0043   72.4412 H   0  0  0  0  0  0  0  0  0  0  0  0
   -0.0764   60.9293   71.9692 H   0  0  0  0  0  0  0  0  0  0  0  0
   -1.7327   60.7514   74.5162 H   0  0  0  0  0  0  0  0  0  0  0  0
   -1.7617   59.6255   73.0896 H   0  0  0  0  0  0  0  0  0  0  0  0
   -0.8452   56.4056   75.9116 H   0  0  0  0  0  0  0  0  0  0  0  0
    0.2347   57.7496   77.3611 H   0  0  0  0  0  0  0  0  0  0  0  0
    1.5365   58.0895   76.1547 H   0  0  0  0  0  0  0  0  0  0  0  0
   -1.3906   58.9762   75.9211 H   0  0  0  0  0  0  0  0  0  0  0  0
    0.0125   60.0208   76.4018 H   0  0  0  0  0  0  0  0  0  0  0  0
    0.8362   60.0402   74.2910 H   0  0  0  0  0  0  0  0  0  0  0  0
    0.0068   58.3626   72.4622 H   0  0  0  0  0  0  0  0  0  0  0  0
    1.4405   58.0890   73.5518 H   0  0  0  0  0  0  0  0  0  0  0  0
   -1.3893   57.0062   73.9626 H   0  0  0  0  0  0  0  0  0  0  0  0
    0.0880   56.0745   73.4632 H   0  0  0  0  0  0  0  0  0  0  0  0
    0.6872   54.9462   76.6615 H   0  0  0  0  0  0  0  0  0  0  0  0
    0.9508   54.7810   74.9063 H   0  0  0  0  0  0  0  0  0  0  0  0
    2.4931   57.0357   75.4826 H   0  0  0  0  0  0  0  0  0  0  0  0
    2.6844   56.1126   76.9881 H   0  0  0  0  0  0  0  0  0  0  0  0
    3.8067   54.5949   75.9036 H   0  0  0  0  0  0  0  0  0  0  0  0
  2  1  1  0
  3  2  1  0
  4  3  2  0
  5  4  1  0
  6  5  2  0
  7  6  1  0
  8  7  2  0
  8  3  1  0
  9  8  1  0
 10  9  1  0
 11 10  2  0
 11  2  1  0
 12 11  1  0
 13 12  2  0
 14 13  1  0
 15 13  1  0
 16 10  1  0
 16 15  2  0
 17  1  1  0
 18 17  1  0
 20 19  1  0
 21 20  1  0
 22 21  1  0
 22 18  1  0
 23 22  1  0
 24 23  1  0
 24 19  1  0
 25 19  1  0
 26 25  1  0
 27 26  1  0
  1 28  1  0
  1 29  1  0
  4 30  1  0
  5 31  1  0
  6 32  1  0
  7 33  1  0
 12 34  1  0
 15 35  1  0
 16 36  1  0
 17 37  1  0
 17 38  1  0
 18 39  1  0
 18 40  1  0
 19 41  1  0
 20 42  1  0
 20 43  1  0
 21 44  1  0
 21 45  1  0
 22 46  1  0
 23 47  1  0
 23 48  1  0
 24 49  1  0
 24 50  1  0
 25 51  1  0
 25 52  1  0
 26 53  1  0
 26 54  1  0
 27 55  1  0
M  CHG  2  19   1  22   1
M  END
>  <score>  (6) 
-7.413

$$$$
=
     RDKit          3D

 55 58  0  0  0  0  0  0  0  0999 V2000
    0.7630   63.7070   72.4440 C   0  0  0  0  0  0  0  0  0  0  0  0
    1.1460   62.2850   72.4670 N   0  0  0  0  0  0  0  0  0  0  0  0
    0.2060   61.3570   73.0080 C   0  0  0  0  0  0  0  0  0  0  0  0
   -1.1680   61.6700   73.1480 C   0  0  0  0  0  0  0  0  0  0  0  0
   -2.1010   60.7640   73.6670 C   0  0  0  0  0  0  0  0  0  0  0  0
   -1.6920   59.5020   74.0610 C   0  0  0  0  0  0  0  0  0  0  0  0
   -0.3540   59.1530   73.9320 C   0  0  0  0  0  0  0  0  0  0  0  0
    0.5880   60.0600   73.4090 C   0  0  0  0  0  0  0  0  0  0  0  0
    2.2560   59.4610   73.3410 S   0  0  0  0  0  0  0  0  0  0  0  0
    3.0810   60.7290   72.4160 C   0  0  0  0  0  0  0  0  0  0  0  0
    2.4930   61.9720   72.1010 C   0  0  0  0  0  0  0  0  0  0  0  0
    3.3050   62.8750   71.3770 C   0  0  0  0  0  0  0  0  0  0  0  0
    4.6190   62.5670   71.0010 C   0  0  0  0  0  0  0  0  0  0  0  0
    5.5350   63.7260   70.1180 Cl  0  0  0  0  0  0  0  0  0  0  0  0
    5.1750   61.3450   71.3280 C   0  0  0  0  0  0  0  0  0  0  0  0
    4.4050   60.4290   72.0350 C   0  0  0  0  0  0  0  0  0  0  0  0
    0.1650   64.1010   71.0820 C   0  0  0  0  0  0  0  0  0  0  0  0
    0.4020   65.5680   70.7320 C   0  0  0  0  0  0  0  0  0  0  0  0
   -0.0320   68.3540   67.5940 N   0  0  0  0  0  4  0  0  0  0  0  0
   -1.0000   67.1900   67.5100 C   0  0  0  0  0  0  0  0  0  0  0  0
   -1.0550   66.4190   68.8470 C   0  0  0  0  0  0  0  0  0  0  0  0
    0.3180   65.8270   69.2250 N   0  0  0  0  0  4  0  0  0  0  0  0
    1.5080   66.6350   68.6700 C   0  0  0  0  0  0  0  0  0  0  0  0
    1.1800   68.1350   68.4880 C   0  0  0  0  0  0  0  0  0  0  0  0
    0.2840   68.9770   66.2250 C   0  0  0  0  0  0  0  0  0  0  0  0
    1.5530   68.3010   65.6900 C   0  0  0  0  0  0  0  0  0  0  0  0
    1.1220   67.1830   64.8970 O   0  0  0  0  0  0  0  0  0  0  0  0
    0.0158   63.8900   73.2302 H   0  0  0  0  0  0  0  0  0  0  0  0
    1.6646   64.3131   72.6167 H   0  0  0  0  0  0  0  0  0  0  0  0
   -1.5166   62.6656   72.8363 H   0  0  0  0  0  0  0  0  0  0  0  0
   -3.1576   61.0550   73.7614 H   0  0  0  0  0  0  0  0  0  0  0  0
   -2.4176   58.7843   74.4712 H   0  0  0  0  0  0  0  0  0  0  0  0
   -0.0243   58.1509   74.2437 H   0  0  0  0  0  0  0  0  0  0  0  0
    2.8900   63.8550   71.0988 H   0  0  0  0  0  0  0  0  0  0  0  0
    6.2069   61.1019   71.0345 H   0  0  0  0  0  0  0  0  0  0  0  0
    4.8361   59.4528   72.3020 H   0  0  0  0  0  0  0  0  0  0  0  0
    0.6245   63.4754   70.3026 H   0  0  0  0  0  0  0  0  0  0  0  0
   -0.9225   63.9470   71.1416 H   0  0  0  0  0  0  0  0  0  0  0  0
   -0.3586   66.1799   71.2390 H   0  0  0  0  0  0  0  0  0  0  0  0
    1.4170   65.8331   71.0629 H   0  0  0  0  0  0  0  0  0  0  0  0
   -0.5527   69.0791   68.1078 H   0  0  0  0  0  0  0  0  0  0  0  0
   -2.0038   67.5731   67.2740 H   0  0  0  0  0  0  0  0  0  0  0  0
   -0.6551   66.5032   66.7231 H   0  0  0  0  0  0  0  0  0  0  0  0
   -1.3766   67.1078   69.6420 H   0  0  0  0  0  0  0  0  0  0  0  0
   -1.7656   65.5872   68.7325 H   0  0  0  0  0  0  0  0  0  0  0  0
    0.3966   64.9132   68.7563 H   0  0  0  0  0  0  0  0  0  0  0  0
    2.3525   66.5420   69.3687 H   0  0  0  0  0  0  0  0  0  0  0  0
    1.7524   66.2264   67.6784 H   0  0  0  0  0  0  0  0  0  0  0  0
    0.9762   68.5754   69.4752 H   0  0  0  0  0  0  0  0  0  0  0  0
    2.0455   68.6140   68.0069 H   0  0  0  0  0  0  0  0  0  0  0  0
   -0.5531   68.8051   65.5324 H   0  0  0  0  0  0  0  0  0  0  0  0
    0.4350   70.0624   66.3199 H   0  0  0  0  0  0  0  0  0  0  0  0
    2.1261   69.0066   65.0706 H   0  0  0  0  0  0  0  0  0  0  0  0
    2.2046   67.9741   66.5137 H   0  0  0  0  0  0  0  0  0  0  0  0
    0.8377   66.4456   65.4932 H   0  0  0  0  0  0  0  0  0  0  0  0
  2  1  1  0
  3  2  1  0
  4  3  2  0
  5  4  1  0
  6  5  2  0
  7  6  1  0
  8  7  2  0
  8  3  1  0
  9  8  1  0
 10  9  1  0
 11 10  2  0
 11  2  1  0
 12 11  1  0
 13 12  2  0
 14 13  1  0
 15 13  1  0
 16 10  1  0
 16 15  2  0
 17  1  1  0
 18 17  1  0
 20 19  1  0
 21 20  1  0
 22 21  1  0
 22 18  1  0
 23 22  1  0
 24 23  1  0
 24 19  1  0
 25 19  1  0
 26 25  1  0
 27 26  1  0
  1 28  1  0
  1 29  1  0
  4 30  1  0
  5 31  1  0
  6 32  1  0
  7 33  1  0
 12 34  1  0
 15 35  1  0
 16 36  1  0
 17 37  1  0
 17 38  1  0
 18 39  1  0
 18 40  1  0
 19 41  1  0
 20 42  1  0
 20 43  1  0
 21 44  1  0
 21 45  1  0
 22 46  1  0
 23 47  1  0
 23 48  1  0
 24 49  1  0
 24 50  1  0
 25 51  1  0
 25 52  1  0
 26 53  1  0
 26 54  1  0
 27 55  1  0
M  CHG  2  19   1  22   1
M  END
>  <score>  (7) 
-7.359

$$$$
=
     RDKit          3D

 55 58  0  0  0  0  0  0  0  0999 V2000
    2.7410   59.0270   72.5500 C   0  0  0  0  0  0  0  0  0  0  0  0
    1.8290   60.1110   72.1450 N   0  0  0  0  0  0  0  0  0  0  0  0
    2.3410   61.1100   71.2630 C   0  0  0  0  0  0  0  0  0  0  0  0
    3.5010   60.9000   70.4780 C   0  0  0  0  0  0  0  0  0  0  0  0
    4.0050   61.8680   69.6010 C   0  0  0  0  0  0  0  0  0  0  0  0
    3.3600   63.0860   69.4710 C   0  0  0  0  0  0  0  0  0  0  0  0
    2.2140   63.3260   70.2160 C   0  0  0  0  0  0  0  0  0  0  0  0
    1.7010   62.3560   71.0990 C   0  0  0  0  0  0  0  0  0  0  0  0
    0.2470   62.8390   71.9910 S   0  0  0  0  0  0  0  0  0  0  0  0
   -0.2440   61.3260   72.7740 C   0  0  0  0  0  0  0  0  0  0  0  0
    0.5590   60.1660   72.8010 C   0  0  0  0  0  0  0  0  0  0  0  0
    0.0200   59.0560   73.4920 C   0  0  0  0  0  0  0  0  0  0  0  0
   -1.2300   59.0990   74.1210 C   0  0  0  0  0  0  0  0  0  0  0  0
   -1.8100   57.6990   74.9370 Cl  0  0  0  0  0  0  0  0  0  0  0  0
   -1.9960   60.2490   74.0860 C   0  0  0  0  0  0  0  0  0  0  0  0
   -1.5010   61.3600   73.4130 C   0  0  0  0  0  0  0  0  0  0  0  0
    3.8080   59.5360   73.5350 C   0  0  0  0  0  0  0  0  0  0  0  0
    3.2130   60.0250   74.8530 C   0  0  0  0  0  0  0  0  0  0  0  0
    4.4840   58.0350   78.3490 N   0  0  0  0  0  4  0  0  0  0  0  0
    4.2940   57.1120   77.1600 C   0  0  0  0  0  0  0  0  0  0  0  0
    4.1980   57.9170   75.8460 C   0  0  0  0  0  0  0  0  0  0  0  0
    2.9970   58.8850   75.8520 N   0  0  0  0  0  4  0  0  0  0  0  0
    2.6040   59.3660   77.2630 C   0  0  0  0  0  0  0  0  0  0  0  0
    3.8010   59.3910   78.2420 C   0  0  0  0  0  0  0  0  0  0  0  0
    4.2960   57.3260   79.7000 C   0  0  0  0  0  0  0  0  0  0  0  0
    5.2140   56.0960   79.7090 C   0  0  0  0  0  0  0  0  0  0  0  0
    4.3810   54.9620   80.0000 O   0  0  0  0  0  0  0  0  0  0  0  0
    2.1578   58.2294   73.0334 H   0  0  0  0  0  0  0  0  0  0  0  0
    3.2495   58.6461   71.6521 H   0  0  0  0  0  0  0  0  0  0  0  0
    4.0272   59.9376   70.5607 H   0  0  0  0  0  0  0  0  0  0  0  0
    4.9130   61.6608   69.0156 H   0  0  0  0  0  0  0  0  0  0  0  0
    3.7506   63.8533   68.7864 H   0  0  0  0  0  0  0  0  0  0  0  0
    1.6968   64.2916   70.1150 H   0  0  0  0  0  0  0  0  0  0  0  0
    0.6042   58.1250   73.5369 H   0  0  0  0  0  0  0  0  0  0  0  0
   -2.9778   60.2843   74.5809 H   0  0  0  0  0  0  0  0  0  0  0  0
   -2.1001   62.2819   73.3782 H   0  0  0  0  0  0  0  0  0  0  0  0
    4.5085   58.7153   73.7489 H   0  0  0  0  0  0  0  0  0  0  0  0
    4.3128   60.3915   73.0625 H   0  0  0  0  0  0  0  0  0  0  0  0
    3.8983   60.7609   75.2989 H   0  0  0  0  0  0  0  0  0  0  0  0
    2.2315   60.4708   74.6340 H   0  0  0  0  0  0  0  0  0  0  0  0
    5.4811   58.2909   78.3135 H   0  0  0  0  0  0  0  0  0  0  0  0
    5.1496   56.4234   77.0986 H   0  0  0  0  0  0  0  0  0  0  0  0
    3.3577   56.5511   77.2972 H   0  0  0  0  0  0  0  0  0  0  0  0
    5.1228   58.4983   75.7165 H   0  0  0  0  0  0  0  0  0  0  0  0
    4.0585   57.2052   75.0191 H   0  0  0  0  0  0  0  0  0  0  0  0
    2.1745   58.3541   75.5317 H   0  0  0  0  0  0  0  0  0  0  0  0
    2.1918   60.3829   77.1857 H   0  0  0  0  0  0  0  0  0  0  0  0
    1.8647   58.6556   77.6614 H   0  0  0  0  0  0  0  0  0  0  0  0
    4.5342   60.1300   77.8865 H   0  0  0  0  0  0  0  0  0  0  0  0
    3.4172   59.6556   79.2383 H   0  0  0  0  0  0  0  0  0  0  0  0
    4.5698   58.0046   80.5213 H   0  0  0  0  0  0  0  0  0  0  0  0
    3.2465   57.0263   79.8368 H   0  0  0  0  0  0  0  0  0  0  0  0
    5.6926   55.9728   78.7262 H   0  0  0  0  0  0  0  0  0  0  0  0
    6.0125   56.2033   80.4580 H   0  0  0  0  0  0  0  0  0  0  0  0
    4.3016   54.8539   80.9809 H   0  0  0  0  0  0  0  0  0  0  0  0
  2  1  1  0
  3  2  1  0
  4  3  2  0
  5  4  1  0
  6  5  2  0
  7  6  1  0
  8  7  2  0
  8  3  1  0
  9  8  1  0
 10  9  1  0
 11 10  2  0
 11  2  1  0
 12 11  1  0
 13 12  2  0
 14 13  1  0
 15 13  1  0
 16 10  1  0
 16 15  2  0
 17  1  1  0
 18 17  1  0
 20 19  1  0
 21 20  1  0
 22 21  1  0
 22 18  1  0
 23 22  1  0
 24 23  1  0
 24 19  1  0
 25 19  1  0
 26 25  1  0
 27 26  1  0
  1 28  1  0
  1 29  1  0
  4 30  1  0
  5 31  1  0
  6 32  1  0
  7 33  1  0
 12 34  1  0
 15 35  1  0
 16 36  1  0
 17 37  1  0
 17 38  1  0
 18 39  1  0
 18 40  1  0
 19 41  1  0
 20 42  1  0
 20 43  1  0
 21 44  1  0
 21 45  1  0
 22 46  1  0
 23 47  1  0
 23 48  1  0
 24 49  1  0
 24 50  1  0
 25 51  1  0
 25 52  1  0
 26 53  1  0
 26 54  1  0
 27 55  1  0
M  CHG  2  19   1  22   1
M  END
>  <score>  (8) 
-7.211

$$$$
=
     RDKit          3D

 55 58  0  0  0  0  0  0  0  0999 V2000
    3.1710   60.4130   74.3530 C   0  0  0  0  0  0  0  0  0  0  0  0
    2.4160   61.0460   73.2580 N   0  0  0  0  0  0  0  0  0  0  0  0
    3.1570   61.7880   72.2890 C   0  0  0  0  0  0  0  0  0  0  0  0
    4.5510   61.6190   72.1140 C   0  0  0  0  0  0  0  0  0  0  0  0
    5.2850   62.3340   71.1590 C   0  0  0  0  0  0  0  0  0  0  0  0
    4.6460   63.2440   70.3360 C   0  0  0  0  0  0  0  0  0  0  0  0
    3.2770   63.4320   70.4710 C   0  0  0  0  0  0  0  0  0  0  0  0
    2.5330   62.7150   71.4280 C   0  0  0  0  0  0  0  0  0  0  0  0
    0.8030   63.0990   71.4820 S   0  0  0  0  0  0  0  0  0  0  0  0
    0.1700   61.8590   72.5800 C   0  0  0  0  0  0  0  0  0  0  0  0
    0.9890   61.0050   73.3480 C   0  0  0  0  0  0  0  0  0  0  0  0
    0.3140   60.0910   74.1900 C   0  0  0  0  0  0  0  0  0  0  0  0
   -1.0830   60.0350   74.2690 C   0  0  0  0  0  0  0  0  0  0  0  0
   -1.8210   58.8880   75.3180 Cl  0  0  0  0  0  0  0  0  0  0  0  0
   -1.8650   60.8860   73.5110 C   0  0  0  0  0  0  0  0  0  0  0  0
   -1.2370   61.7960   72.6690 C   0  0  0  0  0  0  0  0  0  0  0  0
    3.3520   58.9050   74.1070 C   0  0  0  0  0  0  0  0  0  0  0  0
    3.4070   58.0950   75.4000 C   0  0  0  0  0  0  0  0  0  0  0  0
    0.2520   55.2960   75.4080 N   0  0  0  0  0  4  0  0  0  0  0  0
    1.4420   54.8710   76.2460 C   0  0  0  0  0  0  0  0  0  0  0  0
    2.3860   56.0640   76.5090 C   0  0  0  0  0  0  0  0  0  0  0  0
    2.9530   56.6460   75.1980 N   0  0  0  0  0  4  0  0  0  0  0  0
    2.0190   56.4550   73.9870 C   0  0  0  0  0  0  0  0  0  0  0  0
    0.5260   56.3900   74.3870 C   0  0  0  0  0  0  0  0  0  0  0  0
   -0.5650   54.1080   74.8720 C   0  0  0  0  0  0  0  0  0  0  0  0
    0.3450   52.8730   74.8970 C   0  0  0  0  0  0  0  0  0  0  0  0
    1.0430   52.8480   73.6410 O   0  0  0  0  0  0  0  0  0  0  0  0
    4.1615   60.8858   74.4257 H   0  0  0  0  0  0  0  0  0  0  0  0
    2.6067   60.5475   75.2876 H   0  0  0  0  0  0  0  0  0  0  0  0
    5.0795   60.8970   72.7538 H   0  0  0  0  0  0  0  0  0  0  0  0
    6.3688   62.1720   71.0635 H   0  0  0  0  0  0  0  0  0  0  0  0
    5.2150   63.8111   69.5846 H   0  0  0  0  0  0  0  0  0  0  0  0
    2.7642   64.1541   69.8186 H   0  0  0  0  0  0  0  0  0  0  0  0
    0.9079   59.3990   74.8052 H   0  0  0  0  0  0  0  0  0  0  0  0
   -2.9624   60.8439   73.5729 H   0  0  0  0  0  0  0  0  0  0  0  0
   -1.8477   62.4796   72.0609 H   0  0  0  0  0  0  0  0  0  0  0  0
    2.5070   58.5440   73.5023 H   0  0  0  0  0  0  0  0  0  0  0  0
    4.3132   58.7677   73.5901 H   0  0  0  0  0  0  0  0  0  0  0  0
    4.4421   58.0928   75.7723 H   0  0  0  0  0  0  0  0  0  0  0  0
    2.7218   58.5649   76.1209 H   0  0  0  0  0  0  0  0  0  0  0  0
   -0.3692   55.7735   76.0766 H   0  0  0  0  0  0  0  0  0  0  0  0
    1.0825   54.4775   77.2082 H   0  0  0  0  0  0  0  0  0  0  0  0
    1.9989   54.0969   75.6977 H   0  0  0  0  0  0  0  0  0  0  0  0
    1.8265   56.8513   77.0354 H   0  0  0  0  0  0  0  0  0  0  0  0
    3.2297   55.7048   77.1165 H   0  0  0  0  0  0  0  0  0  0  0  0
    3.7898   56.0966   74.9557 H   0  0  0  0  0  0  0  0  0  0  0  0
    2.1616   57.2992   73.2964 H   0  0  0  0  0  0  0  0  0  0  0  0
    2.2783   55.4952   73.5164 H   0  0  0  0  0  0  0  0  0  0  0  0
    0.2322   57.3585   74.8180 H   0  0  0  0  0  0  0  0  0  0  0  0
   -0.0565   56.1613   73.4823 H   0  0  0  0  0  0  0  0  0  0  0  0
   -1.4449   53.9390   75.5102 H   0  0  0  0  0  0  0  0  0  0  0  0
   -0.9161   54.3096   73.8492 H   0  0  0  0  0  0  0  0  0  0  0  0
    1.0622   52.9475   75.7277 H   0  0  0  0  0  0  0  0  0  0  0  0
   -0.2406   51.9532   75.0422 H   0  0  0  0  0  0  0  0  0  0  0  0
    2.0185   52.8131   73.8062 H   0  0  0  0  0  0  0  0  0  0  0  0
  2  1  1  0
  3  2  1  0
  4  3  2  0
  5  4  1  0
  6  5  2  0
  7  6  1  0
  8  7  2  0
  8  3  1  0
  9  8  1  0
 10  9  1  0
 11 10  2  0
 11  2  1  0
 12 11  1  0
 13 12  2  0
 14 13  1  0
 15 13  1  0
 16 10  1  0
 16 15  2  0
 17  1  1  0
 18 17  1  0
 20 19  1  0
 21 20  1  0
 22 21  1  0
 22 18  1  0
 23 22  1  0
 24 23  1  0
 24 19  1  0
 25 19  1  0
 26 25  1  0
 27 26  1  0
  1 28  1  0
  1 29  1  0
  4 30  1  0
  5 31  1  0
  6 32  1  0
  7 33  1  0
 12 34  1  0
 15 35  1  0
 16 36  1  0
 17 37  1  0
 17 38  1  0
 18 39  1  0
 18 40  1  0
 19 41  1  0
 20 42  1  0
 20 43  1  0
 21 44  1  0
 21 45  1  0
 22 46  1  0
 23 47  1  0
 23 48  1  0
 24 49  1  0
 24 50  1  0
 25 51  1  0
 25 52  1  0
 26 53  1  0
 26 54  1  0
 27 55  1  0
M  CHG  2  19   1  22   1
M  END
>  <score>  (9) 
-7.173

$$$$
