=
     RDKit          3D

 10  9  0  0  0  0  0  0  0  0999 V2000
   -1.8770   68.7480   65.9020 C   0  0  0  0  0  0  0  0  0  0  0  0
   -3.3200   69.0740   65.5800 N   0  0  0  0  0  4  0  0  0  0  0  0
   -0.8170   66.8520   66.6750 O   0  0  0  0  0  1  0  0  0  0  0  0
   -1.8360   67.5810   66.9160 C   0  0  0  0  0  0  0  0  0  0  0  0
   -2.7460   67.5260   67.7680 O   0  0  0  0  0  0  0  0  0  0  0  0
   -1.3514   68.4546   64.9813 H   0  0  0  0  0  0  0  0  0  0  0  0
   -1.3849   69.6318   66.3341 H   0  0  0  0  0  0  0  0  0  0  0  0
   -3.8487   69.1934   66.4559 H   0  0  0  0  0  0  0  0  0  0  0  0
   -3.3612   69.9455   65.0325 H   0  0  0  0  0  0  0  0  0  0  0  0
   -3.7318   68.3049   65.0325 H   0  0  0  0  0  0  0  0  0  0  0  0
  2  1  1  0
  4  3  1  0
  4  1  1  0
  5  4  2  0
  1  6  1  0
  1  7  1  0
  2  8  1  0
  2  9  1  0
  2 10  1  0
M  CHG  2   2   1   3  -1
M  END
>  <score>  (1) 
-3.448

$$$$
=
     RDKit          3D

 10  9  0  0  0  0  0  0  0  0999 V2000
    5.9350   70.2540   67.4390 C   0  0  0  0  0  0  0  0  0  0  0  0
    6.3590   70.6070   66.0290 N   0  0  0  0  0  4  0  0  0  0  0  0
    5.9230   72.4700   68.0760 O   0  0  0  0  0  1  0  0  0  0  0  0
    6.4380   71.3500   68.4070 C   0  0  0  0  0  0  0  0  0  0  0  0
    7.2230   71.0030   69.3120 O   0  0  0  0  0  0  0  0  0  0  0  0
    4.8379   70.1930   67.4895 H   0  0  0  0  0  0  0  0  0  0  0  0
    6.3649   69.2822   67.7233 H   0  0  0  0  0  0  0  0  0  0  0  0
    7.1501   71.2657   66.0631 H   0  0  0  0  0  0  0  0  0  0  0  0
    6.6457   69.7514   65.5323 H   0  0  0  0  0  0  0  0  0  0  0  0
    5.5696   71.0441   65.5323 H   0  0  0  0  0  0  0  0  0  0  0  0
  2  1  1  0
  4  3  1  0
  4  1  1  0
  5  4  2  0
  1  6  1  0
  1  7  1  0
  2  8  1  0
  2  9  1  0
  2 10  1  0
M  CHG  2   2   1   3  -1
M  END
>  <score>  (2) 
-3.366

$$$$
=
     RDKit          3D

 10  9  0  0  0  0  0  0  0  0999 V2000
    3.7490   63.9120   64.7640 C   0  0  0  0  0  0  0  0  0  0  0  0
    2.7810   65.0730   64.8610 N   0  0  0  0  0  4  0  0  0  0  0  0
    4.1230   64.9880   62.7590 O   0  0  0  0  0  1  0  0  0  0  0  0
    4.6440   64.1030   63.5170 C   0  0  0  0  0  0  0  0  0  0  0  0
    5.6780   63.4100   63.4380 O   0  0  0  0  0  0  0  0  0  0  0  0
    4.3768   63.8793   65.6666 H   0  0  0  0  0  0  0  0  0  0  0  0
    3.1895   62.9688   64.6780 H   0  0  0  0  0  0  0  0  0  0  0  0
    2.6014   65.2884   65.8521 H   0  0  0  0  0  0  0  0  0  0  0  0
    3.1876   65.8986   64.3984 H   0  0  0  0  0  0  0  0  0  0  0  0
    1.8957   64.8215   64.3984 H   0  0  0  0  0  0  0  0  0  0  0  0
  2  1  1  0
  4  3  1  0
  4  1  1  0
  5  4  2  0
  1  6  1  0
  1  7  1  0
  2  8  1  0
  2  9  1  0
  2 10  1  0
M  CHG  2   2   1   3  -1
M  END
>  <score>  (3) 
-3.257

$$$$
=
     RDKit          3D

 10  9  0  0  0  0  0  0  0  0999 V2000
    3.3320   68.4400   61.8710 C   0  0  0  0  0  0  0  0  0  0  0  0
    3.4830   68.9340   60.4480 N   0  0  0  0  0  4  0  0  0  0  0  0
    5.5430   68.1700   62.4700 O   0  0  0  0  0  1  0  0  0  0  0  0
    4.5020   67.4820   62.2000 C   0  0  0  0  0  0  0  0  0  0  0  0
    4.2730   66.2570   62.1560 O   0  0  0  0  0  0  0  0  0  0  0  0
    3.3507   69.2956   62.5621 H   0  0  0  0  0  0  0  0  0  0  0  0
    2.3752   67.9082   61.9797 H   0  0  0  0  0  0  0  0  0  0  0  0
    3.7841   69.9190   60.4566 H   0  0  0  0  0  0  0  0  0  0  0  0
    4.1881   68.3637   59.9596 H   0  0  0  0  0  0  0  0  0  0  0  0
    2.5796   68.8554   59.9596 H   0  0  0  0  0  0  0  0  0  0  0  0
  2  1  1  0
  4  3  1  0
  4  1  1  0
  5  4  2  0
  1  6  1  0
  1  7  1  0
  2  8  1  0
  2  9  1  0
  2 10  1  0
M  CHG  2   2   1   3  -1
M  END
>  <score>  (4) 
-3.17

$$$$
=
     RDKit          3D

 10  9  0  0  0  0  0  0  0  0999 V2000
    1.9050   68.6760   62.1320 C   0  0  0  0  0  0  0  0  0  0  0  0
    2.6560   68.9660   60.8500 N   0  0  0  0  0  4  0  0  0  0  0  0
    0.3060   69.9590   61.0780 O   0  0  0  0  0  1  0  0  0  0  0  0
    0.4100   69.0150   61.9300 C   0  0  0  0  0  0  0  0  0  0  0  0
   -0.4230   68.3580   62.5850 O   0  0  0  0  0  0  0  0  0  0  0  0
    2.0100   67.6113   62.3877 H   0  0  0  0  0  0  0  0  0  0  0  0
    2.3165   69.2869   62.9490 H   0  0  0  0  0  0  0  0  0  0  0  0
    3.5935   69.3280   61.0757 H   0  0  0  0  0  0  0  0  0  0  0  0
    2.7457   68.0991   60.3010 H   0  0  0  0  0  0  0  0  0  0  0  0
    2.1398   69.6682   60.3010 H   0  0  0  0  0  0  0  0  0  0  0  0
  2  1  1  0
  4  3  1  0
  4  1  1  0
  5  4  2  0
  1  6  1  0
  1  7  1  0
  2  8  1  0
  2  9  1  0
  2 10  1  0
M  CHG  2   2   1   3  -1
M  END
>  <score>  (5) 
-3.166

$$$$
=
     RDKit          3D

 10  9  0  0  0  0  0  0  0  0999 V2000
   -0.5500   67.3930   67.2760 C   0  0  0  0  0  0  0  0  0  0  0  0
    0.2710   66.9430   66.0870 N   0  0  0  0  0  4  0  0  0  0  0  0
   -2.8060   67.6670   67.6660 O   0  0  0  0  0  1  0  0  0  0  0  0
   -1.9220   67.9060   66.7780 C   0  0  0  0  0  0  0  0  0  0  0  0
   -1.9610   68.4450   65.6540 O   0  0  0  0  0  0  0  0  0  0  0  0
   -0.7001   66.5462   67.9618 H   0  0  0  0  0  0  0  0  0  0  0  0
   -0.0229   68.1995   67.8067 H   0  0  0  0  0  0  0  0  0  0  0  0
    1.1263   66.4742   66.4180 H   0  0  0  0  0  0  0  0  0  0  0  0
   -0.2815   66.2868   65.5169 H   0  0  0  0  0  0  0  0  0  0  0  0
    0.5270   67.7617   65.5169 H   0  0  0  0  0  0  0  0  0  0  0  0
  2  1  1  0
  4  3  1  0
  4  1  1  0
  5  4  2  0
  1  6  1  0
  1  7  1  0
  2  8  1  0
  2  9  1  0
  2 10  1  0
M  CHG  2   2   1   3  -1
M  END
>  <score>  (6) 
-3.039

$$$$
=
     RDKit          3D

 10  9  0  0  0  0  0  0  0  0999 V2000
   -1.2710   68.8650   65.7830 C   0  0  0  0  0  0  0  0  0  0  0  0
   -1.2630   68.8660   64.2690 N   0  0  0  0  0  4  0  0  0  0  0  0
    0.8880   68.8790   66.5930 O   0  0  0  0  0  1  0  0  0  0  0  0
   -0.0490   68.0660   66.2950 C   0  0  0  0  0  0  0  0  0  0  0  0
   -0.1520   66.8240   66.3390 O   0  0  0  0  0  0  0  0  0  0  0  0
   -1.2157   69.8997   66.1524 H   0  0  0  0  0  0  0  0  0  0  0  0
   -2.1980   68.3991   66.1485 H   0  0  0  0  0  0  0  0  0  0  0  0
   -0.2976   68.9867   63.9308 H   0  0  0  0  0  0  0  0  0  0  0  0
   -1.6387   67.9715   63.9231 H   0  0  0  0  0  0  0  0  0  0  0  0
   -1.8473   69.6405   63.9231 H   0  0  0  0  0  0  0  0  0  0  0  0
  2  1  1  0
  4  3  1  0
  4  1  1  0
  5  4  2  0
  1  6  1  0
  1  7  1  0
  2  8  1  0
  2  9  1  0
  2 10  1  0
M  CHG  2   2   1   3  -1
M  END
>  <score>  (7) 
-3.021

$$$$
=
     RDKit          3D

 10  9  0  0  0  0  0  0  0  0999 V2000
   -0.5410   68.7610   67.2300 C   0  0  0  0  0  0  0  0  0  0  0  0
    0.6510   69.3340   67.9670 N   0  0  0  0  0  4  0  0  0  0  0  0
    0.0430   66.8530   66.0750 O   0  0  0  0  0  1  0  0  0  0  0  0
   -0.4250   67.2190   67.2050 C   0  0  0  0  0  0  0  0  0  0  0  0
   -0.7830   66.5970   68.2250 O   0  0  0  0  0  0  0  0  0  0  0  0
   -1.4680   69.0526   67.7453 H   0  0  0  0  0  0  0  0  0  0  0  0
   -0.5624   69.1484   66.2007 H   0  0  0  0  0  0  0  0  0  0  0  0
    0.4953   69.2591   68.9824 H   0  0  0  0  0  0  0  0  0  0  0  0
    1.4987   68.8084   67.7100 H   0  0  0  0  0  0  0  0  0  0  0  0
    0.7700   70.3243   67.7100 H   0  0  0  0  0  0  0  0  0  0  0  0
  2  1  1  0
  4  3  1  0
  4  1  1  0
  5  4  2  0
  1  6  1  0
  1  7  1  0
  2  8  1  0
  2  9  1  0
  2 10  1  0
M  CHG  2   2   1   3  -1
M  END
>  <score>  (8) 
-2.91

$$$$
=
     RDKit          3D

 10  9  0  0  0  0  0  0  0  0999 V2000
    3.1360   65.1780   64.7090 C   0  0  0  0  0  0  0  0  0  0  0  0
    1.8290   65.9420   64.7280 N   0  0  0  0  0  4  0  0  0  0  0  0
    4.1650   65.0190   62.6510 O   0  0  0  0  0  1  0  0  0  0  0  0
    4.0730   65.8070   63.6510 C   0  0  0  0  0  0  0  0  0  0  0  0
    4.5710   66.9200   63.9130 O   0  0  0  0  0  0  0  0  0  0  0  0
    3.6097   65.2332   65.7003 H   0  0  0  0  0  0  0  0  0  0  0  0
    2.9463   64.1242   64.4572 H   0  0  0  0  0  0  0  0  0  0  0  0
    1.5431   66.1091   65.7033 H   0  0  0  0  0  0  0  0  0  0  0  0
    1.9518   66.8444   64.2468 H   0  0  0  0  0  0  0  0  0  0  0  0
    1.1029   65.3923   64.2468 H   0  0  0  0  0  0  0  0  0  0  0  0
  2  1  1  0
  4  3  1  0
  4  1  1  0
  5  4  2  0
  1  6  1  0
  1  7  1  0
  2  8  1  0
  2  9  1  0
  2 10  1  0
M  CHG  2   2   1   3  -1
M  END
>  <score>  (9) 
-2.887

$$$$
