=
     RDKit          3D

 32 34  0  0  0  0  0  0  0  0999 V2000
    0.2640   67.8050   64.9800 N   0  0  0  0  0  0  0  0  0  0  0  0
    0.9790   68.5780   65.8540 C   0  0  0  0  0  0  0  0  0  0  0  0
    0.3320   69.3290   66.5810 O   0  0  0  0  0  0  0  0  0  0  0  0
    2.3760   68.4770   65.7620 N   0  0  0  0  0  0  0  0  0  0  0  0
    3.2470   69.2340   66.6360 C   0  0  0  0  0  0  0  0  0  0  0  0
    2.8070   69.4960   67.9540 C   0  0  0  0  0  0  0  0  0  0  0  0
    3.5940   70.1780   68.8870 C   0  0  0  0  0  0  0  0  0  0  0  0
    4.8560   70.6170   68.5300 C   0  0  0  0  0  0  0  0  0  0  0  0
    5.3190   70.3800   67.2410 C   0  0  0  0  0  0  0  0  0  0  0  0
    4.5330   69.7030   66.2750 C   0  0  0  0  0  0  0  0  0  0  0  0
    5.1790   69.6100   64.9070 C   0  0  0  0  0  0  0  0  0  0  0  0
    4.3350   69.0870   63.7570 C   0  0  0  0  0  0  0  0  0  0  0  0
    3.9400   67.6700   64.0410 C   0  0  0  0  0  0  0  0  0  0  0  0
    3.0020   67.4060   65.0460 C   0  0  0  0  0  0  0  0  0  0  0  0
    2.6360   66.0760   65.3090 C   0  0  0  0  0  0  0  0  0  0  0  0
    3.2030   65.0250   64.5880 C   0  0  0  0  0  0  0  0  0  0  0  0
    4.1370   65.2920   63.5910 C   0  0  0  0  0  0  0  0  0  0  0  0
    4.5050   66.6080   63.3180 C   0  0  0  0  0  0  0  0  0  0  0  0
    0.7534   67.1570   64.3464 H   0  0  0  0  0  0  0  0  0  0  0  0
   -0.7636   67.8712   64.9557 H   0  0  0  0  0  0  0  0  0  0  0  0
    1.8076   69.1502   68.2568 H   0  0  0  0  0  0  0  0  0  0  0  0
    3.2109   70.3647   69.9011 H   0  0  0  0  0  0  0  0  0  0  0  0
    5.4865   71.1480   69.2583 H   0  0  0  0  0  0  0  0  0  0  0  0
    6.3247   70.7279   66.9624 H   0  0  0  0  0  0  0  0  0  0  0  0
    5.5147   70.6212   64.6337 H   0  0  0  0  0  0  0  0  0  0  0  0
    5.9753   68.8609   65.0280 H   0  0  0  0  0  0  0  0  0  0  0  0
    3.4322   69.7066   63.6516 H   0  0  0  0  0  0  0  0  0  0  0  0
    4.9153   69.1290   62.8235 H   0  0  0  0  0  0  0  0  0  0  0  0
    1.8941   65.8606   66.0921 H   0  0  0  0  0  0  0  0  0  0  0  0
    2.9125   63.9869   64.8070 H   0  0  0  0  0  0  0  0  0  0  0  0
    4.5840   64.4653   63.0194 H   0  0  0  0  0  0  0  0  0  0  0  0
    5.2438   66.8160   62.5300 H   0  0  0  0  0  0  0  0  0  0  0  0
  2  1  1  0
  3  2  2  0
  4  2  1  0
  5  4  1  0
  6  5  2  0
  7  6  1  0
  8  7  2  0
  9  8  1  0
 10  9  2  0
 10  5  1  0
 11 10  1  0
 12 11  1  0
 13 12  1  0
 14 13  2  0
 14  4  1  0
 15 14  1  0
 16 15  2  0
 17 16  1  0
 18 17  2  0
 18 13  1  0
  1 19  1  0
  1 20  1  0
  6 21  1  0
  7 22  1  0
  8 23  1  0
  9 24  1  0
 11 25  1  0
 11 26  1  0
 12 27  1  0
 12 28  1  0
 15 29  1  0
 16 30  1  0
 17 31  1  0
 18 32  1  0
M  END
>  <score>  (1) 
-10.766

$$$$
=
     RDKit          3D

 32 34  0  0  0  0  0  0  0  0999 V2000
    1.8810   66.9170   67.2640 N   0  0  0  0  0  0  0  0  0  0  0  0
    1.2600   67.2940   66.1030 C   0  0  0  0  0  0  0  0  0  0  0  0
    0.1230   66.8640   65.9230 O   0  0  0  0  0  0  0  0  0  0  0  0
    2.0290   68.0660   65.2180 N   0  0  0  0  0  0  0  0  0  0  0  0
    1.4860   68.5360   63.9610 C   0  0  0  0  0  0  0  0  0  0  0  0
    0.1110   68.8540   63.9040 C   0  0  0  0  0  0  0  0  0  0  0  0
   -0.4970   69.3600   62.7500 C   0  0  0  0  0  0  0  0  0  0  0  0
    0.2600   69.5690   61.6120 C   0  0  0  0  0  0  0  0  0  0  0  0
    1.6160   69.2630   61.6310 C   0  0  0  0  0  0  0  0  0  0  0  0
    2.2490   68.7370   62.7850 C   0  0  0  0  0  0  0  0  0  0  0  0
    3.7130   68.3980   62.5870 C   0  0  0  0  0  0  0  0  0  0  0  0
    4.4230   67.6410   63.6960 C   0  0  0  0  0  0  0  0  0  0  0  0
    4.4380   68.4830   64.9350 C   0  0  0  0  0  0  0  0  0  0  0  0
    3.2450   68.6940   65.6370 C   0  0  0  0  0  0  0  0  0  0  0  0
    3.2640   69.4850   66.7970 C   0  0  0  0  0  0  0  0  0  0  0  0
    4.4510   70.0660   67.2450 C   0  0  0  0  0  0  0  0  0  0  0  0
    5.6340   69.8560   66.5420 C   0  0  0  0  0  0  0  0  0  0  0  0
    5.6290   69.0690   65.3920 C   0  0  0  0  0  0  0  0  0  0  0  0
    2.8350   67.2471   67.4684 H   0  0  0  0  0  0  0  0  0  0  0  0
    1.3940   66.3034   67.9327 H   0  0  0  0  0  0  0  0  0  0  0  0
   -0.5056   68.6978   64.8015 H   0  0  0  0  0  0  0  0  0  0  0  0
   -1.5726   69.5906   62.7480 H   0  0  0  0  0  0  0  0  0  0  0  0
   -0.2058   69.9732   60.7011 H   0  0  0  0  0  0  0  0  0  0  0  0
    2.2149   69.4340   60.7243 H   0  0  0  0  0  0  0  0  0  0  0  0
    3.7877   67.7885   61.6744 H   0  0  0  0  0  0  0  0  0  0  0  0
    4.2198   69.3736   62.5504 H   0  0  0  0  0  0  0  0  0  0  0  0
    3.8915   66.6992   63.8975 H   0  0  0  0  0  0  0  0  0  0  0  0
    5.4551   67.4168   63.3887 H   0  0  0  0  0  0  0  0  0  0  0  0
    2.3326   69.6485   67.3590 H   0  0  0  0  0  0  0  0  0  0  0  0
    4.4519   70.6887   68.1518 H   0  0  0  0  0  0  0  0  0  0  0  0
    6.5717   70.3108   66.8939 H   0  0  0  0  0  0  0  0  0  0  0  0
    6.5653   68.9057   64.8382 H   0  0  0  0  0  0  0  0  0  0  0  0
  2  1  1  0
  3  2  2  0
  4  2  1  0
  5  4  1  0
  6  5  2  0
  7  6  1  0
  8  7  2  0
  9  8  1  0
 10  9  2  0
 10  5  1  0
 11 10  1  0
 12 11  1  0
 13 12  1  0
 14 13  2  0
 14  4  1  0
 15 14  1  0
 16 15  2  0
 17 16  1  0
 18 17  2  0
 18 13  1  0
  1 19  1  0
  1 20  1  0
  6 21  1  0
  7 22  1  0
  8 23  1  0
  9 24  1  0
 11 25  1  0
 11 26  1  0
 12 27  1  0
 12 28  1  0
 15 29  1  0
 16 30  1  0
 17 31  1  0
 18 32  1  0
M  END
>  <score>  (2) 
-10.285

$$$$
=
     RDKit          3D

 32 34  0  0  0  0  0  0  0  0999 V2000
    3.5650   66.7480   63.2370 N   0  0  0  0  0  0  0  0  0  0  0  0
    4.2300   67.4780   64.1850 C   0  0  0  0  0  0  0  0  0  0  0  0
    5.4430   67.2970   64.2680 O   0  0  0  0  0  0  0  0  0  0  0  0
    3.4320   68.2920   65.0040 N   0  0  0  0  0  0  0  0  0  0  0  0
    4.0140   69.1210   66.0390 C   0  0  0  0  0  0  0  0  0  0  0  0
    5.2970   69.6690   65.8140 C   0  0  0  0  0  0  0  0  0  0  0  0
    5.9220   70.5190   66.7310 C   0  0  0  0  0  0  0  0  0  0  0  0
    5.2770   70.8540   67.9080 C   0  0  0  0  0  0  0  0  0  0  0  0
    4.0150   70.3290   68.1640 C   0  0  0  0  0  0  0  0  0  0  0  0
    3.3680   69.4550   67.2540 C   0  0  0  0  0  0  0  0  0  0  0  0
    2.0340   68.9300   67.7450 C   0  0  0  0  0  0  0  0  0  0  0  0
    1.3630   67.8320   66.9370 C   0  0  0  0  0  0  0  0  0  0  0  0
    1.0380   68.3540   65.5710 C   0  0  0  0  0  0  0  0  0  0  0  0
    2.0750   68.5950   64.6620 C   0  0  0  0  0  0  0  0  0  0  0  0
    1.7650   69.0860   63.3840 C   0  0  0  0  0  0  0  0  0  0  0  0
    0.4430   69.3430   63.0200 C   0  0  0  0  0  0  0  0  0  0  0  0
   -0.5840   69.1040   63.9270 C   0  0  0  0  0  0  0  0  0  0  0  0
   -0.2900   68.6120   65.1980 C   0  0  0  0  0  0  0  0  0  0  0  0
    2.5474   66.8584   63.1222 H   0  0  0  0  0  0  0  0  0  0  0  0
    4.0822   66.0884   62.6385 H   0  0  0  0  0  0  0  0  0  0  0  0
    5.8239   69.4171   64.8818 H   0  0  0  0  0  0  0  0  0  0  0  0
    6.9237   70.9203   66.5173 H   0  0  0  0  0  0  0  0  0  0  0  0
    5.7568   71.5279   68.6330 H   0  0  0  0  0  0  0  0  0  0  0  0
    3.5038   70.5996   69.0997 H   0  0  0  0  0  0  0  0  0  0  0  0
    2.1891   68.5406   68.7620 H   0  0  0  0  0  0  0  0  0  0  0  0
    1.3519   69.7892   67.6641 H   0  0  0  0  0  0  0  0  0  0  0  0
    2.0428   66.9716   66.8499 H   0  0  0  0  0  0  0  0  0  0  0  0
    0.4381   67.5149   67.4411 H   0  0  0  0  0  0  0  0  0  0  0  0
    2.5736   69.2702   62.6614 H   0  0  0  0  0  0  0  0  0  0  0  0
    0.2133   69.7338   62.0178 H   0  0  0  0  0  0  0  0  0  0  0  0
   -1.6276   69.3030   63.6417 H   0  0  0  0  0  0  0  0  0  0  0  0
   -1.1045   68.4248   65.9132 H   0  0  0  0  0  0  0  0  0  0  0  0
  2  1  1  0
  3  2  2  0
  4  2  1  0
  5  4  1  0
  6  5  2  0
  7  6  1  0
  8  7  2  0
  9  8  1  0
 10  9  2  0
 10  5  1  0
 11 10  1  0
 12 11  1  0
 13 12  1  0
 14 13  2  0
 14  4  1  0
 15 14  1  0
 16 15  2  0
 17 16  1  0
 18 17  2  0
 18 13  1  0
  1 19  1  0
  1 20  1  0
  6 21  1  0
  7 22  1  0
  8 23  1  0
  9 24  1  0
 11 25  1  0
 11 26  1  0
 12 27  1  0
 12 28  1  0
 15 29  1  0
 16 30  1  0
 17 31  1  0
 18 32  1  0
M  END
>  <score>  (3) 
-9.698

$$$$
=
     RDKit          3D

 32 34  0  0  0  0  0  0  0  0999 V2000
    1.5330   67.0640   69.5230 N   0  0  0  0  0  0  0  0  0  0  0  0
    0.6070   67.2600   68.5340 C   0  0  0  0  0  0  0  0  0  0  0  0
   -0.4510   66.6430   68.6420 O   0  0  0  0  0  0  0  0  0  0  0  0
    1.0090   68.0840   67.4710 N   0  0  0  0  0  0  0  0  0  0  0  0
    0.1190   68.3780   66.3670 C   0  0  0  0  0  0  0  0  0  0  0  0
   -1.2660   68.4680   66.6310 C   0  0  0  0  0  0  0  0  0  0  0  0
   -2.2000   68.7930   65.6420 C   0  0  0  0  0  0  0  0  0  0  0  0
   -1.7730   69.0450   64.3510 C   0  0  0  0  0  0  0  0  0  0  0  0
   -0.4170   68.9610   64.0550 C   0  0  0  0  0  0  0  0  0  0  0  0
    0.5450   68.6200   65.0390 C   0  0  0  0  0  0  0  0  0  0  0  0
    1.9590   68.5050   64.5070 C   0  0  0  0  0  0  0  0  0  0  0  0
    3.0240   67.9460   65.4350 C   0  0  0  0  0  0  0  0  0  0  0  0
    3.1800   68.8600   66.6120 C   0  0  0  0  0  0  0  0  0  0  0  0
    2.1630   68.9240   67.5720 C   0  0  0  0  0  0  0  0  0  0  0  0
    2.3140   69.7830   68.6720 C   0  0  0  0  0  0  0  0  0  0  0  0
    3.4550   70.5740   68.8090 C   0  0  0  0  0  0  0  0  0  0  0  0
    4.4620   70.5090   67.8500 C   0  0  0  0  0  0  0  0  0  0  0  0
    4.3270   69.6570   66.7560 C   0  0  0  0  0  0  0  0  0  0  0  0
    2.4380   67.5544   69.4857 H   0  0  0  0  0  0  0  0  0  0  0  0
    1.3247   66.4262   70.3045 H   0  0  0  0  0  0  0  0  0  0  0  0
   -1.6234   68.2751   67.6533 H   0  0  0  0  0  0  0  0  0  0  0  0
   -3.2702   68.8480   65.8901 H   0  0  0  0  0  0  0  0  0  0  0  0
   -2.4980   69.3090   63.5670 H   0  0  0  0  0  0  0  0  0  0  0  0
   -0.0810   69.1650   63.0277 H   0  0  0  0  0  0  0  0  0  0  0  0
    1.9235   67.8554   63.6200 H   0  0  0  0  0  0  0  0  0  0  0  0
    2.2703   69.5440   64.3238 H   0  0  0  0  0  0  0  0  0  0  0  0
    2.7219   66.9469   65.7823 H   0  0  0  0  0  0  0  0  0  0  0  0
    3.9803   67.8695   64.8969 H   0  0  0  0  0  0  0  0  0  0  0  0
    1.5232   69.8330   69.4350 H   0  0  0  0  0  0  0  0  0  0  0  0
    3.5587   71.2473   69.6726 H   0  0  0  0  0  0  0  0  0  0  0  0
    5.3638   71.1300   67.9559 H   0  0  0  0  0  0  0  0  0  0  0  0
    5.1244   69.6083   65.9999 H   0  0  0  0  0  0  0  0  0  0  0  0
  2  1  1  0
  3  2  2  0
  4  2  1  0
  5  4  1  0
  6  5  2  0
  7  6  1  0
  8  7  2  0
  9  8  1  0
 10  9  2  0
 10  5  1  0
 11 10  1  0
 12 11  1  0
 13 12  1  0
 14 13  2  0
 14  4  1  0
 15 14  1  0
 16 15  2  0
 17 16  1  0
 18 17  2  0
 18 13  1  0
  1 19  1  0
  1 20  1  0
  6 21  1  0
  7 22  1  0
  8 23  1  0
  9 24  1  0
 11 25  1  0
 11 26  1  0
 12 27  1  0
 12 28  1  0
 15 29  1  0
 16 30  1  0
 17 31  1  0
 18 32  1  0
M  END
>  <score>  (4) 
-9.181

$$$$
=
     RDKit          3D

 32 34  0  0  0  0  0  0  0  0999 V2000
    1.9740   63.1150   74.6080 N   0  0  0  0  0  0  0  0  0  0  0  0
    2.3520   61.9550   73.9890 C   0  0  0  0  0  0  0  0  0  0  0  0
    2.6160   61.0020   74.7200 O   0  0  0  0  0  0  0  0  0  0  0  0
    2.4700   62.0140   72.5910 N   0  0  0  0  0  0  0  0  0  0  0  0
    2.8530   60.8520   71.8160 C   0  0  0  0  0  0  0  0  0  0  0  0
    2.4440   59.5800   72.2730 C   0  0  0  0  0  0  0  0  0  0  0  0
    2.7240   58.4030   71.5710 C   0  0  0  0  0  0  0  0  0  0  0  0
    3.4220   58.4650   70.3790 C   0  0  0  0  0  0  0  0  0  0  0  0
    3.8450   59.7010   69.9020 C   0  0  0  0  0  0  0  0  0  0  0  0
    3.5840   60.9050   70.6040 C   0  0  0  0  0  0  0  0  0  0  0  0
    4.1890   62.1380   69.9640 C   0  0  0  0  0  0  0  0  0  0  0  0
    4.1400   63.4390   70.7460 C   0  0  0  0  0  0  0  0  0  0  0  0
    2.7100   63.8360   70.9540 C   0  0  0  0  0  0  0  0  0  0  0  0
    1.9150   63.1000   71.8400 C   0  0  0  0  0  0  0  0  0  0  0  0
    0.5760   63.4740   72.0310 C   0  0  0  0  0  0  0  0  0  0  0  0
    0.0330   64.5590   71.3410 C   0  0  0  0  0  0  0  0  0  0  0  0
    0.8270   65.2860   70.4590 C   0  0  0  0  0  0  0  0  0  0  0  0
    2.1600   64.9270   70.2640 C   0  0  0  0  0  0  0  0  0  0  0  0
    1.7409   63.9462   74.0462 H   0  0  0  0  0  0  0  0  0  0  0  0
    1.9225   63.1571   75.6358 H   0  0  0  0  0  0  0  0  0  0  0  0
    1.8838   59.5122   73.2172 H   0  0  0  0  0  0  0  0  0  0  0  0
    2.3903   57.4320   71.9656 H   0  0  0  0  0  0  0  0  0  0  0  0
    3.6403   57.5467   69.8141 H   0  0  0  0  0  0  0  0  0  0  0  0
    4.3982   59.7459   68.9523 H   0  0  0  0  0  0  0  0  0  0  0  0
    5.2473   61.9167   69.7616 H   0  0  0  0  0  0  0  0  0  0  0  0
    3.5647   62.3243   69.0777 H   0  0  0  0  0  0  0  0  0  0  0  0
    4.6289   63.3004   71.7216 H   0  0  0  0  0  0  0  0  0  0  0  0
    4.6642   64.2269   70.1853 H   0  0  0  0  0  0  0  0  0  0  0  0
   -0.0527   62.9057   72.7323 H   0  0  0  0  0  0  0  0  0  0  0  0
   -1.0198   64.8387   71.4939 H   0  0  0  0  0  0  0  0  0  0  0  0
    0.4030   66.1435   69.9159 H   0  0  0  0  0  0  0  0  0  0  0  0
    2.7844   65.5026   69.5649 H   0  0  0  0  0  0  0  0  0  0  0  0
  2  1  1  0
  3  2  2  0
  4  2  1  0
  5  4  1  0
  6  5  2  0
  7  6  1  0
  8  7  2  0
  9  8  1  0
 10  9  2  0
 10  5  1  0
 11 10  1  0
 12 11  1  0
 13 12  1  0
 14 13  2  0
 14  4  1  0
 15 14  1  0
 16 15  2  0
 17 16  1  0
 18 17  2  0
 18 13  1  0
  1 19  1  0
  1 20  1  0
  6 21  1  0
  7 22  1  0
  8 23  1  0
  9 24  1  0
 11 25  1  0
 11 26  1  0
 12 27  1  0
 12 28  1  0
 15 29  1  0
 16 30  1  0
 17 31  1  0
 18 32  1  0
M  END
>  <score>  (5) 
-8.844

$$$$
=
     RDKit          3D

 32 34  0  0  0  0  0  0  0  0999 V2000
   -0.7620   69.1400   64.4760 N   0  0  0  0  0  0  0  0  0  0  0  0
   -0.8590   68.5530   65.7080 C   0  0  0  0  0  0  0  0  0  0  0  0
   -1.9930   68.3900   66.1530 O   0  0  0  0  0  0  0  0  0  0  0  0
    0.3570   68.2760   66.3540 N   0  0  0  0  0  0  0  0  0  0  0  0
    0.3920   67.6470   67.6580 C   0  0  0  0  0  0  0  0  0  0  0  0
   -0.6170   66.7100   67.9750 C   0  0  0  0  0  0  0  0  0  0  0  0
   -0.6420   66.0150   69.1890 C   0  0  0  0  0  0  0  0  0  0  0  0
    0.3500   66.2340   70.1260 C   0  0  0  0  0  0  0  0  0  0  0  0
    1.3560   67.1530   69.8480 C   0  0  0  0  0  0  0  0  0  0  0  0
    1.3950   67.8780   68.6310 C   0  0  0  0  0  0  0  0  0  0  0  0
    2.5240   68.8850   68.5460 C   0  0  0  0  0  0  0  0  0  0  0  0
    2.5270   69.8500   67.3730 C   0  0  0  0  0  0  0  0  0  0  0  0
    2.6700   69.0760   66.0980 C   0  0  0  0  0  0  0  0  0  0  0  0
    1.6000   68.2950   65.6460 C   0  0  0  0  0  0  0  0  0  0  0  0
    1.7400   67.5700   64.4510 C   0  0  0  0  0  0  0  0  0  0  0  0
    2.9300   67.6150   63.7240 C   0  0  0  0  0  0  0  0  0  0  0  0
    3.9920   68.3910   64.1800 C   0  0  0  0  0  0  0  0  0  0  0  0
    3.8640   69.1190   65.3620 C   0  0  0  0  0  0  0  0  0  0  0  0
    0.1636   69.3013   64.0538 H   0  0  0  0  0  0  0  0  0  0  0  0
   -1.6145   69.4206   63.9707 H   0  0  0  0  0  0  0  0  0  0  0  0
   -1.4127   66.5198   67.2397 H   0  0  0  0  0  0  0  0  0  0  0  0
   -1.4486   65.2966   69.3970 H   0  0  0  0  0  0  0  0  0  0  0  0
    0.3439   65.6877   71.0807 H   0  0  0  0  0  0  0  0  0  0  0  0
    2.1453   67.3223   70.5953 H   0  0  0  0  0  0  0  0  0  0  0  0
    2.4960   69.4873   69.4660 H   0  0  0  0  0  0  0  0  0  0  0  0
    3.4284   68.2751   68.4045 H   0  0  0  0  0  0  0  0  0  0  0  0
    1.5822   70.4130   67.3575 H   0  0  0  0  0  0  0  0  0  0  0  0
    3.3673   70.5525   67.4748 H   0  0  0  0  0  0  0  0  0  0  0  0
    0.9016   66.9597   64.0841 H   0  0  0  0  0  0  0  0  0  0  0  0
    3.0288   67.0385   62.7924 H   0  0  0  0  0  0  0  0  0  0  0  0
    4.9310   68.4297   63.6084 H   0  0  0  0  0  0  0  0  0  0  0  0
    4.7047   69.7313   65.7202 H   0  0  0  0  0  0  0  0  0  0  0  0
  2  1  1  0
  3  2  2  0
  4  2  1  0
  5  4  1  0
  6  5  2  0
  7  6  1  0
  8  7  2  0
  9  8  1  0
 10  9  2  0
 10  5  1  0
 11 10  1  0
 12 11  1  0
 13 12  1  0
 14 13  2  0
 14  4  1  0
 15 14  1  0
 16 15  2  0
 17 16  1  0
 18 17  2  0
 18 13  1  0
  1 19  1  0
  1 20  1  0
  6 21  1  0
  7 22  1  0
  8 23  1  0
  9 24  1  0
 11 25  1  0
 11 26  1  0
 12 27  1  0
 12 28  1  0
 15 29  1  0
 16 30  1  0
 17 31  1  0
 18 32  1  0
M  END
>  <score>  (6) 
-8.755

$$$$
=
     RDKit          3D

 32 34  0  0  0  0  0  0  0  0999 V2000
    4.2630   65.0410   63.7290 N   0  0  0  0  0  0  0  0  0  0  0  0
    3.3280   65.5200   64.6070 C   0  0  0  0  0  0  0  0  0  0  0  0
    2.8970   64.7240   65.4390 O   0  0  0  0  0  0  0  0  0  0  0  0
    2.9140   66.8460   64.4020 N   0  0  0  0  0  0  0  0  0  0  0  0
    1.9380   67.4740   65.2670 C   0  0  0  0  0  0  0  0  0  0  0  0
    1.9170   67.1040   66.6300 C   0  0  0  0  0  0  0  0  0  0  0  0
    1.0440   67.6870   67.5540 C   0  0  0  0  0  0  0  0  0  0  0  0
    0.1630   68.6690   67.1400 C   0  0  0  0  0  0  0  0  0  0  0  0
    0.1540   69.0550   65.8050 C   0  0  0  0  0  0  0  0  0  0  0  0
    1.0200   68.4680   64.8490 C   0  0  0  0  0  0  0  0  0  0  0  0
    0.8080   68.9660   63.4330 C   0  0  0  0  0  0  0  0  0  0  0  0
    1.5430   68.2520   62.3120 C   0  0  0  0  0  0  0  0  0  0  0  0
    3.0190   68.4140   62.5080 C   0  0  0  0  0  0  0  0  0  0  0  0
    3.6510   67.7360   63.5570 C   0  0  0  0  0  0  0  0  0  0  0  0
    5.0350   67.8930   63.7370 C   0  0  0  0  0  0  0  0  0  0  0  0
    5.7750   68.7210   62.8930 C   0  0  0  0  0  0  0  0  0  0  0  0
    5.1420   69.3950   61.8540 C   0  0  0  0  0  0  0  0  0  0  0  0
    3.7700   69.2450   61.6610 C   0  0  0  0  0  0  0  0  0  0  0  0
    4.6600   65.6623   63.0097 H   0  0  0  0  0  0  0  0  0  0  0  0
    4.5694   64.0594   63.7878 H   0  0  0  0  0  0  0  0  0  0  0  0
    2.6141   66.3275   66.9780 H   0  0  0  0  0  0  0  0  0  0  0  0
    1.0581   67.3656   68.6059 H   0  0  0  0  0  0  0  0  0  0  0  0
   -0.5232   69.1395   67.8595 H   0  0  0  0  0  0  0  0  0  0  0  0
   -0.5459   69.8392   65.4808 H   0  0  0  0  0  0  0  0  0  0  0  0
   -0.2683   68.8933   63.2177 H   0  0  0  0  0  0  0  0  0  0  0  0
    1.2254   69.9837   63.4327 H   0  0  0  0  0  0  0  0  0  0  0  0
    1.2854   67.1827   62.3260 H   0  0  0  0  0  0  0  0  0  0  0  0
    1.2495   68.6844   61.3441 H   0  0  0  0  0  0  0  0  0  0  0  0
    5.5413   67.3567   64.5531 H   0  0  0  0  0  0  0  0  0  0  0  0
    6.8573   68.8407   63.0488 H   0  0  0  0  0  0  0  0  0  0  0  0
    5.7239   70.0460   61.1850 H   0  0  0  0  0  0  0  0  0  0  0  0
    3.2720   69.7811   60.8397 H   0  0  0  0  0  0  0  0  0  0  0  0
  2  1  1  0
  3  2  2  0
  4  2  1  0
  5  4  1  0
  6  5  2  0
  7  6  1  0
  8  7  2  0
  9  8  1  0
 10  9  2  0
 10  5  1  0
 11 10  1  0
 12 11  1  0
 13 12  1  0
 14 13  2  0
 14  4  1  0
 15 14  1  0
 16 15  2  0
 17 16  1  0
 18 17  2  0
 18 13  1  0
  1 19  1  0
  1 20  1  0
  6 21  1  0
  7 22  1  0
  8 23  1  0
  9 24  1  0
 11 25  1  0
 11 26  1  0
 12 27  1  0
 12 28  1  0
 15 29  1  0
 16 30  1  0
 17 31  1  0
 18 32  1  0
M  END
>  <score>  (7) 
-8.063

$$$$
=
     RDKit          3D

 32 34  0  0  0  0  0  0  0  0999 V2000
    1.6280   63.2970   74.8830 N   0  0  0  0  0  0  0  0  0  0  0  0
    1.6040   61.9440   74.6780 C   0  0  0  0  0  0  0  0  0  0  0  0
    1.2270   61.2510   75.6210 O   0  0  0  0  0  0  0  0  0  0  0  0
    2.0870   61.5020   73.4360 N   0  0  0  0  0  0  0  0  0  0  0  0
    2.1060   60.0950   73.0910 C   0  0  0  0  0  0  0  0  0  0  0  0
    1.0780   59.2690   73.5990 C   0  0  0  0  0  0  0  0  0  0  0  0
    0.9830   57.9100   73.2850 C   0  0  0  0  0  0  0  0  0  0  0  0
    1.9150   57.3320   72.4430 C   0  0  0  0  0  0  0  0  0  0  0  0
    2.9430   58.1150   71.9290 C   0  0  0  0  0  0  0  0  0  0  0  0
    3.0670   59.4920   72.2450 C   0  0  0  0  0  0  0  0  0  0  0  0
    4.2920   60.1550   71.6490 C   0  0  0  0  0  0  0  0  0  0  0  0
    4.6220   61.5690   72.0960 C   0  0  0  0  0  0  0  0  0  0  0  0
    3.5110   62.4870   71.6870 C   0  0  0  0  0  0  0  0  0  0  0  0
    2.2770   62.4060   72.3430 C   0  0  0  0  0  0  0  0  0  0  0  0
    1.2380   63.2670   71.9550 C   0  0  0  0  0  0  0  0  0  0  0  0
    1.4220   64.1870   70.9220 C   0  0  0  0  0  0  0  0  0  0  0  0
    2.6500   64.2610   70.2700 C   0  0  0  0  0  0  0  0  0  0  0  0
    3.6910   63.4150   70.6490 C   0  0  0  0  0  0  0  0  0  0  0  0
    1.9351   63.9269   74.1281 H   0  0  0  0  0  0  0  0  0  0  0  0
    1.3390   63.6853   75.7922 H   0  0  0  0  0  0  0  0  0  0  0  0
    0.3243   59.7120   74.2666 H   0  0  0  0  0  0  0  0  0  0  0  0
    0.1689   57.3022   73.7067 H   0  0  0  0  0  0  0  0  0  0  0  0
    1.8442   56.2656   72.1828 H   0  0  0  0  0  0  0  0  0  0  0  0
    3.6816   57.6527   71.2576 H   0  0  0  0  0  0  0  0  0  0  0  0
    5.1585   59.5232   71.8939 H   0  0  0  0  0  0  0  0  0  0  0  0
    4.0609   60.2506   70.5778 H   0  0  0  0  0  0  0  0  0  0  0  0
    4.7345   61.5922   73.1900 H   0  0  0  0  0  0  0  0  0  0  0  0
    5.5621   61.8949   71.6270 H   0  0  0  0  0  0  0  0  0  0  0  0
    0.2680   63.2158   72.4712 H   0  0  0  0  0  0  0  0  0  0  0  0
    0.5985   64.8524   70.6234 H   0  0  0  0  0  0  0  0  0  0  0  0
    2.7986   64.9864   69.4565 H   0  0  0  0  0  0  0  0  0  0  0  0
    4.6598   63.4749   70.1314 H   0  0  0  0  0  0  0  0  0  0  0  0
  2  1  1  0
  3  2  2  0
  4  2  1  0
  5  4  1  0
  6  5  2  0
  7  6  1  0
  8  7  2  0
  9  8  1  0
 10  9  2  0
 10  5  1  0
 11 10  1  0
 12 11  1  0
 13 12  1  0
 14 13  2  0
 14  4  1  0
 15 14  1  0
 16 15  2  0
 17 16  1  0
 18 17  2  0
 18 13  1  0
  1 19  1  0
  1 20  1  0
  6 21  1  0
  7 22  1  0
  8 23  1  0
  9 24  1  0
 11 25  1  0
 11 26  1  0
 12 27  1  0
 12 28  1  0
 15 29  1  0
 16 30  1  0
 17 31  1  0
 18 32  1  0
M  END
>  <score>  (8) 
-8.017

$$$$
=
     RDKit          3D

 32 34  0  0  0  0  0  0  0  0999 V2000
    3.4090   59.2150   69.5060 N   0  0  0  0  0  0  0  0  0  0  0  0
    3.3780   58.8970   70.8370 C   0  0  0  0  0  0  0  0  0  0  0  0
    3.5210   57.7100   71.1220 O   0  0  0  0  0  0  0  0  0  0  0  0
    3.1070   59.9580   71.7150 N   0  0  0  0  0  0  0  0  0  0  0  0
    3.0560   59.7560   73.1480 C   0  0  0  0  0  0  0  0  0  0  0  0
    3.9090   58.7850   73.7170 C   0  0  0  0  0  0  0  0  0  0  0  0
    3.9680   58.5490   75.0950 C   0  0  0  0  0  0  0  0  0  0  0  0
    3.1720   59.2880   75.9510 C   0  0  0  0  0  0  0  0  0  0  0  0
    2.3170   60.2490   75.4250 C   0  0  0  0  0  0  0  0  0  0  0  0
    2.2320   60.4950   74.0310 C   0  0  0  0  0  0  0  0  0  0  0  0
    1.1900   61.5270   73.6480 C   0  0  0  0  0  0  0  0  0  0  0  0
    0.8810   61.7090   72.1720 C   0  0  0  0  0  0  0  0  0  0  0  0
    2.1110   62.1950   71.4670 C   0  0  0  0  0  0  0  0  0  0  0  0
    3.1900   61.3220   71.2880 C   0  0  0  0  0  0  0  0  0  0  0  0
    4.3410   61.7830   70.6290 C   0  0  0  0  0  0  0  0  0  0  0  0
    4.4190   63.0970   70.1650 C   0  0  0  0  0  0  0  0  0  0  0  0
    3.3440   63.9620   70.3480 C   0  0  0  0  0  0  0  0  0  0  0  0
    2.1940   63.5150   70.9970 C   0  0  0  0  0  0  0  0  0  0  0  0
    3.2945   60.1942   69.2076 H   0  0  0  0  0  0  0  0  0  0  0  0
    3.5468   58.4751   68.8028 H   0  0  0  0  0  0  0  0  0  0  0  0
    4.5521   58.1910   73.0510 H   0  0  0  0  0  0  0  0  0  0  0  0
    4.6443   57.7794   75.4954 H   0  0  0  0  0  0  0  0  0  0  0  0
    3.2152   59.1169   77.0368 H   0  0  0  0  0  0  0  0  0  0  0  0
    1.6877   60.8361   76.1101 H   0  0  0  0  0  0  0  0  0  0  0  0
    0.2510   61.2458   74.1473 H   0  0  0  0  0  0  0  0  0  0  0  0
    1.6249   62.4880   73.9600 H   0  0  0  0  0  0  0  0  0  0  0  0
    0.5656   60.7474   71.7409 H   0  0  0  0  0  0  0  0  0  0  0  0
    0.0716   62.4441   72.0519 H   0  0  0  0  0  0  0  0  0  0  0  0
    5.1906   61.1010   70.4768 H   0  0  0  0  0  0  0  0  0  0  0  0
    5.3284   63.4484   69.6556 H   0  0  0  0  0  0  0  0  0  0  0  0
    3.4018   64.9973   69.9809 H   0  0  0  0  0  0  0  0  0  0  0  0
    1.3464   64.2010   71.1417 H   0  0  0  0  0  0  0  0  0  0  0  0
  2  1  1  0
  3  2  2  0
  4  2  1  0
  5  4  1  0
  6  5  2  0
  7  6  1  0
  8  7  2  0
  9  8  1  0
 10  9  2  0
 10  5  1  0
 11 10  1  0
 12 11  1  0
 13 12  1  0
 14 13  2  0
 14  4  1  0
 15 14  1  0
 16 15  2  0
 17 16  1  0
 18 17  2  0
 18 13  1  0
  1 19  1  0
  1 20  1  0
  6 21  1  0
  7 22  1  0
  8 23  1  0
  9 24  1  0
 11 25  1  0
 11 26  1  0
 12 27  1  0
 12 28  1  0
 15 29  1  0
 16 30  1  0
 17 31  1  0
 18 32  1  0
M  END
>  <score>  (9) 
-7.794

$$$$
