=
     RDKit          3D

 36 39  0  0  0  0  0  0  0  0999 V2000
    3.4710   68.8430   61.4190 C   0  0  0  0  0  0  0  0  0  0  0  0
    2.2000   68.5860   61.9180 C   0  0  0  0  0  0  0  0  0  0  0  0
    1.9720   68.6760   63.2950 C   0  0  0  0  0  0  0  0  0  0  0  0
    3.0060   69.0270   64.1790 C   0  0  0  0  0  0  0  0  0  0  0  0
    4.2670   69.2940   63.6440 C   0  0  0  0  0  0  0  0  0  0  0  0
    4.5080   69.1920   62.2710 C   0  0  0  0  0  0  0  0  0  0  0  0
    5.3290   69.6720   64.4210 O   0  0  0  0  0  0  0  0  0  0  0  0
    5.1350   69.8650   65.7820 C   0  0  0  0  0  0  0  0  0  0  0  0
    3.8290   69.5820   66.3980 C   0  0  0  0  0  0  0  0  0  0  0  0
    2.7900   69.1320   65.6450 C   0  0  0  0  0  0  0  0  0  0  0  0
    3.6940   69.8240   67.8420 C   0  0  0  0  0  0  0  0  0  0  0  0
    4.7270   70.2300   68.5920 C   0  0  0  0  0  0  0  0  0  0  0  0
    6.0540   70.4500   67.9810 C   0  0  0  0  0  0  0  0  0  0  0  0
    7.0240   70.7600   68.6650 O   0  0  0  0  0  0  0  0  0  0  0  0
    6.1780   70.2670   66.5210 C   0  0  0  0  0  0  0  0  0  0  0  0
    1.5080   68.7250   66.2900 C   0  0  0  0  0  0  0  0  0  0  0  0
    0.7920   69.7190   66.9880 C   0  0  0  0  0  0  0  0  0  0  0  0
   -0.3890   69.4140   67.6660 C   0  0  0  0  0  0  0  0  0  0  0  0
   -0.8660   68.1070   67.6680 C   0  0  0  0  0  0  0  0  0  0  0  0
   -0.1630   67.1120   66.9880 C   0  0  0  0  0  0  0  0  0  0  0  0
    1.0220   67.4050   66.2850 C   0  0  0  0  0  0  0  0  0  0  0  0
    1.7240   66.2810   65.5730 C   0  0  0  0  0  0  0  0  0  0  0  0
    2.8160   65.8890   66.0910 O   0  0  0  0  0  0  0  0  0  0  0  0
    1.1530   65.7940   64.5520 O   0  0  0  0  0  1  0  0  0  0  0  0
    3.7320   68.7710   60.0820 O   0  0  0  0  0  0  0  0  0  0  0  0
    1.3806   68.3142   61.2363 H   0  0  0  0  0  0  0  0  0  0  0  0
    0.9673   68.4687   63.6921 H   0  0  0  0  0  0  0  0  0  0  0  0
    5.5132   69.3872   61.8691 H   0  0  0  0  0  0  0  0  0  0  0  0
    2.7160   69.6670   68.3205 H   0  0  0  0  0  0  0  0  0  0  0  0
    4.5863   70.4007   69.6695 H   0  0  0  0  0  0  0  0  0  0  0  0
    7.9055   70.9033   68.2377 H   0  0  0  0  0  0  0  0  0  0  0  0
    7.1432   70.4641   66.0316 H   0  0  0  0  0  0  0  0  0  0  0  0
    1.1705   70.7518   66.9983 H   0  0  0  0  0  0  0  0  0  0  0  0
   -0.9407   70.2039   68.1968 H   0  0  0  0  0  0  0  0  0  0  0  0
   -1.7941   67.8590   68.2038 H   0  0  0  0  0  0  0  0  0  0  0  0
   -0.5413   66.0792   67.0011 H   0  0  0  0  0  0  0  0  0  0  0  0
  2  1  1  0
  3  2  2  0
  4  3  1  0
  5  4  1  0
  6  5  2  0
  6  1  1  0
  7  5  1  0
  8  7  1  0
  9  8  2  0
 10  4  2  0
 10  9  1  0
 11  9  1  0
 12 11  2  0
 13 12  1  0
 14 13  1  0
 15  8  1  0
 15 13  2  0
 16 10  1  0
 17 16  2  0
 18 17  1  0
 19 18  2  0
 20 19  1  0
 21 20  2  0
 21 16  1  0
 22 21  1  0
 23 22  2  0
 24 22  1  0
 25  1  2  0
  2 26  1  0
  3 27  1  0
  6 28  1  0
 11 29  1  0
 12 30  1  0
 14 31  1  0
 15 32  1  0
 17 33  1  0
 18 34  1  0
 19 35  1  0
 20 36  1  0
M  CHG  1  24  -1
M  END
>  <score>  (1) 
-11.108

$$$$
=
     RDKit          3D

 36 39  0  0  0  0  0  0  0  0999 V2000
    6.1010   70.5790   68.0550 C   0  0  0  0  0  0  0  0  0  0  0  0
    6.4970   70.2560   66.7640 C   0  0  0  0  0  0  0  0  0  0  0  0
    5.5640   69.7130   65.8750 C   0  0  0  0  0  0  0  0  0  0  0  0
    4.2320   69.4930   66.2670 C   0  0  0  0  0  0  0  0  0  0  0  0
    3.8630   69.8430   67.5660 C   0  0  0  0  0  0  0  0  0  0  0  0
    4.7920   70.3730   68.4660 C   0  0  0  0  0  0  0  0  0  0  0  0
    2.5830   69.6950   68.0310 O   0  0  0  0  0  0  0  0  0  0  0  0
    1.5980   69.2460   67.1630 C   0  0  0  0  0  0  0  0  0  0  0  0
    1.9380   68.8490   65.7870 C   0  0  0  0  0  0  0  0  0  0  0  0
    3.2210   68.9200   65.3420 C   0  0  0  0  0  0  0  0  0  0  0  0
    0.8400   68.3970   64.9210 C   0  0  0  0  0  0  0  0  0  0  0  0
   -0.4180   68.2900   65.3700 C   0  0  0  0  0  0  0  0  0  0  0  0
   -0.7440   68.6260   66.7710 C   0  0  0  0  0  0  0  0  0  0  0  0
   -1.8780   68.4730   67.2130 O   0  0  0  0  0  0  0  0  0  0  0  0
    0.3450   69.1380   67.6260 C   0  0  0  0  0  0  0  0  0  0  0  0
    3.5840   68.3990   63.9930 C   0  0  0  0  0  0  0  0  0  0  0  0
    3.6490   69.3290   62.9360 C   0  0  0  0  0  0  0  0  0  0  0  0
    3.9290   68.9200   61.6320 C   0  0  0  0  0  0  0  0  0  0  0  0
    4.1340   67.5710   61.3600 C   0  0  0  0  0  0  0  0  0  0  0  0
    4.0650   66.6370   62.3950 C   0  0  0  0  0  0  0  0  0  0  0  0
    3.8000   67.0350   63.7200 C   0  0  0  0  0  0  0  0  0  0  0  0
    3.7420   65.9730   64.7840 C   0  0  0  0  0  0  0  0  0  0  0  0
    2.6210   65.8220   65.3620 O   0  0  0  0  0  0  0  0  0  0  0  0
    4.7940   65.2930   64.9840 O   0  0  0  0  0  1  0  0  0  0  0  0
    6.9800   71.1160   68.9500 O   0  0  0  0  0  0  0  0  0  0  0  0
    7.5354   70.4257   66.4433 H   0  0  0  0  0  0  0  0  0  0  0  0
    5.8773   69.4539   64.8529 H   0  0  0  0  0  0  0  0  0  0  0  0
    4.4874   70.6249   69.4925 H   0  0  0  0  0  0  0  0  0  0  0  0
    1.0571   68.1391   63.8739 H   0  0  0  0  0  0  0  0  0  0  0  0
   -1.2134   67.9496   64.6906 H   0  0  0  0  0  0  0  0  0  0  0  0
   -2.0775   68.7038   68.1548 H   0  0  0  0  0  0  0  0  0  0  0  0
    0.1241   69.4362   68.6615 H   0  0  0  0  0  0  0  0  0  0  0  0
    3.4760   70.3955   63.1428 H   0  0  0  0  0  0  0  0  0  0  0  0
    3.9875   69.6615   60.8216 H   0  0  0  0  0  0  0  0  0  0  0  0
    4.3497   67.2417   60.3329 H   0  0  0  0  0  0  0  0  0  0  0  0
    4.2203   65.5711   62.1720 H   0  0  0  0  0  0  0  0  0  0  0  0
  2  1  1  0
  3  2  2  0
  4  3  1  0
  5  4  1  0
  6  5  2  0
  6  1  1  0
  7  5  1  0
  8  7  1  0
  9  8  2  0
 10  4  2  0
 10  9  1  0
 11  9  1  0
 12 11  2  0
 13 12  1  0
 14 13  1  0
 15  8  1  0
 15 13  2  0
 16 10  1  0
 17 16  2  0
 18 17  1  0
 19 18  2  0
 20 19  1  0
 21 20  2  0
 21 16  1  0
 22 21  1  0
 23 22  2  0
 24 22  1  0
 25  1  2  0
  2 26  1  0
  3 27  1  0
  6 28  1  0
 11 29  1  0
 12 30  1  0
 14 31  1  0
 15 32  1  0
 17 33  1  0
 18 34  1  0
 19 35  1  0
 20 36  1  0
M  CHG  1  24  -1
M  END
>  <score>  (2) 
-10.854

$$$$
=
     RDKit          3D

 36 39  0  0  0  0  0  0  0  0999 V2000
   -0.8680   68.5440   66.8910 C   0  0  0  0  0  0  0  0  0  0  0  0
   -0.5640   67.9700   65.6640 C   0  0  0  0  0  0  0  0  0  0  0  0
    0.7460   68.0430   65.1770 C   0  0  0  0  0  0  0  0  0  0  0  0
    1.7570   68.6830   65.9120 C   0  0  0  0  0  0  0  0  0  0  0  0
    1.4220   69.2360   67.1480 C   0  0  0  0  0  0  0  0  0  0  0  0
    0.1140   69.1810   67.6370 C   0  0  0  0  0  0  0  0  0  0  0  0
    2.3450   69.8530   67.9510 O   0  0  0  0  0  0  0  0  0  0  0  0
    3.6750   69.8730   67.5580 C   0  0  0  0  0  0  0  0  0  0  0  0
    4.0780   69.3170   66.2560 C   0  0  0  0  0  0  0  0  0  0  0  0
    3.1550   68.7720   65.4190 C   0  0  0  0  0  0  0  0  0  0  0  0
    5.5070   69.3610   65.9140 C   0  0  0  0  0  0  0  0  0  0  0  0
    6.4120   69.9330   66.7200 C   0  0  0  0  0  0  0  0  0  0  0  0
    5.9940   70.5480   67.9960 C   0  0  0  0  0  0  0  0  0  0  0  0
    6.8000   71.1310   68.7140 O   0  0  0  0  0  0  0  0  0  0  0  0
    4.5690   70.4530   68.3710 C   0  0  0  0  0  0  0  0  0  0  0  0
    3.5460   68.3270   64.0500 C   0  0  0  0  0  0  0  0  0  0  0  0
    3.6000   69.3100   63.0420 C   0  0  0  0  0  0  0  0  0  0  0  0
    3.9040   68.9720   61.7220 C   0  0  0  0  0  0  0  0  0  0  0  0
    4.1460   67.6440   61.3870 C   0  0  0  0  0  0  0  0  0  0  0  0
    4.0880   66.6590   62.3740 C   0  0  0  0  0  0  0  0  0  0  0  0
    3.7990   66.9840   63.7140 C   0  0  0  0  0  0  0  0  0  0  0  0
    3.7560   65.8690   64.7230 C   0  0  0  0  0  0  0  0  0  0  0  0
    2.6200   65.6270   65.2380 O   0  0  0  0  0  0  0  0  0  0  0  0
    4.8350   65.2410   64.9420 O   0  0  0  0  0  1  0  0  0  0  0  0
   -2.1310   68.4900   67.4030 O   0  0  0  0  0  0  0  0  0  0  0  0
   -1.3457   67.4624   65.0799 H   0  0  0  0  0  0  0  0  0  0  0  0
    0.9875   67.5920   64.2032 H   0  0  0  0  0  0  0  0  0  0  0  0
   -0.1354   69.6390   68.6055 H   0  0  0  0  0  0  0  0  0  0  0  0
    5.8435   68.9110   64.9683 H   0  0  0  0  0  0  0  0  0  0  0  0
    7.4729   69.9445   66.4294 H   0  0  0  0  0  0  0  0  0  0  0  0
    6.5008   71.5370   69.5659 H   0  0  0  0  0  0  0  0  0  0  0  0
    4.2352   70.8655   69.3346 H   0  0  0  0  0  0  0  0  0  0  0  0
    3.3994   70.3605   63.2992 H   0  0  0  0  0  0  0  0  0  0  0  0
    3.9520   69.7535   60.9494 H   0  0  0  0  0  0  0  0  0  0  0  0
    4.3822   67.3710   60.3479 H   0  0  0  0  0  0  0  0  0  0  0  0
    4.2713   65.6094   62.1006 H   0  0  0  0  0  0  0  0  0  0  0  0
  2  1  1  0
  3  2  2  0
  4  3  1  0
  5  4  1  0
  6  5  2  0
  6  1  1  0
  7  5  1  0
  8  7  1  0
  9  8  2  0
 10  4  2  0
 10  9  1  0
 11  9  1  0
 12 11  2  0
 13 12  1  0
 14 13  1  0
 15  8  1  0
 15 13  2  0
 16 10  1  0
 17 16  2  0
 18 17  1  0
 19 18  2  0
 20 19  1  0
 21 20  2  0
 21 16  1  0
 22 21  1  0
 23 22  2  0
 24 22  1  0
 25  1  2  0
  2 26  1  0
  3 27  1  0
  6 28  1  0
 11 29  1  0
 12 30  1  0
 14 31  1  0
 15 32  1  0
 17 33  1  0
 18 34  1  0
 19 35  1  0
 20 36  1  0
M  CHG  1  24  -1
M  END
>  <score>  (3) 
-10.834

$$$$
=
     RDKit          3D

 36 39  0  0  0  0  0  0  0  0999 V2000
    4.8130   70.4570   68.7760 C   0  0  0  0  0  0  0  0  0  0  0  0
    3.5790   70.0330   69.2530 C   0  0  0  0  0  0  0  0  0  0  0  0
    2.6380   69.5140   68.3590 C   0  0  0  0  0  0  0  0  0  0  0  0
    2.9230   69.4090   66.9870 C   0  0  0  0  0  0  0  0  0  0  0  0
    4.1770   69.8280   66.5420 C   0  0  0  0  0  0  0  0  0  0  0  0
    5.1190   70.3620   67.4270 C   0  0  0  0  0  0  0  0  0  0  0  0
    4.5590   69.7370   65.2300 O   0  0  0  0  0  0  0  0  0  0  0  0
    3.6980   69.1450   64.3160 C   0  0  0  0  0  0  0  0  0  0  0  0
    2.3580   68.7000   64.7320 C   0  0  0  0  0  0  0  0  0  0  0  0
    1.9430   68.8580   66.0170 C   0  0  0  0  0  0  0  0  0  0  0  0
    1.5080   68.0690   63.7120 C   0  0  0  0  0  0  0  0  0  0  0  0
    1.9010   67.9490   62.4370 C   0  0  0  0  0  0  0  0  0  0  0  0
    3.2210   68.4560   62.0100 C   0  0  0  0  0  0  0  0  0  0  0  0
    3.5690   68.4100   60.8340 O   0  0  0  0  0  0  0  0  0  0  0  0
    4.1020   69.0360   63.0430 C   0  0  0  0  0  0  0  0  0  0  0  0
    0.5420   68.5240   66.4050 C   0  0  0  0  0  0  0  0  0  0  0  0
   -0.4840   69.3400   65.8860 C   0  0  0  0  0  0  0  0  0  0  0  0
   -1.8180   69.1320   66.2390 C   0  0  0  0  0  0  0  0  0  0  0  0
   -2.1460   68.1130   67.1280 C   0  0  0  0  0  0  0  0  0  0  0  0
   -1.1400   67.3030   67.6550 C   0  0  0  0  0  0  0  0  0  0  0  0
    0.2100   67.4880   67.2970 C   0  0  0  0  0  0  0  0  0  0  0  0
    1.2390   66.5740   67.9040 C   0  0  0  0  0  0  0  0  0  0  0  0
    1.1230   66.3520   69.1500 O   0  0  0  0  0  0  0  0  0  0  0  0
    2.1030   66.0720   67.1230 O   0  0  0  0  0  1  0  0  0  0  0  0
    5.7590   70.9650   69.6170 O   0  0  0  0  0  0  0  0  0  0  0  0
    3.3444   70.1051   70.3253 H   0  0  0  0  0  0  0  0  0  0  0  0
    1.6590   69.1826   68.7354 H   0  0  0  0  0  0  0  0  0  0  0  0
    6.0961   70.7043   67.0554 H   0  0  0  0  0  0  0  0  0  0  0  0
    0.5200   67.6840   64.0044 H   0  0  0  0  0  0  0  0  0  0  0  0
    1.2363   67.4697   61.7032 H   0  0  0  0  0  0  0  0  0  0  0  0
    4.4578   68.7548   60.5669 H   0  0  0  0  0  0  0  0  0  0  0  0
    5.1070   69.3846   62.7629 H   0  0  0  0  0  0  0  0  0  0  0  0
   -0.2288   70.1539   65.1915 H   0  0  0  0  0  0  0  0  0  0  0  0
   -2.6071   69.7711   65.8161 H   0  0  0  0  0  0  0  0  0  0  0  0
   -3.1950   67.9468   67.4142 H   0  0  0  0  0  0  0  0  0  0  0  0
   -1.4058   66.5047   68.3635 H   0  0  0  0  0  0  0  0  0  0  0  0
  2  1  1  0
  3  2  2  0
  4  3  1  0
  5  4  1  0
  6  5  2  0
  6  1  1  0
  7  5  1  0
  8  7  1  0
  9  8  2  0
 10  4  2  0
 10  9  1  0
 11  9  1  0
 12 11  2  0
 13 12  1  0
 14 13  1  0
 15  8  1  0
 15 13  2  0
 16 10  1  0
 17 16  2  0
 18 17  1  0
 19 18  2  0
 20 19  1  0
 21 20  2  0
 21 16  1  0
 22 21  1  0
 23 22  2  0
 24 22  1  0
 25  1  2  0
  2 26  1  0
  3 27  1  0
  6 28  1  0
 11 29  1  0
 12 30  1  0
 14 31  1  0
 15 32  1  0
 17 33  1  0
 18 34  1  0
 19 35  1  0
 20 36  1  0
M  CHG  1  24  -1
M  END
>  <score>  (4) 
-9.759

$$$$
=
     RDKit          3D

 36 39  0  0  0  0  0  0  0  0999 V2000
   -3.0940   68.7100   65.7700 C   0  0  0  0  0  0  0  0  0  0  0  0
   -1.9370   69.1480   65.1400 C   0  0  0  0  0  0  0  0  0  0  0  0
   -0.6910   68.8250   65.6880 C   0  0  0  0  0  0  0  0  0  0  0  0
   -0.5930   68.0610   66.8620 C   0  0  0  0  0  0  0  0  0  0  0  0
   -1.7740   67.6230   67.4630 C   0  0  0  0  0  0  0  0  0  0  0  0
   -3.0230   67.9520   66.9310 C   0  0  0  0  0  0  0  0  0  0  0  0
   -1.7790   66.8480   68.5920 O   0  0  0  0  0  0  0  0  0  0  0  0
   -0.5700   66.4230   69.1250 C   0  0  0  0  0  0  0  0  0  0  0  0
    0.7030   66.8690   68.5390 C   0  0  0  0  0  0  0  0  0  0  0  0
    0.7170   67.7010   67.4630 C   0  0  0  0  0  0  0  0  0  0  0  0
    1.9430   66.3660   69.1480 C   0  0  0  0  0  0  0  0  0  0  0  0
    1.9310   65.5770   70.2310 C   0  0  0  0  0  0  0  0  0  0  0  0
    0.6520   65.1850   70.8560 C   0  0  0  0  0  0  0  0  0  0  0  0
    0.6270   64.5160   71.8840 O   0  0  0  0  0  0  0  0  0  0  0  0
   -0.5970   65.6380   70.2110 C   0  0  0  0  0  0  0  0  0  0  0  0
    2.0050   68.2530   66.9510 C   0  0  0  0  0  0  0  0  0  0  0  0
    2.5440   69.3670   67.6260 C   0  0  0  0  0  0  0  0  0  0  0  0
    3.7170   69.9800   67.1820 C   0  0  0  0  0  0  0  0  0  0  0  0
    4.3620   69.4970   66.0480 C   0  0  0  0  0  0  0  0  0  0  0  0
    3.8350   68.3990   65.3660 C   0  0  0  0  0  0  0  0  0  0  0  0
    2.6620   67.7590   65.8100 C   0  0  0  0  0  0  0  0  0  0  0  0
    2.1540   66.5800   65.0240 C   0  0  0  0  0  0  0  0  0  0  0  0
    1.2790   66.8350   64.1390 O   0  0  0  0  0  0  0  0  0  0  0  0
    2.6670   65.4490   65.2770 O   0  0  0  0  0  1  0  0  0  0  0  0
   -4.3270   68.9990   65.2650 O   0  0  0  0  0  0  0  0  0  0  0  0
   -1.9995   69.7441   64.2176 H   0  0  0  0  0  0  0  0  0  0  0  0
    0.2261   69.1749   65.1915 H   0  0  0  0  0  0  0  0  0  0  0  0
   -3.9437   67.6129   67.4284 H   0  0  0  0  0  0  0  0  0  0  0  0
    2.9087   66.6455   68.7016 H   0  0  0  0  0  0  0  0  0  0  0  0
    2.8799   65.2191   70.6571 H   0  0  0  0  0  0  0  0  0  0  0  0
   -0.2402   64.2626   72.2887 H   0  0  0  0  0  0  0  0  0  0  0  0
   -1.5655   65.3259   70.6289 H   0  0  0  0  0  0  0  0  0  0  0  0
    2.0321   69.7596   68.5169 H   0  0  0  0  0  0  0  0  0  0  0  0
    4.1298   70.8418   67.7269 H   0  0  0  0  0  0  0  0  0  0  0  0
    5.2839   69.9786   65.6901 H   0  0  0  0  0  0  0  0  0  0  0  0
    4.3453   68.0270   64.4654 H   0  0  0  0  0  0  0  0  0  0  0  0
  2  1  1  0
  3  2  2  0
  4  3  1  0
  5  4  1  0
  6  5  2  0
  6  1  1  0
  7  5  1  0
  8  7  1  0
  9  8  2  0
 10  4  2  0
 10  9  1  0
 11  9  1  0
 12 11  2  0
 13 12  1  0
 14 13  1  0
 15  8  1  0
 15 13  2  0
 16 10  1  0
 17 16  2  0
 18 17  1  0
 19 18  2  0
 20 19  1  0
 21 20  2  0
 21 16  1  0
 22 21  1  0
 23 22  2  0
 24 22  1  0
 25  1  2  0
  2 26  1  0
  3 27  1  0
  6 28  1  0
 11 29  1  0
 12 30  1  0
 14 31  1  0
 15 32  1  0
 17 33  1  0
 18 34  1  0
 19 35  1  0
 20 36  1  0
M  CHG  1  24  -1
M  END
>  <score>  (5) 
-9.604

$$$$
=
     RDKit          3D

 36 39  0  0  0  0  0  0  0  0999 V2000
    0.9350   66.0000   70.3670 C   0  0  0  0  0  0  0  0  0  0  0  0
    0.0900   65.8140   71.4540 C   0  0  0  0  0  0  0  0  0  0  0  0
    0.0160   64.5560   72.0600 C   0  0  0  0  0  0  0  0  0  0  0  0
    0.7870   63.4800   71.5910 C   0  0  0  0  0  0  0  0  0  0  0  0
    1.6370   63.7030   70.5070 C   0  0  0  0  0  0  0  0  0  0  0  0
    1.7070   64.9520   69.8860 C   0  0  0  0  0  0  0  0  0  0  0  0
    2.4490   62.7240   69.9980 O   0  0  0  0  0  0  0  0  0  0  0  0
    2.4830   61.4840   70.6190 C   0  0  0  0  0  0  0  0  0  0  0  0
    1.5940   61.1930   71.7550 C   0  0  0  0  0  0  0  0  0  0  0  0
    0.7300   62.1350   72.2180 C   0  0  0  0  0  0  0  0  0  0  0  0
    1.6960   59.8620   72.3710 C   0  0  0  0  0  0  0  0  0  0  0  0
    2.5200   58.9200   71.8920 C   0  0  0  0  0  0  0  0  0  0  0  0
    3.3620   59.1940   70.7100 C   0  0  0  0  0  0  0  0  0  0  0  0
    4.0740   58.3220   70.2220 O   0  0  0  0  0  0  0  0  0  0  0  0
    3.3070   60.5490   70.1260 C   0  0  0  0  0  0  0  0  0  0  0  0
   -0.2570   61.7960   73.2840 C   0  0  0  0  0  0  0  0  0  0  0  0
   -1.5220   61.3300   72.8700 C   0  0  0  0  0  0  0  0  0  0  0  0
   -2.5220   61.0410   73.7990 C   0  0  0  0  0  0  0  0  0  0  0  0
   -2.2790   61.2270   75.1560 C   0  0  0  0  0  0  0  0  0  0  0  0
   -1.0350   61.6940   75.5800 C   0  0  0  0  0  0  0  0  0  0  0  0
   -0.0080   61.9750   74.6570 C   0  0  0  0  0  0  0  0  0  0  0  0
    1.3080   62.4740   75.1880 C   0  0  0  0  0  0  0  0  0  0  0  0
    2.1780   61.5850   75.4490 O   0  0  0  0  0  0  0  0  0  0  0  0
    1.4560   63.7290   75.2880 O   0  0  0  0  0  1  0  0  0  0  0  0
    1.0390   67.2120   69.7520 O   0  0  0  0  0  0  0  0  0  0  0  0
   -0.5158   66.6495   71.8348 H   0  0  0  0  0  0  0  0  0  0  0  0
   -0.6567   64.4069   72.9175 H   0  0  0  0  0  0  0  0  0  0  0  0
    2.3697   65.1040   69.0213 H   0  0  0  0  0  0  0  0  0  0  0  0
    1.0775   59.6326   73.2513 H   0  0  0  0  0  0  0  0  0  0  0  0
    2.5696   57.9365   72.3822 H   0  0  0  0  0  0  0  0  0  0  0  0
    4.6317   58.5244   69.4294 H   0  0  0  0  0  0  0  0  0  0  0  0
    3.9538   60.7955   69.2711 H   0  0  0  0  0  0  0  0  0  0  0  0
   -1.7235   61.1922   71.7974 H   0  0  0  0  0  0  0  0  0  0  0  0
   -3.4993   60.6673   73.4595 H   0  0  0  0  0  0  0  0  0  0  0  0
   -3.0657   61.0064   75.8925 H   0  0  0  0  0  0  0  0  0  0  0  0
   -0.8524   61.8457   76.6541 H   0  0  0  0  0  0  0  0  0  0  0  0
  2  1  1  0
  3  2  2  0
  4  3  1  0
  5  4  1  0
  6  5  2  0
  6  1  1  0
  7  5  1  0
  8  7  1  0
  9  8  2  0
 10  4  2  0
 10  9  1  0
 11  9  1  0
 12 11  2  0
 13 12  1  0
 14 13  1  0
 15  8  1  0
 15 13  2  0
 16 10  1  0
 17 16  2  0
 18 17  1  0
 19 18  2  0
 20 19  1  0
 21 20  2  0
 21 16  1  0
 22 21  1  0
 23 22  2  0
 24 22  1  0
 25  1  2  0
  2 26  1  0
  3 27  1  0
  6 28  1  0
 11 29  1  0
 12 30  1  0
 14 31  1  0
 15 32  1  0
 17 33  1  0
 18 34  1  0
 19 35  1  0
 20 36  1  0
M  CHG  1  24  -1
M  END
>  <score>  (6) 
-9.597

$$$$
=
     RDKit          3D

 36 39  0  0  0  0  0  0  0  0999 V2000
   -0.3760   67.2300   68.1110 C   0  0  0  0  0  0  0  0  0  0  0  0
    0.9970   67.3360   68.2960 C   0  0  0  0  0  0  0  0  0  0  0  0
    1.8040   67.7520   67.2330 C   0  0  0  0  0  0  0  0  0  0  0  0
    1.2470   68.0690   65.9820 C   0  0  0  0  0  0  0  0  0  0  0  0
   -0.1370   67.9670   65.8330 C   0  0  0  0  0  0  0  0  0  0  0  0
   -0.9490   67.5380   66.8860 C   0  0  0  0  0  0  0  0  0  0  0  0
   -0.7740   68.2830   64.6630 O   0  0  0  0  0  0  0  0  0  0  0  0
   -0.0320   68.7880   63.6050 C   0  0  0  0  0  0  0  0  0  0  0  0
    1.4320   68.9010   63.7060 C   0  0  0  0  0  0  0  0  0  0  0  0
    2.0810   68.5160   64.8370 C   0  0  0  0  0  0  0  0  0  0  0  0
    2.1490   69.4580   62.5500 C   0  0  0  0  0  0  0  0  0  0  0  0
    1.5160   69.8010   61.4210 C   0  0  0  0  0  0  0  0  0  0  0  0
    0.0550   69.6250   61.2990 C   0  0  0  0  0  0  0  0  0  0  0  0
   -0.5300   69.8750   60.2500 O   0  0  0  0  0  0  0  0  0  0  0  0
   -0.6770   69.1230   62.4790 C   0  0  0  0  0  0  0  0  0  0  0  0
    3.5710   68.5110   64.8900 C   0  0  0  0  0  0  0  0  0  0  0  0
    4.1990   69.6000   65.5270 C   0  0  0  0  0  0  0  0  0  0  0  0
    5.5900   69.7030   65.5750 C   0  0  0  0  0  0  0  0  0  0  0  0
    6.3760   68.7240   64.9740 C   0  0  0  0  0  0  0  0  0  0  0  0
    5.7670   67.6440   64.3340 C   0  0  0  0  0  0  0  0  0  0  0  0
    4.3650   67.5170   64.2900 C   0  0  0  0  0  0  0  0  0  0  0  0
    3.7810   66.3240   63.5830 C   0  0  0  0  0  0  0  0  0  0  0  0
    4.1370   66.1630   62.3740 O   0  0  0  0  0  0  0  0  0  0  0  0
    3.0240   65.5630   64.2570 O   0  0  0  0  0  1  0  0  0  0  0  0
   -1.1970   66.8320   69.1250 O   0  0  0  0  0  0  0  0  0  0  0  0
    1.4454   67.0945   69.2710 H   0  0  0  0  0  0  0  0  0  0  0  0
    2.8915   67.8325   67.3778 H   0  0  0  0  0  0  0  0  0  0  0  0
   -2.0359   67.4451   66.7444 H   0  0  0  0  0  0  0  0  0  0  0  0
    3.2383   69.5972   62.6143 H   0  0  0  0  0  0  0  0  0  0  0  0
    2.0883   70.2167   60.5786 H   0  0  0  0  0  0  0  0  0  0  0  0
   -1.5102   69.7505   60.1880 H   0  0  0  0  0  0  0  0  0  0  0  0
   -1.7714   69.0222   62.4331 H   0  0  0  0  0  0  0  0  0  0  0  0
    3.5824   70.3820   65.9942 H   0  0  0  0  0  0  0  0  0  0  0  0
    6.0633   70.5545   66.0858 H   0  0  0  0  0  0  0  0  0  0  0  0
    7.4729   68.8014   65.0035 H   0  0  0  0  0  0  0  0  0  0  0  0
    6.3936   66.8774   63.8548 H   0  0  0  0  0  0  0  0  0  0  0  0
  2  1  1  0
  3  2  2  0
  4  3  1  0
  5  4  1  0
  6  5  2  0
  6  1  1  0
  7  5  1  0
  8  7  1  0
  9  8  2  0
 10  4  2  0
 10  9  1  0
 11  9  1  0
 12 11  2  0
 13 12  1  0
 14 13  1  0
 15  8  1  0
 15 13  2  0
 16 10  1  0
 17 16  2  0
 18 17  1  0
 19 18  2  0
 20 19  1  0
 21 20  2  0
 21 16  1  0
 22 21  1  0
 23 22  2  0
 24 22  1  0
 25  1  2  0
  2 26  1  0
  3 27  1  0
  6 28  1  0
 11 29  1  0
 12 30  1  0
 14 31  1  0
 15 32  1  0
 17 33  1  0
 18 34  1  0
 19 35  1  0
 20 36  1  0
M  CHG  1  24  -1
M  END
>  <score>  (7) 
-9.306

$$$$
=
     RDKit          3D

 36 39  0  0  0  0  0  0  0  0999 V2000
    3.2610   58.4830   71.2440 C   0  0  0  0  0  0  0  0  0  0  0  0
    2.2340   58.2490   72.1500 C   0  0  0  0  0  0  0  0  0  0  0  0
    1.4020   59.3060   72.5340 C   0  0  0  0  0  0  0  0  0  0  0  0
    1.5860   60.5980   72.0120 C   0  0  0  0  0  0  0  0  0  0  0  0
    2.6160   60.7960   71.0930 C   0  0  0  0  0  0  0  0  0  0  0  0
    3.4610   59.7490   70.7150 C   0  0  0  0  0  0  0  0  0  0  0  0
    2.8540   62.0110   70.5070 O   0  0  0  0  0  0  0  0  0  0  0  0
    2.0020   63.0710   70.7830 C   0  0  0  0  0  0  0  0  0  0  0  0
    0.9100   62.9190   71.7570 C   0  0  0  0  0  0  0  0  0  0  0  0
    0.7150   61.7370   72.4010 C   0  0  0  0  0  0  0  0  0  0  0  0
    0.0400   64.0810   71.9870 C   0  0  0  0  0  0  0  0  0  0  0  0
    0.2540   65.2570   71.3830 C   0  0  0  0  0  0  0  0  0  0  0  0
    1.3910   65.4260   70.4550 C   0  0  0  0  0  0  0  0  0  0  0  0
    1.6380   66.5130   69.9440 O   0  0  0  0  0  0  0  0  0  0  0  0
    2.2310   64.2440   70.1760 C   0  0  0  0  0  0  0  0  0  0  0  0
   -0.3090   61.6230   73.4790 C   0  0  0  0  0  0  0  0  0  0  0  0
   -1.6010   61.2020   73.1020 C   0  0  0  0  0  0  0  0  0  0  0  0
   -2.6330   61.1200   74.0370 C   0  0  0  0  0  0  0  0  0  0  0  0
   -2.3940   61.4690   75.3630 C   0  0  0  0  0  0  0  0  0  0  0  0
   -1.1220   61.8940   75.7480 C   0  0  0  0  0  0  0  0  0  0  0  0
   -0.0640   61.9670   74.8210 C   0  0  0  0  0  0  0  0  0  0  0  0
    1.2800   62.4330   75.3100 C   0  0  0  0  0  0  0  0  0  0  0  0
    2.0820   61.5230   75.6870 O   0  0  0  0  0  0  0  0  0  0  0  0
    1.5150   63.6780   75.2650 O   0  0  0  0  0  1  0  0  0  0  0  0
    4.0900   57.4770   70.8420 O   0  0  0  0  0  0  0  0  0  0  0  0
    2.0765   57.2412   72.5618 H   0  0  0  0  0  0  0  0  0  0  0  0
    0.5917   59.1233   73.2552 H   0  0  0  0  0  0  0  0  0  0  0  0
    4.2796   59.9281   70.0023 H   0  0  0  0  0  0  0  0  0  0  0  0
   -0.8121   63.9819   72.6756 H   0  0  0  0  0  0  0  0  0  0  0  0
   -0.4214   66.1028   71.5792 H   0  0  0  0  0  0  0  0  0  0  0  0
    2.4046   66.6060   69.3245 H   0  0  0  0  0  0  0  0  0  0  0  0
    3.0595   64.3276   69.4572 H   0  0  0  0  0  0  0  0  0  0  0  0
   -1.7982   60.9339   72.0536 H   0  0  0  0  0  0  0  0  0  0  0  0
   -3.6325   60.7806   73.7273 H   0  0  0  0  0  0  0  0  0  0  0  0
   -3.2045   61.4100   76.1043 H   0  0  0  0  0  0  0  0  0  0  0  0
   -0.9420   62.1775   76.7955 H   0  0  0  0  0  0  0  0  0  0  0  0
  2  1  1  0
  3  2  2  0
  4  3  1  0
  5  4  1  0
  6  5  2  0
  6  1  1  0
  7  5  1  0
  8  7  1  0
  9  8  2  0
 10  4  2  0
 10  9  1  0
 11  9  1  0
 12 11  2  0
 13 12  1  0
 14 13  1  0
 15  8  1  0
 15 13  2  0
 16 10  1  0
 17 16  2  0
 18 17  1  0
 19 18  2  0
 20 19  1  0
 21 20  2  0
 21 16  1  0
 22 21  1  0
 23 22  2  0
 24 22  1  0
 25  1  2  0
  2 26  1  0
  3 27  1  0
  6 28  1  0
 11 29  1  0
 12 30  1  0
 14 31  1  0
 15 32  1  0
 17 33  1  0
 18 34  1  0
 19 35  1  0
 20 36  1  0
M  CHG  1  24  -1
M  END
>  <score>  (8) 
-9.272

$$$$
=
     RDKit          3D

 36 39  0  0  0  0  0  0  0  0999 V2000
    3.7210   59.9600   70.7870 C   0  0  0  0  0  0  0  0  0  0  0  0
    3.7760   58.6340   71.1960 C   0  0  0  0  0  0  0  0  0  0  0  0
    2.7890   58.1370   72.0530 C   0  0  0  0  0  0  0  0  0  0  0  0
    1.7400   58.9570   72.5020 C   0  0  0  0  0  0  0  0  0  0  0  0
    1.7050   60.2800   72.0610 C   0  0  0  0  0  0  0  0  0  0  0  0
    2.6940   60.7890   71.2160 C   0  0  0  0  0  0  0  0  0  0  0  0
    0.7070   61.1470   72.4190 O   0  0  0  0  0  0  0  0  0  0  0  0
   -0.3470   60.6800   73.1940 C   0  0  0  0  0  0  0  0  0  0  0  0
   -0.3480   59.2980   73.6980 C   0  0  0  0  0  0  0  0  0  0  0  0
    0.6780   58.4530   73.4100 C   0  0  0  0  0  0  0  0  0  0  0  0
   -1.5040   58.8710   74.5000 C   0  0  0  0  0  0  0  0  0  0  0  0
   -2.4970   59.7130   74.8170 C   0  0  0  0  0  0  0  0  0  0  0  0
   -2.4590   61.1180   74.3640 C   0  0  0  0  0  0  0  0  0  0  0  0
   -3.3280   61.9170   74.6990 O   0  0  0  0  0  0  0  0  0  0  0  0
   -1.3300   61.5340   73.5080 C   0  0  0  0  0  0  0  0  0  0  0  0
    0.7360   57.0960   74.0260 C   0  0  0  0  0  0  0  0  0  0  0  0
   -0.0240   56.0770   73.4180 C   0  0  0  0  0  0  0  0  0  0  0  0
   -0.0700   54.7920   73.9590 C   0  0  0  0  0  0  0  0  0  0  0  0
    0.6340   54.5080   75.1250 C   0  0  0  0  0  0  0  0  0  0  0  0
    1.3850   55.5090   75.7420 C   0  0  0  0  0  0  0  0  0  0  0  0
    1.4550   56.8080   75.2000 C   0  0  0  0  0  0  0  0  0  0  0  0
    2.2860   57.8350   75.9200 C   0  0  0  0  0  0  0  0  0  0  0  0
    1.6970   58.4860   76.8380 O   0  0  0  0  0  0  0  0  0  0  0  0
    3.5050   57.9340   75.5850 O   0  0  0  0  0  1  0  0  0  0  0  0
    4.6620   60.4810   69.9480 O   0  0  0  0  0  0  0  0  0  0  0  0
    4.5893   57.9799   70.8487 H   0  0  0  0  0  0  0  0  0  0  0  0
    2.8345   57.0879   72.3807 H   0  0  0  0  0  0  0  0  0  0  0  0
    2.6590   61.8399   70.8928 H   0  0  0  0  0  0  0  0  0  0  0  0
   -1.5552   57.8295   74.8501 H   0  0  0  0  0  0  0  0  0  0  0  0
   -3.3458   59.3554   75.4184 H   0  0  0  0  0  0  0  0  0  0  0  0
   -3.2855   62.8550   74.3852 H   0  0  0  0  0  0  0  0  0  0  0  0
   -1.2956   62.5633   73.1214 H   0  0  0  0  0  0  0  0  0  0  0  0
   -0.5905   56.2985   72.5015 H   0  0  0  0  0  0  0  0  0  0  0  0
   -0.6607   54.0061   73.4656 H   0  0  0  0  0  0  0  0  0  0  0  0
    0.5986   53.4978   75.5589 H   0  0  0  0  0  0  0  0  0  0  0  0
    1.9324   55.2801   76.6683 H   0  0  0  0  0  0  0  0  0  0  0  0
  2  1  1  0
  3  2  2  0
  4  3  1  0
  5  4  1  0
  6  5  2  0
  6  1  1  0
  7  5  1  0
  8  7  1  0
  9  8  2  0
 10  4  2  0
 10  9  1  0
 11  9  1  0
 12 11  2  0
 13 12  1  0
 14 13  1  0
 15  8  1  0
 15 13  2  0
 16 10  1  0
 17 16  2  0
 18 17  1  0
 19 18  2  0
 20 19  1  0
 21 20  2  0
 21 16  1  0
 22 21  1  0
 23 22  2  0
 24 22  1  0
 25  1  2  0
  2 26  1  0
  3 27  1  0
  6 28  1  0
 11 29  1  0
 12 30  1  0
 14 31  1  0
 15 32  1  0
 17 33  1  0
 18 34  1  0
 19 35  1  0
 20 36  1  0
M  CHG  1  24  -1
M  END
>  <score>  (9) 
-8.878

$$$$
