=
     RDKit          3D

 64 68  0  0  0  0  0  0  0  0999 V2000
    0.0210   66.2200   70.2490 C   0  0  0  0  0  0  0  0  0  0  0  0
    0.4590   63.4590   69.9160 O   0  0  0  0  0  0  0  0  0  0  0  0
    1.3750   64.1650   70.3310 C   0  0  0  0  0  0  0  0  0  0  0  0
    1.2810   65.5380   70.4510 N   0  0  0  0  0  0  0  0  0  0  0  0
    2.7300   63.5860   70.7250 C   0  0  0  0  0  0  0  0  0  0  0  0
    2.5940   62.4410   71.6970 C   0  0  0  0  0  0  0  0  0  0  0  0
    2.1990   62.6580   72.9620 C   0  0  0  0  0  0  0  0  0  0  0  0
    2.0400   61.5950   73.9660 C   0  0  0  0  0  0  0  0  0  0  0  0
    1.6550   61.8640   75.0980 O   0  0  0  0  0  0  0  0  0  0  0  0
    2.3310   60.3060   73.5620 O   0  0  0  0  0  0  0  0  0  0  0  0
    2.7740   60.0400   72.2530 C   0  0  0  0  0  0  0  0  0  0  0  0
    2.9220   61.0600   71.3060 C   0  0  0  0  0  0  0  0  0  0  0  0
    3.3830   60.6960   70.0330 C   0  0  0  0  0  0  0  0  0  0  0  0
    3.6720   59.3590   69.7250 C   0  0  0  0  0  0  0  0  0  0  0  0
    3.5060   58.3760   70.6930 C   0  0  0  0  0  0  0  0  0  0  0  0
    3.0590   58.7050   71.9630 C   0  0  0  0  0  0  0  0  0  0  0  0
    3.7760   57.0670   70.4310 O   0  0  0  0  0  0  0  0  0  0  0  0
   -0.0970   66.8150   68.8490 C   0  0  0  0  0  0  0  0  0  0  0  0
    1.1140   67.6330   68.3850 C   0  0  0  0  0  0  0  0  0  0  0  0
    1.4470   67.5610   66.8930 C   0  0  0  0  0  0  0  0  0  0  0  0
    1.6960   68.9080   66.3590 N   0  0  0  0  0  0  0  0  0  0  0  0
    3.0810   69.1030   66.0790 C   0  0  0  0  0  0  0  0  0  0  0  0
    3.5590   68.7690   64.8050 C   0  0  0  0  0  0  0  0  0  0  0  0
    2.7320   68.1080   63.7340 C   0  0  0  0  0  0  0  0  0  0  0  0
    3.0160   68.7090   62.3540 C   0  0  0  0  0  0  0  0  0  0  0  0
    4.4960   69.0040   62.0720 C   0  0  0  0  0  0  0  0  0  0  0  0
    5.4440   68.5700   63.1870 C   0  0  0  0  0  0  0  0  0  0  0  0
    4.9070   68.9910   64.5310 C   0  0  0  0  0  0  0  0  0  0  0  0
    5.7720   69.5350   65.4120 N   0  0  0  0  0  0  0  0  0  0  0  0
    5.3100   69.8880   66.6210 C   0  0  0  0  0  0  0  0  0  0  0  0
    3.9660   69.7060   67.0190 C   0  0  0  0  0  0  0  0  0  0  0  0
    3.5900   70.1320   68.3200 C   0  0  0  0  0  0  0  0  0  0  0  0
    4.5090   70.7140   69.1910 C   0  0  0  0  0  0  0  0  0  0  0  0
    5.8240   70.8790   68.7860 C   0  0  0  0  0  0  0  0  0  0  0  0
    6.2070   70.4650   67.5100 C   0  0  0  0  0  0  0  0  0  0  0  0
   -0.7982   65.5013   70.3982 H   0  0  0  0  0  0  0  0  0  0  0  0
   -0.0338   67.0471   70.9721 H   0  0  0  0  0  0  0  0  0  0  0  0
    2.1211   66.0848   70.6880 H   0  0  0  0  0  0  0  0  0  0  0  0
    3.2386   63.2244   69.8192 H   0  0  0  0  0  0  0  0  0  0  0  0
    3.3096   64.3815   71.2161 H   0  0  0  0  0  0  0  0  0  0  0  0
    1.9813   63.6927   73.2655 H   0  0  0  0  0  0  0  0  0  0  0  0
    3.5200   61.4709   69.2644 H   0  0  0  0  0  0  0  0  0  0  0  0
    4.0290   59.0891   68.7202 H   0  0  0  0  0  0  0  0  0  0  0  0
    2.9310   57.9267   72.7297 H   0  0  0  0  0  0  0  0  0  0  0  0
    3.6500   56.3846   71.1371 H   0  0  0  0  0  0  0  0  0  0  0  0
   -0.2418   65.9879   68.1384 H   0  0  0  0  0  0  0  0  0  0  0  0
   -0.9441   67.5158   68.8847 H   0  0  0  0  0  0  0  0  0  0  0  0
    0.9230   68.6869   68.6357 H   0  0  0  0  0  0  0  0  0  0  0  0
    1.9806   67.1944   68.9013 H   0  0  0  0  0  0  0  0  0  0  0  0
    2.3458   66.9429   66.7515 H   0  0  0  0  0  0  0  0  0  0  0  0
    0.5950   67.1163   66.3578 H   0  0  0  0  0  0  0  0  0  0  0  0
    0.9657   69.6182   66.2069 H   0  0  0  0  0  0  0  0  0  0  0  0
    2.9686   67.0340   63.7116 H   0  0  0  0  0  0  0  0  0  0  0  0
    1.6697   68.2703   63.9690 H   0  0  0  0  0  0  0  0  0  0  0  0
    2.6570   68.0013   61.5922 H   0  0  0  0  0  0  0  0  0  0  0  0
    2.4964   69.6781   62.3256 H   0  0  0  0  0  0  0  0  0  0  0  0
    4.7833   68.4769   61.1503 H   0  0  0  0  0  0  0  0  0  0  0  0
    4.5896   70.0966   61.9849 H   0  0  0  0  0  0  0  0  0  0  0  0
    5.5498   67.4753   63.1664 H   0  0  0  0  0  0  0  0  0  0  0  0
    6.4216   69.0489   63.0289 H   0  0  0  0  0  0  0  0  0  0  0  0
    2.5485   69.9995   68.6483 H   0  0  0  0  0  0  0  0  0  0  0  0
    4.1929   71.0401   70.1929 H   0  0  0  0  0  0  0  0  0  0  0  0
    6.5603   71.3330   69.4655 H   0  0  0  0  0  0  0  0  0  0  0  0
    7.2532   70.6000   67.1982 H   0  0  0  0  0  0  0  0  0  0  0  0
  3  2  2  0
  4  3  1  0
  4  1  1  0
  5  3  1  0
  6  5  1  0
  7  6  2  0
  8  7  1  0
  9  8  2  0
 10  8  1  0
 11 10  1  0
 12 11  2  0
 12  6  1  0
 13 12  1  0
 14 13  2  0
 15 14  1  0
 16 15  2  0
 16 11  1  0
 17 15  1  0
 18  1  1  0
 19 18  1  0
 20 19  1  0
 21 20  1  0
 22 21  1  0
 23 22  1  0
 24 23  1  0
 25 24  1  0
 26 25  1  0
 27 26  1  0
 28 27  1  0
 28 23  2  0
 29 28  1  0
 30 29  2  0
 31 30  1  0
 31 22  2  0
 32 31  1  0
 33 32  2  0
 34 33  1  0
 35 30  1  0
 35 34  2  0
  1 36  1  0
  1 37  1  0
  4 38  1  0
  5 39  1  0
  5 40  1  0
  7 41  1  0
 13 42  1  0
 14 43  1  0
 16 44  1  0
 17 45  1  0
 18 46  1  0
 18 47  1  0
 19 48  1  0
 19 49  1  0
 20 50  1  0
 20 51  1  0
 21 52  1  0
 24 53  1  0
 24 54  1  0
 25 55  1  0
 25 56  1  0
 26 57  1  0
 26 58  1  0
 27 59  1  0
 27 60  1  0
 32 61  1  0
 33 62  1  0
 34 63  1  0
 35 64  1  0
M  END
>  <score>  (1) 
-12.953

$$$$
=
     RDKit          3D

 64 68  0  0  0  0  0  0  0  0999 V2000
    1.4830   66.4920   69.8800 C   0  0  0  0  0  0  0  0  0  0  0  0
    1.0490   66.8570   67.1220 O   0  0  0  0  0  0  0  0  0  0  0  0
    1.3440   67.8280   67.8160 C   0  0  0  0  0  0  0  0  0  0  0  0
    1.4990   67.7620   69.1870 N   0  0  0  0  0  0  0  0  0  0  0  0
    1.5390   69.2190   67.2230 C   0  0  0  0  0  0  0  0  0  0  0  0
    2.8850   69.3680   66.5590 C   0  0  0  0  0  0  0  0  0  0  0  0
    3.0600   69.0140   65.2760 C   0  0  0  0  0  0  0  0  0  0  0  0
    4.3400   69.1330   64.5600 C   0  0  0  0  0  0  0  0  0  0  0  0
    4.4210   68.8090   63.3800 O   0  0  0  0  0  0  0  0  0  0  0  0
    5.4110   69.6300   65.2740 O   0  0  0  0  0  0  0  0  0  0  0  0
    5.2760   69.9870   66.6290 C   0  0  0  0  0  0  0  0  0  0  0  0
    4.0540   69.8700   67.3010 C   0  0  0  0  0  0  0  0  0  0  0  0
    4.0240   70.2380   68.6530 C   0  0  0  0  0  0  0  0  0  0  0  0
    5.1740   70.7140   69.2980 C   0  0  0  0  0  0  0  0  0  0  0  0
    6.3670   70.8200   68.5930 C   0  0  0  0  0  0  0  0  0  0  0  0
    6.4300   70.4580   67.2560 C   0  0  0  0  0  0  0  0  0  0  0  0
    7.5040   71.2780   69.1840 O   0  0  0  0  0  0  0  0  0  0  0  0
    0.0710   66.0540   70.2550 C   0  0  0  0  0  0  0  0  0  0  0  0
   -0.1400   65.7320   71.7390 C   0  0  0  0  0  0  0  0  0  0  0  0
    0.3980   64.3830   72.2200 C   0  0  0  0  0  0  0  0  0  0  0  0
    0.2840   63.3780   71.1540 N   0  0  0  0  0  0  0  0  0  0  0  0
    1.0200   62.1980   71.4770 C   0  0  0  0  0  0  0  0  0  0  0  0
    2.3400   62.0890   71.0180 C   0  0  0  0  0  0  0  0  0  0  0  0
    3.0070   63.0840   70.1060 C   0  0  0  0  0  0  0  0  0  0  0  0
    4.4580   63.3430   70.5230 C   0  0  0  0  0  0  0  0  0  0  0  0
    5.2380   62.0930   70.9550 C   0  0  0  0  0  0  0  0  0  0  0  0
    4.4560   60.7890   70.8150 C   0  0  0  0  0  0  0  0  0  0  0  0
    3.0610   60.9470   71.3620 C   0  0  0  0  0  0  0  0  0  0  0  0
    2.5720   59.9560   72.1350 N   0  0  0  0  0  0  0  0  0  0  0  0
    1.3210   60.0750   72.6050 C   0  0  0  0  0  0  0  0  0  0  0  0
    0.4880   61.1800   72.3190 C   0  0  0  0  0  0  0  0  0  0  0  0
   -0.8130   61.2020   72.8850 C   0  0  0  0  0  0  0  0  0  0  0  0
   -1.2710   60.1680   73.7010 C   0  0  0  0  0  0  0  0  0  0  0  0
   -0.4430   59.0890   73.9650 C   0  0  0  0  0  0  0  0  0  0  0  0
    0.8390   59.0560   73.4160 C   0  0  0  0  0  0  0  0  0  0  0  0
    1.9287   65.7272   69.2270 H   0  0  0  0  0  0  0  0  0  0  0  0
    2.0568   66.6099   70.8111 H   0  0  0  0  0  0  0  0  0  0  0  0
    1.6281   68.6310   69.7247 H   0  0  0  0  0  0  0  0  0  0  0  0
    0.7526   69.3995   66.4754 H   0  0  0  0  0  0  0  0  0  0  0  0
    1.4833   69.9487   68.0443 H   0  0  0  0  0  0  0  0  0  0  0  0
    2.1957   68.6113   64.7276 H   0  0  0  0  0  0  0  0  0  0  0  0
    3.0834   70.1520   69.2168 H   0  0  0  0  0  0  0  0  0  0  0  0
    5.1323   71.0027   70.3586 H   0  0  0  0  0  0  0  0  0  0  0  0
    7.3747   70.5408   66.6986 H   0  0  0  0  0  0  0  0  0  0  0  0
    8.3417   71.3444   68.6606 H   0  0  0  0  0  0  0  0  0  0  0  0
   -0.6207   66.8642   69.9809 H   0  0  0  0  0  0  0  0  0  0  0  0
   -0.1126   65.1163   69.7100 H   0  0  0  0  0  0  0  0  0  0  0  0
    0.3542   66.5195   72.3270 H   0  0  0  0  0  0  0  0  0  0  0  0
   -1.2301   65.6807   71.8773 H   0  0  0  0  0  0  0  0  0  0  0  0
    1.4554   64.4940   72.5023 H   0  0  0  0  0  0  0  0  0  0  0  0
   -0.1914   64.0520   73.0878 H   0  0  0  0  0  0  0  0  0  0  0  0
   -0.2564   63.5079   70.2868 H   0  0  0  0  0  0  0  0  0  0  0  0
    2.9951   62.6912   69.0786 H   0  0  0  0  0  0  0  0  0  0  0  0
    2.4552   64.0335   70.1686 H   0  0  0  0  0  0  0  0  0  0  0  0
    4.9835   63.7959   69.6693 H   0  0  0  0  0  0  0  0  0  0  0  0
    4.4138   63.9997   71.4044 H   0  0  0  0  0  0  0  0  0  0  0  0
    6.1441   62.0203   70.3355 H   0  0  0  0  0  0  0  0  0  0  0  0
    5.4625   62.2141   72.0250 H   0  0  0  0  0  0  0  0  0  0  0  0
    4.3985   60.5142   69.7514 H   0  0  0  0  0  0  0  0  0  0  0  0
    4.9732   60.0020   71.3835 H   0  0  0  0  0  0  0  0  0  0  0  0
   -1.4757   62.0545   72.6752 H   0  0  0  0  0  0  0  0  0  0  0  0
   -2.2823   60.2088   74.1319 H   0  0  0  0  0  0  0  0  0  0  0  0
   -0.7939   58.2644   74.6028 H   0  0  0  0  0  0  0  0  0  0  0  0
    1.4889   58.1953   73.6324 H   0  0  0  0  0  0  0  0  0  0  0  0
  3  2  2  0
  4  3  1  0
  4  1  1  0
  5  3  1  0
  6  5  1  0
  7  6  2  0
  8  7  1  0
  9  8  2  0
 10  8  1  0
 11 10  1  0
 12 11  2  0
 12  6  1  0
 13 12  1  0
 14 13  2  0
 15 14  1  0
 16 15  2  0
 16 11  1  0
 17 15  1  0
 18  1  1  0
 19 18  1  0
 20 19  1  0
 21 20  1  0
 22 21  1  0
 23 22  1  0
 24 23  1  0
 25 24  1  0
 26 25  1  0
 27 26  1  0
 28 27  1  0
 28 23  2  0
 29 28  1  0
 30 29  2  0
 31 30  1  0
 31 22  2  0
 32 31  1  0
 33 32  2  0
 34 33  1  0
 35 30  1  0
 35 34  2  0
  1 36  1  0
  1 37  1  0
  4 38  1  0
  5 39  1  0
  5 40  1  0
  7 41  1  0
 13 42  1  0
 14 43  1  0
 16 44  1  0
 17 45  1  0
 18 46  1  0
 18 47  1  0
 19 48  1  0
 19 49  1  0
 20 50  1  0
 20 51  1  0
 21 52  1  0
 24 53  1  0
 24 54  1  0
 25 55  1  0
 25 56  1  0
 26 57  1  0
 26 58  1  0
 27 59  1  0
 27 60  1  0
 32 61  1  0
 33 62  1  0
 34 63  1  0
 35 64  1  0
M  END
>  <score>  (2) 
-12.923

$$$$
=
     RDKit          3D

 64 68  0  0  0  0  0  0  0  0999 V2000
    1.4430   66.5470   69.8340 C   0  0  0  0  0  0  0  0  0  0  0  0
    0.7470   66.8390   67.1210 O   0  0  0  0  0  0  0  0  0  0  0  0
    1.1840   67.8100   67.7350 C   0  0  0  0  0  0  0  0  0  0  0  0
    1.4770   67.7850   69.0850 N   0  0  0  0  0  0  0  0  0  0  0  0
    1.4140   69.1580   67.0620 C   0  0  0  0  0  0  0  0  0  0  0  0
    2.8810   69.4500   66.8680 C   0  0  0  0  0  0  0  0  0  0  0  0
    3.6360   69.8830   67.8900 C   0  0  0  0  0  0  0  0  0  0  0  0
    5.0720   70.1840   67.7800 C   0  0  0  0  0  0  0  0  0  0  0  0
    5.7030   70.5570   68.7620 O   0  0  0  0  0  0  0  0  0  0  0  0
    5.6520   70.0130   66.5380 O   0  0  0  0  0  0  0  0  0  0  0  0
    4.8890   69.5860   65.4350 C   0  0  0  0  0  0  0  0  0  0  0  0
    3.5240   69.3030   65.5510 C   0  0  0  0  0  0  0  0  0  0  0  0
    2.8490   68.8980   64.3910 C   0  0  0  0  0  0  0  0  0  0  0  0
    3.5230   68.7740   63.1690 C   0  0  0  0  0  0  0  0  0  0  0  0
    4.8820   69.0600   63.0980 C   0  0  0  0  0  0  0  0  0  0  0  0
    5.5760   69.4690   64.2250 C   0  0  0  0  0  0  0  0  0  0  0  0
    5.5710   68.9510   61.9290 O   0  0  0  0  0  0  0  0  0  0  0  0
    0.0190   66.1030   70.1540 C   0  0  0  0  0  0  0  0  0  0  0  0
   -0.2310   65.7220   71.6180 C   0  0  0  0  0  0  0  0  0  0  0  0
    0.4160   64.4210   72.0970 C   0  0  0  0  0  0  0  0  0  0  0  0
    0.3550   63.4010   71.0410 N   0  0  0  0  0  0  0  0  0  0  0  0
    1.0440   62.2130   71.4320 C   0  0  0  0  0  0  0  0  0  0  0  0
    2.3740   62.0470   71.0230 C   0  0  0  0  0  0  0  0  0  0  0  0
    3.1020   62.9860   70.0990 C   0  0  0  0  0  0  0  0  0  0  0  0
    4.5460   63.2180   70.5580 C   0  0  0  0  0  0  0  0  0  0  0  0
    5.2710   61.9620   71.0620 C   0  0  0  0  0  0  0  0  0  0  0  0
    4.4540   60.6780   70.9410 C   0  0  0  0  0  0  0  0  0  0  0  0
    3.0470   60.8980   71.4340 C   0  0  0  0  0  0  0  0  0  0  0  0
    2.5010   59.9510   72.2250 N   0  0  0  0  0  0  0  0  0  0  0  0
    1.2400   60.1240   72.6470 C   0  0  0  0  0  0  0  0  0  0  0  0
    0.4520   61.2430   72.2910 C   0  0  0  0  0  0  0  0  0  0  0  0
   -0.8660   61.3250   72.8110 C   0  0  0  0  0  0  0  0  0  0  0  0
   -1.3840   60.3370   73.6470 C   0  0  0  0  0  0  0  0  0  0  0  0
   -0.5990   59.2440   73.9790 C   0  0  0  0  0  0  0  0  0  0  0  0
    0.6990   59.1520   73.4760 C   0  0  0  0  0  0  0  0  0  0  0  0
    1.9338   65.7612   69.2410 H   0  0  0  0  0  0  0  0  0  0  0  0
    1.9651   66.7159   70.7873 H   0  0  0  0  0  0  0  0  0  0  0  0
    1.7236   68.6616   69.5662 H   0  0  0  0  0  0  0  0  0  0  0  0
    0.9199   69.1531   66.0792 H   0  0  0  0  0  0  0  0  0  0  0  0
    0.9956   69.9389   67.7140 H   0  0  0  0  0  0  0  0  0  0  0  0
    3.1522   70.0210   68.8682 H   0  0  0  0  0  0  0  0  0  0  0  0
    1.7732   68.6740   64.4410 H   0  0  0  0  0  0  0  0  0  0  0  0
    2.9791   68.4515   62.2689 H   0  0  0  0  0  0  0  0  0  0  0  0
    6.6504   69.6978   64.1676 H   0  0  0  0  0  0  0  0  0  0  0  0
    6.5383   69.1601   61.9032 H   0  0  0  0  0  0  0  0  0  0  0  0
   -0.6611   66.9281   69.8959 H   0  0  0  0  0  0  0  0  0  0  0  0
   -0.1562   65.1900   69.5661 H   0  0  0  0  0  0  0  0  0  0  0  0
    0.1518   66.5388   72.2475 H   0  0  0  0  0  0  0  0  0  0  0  0
   -1.3158   65.5586   71.6987 H   0  0  0  0  0  0  0  0  0  0  0  0
    1.4678   64.6128   72.3557 H   0  0  0  0  0  0  0  0  0  0  0  0
   -0.1289   64.0547   72.9796 H   0  0  0  0  0  0  0  0  0  0  0  0
   -0.1223   63.5266   70.1370 H   0  0  0  0  0  0  0  0  0  0  0  0
    3.1134   62.5546   69.0872 H   0  0  0  0  0  0  0  0  0  0  0  0
    2.5778   63.9530   70.1062 H   0  0  0  0  0  0  0  0  0  0  0  0
    5.1144   63.6233   69.7079 H   0  0  0  0  0  0  0  0  0  0  0  0
    4.4921   63.9084   71.4127 H   0  0  0  0  0  0  0  0  0  0  0  0
    6.1952   61.8393   70.4782 H   0  0  0  0  0  0  0  0  0  0  0  0
    5.4621   62.1157   72.1343 H   0  0  0  0  0  0  0  0  0  0  0  0
    4.4233   60.3667   69.8864 H   0  0  0  0  0  0  0  0  0  0  0  0
    4.9272   59.8967   71.5539 H   0  0  0  0  0  0  0  0  0  0  0  0
   -1.4940   62.1890   72.5480 H   0  0  0  0  0  0  0  0  0  0  0  0
   -2.4077   60.4241   74.0401 H   0  0  0  0  0  0  0  0  0  0  0  0
   -0.9965   58.4549   74.6343 H   0  0  0  0  0  0  0  0  0  0  0  0
    1.3135   58.2804   73.7455 H   0  0  0  0  0  0  0  0  0  0  0  0
  3  2  2  0
  4  3  1  0
  4  1  1  0
  5  3  1  0
  6  5  1  0
  7  6  2  0
  8  7  1  0
  9  8  2  0
 10  8  1  0
 11 10  1  0
 12 11  2  0
 12  6  1  0
 13 12  1  0
 14 13  2  0
 15 14  1  0
 16 15  2  0
 16 11  1  0
 17 15  1  0
 18  1  1  0
 19 18  1  0
 20 19  1  0
 21 20  1  0
 22 21  1  0
 23 22  1  0
 24 23  1  0
 25 24  1  0
 26 25  1  0
 27 26  1  0
 28 27  1  0
 28 23  2  0
 29 28  1  0
 30 29  2  0
 31 30  1  0
 31 22  2  0
 32 31  1  0
 33 32  2  0
 34 33  1  0
 35 30  1  0
 35 34  2  0
  1 36  1  0
  1 37  1  0
  4 38  1  0
  5 39  1  0
  5 40  1  0
  7 41  1  0
 13 42  1  0
 14 43  1  0
 16 44  1  0
 17 45  1  0
 18 46  1  0
 18 47  1  0
 19 48  1  0
 19 49  1  0
 20 50  1  0
 20 51  1  0
 21 52  1  0
 24 53  1  0
 24 54  1  0
 25 55  1  0
 25 56  1  0
 26 57  1  0
 26 58  1  0
 27 59  1  0
 27 60  1  0
 32 61  1  0
 33 62  1  0
 34 63  1  0
 35 64  1  0
M  END
>  <score>  (3) 
-12.503

$$$$
=
     RDKit          3D

 64 68  0  0  0  0  0  0  0  0999 V2000
    1.4300   66.4570   69.8800 C   0  0  0  0  0  0  0  0  0  0  0  0
    1.0580   66.8490   67.1170 O   0  0  0  0  0  0  0  0  0  0  0  0
    1.3220   67.8150   67.8290 C   0  0  0  0  0  0  0  0  0  0  0  0
    1.4440   67.7360   69.2020 N   0  0  0  0  0  0  0  0  0  0  0  0
    1.5100   69.2160   67.2570 C   0  0  0  0  0  0  0  0  0  0  0  0
    2.8590   69.3820   66.6010 C   0  0  0  0  0  0  0  0  0  0  0  0
    3.0470   69.0270   65.3200 C   0  0  0  0  0  0  0  0  0  0  0  0
    4.3290   69.1620   64.6120 C   0  0  0  0  0  0  0  0  0  0  0  0
    4.4230   68.8360   63.4340 O   0  0  0  0  0  0  0  0  0  0  0  0
    5.3890   69.6780   65.3310 O   0  0  0  0  0  0  0  0  0  0  0  0
    5.2390   70.0370   66.6840 C   0  0  0  0  0  0  0  0  0  0  0  0
    4.0150   69.9040   67.3480 C   0  0  0  0  0  0  0  0  0  0  0  0
    3.9710   70.2760   68.6990 C   0  0  0  0  0  0  0  0  0  0  0  0
    5.1090   70.7710   69.3500 C   0  0  0  0  0  0  0  0  0  0  0  0
    6.3050   70.8930   68.6520 C   0  0  0  0  0  0  0  0  0  0  0  0
    6.3830   70.5270   67.3170 C   0  0  0  0  0  0  0  0  0  0  0  0
    7.4320   71.3700   69.2490 O   0  0  0  0  0  0  0  0  0  0  0  0
    0.0270   66.0490   70.3170 C   0  0  0  0  0  0  0  0  0  0  0  0
   -0.0860   65.5480   71.7620 C   0  0  0  0  0  0  0  0  0  0  0  0
    0.7300   64.3020   72.1110 C   0  0  0  0  0  0  0  0  0  0  0  0
    0.0580   63.0940   71.6120 N   0  0  0  0  0  0  0  0  0  0  0  0
    0.8870   61.9420   71.7640 C   0  0  0  0  0  0  0  0  0  0  0  0
    0.5300   60.9850   72.7230 C   0  0  0  0  0  0  0  0  0  0  0  0
   -0.6110   61.1380   73.6930 C   0  0  0  0  0  0  0  0  0  0  0  0
   -1.3840   59.8260   73.8630 C   0  0  0  0  0  0  0  0  0  0  0  0
   -0.5060   58.5680   73.9410 C   0  0  0  0  0  0  0  0  0  0  0  0
    0.9940   58.8490   73.9200 C   0  0  0  0  0  0  0  0  0  0  0  0
    1.3290   59.8490   72.8440 C   0  0  0  0  0  0  0  0  0  0  0  0
    2.4080   59.6060   72.0710 N   0  0  0  0  0  0  0  0  0  0  0  0
    2.7300   60.5030   71.1280 C   0  0  0  0  0  0  0  0  0  0  0  0
    2.0040   61.6960   70.9150 C   0  0  0  0  0  0  0  0  0  0  0  0
    2.4320   62.5640   69.8760 C   0  0  0  0  0  0  0  0  0  0  0  0
    3.5380   62.2620   69.0830 C   0  0  0  0  0  0  0  0  0  0  0  0
    4.2420   61.0900   69.3110 C   0  0  0  0  0  0  0  0  0  0  0  0
    3.8310   60.2290   70.3280 C   0  0  0  0  0  0  0  0  0  0  0  0
    1.8248   65.6903   69.1971 H   0  0  0  0  0  0  0  0  0  0  0  0
    2.0507   66.5482   70.7835 H   0  0  0  0  0  0  0  0  0  0  0  0
    1.5466   68.6005   69.7524 H   0  0  0  0  0  0  0  0  0  0  0  0
    0.7257   69.4023   66.5086 H   0  0  0  0  0  0  0  0  0  0  0  0
    1.4454   69.9339   68.0879 H   0  0  0  0  0  0  0  0  0  0  0  0
    2.1918   68.6106   64.7674 H   0  0  0  0  0  0  0  0  0  0  0  0
    3.0281   70.1778   69.2570 H   0  0  0  0  0  0  0  0  0  0  0  0
    5.0561   71.0620   70.4095 H   0  0  0  0  0  0  0  0  0  0  0  0
    7.3303   70.6211   66.7658 H   0  0  0  0  0  0  0  0  0  0  0  0
    8.2719   71.4475   68.7306 H   0  0  0  0  0  0  0  0  0  0  0  0
   -0.6315   66.9233   70.2073 H   0  0  0  0  0  0  0  0  0  0  0  0
   -0.2583   65.2015   69.6765 H   0  0  0  0  0  0  0  0  0  0  0  0
    0.2428   66.3612   72.4258 H   0  0  0  0  0  0  0  0  0  0  0  0
   -1.1387   65.2558   71.8906 H   0  0  0  0  0  0  0  0  0  0  0  0
    1.7256   64.3797   71.6499 H   0  0  0  0  0  0  0  0  0  0  0  0
    0.8248   64.2320   73.2047 H   0  0  0  0  0  0  0  0  0  0  0  0
   -0.8883   63.0804   71.2054 H   0  0  0  0  0  0  0  0  0  0  0  0
   -0.2105   61.4460   74.6701 H   0  0  0  0  0  0  0  0  0  0  0  0
   -1.3018   61.8964   73.2960 H   0  0  0  0  0  0  0  0  0  0  0  0
   -1.9709   59.8921   74.7910 H   0  0  0  0  0  0  0  0  0  0  0  0
   -2.0070   59.7142   72.9634 H   0  0  0  0  0  0  0  0  0  0  0  0
   -0.7446   58.0383   74.8751 H   0  0  0  0  0  0  0  0  0  0  0  0
   -0.7282   57.9716   73.0438 H   0  0  0  0  0  0  0  0  0  0  0  0
    1.3004   59.2519   74.8966 H   0  0  0  0  0  0  0  0  0  0  0  0
    1.5287   57.9104   73.7121 H   0  0  0  0  0  0  0  0  0  0  0  0
    1.8780   63.4964   69.6926 H   0  0  0  0  0  0  0  0  0  0  0  0
    3.8497   62.9487   68.2822 H   0  0  0  0  0  0  0  0  0  0  0  0
    5.1182   60.8410   68.6944 H   0  0  0  0  0  0  0  0  0  0  0  0
    4.3977   59.3024   70.5020 H   0  0  0  0  0  0  0  0  0  0  0  0
  3  2  2  0
  4  3  1  0
  4  1  1  0
  5  3  1  0
  6  5  1  0
  7  6  2  0
  8  7  1  0
  9  8  2  0
 10  8  1  0
 11 10  1  0
 12 11  2  0
 12  6  1  0
 13 12  1  0
 14 13  2  0
 15 14  1  0
 16 15  2  0
 16 11  1  0
 17 15  1  0
 18  1  1  0
 19 18  1  0
 20 19  1  0
 21 20  1  0
 22 21  1  0
 23 22  1  0
 24 23  1  0
 25 24  1  0
 26 25  1  0
 27 26  1  0
 28 27  1  0
 28 23  2  0
 29 28  1  0
 30 29  2  0
 31 30  1  0
 31 22  2  0
 32 31  1  0
 33 32  2  0
 34 33  1  0
 35 30  1  0
 35 34  2  0
  1 36  1  0
  1 37  1  0
  4 38  1  0
  5 39  1  0
  5 40  1  0
  7 41  1  0
 13 42  1  0
 14 43  1  0
 16 44  1  0
 17 45  1  0
 18 46  1  0
 18 47  1  0
 19 48  1  0
 19 49  1  0
 20 50  1  0
 20 51  1  0
 21 52  1  0
 24 53  1  0
 24 54  1  0
 25 55  1  0
 25 56  1  0
 26 57  1  0
 26 58  1  0
 27 59  1  0
 27 60  1  0
 32 61  1  0
 33 62  1  0
 34 63  1  0
 35 64  1  0
M  END
>  <score>  (4) 
-12.383

$$$$
=
     RDKit          3D

 64 68  0  0  0  0  0  0  0  0999 V2000
    1.4170   66.2810   69.7100 C   0  0  0  0  0  0  0  0  0  0  0  0
    1.0820   67.0910   67.0350 O   0  0  0  0  0  0  0  0  0  0  0  0
    1.4010   67.9260   67.8770 C   0  0  0  0  0  0  0  0  0  0  0  0
    1.5130   67.6420   69.2250 N   0  0  0  0  0  0  0  0  0  0  0  0
    1.6770   69.3810   67.5140 C   0  0  0  0  0  0  0  0  0  0  0  0
    3.1290   69.6140   67.1770 C   0  0  0  0  0  0  0  0  0  0  0  0
    3.9910   70.0430   68.1140 C   0  0  0  0  0  0  0  0  0  0  0  0
    5.4190   70.2890   67.8640 C   0  0  0  0  0  0  0  0  0  0  0  0
    6.1520   70.6600   68.7730 O   0  0  0  0  0  0  0  0  0  0  0  0
    5.8750   70.0690   66.5790 O   0  0  0  0  0  0  0  0  0  0  0  0
    4.9980   69.6460   65.5620 C   0  0  0  0  0  0  0  0  0  0  0  0
    3.6410   69.4150   65.8110 C   0  0  0  0  0  0  0  0  0  0  0  0
    2.8470   69.0090   64.7290 C   0  0  0  0  0  0  0  0  0  0  0  0
    3.4000   68.8330   63.4530 C   0  0  0  0  0  0  0  0  0  0  0  0
    4.7550   69.0680   63.2500 C   0  0  0  0  0  0  0  0  0  0  0  0
    5.5650   69.4760   64.2970 C   0  0  0  0  0  0  0  0  0  0  0  0
    5.3280   68.9070   62.0250 O   0  0  0  0  0  0  0  0  0  0  0  0
    0.4340   66.1480   70.8690 C   0  0  0  0  0  0  0  0  0  0  0  0
   -0.2280   64.7720   71.0060 C   0  0  0  0  0  0  0  0  0  0  0  0
    0.4220   63.8040   71.9970 C   0  0  0  0  0  0  0  0  0  0  0  0
   -0.1160   62.4490   71.8160 N   0  0  0  0  0  0  0  0  0  0  0  0
    0.9210   61.4700   71.8800 C   0  0  0  0  0  0  0  0  0  0  0  0
    0.7970   60.4250   72.8050 C   0  0  0  0  0  0  0  0  0  0  0  0
   -0.3060   60.3190   73.8240 C   0  0  0  0  0  0  0  0  0  0  0  0
   -0.8090   58.8780   73.9600 C   0  0  0  0  0  0  0  0  0  0  0  0
    0.2920   57.8080   73.9440 C   0  0  0  0  0  0  0  0  0  0  0  0
    1.7090   58.3700   73.8780 C   0  0  0  0  0  0  0  0  0  0  0  0
    1.8000   59.4580   72.8400 C   0  0  0  0  0  0  0  0  0  0  0  0
    2.8670   59.4540   72.0150 N   0  0  0  0  0  0  0  0  0  0  0  0
    2.9710   60.4340   71.1040 C   0  0  0  0  0  0  0  0  0  0  0  0
    2.0230   61.4750   70.9770 C   0  0  0  0  0  0  0  0  0  0  0  0
    2.2310   62.4490   69.9660 C   0  0  0  0  0  0  0  0  0  0  0  0
    3.3350   62.3950   69.1170 C   0  0  0  0  0  0  0  0  0  0  0  0
    4.2580   61.3700   69.2610 C   0  0  0  0  0  0  0  0  0  0  0  0
    4.0640   60.4060   70.2500 C   0  0  0  0  0  0  0  0  0  0  0  0
    1.0817   65.6344   68.8857 H   0  0  0  0  0  0  0  0  0  0  0  0
    2.4108   65.9828   70.0754 H   0  0  0  0  0  0  0  0  0  0  0  0
    1.6670   68.4096   69.8943 H   0  0  0  0  0  0  0  0  0  0  0  0
    1.0623   69.6524   66.6431 H   0  0  0  0  0  0  0  0  0  0  0  0
    1.4270   70.0021   68.3867 H   0  0  0  0  0  0  0  0  0  0  0  0
    3.6055   70.2208   69.1288 H   0  0  0  0  0  0  0  0  0  0  0  0
    1.7735   68.8258   64.8839 H   0  0  0  0  0  0  0  0  0  0  0  0
    2.7641   68.5101   62.6155 H   0  0  0  0  0  0  0  0  0  0  0  0
    6.6368   69.6630   64.1348 H   0  0  0  0  0  0  0  0  0  0  0  0
    6.2952   69.0803   61.9043 H   0  0  0  0  0  0  0  0  0  0  0  0
    0.9768   66.3594   71.8021 H   0  0  0  0  0  0  0  0  0  0  0  0
   -0.3791   66.8600   70.6641 H   0  0  0  0  0  0  0  0  0  0  0  0
   -1.2685   64.9307   71.3256 H   0  0  0  0  0  0  0  0  0  0  0  0
   -0.1242   64.2964   70.0196 H   0  0  0  0  0  0  0  0  0  0  0  0
    1.5089   63.7881   71.8284 H   0  0  0  0  0  0  0  0  0  0  0  0
    0.2036   64.1411   73.0210 H   0  0  0  0  0  0  0  0  0  0  0  0
   -1.1115   62.2335   71.6629 H   0  0  0  0  0  0  0  0  0  0  0  0
    0.0743   60.6582   74.7988 H   0  0  0  0  0  0  0  0  0  0  0  0
   -1.1451   60.9472   73.4906 H   0  0  0  0  0  0  0  0  0  0  0  0
   -1.3540   58.7941   74.9118 H   0  0  0  0  0  0  0  0  0  0  0  0
   -1.4406   58.6859   73.0801 H   0  0  0  0  0  0  0  0  0  0  0  0
    0.2018   57.2064   74.8605 H   0  0  0  0  0  0  0  0  0  0  0  0
    0.1439   57.2155   73.0291 H   0  0  0  0  0  0  0  0  0  0  0  0
    1.9798   58.7841   74.8604 H   0  0  0  0  0  0  0  0  0  0  0  0
    2.3997   57.5591   73.6034 H   0  0  0  0  0  0  0  0  0  0  0  0
    1.5036   63.2660   69.8497 H   0  0  0  0  0  0  0  0  0  0  0  0
    3.4732   63.1597   68.3385 H   0  0  0  0  0  0  0  0  0  0  0  0
    5.1361   61.3177   68.6005 H   0  0  0  0  0  0  0  0  0  0  0  0
    4.8017   59.5970   70.3564 H   0  0  0  0  0  0  0  0  0  0  0  0
  3  2  2  0
  4  3  1  0
  4  1  1  0
  5  3  1  0
  6  5  1  0
  7  6  2  0
  8  7  1  0
  9  8  2  0
 10  8  1  0
 11 10  1  0
 12 11  2  0
 12  6  1  0
 13 12  1  0
 14 13  2  0
 15 14  1  0
 16 15  2  0
 16 11  1  0
 17 15  1  0
 18  1  1  0
 19 18  1  0
 20 19  1  0
 21 20  1  0
 22 21  1  0
 23 22  1  0
 24 23  1  0
 25 24  1  0
 26 25  1  0
 27 26  1  0
 28 27  1  0
 28 23  2  0
 29 28  1  0
 30 29  2  0
 31 30  1  0
 31 22  2  0
 32 31  1  0
 33 32  2  0
 34 33  1  0
 35 30  1  0
 35 34  2  0
  1 36  1  0
  1 37  1  0
  4 38  1  0
  5 39  1  0
  5 40  1  0
  7 41  1  0
 13 42  1  0
 14 43  1  0
 16 44  1  0
 17 45  1  0
 18 46  1  0
 18 47  1  0
 19 48  1  0
 19 49  1  0
 20 50  1  0
 20 51  1  0
 21 52  1  0
 24 53  1  0
 24 54  1  0
 25 55  1  0
 25 56  1  0
 26 57  1  0
 26 58  1  0
 27 59  1  0
 27 60  1  0
 32 61  1  0
 33 62  1  0
 34 63  1  0
 35 64  1  0
M  END
>  <score>  (5) 
-11.579

$$$$
=
     RDKit          3D

 64 68  0  0  0  0  0  0  0  0999 V2000
    0.9100   65.3610   69.5040 C   0  0  0  0  0  0  0  0  0  0  0  0
    0.2130   63.0290   70.9180 O   0  0  0  0  0  0  0  0  0  0  0  0
    1.3580   63.4650   71.0100 C   0  0  0  0  0  0  0  0  0  0  0  0
    1.8150   64.5540   70.2940 N   0  0  0  0  0  0  0  0  0  0  0  0
    2.4040   62.8150   71.9100 C   0  0  0  0  0  0  0  0  0  0  0  0
    2.5970   61.3540   71.5870 C   0  0  0  0  0  0  0  0  0  0  0  0
    3.2400   60.9770   70.4700 C   0  0  0  0  0  0  0  0  0  0  0  0
    3.4700   59.5750   70.0900 C   0  0  0  0  0  0  0  0  0  0  0  0
    4.0840   59.3050   69.0640 O   0  0  0  0  0  0  0  0  0  0  0  0
    2.9790   58.6080   70.9440 O   0  0  0  0  0  0  0  0  0  0  0  0
    2.2770   58.9610   72.1120 C   0  0  0  0  0  0  0  0  0  0  0  0
    2.0620   60.2980   72.4640 C   0  0  0  0  0  0  0  0  0  0  0  0
    1.3400   60.5480   73.6390 C   0  0  0  0  0  0  0  0  0  0  0  0
    0.8620   59.4950   74.4310 C   0  0  0  0  0  0  0  0  0  0  0  0
    1.1020   58.1800   74.0480 C   0  0  0  0  0  0  0  0  0  0  0  0
    1.8070   57.9010   72.8880 C   0  0  0  0  0  0  0  0  0  0  0  0
    0.6550   57.1300   74.7910 O   0  0  0  0  0  0  0  0  0  0  0  0
    0.8270   66.7990   70.0070 C   0  0  0  0  0  0  0  0  0  0  0  0
    1.5380   67.8380   69.1310 C   0  0  0  0  0  0  0  0  0  0  0  0
    1.2810   67.7430   67.6250 C   0  0  0  0  0  0  0  0  0  0  0  0
    1.4860   69.0510   66.9880 N   0  0  0  0  0  0  0  0  0  0  0  0
    2.7600   69.1190   66.3490 C   0  0  0  0  0  0  0  0  0  0  0  0
    2.8610   68.7070   65.0130 C   0  0  0  0  0  0  0  0  0  0  0  0
    1.7350   68.0860   64.2290 C   0  0  0  0  0  0  0  0  0  0  0  0
    1.6910   68.6190   62.7930 C   0  0  0  0  0  0  0  0  0  0  0  0
    3.0630   68.7790   62.1230 C   0  0  0  0  0  0  0  0  0  0  0  0
    4.2350   68.3000   62.9750 C   0  0  0  0  0  0  0  0  0  0  0  0
    4.1030   68.8050   64.3880 C   0  0  0  0  0  0  0  0  0  0  0  0
    5.2060   69.3000   64.9870 N   0  0  0  0  0  0  0  0  0  0  0  0
    5.1050   69.7280   66.2540 C   0  0  0  0  0  0  0  0  0  0  0  0
    3.9030   69.6730   66.9960 C   0  0  0  0  0  0  0  0  0  0  0  0
    3.9130   70.1690   68.3250 C   0  0  0  0  0  0  0  0  0  0  0  0
    5.0700   70.6960   68.8980 C   0  0  0  0  0  0  0  0  0  0  0  0
    6.2410   70.7360   68.1580 C   0  0  0  0  0  0  0  0  0  0  0  0
    6.2440   70.2530   66.8490 C   0  0  0  0  0  0  0  0  0  0  0  0
    1.2624   65.3705   68.4620 H   0  0  0  0  0  0  0  0  0  0  0  0
   -0.0936   64.9179   69.5847 H   0  0  0  0  0  0  0  0  0  0  0  0
    2.8158   64.7956   70.3227 H   0  0  0  0  0  0  0  0  0  0  0  0
    3.3624   63.3381   71.7761 H   0  0  0  0  0  0  0  0  0  0  0  0
    2.0521   62.8899   72.9495 H   0  0  0  0  0  0  0  0  0  0  0  0
    3.6170   61.7634   69.7995 H   0  0  0  0  0  0  0  0  0  0  0  0
    1.1455   61.5867   73.9443 H   0  0  0  0  0  0  0  0  0  0  0  0
    0.2993   59.7080   75.3518 H   0  0  0  0  0  0  0  0  0  0  0  0
    1.9931   56.8604   72.5839 H   0  0  0  0  0  0  0  0  0  0  0  0
    0.8384   56.2024   74.4977 H   0  0  0  0  0  0  0  0  0  0  0  0
   -0.2355   67.0768   70.0704 H   0  0  0  0  0  0  0  0  0  0  0  0
    1.3430   66.8135   70.9784 H   0  0  0  0  0  0  0  0  0  0  0  0
    1.2148   68.8353   69.4642 H   0  0  0  0  0  0  0  0  0  0  0  0
    2.6132   67.6438   69.2586 H   0  0  0  0  0  0  0  0  0  0  0  0
    1.9749   67.0122   67.1841 H   0  0  0  0  0  0  0  0  0  0  0  0
    0.2414   67.4240   67.4594 H   0  0  0  0  0  0  0  0  0  0  0  0
    0.7996   69.8188   67.0010 H   0  0  0  0  0  0  0  0  0  0  0  0
    1.8772   66.9956   64.2015 H   0  0  0  0  0  0  0  0  0  0  0  0
    0.7866   68.3444   64.7227 H   0  0  0  0  0  0  0  0  0  0  0  0
    1.0937   67.9215   62.1873 H   0  0  0  0  0  0  0  0  0  0  0  0
    1.2551   69.6273   62.8503 H   0  0  0  0  0  0  0  0  0  0  0  0
    3.0589   68.2021   61.1864 H   0  0  0  0  0  0  0  0  0  0  0  0
    3.2110   69.8566   61.9592 H   0  0  0  0  0  0  0  0  0  0  0  0
    4.2500   67.2001   62.9839 H   0  0  0  0  0  0  0  0  0  0  0  0
    5.1694   68.6893   62.5446 H   0  0  0  0  0  0  0  0  0  0  0  0
    2.9866   70.1372   68.9173 H   0  0  0  0  0  0  0  0  0  0  0  0
    5.0533   71.0771   69.9297 H   0  0  0  0  0  0  0  0  0  0  0  0
    7.1615   71.1456   68.5994 H   0  0  0  0  0  0  0  0  0  0  0  0
    7.1786   70.2894   66.2701 H   0  0  0  0  0  0  0  0  0  0  0  0
  3  2  2  0
  4  3  1  0
  4  1  1  0
  5  3  1  0
  6  5  1  0
  7  6  2  0
  8  7  1  0
  9  8  2  0
 10  8  1  0
 11 10  1  0
 12 11  2  0
 12  6  1  0
 13 12  1  0
 14 13  2  0
 15 14  1  0
 16 15  2  0
 16 11  1  0
 17 15  1  0
 18  1  1  0
 19 18  1  0
 20 19  1  0
 21 20  1  0
 22 21  1  0
 23 22  1  0
 24 23  1  0
 25 24  1  0
 26 25  1  0
 27 26  1  0
 28 27  1  0
 28 23  2  0
 29 28  1  0
 30 29  2  0
 31 30  1  0
 31 22  2  0
 32 31  1  0
 33 32  2  0
 34 33  1  0
 35 30  1  0
 35 34  2  0
  1 36  1  0
  1 37  1  0
  4 38  1  0
  5 39  1  0
  5 40  1  0
  7 41  1  0
 13 42  1  0
 14 43  1  0
 16 44  1  0
 17 45  1  0
 18 46  1  0
 18 47  1  0
 19 48  1  0
 19 49  1  0
 20 50  1  0
 20 51  1  0
 21 52  1  0
 24 53  1  0
 24 54  1  0
 25 55  1  0
 25 56  1  0
 26 57  1  0
 26 58  1  0
 27 59  1  0
 27 60  1  0
 32 61  1  0
 33 62  1  0
 34 63  1  0
 35 64  1  0
M  END
>  <score>  (6) 
-11.238

$$$$
=
     RDKit          3D

 64 68  0  0  0  0  0  0  0  0999 V2000
    1.1560   67.0210   69.5260 C   0  0  0  0  0  0  0  0  0  0  0  0
    0.6810   69.4530   68.1890 O   0  0  0  0  0  0  0  0  0  0  0  0
    0.9520   68.4510   67.5320 C   0  0  0  0  0  0  0  0  0  0  0  0
    1.2770   67.2350   68.1000 N   0  0  0  0  0  0  0  0  0  0  0  0
    0.9860   68.4660   66.0070 C   0  0  0  0  0  0  0  0  0  0  0  0
    2.3610   68.7860   65.4760 C   0  0  0  0  0  0  0  0  0  0  0  0
    3.3660   69.0890   66.3120 C   0  0  0  0  0  0  0  0  0  0  0  0
    4.7330   69.4080   65.8700 C   0  0  0  0  0  0  0  0  0  0  0  0
    5.6070   69.6560   66.6920 O   0  0  0  0  0  0  0  0  0  0  0  0
    4.9670   69.3970   64.5090 O   0  0  0  0  0  0  0  0  0  0  0  0
    3.9330   69.1100   63.5980 C   0  0  0  0  0  0  0  0  0  0  0  0
    2.6370   68.8080   64.0290 C   0  0  0  0  0  0  0  0  0  0  0  0
    1.6730   68.5500   63.0440 C   0  0  0  0  0  0  0  0  0  0  0  0
    2.0060   68.5840   61.6830 C   0  0  0  0  0  0  0  0  0  0  0  0
    3.3070   68.8830   61.2970 C   0  0  0  0  0  0  0  0  0  0  0  0
    4.2810   69.1490   62.2470 C   0  0  0  0  0  0  0  0  0  0  0  0
    3.6680   68.9240   59.9840 O   0  0  0  0  0  0  0  0  0  0  0  0
    0.0550   66.0240   69.8710 C   0  0  0  0  0  0  0  0  0  0  0  0
    0.4320   64.9740   70.9230 C   0  0  0  0  0  0  0  0  0  0  0  0
    1.3140   63.8200   70.4410 C   0  0  0  0  0  0  0  0  0  0  0  0
    2.4490   63.6280   71.3540 N   0  0  0  0  0  0  0  0  0  0  0  0
    2.3610   62.3730   72.0290 C   0  0  0  0  0  0  0  0  0  0  0  0
    1.7970   62.3420   73.3110 C   0  0  0  0  0  0  0  0  0  0  0  0
    1.3740   63.5630   74.0830 C   0  0  0  0  0  0  0  0  0  0  0  0
    0.0480   63.3340   74.8150 C   0  0  0  0  0  0  0  0  0  0  0  0
   -0.0940   61.9540   75.4740 C   0  0  0  0  0  0  0  0  0  0  0  0
    1.1480   61.0740   75.3560 C   0  0  0  0  0  0  0  0  0  0  0  0
    1.6890   61.1080   73.9500 C   0  0  0  0  0  0  0  0  0  0  0  0
    2.0690   59.9390   73.3930 N   0  0  0  0  0  0  0  0  0  0  0  0
    2.5770   59.9620   72.1520 C   0  0  0  0  0  0  0  0  0  0  0  0
    2.7450   61.1510   71.4060 C   0  0  0  0  0  0  0  0  0  0  0  0
    3.2800   61.0480   70.0950 C   0  0  0  0  0  0  0  0  0  0  0  0
    3.6370   59.8170   69.5470 C   0  0  0  0  0  0  0  0  0  0  0  0
    3.4710   58.6620   70.2960 C   0  0  0  0  0  0  0  0  0  0  0  0
    2.9450   58.7490   71.5850 C   0  0  0  0  0  0  0  0  0  0  0  0
    2.1133   66.6370   69.9084 H   0  0  0  0  0  0  0  0  0  0  0  0
    0.8949   67.9838   69.9895 H   0  0  0  0  0  0  0  0  0  0  0  0
    1.6109   66.4680   67.4990 H   0  0  0  0  0  0  0  0  0  0  0  0
    0.6832   67.4760   65.6352 H   0  0  0  0  0  0  0  0  0  0  0  0
    0.2965   69.2494   65.6593 H   0  0  0  0  0  0  0  0  0  0  0  0
    3.1556   69.0996   67.3916 H   0  0  0  0  0  0  0  0  0  0  0  0
    0.6405   68.3176   63.3438 H   0  0  0  0  0  0  0  0  0  0  0  0
    1.2395   68.3745   60.9224 H   0  0  0  0  0  0  0  0  0  0  0  0
    5.3105   69.3867   61.9412 H   0  0  0  0  0  0  0  0  0  0  0  0
    4.6013   69.1394   59.7337 H   0  0  0  0  0  0  0  0  0  0  0  0
   -0.8098   66.5891   70.2488 H   0  0  0  0  0  0  0  0  0  0  0  0
   -0.1544   65.4677   68.9454 H   0  0  0  0  0  0  0  0  0  0  0  0
    0.9672   65.4891   71.7343 H   0  0  0  0  0  0  0  0  0  0  0  0
   -0.5174   64.5104   71.2292 H   0  0  0  0  0  0  0  0  0  0  0  0
    0.7165   62.8971   70.4061 H   0  0  0  0  0  0  0  0  0  0  0  0
    1.6985   64.0590   69.4385 H   0  0  0  0  0  0  0  0  0  0  0  0
    3.2090   64.3098   71.4894 H   0  0  0  0  0  0  0  0  0  0  0  0
    2.1523   63.8063   74.8213 H   0  0  0  0  0  0  0  0  0  0  0  0
    1.2365   64.3904   73.3713 H   0  0  0  0  0  0  0  0  0  0  0  0
   -0.0463   64.0992   75.5996 H   0  0  0  0  0  0  0  0  0  0  0  0
   -0.7417   63.3953   74.0517 H   0  0  0  0  0  0  0  0  0  0  0  0
   -0.3116   62.1024   76.5420 H   0  0  0  0  0  0  0  0  0  0  0  0
   -0.9034   61.4316   74.9430 H   0  0  0  0  0  0  0  0  0  0  0  0
    1.9189   61.4416   76.0492 H   0  0  0  0  0  0  0  0  0  0  0  0
    0.8746   60.0384   75.6064 H   0  0  0  0  0  0  0  0  0  0  0  0
    3.4161   61.9614   69.4974 H   0  0  0  0  0  0  0  0  0  0  0  0
    4.0474   59.7623   68.5279 H   0  0  0  0  0  0  0  0  0  0  0  0
    3.7520   57.6845   69.8769 H   0  0  0  0  0  0  0  0  0  0  0  0
    2.8176   57.8270   72.1712 H   0  0  0  0  0  0  0  0  0  0  0  0
  3  2  2  0
  4  3  1  0
  4  1  1  0
  5  3  1  0
  6  5  1  0
  7  6  2  0
  8  7  1  0
  9  8  2  0
 10  8  1  0
 11 10  1  0
 12 11  2  0
 12  6  1  0
 13 12  1  0
 14 13  2  0
 15 14  1  0
 16 15  2  0
 16 11  1  0
 17 15  1  0
 18  1  1  0
 19 18  1  0
 20 19  1  0
 21 20  1  0
 22 21  1  0
 23 22  1  0
 24 23  1  0
 25 24  1  0
 26 25  1  0
 27 26  1  0
 28 27  1  0
 28 23  2  0
 29 28  1  0
 30 29  2  0
 31 30  1  0
 31 22  2  0
 32 31  1  0
 33 32  2  0
 34 33  1  0
 35 30  1  0
 35 34  2  0
  1 36  1  0
  1 37  1  0
  4 38  1  0
  5 39  1  0
  5 40  1  0
  7 41  1  0
 13 42  1  0
 14 43  1  0
 16 44  1  0
 17 45  1  0
 18 46  1  0
 18 47  1  0
 19 48  1  0
 19 49  1  0
 20 50  1  0
 20 51  1  0
 21 52  1  0
 24 53  1  0
 24 54  1  0
 25 55  1  0
 25 56  1  0
 26 57  1  0
 26 58  1  0
 27 59  1  0
 27 60  1  0
 32 61  1  0
 33 62  1  0
 34 63  1  0
 35 64  1  0
M  END
>  <score>  (7) 
-10.893

$$$$
=
     RDKit          3D

 64 68  0  0  0  0  0  0  0  0999 V2000
    5.5060   70.1370   66.2780 C   0  0  0  0  0  0  0  0  0  0  0  0
    2.8370   69.2690   66.0480 O   0  0  0  0  0  0  0  0  0  0  0  0
    3.2540   69.6410   67.1420 C   0  0  0  0  0  0  0  0  0  0  0  0
    4.5650   70.0090   67.3710 N   0  0  0  0  0  0  0  0  0  0  0  0
    2.3560   69.7020   68.3730 C   0  0  0  0  0  0  0  0  0  0  0  0
    1.4780   68.4810   68.4940 C   0  0  0  0  0  0  0  0  0  0  0  0
    1.8960   67.3990   69.1690 C   0  0  0  0  0  0  0  0  0  0  0  0
    1.0970   66.1750   69.3320 C   0  0  0  0  0  0  0  0  0  0  0  0
    1.5350   65.2310   69.9810 O   0  0  0  0  0  0  0  0  0  0  0  0
   -0.1490   66.1580   68.7380 O   0  0  0  0  0  0  0  0  0  0  0  0
   -0.6140   67.2630   67.9990 C   0  0  0  0  0  0  0  0  0  0  0  0
    0.1550   68.4220   67.8490 C   0  0  0  0  0  0  0  0  0  0  0  0
   -0.3890   69.4620   67.0820 C   0  0  0  0  0  0  0  0  0  0  0  0
   -1.6590   69.3420   66.5000 C   0  0  0  0  0  0  0  0  0  0  0  0
   -2.3920   68.1750   66.6770 C   0  0  0  0  0  0  0  0  0  0  0  0
   -1.8790   67.1260   67.4240 C   0  0  0  0  0  0  0  0  0  0  0  0
   -3.6280   68.0210   66.1280 O   0  0  0  0  0  0  0  0  0  0  0  0
    5.3720   69.0050   65.2640 C   0  0  0  0  0  0  0  0  0  0  0  0
    5.3040   69.4490   63.7980 C   0  0  0  0  0  0  0  0  0  0  0  0
    5.8050   68.4400   62.7620 C   0  0  0  0  0  0  0  0  0  0  0  0
    4.6790   67.9000   61.9880 N   0  0  0  0  0  0  0  0  0  0  0  0
    3.6400   67.4320   62.8470 C   0  0  0  0  0  0  0  0  0  0  0  0
    2.4350   68.1460   62.8880 C   0  0  0  0  0  0  0  0  0  0  0  0
    2.1930   69.4470   62.1710 C   0  0  0  0  0  0  0  0  0  0  0  0
    0.7940   69.4940   61.5490 C   0  0  0  0  0  0  0  0  0  0  0  0
   -0.3220   68.9140   62.4290 C   0  0  0  0  0  0  0  0  0  0  0  0
    0.1420   68.4640   63.8120 C   0  0  0  0  0  0  0  0  0  0  0  0
    1.4150   67.6640   63.7080 C   0  0  0  0  0  0  0  0  0  0  0  0
    1.5120   66.5360   64.4410 N   0  0  0  0  0  0  0  0  0  0  0  0
    2.6510   65.8310   64.3750 C   0  0  0  0  0  0  0  0  0  0  0  0
    3.7590   66.2210   63.5880 C   0  0  0  0  0  0  0  0  0  0  0  0
    4.9070   65.3860   63.5880 C   0  0  0  0  0  0  0  0  0  0  0  0
    4.9560   64.2140   64.3400 C   0  0  0  0  0  0  0  0  0  0  0  0
    3.8630   63.8510   65.1120 C   0  0  0  0  0  0  0  0  0  0  0  0
    2.7280   64.6620   65.1200 C   0  0  0  0  0  0  0  0  0  0  0  0
    5.3258   71.0938   65.7661 H   0  0  0  0  0  0  0  0  0  0  0  0
    6.5208   70.0926   66.7002 H   0  0  0  0  0  0  0  0  0  0  0  0
    4.8784   70.1953   68.3343 H   0  0  0  0  0  0  0  0  0  0  0  0
    2.9881   69.7751   69.2703 H   0  0  0  0  0  0  0  0  0  0  0  0
    1.7027   70.5814   68.2734 H   0  0  0  0  0  0  0  0  0  0  0  0
    2.8954   67.4294   69.6275 H   0  0  0  0  0  0  0  0  0  0  0  0
    0.1893   70.3860   66.9346 H   0  0  0  0  0  0  0  0  0  0  0  0
   -2.0737   70.1692   65.9052 H   0  0  0  0  0  0  0  0  0  0  0  0
   -2.4587   66.2013   67.5615 H   0  0  0  0  0  0  0  0  0  0  0  0
   -4.1307   67.1798   66.2685 H   0  0  0  0  0  0  0  0  0  0  0  0
    6.2409   68.3403   65.3787 H   0  0  0  0  0  0  0  0  0  0  0  0
    4.4121   68.5129   65.4796 H   0  0  0  0  0  0  0  0  0  0  0  0
    4.2533   69.6759   63.5645 H   0  0  0  0  0  0  0  0  0  0  0  0
    5.9819   70.3117   63.7202 H   0  0  0  0  0  0  0  0  0  0  0  0
    6.5077   68.9400   62.0792 H   0  0  0  0  0  0  0  0  0  0  0  0
    6.3091   67.6130   63.2835 H   0  0  0  0  0  0  0  0  0  0  0  0
    4.6441   67.8639   60.9592 H   0  0  0  0  0  0  0  0  0  0  0  0
    2.2929   70.2745   62.8888 H   0  0  0  0  0  0  0  0  0  0  0  0
    2.9332   69.5381   61.3624 H   0  0  0  0  0  0  0  0  0  0  0  0
    0.5498   70.5450   61.3352 H   0  0  0  0  0  0  0  0  0  0  0  0
    0.8351   68.8656   60.6471 H   0  0  0  0  0  0  0  0  0  0  0  0
   -1.0953   69.6855   62.5586 H   0  0  0  0  0  0  0  0  0  0  0  0
   -0.6970   68.0172   61.9140 H   0  0  0  0  0  0  0  0  0  0  0  0
    0.3214   69.3496   64.4394 H   0  0  0  0  0  0  0  0  0  0  0  0
   -0.6389   67.8326   64.2609 H   0  0  0  0  0  0  0  0  0  0  0  0
    5.7783   65.6709   62.9801 H   0  0  0  0  0  0  0  0  0  0  0  0
    5.8555   63.5812   64.3213 H   0  0  0  0  0  0  0  0  0  0  0  0
    3.8906   62.9305   65.7136 H   0  0  0  0  0  0  0  0  0  0  0  0
    1.8664   64.3658   65.7363 H   0  0  0  0  0  0  0  0  0  0  0  0
  3  2  2  0
  4  3  1  0
  4  1  1  0
  5  3  1  0
  6  5  1  0
  7  6  2  0
  8  7  1  0
  9  8  2  0
 10  8  1  0
 11 10  1  0
 12 11  2  0
 12  6  1  0
 13 12  1  0
 14 13  2  0
 15 14  1  0
 16 15  2  0
 16 11  1  0
 17 15  1  0
 18  1  1  0
 19 18  1  0
 20 19  1  0
 21 20  1  0
 22 21  1  0
 23 22  1  0
 24 23  1  0
 25 24  1  0
 26 25  1  0
 27 26  1  0
 28 27  1  0
 28 23  2  0
 29 28  1  0
 30 29  2  0
 31 30  1  0
 31 22  2  0
 32 31  1  0
 33 32  2  0
 34 33  1  0
 35 30  1  0
 35 34  2  0
  1 36  1  0
  1 37  1  0
  4 38  1  0
  5 39  1  0
  5 40  1  0
  7 41  1  0
 13 42  1  0
 14 43  1  0
 16 44  1  0
 17 45  1  0
 18 46  1  0
 18 47  1  0
 19 48  1  0
 19 49  1  0
 20 50  1  0
 20 51  1  0
 21 52  1  0
 24 53  1  0
 24 54  1  0
 25 55  1  0
 25 56  1  0
 26 57  1  0
 26 58  1  0
 27 59  1  0
 27 60  1  0
 32 61  1  0
 33 62  1  0
 34 63  1  0
 35 64  1  0
M  END
>  <score>  (8) 
-10.852

$$$$
=
     RDKit          3D

 64 68  0  0  0  0  0  0  0  0999 V2000
   -0.6320   66.1680   68.7740 C   0  0  0  0  0  0  0  0  0  0  0  0
   -2.0710   67.3650   66.6720 O   0  0  0  0  0  0  0  0  0  0  0  0
   -1.0110   67.8690   67.0340 C   0  0  0  0  0  0  0  0  0  0  0  0
   -0.2750   67.4010   68.1060 N   0  0  0  0  0  0  0  0  0  0  0  0
   -0.4180   69.0940   66.3470 C   0  0  0  0  0  0  0  0  0  0  0  0
    1.0310   68.8910   65.9810 C   0  0  0  0  0  0  0  0  0  0  0  0
    1.3710   68.2010   64.8800 C   0  0  0  0  0  0  0  0  0  0  0  0
    2.7600   67.9640   64.4570 C   0  0  0  0  0  0  0  0  0  0  0  0
    2.9950   67.3410   63.4280 O   0  0  0  0  0  0  0  0  0  0  0  0
    3.7550   68.4830   65.2610 O   0  0  0  0  0  0  0  0  0  0  0  0
    3.4410   69.1900   66.4380 C   0  0  0  0  0  0  0  0  0  0  0  0
    2.1160   69.4090   66.8310 C   0  0  0  0  0  0  0  0  0  0  0  0
    1.9070   70.1120   68.0260 C   0  0  0  0  0  0  0  0  0  0  0  0
    2.9870   70.5820   68.7860 C   0  0  0  0  0  0  0  0  0  0  0  0
    4.2870   70.3470   68.3570 C   0  0  0  0  0  0  0  0  0  0  0  0
    4.5270   69.6500   67.1830 C   0  0  0  0  0  0  0  0  0  0  0  0
    5.3620   70.7890   69.0670 O   0  0  0  0  0  0  0  0  0  0  0  0
    0.0390   66.0330   70.1370 C   0  0  0  0  0  0  0  0  0  0  0  0
    1.5720   66.0550   70.1140 C   0  0  0  0  0  0  0  0  0  0  0  0
    2.2690   64.6970   70.2140 C   0  0  0  0  0  0  0  0  0  0  0  0
    1.2850   63.6340   70.4610 N   0  0  0  0  0  0  0  0  0  0  0  0
    1.6410   62.8570   71.6040 C   0  0  0  0  0  0  0  0  0  0  0  0
    2.5060   61.7680   71.4280 C   0  0  0  0  0  0  0  0  0  0  0  0
    3.0040   61.2860   70.0920 C   0  0  0  0  0  0  0  0  0  0  0  0
    4.4850   60.8970   70.1510 C   0  0  0  0  0  0  0  0  0  0  0  0
    4.9000   60.1340   71.4170 C   0  0  0  0  0  0  0  0  0  0  0  0
    3.7450   59.8200   72.3650 C   0  0  0  0  0  0  0  0  0  0  0  0
    2.8720   61.0330   72.5540 C   0  0  0  0  0  0  0  0  0  0  0  0
    2.4640   61.3270   73.8060 N   0  0  0  0  0  0  0  0  0  0  0  0
    1.6640   62.3890   73.9820 C   0  0  0  0  0  0  0  0  0  0  0  0
    1.2180   63.2070   72.9180 C   0  0  0  0  0  0  0  0  0  0  0  0
    0.3850   64.3130   73.2280 C   0  0  0  0  0  0  0  0  0  0  0  0
    0.0070   64.5970   74.5400 C   0  0  0  0  0  0  0  0  0  0  0  0
    0.4490   63.7810   75.5700 C   0  0  0  0  0  0  0  0  0  0  0  0
    1.2690   62.6900   75.2780 C   0  0  0  0  0  0  0  0  0  0  0  0
   -1.7229   66.1439   68.9128 H   0  0  0  0  0  0  0  0  0  0  0  0
   -0.2885   65.3331   68.1456 H   0  0  0  0  0  0  0  0  0  0  0  0
    0.5402   67.9381   68.4345 H   0  0  0  0  0  0  0  0  0  0  0  0
   -0.9904   69.2989   65.4303 H   0  0  0  0  0  0  0  0  0  0  0  0
   -0.4757   69.9385   67.0495 H   0  0  0  0  0  0  0  0  0  0  0  0
    0.5631   67.7887   64.2577 H   0  0  0  0  0  0  0  0  0  0  0  0
    0.8796   70.2976   68.3725 H   0  0  0  0  0  0  0  0  0  0  0  0
    2.8055   71.1352   69.7193 H   0  0  0  0  0  0  0  0  0  0  0  0
    5.5567   69.4628   66.8445 H   0  0  0  0  0  0  0  0  0  0  0  0
    6.2790   70.6088   68.7403 H   0  0  0  0  0  0  0  0  0  0  0  0
   -0.3040   66.8652   70.7693 H   0  0  0  0  0  0  0  0  0  0  0  0
   -0.2467   65.0428   70.5216 H   0  0  0  0  0  0  0  0  0  0  0  0
    1.8867   66.5250   69.1705 H   0  0  0  0  0  0  0  0  0  0  0  0
    1.8718   66.6067   71.0171 H   0  0  0  0  0  0  0  0  0  0  0  0
    2.7972   64.4903   69.2715 H   0  0  0  0  0  0  0  0  0  0  0  0
    2.9839   64.7231   71.0496 H   0  0  0  0  0  0  0  0  0  0  0  0
    0.4473   63.4709   69.8843 H   0  0  0  0  0  0  0  0  0  0  0  0
    2.4158   60.4079   69.7870 H   0  0  0  0  0  0  0  0  0  0  0  0
    2.8912   62.1047   69.3661 H   0  0  0  0  0  0  0  0  0  0  0  0
    4.7071   60.2622   69.2805 H   0  0  0  0  0  0  0  0  0  0  0  0
    5.0528   61.8391   70.1570 H   0  0  0  0  0  0  0  0  0  0  0  0
    5.3633   59.1843   71.1112 H   0  0  0  0  0  0  0  0  0  0  0  0
    5.5923   60.7879   71.9677 H   0  0  0  0  0  0  0  0  0  0  0  0
    3.1422   59.0026   71.9426 H   0  0  0  0  0  0  0  0  0  0  0  0
    4.1568   59.5229   73.3408 H   0  0  0  0  0  0  0  0  0  0  0  0
    0.0289   64.9618   72.4142 H   0  0  0  0  0  0  0  0  0  0  0  0
   -0.6371   65.4621   74.7561 H   0  0  0  0  0  0  0  0  0  0  0  0
    0.1558   63.9917   76.6090 H   0  0  0  0  0  0  0  0  0  0  0  0
    1.6135   62.0477   76.1019 H   0  0  0  0  0  0  0  0  0  0  0  0
  3  2  2  0
  4  3  1  0
  4  1  1  0
  5  3  1  0
  6  5  1  0
  7  6  2  0
  8  7  1  0
  9  8  2  0
 10  8  1  0
 11 10  1  0
 12 11  2  0
 12  6  1  0
 13 12  1  0
 14 13  2  0
 15 14  1  0
 16 15  2  0
 16 11  1  0
 17 15  1  0
 18  1  1  0
 19 18  1  0
 20 19  1  0
 21 20  1  0
 22 21  1  0
 23 22  1  0
 24 23  1  0
 25 24  1  0
 26 25  1  0
 27 26  1  0
 28 27  1  0
 28 23  2  0
 29 28  1  0
 30 29  2  0
 31 30  1  0
 31 22  2  0
 32 31  1  0
 33 32  2  0
 34 33  1  0
 35 30  1  0
 35 34  2  0
  1 36  1  0
  1 37  1  0
  4 38  1  0
  5 39  1  0
  5 40  1  0
  7 41  1  0
 13 42  1  0
 14 43  1  0
 16 44  1  0
 17 45  1  0
 18 46  1  0
 18 47  1  0
 19 48  1  0
 19 49  1  0
 20 50  1  0
 20 51  1  0
 21 52  1  0
 24 53  1  0
 24 54  1  0
 25 55  1  0
 25 56  1  0
 26 57  1  0
 26 58  1  0
 27 59  1  0
 27 60  1  0
 32 61  1  0
 33 62  1  0
 34 63  1  0
 35 64  1  0
M  END
>  <score>  (9) 
-10.456

$$$$
