=
     RDKit          3D

 46 48  0  0  0  0  0  0  0  0999 V2000
    1.6560   60.3300   72.7000 C   0  0  2  0  0  0  0  0  0  0  0  0
    2.7230   60.7310   71.6190 C   0  0  0  0  0  0  0  0  0  0  0  0
    3.7090   60.2110   71.1580 O   0  0  0  0  0  0  0  0  0  0  0  0
    2.1190   61.9280   71.4890 N   0  0  0  0  0  0  0  0  0  0  0  0
    0.9010   61.5900   72.1870 C   0  0  2  0  0  0  0  0  0  0  0  0
    0.5380   62.9290   73.3440 S   0  0  0  0  0  0  0  0  0  0  0  0
    0.3820   64.1820   72.0270 C   0  0  0  0  0  0  0  0  0  0  0  0
    1.4560   64.1260   70.9570 C   0  0  0  0  0  0  0  0  0  0  0  0
    2.2580   63.0540   70.7390 C   0  0  0  0  0  0  0  0  0  0  0  0
    1.4260   59.8070   75.1400 C   0  0  0  0  0  0  0  0  0  0  0  0
    0.3330   59.2670   75.0220 O   0  0  0  0  0  0  0  0  0  0  0  0
    2.1690   60.3100   74.0980 N   0  0  0  0  0  0  0  0  0  0  0  0
    1.9730   60.9180   77.3070 N   0  0  0  0  0  0  0  0  0  0  0  0
    2.1010   59.8900   76.5140 C   0  0  0  0  0  0  0  0  0  0  0  0
    2.9570   58.7900   76.9750 C   0  0  0  0  0  0  0  0  0  0  0  0
    3.1220   58.4040   78.2960 C   0  0  0  0  0  0  0  0  0  0  0  0
    4.2050   57.0820   78.4070 S   0  0  0  0  0  0  0  0  0  0  0  0
    4.3740   57.0900   76.7020 C   0  0  0  0  0  0  0  0  0  0  0  0
    3.6940   58.0130   76.0750 N   0  0  0  0  0  0  0  0  0  0  0  0
    5.1740   56.2140   76.0700 N   0  0  0  0  0  0  0  0  0  0  0  0
    1.0600   62.9900   77.6840 C   0  0  0  0  0  0  0  0  0  0  0  0
    1.1250   61.8970   76.7750 O   0  0  0  0  0  0  0  0  0  0  0  0
    3.3270   63.1210   69.6070 C   0  0  0  0  0  0  0  0  0  0  0  0
    2.9270   62.7360   68.4740 O   0  0  0  0  0  0  0  0  0  0  0  0
    4.4830   63.4310   70.0160 O   0  0  0  0  0  1  0  0  0  0  0  0
    1.5440   65.3670   70.0910 C   0  0  0  0  0  0  0  0  0  0  0  0
    0.2600   65.6970   69.5140 O   0  0  0  0  0  0  0  0  0  0  0  0
    0.0550   66.7870   68.7400 C   0  0  0  0  0  0  0  0  0  0  0  0
    0.9220   67.6570   68.6580 O   0  0  0  0  0  0  0  0  0  0  0  0
   -1.2300   66.8920   67.9810 C   0  0  0  0  0  0  0  0  0  0  0  0
    1.1558   59.3531   72.7735 H   0  0  0  0  0  0  0  0  0  0  0  0
   -0.0999   61.4431   71.7550 H   0  0  0  0  0  0  0  0  0  0  0  0
   -0.5938   64.0436   71.5384 H   0  0  0  0  0  0  0  0  0  0  0  0
    0.4897   65.1598   72.5192 H   0  0  0  0  0  0  0  0  0  0  0  0
    3.1091   60.6844   74.2902 H   0  0  0  0  0  0  0  0  0  0  0  0
    2.6260   58.8808   79.1543 H   0  0  0  0  0  0  0  0  0  0  0  0
    5.2576   56.2405   75.0437 H   0  0  0  0  0  0  0  0  0  0  0  0
    5.7035   55.5163   76.6120 H   0  0  0  0  0  0  0  0  0  0  0  0
    1.0826   62.6103   78.7162 H   0  0  0  0  0  0  0  0  0  0  0  0
    1.9202   63.6556   77.5192 H   0  0  0  0  0  0  0  0  0  0  0  0
    0.1270   63.5489   77.5192 H   0  0  0  0  0  0  0  0  0  0  0  0
    1.8872   66.2107   70.7077 H   0  0  0  0  0  0  0  0  0  0  0  0
    2.2521   65.1698   69.2726 H   0  0  0  0  0  0  0  0  0  0  0  0
   -2.0693   66.9606   68.6887 H   0  0  0  0  0  0  0  0  0  0  0  0
   -1.2096   67.7915   67.3481 H   0  0  0  0  0  0  0  0  0  0  0  0
   -1.3559   66.0011   67.3481 H   0  0  0  0  0  0  0  0  0  0  0  0
  2  1  1  0
  3  2  2  0
  4  2  1  0
  5  4  1  0
  5  1  1  0
  6  5  1  0
  7  6  1  0
  8  7  1  0
  9  8  2  0
  9  4  1  0
 11 10  2  0
 12 10  1  0
 12  1  1  0
 14 10  1  0
 14 13  2  0
 15 14  1  0
 16 15  2  0
 17 16  1  0
 18 17  1  0
 19 18  2  0
 19 15  1  0
 20 18  1  0
 22 21  1  0
 22 13  1  0
 23  9  1  0
 24 23  2  0
 25 23  1  0
 26  8  1  0
 27 26  1  0
 28 27  1  0
 29 28  2  0
 30 28  1  0
  1 31  1  6
  5 32  1  6
  7 33  1  0
  7 34  1  0
 12 35  1  0
 16 36  1  0
 20 37  1  0
 20 38  1  0
 21 39  1  0
 21 40  1  0
 21 41  1  0
 26 42  1  0
 26 43  1  0
 30 44  1  0
 30 45  1  0
 30 46  1  0
M  CHG  1  25  -1
M  END
>  <score>  (1) 
-7.008

$$$$
=
     RDKit          3D

 46 48  0  0  0  0  0  0  0  0999 V2000
    0.5900   68.1400   68.4400 C   0  0  2  0  0  0  0  0  0  0  0  0
    0.6410   67.5890   66.9700 C   0  0  0  0  0  0  0  0  0  0  0  0
   -0.0050   66.7930   66.3330 O   0  0  0  0  0  0  0  0  0  0  0  0
    1.7530   68.3160   66.7520 N   0  0  0  0  0  0  0  0  0  0  0  0
    1.6520   69.1530   67.9240 C   0  0  2  0  0  0  0  0  0  0  0  0
    3.2780   69.2010   68.7100 S   0  0  0  0  0  0  0  0  0  0  0  0
    4.0880   69.9530   67.2600 C   0  0  0  0  0  0  0  0  0  0  0  0
    3.7050   69.3460   65.9230 C   0  0  0  0  0  0  0  0  0  0  0  0
    2.6050   68.5760   65.7240 C   0  0  0  0  0  0  0  0  0  0  0  0
    0.2080   66.0450   69.7620 C   0  0  0  0  0  0  0  0  0  0  0  0
   -0.8000   65.7240   69.1460 O   0  0  0  0  0  0  0  0  0  0  0  0
    0.9780   67.1510   69.4840 N   0  0  0  0  0  0  0  0  0  0  0  0
    0.3020   65.2030   72.1090 N   0  0  0  0  0  0  0  0  0  0  0  0
    0.7450   65.1490   70.8840 C   0  0  0  0  0  0  0  0  0  0  0  0
    1.8260   64.1950   70.6030 C   0  0  0  0  0  0  0  0  0  0  0  0
    2.4580   63.4020   71.5480 C   0  0  0  0  0  0  0  0  0  0  0  0
    3.6610   62.4310   70.8110 S   0  0  0  0  0  0  0  0  0  0  0  0
    3.2590   63.1050   69.2880 C   0  0  0  0  0  0  0  0  0  0  0  0
    2.3100   64.0030   69.3040 N   0  0  0  0  0  0  0  0  0  0  0  0
    3.9020   62.7410   68.1660 N   0  0  0  0  0  0  0  0  0  0  0  0
   -0.9540   66.3550   73.6480 C   0  0  0  0  0  0  0  0  0  0  0  0
   -0.7340   66.1330   72.2590 O   0  0  0  0  0  0  0  0  0  0  0  0
    2.3220   68.0070   64.3010 C   0  0  0  0  0  0  0  0  0  0  0  0
    1.7710   68.8170   63.5050 O   0  0  0  0  0  0  0  0  0  0  0  0
    2.5680   66.7720   64.1860 O   0  0  0  0  0  1  0  0  0  0  0  0
    4.6330   69.7070   64.7800 C   0  0  0  0  0  0  0  0  0  0  0  0
    5.3360   68.5440   64.2880 O   0  0  0  0  0  0  0  0  0  0  0  0
    5.4110   68.2260   62.9750 C   0  0  0  0  0  0  0  0  0  0  0  0
    5.5480   67.0510   62.6330 O   0  0  0  0  0  0  0  0  0  0  0  0
    5.3010   69.3250   61.9670 C   0  0  0  0  0  0  0  0  0  0  0  0
   -0.3153   68.4774   68.9658 H   0  0  0  0  0  0  0  0  0  0  0  0
    1.3969   70.2223   67.9640 H   0  0  0  0  0  0  0  0  0  0  0  0
    3.8243   71.0207   67.2378 H   0  0  0  0  0  0  0  0  0  0  0  0
    5.1659   69.7709   67.3820 H   0  0  0  0  0  0  0  0  0  0  0  0
    1.8488   67.2994   70.0137 H   0  0  0  0  0  0  0  0  0  0  0  0
    2.2200   63.3970   72.6219 H   0  0  0  0  0  0  0  0  0  0  0  0
    3.6405   63.1618   67.2630 H   0  0  0  0  0  0  0  0  0  0  0  0
    4.6565   62.0411   68.2088 H   0  0  0  0  0  0  0  0  0  0  0  0
   -0.2985   65.6935   74.2334 H   0  0  0  0  0  0  0  0  0  0  0  0
   -0.7288   67.4037   73.8919 H   0  0  0  0  0  0  0  0  0  0  0  0
   -2.0047   66.1393   73.8919 H   0  0  0  0  0  0  0  0  0  0  0  0
    4.0408   70.1410   63.9609 H   0  0  0  0  0  0  0  0  0  0  0  0
    5.3744   70.4307   65.1496 H   0  0  0  0  0  0  0  0  0  0  0  0
    5.2044   70.2901   62.4859 H   0  0  0  0  0  0  0  0  0  0  0  0
    6.2025   69.3361   61.3368 H   0  0  0  0  0  0  0  0  0  0  0  0
    4.4152   69.1572   61.3368 H   0  0  0  0  0  0  0  0  0  0  0  0
  2  1  1  0
  3  2  2  0
  4  2  1  0
  5  4  1  0
  5  1  1  0
  6  5  1  0
  7  6  1  0
  8  7  1  0
  9  8  2  0
  9  4  1  0
 11 10  2  0
 12 10  1  0
 12  1  1  0
 14 10  1  0
 14 13  2  0
 15 14  1  0
 16 15  2  0
 17 16  1  0
 18 17  1  0
 19 18  2  0
 19 15  1  0
 20 18  1  0
 22 21  1  0
 22 13  1  0
 23  9  1  0
 24 23  2  0
 25 23  1  0
 26  8  1  0
 27 26  1  0
 28 27  1  0
 29 28  2  0
 30 28  1  0
  1 31  1  1
  5 32  1  6
  7 33  1  0
  7 34  1  0
 12 35  1  0
 16 36  1  0
 20 37  1  0
 20 38  1  0
 21 39  1  0
 21 40  1  0
 21 41  1  0
 26 42  1  0
 26 43  1  0
 30 44  1  0
 30 45  1  0
 30 46  1  0
M  CHG  1  25  -1
M  END
>  <score>  (2) 
-6.935

$$$$
=
     RDKit          3D

 46 48  0  0  0  0  0  0  0  0999 V2000
    0.0080   63.0510   74.0080 C   0  0  2  0  0  0  0  0  0  0  0  0
    0.3930   63.4730   72.5450 C   0  0  0  0  0  0  0  0  0  0  0  0
   -0.1360   64.1220   71.6760 O   0  0  0  0  0  0  0  0  0  0  0  0
    1.5170   62.7380   72.6440 N   0  0  0  0  0  0  0  0  0  0  0  0
    1.4790   62.5460   74.0740 C   0  0  2  0  0  0  0  0  0  0  0  0
    1.7930   60.7980   74.4050 S   0  0  0  0  0  0  0  0  0  0  0  0
    3.4530   60.8320   73.6490 C   0  0  0  0  0  0  0  0  0  0  0  0
    3.5410   61.5720   72.3270 C   0  0  0  0  0  0  0  0  0  0  0  0
    2.6090   62.4540   71.8850 C   0  0  0  0  0  0  0  0  0  0  0  0
   -1.7400   61.7860   75.2830 C   0  0  0  0  0  0  0  0  0  0  0  0
   -1.5220   62.3600   76.3420 O   0  0  0  0  0  0  0  0  0  0  0  0
   -1.1030   62.0640   74.0950 N   0  0  0  0  0  0  0  0  0  0  0  0
   -2.5980   59.4450   75.1760 N   0  0  0  0  0  0  0  0  0  0  0  0
   -2.8440   60.7260   75.1910 C   0  0  0  0  0  0  0  0  0  0  0  0
   -4.2480   61.1410   75.0880 C   0  0  0  0  0  0  0  0  0  0  0  0
   -4.7760   62.3130   75.6070 C   0  0  0  0  0  0  0  0  0  0  0  0
   -6.4520   62.4180   75.2710 S   0  0  0  0  0  0  0  0  0  0  0  0
   -6.3720   60.9200   74.4470 C   0  0  0  0  0  0  0  0  0  0  0  0
   -5.1950   60.3530   74.4240 N   0  0  0  0  0  0  0  0  0  0  0  0
   -7.4610   60.3650   73.8880 N   0  0  0  0  0  0  0  0  0  0  0  0
   -0.8950   58.1260   74.3800 C   0  0  0  0  0  0  0  0  0  0  0  0
   -1.2310   59.1640   75.2940 O   0  0  0  0  0  0  0  0  0  0  0  0
    2.8140   63.1490   70.5050 C   0  0  0  0  0  0  0  0  0  0  0  0
    3.3980   64.2660   70.5540 O   0  0  0  0  0  0  0  0  0  0  0  0
    2.2490   62.5520   69.5440 O   0  0  0  0  0  1  0  0  0  0  0  0
    4.8000   61.2890   71.5320 C   0  0  0  0  0  0  0  0  0  0  0  0
    4.9030   59.8890   71.1920 O   0  0  0  0  0  0  0  0  0  0  0  0
    3.9780   59.2380   70.4490 C   0  0  0  0  0  0  0  0  0  0  0  0
    3.7910   59.5610   69.2770 O   0  0  0  0  0  0  0  0  0  0  0  0
    3.2170   58.1150   71.0810 C   0  0  0  0  0  0  0  0  0  0  0  0
   -0.4041   63.7183   74.7793 H   0  0  0  0  0  0  0  0  0  0  0  0
    2.1398   62.9986   74.8280 H   0  0  0  0  0  0  0  0  0  0  0  0
    4.1408   61.3166   74.3577 H   0  0  0  0  0  0  0  0  0  0  0  0
    3.7139   59.7854   73.4332 H   0  0  0  0  0  0  0  0  0  0  0  0
   -1.4041   61.5743   73.2403 H   0  0  0  0  0  0  0  0  0  0  0  0
   -4.1988   63.0702   76.1580 H   0  0  0  0  0  0  0  0  0  0  0  0
   -7.3849   59.4623   73.3978 H   0  0  0  0  0  0  0  0  0  0  0  0
   -8.3716   60.8423   73.9498 H   0  0  0  0  0  0  0  0  0  0  0  0
   -0.6033   57.2250   74.9395 H   0  0  0  0  0  0  0  0  0  0  0  0
   -1.7655   57.8988   73.7470 H   0  0  0  0  0  0  0  0  0  0  0  0
   -0.0565   58.4520   73.7470 H   0  0  0  0  0  0  0  0  0  0  0  0
    4.7797   61.8820   70.6058 H   0  0  0  0  0  0  0  0  0  0  0  0
    5.6688   61.5609   72.1495 H   0  0  0  0  0  0  0  0  0  0  0  0
    3.2762   58.2024   72.1759 H   0  0  0  0  0  0  0  0  0  0  0  0
    2.1642   58.1624   70.7658 H   0  0  0  0  0  0  0  0  0  0  0  0
    3.6512   57.1547   70.7658 H   0  0  0  0  0  0  0  0  0  0  0  0
  2  1  1  0
  3  2  2  0
  4  2  1  0
  5  4  1  0
  5  1  1  0
  6  5  1  0
  7  6  1  0
  8  7  1  0
  9  8  2  0
  9  4  1  0
 11 10  2  0
 12 10  1  0
 12  1  1  0
 14 10  1  0
 14 13  2  0
 15 14  1  0
 16 15  2  0
 17 16  1  0
 18 17  1  0
 19 18  2  0
 19 15  1  0
 20 18  1  0
 22 21  1  0
 22 13  1  0
 23  9  1  0
 24 23  2  0
 25 23  1  0
 26  8  1  0
 27 26  1  0
 28 27  1  0
 29 28  2  0
 30 28  1  0
  1 31  1  1
  5 32  1  1
  7 33  1  0
  7 34  1  0
 12 35  1  0
 16 36  1  0
 20 37  1  0
 20 38  1  0
 21 39  1  0
 21 40  1  0
 21 41  1  0
 26 42  1  0
 26 43  1  0
 30 44  1  0
 30 45  1  0
 30 46  1  0
M  CHG  1  25  -1
M  END
>  <score>  (3) 
-6.923

$$$$
=
     RDKit          3D

 46 48  0  0  0  0  0  0  0  0999 V2000
    0.7930   67.8720   68.3110 C   0  0  2  0  0  0  0  0  0  0  0  0
    1.3870   67.4850   66.9100 C   0  0  0  0  0  0  0  0  0  0  0  0
    1.1270   66.6570   66.0710 O   0  0  0  0  0  0  0  0  0  0  0  0
    2.3520   68.4090   67.0800 N   0  0  0  0  0  0  0  0  0  0  0  0
    1.7460   69.0970   68.1940 C   0  0  2  0  0  0  0  0  0  0  0  0
    3.0200   69.3430   69.4510 S   0  0  0  0  0  0  0  0  0  0  0  0
    4.0670   70.3620   68.3580 C   0  0  0  0  0  0  0  0  0  0  0  0
    4.2260   69.8320   66.9450 C   0  0  0  0  0  0  0  0  0  0  0  0
    3.4060   68.9090   66.3810 C   0  0  0  0  0  0  0  0  0  0  0  0
    0.1210   65.8770   69.6700 C   0  0  0  0  0  0  0  0  0  0  0  0
   -0.9110   65.6750   69.0430 O   0  0  0  0  0  0  0  0  0  0  0  0
    1.0330   66.8670   69.3830 N   0  0  0  0  0  0  0  0  0  0  0  0
    0.1080   65.1140   72.0470 N   0  0  0  0  0  0  0  0  0  0  0  0
    0.5200   64.9450   70.8200 C   0  0  0  0  0  0  0  0  0  0  0  0
    1.4260   63.8180   70.5670 C   0  0  0  0  0  0  0  0  0  0  0  0
    1.4700   62.6460   71.3050 C   0  0  0  0  0  0  0  0  0  0  0  0
    2.6650   61.5870   70.6840 S   0  0  0  0  0  0  0  0  0  0  0  0
    3.0370   62.7350   69.4690 C   0  0  0  0  0  0  0  0  0  0  0  0
    2.3440   63.8430   69.5120 N   0  0  0  0  0  0  0  0  0  0  0  0
    3.9950   62.5080   68.5550 N   0  0  0  0  0  0  0  0  0  0  0  0
   -1.0180   66.4330   73.5510 C   0  0  0  0  0  0  0  0  0  0  0  0
   -0.7600   66.2070   72.1700 O   0  0  0  0  0  0  0  0  0  0  0  0
    3.6770   68.4430   64.9190 C   0  0  0  0  0  0  0  0  0  0  0  0
    3.0290   69.0670   64.0340 O   0  0  0  0  0  0  0  0  0  0  0  0
    4.4120   67.4170   64.8380 O   0  0  0  0  0  1  0  0  0  0  0  0
    5.3670   70.4560   66.1650 C   0  0  0  0  0  0  0  0  0  0  0  0
    6.5630   70.5500   66.9700 O   0  0  0  0  0  0  0  0  0  0  0  0
    6.7080   71.4380   67.9800 C   0  0  0  0  0  0  0  0  0  0  0  0
    6.1520   72.5340   67.9210 O   0  0  0  0  0  0  0  0  0  0  0  0
    7.5350   71.0440   69.1640 C   0  0  0  0  0  0  0  0  0  0  0  0
   -0.2755   67.9967   68.5406 H   0  0  0  0  0  0  0  0  0  0  0  0
    1.2906   70.0983   68.1950 H   0  0  0  0  0  0  0  0  0  0  0  0
    3.6215   71.3659   68.2977 H   0  0  0  0  0  0  0  0  0  0  0  0
    5.0728   70.3563   68.8033 H   0  0  0  0  0  0  0  0  0  0  0  0
    1.9072   66.9140   69.9257 H   0  0  0  0  0  0  0  0  0  0  0  0
    0.8268   62.4260   72.1698 H   0  0  0  0  0  0  0  0  0  0  0  0
    4.1981   63.2161   67.8351 H   0  0  0  0  0  0  0  0  0  0  0  0
    4.5264   61.6259   68.5741 H   0  0  0  0  0  0  0  0  0  0  0  0
   -0.3274   65.8280   74.1568 H   0  0  0  0  0  0  0  0  0  0  0  0
   -0.8712   67.4984   73.7819 H   0  0  0  0  0  0  0  0  0  0  0  0
   -2.0548   66.1472   73.7819 H   0  0  0  0  0  0  0  0  0  0  0  0
    5.5778   69.8364   65.2809 H   0  0  0  0  0  0  0  0  0  0  0  0
    5.0688   71.4717   65.8660 H   0  0  0  0  0  0  0  0  0  0  0  0
    6.9971   71.3003   70.0886 H   0  0  0  0  0  0  0  0  0  0  0  0
    7.7215   69.9603   69.1367 H   0  0  0  0  0  0  0  0  0  0  0  0
    8.4941   71.5819   69.1367 H   0  0  0  0  0  0  0  0  0  0  0  0
  2  1  1  0
  3  2  2  0
  4  2  1  0
  5  4  1  0
  5  1  1  0
  6  5  1  0
  7  6  1  0
  8  7  1  0
  9  8  2  0
  9  4  1  0
 11 10  2  0
 12 10  1  0
 12  1  1  0
 14 10  1  0
 14 13  2  0
 15 14  1  0
 16 15  2  0
 17 16  1  0
 18 17  1  0
 19 18  2  0
 19 15  1  0
 20 18  1  0
 22 21  1  0
 22 13  1  0
 23  9  1  0
 24 23  2  0
 25 23  1  0
 26  8  1  0
 27 26  1  0
 28 27  1  0
 29 28  2  0
 30 28  1  0
  1 31  1  6
  5 32  1  6
  7 33  1  0
  7 34  1  0
 12 35  1  0
 16 36  1  0
 20 37  1  0
 20 38  1  0
 21 39  1  0
 21 40  1  0
 21 41  1  0
 26 42  1  0
 26 43  1  0
 30 44  1  0
 30 45  1  0
 30 46  1  0
M  CHG  1  25  -1
M  END
>  <score>  (4) 
-6.901

$$$$
=
     RDKit          3D

 46 48  0  0  0  0  0  0  0  0999 V2000
    0.1380   63.4460   74.2900 C   0  0  2  0  0  0  0  0  0  0  0  0
    0.4740   63.8720   72.8170 C   0  0  0  0  0  0  0  0  0  0  0  0
   -0.0200   64.6200   72.0090 O   0  0  0  0  0  0  0  0  0  0  0  0
    1.4940   62.9910   72.8110 N   0  0  0  0  0  0  0  0  0  0  0  0
    1.5270   62.7480   74.2340 C   0  0  2  0  0  0  0  0  0  0  0  0
    1.6250   60.9620   74.4870 S   0  0  0  0  0  0  0  0  0  0  0  0
    3.2190   60.8070   73.6130 C   0  0  0  0  0  0  0  0  0  0  0  0
    3.3150   61.5810   72.3120 C   0  0  0  0  0  0  0  0  0  0  0  0
    2.4830   62.5950   71.9660 C   0  0  0  0  0  0  0  0  0  0  0  0
   -1.6390   62.3230   75.6550 C   0  0  0  0  0  0  0  0  0  0  0  0
   -1.2400   62.7720   76.7220 O   0  0  0  0  0  0  0  0  0  0  0  0
   -1.0880   62.6120   74.4280 N   0  0  0  0  0  0  0  0  0  0  0  0
   -4.1000   61.9070   75.6080 N   0  0  0  0  0  0  0  0  0  0  0  0
   -2.8850   61.4310   75.6100 C   0  0  0  0  0  0  0  0  0  0  0  0
   -2.7380   59.9710   75.5950 C   0  0  0  0  0  0  0  0  0  0  0  0
   -3.6200   59.0720   76.1730 C   0  0  0  0  0  0  0  0  0  0  0  0
   -3.0850   57.4630   75.9310 S   0  0  0  0  0  0  0  0  0  0  0  0
   -1.7330   58.0530   75.0620 C   0  0  0  0  0  0  0  0  0  0  0  0
   -1.6540   59.3530   74.9600 N   0  0  0  0  0  0  0  0  0  0  0  0
   -0.8100   57.2220   74.5470 N   0  0  0  0  0  0  0  0  0  0  0  0
   -5.4410   63.7450   75.9150 C   0  0  0  0  0  0  0  0  0  0  0  0
   -4.1220   63.3080   75.6090 O   0  0  0  0  0  0  0  0  0  0  0  0
    2.6850   63.3120   70.5960 C   0  0  0  0  0  0  0  0  0  0  0  0
    3.4070   64.3460   70.6390 O   0  0  0  0  0  0  0  0  0  0  0  0
    1.9890   62.8260   69.6590 O   0  0  0  0  0  1  0  0  0  0  0  0
    4.4680   61.1660   71.4190 C   0  0  0  0  0  0  0  0  0  0  0  0
    4.5950   59.7280   71.3600 O   0  0  0  0  0  0  0  0  0  0  0  0
    3.8240   58.9480   70.5680 C   0  0  0  0  0  0  0  0  0  0  0  0
    3.8490   59.0950   69.3470 O   0  0  0  0  0  0  0  0  0  0  0  0
    2.9680   57.9030   71.2120 C   0  0  0  0  0  0  0  0  0  0  0  0
   -0.1256   64.1311   75.1092 H   0  0  0  0  0  0  0  0  0  0  0  0
    2.2918   63.0779   74.9525 H   0  0  0  0  0  0  0  0  0  0  0  0
    4.0125   61.1678   74.2840 H   0  0  0  0  0  0  0  0  0  0  0  0
    3.3215   59.7446   73.3468 H   0  0  0  0  0  0  0  0  0  0  0  0
   -1.5371   62.2402   73.5789 H   0  0  0  0  0  0  0  0  0  0  0  0
   -4.5366   59.3528   76.7124 H   0  0  0  0  0  0  0  0  0  0  0  0
   -0.0060   57.6033   74.0283 H   0  0  0  0  0  0  0  0  0  0  0  0
   -0.9069   56.2041   74.6712 H   0  0  0  0  0  0  0  0  0  0  0  0
   -5.5692   63.7875   77.0067 H   0  0  0  0  0  0  0  0  0  0  0  0
   -5.6043   64.7453   75.4874 H   0  0  0  0  0  0  0  0  0  0  0  0
   -6.1692   63.0401   75.4874 H   0  0  0  0  0  0  0  0  0  0  0  0
    4.2922   61.5521   70.4041 H   0  0  0  0  0  0  0  0  0  0  0  0
    5.3975   61.5798   71.8372 H   0  0  0  0  0  0  0  0  0  0  0  0
    3.0411   57.9922   72.3059 H   0  0  0  0  0  0  0  0  0  0  0  0
    1.9221   58.0435   70.9017 H   0  0  0  0  0  0  0  0  0  0  0  0
    3.3117   56.9052   70.9017 H   0  0  0  0  0  0  0  0  0  0  0  0
  2  1  1  0
  3  2  2  0
  4  2  1  0
  5  4  1  0
  5  1  1  0
  6  5  1  0
  7  6  1  0
  8  7  1  0
  9  8  2  0
  9  4  1  0
 11 10  2  0
 12 10  1  0
 12  1  1  0
 14 10  1  0
 14 13  2  0
 15 14  1  0
 16 15  2  0
 17 16  1  0
 18 17  1  0
 19 18  2  0
 19 15  1  0
 20 18  1  0
 22 21  1  0
 22 13  1  0
 23  9  1  0
 24 23  2  0
 25 23  1  0
 26  8  1  0
 27 26  1  0
 28 27  1  0
 29 28  2  0
 30 28  1  0
  1 31  1  1
  5 32  1  1
  7 33  1  0
  7 34  1  0
 12 35  1  0
 16 36  1  0
 20 37  1  0
 20 38  1  0
 21 39  1  0
 21 40  1  0
 21 41  1  0
 26 42  1  0
 26 43  1  0
 30 44  1  0
 30 45  1  0
 30 46  1  0
M  CHG  1  25  -1
M  END
>  <score>  (5) 
-6.858

$$$$
=
     RDKit          3D

 46 48  0  0  0  0  0  0  0  0999 V2000
    0.2570   60.7480   74.3270 C   0  0  2  0  0  0  0  0  0  0  0  0
   -0.3580   61.7010   73.2410 C   0  0  0  0  0  0  0  0  0  0  0  0
   -1.4750   61.9640   72.8680 O   0  0  0  0  0  0  0  0  0  0  0  0
    0.8880   62.0350   72.8500 N   0  0  0  0  0  0  0  0  0  0  0  0
    1.5840   61.4870   73.9890 C   0  0  2  0  0  0  0  0  0  0  0  0
    2.9890   60.5330   73.3710 S   0  0  0  0  0  0  0  0  0  0  0  0
    3.7700   61.9770   72.5760 C   0  0  0  0  0  0  0  0  0  0  0  0
    2.8240   62.8730   71.7990 C   0  0  0  0  0  0  0  0  0  0  0  0
    1.4750   62.8670   71.9480 C   0  0  0  0  0  0  0  0  0  0  0  0
    0.5940   58.3270   74.8780 C   0  0  0  0  0  0  0  0  0  0  0  0
    1.0620   58.5430   75.9880 O   0  0  0  0  0  0  0  0  0  0  0  0
    0.1350   59.2970   74.0170 N   0  0  0  0  0  0  0  0  0  0  0  0
    1.2180   56.3160   73.5370 N   0  0  0  0  0  0  0  0  0  0  0  0
    0.4080   56.8870   74.3860 C   0  0  0  0  0  0  0  0  0  0  0  0
   -0.7380   56.0970   74.8520 C   0  0  0  0  0  0  0  0  0  0  0  0
   -0.7620   54.7170   74.9760 C   0  0  0  0  0  0  0  0  0  0  0  0
   -2.2860   54.1900   75.5520 S   0  0  0  0  0  0  0  0  0  0  0  0
   -2.8130   55.8180   75.6200 C   0  0  0  0  0  0  0  0  0  0  0  0
   -1.9390   56.7080   75.2310 N   0  0  0  0  0  0  0  0  0  0  0  0
   -4.0530   56.1400   76.0260 N   0  0  0  0  0  0  0  0  0  0  0  0
    2.3600   57.2000   71.7520 C   0  0  0  0  0  0  0  0  0  0  0  0
    2.2810   57.1520   73.1720 O   0  0  0  0  0  0  0  0  0  0  0  0
    0.6100   63.8360   71.0880 C   0  0  0  0  0  0  0  0  0  0  0  0
    0.1910   64.8580   71.6970 O   0  0  0  0  0  0  0  0  0  0  0  0
    0.3430   63.3930   69.9340 O   0  0  0  0  0  1  0  0  0  0  0  0
    3.5090   63.8370   70.8510 C   0  0  0  0  0  0  0  0  0  0  0  0
    4.3020   63.1340   69.8690 O   0  0  0  0  0  0  0  0  0  0  0  0
    3.7610   62.3970   68.8720 C   0  0  0  0  0  0  0  0  0  0  0  0
    3.3500   62.9490   67.8510 O   0  0  0  0  0  0  0  0  0  0  0  0
    3.6990   60.9110   69.0350 C   0  0  0  0  0  0  0  0  0  0  0  0
   -0.0952   60.6485   75.3643 H   0  0  0  0  0  0  0  0  0  0  0  0
    2.0792   62.0402   74.8006 H   0  0  0  0  0  0  0  0  0  0  0  0
    4.2454   62.5829   73.3614 H   0  0  0  0  0  0  0  0  0  0  0  0
    4.4833   61.5743   71.8418 H   0  0  0  0  0  0  0  0  0  0  0  0
   -0.3062   59.0107   73.1314 H   0  0  0  0  0  0  0  0  0  0  0  0
    0.0812   54.0522   74.7374 H   0  0  0  0  0  0  0  0  0  0  0  0
   -4.3444   57.1274   76.0575 H   0  0  0  0  0  0  0  0  0  0  0  0
   -4.7119   55.3994   76.3057 H   0  0  0  0  0  0  0  0  0  0  0  0
    3.2648   57.7498   71.4535 H   0  0  0  0  0  0  0  0  0  0  0  0
    2.4045   56.1761   71.3524 H   0  0  0  0  0  0  0  0  0  0  0  0
    1.4718   57.7112   71.3524 H   0  0  0  0  0  0  0  0  0  0  0  0
    2.7442   64.4342   70.3329 H   0  0  0  0  0  0  0  0  0  0  0  0
    4.1773   64.4845   71.4376 H   0  0  0  0  0  0  0  0  0  0  0  0
    3.6885   60.6597   70.1059 H   0  0  0  0  0  0  0  0  0  0  0  0
    2.7841   60.5278   68.5595 H   0  0  0  0  0  0  0  0  0  0  0  0
    4.5788   60.4529   68.5595 H   0  0  0  0  0  0  0  0  0  0  0  0
  2  1  1  0
  3  2  2  0
  4  2  1  0
  5  4  1  0
  5  1  1  0
  6  5  1  0
  7  6  1  0
  8  7  1  0
  9  8  2  0
  9  4  1  0
 11 10  2  0
 12 10  1  0
 12  1  1  0
 14 10  1  0
 14 13  2  0
 15 14  1  0
 16 15  2  0
 17 16  1  0
 18 17  1  0
 19 18  2  0
 19 15  1  0
 20 18  1  0
 22 21  1  0
 22 13  1  0
 23  9  1  0
 24 23  2  0
 25 23  1  0
 26  8  1  0
 27 26  1  0
 28 27  1  0
 29 28  2  0
 30 28  1  0
  1 31  1  1
  5 32  1  1
  7 33  1  0
  7 34  1  0
 12 35  1  0
 16 36  1  0
 20 37  1  0
 20 38  1  0
 21 39  1  0
 21 40  1  0
 21 41  1  0
 26 42  1  0
 26 43  1  0
 30 44  1  0
 30 45  1  0
 30 46  1  0
M  CHG  1  25  -1
M  END
>  <score>  (6) 
-6.774

$$$$
=
     RDKit          3D

 46 48  0  0  0  0  0  0  0  0999 V2000
    1.4070   57.3260   72.8470 C   0  0  2  0  0  0  0  0  0  0  0  0
    2.4830   57.6680   71.7550 C   0  0  0  0  0  0  0  0  0  0  0  0
    3.1180   57.0280   70.9510 O   0  0  0  0  0  0  0  0  0  0  0  0
    2.4560   58.9550   72.1510 N   0  0  0  0  0  0  0  0  0  0  0  0
    1.2510   58.8720   72.9420 C   0  0  2  0  0  0  0  0  0  0  0  0
    1.5700   59.6910   74.5200 S   0  0  0  0  0  0  0  0  0  0  0  0
    1.9060   61.3090   73.7460 C   0  0  0  0  0  0  0  0  0  0  0  0
    2.7900   61.2590   72.5140 C   0  0  0  0  0  0  0  0  0  0  0  0
    3.0310   60.1340   71.7950 C   0  0  0  0  0  0  0  0  0  0  0  0
    1.1010   56.0260   74.9670 C   0  0  0  0  0  0  0  0  0  0  0  0
   -0.1220   56.0250   74.9050 O   0  0  0  0  0  0  0  0  0  0  0  0
    1.9340   56.5760   74.0200 N   0  0  0  0  0  0  0  0  0  0  0  0
    1.9490   54.0130   76.1760 N   0  0  0  0  0  0  0  0  0  0  0  0
    1.8160   55.3100   76.1190 C   0  0  0  0  0  0  0  0  0  0  0  0
    2.3650   56.0900   77.2350 C   0  0  0  0  0  0  0  0  0  0  0  0
    2.2710   55.7450   78.5740 C   0  0  0  0  0  0  0  0  0  0  0  0
    3.0400   56.9200   79.5540 S   0  0  0  0  0  0  0  0  0  0  0  0
    3.4650   57.8010   78.1480 C   0  0  0  0  0  0  0  0  0  0  0  0
    3.0600   57.2850   77.0180 N   0  0  0  0  0  0  0  0  0  0  0  0
    4.1490   58.9560   78.2210 N   0  0  0  0  0  0  0  0  0  0  0  0
    0.6280   52.2640   75.4940 C   0  0  0  0  0  0  0  0  0  0  0  0
    1.4030   53.3730   75.0560 O   0  0  0  0  0  0  0  0  0  0  0  0
    3.9620   60.2140   70.5470 C   0  0  0  0  0  0  0  0  0  0  0  0
    3.3610   60.2580   69.4380 O   0  0  0  0  0  0  0  0  0  0  0  0
    5.1910   60.0930   70.8180 O   0  0  0  0  0  1  0  0  0  0  0  0
    3.3640   62.6000   72.1000 C   0  0  0  0  0  0  0  0  0  0  0  0
    2.3190   63.5270   71.7310 O   0  0  0  0  0  0  0  0  0  0  0  0
    1.6630   63.4710   70.5500 C   0  0  0  0  0  0  0  0  0  0  0  0
    2.2950   63.4280   69.4950 O   0  0  0  0  0  0  0  0  0  0  0  0
    0.1670   63.4420   70.5660 C   0  0  0  0  0  0  0  0  0  0  0  0
    0.5357   56.6699   72.7043 H   0  0  0  0  0  0  0  0  0  0  0  0
    0.2651   59.2997   72.7072 H   0  0  0  0  0  0  0  0  0  0  0  0
    0.9432   61.7557   73.4573 H   0  0  0  0  0  0  0  0  0  0  0  0
    2.4546   61.8999   74.4943 H   0  0  0  0  0  0  0  0  0  0  0  0
    2.9526   56.4655   74.1258 H   0  0  0  0  0  0  0  0  0  0  0  0
    1.7717   54.8417   78.9545 H   0  0  0  0  0  0  0  0  0  0  0  0
    4.3919   59.4660   77.3597 H   0  0  0  0  0  0  0  0  0  0  0  0
    4.4302   59.3309   79.1382 H   0  0  0  0  0  0  0  0  0  0  0  0
    0.6111   52.2399   76.5936 H   0  0  0  0  0  0  0  0  0  0  0  0
   -0.3995   52.3616   75.1136 H   0  0  0  0  0  0  0  0  0  0  0  0
    1.0729   51.3327   75.1136 H   0  0  0  0  0  0  0  0  0  0  0  0
    3.9353   63.0202   72.9409 H   0  0  0  0  0  0  0  0  0  0  0  0
    4.0145   62.4445   71.2267 H   0  0  0  0  0  0  0  0  0  0  0  0
   -0.1885   63.4351   71.6070 H   0  0  0  0  0  0  0  0  0  0  0  0
   -0.2225   64.3328   70.0514 H   0  0  0  0  0  0  0  0  0  0  0  0
   -0.1877   62.5368   70.0514 H   0  0  0  0  0  0  0  0  0  0  0  0
  2  1  1  0
  3  2  2  0
  4  2  1  0
  5  4  1  0
  5  1  1  0
  6  5  1  0
  7  6  1  0
  8  7  1  0
  9  8  2  0
  9  4  1  0
 11 10  2  0
 12 10  1  0
 12  1  1  0
 14 10  1  0
 14 13  2  0
 15 14  1  0
 16 15  2  0
 17 16  1  0
 18 17  1  0
 19 18  2  0
 19 15  1  0
 20 18  1  0
 22 21  1  0
 22 13  1  0
 23  9  1  0
 24 23  2  0
 25 23  1  0
 26  8  1  0
 27 26  1  0
 28 27  1  0
 29 28  2  0
 30 28  1  0
  1 31  1  6
  5 32  1  6
  7 33  1  0
  7 34  1  0
 12 35  1  0
 16 36  1  0
 20 37  1  0
 20 38  1  0
 21 39  1  0
 21 40  1  0
 21 41  1  0
 26 42  1  0
 26 43  1  0
 30 44  1  0
 30 45  1  0
 30 46  1  0
M  CHG  1  25  -1
M  END
>  <score>  (7) 
-6.561

$$$$
=
     RDKit          3D

 46 48  0  0  0  0  0  0  0  0999 V2000
    0.0300   63.2830   74.7240 C   0  0  2  0  0  0  0  0  0  0  0  0
    0.1080   64.2550   73.4930 C   0  0  0  0  0  0  0  0  0  0  0  0
   -0.2990   65.3660   73.2540 O   0  0  0  0  0  0  0  0  0  0  0  0
    0.7470   63.2960   72.7950 N   0  0  0  0  0  0  0  0  0  0  0  0
    1.0540   62.4370   73.9130 C   0  0  2  0  0  0  0  0  0  0  0  0
    0.6210   60.7460   73.4450 S   0  0  0  0  0  0  0  0  0  0  0  0
    1.8040   60.7030   72.0570 C   0  0  0  0  0  0  0  0  0  0  0  0
    1.8210   61.9470   71.1890 C   0  0  0  0  0  0  0  0  0  0  0  0
    1.3080   63.1450   71.5650 C   0  0  0  0  0  0  0  0  0  0  0  0
   -2.0330   63.0380   76.1250 C   0  0  0  0  0  0  0  0  0  0  0  0
   -1.6700   63.8420   76.9740 O   0  0  0  0  0  0  0  0  0  0  0  0
   -1.3260   62.7270   74.9870 N   0  0  0  0  0  0  0  0  0  0  0  0
   -3.5470   61.1260   76.6540 N   0  0  0  0  0  0  0  0  0  0  0  0
   -3.4010   62.3550   76.2430 C   0  0  0  0  0  0  0  0  0  0  0  0
   -4.6160   63.0820   75.8570 C   0  0  0  0  0  0  0  0  0  0  0  0
   -5.8360   62.4980   75.5550 C   0  0  0  0  0  0  0  0  0  0  0  0
   -6.9950   63.6940   75.1550 S   0  0  0  0  0  0  0  0  0  0  0  0
   -5.8190   64.9100   75.4240 C   0  0  0  0  0  0  0  0  0  0  0  0
   -4.6350   64.4790   75.7720 N   0  0  0  0  0  0  0  0  0  0  0  0
   -6.1030   66.2130   75.2600 N   0  0  0  0  0  0  0  0  0  0  0  0
   -2.1760   59.3240   76.2760 C   0  0  0  0  0  0  0  0  0  0  0  0
   -2.3280   60.5350   77.0080 O   0  0  0  0  0  0  0  0  0  0  0  0
    1.3850   64.3500   70.5790 C   0  0  0  0  0  0  0  0  0  0  0  0
    2.4400   65.0370   70.6600 O   0  0  0  0  0  0  0  0  0  0  0  0
    0.3190   64.5440   69.9270 O   0  0  0  0  0  1  0  0  0  0  0  0
    2.5120   61.7690   69.8510 C   0  0  0  0  0  0  0  0  0  0  0  0
    3.8510   61.2520   70.0170 O   0  0  0  0  0  0  0  0  0  0  0  0
    4.8060   61.8860   70.7360 C   0  0  0  0  0  0  0  0  0  0  0  0
    5.0330   63.0800   70.5420 O   0  0  0  0  0  0  0  0  0  0  0  0
    5.5510   61.1090   71.7750 C   0  0  0  0  0  0  0  0  0  0  0  0
    0.2185   63.5598   75.7718 H   0  0  0  0  0  0  0  0  0  0  0  0
    2.0392   62.2567   74.3679 H   0  0  0  0  0  0  0  0  0  0  0  0
    2.8128   60.5635   72.4729 H   0  0  0  0  0  0  0  0  0  0  0  0
    1.4820   59.8779   71.4047 H   0  0  0  0  0  0  0  0  0  0  0  0
   -1.7473   62.0902   74.2957 H   0  0  0  0  0  0  0  0  0  0  0  0
   -6.0328   61.4159   75.5701 H   0  0  0  0  0  0  0  0  0  0  0  0
   -5.3767   66.9236   75.4286 H   0  0  0  0  0  0  0  0  0  0  0  0
   -7.0470   66.5013   74.9656 H   0  0  0  0  0  0  0  0  0  0  0  0
   -2.0704   58.4827   76.9768 H   0  0  0  0  0  0  0  0  0  0  0  0
   -3.0612   59.1648   75.6427 H   0  0  0  0  0  0  0  0  0  0  0  0
   -1.2789   59.3885   75.6427 H   0  0  0  0  0  0  0  0  0  0  0  0
    1.9297   61.0657   69.2376 H   0  0  0  0  0  0  0  0  0  0  0  0
    2.5772   62.7513   69.3602 H   0  0  0  0  0  0  0  0  0  0  0  0
    5.2351   61.4384   72.7758 H   0  0  0  0  0  0  0  0  0  0  0  0
    5.3345   60.0370   71.6565 H   0  0  0  0  0  0  0  0  0  0  0  0
    6.6311   61.2802   71.6565 H   0  0  0  0  0  0  0  0  0  0  0  0
  2  1  1  0
  3  2  2  0
  4  2  1  0
  5  4  1  0
  5  1  1  0
  6  5  1  0
  7  6  1  0
  8  7  1  0
  9  8  2  0
  9  4  1  0
 11 10  2  0
 12 10  1  0
 12  1  1  0
 14 10  1  0
 14 13  2  0
 15 14  1  0
 16 15  2  0
 17 16  1  0
 18 17  1  0
 19 18  2  0
 19 15  1  0
 20 18  1  0
 22 21  1  0
 22 13  1  0
 23  9  1  0
 24 23  2  0
 25 23  1  0
 26  8  1  0
 27 26  1  0
 28 27  1  0
 29 28  2  0
 30 28  1  0
  1 31  1  1
  5 32  1  1
  7 33  1  0
  7 34  1  0
 12 35  1  0
 16 36  1  0
 20 37  1  0
 20 38  1  0
 21 39  1  0
 21 40  1  0
 21 41  1  0
 26 42  1  0
 26 43  1  0
 30 44  1  0
 30 45  1  0
 30 46  1  0
M  CHG  1  25  -1
M  END
>  <score>  (8) 
-6.48

$$$$
=
     RDKit          3D

 46 48  0  0  0  0  0  0  0  0999 V2000
   -1.1810   61.2610   73.1670 C   0  0  2  0  0  0  0  0  0  0  0  0
   -0.3590   59.9360   73.3600 C   0  0  0  0  0  0  0  0  0  0  0  0
   -0.6120   58.8230   73.7530 O   0  0  0  0  0  0  0  0  0  0  0  0
    0.7560   60.5900   72.9800 N   0  0  0  0  0  0  0  0  0  0  0  0
    0.1020   61.7580   72.4400 C   0  0  2  0  0  0  0  0  0  0  0  0
    0.9620   63.2150   73.0730 S   0  0  0  0  0  0  0  0  0  0  0  0
    2.5490   62.7590   72.2980 C   0  0  0  0  0  0  0  0  0  0  0  0
    2.9370   61.3000   72.4400 C   0  0  0  0  0  0  0  0  0  0  0  0
    2.0700   60.3100   72.7690 C   0  0  0  0  0  0  0  0  0  0  0  0
   -2.7630   61.5790   75.0850 C   0  0  0  0  0  0  0  0  0  0  0  0
   -3.5140   60.6750   74.7430 O   0  0  0  0  0  0  0  0  0  0  0  0
   -1.5980   61.9190   74.4360 N   0  0  0  0  0  0  0  0  0  0  0  0
   -2.5310   62.0680   77.5210 N   0  0  0  0  0  0  0  0  0  0  0  0
   -3.0460   62.3770   76.3630 C   0  0  0  0  0  0  0  0  0  0  0  0
   -3.9550   63.5290   76.3190 C   0  0  0  0  0  0  0  0  0  0  0  0
   -3.7960   64.7000   77.0430 C   0  0  0  0  0  0  0  0  0  0  0  0
   -5.0720   65.7930   76.7080 S   0  0  0  0  0  0  0  0  0  0  0  0
   -5.7430   64.6590   75.6130 C   0  0  0  0  0  0  0  0  0  0  0  0
   -5.0900   63.5330   75.5010 N   0  0  0  0  0  0  0  0  0  0  0  0
   -6.8780   64.9160   74.9420 N   0  0  0  0  0  0  0  0  0  0  0  0
   -0.4140   61.3240   78.0060 C   0  0  0  0  0  0  0  0  0  0  0  0
   -1.6710   60.9660   77.4440 O   0  0  0  0  0  0  0  0  0  0  0  0
    2.5930   58.8460   72.8860 C   0  0  0  0  0  0  0  0  0  0  0  0
    2.4610   58.1500   71.8420 O   0  0  0  0  0  0  0  0  0  0  0  0
    2.9590   58.5270   74.0530 O   0  0  0  0  0  1  0  0  0  0  0  0
    4.3920   61.0040   72.1330 C   0  0  0  0  0  0  0  0  0  0  0  0
    4.7490   61.4450   70.8040 O   0  0  0  0  0  0  0  0  0  0  0  0
    4.1330   60.9970   69.6860 C   0  0  0  0  0  0  0  0  0  0  0  0
    4.1380   59.7960   69.4190 O   0  0  0  0  0  0  0  0  0  0  0  0
    3.4370   61.9890   68.8080 C   0  0  0  0  0  0  0  0  0  0  0  0
   -2.1719   61.3372   72.6956 H   0  0  0  0  0  0  0  0  0  0  0  0
    0.0090   62.0439   71.3819 H   0  0  0  0  0  0  0  0  0  0  0  0
    2.4837   62.9916   71.2249 H   0  0  0  0  0  0  0  0  0  0  0  0
    3.3243   63.3353   72.8241 H   0  0  0  0  0  0  0  0  0  0  0  0
   -0.9963   62.6507   74.8403 H   0  0  0  0  0  0  0  0  0  0  0  0
   -2.9658   64.8999   77.7364 H   0  0  0  0  0  0  0  0  0  0  0  0
   -7.2601   64.2167   74.2894 H   0  0  0  0  0  0  0  0  0  0  0  0
   -7.3662   65.8124   75.0801 H   0  0  0  0  0  0  0  0  0  0  0  0
   -0.4840   61.3040   79.1036 H   0  0  0  0  0  0  0  0  0  0  0  0
    0.3530   60.6086   77.6745 H   0  0  0  0  0  0  0  0  0  0  0  0
   -0.1390   62.3362   77.6745 H   0  0  0  0  0  0  0  0  0  0  0  0
    5.0259   61.5250   72.8656 H   0  0  0  0  0  0  0  0  0  0  0  0
    4.5443   59.9161   72.1901 H   0  0  0  0  0  0  0  0  0  0  0  0
    2.9170   62.7302   69.4327 H   0  0  0  0  0  0  0  0  0  0  0  0
    4.1764   62.4989   68.1730 H   0  0  0  0  0  0  0  0  0  0  0  0
    2.7060   61.4672   68.1730 H   0  0  0  0  0  0  0  0  0  0  0  0
  2  1  1  0
  3  2  2  0
  4  2  1  0
  5  4  1  0
  5  1  1  0
  6  5  1  0
  7  6  1  0
  8  7  1  0
  9  8  2  0
  9  4  1  0
 11 10  2  0
 12 10  1  0
 12  1  1  0
 14 10  1  0
 14 13  2  0
 15 14  1  0
 16 15  2  0
 17 16  1  0
 18 17  1  0
 19 18  2  0
 19 15  1  0
 20 18  1  0
 22 21  1  0
 22 13  1  0
 23  9  1  0
 24 23  2  0
 25 23  1  0
 26  8  1  0
 27 26  1  0
 28 27  1  0
 29 28  2  0
 30 28  1  0
  1 31  1  6
  5 32  1  6
  7 33  1  0
  7 34  1  0
 12 35  1  0
 16 36  1  0
 20 37  1  0
 20 38  1  0
 21 39  1  0
 21 40  1  0
 21 41  1  0
 26 42  1  0
 26 43  1  0
 30 44  1  0
 30 45  1  0
 30 46  1  0
M  CHG  1  25  -1
M  END
>  <score>  (9) 
-6.224

$$$$
