=
     RDKit          3D

 56 59  0  0  0  0  0  0  0  0999 V2000
    0.7670   66.8260   69.6690 C   0  0  0  0  0  0  0  0  0  0  0  0
    1.5990   68.0300   69.1930 C   0  0  0  0  0  0  0  0  0  0  0  0
    1.6820   68.0840   67.6770 C   0  0  0  0  0  0  0  0  0  0  0  0
    0.3020   68.2840   67.0870 N   0  0  0  0  0  4  0  0  0  0  0  0
   -0.8280   67.6890   67.9080 C   0  0  0  0  0  0  0  0  0  0  0  0
   -0.3450   66.4660   68.6680 C   0  0  0  0  0  0  0  0  0  0  0  0
   -0.0410   60.6680   72.9260 C   0  0  0  0  0  0  0  0  0  0  0  0
    1.2730   60.2750   72.5990 C   0  0  0  0  0  0  0  0  0  0  0  0
    2.1190   61.1110   71.8680 C   0  0  0  0  0  0  0  0  0  0  0  0
    1.6150   62.3370   71.4810 C   0  0  0  0  0  0  0  0  0  0  0  0
    0.3190   62.7500   71.7930 C   0  0  0  0  0  0  0  0  0  0  0  0
   -0.5240   61.9190   72.5200 C   0  0  0  0  0  0  0  0  0  0  0  0
    0.0270   64.1190   71.2550 C   0  0  0  0  0  0  0  0  0  0  0  0
    1.3090   64.5110   70.5630 C   0  0  0  0  0  0  0  0  0  0  0  0
    1.6480   65.6240   69.8950 C   0  0  0  0  0  0  0  0  0  0  0  0
    2.2900   63.3870   70.7170 C   0  0  0  0  0  0  0  0  0  0  0  0
    3.4250   63.3630   70.2870 O   0  0  0  0  0  0  0  0  0  0  0  0
   -0.0510   58.5510   74.0200 C   0  0  0  0  0  0  0  0  0  0  0  0
   -0.7400   59.7370   73.6440 O   0  0  0  0  0  0  0  0  0  0  0  0
    0.2710   67.8840   65.6220 C   0  0  0  0  0  0  0  0  0  0  0  0
    1.6460   67.7230   65.0310 C   0  0  0  0  0  0  0  0  0  0  0  0
    2.4640   68.8420   64.8180 C   0  0  0  0  0  0  0  0  0  0  0  0
    3.7520   68.6840   64.3110 C   0  0  0  0  0  0  0  0  0  0  0  0
    4.2280   67.4110   64.0070 C   0  0  0  0  0  0  0  0  0  0  0  0
    3.4230   66.2860   64.1900 C   0  0  0  0  0  0  0  0  0  0  0  0
    2.1350   66.4430   64.7050 C   0  0  0  0  0  0  0  0  0  0  0  0
    4.0120   65.1020   63.8480 O   0  0  0  0  0  0  0  0  0  0  0  0
    3.7710   63.9820   64.6890 C   0  0  0  0  0  0  0  0  0  0  0  0
    0.2950   67.1180   70.6187 H   0  0  0  0  0  0  0  0  0  0  0  0
    1.1303   68.9555   69.5586 H   0  0  0  0  0  0  0  0  0  0  0  0
    2.6189   67.9242   69.5913 H   0  0  0  0  0  0  0  0  0  0  0  0
    2.3304   68.9207   67.3777 H   0  0  0  0  0  0  0  0  0  0  0  0
    2.0985   67.1362   67.3053 H   0  0  0  0  0  0  0  0  0  0  0  0
    0.1135   69.2957   67.1307 H   0  0  0  0  0  0  0  0  0  0  0  0
   -1.1901   68.4410   68.6245 H   0  0  0  0  0  0  0  0  0  0  0  0
   -1.6411   67.3892   67.2304 H   0  0  0  0  0  0  0  0  0  0  0  0
   -1.1921   66.0289   69.2169 H   0  0  0  0  0  0  0  0  0  0  0  0
    0.0639   65.7480   67.9418 H   0  0  0  0  0  0  0  0  0  0  0  0
    1.6387   59.2905   72.9262 H   0  0  0  0  0  0  0  0  0  0  0  0
    3.1441   60.8059   71.6111 H   0  0  0  0  0  0  0  0  0  0  0  0
   -1.5470   62.2358   72.7711 H   0  0  0  0  0  0  0  0  0  0  0  0
   -0.8106   64.0903   70.5425 H   0  0  0  0  0  0  0  0  0  0  0  0
   -0.2698   64.8312   72.0390 H   0  0  0  0  0  0  0  0  0  0  0  0
    2.6631   65.6630   69.4731 H   0  0  0  0  0  0  0  0  0  0  0  0
   -0.0111   58.4823   75.1171 H   0  0  0  0  0  0  0  0  0  0  0  0
   -0.5811   57.6755   73.6168 H   0  0  0  0  0  0  0  0  0  0  0  0
    0.9721   58.5779   73.6168 H   0  0  0  0  0  0  0  0  0  0  0  0
   -0.2649   66.9278   65.5302 H   0  0  0  0  0  0  0  0  0  0  0  0
   -0.2341   68.6901   65.0697 H   0  0  0  0  0  0  0  0  0  0  0  0
    2.0871   69.8485   65.0522 H   0  0  0  0  0  0  0  0  0  0  0  0
    4.3924   69.5639   64.1510 H   0  0  0  0  0  0  0  0  0  0  0  0
    5.2500   67.2910   63.6183 H   0  0  0  0  0  0  0  0  0  0  0  0
    1.4969   65.5600   64.8574 H   0  0  0  0  0  0  0  0  0  0  0  0
    3.8379   64.2930   65.7420 H   0  0  0  0  0  0  0  0  0  0  0  0
    2.7662   63.5820   64.4880 H   0  0  0  0  0  0  0  0  0  0  0  0
    4.5223   63.2041   64.4880 H   0  0  0  0  0  0  0  0  0  0  0  0
  2  1  1  0
  3  2  1  0
  4  3  1  0
  5  4  1  0
  6  5  1  0
  6  1  1  0
  8  7  2  0
  9  8  1  0
 10  9  2  0
 11 10  1  0
 12 11  2  0
 12  7  1  0
 13 11  1  0
 14 13  1  0
 15 14  2  0
 15  1  1  0
 16 14  1  0
 16 10  1  0
 17 16  2  0
 19 18  1  0
 19  7  1  0
 20  4  1  0
 21 20  1  0
 22 21  2  0
 23 22  1  0
 24 23  2  0
 25 24  1  0
 26 25  2  0
 26 21  1  0
 27 25  1  0
 28 27  1  0
  1 29  1  0
  2 30  1  0
  2 31  1  0
  3 32  1  0
  3 33  1  0
  4 34  1  0
  5 35  1  0
  5 36  1  0
  6 37  1  0
  6 38  1  0
  8 39  1  0
  9 40  1  0
 12 41  1  0
 13 42  1  0
 13 43  1  0
 15 44  1  0
 18 45  1  0
 18 46  1  0
 18 47  1  0
 20 48  1  0
 20 49  1  0
 22 50  1  0
 23 51  1  0
 24 52  1  0
 26 53  1  0
 28 54  1  0
 28 55  1  0
 28 56  1  0
M  CHG  1   4   1
M  END
>  <score>  (1) 
-9.821

$$$$
=
     RDKit          3D

 56 59  0  0  0  0  0  0  0  0999 V2000
    0.7550   66.6510   69.7800 C   0  0  0  0  0  0  0  0  0  0  0  0
    1.5470   67.8990   69.3500 C   0  0  0  0  0  0  0  0  0  0  0  0
    1.6010   68.0310   67.8370 C   0  0  0  0  0  0  0  0  0  0  0  0
    0.2050   68.2240   67.2830 N   0  0  0  0  0  4  0  0  0  0  0  0
   -0.8940   67.5600   68.0920 C   0  0  0  0  0  0  0  0  0  0  0  0
   -0.3660   66.3130   68.7810 C   0  0  0  0  0  0  0  0  0  0  0  0
    0.2410   60.4040   72.9240 C   0  0  0  0  0  0  0  0  0  0  0  0
    1.5430   60.0460   72.5180 C   0  0  0  0  0  0  0  0  0  0  0  0
    2.3320   60.9160   71.7640 C   0  0  0  0  0  0  0  0  0  0  0  0
    1.7850   62.1390   71.4340 C   0  0  0  0  0  0  0  0  0  0  0  0
    0.5000   62.5180   71.8250 C   0  0  0  0  0  0  0  0  0  0  0  0
   -0.2870   61.6530   72.5740 C   0  0  0  0  0  0  0  0  0  0  0  0
    0.1530   63.8940   71.3360 C   0  0  0  0  0  0  0  0  0  0  0  0
    1.3890   64.3280   70.5860 C   0  0  0  0  0  0  0  0  0  0  0  0
    1.6700   65.4630   69.9290 C   0  0  0  0  0  0  0  0  0  0  0  0
    2.3970   63.2210   70.6610 C   0  0  0  0  0  0  0  0  0  0  0  0
    3.5080   63.2310   70.1710 O   0  0  0  0  0  0  0  0  0  0  0  0
   -0.6180   59.7090   75.0350 C   0  0  0  0  0  0  0  0  0  0  0  0
   -0.4000   59.4420   73.6550 O   0  0  0  0  0  0  0  0  0  0  0  0
    0.1570   67.8970   65.8000 C   0  0  0  0  0  0  0  0  0  0  0  0
    1.5200   67.6520   65.2110 C   0  0  0  0  0  0  0  0  0  0  0  0
    1.9930   66.3430   65.0320 C   0  0  0  0  0  0  0  0  0  0  0  0
    3.2370   66.1200   64.4470 C   0  0  0  0  0  0  0  0  0  0  0  0
    4.0190   67.2000   64.0430 C   0  0  0  0  0  0  0  0  0  0  0  0
    3.5780   68.5100   64.2320 C   0  0  0  0  0  0  0  0  0  0  0  0
    2.3280   68.7340   64.8120 C   0  0  0  0  0  0  0  0  0  0  0  0
    4.4440   69.4710   63.7950 O   0  0  0  0  0  0  0  0  0  0  0  0
    5.6030   69.0420   63.0930 C   0  0  0  0  0  0  0  0  0  0  0  0
    0.2942   66.8821   70.7517 H   0  0  0  0  0  0  0  0  0  0  0  0
    1.0615   68.7924   69.7695 H   0  0  0  0  0  0  0  0  0  0  0  0
    2.5765   67.8002   69.7246 H   0  0  0  0  0  0  0  0  0  0  0  0
    2.2222   68.8984   67.5691 H   0  0  0  0  0  0  0  0  0  0  0  0
    2.0350   67.1147   67.4102 H   0  0  0  0  0  0  0  0  0  0  0  0
   -0.0085   69.2267   67.3821 H   0  0  0  0  0  0  0  0  0  0  0  0
   -1.2614   68.2656   68.8517 H   0  0  0  0  0  0  0  0  0  0  0  0
   -1.7119   67.2736   67.4145 H   0  0  0  0  0  0  0  0  0  0  0  0
   -1.1915   65.8268   69.3215 H   0  0  0  0  0  0  0  0  0  0  0  0
    0.0476   65.6435   68.0124 H   0  0  0  0  0  0  0  0  0  0  0  0
    1.9447   59.0619   72.8010 H   0  0  0  0  0  0  0  0  0  0  0  0
    3.3477   60.6382   71.4460 H   0  0  0  0  0  0  0  0  0  0  0  0
   -1.3017   61.9422   72.8852 H   0  0  0  0  0  0  0  0  0  0  0  0
   -0.7209   63.8646   70.6686 H   0  0  0  0  0  0  0  0  0  0  0  0
   -0.1149   64.5818   72.1515 H   0  0  0  0  0  0  0  0  0  0  0  0
    2.6601   65.5332   69.4550 H   0  0  0  0  0  0  0  0  0  0  0  0
   -0.0378   58.9984   75.6421 H   0  0  0  0  0  0  0  0  0  0  0  0
   -0.2967   60.7356   75.2651 H   0  0  0  0  0  0  0  0  0  0  0  0
   -1.6881   59.5995   75.2651 H   0  0  0  0  0  0  0  0  0  0  0  0
   -0.4540   66.9932   65.6593 H   0  0  0  0  0  0  0  0  0  0  0  0
   -0.2748   68.7669   65.2835 H   0  0  0  0  0  0  0  0  0  0  0  0
    1.3787   65.4896   65.3551 H   0  0  0  0  0  0  0  0  0  0  0  0
    3.6018   65.0922   64.3040 H   0  0  0  0  0  0  0  0  0  0  0  0
    4.9951   67.0177   63.5697 H   0  0  0  0  0  0  0  0  0  0  0  0
    1.9714   69.7642   64.9585 H   0  0  0  0  0  0  0  0  0  0  0  0
    6.3824   68.7535   63.8137 H   0  0  0  0  0  0  0  0  0  0  0  0
    5.3500   68.1779   62.4610 H   0  0  0  0  0  0  0  0  0  0  0  0
    5.9736   69.8625   62.4610 H   0  0  0  0  0  0  0  0  0  0  0  0
  2  1  1  0
  3  2  1  0
  4  3  1  0
  5  4  1  0
  6  5  1  0
  6  1  1  0
  8  7  2  0
  9  8  1  0
 10  9  2  0
 11 10  1  0
 12 11  2  0
 12  7  1  0
 13 11  1  0
 14 13  1  0
 15 14  2  0
 15  1  1  0
 16 14  1  0
 16 10  1  0
 17 16  2  0
 19 18  1  0
 19  7  1  0
 20  4  1  0
 21 20  1  0
 22 21  2  0
 23 22  1  0
 24 23  2  0
 25 24  1  0
 26 25  2  0
 26 21  1  0
 27 25  1  0
 28 27  1  0
  1 29  1  0
  2 30  1  0
  2 31  1  0
  3 32  1  0
  3 33  1  0
  4 34  1  0
  5 35  1  0
  5 36  1  0
  6 37  1  0
  6 38  1  0
  8 39  1  0
  9 40  1  0
 12 41  1  0
 13 42  1  0
 13 43  1  0
 15 44  1  0
 18 45  1  0
 18 46  1  0
 18 47  1  0
 20 48  1  0
 20 49  1  0
 22 50  1  0
 23 51  1  0
 24 52  1  0
 26 53  1  0
 28 54  1  0
 28 55  1  0
 28 56  1  0
M  CHG  1   4   1
M  END
>  <score>  (2) 
-9.608

$$$$
=
     RDKit          3D

 56 59  0  0  0  0  0  0  0  0999 V2000
    3.3590   59.0250   72.1260 C   0  0  0  0  0  0  0  0  0  0  0  0
    3.2820   59.2600   70.6070 C   0  0  0  0  0  0  0  0  0  0  0  0
    3.3030   60.7420   70.2710 C   0  0  0  0  0  0  0  0  0  0  0  0
    4.6140   61.3570   70.7120 N   0  0  0  0  0  4  0  0  0  0  0  0
    5.2440   60.6990   71.9270 C   0  0  0  0  0  0  0  0  0  0  0  0
    4.1710   60.1240   72.8350 C   0  0  0  0  0  0  0  0  0  0  0  0
   -0.5780   53.8950   74.8410 C   0  0  0  0  0  0  0  0  0  0  0  0
   -1.6360   54.7900   75.1030 C   0  0  0  0  0  0  0  0  0  0  0  0
   -1.5370   56.1450   74.7830 C   0  0  0  0  0  0  0  0  0  0  0  0
   -0.3610   56.5710   74.1990 C   0  0  0  0  0  0  0  0  0  0  0  0
    0.7010   55.7060   73.9270 C   0  0  0  0  0  0  0  0  0  0  0  0
    0.6030   54.3580   74.2460 C   0  0  0  0  0  0  0  0  0  0  0  0
    1.8540   56.4240   73.2920 C   0  0  0  0  0  0  0  0  0  0  0  0
    1.3780   57.8530   73.2010 C   0  0  0  0  0  0  0  0  0  0  0  0
    1.9780   58.9550   72.7250 C   0  0  0  0  0  0  0  0  0  0  0  0
   -0.0070   57.9250   73.7700 C   0  0  0  0  0  0  0  0  0  0  0  0
   -0.6960   58.9210   73.8530 O   0  0  0  0  0  0  0  0  0  0  0  0
   -2.1660   52.1340   75.0680 C   0  0  0  0  0  0  0  0  0  0  0  0
   -0.8320   52.6040   75.2130 O   0  0  0  0  0  0  0  0  0  0  0  0
    4.4980   62.8670   70.8260 C   0  0  0  0  0  0  0  0  0  0  0  0
    3.0910   63.3260   71.1010 C   0  0  0  0  0  0  0  0  0  0  0  0
    2.4030   62.8710   72.2360 C   0  0  0  0  0  0  0  0  0  0  0  0
    1.1180   63.3320   72.5090 C   0  0  0  0  0  0  0  0  0  0  0  0
    0.5080   64.2430   71.6490 C   0  0  0  0  0  0  0  0  0  0  0  0
    1.1650   64.6900   70.5030 C   0  0  0  0  0  0  0  0  0  0  0  0
    2.4560   64.2350   70.2320 C   0  0  0  0  0  0  0  0  0  0  0  0
    0.4520   65.5760   69.7470 O   0  0  0  0  0  0  0  0  0  0  0  0
    1.0580   66.8280   69.4540 C   0  0  0  0  0  0  0  0  0  0  0  0
    3.8732   58.0644   72.2770 H   0  0  0  0  0  0  0  0  0  0  0  0
    4.1425   58.7721   70.1257 H   0  0  0  0  0  0  0  0  0  0  0  0
    2.3357   58.8362   70.2397 H   0  0  0  0  0  0  0  0  0  0  0  0
    3.1882   60.8704   69.1846 H   0  0  0  0  0  0  0  0  0  0  0  0
    2.4760   61.2420   70.7965 H   0  0  0  0  0  0  0  0  0  0  0  0
    5.2916   61.1583   69.9622 H   0  0  0  0  0  0  0  0  0  0  0  0
    5.9103   59.8890   71.5956 H   0  0  0  0  0  0  0  0  0  0  0  0
    5.8158   61.4549   72.4853 H   0  0  0  0  0  0  0  0  0  0  0  0
    4.6505   59.6945   73.7270 H   0  0  0  0  0  0  0  0  0  0  0  0
    3.4828   60.9362   73.1120 H   0  0  0  0  0  0  0  0  0  0  0  0
   -2.5581   54.4125   75.5691 H   0  0  0  0  0  0  0  0  0  0  0  0
   -2.3614   56.8440   74.9876 H   0  0  0  0  0  0  0  0  0  0  0  0
    1.4343   53.6689   74.0362 H   0  0  0  0  0  0  0  0  0  0  0  0
    2.7554   56.3498   73.9181 H   0  0  0  0  0  0  0  0  0  0  0  0
    2.1319   56.0038   72.3142 H   0  0  0  0  0  0  0  0  0  0  0  0
    1.4087   59.8948   72.7769 H   0  0  0  0  0  0  0  0  0  0  0  0
   -2.6098   51.9776   76.0623 H   0  0  0  0  0  0  0  0  0  0  0  0
   -2.7586   52.8775   74.5148 H   0  0  0  0  0  0  0  0  0  0  0  0
   -2.1617   51.1833   74.5148 H   0  0  0  0  0  0  0  0  0  0  0  0
    5.1455   63.2080   71.6472 H   0  0  0  0  0  0  0  0  0  0  0  0
    4.8029   63.2959   69.8601 H   0  0  0  0  0  0  0  0  0  0  0  0
    2.8807   62.1473   72.9127 H   0  0  0  0  0  0  0  0  0  0  0  0
    0.5845   62.9772   73.4032 H   0  0  0  0  0  0  0  0  0  0  0  0
   -0.5024   64.6135   71.8764 H   0  0  0  0  0  0  0  0  0  0  0  0
    2.9819   64.5888   69.3330 H   0  0  0  0  0  0  0  0  0  0  0  0
    1.3074   67.3434   70.3932 H   0  0  0  0  0  0  0  0  0  0  0  0
    1.9762   66.6634   68.8710 H   0  0  0  0  0  0  0  0  0  0  0  0
    0.3593   67.4460   68.8710 H   0  0  0  0  0  0  0  0  0  0  0  0
  2  1  1  0
  3  2  1  0
  4  3  1  0
  5  4  1  0
  6  5  1  0
  6  1  1  0
  8  7  2  0
  9  8  1  0
 10  9  2  0
 11 10  1  0
 12 11  2  0
 12  7  1  0
 13 11  1  0
 14 13  1  0
 15 14  2  0
 15  1  1  0
 16 14  1  0
 16 10  1  0
 17 16  2  0
 19 18  1  0
 19  7  1  0
 20  4  1  0
 21 20  1  0
 22 21  2  0
 23 22  1  0
 24 23  2  0
 25 24  1  0
 26 25  2  0
 26 21  1  0
 27 25  1  0
 28 27  1  0
  1 29  1  0
  2 30  1  0
  2 31  1  0
  3 32  1  0
  3 33  1  0
  4 34  1  0
  5 35  1  0
  5 36  1  0
  6 37  1  0
  6 38  1  0
  8 39  1  0
  9 40  1  0
 12 41  1  0
 13 42  1  0
 13 43  1  0
 15 44  1  0
 18 45  1  0
 18 46  1  0
 18 47  1  0
 20 48  1  0
 20 49  1  0
 22 50  1  0
 23 51  1  0
 24 52  1  0
 26 53  1  0
 28 54  1  0
 28 55  1  0
 28 56  1  0
M  CHG  1   4   1
M  END
>  <score>  (3) 
-9.352

$$$$
=
     RDKit          3D

 56 59  0  0  0  0  0  0  0  0999 V2000
    0.3670   61.0750   74.1280 C   0  0  0  0  0  0  0  0  0  0  0  0
    0.9830   62.4550   74.4170 C   0  0  0  0  0  0  0  0  0  0  0  0
    1.6260   63.0480   73.1740 C   0  0  0  0  0  0  0  0  0  0  0  0
    0.5760   63.2860   72.1090 N   0  0  0  0  0  4  0  0  0  0  0  0
   -0.5910   62.3170   72.1450 C   0  0  0  0  0  0  0  0  0  0  0  0
   -0.1450   60.9680   72.6800 C   0  0  0  0  0  0  0  0  0  0  0  0
    0.1260   54.0660   74.0470 C   0  0  0  0  0  0  0  0  0  0  0  0
    1.4850   53.9740   74.4100 C   0  0  0  0  0  0  0  0  0  0  0  0
    2.2590   55.1170   74.6190 C   0  0  0  0  0  0  0  0  0  0  0  0
    1.6380   56.3380   74.4570 C   0  0  0  0  0  0  0  0  0  0  0  0
    0.2940   56.4570   74.0990 C   0  0  0  0  0  0  0  0  0  0  0  0
   -0.4770   55.3210   73.8900 C   0  0  0  0  0  0  0  0  0  0  0  0
   -0.1280   57.8930   73.9910 C   0  0  0  0  0  0  0  0  0  0  0  0
    1.1280   58.6600   74.3260 C   0  0  0  0  0  0  0  0  0  0  0  0
    1.3670   59.9780   74.3900 C   0  0  0  0  0  0  0  0  0  0  0  0
    2.2190   57.6730   74.6160 C   0  0  0  0  0  0  0  0  0  0  0  0
    3.3610   57.9400   74.9260 O   0  0  0  0  0  0  0  0  0  0  0  0
   -0.3400   51.8980   74.9170 C   0  0  0  0  0  0  0  0  0  0  0  0
   -0.4910   52.8580   73.8790 O   0  0  0  0  0  0  0  0  0  0  0  0
    1.2130   63.4270   70.7380 C   0  0  0  0  0  0  0  0  0  0  0  0
    2.5770   62.7970   70.6590 C   0  0  0  0  0  0  0  0  0  0  0  0
    3.7320   63.5910   70.7190 C   0  0  0  0  0  0  0  0  0  0  0  0
    4.9930   63.0000   70.6890 C   0  0  0  0  0  0  0  0  0  0  0  0
    5.1100   61.6150   70.5920 C   0  0  0  0  0  0  0  0  0  0  0  0
    3.9750   60.8090   70.5080 C   0  0  0  0  0  0  0  0  0  0  0  0
    2.7110   61.3990   70.5450 C   0  0  0  0  0  0  0  0  0  0  0  0
    4.2320   59.4710   70.4120 O   0  0  0  0  0  0  0  0  0  0  0  0
    3.4340   58.5900   71.1910 C   0  0  0  0  0  0  0  0  0  0  0  0
   -0.4906   60.9582   74.8069 H   0  0  0  0  0  0  0  0  0  0  0  0
    0.1917   63.1334   74.7686 H   0  0  0  0  0  0  0  0  0  0  0  0
    1.7619   62.3321   75.1839 H   0  0  0  0  0  0  0  0  0  0  0  0
    2.1051   64.0038   73.4328 H   0  0  0  0  0  0  0  0  0  0  0  0
    2.3786   62.3451   72.7873 H   0  0  0  0  0  0  0  0  0  0  0  0
    0.1345   64.1887   72.3350 H   0  0  0  0  0  0  0  0  0  0  0  0
   -1.3785   62.7227   72.7970 H   0  0  0  0  0  0  0  0  0  0  0  0
   -0.9758   62.1851   71.1230 H   0  0  0  0  0  0  0  0  0  0  0  0
   -0.9976   60.2734   72.6530 H   0  0  0  0  0  0  0  0  0  0  0  0
    0.6788   60.6025   72.0494 H   0  0  0  0  0  0  0  0  0  0  0  0
    1.9447   52.9820   74.5310 H   0  0  0  0  0  0  0  0  0  0  0  0
    3.3199   55.0468   74.9011 H   0  0  0  0  0  0  0  0  0  0  0  0
   -1.5369   55.4045   73.6077 H   0  0  0  0  0  0  0  0  0  0  0  0
   -0.4700   58.1259   72.9718 H   0  0  0  0  0  0  0  0  0  0  0  0
   -0.9695   58.1415   74.6544 H   0  0  0  0  0  0  0  0  0  0  0  0
    2.3878   60.2874   74.6587 H   0  0  0  0  0  0  0  0  0  0  0  0
   -0.4187   52.3983   75.8935 H   0  0  0  0  0  0  0  0  0  0  0  0
   -1.1295   51.1369   74.8303 H   0  0  0  0  0  0  0  0  0  0  0  0
    0.6450   51.4161   74.8303 H   0  0  0  0  0  0  0  0  0  0  0  0
    0.5599   62.9443   69.9961 H   0  0  0  0  0  0  0  0  0  0  0  0
    1.3337   64.5021   70.5389 H   0  0  0  0  0  0  0  0  0  0  0  0
    3.6415   64.6850   70.7900 H   0  0  0  0  0  0  0  0  0  0  0  0
    5.8958   63.6263   70.7419 H   0  0  0  0  0  0  0  0  0  0  0  0
    6.1080   61.1525   70.5816 H   0  0  0  0  0  0  0  0  0  0  0  0
    1.8122   60.7678   70.4847 H   0  0  0  0  0  0  0  0  0  0  0  0
    3.6097   58.7840   72.2594 H   0  0  0  0  0  0  0  0  0  0  0  0
    2.3716   58.7550   70.9583 H   0  0  0  0  0  0  0  0  0  0  0  0
    3.7030   57.5491   70.9583 H   0  0  0  0  0  0  0  0  0  0  0  0
  2  1  1  0
  3  2  1  0
  4  3  1  0
  5  4  1  0
  6  5  1  0
  6  1  1  0
  8  7  2  0
  9  8  1  0
 10  9  2  0
 11 10  1  0
 12 11  2  0
 12  7  1  0
 13 11  1  0
 14 13  1  0
 15 14  2  0
 15  1  1  0
 16 14  1  0
 16 10  1  0
 17 16  2  0
 19 18  1  0
 19  7  1  0
 20  4  1  0
 21 20  1  0
 22 21  2  0
 23 22  1  0
 24 23  2  0
 25 24  1  0
 26 25  2  0
 26 21  1  0
 27 25  1  0
 28 27  1  0
  1 29  1  0
  2 30  1  0
  2 31  1  0
  3 32  1  0
  3 33  1  0
  4 34  1  0
  5 35  1  0
  5 36  1  0
  6 37  1  0
  6 38  1  0
  8 39  1  0
  9 40  1  0
 12 41  1  0
 13 42  1  0
 13 43  1  0
 15 44  1  0
 18 45  1  0
 18 46  1  0
 18 47  1  0
 20 48  1  0
 20 49  1  0
 22 50  1  0
 23 51  1  0
 24 52  1  0
 26 53  1  0
 28 54  1  0
 28 55  1  0
 28 56  1  0
M  CHG  1   4   1
M  END
>  <score>  (4) 
-9.025

$$$$
=
     RDKit          3D

 56 59  0  0  0  0  0  0  0  0999 V2000
    3.4320   59.2510   71.7770 C   0  0  0  0  0  0  0  0  0  0  0  0
    3.2430   59.5670   70.2830 C   0  0  0  0  0  0  0  0  0  0  0  0
    3.2120   61.0650   70.0310 C   0  0  0  0  0  0  0  0  0  0  0  0
    4.5390   61.6840   70.4140 N   0  0  0  0  0  4  0  0  0  0  0  0
    5.2650   60.9760   71.5420 C   0  0  0  0  0  0  0  0  0  0  0  0
    4.2710   60.3270   72.4890 C   0  0  0  0  0  0  0  0  0  0  0  0
   -0.0960   53.9310   74.6830 C   0  0  0  0  0  0  0  0  0  0  0  0
   -1.1700   54.7760   75.0270 C   0  0  0  0  0  0  0  0  0  0  0  0
   -1.1490   56.1380   74.7180 C   0  0  0  0  0  0  0  0  0  0  0  0
   -0.0340   56.6190   74.0620 C   0  0  0  0  0  0  0  0  0  0  0  0
    1.0420   55.8030   73.7090 C   0  0  0  0  0  0  0  0  0  0  0  0
    1.0220   54.4490   74.0160 C   0  0  0  0  0  0  0  0  0  0  0  0
    2.1190   56.5760   73.0080 C   0  0  0  0  0  0  0  0  0  0  0  0
    1.5790   57.9850   72.9680 C   0  0  0  0  0  0  0  0  0  0  0  0
    2.0990   59.1150   72.4670 C   0  0  0  0  0  0  0  0  0  0  0  0
    0.2330   57.9920   73.6280 C   0  0  0  0  0  0  0  0  0  0  0  0
   -0.4890   58.9560   73.7700 O   0  0  0  0  0  0  0  0  0  0  0  0
   -1.2720   51.8820   74.3730 C   0  0  0  0  0  0  0  0  0  0  0  0
   -0.2700   52.6260   75.0550 O   0  0  0  0  0  0  0  0  0  0  0  0
    4.4020   63.1830   70.6200 C   0  0  0  0  0  0  0  0  0  0  0  0
    3.0080   63.5940   71.0130 C   0  0  0  0  0  0  0  0  0  0  0  0
    2.2960   64.5220   70.2380 C   0  0  0  0  0  0  0  0  0  0  0  0
    0.9900   64.8670   70.5800 C   0  0  0  0  0  0  0  0  0  0  0  0
    0.3910   64.2950   71.7000 C   0  0  0  0  0  0  0  0  0  0  0  0
    1.0900   63.3880   72.4970 C   0  0  0  0  0  0  0  0  0  0  0  0
    2.3950   63.0360   72.1510 C   0  0  0  0  0  0  0  0  0  0  0  0
    0.3860   62.9080   73.5650 O   0  0  0  0  0  0  0  0  0  0  0  0
    1.0910   62.1250   74.5190 C   0  0  0  0  0  0  0  0  0  0  0  0
    3.9742   58.2957   71.8362 H   0  0  0  0  0  0  0  0  0  0  0  0
    4.0763   59.1262   69.7161 H   0  0  0  0  0  0  0  0  0  0  0  0
    2.2814   59.1422   69.9590 H   0  0  0  0  0  0  0  0  0  0  0  0
    3.0183   61.2506   68.9642 H   0  0  0  0  0  0  0  0  0  0  0  0
    2.4149   61.5163   70.6400 H   0  0  0  0  0  0  0  0  0  0  0  0
    5.1663   61.5415   69.6096 H   0  0  0  0  0  0  0  0  0  0  0  0
    5.9218   60.2012   71.1198 H   0  0  0  0  0  0  0  0  0  0  0  0
    5.8596   61.7136   72.1009 H   0  0  0  0  0  0  0  0  0  0  0  0
    4.8211   59.8598   73.3191 H   0  0  0  0  0  0  0  0  0  0  0  0
    3.5890   61.1063   72.8600 H   0  0  0  0  0  0  0  0  0  0  0  0
   -2.0418   54.3548   75.5490 H   0  0  0  0  0  0  0  0  0  0  0  0
   -1.9860   56.7995   74.9862 H   0  0  0  0  0  0  0  0  0  0  0  0
    1.8649   53.7977   73.7417 H   0  0  0  0  0  0  0  0  0  0  0  0
    3.0627   56.5333   73.5715 H   0  0  0  0  0  0  0  0  0  0  0  0
    2.3476   56.1783   72.0082 H   0  0  0  0  0  0  0  0  0  0  0  0
    1.4956   60.0290   72.5693 H   0  0  0  0  0  0  0  0  0  0  0  0
   -1.9296   51.3937   75.1072 H   0  0  0  0  0  0  0  0  0  0  0  0
   -1.8661   52.5595   73.7421 H   0  0  0  0  0  0  0  0  0  0  0  0
   -0.7953   51.1173   73.7421 H   0  0  0  0  0  0  0  0  0  0  0  0
    5.0968   63.4933   71.4143 H   0  0  0  0  0  0  0  0  0  0  0  0
    4.6328   63.6710   69.6616 H   0  0  0  0  0  0  0  0  0  0  0  0
    2.7706   64.9789   69.3571 H   0  0  0  0  0  0  0  0  0  0  0  0
    0.4327   65.5901   69.9663 H   0  0  0  0  0  0  0  0  0  0  0  0
   -0.6444   64.5613   71.9589 H   0  0  0  0  0  0  0  0  0  0  0  0
    2.9492   62.3170   72.7721 H   0  0  0  0  0  0  0  0  0  0  0  0
    0.8071   62.4403   75.5339 H   0  0  0  0  0  0  0  0  0  0  0  0
    0.8383   61.0634   74.3807 H   0  0  0  0  0  0  0  0  0  0  0  0
    2.1732   62.2653   74.3807 H   0  0  0  0  0  0  0  0  0  0  0  0
  2  1  1  0
  3  2  1  0
  4  3  1  0
  5  4  1  0
  6  5  1  0
  6  1  1  0
  8  7  2  0
  9  8  1  0
 10  9  2  0
 11 10  1  0
 12 11  2  0
 12  7  1  0
 13 11  1  0
 14 13  1  0
 15 14  2  0
 15  1  1  0
 16 14  1  0
 16 10  1  0
 17 16  2  0
 19 18  1  0
 19  7  1  0
 20  4  1  0
 21 20  1  0
 22 21  2  0
 23 22  1  0
 24 23  2  0
 25 24  1  0
 26 25  2  0
 26 21  1  0
 27 25  1  0
 28 27  1  0
  1 29  1  0
  2 30  1  0
  2 31  1  0
  3 32  1  0
  3 33  1  0
  4 34  1  0
  5 35  1  0
  5 36  1  0
  6 37  1  0
  6 38  1  0
  8 39  1  0
  9 40  1  0
 12 41  1  0
 13 42  1  0
 13 43  1  0
 15 44  1  0
 18 45  1  0
 18 46  1  0
 18 47  1  0
 20 48  1  0
 20 49  1  0
 22 50  1  0
 23 51  1  0
 24 52  1  0
 26 53  1  0
 28 54  1  0
 28 55  1  0
 28 56  1  0
M  CHG  1   4   1
M  END
>  <score>  (5) 
-9.021

$$$$
=
     RDKit          3D

 56 59  0  0  0  0  0  0  0  0999 V2000
    1.6370   59.0580   73.6600 C   0  0  0  0  0  0  0  0  0  0  0  0
    2.0200   58.3080   72.3720 C   0  0  0  0  0  0  0  0  0  0  0  0
    2.9970   59.1110   71.5290 C   0  0  0  0  0  0  0  0  0  0  0  0
    4.2940   59.3080   72.2860 N   0  0  0  0  0  4  0  0  0  0  0  0
    4.1430   59.3680   73.7940 C   0  0  0  0  0  0  0  0  0  0  0  0
    2.7880   59.9440   74.1700 C   0  0  0  0  0  0  0  0  0  0  0  0
   -5.0000   58.7940   75.9080 C   0  0  0  0  0  0  0  0  0  0  0  0
   -5.3360   59.9570   75.1840 C   0  0  0  0  0  0  0  0  0  0  0  0
   -4.3860   60.6290   74.4120 C   0  0  0  0  0  0  0  0  0  0  0  0
   -3.1090   60.1070   74.3860 C   0  0  0  0  0  0  0  0  0  0  0  0
   -2.7520   58.9570   75.0920 C   0  0  0  0  0  0  0  0  0  0  0  0
   -3.6950   58.2880   75.8610 C   0  0  0  0  0  0  0  0  0  0  0  0
   -1.3070   58.6070   74.8910 C   0  0  0  0  0  0  0  0  0  0  0  0
   -0.8040   59.6900   73.9680 C   0  0  0  0  0  0  0  0  0  0  0  0
    0.4110   59.9060   73.4400 C   0  0  0  0  0  0  0  0  0  0  0  0
   -1.9430   60.6150   73.6610 C   0  0  0  0  0  0  0  0  0  0  0  0
   -1.8970   61.5940   72.9460 O   0  0  0  0  0  0  0  0  0  0  0  0
   -7.2940   58.9260   76.5420 C   0  0  0  0  0  0  0  0  0  0  0  0
   -6.0410   58.2560   76.6130 O   0  0  0  0  0  0  0  0  0  0  0  0
    5.0950   60.4600   71.7040 C   0  0  0  0  0  0  0  0  0  0  0  0
    4.2410   61.4440   70.9500 C   0  0  0  0  0  0  0  0  0  0  0  0
    4.2290   61.4470   69.5470 C   0  0  0  0  0  0  0  0  0  0  0  0
    3.4040   62.3300   68.8530 C   0  0  0  0  0  0  0  0  0  0  0  0
    2.5930   63.2190   69.5540 C   0  0  0  0  0  0  0  0  0  0  0  0
    2.6060   63.2490   70.9490 C   0  0  0  0  0  0  0  0  0  0  0  0
    3.4260   62.3590   71.6450 C   0  0  0  0  0  0  0  0  0  0  0  0
    1.7670   64.1710   71.5070 O   0  0  0  0  0  0  0  0  0  0  0  0
    0.8010   64.7780   70.6600 C   0  0  0  0  0  0  0  0  0  0  0  0
    1.4227   58.2955   74.4234 H   0  0  0  0  0  0  0  0  0  0  0  0
    2.4856   57.3487   72.6421 H   0  0  0  0  0  0  0  0  0  0  0  0
    1.1059   58.1474   71.7816 H   0  0  0  0  0  0  0  0  0  0  0  0
    3.2001   58.5705   70.5928 H   0  0  0  0  0  0  0  0  0  0  0  0
    2.5571   60.0939   71.3044 H   0  0  0  0  0  0  0  0  0  0  0  0
    4.8449   58.4495   72.1429 H   0  0  0  0  0  0  0  0  0  0  0  0
    4.2322   58.3526   74.2075 H   0  0  0  0  0  0  0  0  0  0  0  0
    4.9316   60.0153   74.2053 H   0  0  0  0  0  0  0  0  0  0  0  0
    2.7230   60.0189   75.2655 H   0  0  0  0  0  0  0  0  0  0  0  0
    2.6930   60.9356   73.7034 H   0  0  0  0  0  0  0  0  0  0  0  0
   -6.3656   60.3418   75.2283 H   0  0  0  0  0  0  0  0  0  0  0  0
   -4.6450   61.5371   73.8478 H   0  0  0  0  0  0  0  0  0  0  0  0
   -3.4231   57.3809   76.4207 H   0  0  0  0  0  0  0  0  0  0  0  0
   -0.7628   58.6217   75.8468 H   0  0  0  0  0  0  0  0  0  0  0  0
   -1.1653   57.5962   74.4808 H   0  0  0  0  0  0  0  0  0  0  0  0
    0.5220   60.7835   72.7860 H   0  0  0  0  0  0  0  0  0  0  0  0
   -7.6626   59.1231   77.5595 H   0  0  0  0  0  0  0  0  0  0  0  0
   -7.1706   59.8785   76.0058 H   0  0  0  0  0  0  0  0  0  0  0  0
   -8.0176   58.2945   76.0058 H   0  0  0  0  0  0  0  0  0  0  0  0
    5.5975   60.9894   72.5269 H   0  0  0  0  0  0  0  0  0  0  0  0
    5.8163   60.0341   70.9911 H   0  0  0  0  0  0  0  0  0  0  0  0
    4.8737   60.7493   68.9924 H   0  0  0  0  0  0  0  0  0  0  0  0
    3.3934   62.3248   67.7531 H   0  0  0  0  0  0  0  0  0  0  0  0
    1.9345   63.9055   69.0016 H   0  0  0  0  0  0  0  0  0  0  0  0
    3.4358   62.3723   72.7449 H   0  0  0  0  0  0  0  0  0  0  0  0
    0.0283   65.2635   71.2741 H   0  0  0  0  0  0  0  0  0  0  0  0
    1.2913   65.5307   70.0251 H   0  0  0  0  0  0  0  0  0  0  0  0
    0.3356   64.0097   70.0251 H   0  0  0  0  0  0  0  0  0  0  0  0
  2  1  1  0
  3  2  1  0
  4  3  1  0
  5  4  1  0
  6  5  1  0
  6  1  1  0
  8  7  2  0
  9  8  1  0
 10  9  2  0
 11 10  1  0
 12 11  2  0
 12  7  1  0
 13 11  1  0
 14 13  1  0
 15 14  2  0
 15  1  1  0
 16 14  1  0
 16 10  1  0
 17 16  2  0
 19 18  1  0
 19  7  1  0
 20  4  1  0
 21 20  1  0
 22 21  2  0
 23 22  1  0
 24 23  2  0
 25 24  1  0
 26 25  2  0
 26 21  1  0
 27 25  1  0
 28 27  1  0
  1 29  1  0
  2 30  1  0
  2 31  1  0
  3 32  1  0
  3 33  1  0
  4 34  1  0
  5 35  1  0
  5 36  1  0
  6 37  1  0
  6 38  1  0
  8 39  1  0
  9 40  1  0
 12 41  1  0
 13 42  1  0
 13 43  1  0
 15 44  1  0
 18 45  1  0
 18 46  1  0
 18 47  1  0
 20 48  1  0
 20 49  1  0
 22 50  1  0
 23 51  1  0
 24 52  1  0
 26 53  1  0
 28 54  1  0
 28 55  1  0
 28 56  1  0
M  CHG  1   4   1
M  END
>  <score>  (6) 
-8.473

$$$$
=
     RDKit          3D

 56 59  0  0  0  0  0  0  0  0999 V2000
    0.0740   64.5740   71.7090 C   0  0  0  0  0  0  0  0  0  0  0  0
   -0.1460   63.3390   70.8170 C   0  0  0  0  0  0  0  0  0  0  0  0
    1.0090   62.3580   70.9300 C   0  0  0  0  0  0  0  0  0  0  0  0
    1.1030   61.8270   72.3450 N   0  0  0  0  0  4  0  0  0  0  0  0
    0.6340   62.7950   73.4160 C   0  0  0  0  0  0  0  0  0  0  0  0
    0.8750   64.2290   72.9780 C   0  0  0  0  0  0  0  0  0  0  0  0
   -1.4160   68.3780   66.0090 C   0  0  0  0  0  0  0  0  0  0  0  0
   -0.1930   69.0750   66.1030 C   0  0  0  0  0  0  0  0  0  0  0  0
    0.7190   68.8030   67.1240 C   0  0  0  0  0  0  0  0  0  0  0  0
    0.3740   67.8250   68.0350 C   0  0  0  0  0  0  0  0  0  0  0  0
   -0.8280   67.1200   67.9630 C   0  0  0  0  0  0  0  0  0  0  0  0
   -1.7370   67.3890   66.9480 C   0  0  0  0  0  0  0  0  0  0  0  0
   -0.9520   66.1170   69.0720 C   0  0  0  0  0  0  0  0  0  0  0  0
    0.3300   66.2850   69.8500 C   0  0  0  0  0  0  0  0  0  0  0  0
    0.7850   65.6630   70.9470 C   0  0  0  0  0  0  0  0  0  0  0  0
    1.1460   67.3540   69.1860 C   0  0  0  0  0  0  0  0  0  0  0  0
    2.2390   67.7450   69.5430 O   0  0  0  0  0  0  0  0  0  0  0  0
   -3.5730   69.0060   65.2160 C   0  0  0  0  0  0  0  0  0  0  0  0
   -2.1970   68.7610   64.9540 O   0  0  0  0  0  0  0  0  0  0  0  0
    2.4740   61.2330   72.6150 C   0  0  0  0  0  0  0  0  0  0  0  0
    2.5840   59.7940   72.1870 C   0  0  0  0  0  0  0  0  0  0  0  0
    3.3830   59.4370   71.0900 C   0  0  0  0  0  0  0  0  0  0  0  0
    3.5150   58.1000   70.7230 C   0  0  0  0  0  0  0  0  0  0  0  0
    2.8460   57.1120   71.4430 C   0  0  0  0  0  0  0  0  0  0  0  0
    2.0290   57.4470   72.5230 C   0  0  0  0  0  0  0  0  0  0  0  0
    1.9010   58.7860   72.8950 C   0  0  0  0  0  0  0  0  0  0  0  0
    1.4300   56.3830   73.1360 O   0  0  0  0  0  0  0  0  0  0  0  0
    1.8950   56.0230   74.4290 C   0  0  0  0  0  0  0  0  0  0  0  0
   -0.9208   64.9302   72.0147 H   0  0  0  0  0  0  0  0  0  0  0  0
   -1.0741   62.8357   71.1258 H   0  0  0  0  0  0  0  0  0  0  0  0
   -0.2123   63.6754   69.7718 H   0  0  0  0  0  0  0  0  0  0  0  0
    0.8439   61.5199   70.2369 H   0  0  0  0  0  0  0  0  0  0  0  0
    1.9465   62.8742   70.6757 H   0  0  0  0  0  0  0  0  0  0  0  0
    0.4193   61.0594   72.4106 H   0  0  0  0  0  0  0  0  0  0  0  0
   -0.4415   62.6462   73.5928 H   0  0  0  0  0  0  0  0  0  0  0  0
    1.1996   62.6050   74.3401 H   0  0  0  0  0  0  0  0  0  0  0  0
    0.5692   64.9065   73.7888 H   0  0  0  0  0  0  0  0  0  0  0  0
    1.9453   64.3456   72.7527 H   0  0  0  0  0  0  0  0  0  0  0  0
    0.0464   69.8475   65.3574 H   0  0  0  0  0  0  0  0  0  0  0  0
    1.6730   69.3454   67.1995 H   0  0  0  0  0  0  0  0  0  0  0  0
   -2.6870   66.8383   66.8828 H   0  0  0  0  0  0  0  0  0  0  0  0
   -1.8257   66.3361   69.7033 H   0  0  0  0  0  0  0  0  0  0  0  0
   -1.0966   65.0903   68.7045 H   0  0  0  0  0  0  0  0  0  0  0  0
    1.7688   65.9765   71.3263 H   0  0  0  0  0  0  0  0  0  0  0  0
   -3.7397   69.0357   66.3029 H   0  0  0  0  0  0  0  0  0  0  0  0
   -3.8644   69.9702   64.7739 H   0  0  0  0  0  0  0  0  0  0  0  0
   -4.1793   68.2017   64.7739 H   0  0  0  0  0  0  0  0  0  0  0  0
    3.2252   61.8206   72.0668 H   0  0  0  0  0  0  0  0  0  0  0  0
    2.6403   61.2676   73.7018 H   0  0  0  0  0  0  0  0  0  0  0  0
    3.9072   60.2164   70.5176 H   0  0  0  0  0  0  0  0  0  0  0  0
    4.1467   57.8242   69.8657 H   0  0  0  0  0  0  0  0  0  0  0  0
    2.9634   56.0565   71.1566 H   0  0  0  0  0  0  0  0  0  0  0  0
    1.2614   59.0564   73.7482 H   0  0  0  0  0  0  0  0  0  0  0  0
    1.2686   56.5080   75.1921 H   0  0  0  0  0  0  0  0  0  0  0  0
    1.8384   54.9309   74.5481 H   0  0  0  0  0  0  0  0  0  0  0  0
    2.9381   56.3513   74.5481 H   0  0  0  0  0  0  0  0  0  0  0  0
  2  1  1  0
  3  2  1  0
  4  3  1  0
  5  4  1  0
  6  5  1  0
  6  1  1  0
  8  7  2  0
  9  8  1  0
 10  9  2  0
 11 10  1  0
 12 11  2  0
 12  7  1  0
 13 11  1  0
 14 13  1  0
 15 14  2  0
 15  1  1  0
 16 14  1  0
 16 10  1  0
 17 16  2  0
 19 18  1  0
 19  7  1  0
 20  4  1  0
 21 20  1  0
 22 21  2  0
 23 22  1  0
 24 23  2  0
 25 24  1  0
 26 25  2  0
 26 21  1  0
 27 25  1  0
 28 27  1  0
  1 29  1  0
  2 30  1  0
  2 31  1  0
  3 32  1  0
  3 33  1  0
  4 34  1  0
  5 35  1  0
  5 36  1  0
  6 37  1  0
  6 38  1  0
  8 39  1  0
  9 40  1  0
 12 41  1  0
 13 42  1  0
 13 43  1  0
 15 44  1  0
 18 45  1  0
 18 46  1  0
 18 47  1  0
 20 48  1  0
 20 49  1  0
 22 50  1  0
 23 51  1  0
 24 52  1  0
 26 53  1  0
 28 54  1  0
 28 55  1  0
 28 56  1  0
M  CHG  1   4   1
M  END
>  <score>  (7) 
-8.256

$$$$
=
     RDKit          3D

 56 59  0  0  0  0  0  0  0  0999 V2000
    2.0560   62.2840   71.3010 C   0  0  0  0  0  0  0  0  0  0  0  0
    0.6740   62.5510   70.6780 C   0  0  0  0  0  0  0  0  0  0  0  0
    0.3250   64.0300   70.7130 C   0  0  0  0  0  0  0  0  0  0  0  0
    1.3090   64.8170   69.8740 N   0  0  0  0  0  4  0  0  0  0  0  0
    2.7040   64.2210   69.8120 C   0  0  0  0  0  0  0  0  0  0  0  0
    3.0170   63.4670   71.0930 C   0  0  0  0  0  0  0  0  0  0  0  0
    0.8030   56.5200   75.0950 C   0  0  0  0  0  0  0  0  0  0  0  0
    0.8750   57.2470   76.3010 C   0  0  0  0  0  0  0  0  0  0  0  0
    1.1270   58.6200   76.3050 C   0  0  0  0  0  0  0  0  0  0  0  0
    1.3020   59.2340   75.0810 C   0  0  0  0  0  0  0  0  0  0  0  0
    1.2340   58.5370   73.8740 C   0  0  0  0  0  0  0  0  0  0  0  0
    0.9830   57.1710   73.8680 C   0  0  0  0  0  0  0  0  0  0  0  0
    1.4590   59.4400   72.6970 C   0  0  0  0  0  0  0  0  0  0  0  0
    1.6780   60.7950   73.3250 C   0  0  0  0  0  0  0  0  0  0  0  0
    1.9290   61.9920   72.7750 C   0  0  0  0  0  0  0  0  0  0  0  0
    1.5740   60.6470   74.8130 C   0  0  0  0  0  0  0  0  0  0  0  0
    1.6930   61.5360   75.6310 O   0  0  0  0  0  0  0  0  0  0  0  0
    1.4570   54.4450   76.0670 C   0  0  0  0  0  0  0  0  0  0  0  0
    0.5490   55.1860   75.2620 O   0  0  0  0  0  0  0  0  0  0  0  0
    1.2890   66.2890   70.2470 C   0  0  0  0  0  0  0  0  0  0  0  0
    0.8860   67.1770   69.1000 C   0  0  0  0  0  0  0  0  0  0  0  0
    1.6970   68.2560   68.7170 C   0  0  0  0  0  0  0  0  0  0  0  0
    1.3430   69.0490   67.6280 C   0  0  0  0  0  0  0  0  0  0  0  0
    0.1760   68.7750   66.9190 C   0  0  0  0  0  0  0  0  0  0  0  0
   -0.6570   67.7210   67.2970 C   0  0  0  0  0  0  0  0  0  0  0  0
   -0.2990   66.9210   68.3830 C   0  0  0  0  0  0  0  0  0  0  0  0
   -1.7690   67.5680   66.5190 O   0  0  0  0  0  0  0  0  0  0  0  0
   -2.2270   68.7010   65.7950 C   0  0  0  0  0  0  0  0  0  0  0  0
    2.4750   61.4058   70.7880 H   0  0  0  0  0  0  0  0  0  0  0  0
    0.6811   62.2098   69.6323 H   0  0  0  0  0  0  0  0  0  0  0  0
   -0.0803   62.0039   71.2626 H   0  0  0  0  0  0  0  0  0  0  0  0
   -0.6899   64.1738   70.3139 H   0  0  0  0  0  0  0  0  0  0  0  0
    0.3726   64.3865   71.7525 H   0  0  0  0  0  0  0  0  0  0  0  0
    0.9811   64.7441   68.9003 H   0  0  0  0  0  0  0  0  0  0  0  0
    2.7641   63.5279   68.9599 H   0  0  0  0  0  0  0  0  0  0  0  0
    3.4339   65.0349   69.6905 H   0  0  0  0  0  0  0  0  0  0  0  0
    4.0473   63.0853   71.0403 H   0  0  0  0  0  0  0  0  0  0  0  0
    2.8986   64.1602   71.9388 H   0  0  0  0  0  0  0  0  0  0  0  0
    0.7298   56.7223   77.2568 H   0  0  0  0  0  0  0  0  0  0  0  0
    1.1838   59.1891   77.2446 H   0  0  0  0  0  0  0  0  0  0  0  0
    0.9269   56.6133   72.9215 H   0  0  0  0  0  0  0  0  0  0  0  0
    2.3437   59.1252   72.1241 H   0  0  0  0  0  0  0  0  0  0  0  0
    0.6210   59.4299   71.9845 H   0  0  0  0  0  0  0  0  0  0  0  0
    2.0540   62.8406   73.4637 H   0  0  0  0  0  0  0  0  0  0  0  0
    1.2362   54.6252   77.1295 H   0  0  0  0  0  0  0  0  0  0  0  0
    1.3508   53.3724   75.8472 H   0  0  0  0  0  0  0  0  0  0  0  0
    2.4865   54.7641   75.8472 H   0  0  0  0  0  0  0  0  0  0  0  0
    0.5743   66.4330   71.0707 H   0  0  0  0  0  0  0  0  0  0  0  0
    2.3115   66.5700   70.5395 H   0  0  0  0  0  0  0  0  0  0  0  0
    2.6164   68.4766   69.2792 H   0  0  0  0  0  0  0  0  0  0  0  0
    1.9845   69.8908   67.3283 H   0  0  0  0  0  0  0  0  0  0  0  0
   -0.0921   69.3961   66.0516 H   0  0  0  0  0  0  0  0  0  0  0  0
   -0.9473   66.0840   68.6814 H   0  0  0  0  0  0  0  0  0  0  0  0
   -2.5433   69.4835   66.5004 H   0  0  0  0  0  0  0  0  0  0  0  0
   -1.4135   69.0850   65.1620 H   0  0  0  0  0  0  0  0  0  0  0  0
   -3.0789   68.4118   65.1620 H   0  0  0  0  0  0  0  0  0  0  0  0
  2  1  1  0
  3  2  1  0
  4  3  1  0
  5  4  1  0
  6  5  1  0
  6  1  1  0
  8  7  2  0
  9  8  1  0
 10  9  2  0
 11 10  1  0
 12 11  2  0
 12  7  1  0
 13 11  1  0
 14 13  1  0
 15 14  2  0
 15  1  1  0
 16 14  1  0
 16 10  1  0
 17 16  2  0
 19 18  1  0
 19  7  1  0
 20  4  1  0
 21 20  1  0
 22 21  2  0
 23 22  1  0
 24 23  2  0
 25 24  1  0
 26 25  2  0
 26 21  1  0
 27 25  1  0
 28 27  1  0
  1 29  1  0
  2 30  1  0
  2 31  1  0
  3 32  1  0
  3 33  1  0
  4 34  1  0
  5 35  1  0
  5 36  1  0
  6 37  1  0
  6 38  1  0
  8 39  1  0
  9 40  1  0
 12 41  1  0
 13 42  1  0
 13 43  1  0
 15 44  1  0
 18 45  1  0
 18 46  1  0
 18 47  1  0
 20 48  1  0
 20 49  1  0
 22 50  1  0
 23 51  1  0
 24 52  1  0
 26 53  1  0
 28 54  1  0
 28 55  1  0
 28 56  1  0
M  CHG  1   4   1
M  END
>  <score>  (8) 
-8.144

$$$$
=
     RDKit          3D

 56 59  0  0  0  0  0  0  0  0999 V2000
    1.7990   57.3670   73.4760 C   0  0  0  0  0  0  0  0  0  0  0  0
    2.3740   57.9740   74.7680 C   0  0  0  0  0  0  0  0  0  0  0  0
    1.6810   59.2770   75.1280 C   0  0  0  0  0  0  0  0  0  0  0  0
    0.2150   59.0230   75.4160 N   0  0  0  0  0  4  0  0  0  0  0  0
   -0.3880   57.8630   74.6450 C   0  0  0  0  0  0  0  0  0  0  0  0
    0.3060   57.6990   73.3040 C   0  0  0  0  0  0  0  0  0  0  0  0
    2.4070   63.5240   70.1740 C   0  0  0  0  0  0  0  0  0  0  0  0
    3.2930   62.9740   69.2240 C   0  0  0  0  0  0  0  0  0  0  0  0
    3.6670   61.6310   69.2750 C   0  0  0  0  0  0  0  0  0  0  0  0
    3.1330   60.8640   70.2910 C   0  0  0  0  0  0  0  0  0  0  0  0
    2.2540   61.3830   71.2420 C   0  0  0  0  0  0  0  0  0  0  0  0
    1.8810   62.7200   71.1940 C   0  0  0  0  0  0  0  0  0  0  0  0
    1.8250   60.3400   72.2310 C   0  0  0  0  0  0  0  0  0  0  0  0
    2.5520   59.0980   71.7770 C   0  0  0  0  0  0  0  0  0  0  0  0
    2.5640   57.8510   72.2710 C   0  0  0  0  0  0  0  0  0  0  0  0
    3.3620   59.4440   70.5630 C   0  0  0  0  0  0  0  0  0  0  0  0
    4.0670   58.6830   69.9330 O   0  0  0  0  0  0  0  0  0  0  0  0
    0.9040   65.3470   70.4840 C   0  0  0  0  0  0  0  0  0  0  0  0
    2.1410   64.8520   69.9870 O   0  0  0  0  0  0  0  0  0  0  0  0
   -0.5900   60.3070   75.3180 C   0  0  0  0  0  0  0  0  0  0  0  0
   -2.0520   60.1040   75.6120 C   0  0  0  0  0  0  0  0  0  0  0  0
   -2.4650   59.6060   76.8570 C   0  0  0  0  0  0  0  0  0  0  0  0
   -3.8210   59.4610   77.1390 C   0  0  0  0  0  0  0  0  0  0  0  0
   -4.7730   59.8040   76.1810 C   0  0  0  0  0  0  0  0  0  0  0  0
   -4.3820   60.2800   74.9280 C   0  0  0  0  0  0  0  0  0  0  0  0
   -3.0240   60.4330   74.6470 C   0  0  0  0  0  0  0  0  0  0  0  0
   -5.4150   60.5740   74.0840 O   0  0  0  0  0  0  0  0  0  0  0  0
   -6.7320   60.5350   74.6170 C   0  0  0  0  0  0  0  0  0  0  0  0
    1.9031   56.2752   73.5601 H   0  0  0  0  0  0  0  0  0  0  0  0
    2.2373   57.2573   75.5912 H   0  0  0  0  0  0  0  0  0  0  0  0
    3.4413   58.1846   74.6049 H   0  0  0  0  0  0  0  0  0  0  0  0
    2.1579   59.7086   76.0203 H   0  0  0  0  0  0  0  0  0  0  0  0
    1.7668   59.9765   74.2834 H   0  0  0  0  0  0  0  0  0  0  0  0
    0.1637   58.7039   76.3940 H   0  0  0  0  0  0  0  0  0  0  0  0
   -0.2693   56.9388   75.2297 H   0  0  0  0  0  0  0  0  0  0  0  0
   -1.4549   58.0669   74.4714 H   0  0  0  0  0  0  0  0  0  0  0  0
   -0.1794   56.8833   72.7482 H   0  0  0  0  0  0  0  0  0  0  0  0
    0.2256   58.6496   72.7563 H   0  0  0  0  0  0  0  0  0  0  0  0
    3.6968   63.6165   68.4276 H   0  0  0  0  0  0  0  0  0  0  0  0
    4.3590   61.2009   68.5360 H   0  0  0  0  0  0  0  0  0  0  0  0
    1.1886   63.1381   71.9395 H   0  0  0  0  0  0  0  0  0  0  0  0
    2.1254   60.6197   73.2515 H   0  0  0  0  0  0  0  0  0  0  0  0
    0.7336   60.2073   72.2650 H   0  0  0  0  0  0  0  0  0  0  0  0
    3.1903   57.1132   71.7481 H   0  0  0  0  0  0  0  0  0  0  0  0
    0.9216   65.3400   71.5838 H   0  0  0  0  0  0  0  0  0  0  0  0
    0.7505   66.3758   70.1263 H   0  0  0  0  0  0  0  0  0  0  0  0
    0.0831   64.7081   70.1263 H   0  0  0  0  0  0  0  0  0  0  0  0
   -0.1841   61.0319   76.0389 H   0  0  0  0  0  0  0  0  0  0  0  0
   -0.5082   60.6704   74.2830 H   0  0  0  0  0  0  0  0  0  0  0  0
   -1.7152   59.3292   77.6128 H   0  0  0  0  0  0  0  0  0  0  0  0
   -4.1407   59.0755   78.1184 H   0  0  0  0  0  0  0  0  0  0  0  0
   -5.8428   59.6987   76.4141 H   0  0  0  0  0  0  0  0  0  0  0  0
   -2.7098   60.8136   73.6639 H   0  0  0  0  0  0  0  0  0  0  0  0
   -6.6830   60.5365   75.7159 H   0  0  0  0  0  0  0  0  0  0  0  0
   -7.2927   61.4169   74.2738 H   0  0  0  0  0  0  0  0  0  0  0  0
   -7.2395   59.6214   74.2738 H   0  0  0  0  0  0  0  0  0  0  0  0
  2  1  1  0
  3  2  1  0
  4  3  1  0
  5  4  1  0
  6  5  1  0
  6  1  1  0
  8  7  2  0
  9  8  1  0
 10  9  2  0
 11 10  1  0
 12 11  2  0
 12  7  1  0
 13 11  1  0
 14 13  1  0
 15 14  2  0
 15  1  1  0
 16 14  1  0
 16 10  1  0
 17 16  2  0
 19 18  1  0
 19  7  1  0
 20  4  1  0
 21 20  1  0
 22 21  2  0
 23 22  1  0
 24 23  2  0
 25 24  1  0
 26 25  2  0
 26 21  1  0
 27 25  1  0
 28 27  1  0
  1 29  1  0
  2 30  1  0
  2 31  1  0
  3 32  1  0
  3 33  1  0
  4 34  1  0
  5 35  1  0
  5 36  1  0
  6 37  1  0
  6 38  1  0
  8 39  1  0
  9 40  1  0
 12 41  1  0
 13 42  1  0
 13 43  1  0
 15 44  1  0
 18 45  1  0
 18 46  1  0
 18 47  1  0
 20 48  1  0
 20 49  1  0
 22 50  1  0
 23 51  1  0
 24 52  1  0
 26 53  1  0
 28 54  1  0
 28 55  1  0
 28 56  1  0
M  CHG  1   4   1
M  END
>  <score>  (9) 
-7.777

$$$$
