=
     RDKit          3D

 57 59  0  0  0  0  0  0  0  0999 V2000
   -0.0270   65.4760   69.5030 C   0  0  0  0  0  0  0  0  0  0  0  0
    1.0510   65.4090   70.6050 C   0  0  2  0  0  0  0  0  0  0  0  0
    2.3170   64.6170   70.1980 C   0  0  0  0  0  0  0  0  0  0  0  0
    2.1370   63.2930   70.8690 C   0  0  0  0  0  0  0  0  0  0  0  0
    1.1620   63.3380   71.8580 C   0  0  0  0  0  0  0  0  0  0  0  0
    0.5480   64.6640   71.8280 C   0  0  0  0  0  0  0  0  0  0  0  0
   -0.2910   65.0490   72.6220 O   0  0  0  0  0  0  0  0  0  0  0  0
    0.7960   62.2390   72.6160 C   0  0  0  0  0  0  0  0  0  0  0  0
    1.4450   61.0260   72.3600 C   0  0  0  0  0  0  0  0  0  0  0  0
    2.4570   60.9740   71.3670 C   0  0  0  0  0  0  0  0  0  0  0  0
    2.8030   62.1090   70.6190 C   0  0  0  0  0  0  0  0  0  0  0  0
    3.1190   59.8290   70.9960 O   0  0  0  0  0  0  0  0  0  0  0  0
    3.5480   59.8380   69.6330 C   0  0  0  0  0  0  0  0  0  0  0  0
    1.1180   59.8450   72.9750 O   0  0  0  0  0  0  0  0  0  0  0  0
   -0.2000   59.7260   73.5020 C   0  0  0  0  0  0  0  0  0  0  0  0
    1.0450   68.7290   67.7740 C   0  0  0  0  0  0  0  0  0  0  0  0
   -0.0940   68.9980   67.0010 C   0  0  0  0  0  0  0  0  0  0  0  0
   -1.2140   68.1730   67.0900 C   0  0  0  0  0  0  0  0  0  0  0  0
   -1.1970   67.0620   67.9290 C   0  0  0  0  0  0  0  0  0  0  0  0
   -0.0670   66.7630   68.7010 C   0  0  0  0  0  0  0  0  0  0  0  0
    1.0380   67.6230   68.6400 C   0  0  0  0  0  0  0  0  0  0  0  0
    2.2650   69.5990   67.6540 C   0  0  0  0  0  0  0  0  0  0  0  0
    3.3170   69.0410   66.7120 N   0  0  0  0  0  4  0  0  0  0  0  0
    3.9850   69.1500   64.3080 C   0  0  0  0  0  0  0  0  0  0  0  0
    2.8450   68.8910   65.2780 C   0  0  0  0  0  0  0  0  0  0  0  0
    4.6440   69.7590   66.8350 C   0  0  0  0  0  0  0  0  0  0  0  0
    4.7840   70.4990   68.1540 C   0  0  0  0  0  0  0  0  0  0  0  0
    0.1529   64.6468   68.8030 H   0  0  0  0  0  0  0  0  0  0  0  0
   -0.9937   65.4169   70.0245 H   0  0  0  0  0  0  0  0  0  0  0  0
    1.2850   66.4671   70.7940 H   0  0  0  0  0  0  0  0  0  0  0  0
    2.3718   64.4991   69.1057 H   0  0  0  0  0  0  0  0  0  0  0  0
    3.2489   65.1215   70.4930 H   0  0  0  0  0  0  0  0  0  0  0  0
    0.0214   62.3166   73.3931 H   0  0  0  0  0  0  0  0  0  0  0  0
    3.5878   62.0573   69.8499 H   0  0  0  0  0  0  0  0  0  0  0  0
    4.6471   59.8611   69.5947 H   0  0  0  0  0  0  0  0  0  0  0  0
    3.1824   58.9320   69.1275 H   0  0  0  0  0  0  0  0  0  0  0  0
    3.1447   60.7279   69.1275 H   0  0  0  0  0  0  0  0  0  0  0  0
   -0.1571   59.7299   74.6012 H   0  0  0  0  0  0  0  0  0  0  0  0
   -0.8111   60.5726   73.1559 H   0  0  0  0  0  0  0  0  0  0  0  0
   -0.6496   58.7836   73.1559 H   0  0  0  0  0  0  0  0  0  0  0  0
   -0.1035   69.8633   66.3219 H   0  0  0  0  0  0  0  0  0  0  0  0
   -2.1121   68.3999   66.4968 H   0  0  0  0  0  0  0  0  0  0  0  0
   -2.0818   66.4110   67.9863 H   0  0  0  0  0  0  0  0  0  0  0  0
    1.9120   67.4292   69.2792 H   0  0  0  0  0  0  0  0  0  0  0  0
    1.9533   70.5862   67.2822 H   0  0  0  0  0  0  0  0  0  0  0  0
    2.7222   69.6544   68.6530 H   0  0  0  0  0  0  0  0  0  0  0  0
    3.4826   68.0750   67.0287 H   0  0  0  0  0  0  0  0  0  0  0  0
    4.9059   69.3592   64.8720 H   0  0  0  0  0  0  0  0  0  0  0  0
    4.1363   68.2633   63.6748 H   0  0  0  0  0  0  0  0  0  0  0  0
    3.7383   70.0150   63.6748 H   0  0  0  0  0  0  0  0  0  0  0  0
    2.0369   69.6123   65.0864 H   0  0  0  0  0  0  0  0  0  0  0  0
    2.4818   67.8632   65.1308 H   0  0  0  0  0  0  0  0  0  0  0  0
    5.4542   69.0189   66.7578 H   0  0  0  0  0  0  0  0  0  0  0  0
    4.6980   70.5030   66.0266 H   0  0  0  0  0  0  0  0  0  0  0  0
    4.6504   69.7927   68.9867 H   0  0  0  0  0  0  0  0  0  0  0  0
    5.7840   70.9531   68.2153 H   0  0  0  0  0  0  0  0  0  0  0  0
    4.0190   71.2871   68.2153 H   0  0  0  0  0  0  0  0  0  0  0  0
  2  1  1  0
  3  2  1  0
  4  3  1  0
  5  4  2  0
  6  5  1  0
  6  2  1  0
  7  6  2  0
  8  5  1  0
  9  8  2  0
 10  9  1  0
 11 10  2  0
 11  4  1  0
 12 10  1  0
 13 12  1  0
 14  9  1  0
 15 14  1  0
 17 16  2  0
 18 17  1  0
 19 18  2  0
 20 19  1  0
 20  1  1  0
 21 20  2  0
 21 16  1  0
 22 16  1  0
 23 22  1  0
 25 24  1  0
 25 23  1  0
 26 23  1  0
 27 26  1  0
  1 28  1  0
  1 29  1  0
  2 30  1  1
  3 31  1  0
  3 32  1  0
  8 33  1  0
 11 34  1  0
 13 35  1  0
 13 36  1  0
 13 37  1  0
 15 38  1  0
 15 39  1  0
 15 40  1  0
 17 41  1  0
 18 42  1  0
 19 43  1  0
 21 44  1  0
 22 45  1  0
 22 46  1  0
 23 47  1  0
 24 48  1  0
 24 49  1  0
 24 50  1  0
 25 51  1  0
 25 52  1  0
 26 53  1  0
 26 54  1  0
 27 55  1  0
 27 56  1  0
 27 57  1  0
M  CHG  1  23   1
M  END
>  <score>  (1) 
-9.075

$$$$
=
     RDKit          3D

 57 59  0  0  0  0  0  0  0  0999 V2000
    5.5760   69.8410   65.1290 C   0  0  0  0  0  0  0  0  0  0  0  0
    4.3790   69.4690   64.2300 C   0  0  2  0  0  0  0  0  0  0  0  0
    3.2760   68.6630   64.9550 C   0  0  0  0  0  0  0  0  0  0  0  0
    3.5160   67.2550   64.5110 C   0  0  0  0  0  0  0  0  0  0  0  0
    4.3430   67.1950   63.3960 C   0  0  0  0  0  0  0  0  0  0  0  0
    4.8010   68.5500   63.0980 C   0  0  0  0  0  0  0  0  0  0  0  0
    5.4800   68.8470   62.1320 O   0  0  0  0  0  0  0  0  0  0  0  0
    4.7300   66.0070   62.8000 C   0  0  0  0  0  0  0  0  0  0  0  0
    4.2620   64.8140   63.3610 C   0  0  0  0  0  0  0  0  0  0  0  0
    3.4010   64.8650   64.4880 C   0  0  0  0  0  0  0  0  0  0  0  0
    3.0270   66.0880   65.0640 C   0  0  0  0  0  0  0  0  0  0  0  0
    2.9260   63.7590   65.1510 O   0  0  0  0  0  0  0  0  0  0  0  0
    3.6700   63.4430   66.3300 C   0  0  0  0  0  0  0  0  0  0  0  0
    4.6390   63.5700   62.9260 O   0  0  0  0  0  0  0  0  0  0  0  0
    5.8190   63.0090   63.4930 C   0  0  0  0  0  0  0  0  0  0  0  0
    3.7310   70.0190   68.4880 C   0  0  0  0  0  0  0  0  0  0  0  0
    4.7440   70.5330   69.3120 C   0  0  0  0  0  0  0  0  0  0  0  0
    5.9810   70.8750   68.7730 C   0  0  0  0  0  0  0  0  0  0  0  0
    6.2280   70.6850   67.4150 C   0  0  0  0  0  0  0  0  0  0  0  0
    5.2380   70.1610   66.5730 C   0  0  0  0  0  0  0  0  0  0  0  0
    3.9810   69.8610   67.1150 C   0  0  0  0  0  0  0  0  0  0  0  0
    2.4070   69.6170   69.0760 C   0  0  0  0  0  0  0  0  0  0  0  0
    1.4450   69.0310   68.0580 N   0  0  0  0  0  4  0  0  0  0  0  0
    1.4610   67.1310   69.6780 C   0  0  0  0  0  0  0  0  0  0  0  0
    1.1710   67.5510   68.2470 C   0  0  0  0  0  0  0  0  0  0  0  0
    0.1880   69.8600   67.9050 C   0  0  0  0  0  0  0  0  0  0  0  0
   -0.8010   69.2430   66.9320 C   0  0  0  0  0  0  0  0  0  0  0  0
    6.2777   68.9939   65.1256 H   0  0  0  0  0  0  0  0  0  0  0  0
    5.9934   70.7666   64.7059 H   0  0  0  0  0  0  0  0  0  0  0  0
    4.0029   70.4461   63.8925 H   0  0  0  0  0  0  0  0  0  0  0  0
    3.3778   68.7528   66.0466 H   0  0  0  0  0  0  0  0  0  0  0  0
    2.2624   69.0181   64.7172 H   0  0  0  0  0  0  0  0  0  0  0  0
    5.3835   66.0013   61.9151 H   0  0  0  0  0  0  0  0  0  0  0  0
    2.3587   66.1169   65.9372 H   0  0  0  0  0  0  0  0  0  0  0  0
    3.0735   63.6963   67.2189 H   0  0  0  0  0  0  0  0  0  0  0  0
    3.9034   62.3681   66.3392 H   0  0  0  0  0  0  0  0  0  0  0  0
    4.6056   64.0214   66.3392 H   0  0  0  0  0  0  0  0  0  0  0  0
    5.7499   63.0418   64.5903 H   0  0  0  0  0  0  0  0  0  0  0  0
    5.9236   61.9648   63.1633 H   0  0  0  0  0  0  0  0  0  0  0  0
    6.6948   63.5871   63.1633 H   0  0  0  0  0  0  0  0  0  0  0  0
    4.5598   70.6662   70.3883 H   0  0  0  0  0  0  0  0  0  0  0  0
    6.7646   71.2959   69.4201 H   0  0  0  0  0  0  0  0  0  0  0  0
    7.2114   70.9494   66.9991 H   0  0  0  0  0  0  0  0  0  0  0  0
    3.1791   69.4968   66.4560 H   0  0  0  0  0  0  0  0  0  0  0  0
    2.5874   68.8646   69.8579 H   0  0  0  0  0  0  0  0  0  0  0  0
    1.9397   70.5295   69.4748 H   0  0  0  0  0  0  0  0  0  0  0  0
    1.9365   69.0856   67.1545 H   0  0  0  0  0  0  0  0  0  0  0  0
    0.9760   67.8335   70.3718 H   0  0  0  0  0  0  0  0  0  0  0  0
    1.0694   66.1174   69.8492 H   0  0  0  0  0  0  0  0  0  0  0  0
    2.5476   67.1380   69.8492 H   0  0  0  0  0  0  0  0  0  0  0  0
    1.8126   66.9747   67.5642 H   0  0  0  0  0  0  0  0  0  0  0  0
    0.1106   67.3564   68.0287 H   0  0  0  0  0  0  0  0  0  0  0  0
   -0.2957   69.9521   68.8887 H   0  0  0  0  0  0  0  0  0  0  0  0
    0.4819   70.8417   67.5051 H   0  0  0  0  0  0  0  0  0  0  0  0
   -1.6037   68.7422   67.4932 H   0  0  0  0  0  0  0  0  0  0  0  0
   -1.2333   70.0319   66.2989 H   0  0  0  0  0  0  0  0  0  0  0  0
   -0.2825   68.5079   66.2989 H   0  0  0  0  0  0  0  0  0  0  0  0
  2  1  1  0
  3  2  1  0
  4  3  1  0
  5  4  2  0
  6  5  1  0
  6  2  1  0
  7  6  2  0
  8  5  1  0
  9  8  2  0
 10  9  1  0
 11 10  2  0
 11  4  1  0
 12 10  1  0
 13 12  1  0
 14  9  1  0
 15 14  1  0
 17 16  2  0
 18 17  1  0
 19 18  2  0
 20 19  1  0
 20  1  1  0
 21 20  2  0
 21 16  1  0
 22 16  1  0
 23 22  1  0
 25 24  1  0
 25 23  1  0
 26 23  1  0
 27 26  1  0
  1 28  1  0
  1 29  1  0
  2 30  1  6
  3 31  1  0
  3 32  1  0
  8 33  1  0
 11 34  1  0
 13 35  1  0
 13 36  1  0
 13 37  1  0
 15 38  1  0
 15 39  1  0
 15 40  1  0
 17 41  1  0
 18 42  1  0
 19 43  1  0
 21 44  1  0
 22 45  1  0
 22 46  1  0
 23 47  1  0
 24 48  1  0
 24 49  1  0
 24 50  1  0
 25 51  1  0
 25 52  1  0
 26 53  1  0
 26 54  1  0
 27 55  1  0
 27 56  1  0
 27 57  1  0
M  CHG  1  23   1
M  END
>  <score>  (2) 
-8.743

$$$$
=
     RDKit          3D

 57 59  0  0  0  0  0  0  0  0999 V2000
    1.2470   65.6680   70.3180 C   0  0  0  0  0  0  0  0  0  0  0  0
    0.6900   64.2290   70.3030 C   0  0  2  0  0  0  0  0  0  0  0  0
   -0.0370   63.8230   71.6070 C   0  0  0  0  0  0  0  0  0  0  0  0
    0.9700   62.9850   72.3290 C   0  0  0  0  0  0  0  0  0  0  0  0
    1.9990   62.5710   71.4920 C   0  0  0  0  0  0  0  0  0  0  0  0
    1.8060   63.2050   70.1890 C   0  0  0  0  0  0  0  0  0  0  0  0
    2.4960   62.9860   69.2100 O   0  0  0  0  0  0  0  0  0  0  0  0
    3.0640   61.7990   71.9210 C   0  0  0  0  0  0  0  0  0  0  0  0
    3.0970   61.4250   73.2690 C   0  0  0  0  0  0  0  0  0  0  0  0
    2.0400   61.8250   74.1280 C   0  0  0  0  0  0  0  0  0  0  0  0
    0.9750   62.6070   73.6570 C   0  0  0  0  0  0  0  0  0  0  0  0
    1.9960   61.5630   75.4760 O   0  0  0  0  0  0  0  0  0  0  0  0
    0.9240   60.6960   75.8490 C   0  0  0  0  0  0  0  0  0  0  0  0
    4.1350   60.7380   73.8420 O   0  0  0  0  0  0  0  0  0  0  0  0
    4.0920   59.3160   73.7760 C   0  0  0  0  0  0  0  0  0  0  0  0
    1.0060   68.2930   67.5310 C   0  0  0  0  0  0  0  0  0  0  0  0
   -0.3250   68.1170   67.1240 C   0  0  0  0  0  0  0  0  0  0  0  0
   -1.1470   67.2080   67.7870 C   0  0  0  0  0  0  0  0  0  0  0  0
   -0.6430   66.4500   68.8410 C   0  0  0  0  0  0  0  0  0  0  0  0
    0.6870   66.5980   69.2580 C   0  0  0  0  0  0  0  0  0  0  0  0
    1.4940   67.5460   68.6160 C   0  0  0  0  0  0  0  0  0  0  0  0
    1.9030   69.2490   66.7950 C   0  0  0  0  0  0  0  0  0  0  0  0
    3.0200   68.5640   66.0270 N   0  0  0  0  0  4  0  0  0  0  0  0
    2.6820   66.2980   65.0350 C   0  0  0  0  0  0  0  0  0  0  0  0
    2.5490   67.7940   64.8080 C   0  0  0  0  0  0  0  0  0  0  0  0
    4.1790   69.4930   65.7400 C   0  0  0  0  0  0  0  0  0  0  0  0
    4.9400   69.8790   66.9960 C   0  0  0  0  0  0  0  0  0  0  0  0
    1.0273   66.1059   71.3029 H   0  0  0  0  0  0  0  0  0  0  0  0
    2.3217   65.5773   70.1019 H   0  0  0  0  0  0  0  0  0  0  0  0
    0.0003   64.2335   69.4461 H   0  0  0  0  0  0  0  0  0  0  0  0
   -0.3054   64.7104   72.1989 H   0  0  0  0  0  0  0  0  0  0  0  0
   -0.9804   63.2890   71.4203 H   0  0  0  0  0  0  0  0  0  0  0  0
    3.8582   61.4896   71.2257 H   0  0  0  0  0  0  0  0  0  0  0  0
    0.1613   62.9125   74.3312 H   0  0  0  0  0  0  0  0  0  0  0  0
    0.8594   60.6437   76.9459 H   0  0  0  0  0  0  0  0  0  0  0  0
   -0.0213   61.0866   75.4442 H   0  0  0  0  0  0  0  0  0  0  0  0
    1.1083   59.6899   75.4442 H   0  0  0  0  0  0  0  0  0  0  0  0
    4.0795   58.9019   74.7950 H   0  0  0  0  0  0  0  0  0  0  0  0
    3.1839   59.0011   73.2410 H   0  0  0  0  0  0  0  0  0  0  0  0
    4.9794   58.9468   73.2410 H   0  0  0  0  0  0  0  0  0  0  0  0
   -0.7211   68.6986   66.2785 H   0  0  0  0  0  0  0  0  0  0  0  0
   -2.1958   67.0889   67.4774 H   0  0  0  0  0  0  0  0  0  0  0  0
   -1.2959   65.7271   69.3520 H   0  0  0  0  0  0  0  0  0  0  0  0
    2.5241   67.7078   68.9663 H   0  0  0  0  0  0  0  0  0  0  0  0
    1.2912   69.8217   66.0825 H   0  0  0  0  0  0  0  0  0  0  0  0
    2.3777   69.8930   67.5500 H   0  0  0  0  0  0  0  0  0  0  0  0
    3.3841   67.8388   66.6614 H   0  0  0  0  0  0  0  0  0  0  0  0
    2.7004   66.0913   66.1152 H   0  0  0  0  0  0  0  0  0  0  0  0
    1.8264   65.7801   64.5771 H   0  0  0  0  0  0  0  0  0  0  0  0
    3.6156   65.9392   64.5771 H   0  0  0  0  0  0  0  0  0  0  0  0
    3.1593   68.0834   63.9398 H   0  0  0  0  0  0  0  0  0  0  0  0
    1.4906   68.0319   64.6260 H   0  0  0  0  0  0  0  0  0  0  0  0
    4.8713   68.9901   65.0487 H   0  0  0  0  0  0  0  0  0  0  0  0
    3.7680   70.4145   65.3019 H   0  0  0  0  0  0  0  0  0  0  0  0
    4.3587   69.5842   67.8821 H   0  0  0  0  0  0  0  0  0  0  0  0
    5.9126   69.3652   67.0079 H   0  0  0  0  0  0  0  0  0  0  0  0
    5.1000   70.9672   67.0079 H   0  0  0  0  0  0  0  0  0  0  0  0
  2  1  1  0
  3  2  1  0
  4  3  1  0
  5  4  2  0
  6  5  1  0
  6  2  1  0
  7  6  2  0
  8  5  1  0
  9  8  2  0
 10  9  1  0
 11 10  2  0
 11  4  1  0
 12 10  1  0
 13 12  1  0
 14  9  1  0
 15 14  1  0
 17 16  2  0
 18 17  1  0
 19 18  2  0
 20 19  1  0
 20  1  1  0
 21 20  2  0
 21 16  1  0
 22 16  1  0
 23 22  1  0
 25 24  1  0
 25 23  1  0
 26 23  1  0
 27 26  1  0
  1 28  1  0
  1 29  1  0
  2 30  1  6
  3 31  1  0
  3 32  1  0
  8 33  1  0
 11 34  1  0
 13 35  1  0
 13 36  1  0
 13 37  1  0
 15 38  1  0
 15 39  1  0
 15 40  1  0
 17 41  1  0
 18 42  1  0
 19 43  1  0
 21 44  1  0
 22 45  1  0
 22 46  1  0
 23 47  1  0
 24 48  1  0
 24 49  1  0
 24 50  1  0
 25 51  1  0
 25 52  1  0
 26 53  1  0
 26 54  1  0
 27 55  1  0
 27 56  1  0
 27 57  1  0
M  CHG  1  23   1
M  END
>  <score>  (3) 
-8.63

$$$$
=
     RDKit          3D

 57 59  0  0  0  0  0  0  0  0999 V2000
    1.8650   67.5820   69.5570 C   0  0  0  0  0  0  0  0  0  0  0  0
    1.2040   68.1880   68.3020 C   0  0  2  0  0  0  0  0  0  0  0  0
    0.9740   67.1700   67.1600 C   0  0  0  0  0  0  0  0  0  0  0  0
    2.0890   67.4530   66.2040 C   0  0  0  0  0  0  0  0  0  0  0  0
    2.6890   68.6810   66.4520 C   0  0  0  0  0  0  0  0  0  0  0  0
    2.0910   69.2410   67.6620 C   0  0  0  0  0  0  0  0  0  0  0  0
    2.3460   70.3460   68.1040 O   0  0  0  0  0  0  0  0  0  0  0  0
    3.7550   69.1680   65.7160 C   0  0  0  0  0  0  0  0  0  0  0  0
    4.2470   68.3730   64.6750 C   0  0  0  0  0  0  0  0  0  0  0  0
    3.6270   67.1260   64.4000 C   0  0  0  0  0  0  0  0  0  0  0  0
    2.5470   66.6640   65.1660 C   0  0  0  0  0  0  0  0  0  0  0  0
    4.0590   66.2410   63.4410 O   0  0  0  0  0  0  0  0  0  0  0  0
    4.3640   64.9460   63.9620 C   0  0  0  0  0  0  0  0  0  0  0  0
    5.3500   68.6940   63.9280 O   0  0  0  0  0  0  0  0  0  0  0  0
    5.1240   69.2400   62.6320 C   0  0  0  0  0  0  0  0  0  0  0  0
    1.7910   63.8200   70.3060 C   0  0  0  0  0  0  0  0  0  0  0  0
    0.5420   63.7070   70.9360 C   0  0  0  0  0  0  0  0  0  0  0  0
   -0.2870   64.8200   71.0560 C   0  0  0  0  0  0  0  0  0  0  0  0
    0.1320   66.0580   70.5740 C   0  0  0  0  0  0  0  0  0  0  0  0
    1.3800   66.2000   69.9520 C   0  0  0  0  0  0  0  0  0  0  0  0
    2.1890   65.0670   69.7960 C   0  0  0  0  0  0  0  0  0  0  0  0
    2.7000   62.6270   70.2060 C   0  0  0  0  0  0  0  0  0  0  0  0
    3.5930   62.4410   71.4200 N   0  0  0  0  0  4  0  0  0  0  0  0
    2.5380   61.9720   73.6340 C   0  0  0  0  0  0  0  0  0  0  0  0
    3.1220   61.3590   72.3720 C   0  0  0  0  0  0  0  0  0  0  0  0
    5.0560   62.3220   71.0500 C   0  0  0  0  0  0  0  0  0  0  0  0
    5.6180   60.9420   71.3390 C   0  0  0  0  0  0  0  0  0  0  0  0
    2.9477   67.5206   69.3728 H   0  0  0  0  0  0  0  0  0  0  0  0
    1.5920   68.2458   70.3906 H   0  0  0  0  0  0  0  0  0  0  0  0
    0.2507   68.5823   68.6838 H   0  0  0  0  0  0  0  0  0  0  0  0
    1.0323   66.1381   67.5365 H   0  0  0  0  0  0  0  0  0  0  0  0
   -0.0193   67.2653   66.6972 H   0  0  0  0  0  0  0  0  0  0  0  0
    4.2009   70.1479   65.9420 H   0  0  0  0  0  0  0  0  0  0  0  0
    2.0750   65.6952   64.9455 H   0  0  0  0  0  0  0  0  0  0  0  0
    4.3556   64.9818   65.0614 H   0  0  0  0  0  0  0  0  0  0  0  0
    3.6114   64.2237   63.6129 H   0  0  0  0  0  0  0  0  0  0  0  0
    5.3598   64.6355   63.6129 H   0  0  0  0  0  0  0  0  0  0  0  0
    4.7049   70.2524   62.7286 H   0  0  0  0  0  0  0  0  0  0  0  0
    6.0761   69.2881   62.0832 H   0  0  0  0  0  0  0  0  0  0  0  0
    4.4164   68.6011   62.0832 H   0  0  0  0  0  0  0  0  0  0  0  0
    0.2164   62.7357   71.3366 H   0  0  0  0  0  0  0  0  0  0  0  0
   -1.2738   64.7212   71.5320 H   0  0  0  0  0  0  0  0  0  0  0  0
   -0.5241   66.9342   70.6828 H   0  0  0  0  0  0  0  0  0  0  0  0
    3.1493   65.1550   69.2668 H   0  0  0  0  0  0  0  0  0  0  0  0
    2.0800   61.7260   70.0888 H   0  0  0  0  0  0  0  0  0  0  0  0
    3.3600   62.7953   69.3422 H   0  0  0  0  0  0  0  0  0  0  0  0
    3.5048   63.3127   71.9615 H   0  0  0  0  0  0  0  0  0  0  0  0
    2.9912   61.4963   74.5163 H   0  0  0  0  0  0  0  0  0  0  0  0
    2.7503   63.0512   73.6496 H   0  0  0  0  0  0  0  0  0  0  0  0
    1.4498   61.8122   73.6496 H   0  0  0  0  0  0  0  0  0  0  0  0
    3.9751   60.7194   72.6425 H   0  0  0  0  0  0  0  0  0  0  0  0
    2.3423   60.7641   71.8739 H   0  0  0  0  0  0  0  0  0  0  0  0
    5.1662   62.5299   69.9755 H   0  0  0  0  0  0  0  0  0  0  0  0
    5.6154   63.0455   71.6612 H   0  0  0  0  0  0  0  0  0  0  0  0
    5.6793   60.7915   72.4269 H   0  0  0  0  0  0  0  0  0  0  0  0
    4.9592   60.1784   70.8998 H   0  0  0  0  0  0  0  0  0  0  0  0
    6.6228   60.8559   70.8998 H   0  0  0  0  0  0  0  0  0  0  0  0
  2  1  1  0
  3  2  1  0
  4  3  1  0
  5  4  2  0
  6  5  1  0
  6  2  1  0
  7  6  2  0
  8  5  1  0
  9  8  2  0
 10  9  1  0
 11 10  2  0
 11  4  1  0
 12 10  1  0
 13 12  1  0
 14  9  1  0
 15 14  1  0
 17 16  2  0
 18 17  1  0
 19 18  2  0
 20 19  1  0
 20  1  1  0
 21 20  2  0
 21 16  1  0
 22 16  1  0
 23 22  1  0
 25 24  1  0
 25 23  1  0
 26 23  1  0
 27 26  1  0
  1 28  1  0
  1 29  1  0
  2 30  1  1
  3 31  1  0
  3 32  1  0
  8 33  1  0
 11 34  1  0
 13 35  1  0
 13 36  1  0
 13 37  1  0
 15 38  1  0
 15 39  1  0
 15 40  1  0
 17 41  1  0
 18 42  1  0
 19 43  1  0
 21 44  1  0
 22 45  1  0
 22 46  1  0
 23 47  1  0
 24 48  1  0
 24 49  1  0
 24 50  1  0
 25 51  1  0
 25 52  1  0
 26 53  1  0
 26 54  1  0
 27 55  1  0
 27 56  1  0
 27 57  1  0
M  CHG  1  23   1
M  END
>  <score>  (4) 
-8.6

$$$$
=
     RDKit          3D

 57 59  0  0  0  0  0  0  0  0999 V2000
    1.0540   65.8490   70.3130 C   0  0  0  0  0  0  0  0  0  0  0  0
    1.2860   64.3450   70.0610 C   0  0  2  0  0  0  0  0  0  0  0  0
    0.0530   63.4610   70.3610 C   0  0  0  0  0  0  0  0  0  0  0  0
    0.3620   62.8630   71.6970 C   0  0  0  0  0  0  0  0  0  0  0  0
    1.7060   62.9900   72.0260 C   0  0  0  0  0  0  0  0  0  0  0  0
    2.3530   63.7860   70.9850 C   0  0  0  0  0  0  0  0  0  0  0  0
    3.5480   64.0140   70.9400 O   0  0  0  0  0  0  0  0  0  0  0  0
    2.2440   62.5330   73.2160 C   0  0  0  0  0  0  0  0  0  0  0  0
    1.3790   61.9150   74.1270 C   0  0  0  0  0  0  0  0  0  0  0  0
    0.0090   61.7600   73.7910 C   0  0  0  0  0  0  0  0  0  0  0  0
   -0.5010   62.2360   72.5740 C   0  0  0  0  0  0  0  0  0  0  0  0
   -0.9370   61.2200   74.6290 O   0  0  0  0  0  0  0  0  0  0  0  0
   -1.2600   59.8640   74.3180 C   0  0  0  0  0  0  0  0  0  0  0  0
    1.7630   61.4970   75.3740 O   0  0  0  0  0  0  0  0  0  0  0  0
    2.5630   60.3210   75.4520 C   0  0  0  0  0  0  0  0  0  0  0  0
    0.8660   67.9790   67.1280 C   0  0  0  0  0  0  0  0  0  0  0  0
   -0.4980   67.8620   66.8190 C   0  0  0  0  0  0  0  0  0  0  0  0
   -1.3510   67.1580   67.6660 C   0  0  0  0  0  0  0  0  0  0  0  0
   -0.8490   66.5450   68.8110 C   0  0  0  0  0  0  0  0  0  0  0  0
    0.5110   66.6360   69.1350 C   0  0  0  0  0  0  0  0  0  0  0  0
    1.3550   67.3830   68.3020 C   0  0  0  0  0  0  0  0  0  0  0  0
    1.7930   68.7100   66.1970 C   0  0  0  0  0  0  0  0  0  0  0  0
    1.9400   68.0450   64.8400 N   0  0  0  0  0  4  0  0  0  0  0  0
    0.3020   68.9490   63.1870 C   0  0  0  0  0  0  0  0  0  0  0  0
    1.7430   68.9860   63.6670 C   0  0  0  0  0  0  0  0  0  0  0  0
    3.1980   67.2090   64.7370 C   0  0  0  0  0  0  0  0  0  0  0  0
    2.9110   65.7190   64.7760 C   0  0  0  0  0  0  0  0  0  0  0  0
    0.3391   65.9465   71.1433 H   0  0  0  0  0  0  0  0  0  0  0  0
    2.0457   66.2743   70.5270 H   0  0  0  0  0  0  0  0  0  0  0  0
    1.5561   64.3062   68.9954 H   0  0  0  0  0  0  0  0  0  0  0  0
   -0.8633   64.0679   70.4054 H   0  0  0  0  0  0  0  0  0  0  0  0
   -0.1262   62.7019   69.5853 H   0  0  0  0  0  0  0  0  0  0  0  0
    3.3147   62.6512   73.4387 H   0  0  0  0  0  0  0  0  0  0  0  0
   -1.5650   62.1125   72.3237 H   0  0  0  0  0  0  0  0  0  0  0  0
   -1.3953   59.2962   75.2504 H   0  0  0  0  0  0  0  0  0  0  0  0
   -2.1905   59.8338   73.7321 H   0  0  0  0  0  0  0  0  0  0  0  0
   -0.4431   59.4176   73.7321 H   0  0  0  0  0  0  0  0  0  0  0  0
    2.7370   60.0652   76.5076 H   0  0  0  0  0  0  0  0  0  0  0  0
    2.0423   59.4896   74.9543 H   0  0  0  0  0  0  0  0  0  0  0  0
    3.5275   60.5000   74.9543 H   0  0  0  0  0  0  0  0  0  0  0  0
   -0.8949   68.3278   65.9049 H   0  0  0  0  0  0  0  0  0  0  0  0
   -2.4230   67.0863   67.4299 H   0  0  0  0  0  0  0  0  0  0  0  0
   -1.5281   65.9828   69.4688 H   0  0  0  0  0  0  0  0  0  0  0  0
    2.4146   67.5041   68.5713 H   0  0  0  0  0  0  0  0  0  0  0  0
    1.4027   69.7272   66.0454 H   0  0  0  0  0  0  0  0  0  0  0  0
    2.7880   68.7094   66.6661 H   0  0  0  0  0  0  0  0  0  0  0  0
    1.1522   67.3850   64.7718 H   0  0  0  0  0  0  0  0  0  0  0  0
   -0.3733   68.9317   64.0551 H   0  0  0  0  0  0  0  0  0  0  0  0
    0.0949   69.8421   62.5792 H   0  0  0  0  0  0  0  0  0  0  0  0
    0.1411   68.0464   62.5792 H   0  0  0  0  0  0  0  0  0  0  0  0
    2.4060   68.6812   62.8439 H   0  0  0  0  0  0  0  0  0  0  0  0
    1.9827   70.0098   63.9900 H   0  0  0  0  0  0  0  0  0  0  0  0
    3.7025   67.4463   63.7888 H   0  0  0  0  0  0  0  0  0  0  0  0
    3.8312   67.4500   65.6036 H   0  0  0  0  0  0  0  0  0  0  0  0
    2.8467   65.3852   65.8222 H   0  0  0  0  0  0  0  0  0  0  0  0
    1.9572   65.5159   64.2670 H   0  0  0  0  0  0  0  0  0  0  0  0
    3.7211   65.1761   64.2670 H   0  0  0  0  0  0  0  0  0  0  0  0
  2  1  1  0
  3  2  1  0
  4  3  1  0
  5  4  2  0
  6  5  1  0
  6  2  1  0
  7  6  2  0
  8  5  1  0
  9  8  2  0
 10  9  1  0
 11 10  2  0
 11  4  1  0
 12 10  1  0
 13 12  1  0
 14  9  1  0
 15 14  1  0
 17 16  2  0
 18 17  1  0
 19 18  2  0
 20 19  1  0
 20  1  1  0
 21 20  2  0
 21 16  1  0
 22 16  1  0
 23 22  1  0
 25 24  1  0
 25 23  1  0
 26 23  1  0
 27 26  1  0
  1 28  1  0
  1 29  1  0
  2 30  1  6
  3 31  1  0
  3 32  1  0
  8 33  1  0
 11 34  1  0
 13 35  1  0
 13 36  1  0
 13 37  1  0
 15 38  1  0
 15 39  1  0
 15 40  1  0
 17 41  1  0
 18 42  1  0
 19 43  1  0
 21 44  1  0
 22 45  1  0
 22 46  1  0
 23 47  1  0
 24 48  1  0
 24 49  1  0
 24 50  1  0
 25 51  1  0
 25 52  1  0
 26 53  1  0
 26 54  1  0
 27 55  1  0
 27 56  1  0
 27 57  1  0
M  CHG  1  23   1
M  END
>  <score>  (5) 
-8.153

$$$$
=
     RDKit          3D

 57 59  0  0  0  0  0  0  0  0999 V2000
    4.1250   63.0340   70.5490 C   0  0  0  0  0  0  0  0  0  0  0  0
    4.2280   61.5410   70.1740 C   0  0  2  0  0  0  0  0  0  0  0  0
    2.8740   60.7930   70.1940 C   0  0  0  0  0  0  0  0  0  0  0  0
    2.9020   60.0450   71.4890 C   0  0  0  0  0  0  0  0  0  0  0  0
    4.1830   59.9750   72.0220 C   0  0  0  0  0  0  0  0  0  0  0  0
    5.0690   60.7740   71.1790 C   0  0  0  0  0  0  0  0  0  0  0  0
    6.2740   60.8540   71.3330 O   0  0  0  0  0  0  0  0  0  0  0  0
    4.4740   59.3490   73.2220 C   0  0  0  0  0  0  0  0  0  0  0  0
    3.4150   58.7650   73.9260 C   0  0  0  0  0  0  0  0  0  0  0  0
    2.1060   58.8120   73.3790 C   0  0  0  0  0  0  0  0  0  0  0  0
    1.8480   59.4540   72.1590 C   0  0  0  0  0  0  0  0  0  0  0  0
    0.9860   58.3210   74.0070 O   0  0  0  0  0  0  0  0  0  0  0  0
    0.5760   57.0440   73.5150 C   0  0  0  0  0  0  0  0  0  0  0  0
    3.5490   58.1930   75.1640 O   0  0  0  0  0  0  0  0  0  0  0  0
    3.4460   59.0520   76.2950 C   0  0  0  0  0  0  0  0  0  0  0  0
    1.0190   63.7110   72.6970 C   0  0  0  0  0  0  0  0  0  0  0  0
    0.3270   64.6120   71.8740 C   0  0  0  0  0  0  0  0  0  0  0  0
    0.8300   64.9430   70.6180 C   0  0  0  0  0  0  0  0  0  0  0  0
    2.0360   64.3990   70.1820 C   0  0  0  0  0  0  0  0  0  0  0  0
    2.7530   63.5060   70.9910 C   0  0  0  0  0  0  0  0  0  0  0  0
    2.2190   63.1450   72.2350 C   0  0  0  0  0  0  0  0  0  0  0  0
    0.4960   63.3810   74.0670 C   0  0  0  0  0  0  0  0  0  0  0  0
   -0.8850   62.7490   74.0530 N   0  0  0  0  0  4  0  0  0  0  0  0
   -1.7370   60.4250   73.7260 C   0  0  0  0  0  0  0  0  0  0  0  0
   -1.0290   61.6010   73.0730 C   0  0  0  0  0  0  0  0  0  0  0  0
   -1.3860   62.4200   75.4430 C   0  0  0  0  0  0  0  0  0  0  0  0
   -0.3500   62.7050   76.5170 C   0  0  0  0  0  0  0  0  0  0  0  0
    4.8299   63.2257   71.3714 H   0  0  0  0  0  0  0  0  0  0  0  0
    4.3528   63.5916   69.6286 H   0  0  0  0  0  0  0  0  0  0  0  0
    4.6563   61.5641   69.1611 H   0  0  0  0  0  0  0  0  0  0  0  0
    2.0335   61.5022   70.1686 H   0  0  0  0  0  0  0  0  0  0  0  0
    2.7378   60.1342   69.3237 H   0  0  0  0  0  0  0  0  0  0  0  0
    5.5030   59.3119   73.6090 H   0  0  0  0  0  0  0  0  0  0  0  0
    0.8294   59.4863   71.7449 H   0  0  0  0  0  0  0  0  0  0  0  0
    0.3616   56.3762   74.3624 H   0  0  0  0  0  0  0  0  0  0  0  0
   -0.3298   57.1608   72.9019 H   0  0  0  0  0  0  0  0  0  0  0  0
    1.3805   56.6117   72.9019 H   0  0  0  0  0  0  0  0  0  0  0  0
    3.5175   58.4553   77.2163 H   0  0  0  0  0  0  0  0  0  0  0  0
    4.2622   59.7891   76.2712 H   0  0  0  0  0  0  0  0  0  0  0  0
    2.4787   59.5752   76.2712 H   0  0  0  0  0  0  0  0  0  0  0  0
   -0.6162   65.0587   72.2218 H   0  0  0  0  0  0  0  0  0  0  0  0
    0.2738   65.6354   69.9690 H   0  0  0  0  0  0  0  0  0  0  0  0
    2.4301   64.6730   69.1923 H   0  0  0  0  0  0  0  0  0  0  0  0
    2.7466   62.4082   72.8586 H   0  0  0  0  0  0  0  0  0  0  0  0
    1.1948   62.6799   74.5467 H   0  0  0  0  0  0  0  0  0  0  0  0
    0.4119   64.3293   74.6180 H   0  0  0  0  0  0  0  0  0  0  0  0
   -1.5150   63.4768   73.6865 H   0  0  0  0  0  0  0  0  0  0  0  0
   -1.6780   60.5230   74.8200 H   0  0  0  0  0  0  0  0  0  0  0  0
   -2.7921   60.4137   73.4153 H   0  0  0  0  0  0  0  0  0  0  0  0
   -1.2532   59.4872   73.4153 H   0  0  0  0  0  0  0  0  0  0  0  0
   -0.0301   61.2822   72.7405 H   0  0  0  0  0  0  0  0  0  0  0  0
   -1.6257   61.9412   72.2138 H   0  0  0  0  0  0  0  0  0  0  0  0
   -2.2818   63.0248   75.6475 H   0  0  0  0  0  0  0  0  0  0  0  0
   -1.6099   61.3434   75.4716 H   0  0  0  0  0  0  0  0  0  0  0  0
   -0.8069   62.5793   77.5097 H   0  0  0  0  0  0  0  0  0  0  0  0
    0.4917   62.0050   76.4095 H   0  0  0  0  0  0  0  0  0  0  0  0
    0.0153   63.7370   76.4095 H   0  0  0  0  0  0  0  0  0  0  0  0
  2  1  1  0
  3  2  1  0
  4  3  1  0
  5  4  2  0
  6  5  1  0
  6  2  1  0
  7  6  2  0
  8  5  1  0
  9  8  2  0
 10  9  1  0
 11 10  2  0
 11  4  1  0
 12 10  1  0
 13 12  1  0
 14  9  1  0
 15 14  1  0
 17 16  2  0
 18 17  1  0
 19 18  2  0
 20 19  1  0
 20  1  1  0
 21 20  2  0
 21 16  1  0
 22 16  1  0
 23 22  1  0
 25 24  1  0
 25 23  1  0
 26 23  1  0
 27 26  1  0
  1 28  1  0
  1 29  1  0
  2 30  1  6
  3 31  1  0
  3 32  1  0
  8 33  1  0
 11 34  1  0
 13 35  1  0
 13 36  1  0
 13 37  1  0
 15 38  1  0
 15 39  1  0
 15 40  1  0
 17 41  1  0
 18 42  1  0
 19 43  1  0
 21 44  1  0
 22 45  1  0
 22 46  1  0
 23 47  1  0
 24 48  1  0
 24 49  1  0
 24 50  1  0
 25 51  1  0
 25 52  1  0
 26 53  1  0
 26 54  1  0
 27 55  1  0
 27 56  1  0
 27 57  1  0
M  CHG  1  23   1
M  END
>  <score>  (6) 
-7.957

$$$$
=
     RDKit          3D

 57 59  0  0  0  0  0  0  0  0999 V2000
    2.7390   61.7320   69.0550 C   0  0  0  0  0  0  0  0  0  0  0  0
    3.9780   61.0480   69.6700 C   0  0  2  0  0  0  0  0  0  0  0  0
    3.7740   59.5470   69.9840 C   0  0  0  0  0  0  0  0  0  0  0  0
    3.5400   59.5230   71.4610 C   0  0  0  0  0  0  0  0  0  0  0  0
    3.9240   60.7110   72.0690 C   0  0  0  0  0  0  0  0  0  0  0  0
    4.3270   61.6460   71.0210 C   0  0  0  0  0  0  0  0  0  0  0  0
    4.7910   62.7520   71.2300 O   0  0  0  0  0  0  0  0  0  0  0  0
    3.7940   60.9470   73.4270 C   0  0  0  0  0  0  0  0  0  0  0  0
    3.2440   59.9310   74.2150 C   0  0  0  0  0  0  0  0  0  0  0  0
    2.8670   58.7050   73.6070 C   0  0  0  0  0  0  0  0  0  0  0  0
    3.0150   58.5000   72.2280 C   0  0  0  0  0  0  0  0  0  0  0  0
    2.2690   57.6620   74.2730 O   0  0  0  0  0  0  0  0  0  0  0  0
    0.8490   57.6350   74.1230 C   0  0  0  0  0  0  0  0  0  0  0  0
    2.9790   60.0660   75.5530 O   0  0  0  0  0  0  0  0  0  0  0  0
    1.8460   60.8470   75.9190 C   0  0  0  0  0  0  0  0  0  0  0  0
    1.2930   65.0460   70.3370 C   0  0  0  0  0  0  0  0  0  0  0  0
    0.5590   64.5970   71.4450 C   0  0  0  0  0  0  0  0  0  0  0  0
    0.5880   63.2520   71.8060 C   0  0  0  0  0  0  0  0  0  0  0  0
    1.3250   62.3410   71.0520 C   0  0  0  0  0  0  0  0  0  0  0  0
    2.0550   62.7630   69.9330 C   0  0  0  0  0  0  0  0  0  0  0  0
    2.0570   64.1250   69.6020 C   0  0  0  0  0  0  0  0  0  0  0  0
    1.2360   66.4910   69.9250 C   0  0  0  0  0  0  0  0  0  0  0  0
    0.6130   66.7090   68.5580 N   0  0  0  0  0  4  0  0  0  0  0  0
   -1.4290   67.1990   67.2060 C   0  0  0  0  0  0  0  0  0  0  0  0
   -0.9000   66.8200   68.5790 C   0  0  0  0  0  0  0  0  0  0  0  0
    1.2860   67.8230   67.7860 C   0  0  0  0  0  0  0  0  0  0  0  0
    1.9430   68.8460   68.6950 C   0  0  0  0  0  0  0  0  0  0  0  0
    3.0545   62.2330   68.1279 H   0  0  0  0  0  0  0  0  0  0  0  0
    2.0002   60.9320   68.8995 H   0  0  0  0  0  0  0  0  0  0  0  0
    4.7547   61.1946   68.9050 H   0  0  0  0  0  0  0  0  0  0  0  0
    2.9039   59.1476   69.4424 H   0  0  0  0  0  0  0  0  0  0  0  0
    4.6294   58.9270   69.6776 H   0  0  0  0  0  0  0  0  0  0  0  0
    4.1126   61.9016   73.8712 H   0  0  0  0  0  0  0  0  0  0  0  0
    2.7198   57.5461   71.7666 H   0  0  0  0  0  0  0  0  0  0  0  0
    0.3755   57.6260   75.1158 H   0  0  0  0  0  0  0  0  0  0  0  0
    0.5218   58.5271   73.5688 H   0  0  0  0  0  0  0  0  0  0  0  0
    0.5560   56.7311   73.5688 H   0  0  0  0  0  0  0  0  0  0  0  0
    1.7737   60.8968   77.0155 H   0  0  0  0  0  0  0  0  0  0  0  0
    1.9543   61.8632   75.5121 H   0  0  0  0  0  0  0  0  0  0  0  0
    0.9348   60.3843   75.5121 H   0  0  0  0  0  0  0  0  0  0  0  0
   -0.0412   65.3091   72.0304 H   0  0  0  0  0  0  0  0  0  0  0  0
    0.0279   62.9083   72.6881 H   0  0  0  0  0  0  0  0  0  0  0  0
    1.3338   61.2790   71.3384 H   0  0  0  0  0  0  0  0  0  0  0  0
    2.6649   64.4771   68.7555 H   0  0  0  0  0  0  0  0  0  0  0  0
    0.6424   67.0417   70.6695 H   0  0  0  0  0  0  0  0  0  0  0  0
    2.2737   66.8513   69.8677 H   0  0  0  0  0  0  0  0  0  0  0  0
    0.7978   65.8429   68.0321 H   0  0  0  0  0  0  0  0  0  0  0  0
   -2.3185   67.8363   67.3188 H   0  0  0  0  0  0  0  0  0  0  0  0
   -0.6527   67.7477   66.6526 H   0  0  0  0  0  0  0  0  0  0  0  0
   -1.6988   66.2875   66.6526 H   0  0  0  0  0  0  0  0  0  0  0  0
   -1.1956   67.5912   69.3055 H   0  0  0  0  0  0  0  0  0  0  0  0
   -1.3225   65.8453   68.8645 H   0  0  0  0  0  0  0  0  0  0  0  0
    2.0557   67.3850   67.1336 H   0  0  0  0  0  0  0  0  0  0  0  0
    0.5103   68.3423   67.2042 H   0  0  0  0  0  0  0  0  0  0  0  0
    1.7661   68.5706   69.7452 H   0  0  0  0  0  0  0  0  0  0  0  0
    3.0252   68.8690   68.4993 H   0  0  0  0  0  0  0  0  0  0  0  0
    1.5138   69.8397   68.4993 H   0  0  0  0  0  0  0  0  0  0  0  0
  2  1  1  0
  3  2  1  0
  4  3  1  0
  5  4  2  0
  6  5  1  0
  6  2  1  0
  7  6  2  0
  8  5  1  0
  9  8  2  0
 10  9  1  0
 11 10  2  0
 11  4  1  0
 12 10  1  0
 13 12  1  0
 14  9  1  0
 15 14  1  0
 17 16  2  0
 18 17  1  0
 19 18  2  0
 20 19  1  0
 20  1  1  0
 21 20  2  0
 21 16  1  0
 22 16  1  0
 23 22  1  0
 25 24  1  0
 25 23  1  0
 26 23  1  0
 27 26  1  0
  1 28  1  0
  1 29  1  0
  2 30  1  6
  3 31  1  0
  3 32  1  0
  8 33  1  0
 11 34  1  0
 13 35  1  0
 13 36  1  0
 13 37  1  0
 15 38  1  0
 15 39  1  0
 15 40  1  0
 17 41  1  0
 18 42  1  0
 19 43  1  0
 21 44  1  0
 22 45  1  0
 22 46  1  0
 23 47  1  0
 24 48  1  0
 24 49  1  0
 24 50  1  0
 25 51  1  0
 25 52  1  0
 26 53  1  0
 26 54  1  0
 27 55  1  0
 27 56  1  0
 27 57  1  0
M  CHG  1  23   1
M  END
>  <score>  (7) 
-7.908

$$$$
=
     RDKit          3D

 57 59  0  0  0  0  0  0  0  0999 V2000
   -0.3660   62.7220   71.6810 C   0  0  0  0  0  0  0  0  0  0  0  0
   -0.4690   62.4640   73.1980 C   0  0  2  0  0  0  0  0  0  0  0  0
    0.8760   62.0880   73.8650 C   0  0  0  0  0  0  0  0  0  0  0  0
    0.7890   60.6040   74.0240 C   0  0  0  0  0  0  0  0  0  0  0  0
   -0.5120   60.1390   73.8800 C   0  0  0  0  0  0  0  0  0  0  0  0
   -1.3560   61.2690   73.4980 C   0  0  0  0  0  0  0  0  0  0  0  0
   -2.5660   61.2090   73.3700 O   0  0  0  0  0  0  0  0  0  0  0  0
   -0.8560   58.8010   73.9680 C   0  0  0  0  0  0  0  0  0  0  0  0
    0.1680   57.8800   74.2100 C   0  0  0  0  0  0  0  0  0  0  0  0
    1.4980   58.3460   74.3790 C   0  0  0  0  0  0  0  0  0  0  0  0
    1.8100   59.7100   74.2860 C   0  0  0  0  0  0  0  0  0  0  0  0
    2.5870   57.5290   74.5670 O   0  0  0  0  0  0  0  0  0  0  0  0
    3.7180   58.2090   75.1130 C   0  0  0  0  0  0  0  0  0  0  0  0
   -0.0200   56.5230   74.2320 O   0  0  0  0  0  0  0  0  0  0  0  0
   -1.2270   56.0400   74.8150 C   0  0  0  0  0  0  0  0  0  0  0  0
    3.0310   62.0050   70.0480 C   0  0  0  0  0  0  0  0  0  0  0  0
    3.5310   63.3080   69.9080 C   0  0  0  0  0  0  0  0  0  0  0  0
    2.8060   64.3940   70.3950 C   0  0  0  0  0  0  0  0  0  0  0  0
    1.5680   64.1920   71.0000 C   0  0  0  0  0  0  0  0  0  0  0  0
    1.0410   62.9010   71.1400 C   0  0  0  0  0  0  0  0  0  0  0  0
    1.7960   61.8110   70.6880 C   0  0  0  0  0  0  0  0  0  0  0  0
    3.7970   60.8360   69.4930 C   0  0  0  0  0  0  0  0  0  0  0  0
    4.6190   60.0990   70.5350 N   0  0  0  0  0  4  0  0  0  0  0  0
    5.1040   61.1570   72.7440 C   0  0  0  0  0  0  0  0  0  0  0  0
    5.5740   60.9870   71.3090 C   0  0  0  0  0  0  0  0  0  0  0  0
    3.7710   59.2120   71.4200 C   0  0  0  0  0  0  0  0  0  0  0  0
    3.3920   57.9070   70.7440 C   0  0  0  0  0  0  0  0  0  0  0  0
   -0.8224   61.8671   71.1606 H   0  0  0  0  0  0  0  0  0  0  0  0
   -0.8807   63.6777   71.5028 H   0  0  0  0  0  0  0  0  0  0  0  0
   -0.8569   63.4159   73.5897 H   0  0  0  0  0  0  0  0  0  0  0  0
    1.7241   62.3647   73.2214 H   0  0  0  0  0  0  0  0  0  0  0  0
    1.0399   62.6104   74.8190 H   0  0  0  0  0  0  0  0  0  0  0  0
   -1.8996   58.4734   73.8515 H   0  0  0  0  0  0  0  0  0  0  0  0
    2.8442   60.0606   74.4186 H   0  0  0  0  0  0  0  0  0  0  0  0
    3.6686   58.1793   76.2115 H   0  0  0  0  0  0  0  0  0  0  0  0
    4.6411   57.7160   74.7740 H   0  0  0  0  0  0  0  0  0  0  0  0
    3.7155   59.2555   74.7740 H   0  0  0  0  0  0  0  0  0  0  0  0
   -1.1436   56.0734   75.9113 H   0  0  0  0  0  0  0  0  0  0  0  0
   -2.0683   56.6707   74.4919 H   0  0  0  0  0  0  0  0  0  0  0  0
   -1.4009   55.0030   74.4919 H   0  0  0  0  0  0  0  0  0  0  0  0
    4.4988   63.4733   69.4120 H   0  0  0  0  0  0  0  0  0  0  0  0
    3.2121   65.4120   70.3014 H   0  0  0  0  0  0  0  0  0  0  0  0
    0.9973   65.0556   71.3722 H   0  0  0  0  0  0  0  0  0  0  0  0
    1.4164   60.7893   70.8364 H   0  0  0  0  0  0  0  0  0  0  0  0
    3.0800   60.1284   69.0513 H   0  0  0  0  0  0  0  0  0  0  0  0
    4.5020   61.2357   68.7492 H   0  0  0  0  0  0  0  0  0  0  0  0
    5.2341   59.4675   70.0023 H   0  0  0  0  0  0  0  0  0  0  0  0
    5.9116   60.8649   73.4314 H   0  0  0  0  0  0  0  0  0  0  0  0
    4.8356   62.2092   72.9197 H   0  0  0  0  0  0  0  0  0  0  0  0
    4.2246   60.5200   72.9197 H   0  0  0  0  0  0  0  0  0  0  0  0
    5.6222   61.9738   70.8253 H   0  0  0  0  0  0  0  0  0  0  0  0
    6.5684   60.5168   71.3154 H   0  0  0  0  0  0  0  0  0  0  0  0
    4.3363   58.9836   72.3356 H   0  0  0  0  0  0  0  0  0  0  0  0
    2.8407   59.7548   71.6433 H   0  0  0  0  0  0  0  0  0  0  0  0
    3.1716   57.1482   71.5092 H   0  0  0  0  0  0  0  0  0  0  0  0
    2.5023   58.0640   70.1164 H   0  0  0  0  0  0  0  0  0  0  0  0
    4.2274   57.5630   70.1164 H   0  0  0  0  0  0  0  0  0  0  0  0
  2  1  1  0
  3  2  1  0
  4  3  1  0
  5  4  2  0
  6  5  1  0
  6  2  1  0
  7  6  2  0
  8  5  1  0
  9  8  2  0
 10  9  1  0
 11 10  2  0
 11  4  1  0
 12 10  1  0
 13 12  1  0
 14  9  1  0
 15 14  1  0
 17 16  2  0
 18 17  1  0
 19 18  2  0
 20 19  1  0
 20  1  1  0
 21 20  2  0
 21 16  1  0
 22 16  1  0
 23 22  1  0
 25 24  1  0
 25 23  1  0
 26 23  1  0
 27 26  1  0
  1 28  1  0
  1 29  1  0
  2 30  1  1
  3 31  1  0
  3 32  1  0
  8 33  1  0
 11 34  1  0
 13 35  1  0
 13 36  1  0
 13 37  1  0
 15 38  1  0
 15 39  1  0
 15 40  1  0
 17 41  1  0
 18 42  1  0
 19 43  1  0
 21 44  1  0
 22 45  1  0
 22 46  1  0
 23 47  1  0
 24 48  1  0
 24 49  1  0
 24 50  1  0
 25 51  1  0
 25 52  1  0
 26 53  1  0
 26 54  1  0
 27 55  1  0
 27 56  1  0
 27 57  1  0
M  CHG  1  23   1
M  END
>  <score>  (8) 
-7.859

$$$$
=
     RDKit          3D

 57 59  0  0  0  0  0  0  0  0999 V2000
    4.5010   60.2140   72.2770 C   0  0  0  0  0  0  0  0  0  0  0  0
    3.5150   59.1330   72.7630 C   0  0  2  0  0  0  0  0  0  0  0  0
    2.1170   59.2160   72.1050 C   0  0  0  0  0  0  0  0  0  0  0  0
    1.2720   59.8700   73.1500 C   0  0  0  0  0  0  0  0  0  0  0  0
    1.8780   59.8460   74.4000 C   0  0  0  0  0  0  0  0  0  0  0  0
    3.2160   59.2810   74.2440 C   0  0  0  0  0  0  0  0  0  0  0  0
    3.9760   59.0520   75.1670 O   0  0  0  0  0  0  0  0  0  0  0  0
    1.3070   60.4010   75.5330 C   0  0  0  0  0  0  0  0  0  0  0  0
    0.0580   61.0170   75.3970 C   0  0  0  0  0  0  0  0  0  0  0  0
   -0.5790   61.0290   74.1290 C   0  0  0  0  0  0  0  0  0  0  0  0
    0.0290   60.4550   73.0030 C   0  0  0  0  0  0  0  0  0  0  0  0
   -1.7760   61.6510   73.8700 O   0  0  0  0  0  0  0  0  0  0  0  0
   -2.9100   60.8070   74.0780 C   0  0  0  0  0  0  0  0  0  0  0  0
   -0.5760   61.6800   76.4160 O   0  0  0  0  0  0  0  0  0  0  0  0
   -0.9190   60.9250   77.5730 C   0  0  0  0  0  0  0  0  0  0  0  0
    3.0530   63.2070   70.3620 C   0  0  0  0  0  0  0  0  0  0  0  0
    3.3270   62.8260   69.0400 C   0  0  0  0  0  0  0  0  0  0  0  0
    3.9130   61.5900   68.7740 C   0  0  0  0  0  0  0  0  0  0  0  0
    4.2520   60.7370   69.8220 C   0  0  0  0  0  0  0  0  0  0  0  0
    4.0010   61.1010   71.1510 C   0  0  0  0  0  0  0  0  0  0  0  0
    3.3720   62.3260   71.4090 C   0  0  0  0  0  0  0  0  0  0  0  0
    2.4530   64.5540   70.6530 C   0  0  0  0  0  0  0  0  0  0  0  0
    0.9570   64.6200   70.4000 N   0  0  0  0  0  4  0  0  0  0  0  0
    0.3760   64.1520   72.7830 C   0  0  0  0  0  0  0  0  0  0  0  0
    0.1340   63.7560   71.3370 C   0  0  0  0  0  0  0  0  0  0  0  0
    0.4490   66.0410   70.2920 C   0  0  0  0  0  0  0  0  0  0  0  0
    1.3790   66.9310   69.4870 C   0  0  0  0  0  0  0  0  0  0  0  0
    4.7441   60.8597   73.1337 H   0  0  0  0  0  0  0  0  0  0  0  0
    5.3660   59.6702   71.8695 H   0  0  0  0  0  0  0  0  0  0  0  0
    4.0235   58.1927   72.5036 H   0  0  0  0  0  0  0  0  0  0  0  0
    2.1499   59.8249   71.1895 H   0  0  0  0  0  0  0  0  0  0  0  0
    1.7310   58.2326   71.7985 H   0  0  0  0  0  0  0  0  0  0  0  0
    1.8177   60.3590   76.5063 H   0  0  0  0  0  0  0  0  0  0  0  0
   -0.4728   60.4702   72.0242 H   0  0  0  0  0  0  0  0  0  0  0  0
   -3.0799   60.6806   75.1574 H   0  0  0  0  0  0  0  0  0  0  0  0
   -3.7978   61.2658   73.6184 H   0  0  0  0  0  0  0  0  0  0  0  0
   -2.7253   59.8248   73.6184 H   0  0  0  0  0  0  0  0  0  0  0  0
   -0.6587   61.4980   78.4752 H   0  0  0  0  0  0  0  0  0  0  0  0
   -1.9994   60.7183   77.5689 H   0  0  0  0  0  0  0  0  0  0  0  0
   -0.3640   59.9753   77.5689 H   0  0  0  0  0  0  0  0  0  0  0  0
    3.0785   63.5049   68.2109 H   0  0  0  0  0  0  0  0  0  0  0  0
    4.1083   61.2873   67.7347 H   0  0  0  0  0  0  0  0  0  0  0  0
    4.7220   59.7668   69.6033 H   0  0  0  0  0  0  0  0  0  0  0  0
    3.1247   62.6017   72.4448 H   0  0  0  0  0  0  0  0  0  0  0  0
    2.6381   64.7963   71.7099 H   0  0  0  0  0  0  0  0  0  0  0  0
    2.9280   65.2734   69.9698 H   0  0  0  0  0  0  0  0  0  0  0  0
    0.8179   64.1952   69.4720 H   0  0  0  0  0  0  0  0  0  0  0  0
   -0.0805   63.4050   73.4491 H   0  0  0  0  0  0  0  0  0  0  0  0
    1.4583   64.2006   72.9737 H   0  0  0  0  0  0  0  0  0  0  0  0
   -0.0745   65.1372   72.9737 H   0  0  0  0  0  0  0  0  0  0  0  0
    0.4173   62.7021   71.1989 H   0  0  0  0  0  0  0  0  0  0  0  0
   -0.9318   63.8980   71.1048 H   0  0  0  0  0  0  0  0  0  0  0  0
   -0.5365   66.0272   69.8036 H   0  0  0  0  0  0  0  0  0  0  0  0
    0.3899   66.4532   71.3101 H   0  0  0  0  0  0  0  0  0  0  0  0
    2.0009   67.5261   70.1719 H   0  0  0  0  0  0  0  0  0  0  0  0
    2.0259   66.3070   68.8529 H   0  0  0  0  0  0  0  0  0  0  0  0
    0.7840   67.6047   68.8529 H   0  0  0  0  0  0  0  0  0  0  0  0
  2  1  1  0
  3  2  1  0
  4  3  1  0
  5  4  2  0
  6  5  1  0
  6  2  1  0
  7  6  2  0
  8  5  1  0
  9  8  2  0
 10  9  1  0
 11 10  2  0
 11  4  1  0
 12 10  1  0
 13 12  1  0
 14  9  1  0
 15 14  1  0
 17 16  2  0
 18 17  1  0
 19 18  2  0
 20 19  1  0
 20  1  1  0
 21 20  2  0
 21 16  1  0
 22 16  1  0
 23 22  1  0
 25 24  1  0
 25 23  1  0
 26 23  1  0
 27 26  1  0
  1 28  1  0
  1 29  1  0
  2 30  1  1
  3 31  1  0
  3 32  1  0
  8 33  1  0
 11 34  1  0
 13 35  1  0
 13 36  1  0
 13 37  1  0
 15 38  1  0
 15 39  1  0
 15 40  1  0
 17 41  1  0
 18 42  1  0
 19 43  1  0
 21 44  1  0
 22 45  1  0
 22 46  1  0
 23 47  1  0
 24 48  1  0
 24 49  1  0
 24 50  1  0
 25 51  1  0
 25 52  1  0
 26 53  1  0
 26 54  1  0
 27 55  1  0
 27 56  1  0
 27 57  1  0
M  CHG  1  23   1
M  END
>  <score>  (9) 
-7.842

$$$$
