=
     RDKit          3D

 28 28  0  0  0  0  0  0  0  0999 V2000
    1.3250   69.1370   67.1200 C   0  0  0  0  0  0  0  0  0  0  0  0
    2.7350   69.5810   67.4400 C   0  0  0  0  0  0  0  0  0  0  0  0
    3.0500   70.1200   68.6980 C   0  0  0  0  0  0  0  0  0  0  0  0
    4.3560   70.5150   69.0040 C   0  0  0  0  0  0  0  0  0  0  0  0
    5.3490   70.3750   68.0430 C   0  0  0  0  0  0  0  0  0  0  0  0
    5.0440   69.8490   66.7920 C   0  0  0  0  0  0  0  0  0  0  0  0
    3.7510   69.4520   66.4810 C   0  0  0  0  0  0  0  0  0  0  0  0
    6.0250   69.7120   65.8520 O   0  0  0  0  0  0  0  0  0  0  0  0
    6.6450   70.7390   68.2840 O   0  0  0  0  0  0  0  0  0  0  0  0
    0.9890   67.6540   67.4000 C   0  0  2  0  0  0  0  0  0  0  0  0
    1.2500   67.1750   68.8200 C   0  0  0  0  0  0  0  0  0  0  0  0
    1.8890   66.8020   66.4720 N   0  0  0  0  0  4  0  0  0  0  0  0
   -1.0800   66.6750   67.7710 O   0  0  0  0  0  1  0  0  0  0  0  0
   -0.4820   67.4110   66.9130 C   0  0  0  0  0  0  0  0  0  0  0  0
   -0.8730   67.9690   65.8690 O   0  0  0  0  0  0  0  0  0  0  0  0
    0.6368   69.7541   67.7163 H   0  0  0  0  0  0  0  0  0  0  0  0
    1.2211   69.2588   66.0317 H   0  0  0  0  0  0  0  0  0  0  0  0
    2.2582   70.2330   69.4532 H   0  0  0  0  0  0  0  0  0  0  0  0
    4.5941   70.9316   69.9938 H   0  0  0  0  0  0  0  0  0  0  0  0
    3.5238   69.0382   65.4874 H   0  0  0  0  0  0  0  0  0  0  0  0
    5.8084   69.3377   64.9615 H   0  0  0  0  0  0  0  0  0  0  0  0
    7.3301   70.6268   67.5782 H   0  0  0  0  0  0  0  0  0  0  0  0
    0.8497   67.9096   69.5342 H   0  0  0  0  0  0  0  0  0  0  0  0
    0.7559   66.2048   68.9763 H   0  0  0  0  0  0  0  0  0  0  0  0
    2.3332   67.0642   68.9763 H   0  0  0  0  0  0  0  0  0  0  0  0
    2.5113   66.2129   67.0435 H   0  0  0  0  0  0  0  0  0  0  0  0
    1.2991   66.2024   65.8775 H   0  0  0  0  0  0  0  0  0  0  0  0
    2.4554   67.4239   65.8775 H   0  0  0  0  0  0  0  0  0  0  0  0
  2  1  1  0
  3  2  2  0
  4  3  1  0
  5  4  2  0
  6  5  1  0
  7  6  2  0
  7  2  1  0
  8  6  1  0
  9  5  1  0
 10  1  1  1
 11 10  1  0
 12 10  1  0
 14 13  1  0
 14 10  1  0
 15 14  2  0
  1 16  1  0
  1 17  1  0
  3 18  1  0
  4 19  1  0
  7 20  1  0
  8 21  1  0
  9 22  1  0
 11 23  1  0
 11 24  1  0
 11 25  1  0
 12 26  1  0
 12 27  1  0
 12 28  1  0
M  CHG  2  12   1  13  -1
M  END
>  <score>  (1) 
-7.358

$$$$
=
     RDKit          3D

 28 28  0  0  0  0  0  0  0  0999 V2000
    2.0180   68.7440   65.5460 C   0  0  0  0  0  0  0  0  0  0  0  0
    3.0740   69.3130   66.4670 C   0  0  0  0  0  0  0  0  0  0  0  0
    4.4110   69.4170   66.0500 C   0  0  0  0  0  0  0  0  0  0  0  0
    5.3860   69.9600   66.8930 C   0  0  0  0  0  0  0  0  0  0  0  0
    5.0220   70.3950   68.1600 C   0  0  0  0  0  0  0  0  0  0  0  0
    3.7010   70.2890   68.5830 C   0  0  0  0  0  0  0  0  0  0  0  0
    2.7260   69.7540   67.7540 C   0  0  0  0  0  0  0  0  0  0  0  0
    3.3480   70.7190   69.8310 O   0  0  0  0  0  0  0  0  0  0  0  0
    5.9290   70.9370   69.0270 O   0  0  0  0  0  0  0  0  0  0  0  0
    0.9160   67.8860   66.2080 C   0  0  2  0  0  0  0  0  0  0  0  0
    1.1860   67.4560   67.6420 C   0  0  0  0  0  0  0  0  0  0  0  0
    0.7880   66.5890   65.3720 N   0  0  0  0  0  4  0  0  0  0  0  0
   -0.7360   69.2310   67.1240 O   0  0  0  0  0  1  0  0  0  0  0  0
   -0.4410   68.6500   66.0230 C   0  0  0  0  0  0  0  0  0  0  0  0
   -0.9880   68.6510   64.9030 O   0  0  0  0  0  0  0  0  0  0  0  0
    1.5260   69.5877   65.0400 H   0  0  0  0  0  0  0  0  0  0  0  0
    2.5559   68.0593   64.8739 H   0  0  0  0  0  0  0  0  0  0  0  0
    4.6952   69.0666   65.0468 H   0  0  0  0  0  0  0  0  0  0  0  0
    6.4298   70.0415   66.5557 H   0  0  0  0  0  0  0  0  0  0  0  0
    1.6857   69.6756   68.1029 H   0  0  0  0  0  0  0  0  0  0  0  0
    2.4082   70.6440   70.1330 H   0  0  0  0  0  0  0  0  0  0  0  0
    5.6377   71.2379   69.9240 H   0  0  0  0  0  0  0  0  0  0  0  0
    0.7312   68.1803   68.3338 H   0  0  0  0  0  0  0  0  0  0  0  0
    0.7504   66.4608   67.8146 H   0  0  0  0  0  0  0  0  0  0  0  0
    2.2716   67.4160   67.8146 H   0  0  0  0  0  0  0  0  0  0  0  0
    0.7081   65.7796   66.0040 H   0  0  0  0  0  0  0  0  0  0  0  0
   -0.0516   66.6449   64.7779 H   0  0  0  0  0  0  0  0  0  0  0  0
    1.6223   66.4797   64.7779 H   0  0  0  0  0  0  0  0  0  0  0  0
  2  1  1  0
  3  2  2  0
  4  3  1  0
  5  4  2  0
  6  5  1  0
  7  6  2  0
  7  2  1  0
  8  6  1  0
  9  5  1  0
 10  1  1  6
 11 10  1  0
 12 10  1  0
 14 13  1  0
 14 10  1  0
 15 14  2  0
  1 16  1  0
  1 17  1  0
  3 18  1  0
  4 19  1  0
  7 20  1  0
  8 21  1  0
  9 22  1  0
 11 23  1  0
 11 24  1  0
 11 25  1  0
 12 26  1  0
 12 27  1  0
 12 28  1  0
M  CHG  2  12   1  13  -1
M  END
>  <score>  (2) 
-7.224

$$$$
=
     RDKit          3D

 28 28  0  0  0  0  0  0  0  0999 V2000
    3.0260   69.0090   64.5570 C   0  0  0  0  0  0  0  0  0  0  0  0
    3.7530   69.4500   65.8070 C   0  0  0  0  0  0  0  0  0  0  0  0
    5.1100   69.8090   65.7600 C   0  0  0  0  0  0  0  0  0  0  0  0
    5.7810   70.2350   66.9120 C   0  0  0  0  0  0  0  0  0  0  0  0
    5.0910   70.2950   68.1150 C   0  0  0  0  0  0  0  0  0  0  0  0
    3.7490   69.9340   68.1710 C   0  0  0  0  0  0  0  0  0  0  0  0
    3.0740   69.5130   67.0340 C   0  0  0  0  0  0  0  0  0  0  0  0
    3.0750   69.9960   69.3580 O   0  0  0  0  0  0  0  0  0  0  0  0
    5.6900   70.7060   69.2730 O   0  0  0  0  0  0  0  0  0  0  0  0
    3.2920   67.5630   64.0780 C   0  0  2  0  0  0  0  0  0  0  0  0
    4.6980   67.0350   64.3210 C   0  0  0  0  0  0  0  0  0  0  0  0
    3.0700   67.5460   62.5460 N   0  0  0  0  0  4  0  0  0  0  0  0
    1.0840   67.3410   64.7490 O   0  0  0  0  0  1  0  0  0  0  0  0
    2.1640   66.6590   64.6860 C   0  0  0  0  0  0  0  0  0  0  0  0
    2.4200   65.4690   64.9520 O   0  0  0  0  0  0  0  0  0  0  0  0
    1.9467   69.1050   64.7466 H   0  0  0  0  0  0  0  0  0  0  0  0
    3.4082   69.6566   63.7542 H   0  0  0  0  0  0  0  0  0  0  0  0
    5.6528   69.7546   64.8048 H   0  0  0  0  0  0  0  0  0  0  0  0
    6.8427   70.5189   66.8647 H   0  0  0  0  0  0  0  0  0  0  0  0
    2.0127   69.2302   67.0939 H   0  0  0  0  0  0  0  0  0  0  0  0
    2.1197   69.7392   69.3988 H   0  0  0  0  0  0  0  0  0  0  0  0
    5.1702   70.7377   70.1150 H   0  0  0  0  0  0  0  0  0  0  0  0
    4.8818   66.9660   65.4033 H   0  0  0  0  0  0  0  0  0  0  0  0
    4.7986   66.0378   63.8677 H   0  0  0  0  0  0  0  0  0  0  0  0
    5.4301   67.7194   63.8677 H   0  0  0  0  0  0  0  0  0  0  0  0
    2.0626   67.4689   62.3459 H   0  0  0  0  0  0  0  0  0  0  0  0
    3.4356   68.4175   62.1364 H   0  0  0  0  0  0  0  0  0  0  0  0
    3.5641   66.7404   62.1364 H   0  0  0  0  0  0  0  0  0  0  0  0
  2  1  1  0
  3  2  2  0
  4  3  1  0
  5  4  2  0
  6  5  1  0
  7  6  2  0
  7  2  1  0
  8  6  1  0
  9  5  1  0
 10  1  1  1
 11 10  1  0
 12 10  1  0
 14 13  1  0
 14 10  1  0
 15 14  2  0
  1 16  1  0
  1 17  1  0
  3 18  1  0
  4 19  1  0
  7 20  1  0
  8 21  1  0
  9 22  1  0
 11 23  1  0
 11 24  1  0
 11 25  1  0
 12 26  1  0
 12 27  1  0
 12 28  1  0
M  CHG  2  12   1  13  -1
M  END
>  <score>  (3) 
-7.192

$$$$
=
     RDKit          3D

 28 28  0  0  0  0  0  0  0  0999 V2000
    3.5590   69.0590   64.2830 C   0  0  0  0  0  0  0  0  0  0  0  0
    4.0090   69.4660   65.6680 C   0  0  0  0  0  0  0  0  0  0  0  0
    5.3290   69.8870   65.9000 C   0  0  0  0  0  0  0  0  0  0  0  0
    5.7430   70.2820   67.1770 C   0  0  0  0  0  0  0  0  0  0  0  0
    4.8330   70.2490   68.2250 C   0  0  0  0  0  0  0  0  0  0  0  0
    3.5260   69.8260   68.0050 C   0  0  0  0  0  0  0  0  0  0  0  0
    3.1050   69.4350   66.7420 C   0  0  0  0  0  0  0  0  0  0  0  0
    2.6360   69.7960   69.0400 O   0  0  0  0  0  0  0  0  0  0  0  0
    5.1770   70.6260   69.4930 O   0  0  0  0  0  0  0  0  0  0  0  0
    3.8050   67.5860   63.8830 C   0  0  2  0  0  0  0  0  0  0  0  0
    2.9420   66.5550   64.5950 C   0  0  0  0  0  0  0  0  0  0  0  0
    5.2750   67.2580   64.2430 N   0  0  0  0  0  4  0  0  0  0  0  0
    4.2160   66.3940   61.9360 O   0  0  0  0  0  1  0  0  0  0  0  0
    3.7190   67.5090   62.3190 C   0  0  0  0  0  0  0  0  0  0  0  0
    3.1670   68.4370   61.6970 O   0  0  0  0  0  0  0  0  0  0  0  0
    2.4775   69.2479   64.2140 H   0  0  0  0  0  0  0  0  0  0  0  0
    4.1720   69.6550   63.5908 H   0  0  0  0  0  0  0  0  0  0  0  0
    6.0468   69.9064   65.0667 H   0  0  0  0  0  0  0  0  0  0  0  0
    6.7773   70.6148   67.3485 H   0  0  0  0  0  0  0  0  0  0  0  0
    2.0686   69.1025   66.5829 H   0  0  0  0  0  0  0  0  0  0  0  0
    1.7058   69.4951   68.8844 H   0  0  0  0  0  0  0  0  0  0  0  0
    4.5051   70.5912   70.2192 H   0  0  0  0  0  0  0  0  0  0  0  0
    3.0455   66.6787   65.6831 H   0  0  0  0  0  0  0  0  0  0  0  0
    1.8895   66.6969   64.3083 H   0  0  0  0  0  0  0  0  0  0  0  0
    3.2670   65.5439   64.3083 H   0  0  0  0  0  0  0  0  0  0  0  0
    5.3806   67.2344   65.2673 H   0  0  0  0  0  0  0  0  0  0  0  0
    5.5279   66.3399   63.8506 H   0  0  0  0  0  0  0  0  0  0  0  0
    5.8942   67.9815   63.8506 H   0  0  0  0  0  0  0  0  0  0  0  0
  2  1  1  0
  3  2  2  0
  4  3  1  0
  5  4  2  0
  6  5  1  0
  7  6  2  0
  7  2  1  0
  8  6  1  0
  9  5  1  0
 10  1  1  1
 11 10  1  0
 12 10  1  0
 14 13  1  0
 14 10  1  0
 15 14  2  0
  1 16  1  0
  1 17  1  0
  3 18  1  0
  4 19  1  0
  7 20  1  0
  8 21  1  0
  9 22  1  0
 11 23  1  0
 11 24  1  0
 11 25  1  0
 12 26  1  0
 12 27  1  0
 12 28  1  0
M  CHG  2  12   1  13  -1
M  END
>  <score>  (4) 
-7.166

$$$$
=
     RDKit          3D

 28 28  0  0  0  0  0  0  0  0999 V2000
    2.9190   68.6950   64.1250 C   0  0  0  0  0  0  0  0  0  0  0  0
    2.9440   69.0670   65.5910 C   0  0  0  0  0  0  0  0  0  0  0  0
    1.8050   68.8940   66.3950 C   0  0  0  0  0  0  0  0  0  0  0  0
    1.8300   69.2200   67.7550 C   0  0  0  0  0  0  0  0  0  0  0  0
    2.9980   69.7260   68.3100 C   0  0  0  0  0  0  0  0  0  0  0  0
    4.1280   69.9060   67.5190 C   0  0  0  0  0  0  0  0  0  0  0  0
    4.1140   69.5840   66.1700 C   0  0  0  0  0  0  0  0  0  0  0  0
    5.2740   70.4030   68.0710 O   0  0  0  0  0  0  0  0  0  0  0  0
    3.0850   70.0590   69.6330 O   0  0  0  0  0  0  0  0  0  0  0  0
    3.8430   67.5340   63.6930 C   0  0  2  0  0  0  0  0  0  0  0  0
    3.5220   66.1750   64.2980 C   0  0  0  0  0  0  0  0  0  0  0  0
    5.2750   67.8980   64.1550 N   0  0  0  0  0  4  0  0  0  0  0  0
    3.6090   68.7110   61.7090 O   0  0  0  0  0  1  0  0  0  0  0  0
    3.8850   67.5330   62.1250 C   0  0  0  0  0  0  0  0  0  0  0  0
    4.2150   66.4900   61.5290 O   0  0  0  0  0  0  0  0  0  0  0  0
    1.8868   68.4138   63.8690 H   0  0  0  0  0  0  0  0  0  0  0  0
    3.2961   69.5809   63.5931 H   0  0  0  0  0  0  0  0  0  0  0  0
    0.8812   68.4969   65.9490 H   0  0  0  0  0  0  0  0  0  0  0  0
    0.9346   69.0772   68.3778 H   0  0  0  0  0  0  0  0  0  0  0  0
    5.0150   69.7329   65.5568 H   0  0  0  0  0  0  0  0  0  0  0  0
    6.0788   70.5315   67.5090 H   0  0  0  0  0  0  0  0  0  0  0  0
    3.9323   70.4175   69.9985 H   0  0  0  0  0  0  0  0  0  0  0  0
    3.5394   66.2488   65.3954 H   0  0  0  0  0  0  0  0  0  0  0  0
    2.5232   65.8534   63.9680 H   0  0  0  0  0  0  0  0  0  0  0  0
    4.2714   65.4405   63.9680 H   0  0  0  0  0  0  0  0  0  0  0  0
    5.3117   67.9073   65.1843 H   0  0  0  0  0  0  0  0  0  0  0  0
    5.9402   67.1994   63.7940 H   0  0  0  0  0  0  0  0  0  0  0  0
    5.5258   68.8295   63.7940 H   0  0  0  0  0  0  0  0  0  0  0  0
  2  1  1  0
  3  2  2  0
  4  3  1  0
  5  4  2  0
  6  5  1  0
  7  6  2  0
  7  2  1  0
  8  6  1  0
  9  5  1  0
 10  1  1  6
 11 10  1  0
 12 10  1  0
 14 13  1  0
 14 10  1  0
 15 14  2  0
  1 16  1  0
  1 17  1  0
  3 18  1  0
  4 19  1  0
  7 20  1  0
  8 21  1  0
  9 22  1  0
 11 23  1  0
 11 24  1  0
 11 25  1  0
 12 26  1  0
 12 27  1  0
 12 28  1  0
M  CHG  2  12   1  13  -1
M  END
>  <score>  (5) 
-6.741

$$$$
=
     RDKit          3D

 28 28  0  0  0  0  0  0  0  0999 V2000
    2.0110   67.5490   66.5000 C   0  0  0  0  0  0  0  0  0  0  0  0
    2.9140   67.7240   65.3010 C   0  0  0  0  0  0  0  0  0  0  0  0
    3.5320   68.9590   65.0410 C   0  0  0  0  0  0  0  0  0  0  0  0
    4.3830   69.1190   63.9420 C   0  0  0  0  0  0  0  0  0  0  0  0
    4.6110   68.0410   63.0970 C   0  0  0  0  0  0  0  0  0  0  0  0
    3.9970   66.8170   63.3440 C   0  0  0  0  0  0  0  0  0  0  0  0
    3.1540   66.6470   64.4330 C   0  0  0  0  0  0  0  0  0  0  0  0
    4.2260   65.7600   62.5100 O   0  0  0  0  0  0  0  0  0  0  0  0
    5.4340   68.1350   62.0100 O   0  0  0  0  0  0  0  0  0  0  0  0
    0.6170   68.2130   66.4180 C   0  0  2  0  0  0  0  0  0  0  0  0
    0.1840   68.6670   65.0320 C   0  0  0  0  0  0  0  0  0  0  0  0
    0.6660   69.4810   67.3040 N   0  0  0  0  0  4  0  0  0  0  0  0
    0.1180   66.8170   68.2010 O   0  0  0  0  0  1  0  0  0  0  0  0
   -0.4010   67.2430   67.1120 C   0  0  0  0  0  0  0  0  0  0  0  0
   -1.5200   67.0680   66.5930 O   0  0  0  0  0  0  0  0  0  0  0  0
    1.8586   66.4698   66.6487 H   0  0  0  0  0  0  0  0  0  0  0  0
    2.5264   68.0567   67.3286 H   0  0  0  0  0  0  0  0  0  0  0  0
    3.3442   69.8114   65.7105 H   0  0  0  0  0  0  0  0  0  0  0  0
    4.8662   70.0883   63.7495 H   0  0  0  0  0  0  0  0  0  0  0  0
    2.6761   65.6731   64.6153 H   0  0  0  0  0  0  0  0  0  0  0  0
    3.7900   64.8884   62.6843 H   0  0  0  0  0  0  0  0  0  0  0  0
    5.5758   67.3476   61.4269 H   0  0  0  0  0  0  0  0  0  0  0  0
   -0.5724   69.4601   65.1256 H   0  0  0  0  0  0  0  0  0  0  0  0
    1.0556   69.0544   64.4841 H   0  0  0  0  0  0  0  0  0  0  0  0
   -0.2443   67.8147   64.4841 H   0  0  0  0  0  0  0  0  0  0  0  0
    0.6554   69.2068   68.2968 H   0  0  0  0  0  0  0  0  0  0  0  0
    1.5280   70.0076   67.1024 H   0  0  0  0  0  0  0  0  0  0  0  0
   -0.1528   70.0725   67.1024 H   0  0  0  0  0  0  0  0  0  0  0  0
  2  1  1  0
  3  2  2  0
  4  3  1  0
  5  4  2  0
  6  5  1  0
  7  6  2  0
  7  2  1  0
  8  6  1  0
  9  5  1  0
 10  1  1  6
 11 10  1  0
 12 10  1  0
 14 13  1  0
 14 10  1  0
 15 14  2  0
  1 16  1  0
  1 17  1  0
  3 18  1  0
  4 19  1  0
  7 20  1  0
  8 21  1  0
  9 22  1  0
 11 23  1  0
 11 24  1  0
 11 25  1  0
 12 26  1  0
 12 27  1  0
 12 28  1  0
M  CHG  2  12   1  13  -1
M  END
>  <score>  (6) 
-6.73

$$$$
=
     RDKit          3D

 28 28  0  0  0  0  0  0  0  0999 V2000
    1.4440   67.6920   67.0240 C   0  0  0  0  0  0  0  0  0  0  0  0
    2.5790   68.2600   66.2020 C   0  0  0  0  0  0  0  0  0  0  0  0
    2.7490   67.8890   64.8580 C   0  0  0  0  0  0  0  0  0  0  0  0
    3.7870   68.4270   64.0900 C   0  0  0  0  0  0  0  0  0  0  0  0
    4.6610   69.3350   64.6720 C   0  0  0  0  0  0  0  0  0  0  0  0
    4.5040   69.7030   66.0050 C   0  0  0  0  0  0  0  0  0  0  0  0
    3.4760   69.1760   66.7740 C   0  0  0  0  0  0  0  0  0  0  0  0
    5.3660   70.5980   66.5710 O   0  0  0  0  0  0  0  0  0  0  0  0
    5.6920   69.8980   63.9720 O   0  0  0  0  0  0  0  0  0  0  0  0
    0.0550   68.3400   66.8230 C   0  0  2  0  0  0  0  0  0  0  0  0
   -0.2410   68.8450   65.4180 C   0  0  0  0  0  0  0  0  0  0  0  0
   -0.0100   69.5710   67.7600 N   0  0  0  0  0  4  0  0  0  0  0  0
   -0.4440   66.5490   68.2080 O   0  0  0  0  0  1  0  0  0  0  0  0
   -1.0120   67.3280   67.3680 C   0  0  0  0  0  0  0  0  0  0  0  0
   -2.1960   67.4380   66.9960 O   0  0  0  0  0  0  0  0  0  0  0  0
    1.3536   66.6241   66.7760 H   0  0  0  0  0  0  0  0  0  0  0  0
    1.7120   67.8969   68.0710 H   0  0  0  0  0  0  0  0  0  0  0  0
    2.0564   67.1655   64.4032 H   0  0  0  0  0  0  0  0  0  0  0  0
    3.9093   68.1339   63.0368 H   0  0  0  0  0  0  0  0  0  0  0  0
    3.3645   69.4746   67.8268 H   0  0  0  0  0  0  0  0  0  0  0  0
    5.2551   70.8604   67.5191 H   0  0  0  0  0  0  0  0  0  0  0  0
    6.2981   70.5426   64.4161 H   0  0  0  0  0  0  0  0  0  0  0  0
   -0.7964   69.7926   65.4784 H   0  0  0  0  0  0  0  0  0  0  0  0
    0.7046   69.0079   64.8801 H   0  0  0  0  0  0  0  0  0  0  0  0
   -0.8451   68.0995   64.8801 H   0  0  0  0  0  0  0  0  0  0  0  0
    0.0066   69.2571   68.7409 H   0  0  0  0  0  0  0  0  0  0  0  0
    0.7999   70.1817   67.5812 H   0  0  0  0  0  0  0  0  0  0  0  0
   -0.8797   70.0930   67.5812 H   0  0  0  0  0  0  0  0  0  0  0  0
  2  1  1  0
  3  2  2  0
  4  3  1  0
  5  4  2  0
  6  5  1  0
  7  6  2  0
  7  2  1  0
  8  6  1  0
  9  5  1  0
 10  1  1  6
 11 10  1  0
 12 10  1  0
 14 13  1  0
 14 10  1  0
 15 14  2  0
  1 16  1  0
  1 17  1  0
  3 18  1  0
  4 19  1  0
  7 20  1  0
  8 21  1  0
  9 22  1  0
 11 23  1  0
 11 24  1  0
 11 25  1  0
 12 26  1  0
 12 27  1  0
 12 28  1  0
M  CHG  2  12   1  13  -1
M  END
>  <score>  (7) 
-6.635

$$$$
=
     RDKit          3D

 28 28  0  0  0  0  0  0  0  0999 V2000
    3.7560   69.1610   64.1960 C   0  0  0  0  0  0  0  0  0  0  0  0
    2.3680   68.8640   64.7170 C   0  0  0  0  0  0  0  0  0  0  0  0
    2.1660   68.4970   66.0580 C   0  0  0  0  0  0  0  0  0  0  0  0
    0.8810   68.2390   66.5470 C   0  0  0  0  0  0  0  0  0  0  0  0
   -0.2050   68.3440   65.6880 C   0  0  0  0  0  0  0  0  0  0  0  0
   -0.0130   68.6990   64.3570 C   0  0  0  0  0  0  0  0  0  0  0  0
    1.2570   68.9590   63.8630 C   0  0  0  0  0  0  0  0  0  0  0  0
   -1.0860   68.8010   63.5170 O   0  0  0  0  0  0  0  0  0  0  0  0
   -1.4840   68.1080   66.1080 O   0  0  0  0  0  0  0  0  0  0  0  0
    4.5180   67.9800   63.5510 C   0  0  2  0  0  0  0  0  0  0  0  0
    4.3540   66.6330   64.2390 C   0  0  0  0  0  0  0  0  0  0  0  0
    6.0250   68.3280   63.6080 N   0  0  0  0  0  4  0  0  0  0  0  0
    4.1790   66.7520   61.6130 O   0  0  0  0  0  1  0  0  0  0  0  0
    4.1390   67.9620   62.0290 C   0  0  0  0  0  0  0  0  0  0  0  0
    3.8140   69.0280   61.4730 O   0  0  0  0  0  0  0  0  0  0  0  0
    3.6663   69.9541   63.4391 H   0  0  0  0  0  0  0  0  0  0  0  0
    4.3461   69.4394   65.0816 H   0  0  0  0  0  0  0  0  0  0  0  0
    3.0304   68.4113   66.7329 H   0  0  0  0  0  0  0  0  0  0  0  0
    0.7326   67.9563   67.5996 H   0  0  0  0  0  0  0  0  0  0  0  0
    1.3932   69.2382   62.8078 H   0  0  0  0  0  0  0  0  0  0  0  0
   -0.9506   69.0536   62.5694 H   0  0  0  0  0  0  0  0  0  0  0  0
   -2.2374   68.1911   65.4712 H   0  0  0  0  0  0  0  0  0  0  0  0
    4.3712   66.7739   65.3298 H   0  0  0  0  0  0  0  0  0  0  0  0
    3.3946   66.1841   63.9423 H   0  0  0  0  0  0  0  0  0  0  0  0
    5.1777   65.9670   63.9423 H   0  0  0  0  0  0  0  0  0  0  0  0
    6.3245   68.3972   64.5911 H   0  0  0  0  0  0  0  0  0  0  0  0
    6.5660   67.5898   63.1354 H   0  0  0  0  0  0  0  0  0  0  0  0
    6.1875   69.2286   63.1354 H   0  0  0  0  0  0  0  0  0  0  0  0
  2  1  1  0
  3  2  2  0
  4  3  1  0
  5  4  2  0
  6  5  1  0
  7  6  2  0
  7  2  1  0
  8  6  1  0
  9  5  1  0
 10  1  1  1
 11 10  1  0
 12 10  1  0
 14 13  1  0
 14 10  1  0
 15 14  2  0
  1 16  1  0
  1 17  1  0
  3 18  1  0
  4 19  1  0
  7 20  1  0
  8 21  1  0
  9 22  1  0
 11 23  1  0
 11 24  1  0
 11 25  1  0
 12 26  1  0
 12 27  1  0
 12 28  1  0
M  CHG  2  12   1  13  -1
M  END
>  <score>  (8) 
-6.616

$$$$
=
     RDKit          3D

 28 28  0  0  0  0  0  0  0  0999 V2000
    2.6310   68.4860   63.2290 C   0  0  0  0  0  0  0  0  0  0  0  0
    2.3210   68.4700   64.7080 C   0  0  0  0  0  0  0  0  0  0  0  0
    3.0740   69.2420   65.6080 C   0  0  0  0  0  0  0  0  0  0  0  0
    2.7780   69.2430   66.9760 C   0  0  0  0  0  0  0  0  0  0  0  0
    1.7280   68.4640   67.4440 C   0  0  0  0  0  0  0  0  0  0  0  0
    0.9820   67.6910   66.5590 C   0  0  0  0  0  0  0  0  0  0  0  0
    1.2660   67.6850   65.2010 C   0  0  0  0  0  0  0  0  0  0  0  0
   -0.0500   66.9280   67.0250 O   0  0  0  0  0  0  0  0  0  0  0  0
    1.3880   68.4270   68.7670 O   0  0  0  0  0  0  0  0  0  0  0  0
    4.0930   68.1840   62.8270 C   0  0  2  0  0  0  0  0  0  0  0  0
    5.1300   69.1850   63.3120 C   0  0  0  0  0  0  0  0  0  0  0  0
    4.1500   68.1990   61.2800 N   0  0  0  0  0  4  0  0  0  0  0  0
    4.1330   65.9340   62.2660 O   0  0  0  0  0  1  0  0  0  0  0  0
    4.3950   66.7050   63.2530 C   0  0  0  0  0  0  0  0  0  0  0  0
    4.8720   66.4860   64.3830 O   0  0  0  0  0  0  0  0  0  0  0  0
    1.9894   67.7349   62.7450 H   0  0  0  0  0  0  0  0  0  0  0  0
    2.4479   69.5210   62.9045 H   0  0  0  0  0  0  0  0  0  0  0  0
    3.9075   69.8540   65.2327 H   0  0  0  0  0  0  0  0  0  0  0  0
    3.3706   69.8541   67.6727 H   0  0  0  0  0  0  0  0  0  0  0  0
    0.6678   67.0685   64.5139 H   0  0  0  0  0  0  0  0  0  0  0  0
   -0.5816   66.3776   66.3969 H   0  0  0  0  0  0  0  0  0  0  0  0
    0.6338   67.8611   69.0686 H   0  0  0  0  0  0  0  0  0  0  0  0
    5.1421   69.1966   64.4119 H   0  0  0  0  0  0  0  0  0  0  0  0
    6.1228   68.8950   62.9375 H   0  0  0  0  0  0  0  0  0  0  0  0
    4.8753   70.1874   62.9375 H   0  0  0  0  0  0  0  0  0  0  0  0
    5.1011   68.4493   60.9739 H   0  0  0  0  0  0  0  0  0  0  0  0
    3.9074   67.2655   60.9184 H   0  0  0  0  0  0  0  0  0  0  0  0
    3.4794   68.8921   60.9184 H   0  0  0  0  0  0  0  0  0  0  0  0
  2  1  1  0
  3  2  2  0
  4  3  1  0
  5  4  2  0
  6  5  1  0
  7  6  2  0
  7  2  1  0
  8  6  1  0
  9  5  1  0
 10  1  1  6
 11 10  1  0
 12 10  1  0
 14 13  1  0
 14 10  1  0
 15 14  2  0
  1 16  1  0
  1 17  1  0
  3 18  1  0
  4 19  1  0
  7 20  1  0
  8 21  1  0
  9 22  1  0
 11 23  1  0
 11 24  1  0
 11 25  1  0
 12 26  1  0
 12 27  1  0
 12 28  1  0
M  CHG  2  12   1  13  -1
M  END
>  <score>  (9) 
-6.55

$$$$
