=
     RDKit          3D

 70 75  0  0  0  0  0  0  0  0999 V2000
    0.9240   62.6280   72.5910 C   0  0  0  0  0  0  0  0  0  0  0  0
    0.3560   63.6230   73.3970 C   0  0  0  0  0  0  0  0  0  0  0  0
    0.0340   64.8740   72.8530 C   0  0  0  0  0  0  0  0  0  0  0  0
    0.2680   65.1370   71.5030 C   0  0  0  0  0  0  0  0  0  0  0  0
    0.8230   64.1360   70.7010 C   0  0  0  0  0  0  0  0  0  0  0  0
    1.1440   62.8860   71.2360 C   0  0  0  0  0  0  0  0  0  0  0  0
    0.4720   60.3660   73.0720 O   0  0  0  0  0  0  0  0  0  0  0  0
    1.2800   61.2860   73.1290 C   0  0  0  0  0  0  0  0  0  0  0  0
    2.5570   61.1530   73.6400 N   0  0  0  0  0  0  0  0  0  0  0  0
    3.0580   59.8460   74.0330 C   0  0  0  0  0  0  0  0  0  0  0  0
    4.2040   59.3860   73.1320 C   0  0  0  0  0  0  0  0  0  0  0  0
    3.9530   59.6850   71.6890 C   0  0  0  0  0  0  0  0  0  0  0  0
    3.4620   58.8050   70.7440 C   0  0  0  0  0  0  0  0  0  0  0  0
    3.3700   59.4640   69.5480 N   0  0  0  0  0  0  0  0  0  0  0  0
    3.7970   60.7640   69.6870 C   0  0  0  0  0  0  0  0  0  0  0  0
    4.1690   60.9340   71.0210 C   0  0  0  0  0  0  0  0  0  0  0  0
    4.6440   62.1980   71.4280 C   0  0  0  0  0  0  0  0  0  0  0  0
    4.7320   63.2360   70.4950 C   0  0  0  0  0  0  0  0  0  0  0  0
    4.3530   63.0340   69.1700 C   0  0  0  0  0  0  0  0  0  0  0  0
    3.8770   61.7920   68.7390 C   0  0  0  0  0  0  0  0  0  0  0  0
    0.0120   66.3060   70.8470 O   0  0  0  0  0  0  0  0  0  0  0  0
    0.4620   66.4620   69.5010 C   0  0  0  0  0  0  0  0  0  0  0  0
   -0.6940   66.7670   68.5490 C   0  0  0  0  0  0  0  0  0  0  0  0
   -0.3690   67.8050   67.4670 C   0  0  0  0  0  0  0  0  0  0  0  0
    1.0480   67.7190   66.8940 C   0  0  0  0  0  0  0  0  0  0  0  0
    1.5630   68.9810   66.4630 O   0  0  0  0  0  0  0  0  0  0  0  0
    2.5160   68.9660   65.4770 C   0  0  0  0  0  0  0  0  0  0  0  0
    2.2510   68.5800   64.1540 C   0  0  0  0  0  0  0  0  0  0  0  0
    3.2590   68.5790   63.1890 C   0  0  0  0  0  0  0  0  0  0  0  0
    4.5600   68.9720   63.5050 C   0  0  0  0  0  0  0  0  0  0  0  0
    4.8090   69.3840   64.8180 C   0  0  0  0  0  0  0  0  0  0  0  0
    3.8230   69.4040   65.8060 C   0  0  0  0  0  0  0  0  0  0  0  0
    4.4410   69.8980   67.0050 C   0  0  0  0  0  0  0  0  0  0  0  0
    3.9790   70.1610   68.3130 C   0  0  0  0  0  0  0  0  0  0  0  0
    4.8680   70.6460   69.2790 C   0  0  0  0  0  0  0  0  0  0  0  0
    6.2050   70.8750   68.9590 C   0  0  0  0  0  0  0  0  0  0  0  0
    6.6880   70.6300   67.6710 C   0  0  0  0  0  0  0  0  0  0  0  0
    5.7830   70.1450   66.7180 C   0  0  0  0  0  0  0  0  0  0  0  0
    5.9740   69.8290   65.3960 N   0  0  0  0  0  0  0  0  0  0  0  0
    0.1619   63.4218   74.4609 H   0  0  0  0  0  0  0  0  0  0  0  0
   -0.4055   65.6525   73.4939 H   0  0  0  0  0  0  0  0  0  0  0  0
    1.0094   64.3348   69.6353 H   0  0  0  0  0  0  0  0  0  0  0  0
    1.5702   62.1045   70.5898 H   0  0  0  0  0  0  0  0  0  0  0  0
    3.1569   61.9839   73.7430 H   0  0  0  0  0  0  0  0  0  0  0  0
    3.4197   59.8999   75.0704 H   0  0  0  0  0  0  0  0  0  0  0  0
    2.2359   59.1211   73.9396 H   0  0  0  0  0  0  0  0  0  0  0  0
    5.1256   59.8994   73.4435 H   0  0  0  0  0  0  0  0  0  0  0  0
    4.2940   58.2947   73.2365 H   0  0  0  0  0  0  0  0  0  0  0  0
    3.1912   57.7539   70.9224 H   0  0  0  0  0  0  0  0  0  0  0  0
    3.0299   59.0464   68.6700 H   0  0  0  0  0  0  0  0  0  0  0  0
    4.9434   62.3664   72.4730 H   0  0  0  0  0  0  0  0  0  0  0  0
    5.1042   64.2218   70.8107 H   0  0  0  0  0  0  0  0  0  0  0  0
    4.4293   63.8639   68.4520 H   0  0  0  0  0  0  0  0  0  0  0  0
    3.5763   61.6282   67.6936 H   0  0  0  0  0  0  0  0  0  0  0  0
    1.1847   67.2903   69.4607 H   0  0  0  0  0  0  0  0  0  0  0  0
    0.9267   65.5168   69.1836 H   0  0  0  0  0  0  0  0  0  0  0  0
   -0.9851   65.8306   68.0506 H   0  0  0  0  0  0  0  0  0  0  0  0
   -1.5001   67.1958   69.1624 H   0  0  0  0  0  0  0  0  0  0  0  0
   -1.0808   67.6697   66.6393 H   0  0  0  0  0  0  0  0  0  0  0  0
   -0.4457   68.7894   67.9518 H   0  0  0  0  0  0  0  0  0  0  0  0
    1.7147   67.3172   67.6712 H   0  0  0  0  0  0  0  0  0  0  0  0
    1.0017   67.0675   66.0089 H   0  0  0  0  0  0  0  0  0  0  0  0
    1.2326   68.2734   63.8733 H   0  0  0  0  0  0  0  0  0  0  0  0
    3.0240   68.2631   62.1619 H   0  0  0  0  0  0  0  0  0  0  0  0
    5.3597   68.9583   62.7498 H   0  0  0  0  0  0  0  0  0  0  0  0
    2.9244   69.9854   68.5718 H   0  0  0  0  0  0  0  0  0  0  0  0
    4.5087   70.8480   70.2988 H   0  0  0  0  0  0  0  0  0  0  0  0
    6.8900   71.2541   69.7317 H   0  0  0  0  0  0  0  0  0  0  0  0
    7.7421   70.8116   67.4143 H   0  0  0  0  0  0  0  0  0  0  0  0
    6.8734   69.9143   64.9014 H   0  0  0  0  0  0  0  0  0  0  0  0
  2  1  2  0
  3  2  1  0
  4  3  2  0
  5  4  1  0
  6  5  2  0
  6  1  1  0
  8  7  2  0
  8  1  1  0
  9  8  1  0
 10  9  1  0
 11 10  1  0
 12 11  1  0
 13 12  2  0
 14 13  1  0
 15 14  1  0
 16 12  1  0
 16 15  2  0
 17 16  1  0
 18 17  2  0
 19 18  1  0
 20 19  2  0
 20 15  1  0
 21  4  1  0
 22 21  1  0
 23 22  1  0
 24 23  1  0
 25 24  1  0
 26 25  1  0
 27 26  1  0
 28 27  2  0
 29 28  1  0
 30 29  2  0
 31 30  1  0
 32 31  2  0
 32 27  1  0
 33 32  1  0
 34 33  2  0
 35 34  1  0
 36 35  2  0
 37 36  1  0
 38 33  1  0
 38 37  2  0
 39 31  1  0
 39 38  1  0
  2 40  1  0
  3 41  1  0
  5 42  1  0
  6 43  1  0
  9 44  1  0
 10 45  1  0
 10 46  1  0
 11 47  1  0
 11 48  1  0
 13 49  1  0
 14 50  1  0
 17 51  1  0
 18 52  1  0
 19 53  1  0
 20 54  1  0
 22 55  1  0
 22 56  1  0
 23 57  1  0
 23 58  1  0
 24 59  1  0
 24 60  1  0
 25 61  1  0
 25 62  1  0
 28 63  1  0
 29 64  1  0
 30 65  1  0
 34 66  1  0
 35 67  1  0
 36 68  1  0
 37 69  1  0
 39 70  1  0
M  END
>  <score>  (1) 
-12.812

$$$$
=
     RDKit          3D

 70 75  0  0  0  0  0  0  0  0999 V2000
    1.0250   62.5940   72.7860 C   0  0  0  0  0  0  0  0  0  0  0  0
    0.4050   63.8270   73.0220 C   0  0  0  0  0  0  0  0  0  0  0  0
    0.2980   64.7710   71.9910 C   0  0  0  0  0  0  0  0  0  0  0  0
    0.8000   64.4890   70.7210 C   0  0  0  0  0  0  0  0  0  0  0  0
    1.4070   63.2510   70.4890 C   0  0  0  0  0  0  0  0  0  0  0  0
    1.5150   62.3050   71.5110 C   0  0  0  0  0  0  0  0  0  0  0  0
    0.1940   60.8800   74.1730 O   0  0  0  0  0  0  0  0  0  0  0  0
    1.1600   61.5630   73.8530 C   0  0  0  0  0  0  0  0  0  0  0  0
    2.4190   61.4150   74.4020 N   0  0  0  0  0  0  0  0  0  0  0  0
    2.6930   60.3250   75.3260 C   0  0  0  0  0  0  0  0  0  0  0  0
    3.6780   59.3170   74.7340 C   0  0  0  0  0  0  0  0  0  0  0  0
    3.3660   58.9790   73.3120 C   0  0  0  0  0  0  0  0  0  0  0  0
    2.5410   57.9610   72.8750 C   0  0  0  0  0  0  0  0  0  0  0  0
    2.5120   57.9870   71.5070 N   0  0  0  0  0  0  0  0  0  0  0  0
    3.3070   59.0040   71.0330 C   0  0  0  0  0  0  0  0  0  0  0  0
    3.8560   59.6470   72.1430 C   0  0  0  0  0  0  0  0  0  0  0  0
    4.7160   60.7430   71.9250 C   0  0  0  0  0  0  0  0  0  0  0  0
    4.9960   61.1520   70.6170 C   0  0  0  0  0  0  0  0  0  0  0  0
    4.4310   60.4890   69.5300 C   0  0  0  0  0  0  0  0  0  0  0  0
    3.5740   59.4010   69.7170 C   0  0  0  0  0  0  0  0  0  0  0  0
    0.7710   65.3140   69.6330 O   0  0  0  0  0  0  0  0  0  0  0  0
   -0.1080   66.4380   69.6360 C   0  0  0  0  0  0  0  0  0  0  0  0
   -0.4940   66.8590   68.2190 C   0  0  0  0  0  0  0  0  0  0  0  0
    0.5850   67.6610   67.4780 C   0  0  0  0  0  0  0  0  0  0  0  0
    1.5610   68.4190   68.3820 C   0  0  0  0  0  0  0  0  0  0  0  0
    2.0060   69.6560   67.8240 O   0  0  0  0  0  0  0  0  0  0  0  0
    3.3350   69.9660   67.9640 C   0  0  0  0  0  0  0  0  0  0  0  0
    3.9090   70.3700   69.1800 C   0  0  0  0  0  0  0  0  0  0  0  0
    5.2670   70.6780   69.2670 C   0  0  0  0  0  0  0  0  0  0  0  0
    6.1010   70.5840   68.1530 C   0  0  0  0  0  0  0  0  0  0  0  0
    5.5280   70.1520   66.9530 C   0  0  0  0  0  0  0  0  0  0  0  0
    4.1750   69.8290   66.8310 C   0  0  0  0  0  0  0  0  0  0  0  0
    3.9640   69.4130   65.4720 C   0  0  0  0  0  0  0  0  0  0  0  0
    2.8420   68.9580   64.7460 C   0  0  0  0  0  0  0  0  0  0  0  0
    2.9770   68.6310   63.3920 C   0  0  0  0  0  0  0  0  0  0  0  0
    4.2100   68.7500   62.7550 C   0  0  0  0  0  0  0  0  0  0  0  0
    5.3390   69.1930   63.4500 C   0  0  0  0  0  0  0  0  0  0  0  0
    5.1840   69.5140   64.8050 C   0  0  0  0  0  0  0  0  0  0  0  0
    6.1050   69.9580   65.7210 N   0  0  0  0  0  0  0  0  0  0  0  0
    0.0007   64.0557   74.0191 H   0  0  0  0  0  0  0  0  0  0  0  0
   -0.1849   65.7401   72.1851 H   0  0  0  0  0  0  0  0  0  0  0  0
    1.8042   63.0192   69.4897 H   0  0  0  0  0  0  0  0  0  0  0  0
    1.9865   61.3315   71.3111 H   0  0  0  0  0  0  0  0  0  0  0  0
    3.1669   62.0791   74.1562 H   0  0  0  0  0  0  0  0  0  0  0  0
    3.1203   60.7402   76.2507 H   0  0  0  0  0  0  0  0  0  0  0  0
    1.7471   59.8016   75.5295 H   0  0  0  0  0  0  0  0  0  0  0  0
    4.6906   59.7440   74.7810 H   0  0  0  0  0  0  0  0  0  0  0  0
    3.6019   58.3905   75.3221 H   0  0  0  0  0  0  0  0  0  0  0  0
    1.9996   57.2506   73.5170 H   0  0  0  0  0  0  0  0  0  0  0  0
    1.9721   57.3379   70.9170 H   0  0  0  0  0  0  0  0  0  0  0  0
    5.1640   61.2731   72.7784 H   0  0  0  0  0  0  0  0  0  0  0  0
    5.6687   62.0052   70.4451 H   0  0  0  0  0  0  0  0  0  0  0  0
    4.6628   60.8268   68.5092 H   0  0  0  0  0  0  0  0  0  0  0  0
    3.1253   58.8754   68.8612 H   0  0  0  0  0  0  0  0  0  0  0  0
   -1.0208   66.1749   70.1906 H   0  0  0  0  0  0  0  0  0  0  0  0
    0.4148   67.2802   70.1129 H   0  0  0  0  0  0  0  0  0  0  0  0
   -0.7077   65.9506   67.6367 H   0  0  0  0  0  0  0  0  0  0  0  0
   -1.3661   67.5223   68.3159 H   0  0  0  0  0  0  0  0  0  0  0  0
    1.1659   66.9613   66.8591 H   0  0  0  0  0  0  0  0  0  0  0  0
    0.0529   68.4240   66.8909 H   0  0  0  0  0  0  0  0  0  0  0  0
    1.0598   68.6281   69.3386 H   0  0  0  0  0  0  0  0  0  0  0  0
    2.4485   67.7816   68.5087 H   0  0  0  0  0  0  0  0  0  0  0  0
    3.2782   70.4448   70.0781 H   0  0  0  0  0  0  0  0  0  0  0  0
    5.6873   71.0006   70.2310 H   0  0  0  0  0  0  0  0  0  0  0  0
    7.1689   70.8400   68.2161 H   0  0  0  0  0  0  0  0  0  0  0  0
    1.8653   68.8609   65.2427 H   0  0  0  0  0  0  0  0  0  0  0  0
    2.1025   68.2772   62.8263 H   0  0  0  0  0  0  0  0  0  0  0  0
    4.2965   68.4915   61.6893 H   0  0  0  0  0  0  0  0  0  0  0  0
    6.3147   69.2863   62.9507 H   0  0  0  0  0  0  0  0  0  0  0  0
    7.0998   70.1242   65.5119 H   0  0  0  0  0  0  0  0  0  0  0  0
  2  1  2  0
  3  2  1  0
  4  3  2  0
  5  4  1  0
  6  5  2  0
  6  1  1  0
  8  7  2  0
  8  1  1  0
  9  8  1  0
 10  9  1  0
 11 10  1  0
 12 11  1  0
 13 12  2  0
 14 13  1  0
 15 14  1  0
 16 12  1  0
 16 15  2  0
 17 16  1  0
 18 17  2  0
 19 18  1  0
 20 19  2  0
 20 15  1  0
 21  4  1  0
 22 21  1  0
 23 22  1  0
 24 23  1  0
 25 24  1  0
 26 25  1  0
 27 26  1  0
 28 27  2  0
 29 28  1  0
 30 29  2  0
 31 30  1  0
 32 31  2  0
 32 27  1  0
 33 32  1  0
 34 33  2  0
 35 34  1  0
 36 35  2  0
 37 36  1  0
 38 33  1  0
 38 37  2  0
 39 31  1  0
 39 38  1  0
  2 40  1  0
  3 41  1  0
  5 42  1  0
  6 43  1  0
  9 44  1  0
 10 45  1  0
 10 46  1  0
 11 47  1  0
 11 48  1  0
 13 49  1  0
 14 50  1  0
 17 51  1  0
 18 52  1  0
 19 53  1  0
 20 54  1  0
 22 55  1  0
 22 56  1  0
 23 57  1  0
 23 58  1  0
 24 59  1  0
 24 60  1  0
 25 61  1  0
 25 62  1  0
 28 63  1  0
 29 64  1  0
 30 65  1  0
 34 66  1  0
 35 67  1  0
 36 68  1  0
 37 69  1  0
 39 70  1  0
M  END
>  <score>  (2) 
-12.45

$$$$
=
     RDKit          3D

 70 75  0  0  0  0  0  0  0  0999 V2000
    2.4170   62.6470   71.2190 C   0  0  0  0  0  0  0  0  0  0  0  0
    1.1070   62.6990   71.7120 C   0  0  0  0  0  0  0  0  0  0  0  0
    0.3150   63.8340   71.4920 C   0  0  0  0  0  0  0  0  0  0  0  0
    0.8200   64.9180   70.7740 C   0  0  0  0  0  0  0  0  0  0  0  0
    2.1230   64.8550   70.2730 C   0  0  0  0  0  0  0  0  0  0  0  0
    2.9180   63.7260   70.4870 C   0  0  0  0  0  0  0  0  0  0  0  0
    4.2810   61.5460   72.1490 O   0  0  0  0  0  0  0  0  0  0  0  0
    3.2930   61.4610   71.4290 C   0  0  0  0  0  0  0  0  0  0  0  0
    2.8960   60.2920   70.8080 N   0  0  0  0  0  0  0  0  0  0  0  0
    3.5860   59.0420   71.0860 C   0  0  0  0  0  0  0  0  0  0  0  0
    2.7780   58.1500   72.0280 C   0  0  0  0  0  0  0  0  0  0  0  0
    2.5390   58.7890   73.3580 C   0  0  0  0  0  0  0  0  0  0  0  0
    3.4490   58.8920   74.3920 C   0  0  0  0  0  0  0  0  0  0  0  0
    2.8480   59.5490   75.4320 N   0  0  0  0  0  0  0  0  0  0  0  0
    1.5540   59.8780   75.1020 C   0  0  0  0  0  0  0  0  0  0  0  0
    1.3300   59.4150   73.8050 C   0  0  0  0  0  0  0  0  0  0  0  0
    0.0640   59.6340   73.2240 C   0  0  0  0  0  0  0  0  0  0  0  0
   -0.9260   60.3000   73.9550 C   0  0  0  0  0  0  0  0  0  0  0  0
   -0.6710   60.7500   75.2480 C   0  0  0  0  0  0  0  0  0  0  0  0
    0.5760   60.5480   75.8480 C   0  0  0  0  0  0  0  0  0  0  0  0
    0.1650   66.0830   70.4930 O   0  0  0  0  0  0  0  0  0  0  0  0
    0.5570   66.8450   69.3520 C   0  0  0  0  0  0  0  0  0  0  0  0
   -0.5290   66.8540   68.2770 C   0  0  0  0  0  0  0  0  0  0  0  0
   -0.3900   67.9780   67.2420 C   0  0  0  0  0  0  0  0  0  0  0  0
    0.8040   67.8380   66.2940 C   0  0  0  0  0  0  0  0  0  0  0  0
    1.6080   69.0170   66.2160 O   0  0  0  0  0  0  0  0  0  0  0  0
    2.6420   69.0130   65.3150 C   0  0  0  0  0  0  0  0  0  0  0  0
    2.4880   68.6620   63.9650 C   0  0  0  0  0  0  0  0  0  0  0  0
    3.5760   68.6710   63.0910 C   0  0  0  0  0  0  0  0  0  0  0  0
    4.8480   69.0390   63.5270 C   0  0  0  0  0  0  0  0  0  0  0  0
    4.9880   69.4170   64.8660 C   0  0  0  0  0  0  0  0  0  0  0  0
    3.9210   69.4260   65.7660 C   0  0  0  0  0  0  0  0  0  0  0  0
    4.4390   69.8830   67.0260 C   0  0  0  0  0  0  0  0  0  0  0  0
    3.8690   70.1200   68.2960 C   0  0  0  0  0  0  0  0  0  0  0  0
    4.6770   70.5700   69.3460 C   0  0  0  0  0  0  0  0  0  0  0  0
    6.0380   70.7890   69.1480 C   0  0  0  0  0  0  0  0  0  0  0  0
    6.6280   70.5680   67.9000 C   0  0  0  0  0  0  0  0  0  0  0  0
    5.8030   70.1190   66.8620 C   0  0  0  0  0  0  0  0  0  0  0  0
    6.1040   69.8320   65.5530 N   0  0  0  0  0  0  0  0  0  0  0  0
    0.6985   61.8460   72.2738 H   0  0  0  0  0  0  0  0  0  0  0  0
   -0.7107   63.8702   71.8878 H   0  0  0  0  0  0  0  0  0  0  0  0
    2.5277   65.7045   69.7033 H   0  0  0  0  0  0  0  0  0  0  0  0
    3.9387   63.6869   70.0789 H   0  0  0  0  0  0  0  0  0  0  0  0
    2.1078   60.3059   70.1451 H   0  0  0  0  0  0  0  0  0  0  0  0
    3.7489   58.5061   70.1393 H   0  0  0  0  0  0  0  0  0  0  0  0
    4.5432   59.2788   71.5735 H   0  0  0  0  0  0  0  0  0  0  0  0
    1.8059   57.9333   71.5611 H   0  0  0  0  0  0  0  0  0  0  0  0
    3.3589   57.2316   72.1984 H   0  0  0  0  0  0  0  0  0  0  0  0
    4.4809   58.5110   74.3816 H   0  0  0  0  0  0  0  0  0  0  0  0
    3.2998   59.7657   76.3319 H   0  0  0  0  0  0  0  0  0  0  0  0
   -0.1441   59.2834   72.2023 H   0  0  0  0  0  0  0  0  0  0  0  0
   -1.9149   60.4697   73.5041 H   0  0  0  0  0  0  0  0  0  0  0  0
   -1.4623   61.2722   75.8058 H   0  0  0  0  0  0  0  0  0  0  0  0
    0.7814   60.9025   76.8689 H   0  0  0  0  0  0  0  0  0  0  0  0
    0.7560   67.8802   69.6661 H   0  0  0  0  0  0  0  0  0  0  0  0
    1.4586   66.3821   68.9243 H   0  0  0  0  0  0  0  0  0  0  0  0
   -0.4945   65.8914   67.7457 H   0  0  0  0  0  0  0  0  0  0  0  0
   -1.4831   67.0240   68.7974 H   0  0  0  0  0  0  0  0  0  0  0  0
   -1.3073   67.9990   66.6353 H   0  0  0  0  0  0  0  0  0  0  0  0
   -0.2237   68.9036   67.8126 H   0  0  0  0  0  0  0  0  0  0  0  0
    1.4345   67.0088   66.6474 H   0  0  0  0  0  0  0  0  0  0  0  0
    0.3998   67.6534   65.2877 H   0  0  0  0  0  0  0  0  0  0  0  0
    1.4944   68.3754   63.5899 H   0  0  0  0  0  0  0  0  0  0  0  0
    3.4273   68.3827   62.0399 H   0  0  0  0  0  0  0  0  0  0  0  0
    5.7095   69.0323   62.8431 H   0  0  0  0  0  0  0  0  0  0  0  0
    2.7943   69.9516   68.4592 H   0  0  0  0  0  0  0  0  0  0  0  0
    4.2335   70.7523   70.3360 H   0  0  0  0  0  0  0  0  0  0  0  0
    6.6578   71.1410   69.9858 H   0  0  0  0  0  0  0  0  0  0  0  0
    7.7024   70.7408   67.7394 H   0  0  0  0  0  0  0  0  0  0  0  0
    7.0437   69.9167   65.1399 H   0  0  0  0  0  0  0  0  0  0  0  0
  2  1  2  0
  3  2  1  0
  4  3  2  0
  5  4  1  0
  6  5  2  0
  6  1  1  0
  8  7  2  0
  8  1  1  0
  9  8  1  0
 10  9  1  0
 11 10  1  0
 12 11  1  0
 13 12  2  0
 14 13  1  0
 15 14  1  0
 16 12  1  0
 16 15  2  0
 17 16  1  0
 18 17  2  0
 19 18  1  0
 20 19  2  0
 20 15  1  0
 21  4  1  0
 22 21  1  0
 23 22  1  0
 24 23  1  0
 25 24  1  0
 26 25  1  0
 27 26  1  0
 28 27  2  0
 29 28  1  0
 30 29  2  0
 31 30  1  0
 32 31  2  0
 32 27  1  0
 33 32  1  0
 34 33  2  0
 35 34  1  0
 36 35  2  0
 37 36  1  0
 38 33  1  0
 38 37  2  0
 39 31  1  0
 39 38  1  0
  2 40  1  0
  3 41  1  0
  5 42  1  0
  6 43  1  0
  9 44  1  0
 10 45  1  0
 10 46  1  0
 11 47  1  0
 11 48  1  0
 13 49  1  0
 14 50  1  0
 17 51  1  0
 18 52  1  0
 19 53  1  0
 20 54  1  0
 22 55  1  0
 22 56  1  0
 23 57  1  0
 23 58  1  0
 24 59  1  0
 24 60  1  0
 25 61  1  0
 25 62  1  0
 28 63  1  0
 29 64  1  0
 30 65  1  0
 34 66  1  0
 35 67  1  0
 36 68  1  0
 37 69  1  0
 39 70  1  0
M  END
>  <score>  (3) 
-12.099

$$$$
=
     RDKit          3D

 70 75  0  0  0  0  0  0  0  0999 V2000
    1.7580   62.3610   72.3800 C   0  0  0  0  0  0  0  0  0  0  0  0
    0.5190   62.9560   72.1140 C   0  0  0  0  0  0  0  0  0  0  0  0
    0.4190   63.9820   71.1640 C   0  0  0  0  0  0  0  0  0  0  0  0
    1.5490   64.4130   70.4690 C   0  0  0  0  0  0  0  0  0  0  0  0
    2.7800   63.8060   70.7290 C   0  0  0  0  0  0  0  0  0  0  0  0
    2.8870   62.7820   71.6740 C   0  0  0  0  0  0  0  0  0  0  0  0
    1.8160   61.5140   74.5780 O   0  0  0  0  0  0  0  0  0  0  0  0
    1.9090   61.2680   73.3810 C   0  0  0  0  0  0  0  0  0  0  0  0
    2.1140   60.0000   72.8730 N   0  0  0  0  0  0  0  0  0  0  0  0
    2.1050   58.8450   73.7570 C   0  0  0  0  0  0  0  0  0  0  0  0
    1.1080   57.7840   73.2900 C   0  0  0  0  0  0  0  0  0  0  0  0
   -0.1440   57.7770   74.1070 C   0  0  0  0  0  0  0  0  0  0  0  0
   -0.5650   56.7680   74.9510 C   0  0  0  0  0  0  0  0  0  0  0  0
   -1.7520   57.1460   75.5170 N   0  0  0  0  0  0  0  0  0  0  0  0
   -2.1240   58.3880   75.0570 C   0  0  0  0  0  0  0  0  0  0  0  0
   -1.1340   58.8110   74.1700 C   0  0  0  0  0  0  0  0  0  0  0  0
   -1.2780   60.0730   73.5560 C   0  0  0  0  0  0  0  0  0  0  0  0
   -2.3990   60.8580   73.8470 C   0  0  0  0  0  0  0  0  0  0  0  0
   -3.3710   60.4060   74.7370 C   0  0  0  0  0  0  0  0  0  0  0  0
   -3.2520   59.1600   75.3610 C   0  0  0  0  0  0  0  0  0  0  0  0
    1.5970   65.4010   69.5280 O   0  0  0  0  0  0  0  0  0  0  0  0
    1.0100   66.6690   69.8190 C   0  0  0  0  0  0  0  0  0  0  0  0
    1.1880   67.6540   68.6650 C   0  0  0  0  0  0  0  0  0  0  0  0
    0.1520   67.5120   67.5420 C   0  0  0  0  0  0  0  0  0  0  0  0
    0.6310   67.9650   66.1600 C   0  0  0  0  0  0  0  0  0  0  0  0
    1.5940   69.0200   66.2110 O   0  0  0  0  0  0  0  0  0  0  0  0
    2.5970   69.0000   65.2760 C   0  0  0  0  0  0  0  0  0  0  0  0
    2.3970   68.6310   63.9370 C   0  0  0  0  0  0  0  0  0  0  0  0
    3.4550   68.6230   63.0270 C   0  0  0  0  0  0  0  0  0  0  0  0
    4.7430   68.9930   63.4150 C   0  0  0  0  0  0  0  0  0  0  0  0
    4.9280   69.3880   64.7440 C   0  0  0  0  0  0  0  0  0  0  0  0
    3.8920   69.4140   65.6790 C   0  0  0  0  0  0  0  0  0  0  0  0
    4.4530   69.8870   66.9140 C   0  0  0  0  0  0  0  0  0  0  0  0
    3.9270   70.1430   68.1990 C   0  0  0  0  0  0  0  0  0  0  0  0
    4.7700   70.6050   69.2150 C   0  0  0  0  0  0  0  0  0  0  0  0
    6.1250   70.8160   68.9690 C   0  0  0  0  0  0  0  0  0  0  0  0
    6.6730   70.5760   67.7050 C   0  0  0  0  0  0  0  0  0  0  0  0
    5.8110   70.1150   66.7010 C   0  0  0  0  0  0  0  0  0  0  0  0
    6.0670   69.8090   65.3870 N   0  0  0  0  0  0  0  0  0  0  0  0
   -0.3787   62.6174   72.6520 H   0  0  0  0  0  0  0  0  0  0  0  0
   -0.5565   64.4500   70.9654 H   0  0  0  0  0  0  0  0  0  0  0  0
    3.6757   64.1379   70.1835 H   0  0  0  0  0  0  0  0  0  0  0  0
    3.8613   62.3072   71.8619 H   0  0  0  0  0  0  0  0  0  0  0  0
    2.2740   59.8718   71.8636 H   0  0  0  0  0  0  0  0  0  0  0  0
    3.1123   58.4035   73.7771 H   0  0  0  0  0  0  0  0  0  0  0  0
    1.8027   59.1824   74.7594 H   0  0  0  0  0  0  0  0  0  0  0  0
    0.8439   57.9851   72.2413 H   0  0  0  0  0  0  0  0  0  0  0  0
    1.5877   56.8007   73.4044 H   0  0  0  0  0  0  0  0  0  0  0  0
   -0.0360   55.8216   75.1366 H   0  0  0  0  0  0  0  0  0  0  0  0
   -2.2896   56.5819   76.1905 H   0  0  0  0  0  0  0  0  0  0  0  0
   -0.5142   60.4373   72.8533 H   0  0  0  0  0  0  0  0  0  0  0  0
   -2.5141   61.8417   73.3684 H   0  0  0  0  0  0  0  0  0  0  0  0
   -4.2449   61.0385   74.9521 H   0  0  0  0  0  0  0  0  0  0  0  0
   -4.0166   58.7996   76.0649 H   0  0  0  0  0  0  0  0  0  0  0  0
   -0.0650   66.5294   70.0056 H   0  0  0  0  0  0  0  0  0  0  0  0
    1.5139   67.0843   70.7042 H   0  0  0  0  0  0  0  0  0  0  0  0
    1.1179   68.6743   69.0702 H   0  0  0  0  0  0  0  0  0  0  0  0
    2.1682   67.4361   68.2159 H   0  0  0  0  0  0  0  0  0  0  0  0
   -0.1343   66.4521   67.4736 H   0  0  0  0  0  0  0  0  0  0  0  0
   -0.6850   68.1736   67.8098 H   0  0  0  0  0  0  0  0  0  0  0  0
    1.0845   67.1033   65.6483 H   0  0  0  0  0  0  0  0  0  0  0  0
   -0.2472   68.3524   65.6227 H   0  0  0  0  0  0  0  0  0  0  0  0
    1.3904   68.3435   63.5993 H   0  0  0  0  0  0  0  0  0  0  0  0
    3.2702   68.3198   61.9859 H   0  0  0  0  0  0  0  0  0  0  0  0
    5.5812   68.9748   62.7029 H   0  0  0  0  0  0  0  0  0  0  0  0
    2.8580   69.9797   68.4004 H   0  0  0  0  0  0  0  0  0  0  0  0
    4.3599   70.8033   70.2162 H   0  0  0  0  0  0  0  0  0  0  0  0
    6.7734   71.1767   69.7811 H   0  0  0  0  0  0  0  0  0  0  0  0
    7.7419   70.7430   67.5061 H   0  0  0  0  0  0  0  0  0  0  0  0
    6.9925   69.8852   64.9414 H   0  0  0  0  0  0  0  0  0  0  0  0
  2  1  2  0
  3  2  1  0
  4  3  2  0
  5  4  1  0
  6  5  2  0
  6  1  1  0
  8  7  2  0
  8  1  1  0
  9  8  1  0
 10  9  1  0
 11 10  1  0
 12 11  1  0
 13 12  2  0
 14 13  1  0
 15 14  1  0
 16 12  1  0
 16 15  2  0
 17 16  1  0
 18 17  2  0
 19 18  1  0
 20 19  2  0
 20 15  1  0
 21  4  1  0
 22 21  1  0
 23 22  1  0
 24 23  1  0
 25 24  1  0
 26 25  1  0
 27 26  1  0
 28 27  2  0
 29 28  1  0
 30 29  2  0
 31 30  1  0
 32 31  2  0
 32 27  1  0
 33 32  1  0
 34 33  2  0
 35 34  1  0
 36 35  2  0
 37 36  1  0
 38 33  1  0
 38 37  2  0
 39 31  1  0
 39 38  1  0
  2 40  1  0
  3 41  1  0
  5 42  1  0
  6 43  1  0
  9 44  1  0
 10 45  1  0
 10 46  1  0
 11 47  1  0
 11 48  1  0
 13 49  1  0
 14 50  1  0
 17 51  1  0
 18 52  1  0
 19 53  1  0
 20 54  1  0
 22 55  1  0
 22 56  1  0
 23 57  1  0
 23 58  1  0
 24 59  1  0
 24 60  1  0
 25 61  1  0
 25 62  1  0
 28 63  1  0
 29 64  1  0
 30 65  1  0
 34 66  1  0
 35 67  1  0
 36 68  1  0
 37 69  1  0
 39 70  1  0
M  END
>  <score>  (4) 
-11.863

$$$$
=
     RDKit          3D

 70 75  0  0  0  0  0  0  0  0999 V2000
    2.8100   61.3740   71.0140 C   0  0  0  0  0  0  0  0  0  0  0  0
    3.6690   62.1060   70.1850 C   0  0  0  0  0  0  0  0  0  0  0  0
    3.3980   63.4510   69.8990 C   0  0  0  0  0  0  0  0  0  0  0  0
    2.2760   64.0760   70.4440 C   0  0  0  0  0  0  0  0  0  0  0  0
    1.4290   63.3440   71.2820 C   0  0  0  0  0  0  0  0  0  0  0  0
    1.6940   62.0030   71.5720 C   0  0  0  0  0  0  0  0  0  0  0  0
    3.7940   59.2690   70.6300 O   0  0  0  0  0  0  0  0  0  0  0  0
    3.0610   59.9440   71.3430 C   0  0  0  0  0  0  0  0  0  0  0  0
    2.4590   59.4680   72.4920 N   0  0  0  0  0  0  0  0  0  0  0  0
    2.7750   58.1380   72.9890 C   0  0  0  0  0  0  0  0  0  0  0  0
    1.7700   57.0970   72.4970 C   0  0  0  0  0  0  0  0  0  0  0  0
    0.6090   56.9390   73.4250 C   0  0  0  0  0  0  0  0  0  0  0  0
   -0.1890   57.9530   73.9170 C   0  0  0  0  0  0  0  0  0  0  0  0
   -1.1430   57.3980   74.7260 N   0  0  0  0  0  0  0  0  0  0  0  0
   -0.9860   56.0320   74.7780 C   0  0  0  0  0  0  0  0  0  0  0  0
    0.1060   55.7130   73.9710 C   0  0  0  0  0  0  0  0  0  0  0  0
    0.4770   54.3580   73.8500 C   0  0  0  0  0  0  0  0  0  0  0  0
   -0.2490   53.3790   74.5360 C   0  0  0  0  0  0  0  0  0  0  0  0
   -1.3350   53.7300   75.3350 C   0  0  0  0  0  0  0  0  0  0  0  0
   -1.7250   55.0660   75.4720 C   0  0  0  0  0  0  0  0  0  0  0  0
    1.8890   65.3700   70.2450 O   0  0  0  0  0  0  0  0  0  0  0  0
    0.5060   65.7080   70.3540 C   0  0  0  0  0  0  0  0  0  0  0  0
    0.0470   66.5920   69.1950 C   0  0  0  0  0  0  0  0  0  0  0  0
    1.1820   67.3230   68.4650 C   0  0  0  0  0  0  0  0  0  0  0  0
    0.7990   67.9140   67.1050 C   0  0  0  0  0  0  0  0  0  0  0  0
    1.4960   69.1220   66.7960 O   0  0  0  0  0  0  0  0  0  0  0  0
    2.4070   69.0760   65.7720 C   0  0  0  0  0  0  0  0  0  0  0  0
    2.0750   68.7110   64.4580 C   0  0  0  0  0  0  0  0  0  0  0  0
    3.0430   68.6770   63.4540 C   0  0  0  0  0  0  0  0  0  0  0  0
    4.3700   69.0130   63.7200 C   0  0  0  0  0  0  0  0  0  0  0  0
    4.6880   69.4050   65.0240 C   0  0  0  0  0  0  0  0  0  0  0  0
    3.7440   69.4580   66.0520 C   0  0  0  0  0  0  0  0  0  0  0  0
    4.4290   69.9170   67.2280 C   0  0  0  0  0  0  0  0  0  0  0  0
    4.0310   70.1880   68.5550 C   0  0  0  0  0  0  0  0  0  0  0  0
    4.9770   70.6280   69.4870 C   0  0  0  0  0  0  0  0  0  0  0  0
    6.3080   70.8050   69.1160 C   0  0  0  0  0  0  0  0  0  0  0  0
    6.7290   70.5500   67.8070 C   0  0  0  0  0  0  0  0  0  0  0  0
    5.7670   70.1100   66.8890 C   0  0  0  0  0  0  0  0  0  0  0  0
    5.8920   69.7970   65.5580 N   0  0  0  0  0  0  0  0  0  0  0  0
    4.5599   61.6235   69.7566 H   0  0  0  0  0  0  0  0  0  0  0  0
    4.0738   64.0171   69.2411 H   0  0  0  0  0  0  0  0  0  0  0  0
    0.5436   63.8296   71.7181 H   0  0  0  0  0  0  0  0  0  0  0  0
    1.0237   61.4422   72.2400 H   0  0  0  0  0  0  0  0  0  0  0  0
    1.7835   60.0576   72.9989 H   0  0  0  0  0  0  0  0  0  0  0  0
    3.7795   57.8565   72.6401 H   0  0  0  0  0  0  0  0  0  0  0  0
    2.7320   58.1635   74.0879 H   0  0  0  0  0  0  0  0  0  0  0  0
    1.3939   57.4081   71.5112 H   0  0  0  0  0  0  0  0  0  0  0  0
    2.2900   56.1291   72.4444 H   0  0  0  0  0  0  0  0  0  0  0  0
   -0.0768   59.0247   73.6961 H   0  0  0  0  0  0  0  0  0  0  0  0
   -1.8733   57.9266   75.2242 H   0  0  0  0  0  0  0  0  0  0  0  0
    1.3323   54.0727   73.2199 H   0  0  0  0  0  0  0  0  0  0  0  0
    0.0402   52.3217   74.4438 H   0  0  0  0  0  0  0  0  0  0  0  0
   -1.8937   52.9450   75.8657 H   0  0  0  0  0  0  0  0  0  0  0  0
   -2.5814   55.3479   76.1022 H   0  0  0  0  0  0  0  0  0  0  0  0
   -0.0883   64.7824   70.3534 H   0  0  0  0  0  0  0  0  0  0  0  0
    0.3626   66.2679   71.2899 H   0  0  0  0  0  0  0  0  0  0  0  0
   -0.4782   65.9575   68.4658 H   0  0  0  0  0  0  0  0  0  0  0  0
   -0.5974   67.3699   69.6305 H   0  0  0  0  0  0  0  0  0  0  0  0
    1.5291   68.1445   69.1090 H   0  0  0  0  0  0  0  0  0  0  0  0
    1.9571   66.5683   68.2660 H   0  0  0  0  0  0  0  0  0  0  0  0
    1.0254   67.1714   66.3257 H   0  0  0  0  0  0  0  0  0  0  0  0
   -0.2727   68.1584   67.1468 H   0  0  0  0  0  0  0  0  0  0  0  0
    1.0348   68.4475   64.2160 H   0  0  0  0  0  0  0  0  0  0  0  0
    2.7545   68.3800   62.4349 H   0  0  0  0  0  0  0  0  0  0  0  0
    5.1379   68.9712   62.9335 H   0  0  0  0  0  0  0  0  0  0  0  0
    2.9813   70.0537   68.8550 H   0  0  0  0  0  0  0  0  0  0  0  0
    4.6671   70.8360   70.5218 H   0  0  0  0  0  0  0  0  0  0  0  0
    7.0380   71.1501   69.8630 H   0  0  0  0  0  0  0  0  0  0  0  0
    7.7785   70.6900   67.5089 H   0  0  0  0  0  0  0  0  0  0  0  0
    6.7739   69.8492   65.0284 H   0  0  0  0  0  0  0  0  0  0  0  0
  2  1  2  0
  3  2  1  0
  4  3  2  0
  5  4  1  0
  6  5  2  0
  6  1  1  0
  8  7  2  0
  8  1  1  0
  9  8  1  0
 10  9  1  0
 11 10  1  0
 12 11  1  0
 13 12  2  0
 14 13  1  0
 15 14  1  0
 16 12  1  0
 16 15  2  0
 17 16  1  0
 18 17  2  0
 19 18  1  0
 20 19  2  0
 20 15  1  0
 21  4  1  0
 22 21  1  0
 23 22  1  0
 24 23  1  0
 25 24  1  0
 26 25  1  0
 27 26  1  0
 28 27  2  0
 29 28  1  0
 30 29  2  0
 31 30  1  0
 32 31  2  0
 32 27  1  0
 33 32  1  0
 34 33  2  0
 35 34  1  0
 36 35  2  0
 37 36  1  0
 38 33  1  0
 38 37  2  0
 39 31  1  0
 39 38  1  0
  2 40  1  0
  3 41  1  0
  5 42  1  0
  6 43  1  0
  9 44  1  0
 10 45  1  0
 10 46  1  0
 11 47  1  0
 11 48  1  0
 13 49  1  0
 14 50  1  0
 17 51  1  0
 18 52  1  0
 19 53  1  0
 20 54  1  0
 22 55  1  0
 22 56  1  0
 23 57  1  0
 23 58  1  0
 24 59  1  0
 24 60  1  0
 25 61  1  0
 25 62  1  0
 28 63  1  0
 29 64  1  0
 30 65  1  0
 34 66  1  0
 35 67  1  0
 36 68  1  0
 37 69  1  0
 39 70  1  0
M  END
>  <score>  (5) 
-11.773

$$$$
=
     RDKit          3D

 70 75  0  0  0  0  0  0  0  0999 V2000
    1.8250   62.7810   71.7810 C   0  0  0  0  0  0  0  0  0  0  0  0
    2.6950   63.3810   70.8620 C   0  0  0  0  0  0  0  0  0  0  0  0
    2.3680   64.6140   70.2820 C   0  0  0  0  0  0  0  0  0  0  0  0
    1.1770   65.2590   70.6190 C   0  0  0  0  0  0  0  0  0  0  0  0
    0.3190   64.6610   71.5470 C   0  0  0  0  0  0  0  0  0  0  0  0
    0.6410   63.4330   72.1300 C   0  0  0  0  0  0  0  0  0  0  0  0
    1.7480   60.4300   71.9070 O   0  0  0  0  0  0  0  0  0  0  0  0
    2.1350   61.4720   72.4210 C   0  0  0  0  0  0  0  0  0  0  0  0
    2.8980   61.5220   73.5720 N   0  0  0  0  0  0  0  0  0  0  0  0
    3.3950   60.2960   74.1760 C   0  0  0  0  0  0  0  0  0  0  0  0
    2.3440   59.6440   75.0740 C   0  0  0  0  0  0  0  0  0  0  0  0
    2.5260   58.1640   75.1870 C   0  0  0  0  0  0  0  0  0  0  0  0
    3.5750   57.5140   75.8070 C   0  0  0  0  0  0  0  0  0  0  0  0
    3.3700   56.1650   75.7000 N   0  0  0  0  0  0  0  0  0  0  0  0
    2.2030   55.9140   75.0170 C   0  0  0  0  0  0  0  0  0  0  0  0
    1.6490   57.1500   74.6820 C   0  0  0  0  0  0  0  0  0  0  0  0
    0.4310   57.1690   73.9720 C   0  0  0  0  0  0  0  0  0  0  0  0
   -0.1840   55.9610   73.6230 C   0  0  0  0  0  0  0  0  0  0  0  0
    0.3960   54.7430   73.9720 C   0  0  0  0  0  0  0  0  0  0  0  0
    1.6020   54.6960   74.6770 C   0  0  0  0  0  0  0  0  0  0  0  0
    0.7310   66.4520   70.1280 O   0  0  0  0  0  0  0  0  0  0  0  0
   -0.3970   66.4670   69.2540 C   0  0  0  0  0  0  0  0  0  0  0  0
   -0.1680   67.3770   68.0490 C   0  0  0  0  0  0  0  0  0  0  0  0
    1.2190   67.2440   67.4070 C   0  0  0  0  0  0  0  0  0  0  0  0
    1.2580   67.4910   65.8960 C   0  0  0  0  0  0  0  0  0  0  0  0
    1.6760   68.8120   65.5480 O   0  0  0  0  0  0  0  0  0  0  0  0
    2.8380   68.9330   64.8280 C   0  0  0  0  0  0  0  0  0  0  0  0
    2.9300   68.6480   63.4570 C   0  0  0  0  0  0  0  0  0  0  0  0
    4.1390   68.7840   62.7740 C   0  0  0  0  0  0  0  0  0  0  0  0
    5.2920   69.2180   63.4280 C   0  0  0  0  0  0  0  0  0  0  0  0
    5.1850   69.5290   64.7860 C   0  0  0  0  0  0  0  0  0  0  0  0
    3.9910   69.4120   65.5000 C   0  0  0  0  0  0  0  0  0  0  0  0
    4.2630   69.8340   66.8460 C   0  0  0  0  0  0  0  0  0  0  0  0
    3.4810   69.9580   68.0150 C   0  0  0  0  0  0  0  0  0  0  0  0
    4.0720   70.4060   69.2010 C   0  0  0  0  0  0  0  0  0  0  0  0
    5.4250   70.7330   69.2380 C   0  0  0  0  0  0  0  0  0  0  0  0
    6.2230   70.6260   68.0950 C   0  0  0  0  0  0  0  0  0  0  0  0
    5.6120   70.1760   66.9170 C   0  0  0  0  0  0  0  0  0  0  0  0
    6.1400   69.9850   65.6640 N   0  0  0  0  0  0  0  0  0  0  0  0
    3.6384   62.8826   70.5945 H   0  0  0  0  0  0  0  0  0  0  0  0
    3.0540   65.0763   69.5569 H   0  0  0  0  0  0  0  0  0  0  0  0
   -0.6204   65.1633   71.8212 H   0  0  0  0  0  0  0  0  0  0  0  0
   -0.0396   62.9790   72.8653 H   0  0  0  0  0  0  0  0  0  0  0  0
    3.1156   62.4314   74.0039 H   0  0  0  0  0  0  0  0  0  0  0  0
    3.6694   59.5907   73.3777 H   0  0  0  0  0  0  0  0  0  0  0  0
    4.2683   60.5476   74.7957 H   0  0  0  0  0  0  0  0  0  0  0  0
    2.4153   60.0859   76.0788 H   0  0  0  0  0  0  0  0  0  0  0  0
    1.3582   59.8260   74.6212 H   0  0  0  0  0  0  0  0  0  0  0  0
    4.4296   57.9980   76.3024 H   0  0  0  0  0  0  0  0  0  0  0  0
    3.9992   55.4418   76.0768 H   0  0  0  0  0  0  0  0  0  0  0  0
   -0.0329   58.1269   73.6942 H   0  0  0  0  0  0  0  0  0  0  0  0
   -1.1338   55.9733   73.0682 H   0  0  0  0  0  0  0  0  0  0  0  0
   -0.1027   53.8045   73.6884 H   0  0  0  0  0  0  0  0  0  0  0  0
    2.0625   53.7364   74.9548 H   0  0  0  0  0  0  0  0  0  0  0  0
   -0.5845   65.4436   68.8969 H   0  0  0  0  0  0  0  0  0  0  0  0
   -1.2600   66.8538   69.8158 H   0  0  0  0  0  0  0  0  0  0  0  0
   -0.9240   67.1355   67.2873 H   0  0  0  0  0  0  0  0  0  0  0  0
   -0.2447   68.4105   68.4179 H   0  0  0  0  0  0  0  0  0  0  0  0
    1.8895   67.9706   67.8892 H   0  0  0  0  0  0  0  0  0  0  0  0
    1.5285   66.1990   67.5563 H   0  0  0  0  0  0  0  0  0  0  0  0
    1.9578   66.7731   65.4432 H   0  0  0  0  0  0  0  0  0  0  0  0
    0.2321   67.3651   65.5196 H   0  0  0  0  0  0  0  0  0  0  0  0
    2.0352   68.3122   62.9124 H   0  0  0  0  0  0  0  0  0  0  0  0
    4.1836   68.5448   61.7012 H   0  0  0  0  0  0  0  0  0  0  0  0
    6.2495   69.3119   62.8947 H   0  0  0  0  0  0  0  0  0  0  0  0
    2.4111   69.7033   67.9932 H   0  0  0  0  0  0  0  0  0  0  0  0
    3.4629   70.5008   70.1120 H   0  0  0  0  0  0  0  0  0  0  0  0
    5.8727   71.0807   70.1807 H   0  0  0  0  0  0  0  0  0  0  0  0
    7.2916   70.8856   68.1196 H   0  0  0  0  0  0  0  0  0  0  0  0
    7.1237   70.1605   65.4142 H   0  0  0  0  0  0  0  0  0  0  0  0
  2  1  2  0
  3  2  1  0
  4  3  2  0
  5  4  1  0
  6  5  2  0
  6  1  1  0
  8  7  2  0
  8  1  1  0
  9  8  1  0
 10  9  1  0
 11 10  1  0
 12 11  1  0
 13 12  2  0
 14 13  1  0
 15 14  1  0
 16 12  1  0
 16 15  2  0
 17 16  1  0
 18 17  2  0
 19 18  1  0
 20 19  2  0
 20 15  1  0
 21  4  1  0
 22 21  1  0
 23 22  1  0
 24 23  1  0
 25 24  1  0
 26 25  1  0
 27 26  1  0
 28 27  2  0
 29 28  1  0
 30 29  2  0
 31 30  1  0
 32 31  2  0
 32 27  1  0
 33 32  1  0
 34 33  2  0
 35 34  1  0
 36 35  2  0
 37 36  1  0
 38 33  1  0
 38 37  2  0
 39 31  1  0
 39 38  1  0
  2 40  1  0
  3 41  1  0
  5 42  1  0
  6 43  1  0
  9 44  1  0
 10 45  1  0
 10 46  1  0
 11 47  1  0
 11 48  1  0
 13 49  1  0
 14 50  1  0
 17 51  1  0
 18 52  1  0
 19 53  1  0
 20 54  1  0
 22 55  1  0
 22 56  1  0
 23 57  1  0
 23 58  1  0
 24 59  1  0
 24 60  1  0
 25 61  1  0
 25 62  1  0
 28 63  1  0
 29 64  1  0
 30 65  1  0
 34 66  1  0
 35 67  1  0
 36 68  1  0
 37 69  1  0
 39 70  1  0
M  END
>  <score>  (6) 
-11.662

$$$$
=
     RDKit          3D

 70 75  0  0  0  0  0  0  0  0999 V2000
    0.0170   65.6030   70.1480 C   0  0  0  0  0  0  0  0  0  0  0  0
   -0.0140   66.0800   71.4640 C   0  0  0  0  0  0  0  0  0  0  0  0
    0.0070   65.1840   72.5400 C   0  0  0  0  0  0  0  0  0  0  0  0
    0.0670   63.8090   72.3120 C   0  0  0  0  0  0  0  0  0  0  0  0
    0.1100   63.3390   70.9970 C   0  0  0  0  0  0  0  0  0  0  0  0
    0.0910   64.2270   69.9190 C   0  0  0  0  0  0  0  0  0  0  0  0
   -0.8830   66.4160   68.1270 O   0  0  0  0  0  0  0  0  0  0  0  0
   -0.0040   66.5210   68.9750 C   0  0  0  0  0  0  0  0  0  0  0  0
    0.9820   67.4880   68.9400 N   0  0  0  0  0  0  0  0  0  0  0  0
    0.9490   68.5340   67.9300 C   0  0  0  0  0  0  0  0  0  0  0  0
    1.8720   69.6970   68.2930 C   0  0  0  0  0  0  0  0  0  0  0  0
    3.1380   69.6920   67.4990 C   0  0  0  0  0  0  0  0  0  0  0  0
    3.2800   69.2810   66.1870 C   0  0  0  0  0  0  0  0  0  0  0  0
    4.5910   69.4380   65.8250 N   0  0  0  0  0  0  0  0  0  0  0  0
    5.3180   69.9430   66.8780 C   0  0  0  0  0  0  0  0  0  0  0  0
    4.4330   70.1150   67.9430 C   0  0  0  0  0  0  0  0  0  0  0  0
    4.9360   70.6310   69.1560 C   0  0  0  0  0  0  0  0  0  0  0  0
    6.2930   70.9530   69.2590 C   0  0  0  0  0  0  0  0  0  0  0  0
    7.1510   70.7700   68.1770 C   0  0  0  0  0  0  0  0  0  0  0  0
    6.6790   70.2610   66.9630 C   0  0  0  0  0  0  0  0  0  0  0  0
    0.0850   62.8270   73.2610 O   0  0  0  0  0  0  0  0  0  0  0  0
    0.4830   63.1540   74.5930 C   0  0  0  0  0  0  0  0  0  0  0  0
    0.1960   62.0110   75.5660 C   0  0  0  0  0  0  0  0  0  0  0  0
    1.4350   61.4610   76.2830 C   0  0  0  0  0  0  0  0  0  0  0  0
    2.1760   60.3500   75.5330 C   0  0  0  0  0  0  0  0  0  0  0  0
    2.4100   60.6550   74.1560 O   0  0  0  0  0  0  0  0  0  0  0  0
    2.4570   59.6010   73.2800 C   0  0  0  0  0  0  0  0  0  0  0  0
    2.0970   58.2900   73.6280 C   0  0  0  0  0  0  0  0  0  0  0  0
    2.1690   57.2530   72.6980 C   0  0  0  0  0  0  0  0  0  0  0  0
    2.5900   57.4860   71.3890 C   0  0  0  0  0  0  0  0  0  0  0  0
    2.9180   58.8000   71.0410 C   0  0  0  0  0  0  0  0  0  0  0  0
    2.8510   59.8630   71.9430 C   0  0  0  0  0  0  0  0  0  0  0  0
    3.2390   61.0470   71.2280 C   0  0  0  0  0  0  0  0  0  0  0  0
    3.3560   62.4110   71.5720 C   0  0  0  0  0  0  0  0  0  0  0  0
    3.7800   63.3350   70.6120 C   0  0  0  0  0  0  0  0  0  0  0  0
    4.0870   62.9220   69.3180 C   0  0  0  0  0  0  0  0  0  0  0  0
    3.9750   61.5790   68.9460 C   0  0  0  0  0  0  0  0  0  0  0  0
    3.5480   60.6690   69.9220 C   0  0  0  0  0  0  0  0  0  0  0  0
    3.3430   59.3130   69.8390 N   0  0  0  0  0  0  0  0  0  0  0  0
   -0.0550   67.1628   71.6534 H   0  0  0  0  0  0  0  0  0  0  0  0
   -0.0240   65.5665   73.5709 H   0  0  0  0  0  0  0  0  0  0  0  0
    0.1594   62.2564   70.8083 H   0  0  0  0  0  0  0  0  0  0  0  0
    0.1343   63.8426   68.8893 H   0  0  0  0  0  0  0  0  0  0  0  0
    1.7442   67.4681   69.6325 H   0  0  0  0  0  0  0  0  0  0  0  0
    1.2704   68.1105   66.9670 H   0  0  0  0  0  0  0  0  0  0  0  0
   -0.0797   68.9184   67.8667 H   0  0  0  0  0  0  0  0  0  0  0  0
    1.3407   70.6414   68.1038 H   0  0  0  0  0  0  0  0  0  0  0  0
    2.1424   69.5906   69.3539 H   0  0  0  0  0  0  0  0  0  0  0  0
    2.4765   68.8937   65.5433 H   0  0  0  0  0  0  0  0  0  0  0  0
    4.9774   69.2107   64.8977 H   0  0  0  0  0  0  0  0  0  0  0  0
    4.2652   70.7791   70.0151 H   0  0  0  0  0  0  0  0  0  0  0  0
    6.6869   71.3549   70.2042 H   0  0  0  0  0  0  0  0  0  0  0  0
    8.2151   71.0296   68.2789 H   0  0  0  0  0  0  0  0  0  0  0  0
    7.3527   70.1157   66.1057 H   0  0  0  0  0  0  0  0  0  0  0  0
    1.5624   63.3659   74.6006 H   0  0  0  0  0  0  0  0  0  0  0  0
   -0.0938   64.0328   74.9170 H   0  0  0  0  0  0  0  0  0  0  0  0
   -0.5080   62.3768   76.3280 H   0  0  0  0  0  0  0  0  0  0  0  0
   -0.2116   61.1840   74.9661 H   0  0  0  0  0  0  0  0  0  0  0  0
    2.1365   62.2937   76.4397 H   0  0  0  0  0  0  0  0  0  0  0  0
    1.0743   61.0121   77.2202 H   0  0  0  0  0  0  0  0  0  0  0  0
    3.1466   60.1849   76.0237 H   0  0  0  0  0  0  0  0  0  0  0  0
    1.5377   59.4546   75.5641 H   0  0  0  0  0  0  0  0  0  0  0  0
    1.7525   58.0768   74.6507 H   0  0  0  0  0  0  0  0  0  0  0  0
    1.8889   56.2337   73.0023 H   0  0  0  0  0  0  0  0  0  0  0  0
    2.6613   56.6671   70.6580 H   0  0  0  0  0  0  0  0  0  0  0  0
    3.1145   62.7458   72.5916 H   0  0  0  0  0  0  0  0  0  0  0  0
    3.8719   64.3976   70.8813 H   0  0  0  0  0  0  0  0  0  0  0  0
    4.4225   63.6633   68.5778 H   0  0  0  0  0  0  0  0  0  0  0  0
    4.2135   61.2488   67.9242 H   0  0  0  0  0  0  0  0  0  0  0  0
    3.4889   58.7536   68.9866 H   0  0  0  0  0  0  0  0  0  0  0  0
  2  1  2  0
  3  2  1  0
  4  3  2  0
  5  4  1  0
  6  5  2  0
  6  1  1  0
  8  7  2  0
  8  1  1  0
  9  8  1  0
 10  9  1  0
 11 10  1  0
 12 11  1  0
 13 12  2  0
 14 13  1  0
 15 14  1  0
 16 12  1  0
 16 15  2  0
 17 16  1  0
 18 17  2  0
 19 18  1  0
 20 19  2  0
 20 15  1  0
 21  4  1  0
 22 21  1  0
 23 22  1  0
 24 23  1  0
 25 24  1  0
 26 25  1  0
 27 26  1  0
 28 27  2  0
 29 28  1  0
 30 29  2  0
 31 30  1  0
 32 31  2  0
 32 27  1  0
 33 32  1  0
 34 33  2  0
 35 34  1  0
 36 35  2  0
 37 36  1  0
 38 33  1  0
 38 37  2  0
 39 31  1  0
 39 38  1  0
  2 40  1  0
  3 41  1  0
  5 42  1  0
  6 43  1  0
  9 44  1  0
 10 45  1  0
 10 46  1  0
 11 47  1  0
 11 48  1  0
 13 49  1  0
 14 50  1  0
 17 51  1  0
 18 52  1  0
 19 53  1  0
 20 54  1  0
 22 55  1  0
 22 56  1  0
 23 57  1  0
 23 58  1  0
 24 59  1  0
 24 60  1  0
 25 61  1  0
 25 62  1  0
 28 63  1  0
 29 64  1  0
 30 65  1  0
 34 66  1  0
 35 67  1  0
 36 68  1  0
 37 69  1  0
 39 70  1  0
M  END
>  <score>  (7) 
-11.308

$$$$
=
     RDKit          3D

 70 75  0  0  0  0  0  0  0  0999 V2000
   -0.1040   67.5730   67.0400 C   0  0  0  0  0  0  0  0  0  0  0  0
   -1.2940   67.0310   67.5420 C   0  0  0  0  0  0  0  0  0  0  0  0
   -1.3140   66.4190   68.8020 C   0  0  0  0  0  0  0  0  0  0  0  0
   -0.1520   66.3500   69.5720 C   0  0  0  0  0  0  0  0  0  0  0  0
    1.0290   66.9050   69.0710 C   0  0  0  0  0  0  0  0  0  0  0  0
    1.0560   67.5180   67.8160 C   0  0  0  0  0  0  0  0  0  0  0  0
   -1.0230   68.8060   65.2550 O   0  0  0  0  0  0  0  0  0  0  0  0
   -0.0390   68.2320   65.7050 C   0  0  0  0  0  0  0  0  0  0  0  0
    1.1810   68.1820   65.0600 N   0  0  0  0  0  0  0  0  0  0  0  0
    1.3950   68.9360   63.8350 C   0  0  0  0  0  0  0  0  0  0  0  0
    2.6160   68.4310   63.0660 C   0  0  0  0  0  0  0  0  0  0  0  0
    3.8980   68.9730   63.6090 C   0  0  0  0  0  0  0  0  0  0  0  0
    5.0530   69.2160   62.8900 C   0  0  0  0  0  0  0  0  0  0  0  0
    5.9970   69.7150   63.7460 N   0  0  0  0  0  0  0  0  0  0  0  0
    5.4850   69.8030   65.0200 C   0  0  0  0  0  0  0  0  0  0  0  0
    4.1680   69.3450   64.9660 C   0  0  0  0  0  0  0  0  0  0  0  0
    3.4120   69.3370   66.1560 C   0  0  0  0  0  0  0  0  0  0  0  0
    3.9950   69.7820   67.3470 C   0  0  0  0  0  0  0  0  0  0  0  0
    5.3120   70.2330   67.3680 C   0  0  0  0  0  0  0  0  0  0  0  0
    6.0840   70.2530   66.2020 C   0  0  0  0  0  0  0  0  0  0  0  0
   -0.0270   65.7800   70.8060 O   0  0  0  0  0  0  0  0  0  0  0  0
    0.5620   64.4850   70.9180 C   0  0  0  0  0  0  0  0  0  0  0  0
    0.1780   63.8000   72.2290 C   0  0  0  0  0  0  0  0  0  0  0  0
   -0.2800   62.3440   72.0740 C   0  0  0  0  0  0  0  0  0  0  0  0
   -0.6310   61.6350   73.3860 C   0  0  0  0  0  0  0  0  0  0  0  0
    0.4920   61.0130   74.0120 O   0  0  0  0  0  0  0  0  0  0  0  0
    0.8080   59.7400   73.6120 C   0  0  0  0  0  0  0  0  0  0  0  0
    0.0210   58.6180   73.9150 C   0  0  0  0  0  0  0  0  0  0  0  0
    0.3910   57.3420   73.4870 C   0  0  0  0  0  0  0  0  0  0  0  0
    1.5490   57.1420   72.7350 C   0  0  0  0  0  0  0  0  0  0  0  0
    2.3110   58.2680   72.4110 C   0  0  0  0  0  0  0  0  0  0  0  0
    1.9680   59.5590   72.8170 C   0  0  0  0  0  0  0  0  0  0  0  0
    2.9650   60.4450   72.2850 C   0  0  0  0  0  0  0  0  0  0  0  0
    3.1640   61.8420   72.3300 C   0  0  0  0  0  0  0  0  0  0  0  0
    4.2760   62.4060   71.6940 C   0  0  0  0  0  0  0  0  0  0  0  0
    5.1870   61.6000   71.0160 C   0  0  0  0  0  0  0  0  0  0  0  0
    5.0130   60.2150   70.9500 C   0  0  0  0  0  0  0  0  0  0  0  0
    3.8930   59.6700   71.5920 C   0  0  0  0  0  0  0  0  0  0  0  0
    3.4730   58.3650   71.6830 N   0  0  0  0  0  0  0  0  0  0  0  0
   -2.2161   67.0861   66.9448 H   0  0  0  0  0  0  0  0  0  0  0  0
   -2.2511   65.9903   69.1868 H   0  0  0  0  0  0  0  0  0  0  0  0
    1.9488   66.8585   69.6725 H   0  0  0  0  0  0  0  0  0  0  0  0
    1.9912   67.9575   67.4388 H   0  0  0  0  0  0  0  0  0  0  0  0
    1.9430   67.6080   65.4483 H   0  0  0  0  0  0  0  0  0  0  0  0
    0.5053   68.8374   63.1957 H   0  0  0  0  0  0  0  0  0  0  0  0
    1.5713   69.9874   64.1060 H   0  0  0  0  0  0  0  0  0  0  0  0
    2.6427   67.3331   63.1280 H   0  0  0  0  0  0  0  0  0  0  0  0
    2.5216   68.7749   62.0254 H   0  0  0  0  0  0  0  0  0  0  0  0
    5.1902   69.0385   61.8131 H   0  0  0  0  0  0  0  0  0  0  0  0
    6.9532   69.9857   63.4754 H   0  0  0  0  0  0  0  0  0  0  0  0
    2.3705   68.9831   66.1479 H   0  0  0  0  0  0  0  0  0  0  0  0
    3.4069   69.7756   68.2766 H   0  0  0  0  0  0  0  0  0  0  0  0
    5.7517   70.5786   68.3153 H   0  0  0  0  0  0  0  0  0  0  0  0
    7.1245   70.6096   66.2136 H   0  0  0  0  0  0  0  0  0  0  0  0
    0.2191   63.8637   70.0775 H   0  0  0  0  0  0  0  0  0  0  0  0
    1.6555   64.6034   70.9008 H   0  0  0  0  0  0  0  0  0  0  0  0
    1.0536   63.8160   72.8947 H   0  0  0  0  0  0  0  0  0  0  0  0
   -0.6797   64.3570   72.6342 H   0  0  0  0  0  0  0  0  0  0  0  0
   -1.1720   62.3331   71.4304 H   0  0  0  0  0  0  0  0  0  0  0  0
    0.5725   61.7964   71.6459 H   0  0  0  0  0  0  0  0  0  0  0  0
   -1.0516   62.3763   74.0814 H   0  0  0  0  0  0  0  0  0  0  0  0
   -1.3499   60.8387   73.1429 H   0  0  0  0  0  0  0  0  0  0  0  0
   -0.9022   58.7463   74.4991 H   0  0  0  0  0  0  0  0  0  0  0  0
   -0.2408   56.4799   73.7469 H   0  0  0  0  0  0  0  0  0  0  0  0
    1.8510   56.1357   72.4092 H   0  0  0  0  0  0  0  0  0  0  0  0
    2.4478   62.4848   72.8629 H   0  0  0  0  0  0  0  0  0  0  0  0
    4.4315   63.4944   71.7300 H   0  0  0  0  0  0  0  0  0  0  0  0
    6.0569   62.0606   70.5249 H   0  0  0  0  0  0  0  0  0  0  0  0
    5.7294   59.5756   70.4134 H   0  0  0  0  0  0  0  0  0  0  0  0
    3.9645   57.5642   71.2610 H   0  0  0  0  0  0  0  0  0  0  0  0
  2  1  2  0
  3  2  1  0
  4  3  2  0
  5  4  1  0
  6  5  2  0
  6  1  1  0
  8  7  2  0
  8  1  1  0
  9  8  1  0
 10  9  1  0
 11 10  1  0
 12 11  1  0
 13 12  2  0
 14 13  1  0
 15 14  1  0
 16 12  1  0
 16 15  2  0
 17 16  1  0
 18 17  2  0
 19 18  1  0
 20 19  2  0
 20 15  1  0
 21  4  1  0
 22 21  1  0
 23 22  1  0
 24 23  1  0
 25 24  1  0
 26 25  1  0
 27 26  1  0
 28 27  2  0
 29 28  1  0
 30 29  2  0
 31 30  1  0
 32 31  2  0
 32 27  1  0
 33 32  1  0
 34 33  2  0
 35 34  1  0
 36 35  2  0
 37 36  1  0
 38 33  1  0
 38 37  2  0
 39 31  1  0
 39 38  1  0
  2 40  1  0
  3 41  1  0
  5 42  1  0
  6 43  1  0
  9 44  1  0
 10 45  1  0
 10 46  1  0
 11 47  1  0
 11 48  1  0
 13 49  1  0
 14 50  1  0
 17 51  1  0
 18 52  1  0
 19 53  1  0
 20 54  1  0
 22 55  1  0
 22 56  1  0
 23 57  1  0
 23 58  1  0
 24 59  1  0
 24 60  1  0
 25 61  1  0
 25 62  1  0
 28 63  1  0
 29 64  1  0
 30 65  1  0
 34 66  1  0
 35 67  1  0
 36 68  1  0
 37 69  1  0
 39 70  1  0
M  END
>  <score>  (8) 
-11.085

$$$$
=
     RDKit          3D

 70 75  0  0  0  0  0  0  0  0999 V2000
    1.7270   62.7500   71.9490 C   0  0  0  0  0  0  0  0  0  0  0  0
    2.5700   63.3080   70.9790 C   0  0  0  0  0  0  0  0  0  0  0  0
    2.2460   64.5360   70.3860 C   0  0  0  0  0  0  0  0  0  0  0  0
    1.0870   65.2170   70.7590 C   0  0  0  0  0  0  0  0  0  0  0  0
    0.2570   64.6600   71.7370 C   0  0  0  0  0  0  0  0  0  0  0  0
    0.5750   63.4380   72.3340 C   0  0  0  0  0  0  0  0  0  0  0  0
    1.6670   60.3990   72.0900 O   0  0  0  0  0  0  0  0  0  0  0  0
    2.0340   61.4480   72.6050 C   0  0  0  0  0  0  0  0  0  0  0  0
    2.7710   61.5120   73.7710 N   0  0  0  0  0  0  0  0  0  0  0  0
    3.2640   60.2950   74.3960 C   0  0  0  0  0  0  0  0  0  0  0  0
    2.1550   59.5530   75.1400 C   0  0  0  0  0  0  0  0  0  0  0  0
    2.3950   58.0790   75.2050 C   0  0  0  0  0  0  0  0  0  0  0  0
    3.5010   57.4530   75.7470 C   0  0  0  0  0  0  0  0  0  0  0  0
    3.3380   56.1000   75.6170 N   0  0  0  0  0  0  0  0  0  0  0  0
    2.1430   55.8230   74.9950 C   0  0  0  0  0  0  0  0  0  0  0  0
    1.5270   57.0450   74.7250 C   0  0  0  0  0  0  0  0  0  0  0  0
    0.2700   57.0350   74.0860 C   0  0  0  0  0  0  0  0  0  0  0  0
   -0.3200   55.8140   73.7420 C   0  0  0  0  0  0  0  0  0  0  0  0
    0.3210   54.6110   74.0260 C   0  0  0  0  0  0  0  0  0  0  0  0
    1.5670   54.5920   74.6600 C   0  0  0  0  0  0  0  0  0  0  0  0
    0.6490   66.4090   70.2610 O   0  0  0  0  0  0  0  0  0  0  0  0
   -0.5190   66.4340   69.4410 C   0  0  0  0  0  0  0  0  0  0  0  0
   -0.2850   67.2080   68.1440 C   0  0  0  0  0  0  0  0  0  0  0  0
    1.0410   66.8850   67.4430 C   0  0  0  0  0  0  0  0  0  0  0  0
    1.3440   67.7410   66.2100 C   0  0  0  0  0  0  0  0  0  0  0  0
    1.5390   69.1240   66.5130 O   0  0  0  0  0  0  0  0  0  0  0  0
    2.7900   69.5050   66.9280 C   0  0  0  0  0  0  0  0  0  0  0  0
    3.0940   69.8370   68.2570 C   0  0  0  0  0  0  0  0  0  0  0  0
    4.3840   70.2240   68.6240 C   0  0  0  0  0  0  0  0  0  0  0  0
    5.4140   70.2820   67.6860 C   0  0  0  0  0  0  0  0  0  0  0  0
    5.1100   69.9200   66.3700 C   0  0  0  0  0  0  0  0  0  0  0  0
    3.8330   69.5220   65.9680 C   0  0  0  0  0  0  0  0  0  0  0  0
    3.9110   69.2140   64.5680 C   0  0  0  0  0  0  0  0  0  0  0  0
    2.9830   68.7520   63.6090 C   0  0  0  0  0  0  0  0  0  0  0  0
    3.3910   68.5550   62.2860 C   0  0  0  0  0  0  0  0  0  0  0  0
    4.7070   68.8080   61.9060 C   0  0  0  0  0  0  0  0  0  0  0  0
    5.6500   69.2600   62.8350 C   0  0  0  0  0  0  0  0  0  0  0  0
    5.2210   69.4500   64.1550 C   0  0  0  0  0  0  0  0  0  0  0  0
    5.9190   69.8720   65.2600 N   0  0  0  0  0  0  0  0  0  0  0  0
    3.4887   62.7809   70.6820 H   0  0  0  0  0  0  0  0  0  0  0  0
    2.9100   64.9656   69.6214 H   0  0  0  0  0  0  0  0  0  0  0  0
   -0.6576   65.1908   72.0399 H   0  0  0  0  0  0  0  0  0  0  0  0
   -0.0831   63.0172   73.1085 H   0  0  0  0  0  0  0  0  0  0  0  0
    2.9726   62.4264   74.2002 H   0  0  0  0  0  0  0  0  0  0  0  0
    3.6742   59.6352   73.6173 H   0  0  0  0  0  0  0  0  0  0  0  0
    4.0393   60.5735   75.1250 H   0  0  0  0  0  0  0  0  0  0  0  0
    2.0945   59.9459   76.1656 H   0  0  0  0  0  0  0  0  0  0  0  0
    1.2171   59.7145   74.5885 H   0  0  0  0  0  0  0  0  0  0  0  0
    4.3654   57.9561   76.2050 H   0  0  0  0  0  0  0  0  0  0  0  0
    4.0130   55.3916   75.9386 H   0  0  0  0  0  0  0  0  0  0  0  0
   -0.2433   57.9811   73.8595 H   0  0  0  0  0  0  0  0  0  0  0  0
   -1.2999   55.8043   73.2423 H   0  0  0  0  0  0  0  0  0  0  0  0
   -0.1599   53.6617   73.7475 H   0  0  0  0  0  0  0  0  0  0  0  0
    2.0763   53.6439   74.8873 H   0  0  0  0  0  0  0  0  0  0  0  0
   -0.8021   65.4004   69.1928 H   0  0  0  0  0  0  0  0  0  0  0  0
   -1.3195   66.9393   70.0012 H   0  0  0  0  0  0  0  0  0  0  0  0
   -1.1064   66.9740   67.4508 H   0  0  0  0  0  0  0  0  0  0  0  0
   -0.2442   68.2728   68.4171 H   0  0  0  0  0  0  0  0  0  0  0  0
    1.8551   67.0304   68.1683 H   0  0  0  0  0  0  0  0  0  0  0  0
    0.9562   65.8482   67.0854 H   0  0  0  0  0  0  0  0  0  0  0  0
    2.2581   67.3560   65.7344 H   0  0  0  0  0  0  0  0  0  0  0  0
    0.4698   67.6743   65.5457 H   0  0  0  0  0  0  0  0  0  0  0  0
    2.3040   69.7916   69.0211 H   0  0  0  0  0  0  0  0  0  0  0  0
    4.5916   70.4878   69.6715 H   0  0  0  0  0  0  0  0  0  0  0  0
    6.4277   70.6006   67.9706 H   0  0  0  0  0  0  0  0  0  0  0  0
    1.9425   68.5477   63.9017 H   0  0  0  0  0  0  0  0  0  0  0  0
    2.6668   68.1973   61.5393 H   0  0  0  0  0  0  0  0  0  0  0  0
    5.0091   68.6500   60.8601 H   0  0  0  0  0  0  0  0  0  0  0  0
    6.6908   69.4591   62.5398 H   0  0  0  0  0  0  0  0  0  0  0  0
    6.9186   70.1202   65.2572 H   0  0  0  0  0  0  0  0  0  0  0  0
  2  1  2  0
  3  2  1  0
  4  3  2  0
  5  4  1  0
  6  5  2  0
  6  1  1  0
  8  7  2  0
  8  1  1  0
  9  8  1  0
 10  9  1  0
 11 10  1  0
 12 11  1  0
 13 12  2  0
 14 13  1  0
 15 14  1  0
 16 12  1  0
 16 15  2  0
 17 16  1  0
 18 17  2  0
 19 18  1  0
 20 19  2  0
 20 15  1  0
 21  4  1  0
 22 21  1  0
 23 22  1  0
 24 23  1  0
 25 24  1  0
 26 25  1  0
 27 26  1  0
 28 27  2  0
 29 28  1  0
 30 29  2  0
 31 30  1  0
 32 31  2  0
 32 27  1  0
 33 32  1  0
 34 33  2  0
 35 34  1  0
 36 35  2  0
 37 36  1  0
 38 33  1  0
 38 37  2  0
 39 31  1  0
 39 38  1  0
  2 40  1  0
  3 41  1  0
  5 42  1  0
  6 43  1  0
  9 44  1  0
 10 45  1  0
 10 46  1  0
 11 47  1  0
 11 48  1  0
 13 49  1  0
 14 50  1  0
 17 51  1  0
 18 52  1  0
 19 53  1  0
 20 54  1  0
 22 55  1  0
 22 56  1  0
 23 57  1  0
 23 58  1  0
 24 59  1  0
 24 60  1  0
 25 61  1  0
 25 62  1  0
 28 63  1  0
 29 64  1  0
 30 65  1  0
 34 66  1  0
 35 67  1  0
 36 68  1  0
 37 69  1  0
 39 70  1  0
M  END
>  <score>  (9) 
-10.653

$$$$
