=
     RDKit          3D

 42 45  0  0  0  0  0  0  0  0999 V2000
    6.8570   70.7740   69.2710 C   0  0  0  0  0  0  0  0  0  0  0  0
    5.8310   70.2290   68.3220 N   0  0  0  0  0  4  0  0  0  0  0  0
    5.9500   70.8160   66.9320 C   0  0  0  0  0  0  0  0  0  0  0  0
    5.0950   69.9860   65.9600 C   0  0  0  0  0  0  0  0  0  0  0  0
    3.7650   69.5260   66.5560 C   0  0  0  0  0  0  0  0  0  0  0  0
    3.0010   68.5340   66.0230 C   0  0  0  0  0  0  0  0  0  0  0  0
    3.4150   67.9120   64.7370 C   0  0  0  0  0  0  0  0  0  0  0  0
    4.4380   66.9550   64.6880 C   0  0  0  0  0  0  0  0  0  0  0  0
    4.7800   66.3580   63.4750 C   0  0  0  0  0  0  0  0  0  0  0  0
    4.0940   66.6980   62.3120 C   0  0  0  0  0  0  0  0  0  0  0  0
    3.0530   67.6260   62.3570 C   0  0  0  0  0  0  0  0  0  0  0  0
    2.6960   68.2350   63.5680 C   0  0  0  0  0  0  0  0  0  0  0  0
    1.5370   69.2080   63.6180 C   0  0  0  0  0  0  0  0  0  0  0  0
    0.3320   68.7210   64.4180 C   0  0  0  0  0  0  0  0  0  0  0  0
   -0.7830   68.7940   63.8940 O   0  0  0  0  0  0  0  0  0  0  0  0
    0.5440   68.2580   65.7930 C   0  0  0  0  0  0  0  0  0  0  0  0
    1.7070   68.1630   66.5450 C   0  0  0  0  0  0  0  0  0  0  0  0
    1.4800   67.5800   67.8310 C   0  0  0  0  0  0  0  0  0  0  0  0
    0.1490   67.3080   68.0470 C   0  0  0  0  0  0  0  0  0  0  0  0
   -0.8150   67.7240   66.7020 S   0  0  0  0  0  0  0  0  0  0  0  0
    3.3660   70.3570   67.7630 C   0  0  0  0  0  0  0  0  0  0  0  0
    4.4190   70.3320   68.8780 C   0  0  0  0  0  0  0  0  0  0  0  0
    6.5284   70.5994   70.3061 H   0  0  0  0  0  0  0  0  0  0  0  0
    7.8188   70.2679   69.1014 H   0  0  0  0  0  0  0  0  0  0  0  0
    6.9762   71.8543   69.1014 H   0  0  0  0  0  0  0  0  0  0  0  0
    6.0344   69.2240   68.2241 H   0  0  0  0  0  0  0  0  0  0  0  0
    5.5933   71.8565   66.9399 H   0  0  0  0  0  0  0  0  0  0  0  0
    7.0017   70.7959   66.6102 H   0  0  0  0  0  0  0  0  0  0  0  0
    4.8845   70.5991   65.0713 H   0  0  0  0  0  0  0  0  0  0  0  0
    5.6701   69.0805   65.7164 H   0  0  0  0  0  0  0  0  0  0  0  0
    4.9719   66.6744   65.6079 H   0  0  0  0  0  0  0  0  0  0  0  0
    5.5927   65.6176   63.4369 H   0  0  0  0  0  0  0  0  0  0  0  0
    4.3736   66.2336   61.3548 H   0  0  0  0  0  0  0  0  0  0  0  0
    2.5087   67.8814   61.4358 H   0  0  0  0  0  0  0  0  0  0  0  0
    1.8944   70.1441   64.0718 H   0  0  0  0  0  0  0  0  0  0  0  0
    1.1919   69.3350   62.5813 H   0  0  0  0  0  0  0  0  0  0  0  0
    2.2761   67.3734   68.5615 H   0  0  0  0  0  0  0  0  0  0  0  0
   -0.2470   66.8737   68.9768 H   0  0  0  0  0  0  0  0  0  0  0  0
    3.2212   71.3985   67.4400 H   0  0  0  0  0  0  0  0  0  0  0  0
    2.4414   69.9235   68.1718 H   0  0  0  0  0  0  0  0  0  0  0  0
    4.3353   71.2572   69.4671 H   0  0  0  0  0  0  0  0  0  0  0  0
    4.2331   69.4460   69.5029 H   0  0  0  0  0  0  0  0  0  0  0  0
  2  1  1  0
  3  2  1  0
  4  3  1  0
  5  4  1  0
  6  5  2  3
  7  6  1  0
  8  7  2  0
  9  8  1  0
 10  9  2  0
 11 10  1  0
 12 11  2  0
 12  7  1  0
 13 12  1  0
 14 13  1  0
 15 14  2  0
 16 14  1  0
 17 16  2  0
 17  6  1  0
 18 17  1  0
 19 18  2  0
 20 19  1  0
 20 16  1  0
 21  5  1  0
 22 21  1  0
 22  2  1  0
  1 23  1  0
  1 24  1  0
  1 25  1  0
  2 26  1  0
  3 27  1  0
  3 28  1  0
  4 29  1  0
  4 30  1  0
  8 31  1  0
  9 32  1  0
 10 33  1  0
 11 34  1  0
 13 35  1  0
 13 36  1  0
 18 37  1  0
 19 38  1  0
 21 39  1  0
 21 40  1  0
 22 41  1  0
 22 42  1  0
M  CHG  1   2   1
M  END
>  <score>  (1) 
-10.189

$$$$
=
     RDKit          3D

 42 45  0  0  0  0  0  0  0  0999 V2000
    1.1570   56.5130   74.8070 C   0  0  0  0  0  0  0  0  0  0  0  0
    1.2760   57.9180   74.2960 N   0  0  0  0  0  4  0  0  0  0  0  0
   -0.0700   58.5600   74.0340 C   0  0  0  0  0  0  0  0  0  0  0  0
    0.1250   60.0710   73.8280 C   0  0  0  0  0  0  0  0  0  0  0  0
    1.3820   60.4240   73.0330 C   0  0  0  0  0  0  0  0  0  0  0  0
    1.9310   61.6680   73.0000 C   0  0  0  0  0  0  0  0  0  0  0  0
    1.2360   62.7860   73.6920 C   0  0  0  0  0  0  0  0  0  0  0  0
    1.3160   62.9430   75.0830 C   0  0  0  0  0  0  0  0  0  0  0  0
    0.6870   64.0220   75.7030 C   0  0  0  0  0  0  0  0  0  0  0  0
   -0.0080   64.9570   74.9390 C   0  0  0  0  0  0  0  0  0  0  0  0
   -0.0660   64.8260   73.5510 C   0  0  0  0  0  0  0  0  0  0  0  0
    0.5620   63.7470   72.9120 C   0  0  0  0  0  0  0  0  0  0  0  0
    0.5330   63.6360   71.4030 C   0  0  0  0  0  0  0  0  0  0  0  0
    1.8900   63.8030   70.7270 C   0  0  0  0  0  0  0  0  0  0  0  0
    1.9770   64.5910   69.7810 O   0  0  0  0  0  0  0  0  0  0  0  0
    3.0090   62.9710   71.1820 C   0  0  0  0  0  0  0  0  0  0  0  0
    3.0700   62.0100   72.1810 C   0  0  0  0  0  0  0  0  0  0  0  0
    4.3890   61.4850   72.3530 C   0  0  0  0  0  0  0  0  0  0  0  0
    5.2770   62.0100   71.4440 C   0  0  0  0  0  0  0  0  0  0  0  0
    4.5350   63.1470   70.4100 S   0  0  0  0  0  0  0  0  0  0  0  0
    1.8950   59.2410   72.2290 C   0  0  0  0  0  0  0  0  0  0  0  0
    2.2110   58.0200   73.1010 C   0  0  0  0  0  0  0  0  0  0  0  0
    1.1577   56.5216   75.9070 H   0  0  0  0  0  0  0  0  0  0  0  0
    0.2181   56.0693   74.4444 H   0  0  0  0  0  0  0  0  0  0  0  0
    2.0079   55.9177   74.4444 H   0  0  0  0  0  0  0  0  0  0  0  0
    1.7094   58.4645   75.0539 H   0  0  0  0  0  0  0  0  0  0  0  0
   -0.5185   58.1200   73.1311 H   0  0  0  0  0  0  0  0  0  0  0  0
   -0.7368   58.3858   74.8913 H   0  0  0  0  0  0  0  0  0  0  0  0
   -0.7493   60.4639   73.2884 H   0  0  0  0  0  0  0  0  0  0  0  0
    0.2381   60.5202   74.8257 H   0  0  0  0  0  0  0  0  0  0  0  0
    1.8761   62.2135   75.6864 H   0  0  0  0  0  0  0  0  0  0  0  0
    0.7396   64.1350   76.7959 H   0  0  0  0  0  0  0  0  0  0  0  0
   -0.5126   65.8012   75.4315 H   0  0  0  0  0  0  0  0  0  0  0  0
   -0.6080   65.5741   72.9539 H   0  0  0  0  0  0  0  0  0  0  0  0
    0.1385   62.6435   71.1397 H   0  0  0  0  0  0  0  0  0  0  0  0
   -0.0983   64.4614   71.0422 H   0  0  0  0  0  0  0  0  0  0  0  0
    4.6613   60.7475   73.1224 H   0  0  0  0  0  0  0  0  0  0  0  0
    6.3395   61.7304   71.3897 H   0  0  0  0  0  0  0  0  0  0  0  0
    1.1283   58.9578   71.4928 H   0  0  0  0  0  0  0  0  0  0  0  0
    2.8321   59.5523   71.7443 H   0  0  0  0  0  0  0  0  0  0  0  0
    2.1078   57.1109   72.4904 H   0  0  0  0  0  0  0  0  0  0  0  0
    3.2377   58.1291   73.4804 H   0  0  0  0  0  0  0  0  0  0  0  0
  2  1  1  0
  3  2  1  0
  4  3  1  0
  5  4  1  0
  6  5  2  3
  7  6  1  0
  8  7  2  0
  9  8  1  0
 10  9  2  0
 11 10  1  0
 12 11  2  0
 12  7  1  0
 13 12  1  0
 14 13  1  0
 15 14  2  0
 16 14  1  0
 17 16  2  0
 17  6  1  0
 18 17  1  0
 19 18  2  0
 20 19  1  0
 20 16  1  0
 21  5  1  0
 22 21  1  0
 22  2  1  0
  1 23  1  0
  1 24  1  0
  1 25  1  0
  2 26  1  0
  3 27  1  0
  3 28  1  0
  4 29  1  0
  4 30  1  0
  8 31  1  0
  9 32  1  0
 10 33  1  0
 11 34  1  0
 13 35  1  0
 13 36  1  0
 18 37  1  0
 19 38  1  0
 21 39  1  0
 21 40  1  0
 22 41  1  0
 22 42  1  0
M  CHG  1   2   1
M  END
>  <score>  (2) 
-8.658

$$$$
=
     RDKit          3D

 42 45  0  0  0  0  0  0  0  0999 V2000
   -1.3290   63.3780   77.9880 C   0  0  0  0  0  0  0  0  0  0  0  0
   -0.4880   62.9800   76.8110 N   0  0  0  0  0  4  0  0  0  0  0  0
    0.7220   62.1600   77.2080 C   0  0  0  0  0  0  0  0  0  0  0  0
    1.3380   61.5310   75.9480 C   0  0  0  0  0  0  0  0  0  0  0  0
    1.3240   62.4560   74.7320 C   0  0  0  0  0  0  0  0  0  0  0  0
    1.5090   62.0290   73.4540 C   0  0  0  0  0  0  0  0  0  0  0  0
    1.8380   60.5990   73.2080 C   0  0  0  0  0  0  0  0  0  0  0  0
    0.8470   59.6080   73.2440 C   0  0  0  0  0  0  0  0  0  0  0  0
    1.1750   58.2800   72.9720 C   0  0  0  0  0  0  0  0  0  0  0  0
    2.4850   57.9390   72.6450 C   0  0  0  0  0  0  0  0  0  0  0  0
    3.4710   58.9230   72.5750 C   0  0  0  0  0  0  0  0  0  0  0  0
    3.1580   60.2630   72.8460 C   0  0  0  0  0  0  0  0  0  0  0  0
    4.2230   61.3320   72.7240 C   0  0  0  0  0  0  0  0  0  0  0  0
    3.9950   62.3300   71.5930 C   0  0  0  0  0  0  0  0  0  0  0  0
    4.9310   62.5620   70.8230 O   0  0  0  0  0  0  0  0  0  0  0  0
    2.7030   63.0210   71.5160 C   0  0  0  0  0  0  0  0  0  0  0  0
    1.5780   62.9220   72.3210 C   0  0  0  0  0  0  0  0  0  0  0  0
    0.4930   63.7240   71.8440 C   0  0  0  0  0  0  0  0  0  0  0  0
    0.8410   64.4560   70.7330 C   0  0  0  0  0  0  0  0  0  0  0  0
    2.4510   64.1590   70.2520 S   0  0  0  0  0  0  0  0  0  0  0  0
    1.1570   63.9130   75.1300 C   0  0  0  0  0  0  0  0  0  0  0  0
   -0.1240   64.1670   75.9350 C   0  0  0  0  0  0  0  0  0  0  0  0
   -0.7991   63.1272   78.9188 H   0  0  0  0  0  0  0  0  0  0  0  0
   -1.5180   64.4611   77.9541 H   0  0  0  0  0  0  0  0  0  0  0  0
   -2.2864   62.8375   77.9541 H   0  0  0  0  0  0  0  0  0  0  0  0
   -1.0745   62.3602   76.2341 H   0  0  0  0  0  0  0  0  0  0  0  0
    1.4636   62.8098   77.6956 H   0  0  0  0  0  0  0  0  0  0  0  0
    0.4193   61.3674   77.9081 H   0  0  0  0  0  0  0  0  0  0  0  0
    2.3817   61.2624   76.1683 H   0  0  0  0  0  0  0  0  0  0  0  0
    0.7247   60.6542   75.6929 H   0  0  0  0  0  0  0  0  0  0  0  0
   -0.1912   59.8783   73.4872 H   0  0  0  0  0  0  0  0  0  0  0  0
    0.3988   57.5018   73.0158 H   0  0  0  0  0  0  0  0  0  0  0  0
    2.7432   56.8894   72.4411 H   0  0  0  0  0  0  0  0  0  0  0  0
    4.5009   58.6462   72.3055 H   0  0  0  0  0  0  0  0  0  0  0  0
    4.2593   61.8897   73.6714 H   0  0  0  0  0  0  0  0  0  0  0  0
    5.1635   60.8100   72.4940 H   0  0  0  0  0  0  0  0  0  0  0  0
   -0.5025   63.7517   72.3112 H   0  0  0  0  0  0  0  0  0  0  0  0
    0.1623   65.1503   70.2160 H   0  0  0  0  0  0  0  0  0  0  0  0
    2.0212   64.2114   75.7416 H   0  0  0  0  0  0  0  0  0  0  0  0
    1.0885   64.5031   74.2042 H   0  0  0  0  0  0  0  0  0  0  0  0
    0.0275   65.0484   76.5755 H   0  0  0  0  0  0  0  0  0  0  0  0
   -0.9468   64.3303   75.2234 H   0  0  0  0  0  0  0  0  0  0  0  0
  2  1  1  0
  3  2  1  0
  4  3  1  0
  5  4  1  0
  6  5  2  3
  7  6  1  0
  8  7  2  0
  9  8  1  0
 10  9  2  0
 11 10  1  0
 12 11  2  0
 12  7  1  0
 13 12  1  0
 14 13  1  0
 15 14  2  0
 16 14  1  0
 17 16  2  0
 17  6  1  0
 18 17  1  0
 19 18  2  0
 20 19  1  0
 20 16  1  0
 21  5  1  0
 22 21  1  0
 22  2  1  0
  1 23  1  0
  1 24  1  0
  1 25  1  0
  2 26  1  0
  3 27  1  0
  3 28  1  0
  4 29  1  0
  4 30  1  0
  8 31  1  0
  9 32  1  0
 10 33  1  0
 11 34  1  0
 13 35  1  0
 13 36  1  0
 18 37  1  0
 19 38  1  0
 21 39  1  0
 21 40  1  0
 22 41  1  0
 22 42  1  0
M  CHG  1   2   1
M  END
>  <score>  (3) 
-7.805

$$$$
=
     RDKit          3D

 42 45  0  0  0  0  0  0  0  0999 V2000
   -0.2210   66.8690   68.9200 C   0  0  0  0  0  0  0  0  0  0  0  0
    0.1820   65.7170   69.7930 N   0  0  0  0  0  4  0  0  0  0  0  0
    0.0210   66.0170   71.2680 C   0  0  0  0  0  0  0  0  0  0  0  0
    0.1410   64.7070   72.0640 C   0  0  0  0  0  0  0  0  0  0  0  0
    1.2080   63.7570   71.5220 C   0  0  0  0  0  0  0  0  0  0  0  0
    1.2790   62.4370   71.8440 C   0  0  0  0  0  0  0  0  0  0  0  0
    0.3350   61.8850   72.8510 C   0  0  0  0  0  0  0  0  0  0  0  0
   -0.9930   61.5840   72.5160 C   0  0  0  0  0  0  0  0  0  0  0  0
   -1.8480   61.0310   73.4690 C   0  0  0  0  0  0  0  0  0  0  0  0
   -1.3790   60.7590   74.7520 C   0  0  0  0  0  0  0  0  0  0  0  0
   -0.0500   61.0240   75.0850 C   0  0  0  0  0  0  0  0  0  0  0  0
    0.8220   61.5800   74.1390 C   0  0  0  0  0  0  0  0  0  0  0  0
    2.2730   61.8250   74.4930 C   0  0  0  0  0  0  0  0  0  0  0  0
    3.2690   60.9530   73.7340 C   0  0  0  0  0  0  0  0  0  0  0  0
    4.1330   60.3560   74.3820 O   0  0  0  0  0  0  0  0  0  0  0  0
    3.2000   60.9220   72.2690 C   0  0  0  0  0  0  0  0  0  0  0  0
    2.3390   61.5670   71.3920 C   0  0  0  0  0  0  0  0  0  0  0  0
    2.5690   61.1970   70.0300 C   0  0  0  0  0  0  0  0  0  0  0  0
    3.6340   60.3350   69.9010 C   0  0  0  0  0  0  0  0  0  0  0  0
    4.3320   59.9530   71.4110 S   0  0  0  0  0  0  0  0  0  0  0  0
    2.2180   64.4780   70.6450 C   0  0  0  0  0  0  0  0  0  0  0  0
    1.5690   65.1940   69.4540 C   0  0  0  0  0  0  0  0  0  0  0  0
   -0.5187   67.7200   69.5502 H   0  0  0  0  0  0  0  0  0  0  0  0
    0.6279   67.1623   68.2849 H   0  0  0  0  0  0  0  0  0  0  0  0
   -1.0676   66.5692   68.2849 H   0  0  0  0  0  0  0  0  0  0  0  0
   -0.4774   64.9536   69.5848 H   0  0  0  0  0  0  0  0  0  0  0  0
    0.8066   66.7166   71.5895 H   0  0  0  0  0  0  0  0  0  0  0  0
   -0.9645   66.4712   71.4483 H   0  0  0  0  0  0  0  0  0  0  0  0
    0.3930   64.9549   73.1056 H   0  0  0  0  0  0  0  0  0  0  0  0
   -0.8254   64.1885   71.9792 H   0  0  0  0  0  0  0  0  0  0  0  0
   -1.3613   61.7845   71.4991 H   0  0  0  0  0  0  0  0  0  0  0  0
   -2.8932   60.8095   73.2073 H   0  0  0  0  0  0  0  0  0  0  0  0
   -2.0585   60.3339   75.5053 H   0  0  0  0  0  0  0  0  0  0  0  0
    0.3157   60.7950   76.0968 H   0  0  0  0  0  0  0  0  0  0  0  0
    2.5055   62.8783   74.2773 H   0  0  0  0  0  0  0  0  0  0  0  0
    2.3816   61.5677   75.5570 H   0  0  0  0  0  0  0  0  0  0  0  0
    1.9655   61.5589   69.1846 H   0  0  0  0  0  0  0  0  0  0  0  0
    3.9927   59.9393   68.9393 H   0  0  0  0  0  0  0  0  0  0  0  0
    2.7462   65.2235   71.2576 H   0  0  0  0  0  0  0  0  0  0  0  0
    2.9052   63.7202   70.2407 H   0  0  0  0  0  0  0  0  0  0  0  0
    2.2058   66.0408   69.1583 H   0  0  0  0  0  0  0  0  0  0  0  0
    1.4681   64.4679   68.6339 H   0  0  0  0  0  0  0  0  0  0  0  0
  2  1  1  0
  3  2  1  0
  4  3  1  0
  5  4  1  0
  6  5  2  3
  7  6  1  0
  8  7  2  0
  9  8  1  0
 10  9  2  0
 11 10  1  0
 12 11  2  0
 12  7  1  0
 13 12  1  0
 14 13  1  0
 15 14  2  0
 16 14  1  0
 17 16  2  0
 17  6  1  0
 18 17  1  0
 19 18  2  0
 20 19  1  0
 20 16  1  0
 21  5  1  0
 22 21  1  0
 22  2  1  0
  1 23  1  0
  1 24  1  0
  1 25  1  0
  2 26  1  0
  3 27  1  0
  3 28  1  0
  4 29  1  0
  4 30  1  0
  8 31  1  0
  9 32  1  0
 10 33  1  0
 11 34  1  0
 13 35  1  0
 13 36  1  0
 18 37  1  0
 19 38  1  0
 21 39  1  0
 21 40  1  0
 22 41  1  0
 22 42  1  0
M  CHG  1   2   1
M  END
>  <score>  (4) 
-7.574

$$$$
