=
     RDKit          3D

 46 49  0  0  0  0  0  0  0  0999 V2000
   -0.0310   67.8600   66.5140 O   0  0  0  0  0  0  0  0  0  0  0  0
    1.0940   68.1070   66.9400 C   0  0  0  0  0  0  0  0  0  0  0  0
    2.1600   68.7160   66.2470 N   0  0  0  0  0  0  0  0  0  0  0  0
    3.2350   69.4050   66.9290 C   0  0  0  0  0  0  0  0  0  0  0  0
    2.9720   70.0840   68.1370 C   0  0  0  0  0  0  0  0  0  0  0  0
    3.9770   70.7630   68.8300 C   0  0  0  0  0  0  0  0  0  0  0  0
    5.2700   70.7840   68.3250 C   0  0  0  0  0  0  0  0  0  0  0  0
    5.5490   70.1430   67.1200 C   0  0  0  0  0  0  0  0  0  0  0  0
    4.5380   69.4700   66.4160 C   0  0  0  0  0  0  0  0  0  0  0  0
    4.9840   68.6780   64.8960 S   0  0  0  0  0  0  0  0  0  0  0  0
    3.4040   68.7680   64.0830 C   0  0  0  0  0  0  0  0  0  0  0  0
    2.1900   68.7530   64.7990 C   0  0  0  0  0  0  0  0  0  0  0  0
    1.0030   68.7600   64.0440 C   0  0  0  0  0  0  0  0  0  0  0  0
    1.0180   68.7840   62.6440 C   0  0  0  0  0  0  0  0  0  0  0  0
    2.2250   68.7960   61.9600 C   0  0  0  0  0  0  0  0  0  0  0  0
    3.4150   68.7850   62.6780 C   0  0  0  0  0  0  0  0  0  0  0  0
    1.4390   67.6510   68.2140 N   0  0  0  0  0  0  0  0  0  0  0  0
    0.4980   66.8080   68.9250 C   0  0  0  0  0  0  0  0  0  0  0  0
    1.0640   66.2570   70.2360 C   0  0  0  0  0  0  0  0  0  0  0  0
    1.2250   64.7570   70.1750 N   0  0  0  0  0  4  0  0  0  0  0  0
    2.6470   64.2430   70.3360 C   0  0  0  0  0  0  0  0  0  0  0  0
    2.5560   63.1450   71.3840 C   0  0  0  0  0  0  0  0  0  0  0  0
    1.1050   62.7070   71.3530 C   0  0  0  0  0  0  0  0  0  0  0  0
    0.3700   64.0170   71.1790 C   0  0  0  0  0  0  0  0  0  0  0  0
    1.9499   70.0787   68.5436 H   0  0  0  0  0  0  0  0  0  0  0  0
    3.7446   71.2795   69.7730 H   0  0  0  0  0  0  0  0  0  0  0  0
    6.0696   71.3038   68.8732 H   0  0  0  0  0  0  0  0  0  0  0  0
    6.5719   70.1644   66.7161 H   0  0  0  0  0  0  0  0  0  0  0  0
    0.0360   68.7462   64.5681 H   0  0  0  0  0  0  0  0  0  0  0  0
    0.0705   68.7934   62.0852 H   0  0  0  0  0  0  0  0  0  0  0  0
    2.2400   68.8140   60.8603 H   0  0  0  0  0  0  0  0  0  0  0  0
    4.3750   68.7896   62.1410 H   0  0  0  0  0  0  0  0  0  0  0  0
    2.3415   67.9078   68.6389 H   0  0  0  0  0  0  0  0  0  0  0  0
   -0.4011   67.3997   69.1521 H   0  0  0  0  0  0  0  0  0  0  0  0
    0.2699   65.9488   68.2771 H   0  0  0  0  0  0  0  0  0  0  0  0
    2.0461   66.7157   70.4234 H   0  0  0  0  0  0  0  0  0  0  0  0
    0.3612   66.4986   71.0470 H   0  0  0  0  0  0  0  0  0  0  0  0
    0.9128   64.5599   69.2135 H   0  0  0  0  0  0  0  0  0  0  0  0
    3.0212   63.8381   69.3842 H   0  0  0  0  0  0  0  0  0  0  0  0
    3.3420   65.0413   70.6353 H   0  0  0  0  0  0  0  0  0  0  0  0
    3.2204   62.3068   71.1271 H   0  0  0  0  0  0  0  0  0  0  0  0
    2.8659   63.4925   72.3806 H   0  0  0  0  0  0  0  0  0  0  0  0
    0.9128   62.0284   70.5089 H   0  0  0  0  0  0  0  0  0  0  0  0
    0.7971   62.1476   72.2487 H   0  0  0  0  0  0  0  0  0  0  0  0
    0.3118   64.5668   72.1299 H   0  0  0  0  0  0  0  0  0  0  0  0
   -0.6717   63.8888   70.8498 H   0  0  0  0  0  0  0  0  0  0  0  0
  2  1  2  0
  3  2  1  0
  4  3  1  0
  5  4  2  0
  6  5  1  0
  7  6  2  0
  8  7  1  0
  9  4  1  0
  9  8  2  0
 10  9  1  0
 11 10  1  0
 12 11  2  0
 12  3  1  0
 13 12  1  0
 14 13  2  0
 15 14  1  0
 16 15  2  0
 16 11  1  0
 17  2  1  0
 18 17  1  0
 19 18  1  0
 20 19  1  0
 21 20  1  0
 22 21  1  0
 23 22  1  0
 24 20  1  0
 24 23  1  0
  5 25  1  0
  6 26  1  0
  7 27  1  0
  8 28  1  0
 13 29  1  0
 14 30  1  0
 15 31  1  0
 16 32  1  0
 17 33  1  0
 18 34  1  0
 18 35  1  0
 19 36  1  0
 19 37  1  0
 20 38  1  0
 21 39  1  0
 21 40  1  0
 22 41  1  0
 22 42  1  0
 23 43  1  0
 23 44  1  0
 24 45  1  0
 24 46  1  0
M  CHG  1  20   1
M  END
>  <score>  (1) 
-10.83

$$$$
=
     RDKit          3D

 46 49  0  0  0  0  0  0  0  0999 V2000
    1.7750   66.7210   67.1360 O   0  0  0  0  0  0  0  0  0  0  0  0
    1.7960   67.5050   66.1910 C   0  0  0  0  0  0  0  0  0  0  0  0
    2.1890   67.2380   64.8630 N   0  0  0  0  0  0  0  0  0  0  0  0
    1.7280   68.0320   63.7440 C   0  0  0  0  0  0  0  0  0  0  0  0
    0.4380   68.6010   63.7780 C   0  0  0  0  0  0  0  0  0  0  0  0
   -0.0510   69.3740   62.7210 C   0  0  0  0  0  0  0  0  0  0  0  0
    0.7400   69.5890   61.6010 C   0  0  0  0  0  0  0  0  0  0  0  0
    2.0070   69.0150   61.5330 C   0  0  0  0  0  0  0  0  0  0  0  0
    2.4950   68.2280   62.5880 C   0  0  0  0  0  0  0  0  0  0  0  0
    4.1190   67.5430   62.4180 S   0  0  0  0  0  0  0  0  0  0  0  0
    3.9040   66.1070   63.4460 C   0  0  0  0  0  0  0  0  0  0  0  0
    3.0180   66.0950   64.5420 C   0  0  0  0  0  0  0  0  0  0  0  0
    2.9830   64.9240   65.3220 C   0  0  0  0  0  0  0  0  0  0  0  0
    3.7870   63.8170   65.0290 C   0  0  0  0  0  0  0  0  0  0  0  0
    4.6540   63.8520   63.9470 C   0  0  0  0  0  0  0  0  0  0  0  0
    4.7150   64.9960   63.1590 C   0  0  0  0  0  0  0  0  0  0  0  0
    1.5140   68.8500   66.4340 N   0  0  0  0  0  0  0  0  0  0  0  0
    1.3260   69.2800   67.8060 C   0  0  0  0  0  0  0  0  0  0  0  0
    2.2320   70.4520   68.1940 C   0  0  0  0  0  0  0  0  0  0  0  0
    3.6540   69.9940   68.4140 N   0  0  0  0  0  4  0  0  0  0  0  0
    4.5190   69.9160   67.1670 C   0  0  0  0  0  0  0  0  0  0  0  0
    5.8020   70.6490   67.5260 C   0  0  0  0  0  0  0  0  0  0  0  0
    5.8530   70.6090   69.0400 C   0  0  0  0  0  0  0  0  0  0  0  0
    4.4070   70.8320   69.4240 C   0  0  0  0  0  0  0  0  0  0  0  0
   -0.1994   68.4322   64.6585 H   0  0  0  0  0  0  0  0  0  0  0  0
   -1.0592   69.8104   62.7767 H   0  0  0  0  0  0  0  0  0  0  0  0
    0.3683   70.2091   60.7720 H   0  0  0  0  0  0  0  0  0  0  0  0
    2.6321   69.1801   60.6430 H   0  0  0  0  0  0  0  0  0  0  0  0
    2.3043   64.8778   66.1865 H   0  0  0  0  0  0  0  0  0  0  0  0
    3.7313   62.9166   65.6584 H   0  0  0  0  0  0  0  0  0  0  0  0
    5.2873   62.9831   63.7145 H   0  0  0  0  0  0  0  0  0  0  0  0
    5.4047   65.0316   62.3028 H   0  0  0  0  0  0  0  0  0  0  0  0
    1.4411   69.5218   65.6567 H   0  0  0  0  0  0  0  0  0  0  0  0
    0.2782   69.5885   67.9364 H   0  0  0  0  0  0  0  0  0  0  0  0
    1.5877   68.4320   68.4559 H   0  0  0  0  0  0  0  0  0  0  0  0
    2.2167   71.1996   67.3873 H   0  0  0  0  0  0  0  0  0  0  0  0
    1.8569   70.8861   69.1326 H   0  0  0  0  0  0  0  0  0  0  0  0
    3.5055   69.0383   68.7683 H   0  0  0  0  0  0  0  0  0  0  0  0
    4.7323   68.8679   66.9103 H   0  0  0  0  0  0  0  0  0  0  0  0
    4.0216   70.3614   66.2928 H   0  0  0  0  0  0  0  0  0  0  0  0
    6.6752   70.1380   67.0942 H   0  0  0  0  0  0  0  0  0  0  0  0
    5.8192   71.6769   67.1346 H   0  0  0  0  0  0  0  0  0  0  0  0
    6.2137   69.6341   69.3997 H   0  0  0  0  0  0  0  0  0  0  0  0
    6.5406   71.3494   69.4746 H   0  0  0  0  0  0  0  0  0  0  0  0
    4.1344   71.8942   69.3383 H   0  0  0  0  0  0  0  0  0  0  0  0
    4.1875   70.5563   70.4660 H   0  0  0  0  0  0  0  0  0  0  0  0
  2  1  2  0
  3  2  1  0
  4  3  1  0
  5  4  2  0
  6  5  1  0
  7  6  2  0
  8  7  1  0
  9  4  1  0
  9  8  2  0
 10  9  1  0
 11 10  1  0
 12 11  2  0
 12  3  1  0
 13 12  1  0
 14 13  2  0
 15 14  1  0
 16 15  2  0
 16 11  1  0
 17  2  1  0
 18 17  1  0
 19 18  1  0
 20 19  1  0
 21 20  1  0
 22 21  1  0
 23 22  1  0
 24 20  1  0
 24 23  1  0
  5 25  1  0
  6 26  1  0
  7 27  1  0
  8 28  1  0
 13 29  1  0
 14 30  1  0
 15 31  1  0
 16 32  1  0
 17 33  1  0
 18 34  1  0
 18 35  1  0
 19 36  1  0
 19 37  1  0
 20 38  1  0
 21 39  1  0
 21 40  1  0
 22 41  1  0
 22 42  1  0
 23 43  1  0
 23 44  1  0
 24 45  1  0
 24 46  1  0
M  CHG  1  20   1
M  END
>  <score>  (2) 
-10.48

$$$$
=
     RDKit          3D

 46 49  0  0  0  0  0  0  0  0999 V2000
    2.0550   66.8050   67.0030 O   0  0  0  0  0  0  0  0  0  0  0  0
    2.1340   67.5460   66.0260 C   0  0  0  0  0  0  0  0  0  0  0  0
    2.5130   67.1960   64.7130 N   0  0  0  0  0  0  0  0  0  0  0  0
    2.1130   67.9730   63.5600 C   0  0  0  0  0  0  0  0  0  0  0  0
    0.8660   68.6320   63.5610 C   0  0  0  0  0  0  0  0  0  0  0  0
    0.4370   69.3920   62.4700 C   0  0  0  0  0  0  0  0  0  0  0  0
    1.2450   69.5040   61.3470 C   0  0  0  0  0  0  0  0  0  0  0  0
    2.4690   68.8410   61.3110 C   0  0  0  0  0  0  0  0  0  0  0  0
    2.8970   68.0670   62.4010 C   0  0  0  0  0  0  0  0  0  0  0  0
    4.4700   67.2630   62.2710 S   0  0  0  0  0  0  0  0  0  0  0  0
    4.1500   65.8900   63.3560 C   0  0  0  0  0  0  0  0  0  0  0  0
    3.2610   65.9850   64.4450 C   0  0  0  0  0  0  0  0  0  0  0  0
    3.1410   64.8540   65.2740 C   0  0  0  0  0  0  0  0  0  0  0  0
    3.8670   63.6820   65.0320 C   0  0  0  0  0  0  0  0  0  0  0  0
    4.7390   63.6110   63.9550 C   0  0  0  0  0  0  0  0  0  0  0  0
    4.8820   64.7140   63.1210 C   0  0  0  0  0  0  0  0  0  0  0  0
    1.9470   68.9160   66.2120 N   0  0  0  0  0  0  0  0  0  0  0  0
    1.7840   69.4150   67.5630 C   0  0  0  0  0  0  0  0  0  0  0  0
    0.3270   69.3970   68.0340 C   0  0  0  0  0  0  0  0  0  0  0  0
   -0.5430   68.6030   67.0900 N   0  0  0  0  0  4  0  0  0  0  0  0
   -1.1530   67.3370   67.6670 C   0  0  0  0  0  0  0  0  0  0  0  0
   -2.6280   67.4070   67.3090 C   0  0  0  0  0  0  0  0  0  0  0  0
   -2.6890   68.3490   66.1230 C   0  0  0  0  0  0  0  0  0  0  0  0
   -1.6770   69.4090   66.4930 C   0  0  0  0  0  0  0  0  0  0  0  0
    0.2147   68.5454   64.4432 H   0  0  0  0  0  0  0  0  0  0  0  0
   -0.5381   69.9001   62.5009 H   0  0  0  0  0  0  0  0  0  0  0  0
    0.9203   70.1130   60.4904 H   0  0  0  0  0  0  0  0  0  0  0  0
    3.1072   68.9247   60.4190 H   0  0  0  0  0  0  0  0  0  0  0  0
    2.4581   64.8921   66.1355 H   0  0  0  0  0  0  0  0  0  0  0  0
    3.7459   62.8146   65.6976 H   0  0  0  0  0  0  0  0  0  0  0  0
    5.3113   62.6914   63.7631 H   0  0  0  0  0  0  0  0  0  0  0  0
    5.5753   64.6656   62.2684 H   0  0  0  0  0  0  0  0  0  0  0  0
    1.9253   69.5585   65.4072 H   0  0  0  0  0  0  0  0  0  0  0  0
    2.3802   68.7885   68.2427 H   0  0  0  0  0  0  0  0  0  0  0  0
    2.1201   70.4624   67.5705 H   0  0  0  0  0  0  0  0  0  0  0  0
    0.2791   68.9420   69.0343 H   0  0  0  0  0  0  0  0  0  0  0  0
   -0.0430   70.4326   68.0603 H   0  0  0  0  0  0  0  0  0  0  0  0
    0.1383   68.3360   66.3652 H   0  0  0  0  0  0  0  0  0  0  0  0
   -0.6890   66.4461   67.2186 H   0  0  0  0  0  0  0  0  0  0  0  0
   -0.9965   67.2632   68.7533 H   0  0  0  0  0  0  0  0  0  0  0  0
   -3.0087   66.4121   67.0347 H   0  0  0  0  0  0  0  0  0  0  0  0
   -3.2455   67.7547   68.1503 H   0  0  0  0  0  0  0  0  0  0  0  0
   -2.4044   67.8355   65.1928 H   0  0  0  0  0  0  0  0  0  0  0  0
   -3.6953   68.7511   65.9344 H   0  0  0  0  0  0  0  0  0  0  0  0
   -2.0926   70.1125   67.2294 H   0  0  0  0  0  0  0  0  0  0  0  0
   -1.3660   70.0285   65.6389 H   0  0  0  0  0  0  0  0  0  0  0  0
  2  1  2  0
  3  2  1  0
  4  3  1  0
  5  4  2  0
  6  5  1  0
  7  6  2  0
  8  7  1  0
  9  4  1  0
  9  8  2  0
 10  9  1  0
 11 10  1  0
 12 11  2  0
 12  3  1  0
 13 12  1  0
 14 13  2  0
 15 14  1  0
 16 15  2  0
 16 11  1  0
 17  2  1  0
 18 17  1  0
 19 18  1  0
 20 19  1  0
 21 20  1  0
 22 21  1  0
 23 22  1  0
 24 20  1  0
 24 23  1  0
  5 25  1  0
  6 26  1  0
  7 27  1  0
  8 28  1  0
 13 29  1  0
 14 30  1  0
 15 31  1  0
 16 32  1  0
 17 33  1  0
 18 34  1  0
 18 35  1  0
 19 36  1  0
 19 37  1  0
 20 38  1  0
 21 39  1  0
 21 40  1  0
 22 41  1  0
 22 42  1  0
 23 43  1  0
 23 44  1  0
 24 45  1  0
 24 46  1  0
M  CHG  1  20   1
M  END
>  <score>  (3) 
-9.527

$$$$
=
     RDKit          3D

 46 49  0  0  0  0  0  0  0  0999 V2000
    0.6810   69.2190   67.5430 O   0  0  0  0  0  0  0  0  0  0  0  0
    1.2600   68.7780   66.5540 C   0  0  0  0  0  0  0  0  0  0  0  0
    2.6510   68.6710   66.3510 N   0  0  0  0  0  0  0  0  0  0  0  0
    3.2270   67.7210   65.4230 C   0  0  0  0  0  0  0  0  0  0  0  0
    2.5950   66.4770   65.2150 C   0  0  0  0  0  0  0  0  0  0  0  0
    3.1140   65.5290   64.3300 C   0  0  0  0  0  0  0  0  0  0  0  0
    4.2850   65.8020   63.6360 C   0  0  0  0  0  0  0  0  0  0  0  0
    4.9420   67.0120   63.8440 C   0  0  0  0  0  0  0  0  0  0  0  0
    4.4290   67.9610   64.7420 C   0  0  0  0  0  0  0  0  0  0  0  0
    5.3270   69.4750   64.9390 S   0  0  0  0  0  0  0  0  0  0  0  0
    4.8340   69.8540   66.6060 C   0  0  0  0  0  0  0  0  0  0  0  0
    3.5860   69.4580   67.1280 C   0  0  0  0  0  0  0  0  0  0  0  0
    3.2790   69.8740   68.4370 C   0  0  0  0  0  0  0  0  0  0  0  0
    4.1700   70.6450   69.1940 C   0  0  0  0  0  0  0  0  0  0  0  0
    5.3920   71.0250   68.6590 C   0  0  0  0  0  0  0  0  0  0  0  0
    5.7220   70.6330   67.3670 C   0  0  0  0  0  0  0  0  0  0  0  0
    0.5000   68.4370   65.4340 N   0  0  0  0  0  0  0  0  0  0  0  0
   -0.9210   68.7280   65.4480 C   0  0  0  0  0  0  0  0  0  0  0  0
   -1.5010   68.9340   64.0460 C   0  0  0  0  0  0  0  0  0  0  0  0
   -0.5270   69.6660   63.1540 N   0  0  0  0  0  4  0  0  0  0  0  0
    0.8620   69.0550   63.0580 C   0  0  0  0  0  0  0  0  0  0  0  0
    1.1620   68.9820   61.5700 C   0  0  0  0  0  0  0  0  0  0  0  0
    0.2480   70.0160   60.9450 C   0  0  0  0  0  0  0  0  0  0  0  0
   -1.0280   69.8500   61.7380 C   0  0  0  0  0  0  0  0  0  0  0  0
    1.6697   66.2476   65.7638 H   0  0  0  0  0  0  0  0  0  0  0  0
    2.5966   64.5694   64.1835 H   0  0  0  0  0  0  0  0  0  0  0  0
    4.6915   65.0667   62.9259 H   0  0  0  0  0  0  0  0  0  0  0  0
    5.8730   67.2264   63.2987 H   0  0  0  0  0  0  0  0  0  0  0  0
    2.3131   69.5858   68.8774 H   0  0  0  0  0  0  0  0  0  0  0  0
    3.9000   70.9501   70.2158 H   0  0  0  0  0  0  0  0  0  0  0  0
    6.0933   71.6308   69.2516 H   0  0  0  0  0  0  0  0  0  0  0  0
    6.6878   70.9355   66.9360 H   0  0  0  0  0  0  0  0  0  0  0  0
    0.9381   67.9891   64.6165 H   0  0  0  0  0  0  0  0  0  0  0  0
   -1.4466   67.8878   65.9253 H   0  0  0  0  0  0  0  0  0  0  0  0
   -1.0601   69.6669   66.0040 H   0  0  0  0  0  0  0  0  0  0  0  0
   -1.7255   67.9526   63.6028 H   0  0  0  0  0  0  0  0  0  0  0  0
   -2.4157   69.5388   64.1330 H   0  0  0  0  0  0  0  0  0  0  0  0
   -0.4529   70.5724   63.6376 H   0  0  0  0  0  0  0  0  0  0  0  0
    1.5995   69.6908   63.5696 H   0  0  0  0  0  0  0  0  0  0  0  0
    0.9105   68.0658   63.5366 H   0  0  0  0  0  0  0  0  0  0  0  0
    2.2164   69.2265   61.3739 H   0  0  0  0  0  0  0  0  0  0  0  0
    0.9952   67.9751   61.1596 H   0  0  0  0  0  0  0  0  0  0  0  0
    0.6582   71.0301   61.0603 H   0  0  0  0  0  0  0  0  0  0  0  0
    0.1108   69.8813   59.8619 H   0  0  0  0  0  0  0  0  0  0  0  0
   -1.5915   68.9678   61.4002 H   0  0  0  0  0  0  0  0  0  0  0  0
   -1.7194   70.6987   61.6296 H   0  0  0  0  0  0  0  0  0  0  0  0
  2  1  2  0
  3  2  1  0
  4  3  1  0
  5  4  2  0
  6  5  1  0
  7  6  2  0
  8  7  1  0
  9  4  1  0
  9  8  2  0
 10  9  1  0
 11 10  1  0
 12 11  2  0
 12  3  1  0
 13 12  1  0
 14 13  2  0
 15 14  1  0
 16 15  2  0
 16 11  1  0
 17  2  1  0
 18 17  1  0
 19 18  1  0
 20 19  1  0
 21 20  1  0
 22 21  1  0
 23 22  1  0
 24 20  1  0
 24 23  1  0
  5 25  1  0
  6 26  1  0
  7 27  1  0
  8 28  1  0
 13 29  1  0
 14 30  1  0
 15 31  1  0
 16 32  1  0
 17 33  1  0
 18 34  1  0
 18 35  1  0
 19 36  1  0
 19 37  1  0
 20 38  1  0
 21 39  1  0
 21 40  1  0
 22 41  1  0
 22 42  1  0
 23 43  1  0
 23 44  1  0
 24 45  1  0
 24 46  1  0
M  CHG  1  20   1
M  END
>  <score>  (4) 
-8.848

$$$$
=
     RDKit          3D

 46 49  0  0  0  0  0  0  0  0999 V2000
    3.9430   69.4500   66.8520 O   0  0  0  0  0  0  0  0  0  0  0  0
    2.7680   69.2660   67.1580 C   0  0  0  0  0  0  0  0  0  0  0  0
    1.7440   68.7330   66.3470 N   0  0  0  0  0  0  0  0  0  0  0  0
    0.5670   68.1010   66.9020 C   0  0  0  0  0  0  0  0  0  0  0  0
    0.6650   67.3870   68.1150 C   0  0  0  0  0  0  0  0  0  0  0  0
   -0.4440   66.7600   68.6880 C   0  0  0  0  0  0  0  0  0  0  0  0
   -1.6780   66.8260   68.0550 C   0  0  0  0  0  0  0  0  0  0  0  0
   -1.7940   67.5020   66.8430 C   0  0  0  0  0  0  0  0  0  0  0  0
   -0.6790   68.1230   66.2590 C   0  0  0  0  0  0  0  0  0  0  0  0
   -0.9200   68.9650   64.7200 S   0  0  0  0  0  0  0  0  0  0  0  0
    0.7260   68.7920   64.0680 C   0  0  0  0  0  0  0  0  0  0  0  0
    1.8600   68.7220   64.9030 C   0  0  0  0  0  0  0  0  0  0  0  0
    3.1160   68.6540   64.2720 C   0  0  0  0  0  0  0  0  0  0  0  0
    3.2420   68.6540   62.8770 C   0  0  0  0  0  0  0  0  0  0  0  0
    2.1120   68.7260   62.0750 C   0  0  0  0  0  0  0  0  0  0  0  0
    0.8580   68.7980   62.6700 C   0  0  0  0  0  0  0  0  0  0  0  0
    2.3230   69.7210   68.3990 N   0  0  0  0  0  0  0  0  0  0  0  0
    3.2340   70.4940   69.2200 C   0  0  0  0  0  0  0  0  0  0  0  0
    4.3520   71.1550   68.4100 C   0  0  0  0  0  0  0  0  0  0  0  0
    5.6980   70.5600   68.7470 N   0  0  0  0  0  4  0  0  0  0  0  0
    6.8910   71.2050   68.0610 C   0  0  0  0  0  0  0  0  0  0  0  0
    7.8940   71.4690   69.1730 C   0  0  0  0  0  0  0  0  0  0  0  0
    7.5060   70.5030   70.2740 C   0  0  0  0  0  0  0  0  0  0  0  0
    5.9950   70.5440   70.2300 C   0  0  0  0  0  0  0  0  0  0  0  0
    1.6390   67.3225   68.6221 H   0  0  0  0  0  0  0  0  0  0  0  0
   -0.3399   66.2155   69.6381 H   0  0  0  0  0  0  0  0  0  0  0  0
   -2.5586   66.3472   68.5081 H   0  0  0  0  0  0  0  0  0  0  0  0
   -2.7700   67.5498   66.3379 H   0  0  0  0  0  0  0  0  0  0  0  0
    4.0235   68.5994   64.8912 H   0  0  0  0  0  0  0  0  0  0  0  0
    4.2392   68.5968   62.4162 H   0  0  0  0  0  0  0  0  0  0  0  0
    2.2077   68.7261   60.9792 H   0  0  0  0  0  0  0  0  0  0  0  0
   -0.0408   68.8604   62.0389 H   0  0  0  0  0  0  0  0  0  0  0  0
    1.3684   69.5125   68.7249 H   0  0  0  0  0  0  0  0  0  0  0  0
    2.6617   71.2800   69.7345 H   0  0  0  0  0  0  0  0  0  0  0  0
    3.7073   69.8002   69.9304 H   0  0  0  0  0  0  0  0  0  0  0  0
    4.1532   71.0078   67.3382 H   0  0  0  0  0  0  0  0  0  0  0  0
    4.3738   72.2265   68.6578 H   0  0  0  0  0  0  0  0  0  0  0  0
    5.5915   69.6019   68.3842 H   0  0  0  0  0  0  0  0  0  0  0  0
    7.3182   70.5249   67.3094 H   0  0  0  0  0  0  0  0  0  0  0  0
    6.6118   72.1275   67.5309 H   0  0  0  0  0  0  0  0  0  0  0  0
    8.9191   71.2715   68.8264 H   0  0  0  0  0  0  0  0  0  0  0  0
    7.8768   72.5157   69.5108 H   0  0  0  0  0  0  0  0  0  0  0  0
    7.8822   69.4907   70.0651 H   0  0  0  0  0  0  0  0  0  0  0  0
    7.9229   70.7687   71.2567 H   0  0  0  0  0  0  0  0  0  0  0  0
    5.6097   71.4502   70.7202 H   0  0  0  0  0  0  0  0  0  0  0  0
    5.5230   69.7020   70.7575 H   0  0  0  0  0  0  0  0  0  0  0  0
  2  1  2  0
  3  2  1  0
  4  3  1  0
  5  4  2  0
  6  5  1  0
  7  6  2  0
  8  7  1  0
  9  4  1  0
  9  8  2  0
 10  9  1  0
 11 10  1  0
 12 11  2  0
 12  3  1  0
 13 12  1  0
 14 13  2  0
 15 14  1  0
 16 15  2  0
 16 11  1  0
 17  2  1  0
 18 17  1  0
 19 18  1  0
 20 19  1  0
 21 20  1  0
 22 21  1  0
 23 22  1  0
 24 20  1  0
 24 23  1  0
  5 25  1  0
  6 26  1  0
  7 27  1  0
  8 28  1  0
 13 29  1  0
 14 30  1  0
 15 31  1  0
 16 32  1  0
 17 33  1  0
 18 34  1  0
 18 35  1  0
 19 36  1  0
 19 37  1  0
 20 38  1  0
 21 39  1  0
 21 40  1  0
 22 41  1  0
 22 42  1  0
 23 43  1  0
 23 44  1  0
 24 45  1  0
 24 46  1  0
M  CHG  1  20   1
M  END
>  <score>  (5) 
-8.821

$$$$
=
     RDKit          3D

 46 49  0  0  0  0  0  0  0  0999 V2000
   -0.7350   63.1360   71.6810 O   0  0  0  0  0  0  0  0  0  0  0  0
    0.4710   62.9650   71.5230 C   0  0  0  0  0  0  0  0  0  0  0  0
    1.2280   61.8260   71.8690 N   0  0  0  0  0  0  0  0  0  0  0  0
    2.4830   61.5050   71.2240 C   0  0  0  0  0  0  0  0  0  0  0  0
    2.6730   61.8370   69.8660 C   0  0  0  0  0  0  0  0  0  0  0  0
    3.8670   61.5450   69.2010 C   0  0  0  0  0  0  0  0  0  0  0  0
    4.8960   60.9070   69.8780 C   0  0  0  0  0  0  0  0  0  0  0  0
    4.7220   60.5450   71.2120 C   0  0  0  0  0  0  0  0  0  0  0  0
    3.5190   60.8260   71.8790 C   0  0  0  0  0  0  0  0  0  0  0  0
    3.3870   60.3350   73.5760 S   0  0  0  0  0  0  0  0  0  0  0  0
    1.6230   60.1190   73.6480 C   0  0  0  0  0  0  0  0  0  0  0  0
    0.7420   60.8700   72.8430 C   0  0  0  0  0  0  0  0  0  0  0  0
   -0.6360   60.6610   73.0360 C   0  0  0  0  0  0  0  0  0  0  0  0
   -1.1180   59.7480   73.9820 C   0  0  0  0  0  0  0  0  0  0  0  0
   -0.2330   59.0210   74.7650 C   0  0  0  0  0  0  0  0  0  0  0  0
    1.1350   59.2090   74.6000 C   0  0  0  0  0  0  0  0  0  0  0  0
    1.2410   64.0300   71.0540 N   0  0  0  0  0  0  0  0  0  0  0  0
    0.6040   65.3220   70.8870 C   0  0  0  0  0  0  0  0  0  0  0  0
    1.4000   66.2670   69.9820 C   0  0  0  0  0  0  0  0  0  0  0  0
    0.4820   67.1700   69.1930 N   0  0  0  0  0  4  0  0  0  0  0  0
    1.1120   67.8600   67.9940 C   0  0  0  0  0  0  0  0  0  0  0  0
    0.1510   67.6120   66.8430 C   0  0  0  0  0  0  0  0  0  0  0  0
   -1.1770   67.3180   67.5110 C   0  0  0  0  0  0  0  0  0  0  0  0
   -0.7680   66.4760   68.6980 C   0  0  0  0  0  0  0  0  0  0  0  0
    1.8617   62.3378   69.3173 H   0  0  0  0  0  0  0  0  0  0  0  0
    3.9905   61.8204   68.1432 H   0  0  0  0  0  0  0  0  0  0  0  0
    5.8439   60.6882   69.3645 H   0  0  0  0  0  0  0  0  0  0  0  0
    5.5353   60.0339   71.7480 H   0  0  0  0  0  0  0  0  0  0  0  0
   -1.3540   61.2302   72.4273 H   0  0  0  0  0  0  0  0  0  0  0  0
   -2.2020   59.6067   74.1047 H   0  0  0  0  0  0  0  0  0  0  0  0
   -0.6095   58.3033   75.5087 H   0  0  0  0  0  0  0  0  0  0  0  0
    1.8418   58.6394   75.2212 H   0  0  0  0  0  0  0  0  0  0  0  0
    2.2385   63.9015   70.8316 H   0  0  0  0  0  0  0  0  0  0  0  0
   -0.3913   65.1680   70.4446 H   0  0  0  0  0  0  0  0  0  0  0  0
    0.5426   65.7904   71.8804 H   0  0  0  0  0  0  0  0  0  0  0  0
    2.0637   66.8854   70.6042 H   0  0  0  0  0  0  0  0  0  0  0  0
    1.9850   65.6611   69.2744 H   0  0  0  0  0  0  0  0  0  0  0  0
    0.2493   67.8849   69.8970 H   0  0  0  0  0  0  0  0  0  0  0  0
    1.2193   68.9385   68.1817 H   0  0  0  0  0  0  0  0  0  0  0  0
    2.1196   67.4743   67.7795 H   0  0  0  0  0  0  0  0  0  0  0  0
    0.0746   68.5027   66.2020 H   0  0  0  0  0  0  0  0  0  0  0  0
    0.4823   66.7890   66.1927 H   0  0  0  0  0  0  0  0  0  0  0  0
   -1.6734   68.2451   67.8336 H   0  0  0  0  0  0  0  0  0  0  0  0
   -1.8998   66.8194   66.8484 H   0  0  0  0  0  0  0  0  0  0  0  0
   -0.5515   65.4415   68.3931 H   0  0  0  0  0  0  0  0  0  0  0  0
   -1.5528   66.3975   69.4648 H   0  0  0  0  0  0  0  0  0  0  0  0
  2  1  2  0
  3  2  1  0
  4  3  1  0
  5  4  2  0
  6  5  1  0
  7  6  2  0
  8  7  1  0
  9  4  1  0
  9  8  2  0
 10  9  1  0
 11 10  1  0
 12 11  2  0
 12  3  1  0
 13 12  1  0
 14 13  2  0
 15 14  1  0
 16 15  2  0
 16 11  1  0
 17  2  1  0
 18 17  1  0
 19 18  1  0
 20 19  1  0
 21 20  1  0
 22 21  1  0
 23 22  1  0
 24 20  1  0
 24 23  1  0
  5 25  1  0
  6 26  1  0
  7 27  1  0
  8 28  1  0
 13 29  1  0
 14 30  1  0
 15 31  1  0
 16 32  1  0
 17 33  1  0
 18 34  1  0
 18 35  1  0
 19 36  1  0
 19 37  1  0
 20 38  1  0
 21 39  1  0
 21 40  1  0
 22 41  1  0
 22 42  1  0
 23 43  1  0
 23 44  1  0
 24 45  1  0
 24 46  1  0
M  CHG  1  20   1
M  END
>  <score>  (6) 
-8.404

$$$$
=
     RDKit          3D

 46 49  0  0  0  0  0  0  0  0999 V2000
    4.1420   58.9510   72.5240 O   0  0  0  0  0  0  0  0  0  0  0  0
    3.1450   59.4910   72.9950 C   0  0  0  0  0  0  0  0  0  0  0  0
    2.2760   60.3970   72.3520 N   0  0  0  0  0  0  0  0  0  0  0  0
    0.9050   60.5890   72.7760 C   0  0  0  0  0  0  0  0  0  0  0  0
    0.1840   59.5040   73.3170 C   0  0  0  0  0  0  0  0  0  0  0  0
   -1.1410   59.6410   73.7380 C   0  0  0  0  0  0  0  0  0  0  0  0
   -1.7780   60.8680   73.6220 C   0  0  0  0  0  0  0  0  0  0  0  0
   -1.0960   61.9480   73.0670 C   0  0  0  0  0  0  0  0  0  0  0  0
    0.2320   61.8100   72.6310 C   0  0  0  0  0  0  0  0  0  0  0  0
    1.0230   63.2370   71.9440 S   0  0  0  0  0  0  0  0  0  0  0  0
    2.1740   62.4050   70.8720 C   0  0  0  0  0  0  0  0  0  0  0  0
    2.6920   61.1290   71.1740 C   0  0  0  0  0  0  0  0  0  0  0  0
    3.6470   60.6010   70.2860 C   0  0  0  0  0  0  0  0  0  0  0  0
    4.0670   61.3030   69.1490 C   0  0  0  0  0  0  0  0  0  0  0  0
    3.5450   62.5580   68.8730 C   0  0  0  0  0  0  0  0  0  0  0  0
    2.6030   63.1090   69.7350 C   0  0  0  0  0  0  0  0  0  0  0  0
    2.8620   59.3050   74.3490 N   0  0  0  0  0  0  0  0  0  0  0  0
    3.8200   58.5820   75.1620 C   0  0  0  0  0  0  0  0  0  0  0  0
    3.2570   57.2740   75.7250 C   0  0  0  0  0  0  0  0  0  0  0  0
    1.9090   56.9550   75.1240 N   0  0  0  0  0  4  0  0  0  0  0  0
    1.8950   55.8290   74.1040 C   0  0  0  0  0  0  0  0  0  0  0  0
    0.7560   54.9180   74.5330 C   0  0  0  0  0  0  0  0  0  0  0  0
   -0.1420   55.8010   75.3750 C   0  0  0  0  0  0  0  0  0  0  0  0
    0.8510   56.6320   76.1560 C   0  0  0  0  0  0  0  0  0  0  0  0
    0.6775   58.5253   73.4097 H   0  0  0  0  0  0  0  0  0  0  0  0
   -1.6776   58.7786   74.1602 H   0  0  0  0  0  0  0  0  0  0  0  0
   -2.8159   60.9872   73.9664 H   0  0  0  0  0  0  0  0  0  0  0  0
   -1.6027   62.9194   72.9691 H   0  0  0  0  0  0  0  0  0  0  0  0
    4.0759   59.6089   70.4904 H   0  0  0  0  0  0  0  0  0  0  0  0
    4.8124   60.8580   68.4735 H   0  0  0  0  0  0  0  0  0  0  0  0
    3.8729   63.1120   67.9811 H   0  0  0  0  0  0  0  0  0  0  0  0
    2.1897   64.1064   69.5241 H   0  0  0  0  0  0  0  0  0  0  0  0
    1.9926   59.6729   74.7610 H   0  0  0  0  0  0  0  0  0  0  0  0
    4.6993   58.3483   74.5438 H   0  0  0  0  0  0  0  0  0  0  0  0
    4.0792   59.2245   76.0164 H   0  0  0  0  0  0  0  0  0  0  0  0
    3.9547   56.4551   75.4956 H   0  0  0  0  0  0  0  0  0  0  0  0
    3.1351   57.3873   76.8123 H   0  0  0  0  0  0  0  0  0  0  0  0
    1.6905   57.8370   74.6389 H   0  0  0  0  0  0  0  0  0  0  0  0
    1.7128   56.2253   73.0942 H   0  0  0  0  0  0  0  0  0  0  0  0
    2.8565   55.2959   74.0663 H   0  0  0  0  0  0  0  0  0  0  0  0
    0.2131   54.5356   73.6561 H   0  0  0  0  0  0  0  0  0  0  0  0
    1.1122   54.0364   75.0862 H   0  0  0  0  0  0  0  0  0  0  0  0
   -0.7806   56.4356   74.7429 H   0  0  0  0  0  0  0  0  0  0  0  0
   -0.8373   55.2360   76.0132 H   0  0  0  0  0  0  0  0  0  0  0  0
    1.2764   56.0576   76.9921 H   0  0  0  0  0  0  0  0  0  0  0  0
    0.4034   57.5268   76.6132 H   0  0  0  0  0  0  0  0  0  0  0  0
  2  1  2  0
  3  2  1  0
  4  3  1  0
  5  4  2  0
  6  5  1  0
  7  6  2  0
  8  7  1  0
  9  4  1  0
  9  8  2  0
 10  9  1  0
 11 10  1  0
 12 11  2  0
 12  3  1  0
 13 12  1  0
 14 13  2  0
 15 14  1  0
 16 15  2  0
 16 11  1  0
 17  2  1  0
 18 17  1  0
 19 18  1  0
 20 19  1  0
 21 20  1  0
 22 21  1  0
 23 22  1  0
 24 20  1  0
 24 23  1  0
  5 25  1  0
  6 26  1  0
  7 27  1  0
  8 28  1  0
 13 29  1  0
 14 30  1  0
 15 31  1  0
 16 32  1  0
 17 33  1  0
 18 34  1  0
 18 35  1  0
 19 36  1  0
 19 37  1  0
 20 38  1  0
 21 39  1  0
 21 40  1  0
 22 41  1  0
 22 42  1  0
 23 43  1  0
 23 44  1  0
 24 45  1  0
 24 46  1  0
M  CHG  1  20   1
M  END
>  <score>  (7) 
-8.175

$$$$
=
     RDKit          3D

 46 49  0  0  0  0  0  0  0  0999 V2000
   -0.4010   62.0630   73.5750 O   0  0  0  0  0  0  0  0  0  0  0  0
    0.6070   61.6310   73.0220 C   0  0  0  0  0  0  0  0  0  0  0  0
    1.5440   62.3560   72.2570 N   0  0  0  0  0  0  0  0  0  0  0  0
    2.9070   61.9060   72.0730 C   0  0  0  0  0  0  0  0  0  0  0  0
    3.5510   61.1910   73.1040 C   0  0  0  0  0  0  0  0  0  0  0  0
    4.8650   60.7370   72.9710 C   0  0  0  0  0  0  0  0  0  0  0  0
    5.5700   60.9960   71.8040 C   0  0  0  0  0  0  0  0  0  0  0  0
    4.9650   61.7230   70.7810 C   0  0  0  0  0  0  0  0  0  0  0  0
    3.6480   62.1900   70.9170 C   0  0  0  0  0  0  0  0  0  0  0  0
    2.9560   63.1010   69.5650 S   0  0  0  0  0  0  0  0  0  0  0  0
    1.8020   64.0940   70.4840 C   0  0  0  0  0  0  0  0  0  0  0  0
    1.2070   63.6400   71.6790 C   0  0  0  0  0  0  0  0  0  0  0  0
    0.2570   64.4860   72.2820 C   0  0  0  0  0  0  0  0  0  0  0  0
   -0.0850   65.7250   71.7270 C   0  0  0  0  0  0  0  0  0  0  0  0
    0.5110   66.1510   70.5480 C   0  0  0  0  0  0  0  0  0  0  0  0
    1.4500   65.3350   69.9270 C   0  0  0  0  0  0  0  0  0  0  0  0
    0.8320   60.2530   73.0300 N   0  0  0  0  0  0  0  0  0  0  0  0
   -0.1900   59.3880   73.5860 C   0  0  0  0  0  0  0  0  0  0  0  0
    0.3830   58.2910   74.4870 C   0  0  0  0  0  0  0  0  0  0  0  0
    0.3710   56.9510   73.7910 N   0  0  0  0  0  4  0  0  0  0  0  0
    1.7360   56.3290   73.5430 C   0  0  0  0  0  0  0  0  0  0  0  0
    1.6180   54.8990   74.0470 C   0  0  0  0  0  0  0  0  0  0  0  0
    0.1310   54.6070   74.0230 C   0  0  0  0  0  0  0  0  0  0  0  0
   -0.4670   55.9110   74.5010 C   0  0  0  0  0  0  0  0  0  0  0  0
    3.0046   60.9857   74.0364 H   0  0  0  0  0  0  0  0  0  0  0  0
    5.3399   60.1756   73.7891 H   0  0  0  0  0  0  0  0  0  0  0  0
    6.6005   60.6294   71.6874 H   0  0  0  0  0  0  0  0  0  0  0  0
    5.5247   61.9332   69.8577 H   0  0  0  0  0  0  0  0  0  0  0  0
   -0.2299   64.1648   73.2146 H   0  0  0  0  0  0  0  0  0  0  0  0
   -0.8286   66.3631   72.2270 H   0  0  0  0  0  0  0  0  0  0  0  0
    0.2433   67.1237   70.1097 H   0  0  0  0  0  0  0  0  0  0  0  0
    1.9223   65.6645   68.9898 H   0  0  0  0  0  0  0  0  0  0  0  0
    1.7046   59.8598   72.6494 H   0  0  0  0  0  0  0  0  0  0  0  0
   -0.8847   60.0015   74.1785 H   0  0  0  0  0  0  0  0  0  0  0  0
   -0.6966   58.8927   72.7445 H   0  0  0  0  0  0  0  0  0  0  0  0
    1.4192   58.5487   74.7514 H   0  0  0  0  0  0  0  0  0  0  0  0
   -0.2415   58.2202   75.3898 H   0  0  0  0  0  0  0  0  0  0  0  0
   -0.0456   57.1989   72.8822 H   0  0  0  0  0  0  0  0  0  0  0  0
    1.9767   56.3414   72.4697 H   0  0  0  0  0  0  0  0  0  0  0  0
    2.5390   56.8808   74.0537 H   0  0  0  0  0  0  0  0  0  0  0  0
    2.1602   54.2079   73.3849 H   0  0  0  0  0  0  0  0  0  0  0  0
    2.0519   54.7729   75.0499 H   0  0  0  0  0  0  0  0  0  0  0  0
   -0.2097   54.3627   73.0060 H   0  0  0  0  0  0  0  0  0  0  0  0
   -0.1557   53.7417   74.6386 H   0  0  0  0  0  0  0  0  0  0  0  0
   -0.3780   56.0099   75.5929 H   0  0  0  0  0  0  0  0  0  0  0  0
   -1.5419   55.9996   74.2849 H   0  0  0  0  0  0  0  0  0  0  0  0
  2  1  2  0
  3  2  1  0
  4  3  1  0
  5  4  2  0
  6  5  1  0
  7  6  2  0
  8  7  1  0
  9  4  1  0
  9  8  2  0
 10  9  1  0
 11 10  1  0
 12 11  2  0
 12  3  1  0
 13 12  1  0
 14 13  2  0
 15 14  1  0
 16 15  2  0
 16 11  1  0
 17  2  1  0
 18 17  1  0
 19 18  1  0
 20 19  1  0
 21 20  1  0
 22 21  1  0
 23 22  1  0
 24 20  1  0
 24 23  1  0
  5 25  1  0
  6 26  1  0
  7 27  1  0
  8 28  1  0
 13 29  1  0
 14 30  1  0
 15 31  1  0
 16 32  1  0
 17 33  1  0
 18 34  1  0
 18 35  1  0
 19 36  1  0
 19 37  1  0
 20 38  1  0
 21 39  1  0
 21 40  1  0
 22 41  1  0
 22 42  1  0
 23 43  1  0
 23 44  1  0
 24 45  1  0
 24 46  1  0
M  CHG  1  20   1
M  END
>  <score>  (8) 
-7.889

$$$$
