=
     RDKit          3D

 31 33  0  0  0  0  0  0  0  0999 V2000
    4.1790   69.1050   65.5400 N   0  0  0  0  0  0  0  0  0  0  0  0
    2.8290   68.9240   65.7150 C   0  0  0  0  0  0  0  0  0  0  0  0
    2.4150   69.3670   66.8830 N   0  0  0  0  0  0  0  0  0  0  0  0
    3.5530   69.8340   67.5030 C   0  0  0  0  0  0  0  0  0  0  0  0
    4.6630   69.6740   66.6870 C   0  0  0  0  0  0  0  0  0  0  0  0
    5.9280   70.0150   66.9780 N   0  0  0  0  0  0  0  0  0  0  0  0
    6.0050   70.5390   68.2170 C   0  0  0  0  0  0  0  0  0  0  0  0
    7.5780   71.0010   68.7120 Cl  0  0  0  0  0  0  0  0  0  0  0  0
    5.0280   70.7520   69.1190 N   0  0  0  0  0  0  0  0  0  0  0  0
    3.7690   70.4110   68.7670 C   0  0  0  0  0  0  0  0  0  0  0  0
    2.7490   70.6360   69.6800 N   0  0  0  0  0  0  0  0  0  0  0  0
    4.1890   68.4630   62.1530 C   0  0  1  0  0  0  0  0  0  0  0  0
    4.3280   69.4130   63.2300 O   0  0  0  0  0  0  0  0  0  0  0  0
    4.9080   68.7230   64.3480 C   0  0  2  0  0  0  0  0  0  0  0  0
    4.9520   67.2350   64.0170 C   0  0  0  0  0  0  0  0  0  0  0  0
    4.0200   67.1110   62.8320 C   0  0  2  0  0  0  0  0  0  0  0  0
    4.3900   66.0330   61.9890 O   0  0  0  0  0  0  0  0  0  0  0  0
    3.0020   68.8290   61.2640 C   0  0  0  0  0  0  0  0  0  0  0  0
    3.4050   68.8470   59.8940 O   0  0  0  0  0  0  0  0  0  0  0  0
    2.1697   68.4620   64.9654 H   0  0  0  0  0  0  0  0  0  0  0  0
    1.7789   70.3864   69.4402 H   0  0  0  0  0  0  0  0  0  0  0  0
    2.9618   71.0526   70.5976 H   0  0  0  0  0  0  0  0  0  0  0  0
    5.0601   68.4521   61.4814 H   0  0  0  0  0  0  0  0  0  0  0  0
    5.9529   68.9985   64.5534 H   0  0  0  0  0  0  0  0  0  0  0  0
    5.9719   66.9213   63.7499 H   0  0  0  0  0  0  0  0  0  0  0  0
    4.6566   66.5981   64.8638 H   0  0  0  0  0  0  0  0  0  0  0  0
    2.9773   66.8898   63.1035 H   0  0  0  0  0  0  0  0  0  0  0  0
    4.6563   65.2571   62.5432 H   0  0  0  0  0  0  0  0  0  0  0  0
    2.2029   68.0852   61.3989 H   0  0  0  0  0  0  0  0  0  0  0  0
    2.6343   69.8268   61.5453 H   0  0  0  0  0  0  0  0  0  0  0  0
    4.3926   68.8911   59.8411 H   0  0  0  0  0  0  0  0  0  0  0  0
  2  1  1  0
  3  2  2  0
  4  3  1  0
  5  4  2  0
  5  1  1  0
  6  5  1  0
  7  6  2  0
  8  7  1  0
  9  7  1  0
 10  9  2  0
 10  4  1  0
 11 10  1  0
 13 12  1  0
 14 13  1  0
 14  1  1  0
 15 14  1  0
 16 15  1  0
 16 12  1  0
 17 16  1  0
 18 12  1  0
 19 18  1  0
  2 20  1  0
 11 21  1  0
 11 22  1  0
 12 23  1  6
 14 24  1  1
 15 25  1  0
 15 26  1  0
 16 27  1  1
 17 28  1  0
 18 29  1  0
 18 30  1  0
 19 31  1  0
M  END
>  <score>  (1) 
-8.917

$$$$
=
     RDKit          3D

 31 33  0  0  0  0  0  0  0  0999 V2000
    1.9910   67.8480   65.2150 N   0  0  0  0  0  0  0  0  0  0  0  0
    2.2010   68.9860   64.4750 C   0  0  0  0  0  0  0  0  0  0  0  0
    3.0320   68.7840   63.4750 N   0  0  0  0  0  0  0  0  0  0  0  0
    3.3960   67.4600   63.5850 C   0  0  0  0  0  0  0  0  0  0  0  0
    2.7660   66.8610   64.6660 C   0  0  0  0  0  0  0  0  0  0  0  0
    2.8960   65.5870   65.0650 N   0  0  0  0  0  0  0  0  0  0  0  0
    3.7640   64.9280   64.2720 C   0  0  0  0  0  0  0  0  0  0  0  0
    4.0290   63.2890   64.6910 Cl  0  0  0  0  0  0  0  0  0  0  0  0
    4.4500   65.3700   63.2010 N   0  0  0  0  0  0  0  0  0  0  0  0
    4.2650   66.6540   62.8280 C   0  0  0  0  0  0  0  0  0  0  0  0
    4.9540   67.1220   61.7170 N   0  0  0  0  0  0  0  0  0  0  0  0
   -1.1050   68.3980   66.6270 C   0  0  1  0  0  0  0  0  0  0  0  0
   -0.2170   67.5230   65.9000 O   0  0  0  0  0  0  0  0  0  0  0  0
    1.1180   67.7710   66.3670 C   0  0  2  0  0  0  0  0  0  0  0  0
    1.0820   68.9880   67.2850 C   0  0  0  0  0  0  0  0  0  0  0  0
   -0.2620   69.6150   66.9860 C   0  0  2  0  0  0  0  0  0  0  0  0
   -0.7720   70.3130   68.1090 O   0  0  0  0  0  0  0  0  0  0  0  0
   -2.3220   68.7560   65.7770 C   0  0  0  0  0  0  0  0  0  0  0  0
   -3.5220   68.4640   66.4950 O   0  0  0  0  0  0  0  0  0  0  0  0
    1.7286   69.9551   64.6933 H   0  0  0  0  0  0  0  0  0  0  0  0
    4.8327   68.0973   61.4089 H   0  0  0  0  0  0  0  0  0  0  0  0
    5.5864   66.4938   61.2009 H   0  0  0  0  0  0  0  0  0  0  0  0
   -1.5137   67.9284   67.5339 H   0  0  0  0  0  0  0  0  0  0  0  0
    1.5352   66.9626   66.9854 H   0  0  0  0  0  0  0  0  0  0  0  0
    1.1493   68.6865   68.3407 H   0  0  0  0  0  0  0  0  0  0  0  0
    1.9233   69.6766   67.1174 H   0  0  0  0  0  0  0  0  0  0  0  0
   -0.2358   70.3747   66.1909 H   0  0  0  0  0  0  0  0  0  0  0  0
   -0.4544   69.8783   68.9398 H   0  0  0  0  0  0  0  0  0  0  0  0
   -2.2943   69.8286   65.5346 H   0  0  0  0  0  0  0  0  0  0  0  0
   -2.3023   68.1636   64.8503 H   0  0  0  0  0  0  0  0  0  0  0  0
   -3.3434   68.5075   67.4678 H   0  0  0  0  0  0  0  0  0  0  0  0
  2  1  1  0
  3  2  2  0
  4  3  1  0
  5  4  2  0
  5  1  1  0
  6  5  1  0
  7  6  2  0
  8  7  1  0
  9  7  1  0
 10  9  2  0
 10  4  1  0
 11 10  1  0
 13 12  1  0
 14 13  1  0
 14  1  1  0
 15 14  1  0
 16 15  1  0
 16 12  1  0
 17 16  1  0
 18 12  1  0
 19 18  1  0
  2 20  1  0
 11 21  1  0
 11 22  1  0
 12 23  1  1
 14 24  1  1
 15 25  1  0
 15 26  1  0
 16 27  1  6
 17 28  1  0
 18 29  1  0
 18 30  1  0
 19 31  1  0
M  END
>  <score>  (2) 
-8.652

$$$$
=
     RDKit          3D

 31 33  0  0  0  0  0  0  0  0999 V2000
    1.7240   68.1940   65.5080 N   0  0  0  0  0  0  0  0  0  0  0  0
    0.6740   68.1470   66.3920 C   0  0  0  0  0  0  0  0  0  0  0  0
    0.9470   68.7630   67.5220 N   0  0  0  0  0  0  0  0  0  0  0  0
    2.2420   69.2080   67.3740 C   0  0  0  0  0  0  0  0  0  0  0  0
    2.7470   68.8580   66.1300 C   0  0  0  0  0  0  0  0  0  0  0  0
    3.9730   69.1290   65.6570 N   0  0  0  0  0  0  0  0  0  0  0  0
    4.7000   69.7940   66.5780 C   0  0  0  0  0  0  0  0  0  0  0  0
    6.2960   70.1840   66.0960 Cl  0  0  0  0  0  0  0  0  0  0  0  0
    4.3540   70.1950   67.8150 N   0  0  0  0  0  0  0  0  0  0  0  0
    3.1000   69.9180   68.2330 C   0  0  0  0  0  0  0  0  0  0  0  0
    2.7230   70.3360   69.5020 N   0  0  0  0  0  0  0  0  0  0  0  0
    3.3470   67.5310   62.5390 C   0  0  1  0  0  0  0  0  0  0  0  0
    3.0250   67.1290   63.8880 O   0  0  0  0  0  0  0  0  0  0  0  0
    1.7050   67.6100   64.1830 C   0  0  2  0  0  0  0  0  0  0  0  0
    1.2620   68.5170   63.0390 C   0  0  0  0  0  0  0  0  0  0  0  0
    2.5520   68.8080   62.3030 C   0  0  2  0  0  0  0  0  0  0  0  0
    2.3210   69.0530   60.9260 O   0  0  0  0  0  0  0  0  0  0  0  0
    4.8520   67.7380   62.3850 C   0  0  0  0  0  0  0  0  0  0  0  0
    5.1140   69.0300   61.8360 O   0  0  0  0  0  0  0  0  0  0  0  0
   -0.2848   67.6514   66.1797 H   0  0  0  0  0  0  0  0  0  0  0  0
    1.7731   70.1391   69.8481 H   0  0  0  0  0  0  0  0  0  0  0  0
    3.3932   70.8431   70.0975 H   0  0  0  0  0  0  0  0  0  0  0  0
    3.0827   66.7664   61.7936 H   0  0  0  0  0  0  0  0  0  0  0  0
    0.9402   66.8208   64.2311 H   0  0  0  0  0  0  0  0  0  0  0  0
    0.5428   68.0026   62.3846 H   0  0  0  0  0  0  0  0  0  0  0  0
    0.7505   69.4270   63.3857 H   0  0  0  0  0  0  0  0  0  0  0  0
    3.0720   69.7127   62.6510 H   0  0  0  0  0  0  0  0  0  0  0  0
    1.6452   69.7697   60.8272 H   0  0  0  0  0  0  0  0  0  0  0  0
    5.3336   67.6566   63.3706 H   0  0  0  0  0  0  0  0  0  0  0  0
    5.2546   66.9699   61.7083 H   0  0  0  0  0  0  0  0  0  0  0  0
    5.2459   69.6802   62.5708 H   0  0  0  0  0  0  0  0  0  0  0  0
  2  1  1  0
  3  2  2  0
  4  3  1  0
  5  4  2  0
  5  1  1  0
  6  5  1  0
  7  6  2  0
  8  7  1  0
  9  7  1  0
 10  9  2  0
 10  4  1  0
 11 10  1  0
 13 12  1  0
 14 13  1  0
 14  1  1  0
 15 14  1  0
 16 15  1  0
 16 12  1  0
 17 16  1  0
 18 12  1  0
 19 18  1  0
  2 20  1  0
 11 21  1  0
 11 22  1  0
 12 23  1  6
 14 24  1  1
 15 25  1  0
 15 26  1  0
 16 27  1  1
 17 28  1  0
 18 29  1  0
 18 30  1  0
 19 31  1  0
M  END
>  <score>  (3) 
-8.522

$$$$
=
     RDKit          3D

 31 33  0  0  0  0  0  0  0  0999 V2000
    1.0510   68.1490   65.4260 N   0  0  0  0  0  0  0  0  0  0  0  0
    0.2010   68.7130   64.5060 C   0  0  0  0  0  0  0  0  0  0  0  0
   -1.0500   68.7090   64.9160 N   0  0  0  0  0  0  0  0  0  0  0  0
   -1.0130   68.0930   66.1470 C   0  0  0  0  0  0  0  0  0  0  0  0
    0.2840   67.7300   66.4810 C   0  0  0  0  0  0  0  0  0  0  0  0
    0.6800   67.1090   67.6020 N   0  0  0  0  0  0  0  0  0  0  0  0
   -0.3770   66.8480   68.3980 C   0  0  0  0  0  0  0  0  0  0  0  0
   -0.0010   66.0400   69.8600 Cl  0  0  0  0  0  0  0  0  0  0  0  0
   -1.6800   67.1320   68.2110 N   0  0  0  0  0  0  0  0  0  0  0  0
   -2.0210   67.7790   67.0760 C   0  0  0  0  0  0  0  0  0  0  0  0
   -3.3580   68.0900   66.8740 N   0  0  0  0  0  0  0  0  0  0  0  0
    3.7960   68.2340   63.3440 C   0  0  1  0  0  0  0  0  0  0  0  0
    2.8850   68.9360   64.2150 O   0  0  0  0  0  0  0  0  0  0  0  0
    2.4830   68.0260   65.2500 C   0  0  2  0  0  0  0  0  0  0  0  0
    3.0150   66.6410   64.8980 C   0  0  0  0  0  0  0  0  0  0  0  0
    3.3910   66.7700   63.4380 C   0  0  2  0  0  0  0  0  0  0  0  0
    4.4510   65.8930   63.0950 O   0  0  0  0  0  0  0  0  0  0  0  0
    3.7060   68.7800   61.9200 C   0  0  0  0  0  0  0  0  0  0  0  0
    3.8280   67.7120   60.9800 O   0  0  0  0  0  0  0  0  0  0  0  0
    0.5280   69.1210   63.5382 H   0  0  0  0  0  0  0  0  0  0  0  0
   -3.6483   68.5832   66.0177 H   0  0  0  0  0  0  0  0  0  0  0  0
   -4.0602   67.8276   67.5804 H   0  0  0  0  0  0  0  0  0  0  0  0
    4.8482   68.3638   63.6373 H   0  0  0  0  0  0  0  0  0  0  0  0
    2.9113   68.2514   66.2378 H   0  0  0  0  0  0  0  0  0  0  0  0
    3.8938   66.3897   65.5100 H   0  0  0  0  0  0  0  0  0  0  0  0
    2.2840   65.8403   65.0839 H   0  0  0  0  0  0  0  0  0  0  0  0
    2.5845   66.4979   62.7412 H   0  0  0  0  0  0  0  0  0  0  0  0
    4.8717   65.5450   63.9208 H   0  0  0  0  0  0  0  0  0  0  0  0
    2.7352   69.2784   61.7814 H   0  0  0  0  0  0  0  0  0  0  0  0
    4.5212   69.5003   61.7567 H   0  0  0  0  0  0  0  0  0  0  0  0
    3.9259   66.8547   61.4654 H   0  0  0  0  0  0  0  0  0  0  0  0
  2  1  1  0
  3  2  2  0
  4  3  1  0
  5  4  2  0
  5  1  1  0
  6  5  1  0
  7  6  2  0
  8  7  1  0
  9  7  1  0
 10  9  2  0
 10  4  1  0
 11 10  1  0
 13 12  1  0
 14 13  1  0
 14  1  1  0
 15 14  1  0
 16 15  1  0
 16 12  1  0
 17 16  1  0
 18 12  1  0
 19 18  1  0
  2 20  1  0
 11 21  1  0
 11 22  1  0
 12 23  1  1
 14 24  1  1
 15 25  1  0
 15 26  1  0
 16 27  1  6
 17 28  1  0
 18 29  1  0
 18 30  1  0
 19 31  1  0
M  END
>  <score>  (4) 
-8.494

$$$$
=
     RDKit          3D

 31 33  0  0  0  0  0  0  0  0999 V2000
    1.3280   68.2640   64.5380 N   0  0  0  0  0  0  0  0  0  0  0  0
    0.7370   68.9690   63.5180 C   0  0  0  0  0  0  0  0  0  0  0  0
   -0.5280   69.2350   63.7640 N   0  0  0  0  0  0  0  0  0  0  0  0
   -0.7760   68.6550   64.9880 C   0  0  0  0  0  0  0  0  0  0  0  0
    0.3640   68.0390   65.4840 C   0  0  0  0  0  0  0  0  0  0  0  0
    0.4770   67.3760   66.6460 N   0  0  0  0  0  0  0  0  0  0  0  0
   -0.7020   67.3600   67.2990 C   0  0  0  0  0  0  0  0  0  0  0  0
   -0.6900   66.5270   68.7940 Cl  0  0  0  0  0  0  0  0  0  0  0  0
   -1.8830   67.9040   66.9470 N   0  0  0  0  0  0  0  0  0  0  0  0
   -1.9360   68.5790   65.7790 C   0  0  0  0  0  0  0  0  0  0  0  0
   -3.1430   69.1560   65.4080 N   0  0  0  0  0  0  0  0  0  0  0  0
    4.5990   68.8570   65.4500 C   0  0  1  0  0  0  0  0  0  0  0  0
    3.3100   68.2930   65.7720 O   0  0  0  0  0  0  0  0  0  0  0  0
    2.7130   67.8430   64.5460 C   0  0  2  0  0  0  0  0  0  0  0  0
    3.5840   68.3220   63.3890 C   0  0  0  0  0  0  0  0  0  0  0  0
    4.4630   69.3760   64.0250 C   0  0  2  0  0  0  0  0  0  0  0  0
    5.7150   69.4760   63.3660 O   0  0  0  0  0  0  0  0  0  0  0  0
    4.9670   69.9570   66.4450 C   0  0  0  0  0  0  0  0  0  0  0  0
    6.0920   70.6930   65.9640 O   0  0  0  0  0  0  0  0  0  0  0  0
    1.2610   69.2760   62.6008 H   0  0  0  0  0  0  0  0  0  0  0  0
   -3.2140   69.6772   64.5224 H   0  0  0  0  0  0  0  0  0  0  0  0
   -3.9675   69.0629   66.0183 H   0  0  0  0  0  0  0  0  0  0  0  0
    5.4137   68.1210   65.5178 H   0  0  0  0  0  0  0  0  0  0  0  0
    2.6772   66.7488   64.4391 H   0  0  0  0  0  0  0  0  0  0  0  0
    4.1887   67.4973   62.9838 H   0  0  0  0  0  0  0  0  0  0  0  0
    2.9982   68.7060   62.5408 H   0  0  0  0  0  0  0  0  0  0  0  0
    4.0513   70.3946   63.9715 H   0  0  0  0  0  0  0  0  0  0  0  0
    6.4386   69.5338   64.0392 H   0  0  0  0  0  0  0  0  0  0  0  0
    4.1118   70.6378   66.5684 H   0  0  0  0  0  0  0  0  0  0  0  0
    5.2214   69.4991   67.4123 H   0  0  0  0  0  0  0  0  0  0  0  0
    6.6151   71.0352   66.7317 H   0  0  0  0  0  0  0  0  0  0  0  0
  2  1  1  0
  3  2  2  0
  4  3  1  0
  5  4  2  0
  5  1  1  0
  6  5  1  0
  7  6  2  0
  8  7  1  0
  9  7  1  0
 10  9  2  0
 10  4  1  0
 11 10  1  0
 13 12  1  0
 14 13  1  0
 14  1  1  0
 15 14  1  0
 16 15  1  0
 16 12  1  0
 17 16  1  0
 18 12  1  0
 19 18  1  0
  2 20  1  0
 11 21  1  0
 11 22  1  0
 12 23  1  6
 14 24  1  1
 15 25  1  0
 15 26  1  0
 16 27  1  1
 17 28  1  0
 18 29  1  0
 18 30  1  0
 19 31  1  0
M  END
>  <score>  (5) 
-8.339

$$$$
=
     RDKit          3D

 31 33  0  0  0  0  0  0  0  0999 V2000
    2.6160   67.5360   64.6370 N   0  0  0  0  0  0  0  0  0  0  0  0
    3.8530   67.0940   64.2350 C   0  0  0  0  0  0  0  0  0  0  0  0
    4.1350   67.4580   63.0020 N   0  0  0  0  0  0  0  0  0  0  0  0
    3.0210   68.1460   62.5770 C   0  0  0  0  0  0  0  0  0  0  0  0
    2.0600   68.2000   63.5760 C   0  0  0  0  0  0  0  0  0  0  0  0
    0.8560   68.7870   63.5010 N   0  0  0  0  0  0  0  0  0  0  0  0
    0.6670   69.3270   62.2800 C   0  0  0  0  0  0  0  0  0  0  0  0
   -0.8460   70.0950   62.0540 Cl  0  0  0  0  0  0  0  0  0  0  0  0
    1.4950   69.3520   61.2180 N   0  0  0  0  0  0  0  0  0  0  0  0
    2.7040   68.7670   61.3550 C   0  0  0  0  0  0  0  0  0  0  0  0
    3.5730   68.7950   60.2740 N   0  0  0  0  0  0  0  0  0  0  0  0
   -0.0860   67.7130   66.7700 C   0  0  1  0  0  0  0  0  0  0  0  0
    0.6570   66.9750   65.7770 O   0  0  0  0  0  0  0  0  0  0  0  0
    2.0470   67.2940   65.9460 C   0  0  2  0  0  0  0  0  0  0  0  0
    2.1540   68.4270   66.9620 C   0  0  0  0  0  0  0  0  0  0  0  0
    0.7410   68.9620   67.0420 C   0  0  2  0  0  0  0  0  0  0  0  0
    0.4690   69.5230   68.3150 O   0  0  0  0  0  0  0  0  0  0  0  0
   -1.4890   68.0350   66.2610 C   0  0  0  0  0  0  0  0  0  0  0  0
   -1.4310   69.0990   65.3090 O   0  0  0  0  0  0  0  0  0  0  0  0
    4.5298   66.5039   64.8704 H   0  0  0  0  0  0  0  0  0  0  0  0
    4.5022   68.3570   60.3487 H   0  0  0  0  0  0  0  0  0  0  0  0
    3.2890   69.2538   59.3967 H   0  0  0  0  0  0  0  0  0  0  0  0
   -0.2390   67.1411   67.6971 H   0  0  0  0  0  0  0  0  0  0  0  0
    2.6477   66.4756   66.3696 H   0  0  0  0  0  0  0  0  0  0  0  0
    2.4874   68.0487   67.9396 H   0  0  0  0  0  0  0  0  0  0  0  0
    2.8876   69.1942   66.6735 H   0  0  0  0  0  0  0  0  0  0  0  0
    0.5315   69.7821   66.3395 H   0  0  0  0  0  0  0  0  0  0  0  0
    0.7714   68.8993   69.0219 H   0  0  0  0  0  0  0  0  0  0  0  0
   -1.9172   67.1415   65.7831 H   0  0  0  0  0  0  0  0  0  0  0  0
   -2.1190   68.3427   67.1086 H   0  0  0  0  0  0  0  0  0  0  0  0
   -1.3838   69.9657   65.7852 H   0  0  0  0  0  0  0  0  0  0  0  0
  2  1  1  0
  3  2  2  0
  4  3  1  0
  5  4  2  0
  5  1  1  0
  6  5  1  0
  7  6  2  0
  8  7  1  0
  9  7  1  0
 10  9  2  0
 10  4  1  0
 11 10  1  0
 13 12  1  0
 14 13  1  0
 14  1  1  0
 15 14  1  0
 16 15  1  0
 16 12  1  0
 17 16  1  0
 18 12  1  0
 19 18  1  0
  2 20  1  0
 11 21  1  0
 11 22  1  0
 12 23  1  1
 14 24  1  1
 15 25  1  0
 15 26  1  0
 16 27  1  6
 17 28  1  0
 18 29  1  0
 18 30  1  0
 19 31  1  0
M  END
>  <score>  (6) 
-8.253

$$$$
=
     RDKit          3D

 31 33  0  0  0  0  0  0  0  0999 V2000
    1.4160   68.5450   63.2640 N   0  0  0  0  0  0  0  0  0  0  0  0
    0.2890   68.5840   62.4790 C   0  0  0  0  0  0  0  0  0  0  0  0
   -0.8090   68.7240   63.1910 N   0  0  0  0  0  0  0  0  0  0  0  0
   -0.3770   68.7530   64.4980 C   0  0  0  0  0  0  0  0  0  0  0  0
    1.0040   68.6350   64.5670 C   0  0  0  0  0  0  0  0  0  0  0  0
    1.7540   68.6220   65.6790 N   0  0  0  0  0  0  0  0  0  0  0  0
    0.9770   68.7210   66.7760 C   0  0  0  0  0  0  0  0  0  0  0  0
    1.8200   68.7000   68.2660 Cl  0  0  0  0  0  0  0  0  0  0  0  0
   -0.3620   68.8360   66.8690 N   0  0  0  0  0  0  0  0  0  0  0  0
   -1.0670   68.8680   65.7180 C   0  0  0  0  0  0  0  0  0  0  0  0
   -2.4460   68.9990   65.7970 N   0  0  0  0  0  0  0  0  0  0  0  0
    4.4150   66.8460   63.2380 C   0  0  1  0  0  0  0  0  0  0  0  0
    3.0840   67.0100   62.7060 O   0  0  0  0  0  0  0  0  0  0  0  0
    2.7640   68.4080   62.7530 C   0  0  2  0  0  0  0  0  0  0  0  0
    3.8670   69.1220   63.5280 C   0  0  0  0  0  0  0  0  0  0  0  0
    4.5940   67.9930   64.2240 C   0  0  2  0  0  0  0  0  0  0  0  0
    5.9590   68.3090   64.4410 O   0  0  0  0  0  0  0  0  0  0  0  0
    4.5660   65.4760   63.8960 C   0  0  0  0  0  0  0  0  0  0  0  0
    4.2520   64.4470   62.9570 O   0  0  0  0  0  0  0  0  0  0  0  0
    0.3029   68.5071   61.3818 H   0  0  0  0  0  0  0  0  0  0  0  0
   -3.0109   69.0264   64.9361 H   0  0  0  0  0  0  0  0  0  0  0  0
   -2.9049   69.0688   66.7165 H   0  0  0  0  0  0  0  0  0  0  0  0
    5.1907   66.8792   62.4587 H   0  0  0  0  0  0  0  0  0  0  0  0
    2.7459   68.8975   61.7681 H   0  0  0  0  0  0  0  0  0  0  0  0
    4.5402   69.6626   62.8464 H   0  0  0  0  0  0  0  0  0  0  0  0
    3.4802   69.8787   64.2265 H   0  0  0  0  0  0  0  0  0  0  0  0
    4.2100   67.7652   65.2293 H   0  0  0  0  0  0  0  0  0  0  0  0
    6.1375   68.3503   65.4139 H   0  0  0  0  0  0  0  0  0  0  0  0
    5.6026   65.3500   64.2417 H   0  0  0  0  0  0  0  0  0  0  0  0
    3.8772   65.4077   64.7510 H   0  0  0  0  0  0  0  0  0  0  0  0
    4.0003   63.6222   63.4432 H   0  0  0  0  0  0  0  0  0  0  0  0
  2  1  1  0
  3  2  2  0
  4  3  1  0
  5  4  2  0
  5  1  1  0
  6  5  1  0
  7  6  2  0
  8  7  1  0
  9  7  1  0
 10  9  2  0
 10  4  1  0
 11 10  1  0
 13 12  1  0
 14 13  1  0
 14  1  1  0
 15 14  1  0
 16 15  1  0
 16 12  1  0
 17 16  1  0
 18 12  1  0
 19 18  1  0
  2 20  1  0
 11 21  1  0
 11 22  1  0
 12 23  1  6
 14 24  1  6
 15 25  1  0
 15 26  1  0
 16 27  1  1
 17 28  1  0
 18 29  1  0
 18 30  1  0
 19 31  1  0
M  END
>  <score>  (7) 
-8.222

$$$$
=
     RDKit          3D

 31 33  0  0  0  0  0  0  0  0999 V2000
    2.0720   68.2580   65.4830 N   0  0  0  0  0  0  0  0  0  0  0  0
    1.6410   67.7910   64.2650 C   0  0  0  0  0  0  0  0  0  0  0  0
    2.5260   67.9920   63.3130 N   0  0  0  0  0  0  0  0  0  0  0  0
    3.5690   68.6410   63.9360 C   0  0  0  0  0  0  0  0  0  0  0  0
    3.3030   68.8230   65.2850 C   0  0  0  0  0  0  0  0  0  0  0  0
    4.0990   69.4210   66.1860 N   0  0  0  0  0  0  0  0  0  0  0  0
    5.2300   69.8630   65.6000 C   0  0  0  0  0  0  0  0  0  0  0  0
    6.3230   70.6610   66.6480 Cl  0  0  0  0  0  0  0  0  0  0  0  0
    5.6230   69.7660   64.3160 N   0  0  0  0  0  0  0  0  0  0  0  0
    4.7950   69.1350   63.4560 C   0  0  0  0  0  0  0  0  0  0  0  0
    5.1920   69.0150   62.1310 N   0  0  0  0  0  0  0  0  0  0  0  0
   -0.9720   68.3630   67.0980 C   0  0  1  0  0  0  0  0  0  0  0  0
    0.0310   67.5930   66.4010 O   0  0  0  0  0  0  0  0  0  0  0  0
    1.3120   68.1630   66.7110 C   0  0  2  0  0  0  0  0  0  0  0  0
    1.0810   69.4610   67.4780 C   0  0  0  0  0  0  0  0  0  0  0  0
   -0.3810   69.7600   67.2310 C   0  0  2  0  0  0  0  0  0  0  0  0
   -0.9520   70.4870   68.3060 O   0  0  0  0  0  0  0  0  0  0  0  0
   -2.2890   68.3520   66.3260 C   0  0  0  0  0  0  0  0  0  0  0  0
   -3.3830   68.1920   67.2300 O   0  0  0  0  0  0  0  0  0  0  0  0
    0.6675   67.3048   64.1044 H   0  0  0  0  0  0  0  0  0  0  0  0
    4.5816   68.5388   61.4516 H   0  0  0  0  0  0  0  0  0  0  0  0
    6.0969   69.4022   61.8274 H   0  0  0  0  0  0  0  0  0  0  0  0
   -1.2138   67.9489   68.0880 H   0  0  0  0  0  0  0  0  0  0  0  0
    1.9290   67.5445   67.3793 H   0  0  0  0  0  0  0  0  0  0  0  0
    1.2787   69.3242   68.5514 H   0  0  0  0  0  0  0  0  0  0  0  0
    1.7461   70.2750   67.1539 H   0  0  0  0  0  0  0  0  0  0  0  0
   -0.5662   70.3948   66.3519 H   0  0  0  0  0  0  0  0  0  0  0  0
   -0.6478   70.0997   69.1648 H   0  0  0  0  0  0  0  0  0  0  0  0
   -2.4010   69.3020   65.7829 H   0  0  0  0  0  0  0  0  0  0  0  0
   -2.2833   67.5139   65.6136 H   0  0  0  0  0  0  0  0  0  0  0  0
   -3.0512   68.2405   68.1615 H   0  0  0  0  0  0  0  0  0  0  0  0
  2  1  1  0
  3  2  2  0
  4  3  1  0
  5  4  2  0
  5  1  1  0
  6  5  1  0
  7  6  2  0
  8  7  1  0
  9  7  1  0
 10  9  2  0
 10  4  1  0
 11 10  1  0
 13 12  1  0
 14 13  1  0
 14  1  1  0
 15 14  1  0
 16 15  1  0
 16 12  1  0
 17 16  1  0
 18 12  1  0
 19 18  1  0
  2 20  1  0
 11 21  1  0
 11 22  1  0
 12 23  1  1
 14 24  1  1
 15 25  1  0
 15 26  1  0
 16 27  1  6
 17 28  1  0
 18 29  1  0
 18 30  1  0
 19 31  1  0
M  END
>  <score>  (8) 
-8.19

$$$$
=
     RDKit          3D

 31 33  0  0  0  0  0  0  0  0999 V2000
    2.0510   69.0020   66.1830 N   0  0  0  0  0  0  0  0  0  0  0  0
    1.7930   68.6460   64.8810 C   0  0  0  0  0  0  0  0  0  0  0  0
    2.8670   68.7150   64.1240 N   0  0  0  0  0  0  0  0  0  0  0  0
    3.8610   69.1590   64.9670 C   0  0  0  0  0  0  0  0  0  0  0  0
    3.3730   69.3510   66.2510 C   0  0  0  0  0  0  0  0  0  0  0  0
    4.0660   69.7800   67.3170 N   0  0  0  0  0  0  0  0  0  0  0  0
    5.3460   70.0340   66.9800 C   0  0  0  0  0  0  0  0  0  0  0  0
    6.3320   70.6060   68.2570 Cl  0  0  0  0  0  0  0  0  0  0  0  0
    5.9590   69.9020   65.7880 N   0  0  0  0  0  0  0  0  0  0  0  0
    5.2220   69.4440   64.7540 C   0  0  0  0  0  0  0  0  0  0  0  0
    5.8420   69.2900   63.5220 N   0  0  0  0  0  0  0  0  0  0  0  0
    0.5720   67.4240   68.8680 C   0  0  1  0  0  0  0  0  0  0  0  0
    1.6030   68.3000   68.3640 O   0  0  0  0  0  0  0  0  0  0  0  0
    1.0610   69.0100   67.2400 C   0  0  2  0  0  0  0  0  0  0  0  0
   -0.3020   68.4100   66.9110 C   0  0  0  0  0  0  0  0  0  0  0  0
   -0.2980   67.0970   67.6620 C   0  0  2  0  0  0  0  0  0  0  0  0
   -1.6090   66.7060   68.0320 O   0  0  0  0  0  0  0  0  0  0  0  0
    1.1880   66.1810   69.5050 C   0  0  0  0  0  0  0  0  0  0  0  0
    0.1910   65.1710   69.6670 O   0  0  0  0  0  0  0  0  0  0  0  0
    0.8026   68.3387   64.5139 H   0  0  0  0  0  0  0  0  0  0  0  0
    5.3047   68.9424   62.7149 H   0  0  0  0  0  0  0  0  0  0  0  0
    6.8395   69.5233   63.4147 H   0  0  0  0  0  0  0  0  0  0  0  0
   -0.0287   67.8883   69.6640 H   0  0  0  0  0  0  0  0  0  0  0  0
    0.8616   70.0743   67.4338 H   0  0  0  0  0  0  0  0  0  0  0  0
   -1.1146   69.0624   67.2633 H   0  0  0  0  0  0  0  0  0  0  0  0
   -0.4670   68.2860   65.8305 H   0  0  0  0  0  0  0  0  0  0  0  0
    0.0778   66.2460   67.0749 H   0  0  0  0  0  0  0  0  0  0  0  0
   -1.6807   66.6846   69.0192 H   0  0  0  0  0  0  0  0  0  0  0  0
    1.9912   65.7996   68.8574 H   0  0  0  0  0  0  0  0  0  0  0  0
    1.5981   66.4455   70.4908 H   0  0  0  0  0  0  0  0  0  0  0  0
    0.0350   65.0130   70.6318 H   0  0  0  0  0  0  0  0  0  0  0  0
  2  1  1  0
  3  2  2  0
  4  3  1  0
  5  4  2  0
  5  1  1  0
  6  5  1  0
  7  6  2  0
  8  7  1  0
  9  7  1  0
 10  9  2  0
 10  4  1  0
 11 10  1  0
 13 12  1  0
 14 13  1  0
 14  1  1  0
 15 14  1  0
 16 15  1  0
 16 12  1  0
 17 16  1  0
 18 12  1  0
 19 18  1  0
  2 20  1  0
 11 21  1  0
 11 22  1  0
 12 23  1  1
 14 24  1  1
 15 25  1  0
 15 26  1  0
 16 27  1  6
 17 28  1  0
 18 29  1  0
 18 30  1  0
 19 31  1  0
M  END
>  <score>  (9) 
-7.938

$$$$
