=
     RDKit          3D

 42 43  0  0  0  0  0  0  0  0999 V2000
    1.7640   69.4870   67.6100 C   0  0  0  0  0  0  0  0  0  0  0  0
    2.2690   70.1440   68.7380 C   0  0  0  0  0  0  0  0  0  0  0  0
    3.6140   70.5180   68.8230 C   0  0  0  0  0  0  0  0  0  0  0  0
    4.4530   70.1780   67.7570 C   0  0  0  0  0  0  0  0  0  0  0  0
    3.9960   69.5100   66.6240 C   0  0  0  0  0  0  0  0  0  0  0  0
    2.6250   69.2020   66.5340 C   0  0  0  0  0  0  0  0  0  0  0  0
    5.1310   69.2480   65.7920 C   0  0  0  0  0  0  0  0  0  0  0  0
    6.2210   69.8320   66.4100 C   0  0  0  0  0  0  0  0  0  0  0  0
    5.7970   70.4070   67.5800 N   0  0  0  0  0  0  0  0  0  0  0  0
    0.3130   69.0690   67.5530 C   0  0  0  0  0  0  0  0  0  0  0  0
    0.2410   67.2640   67.4910 S   0  0  0  0  0  6  0  0  0  0  0  0
    1.1420   66.6880   68.4640 O   0  0  0  0  0  0  0  0  0  0  0  0
    0.2930   66.8370   66.1030 O   0  0  0  0  0  0  0  0  0  0  0  0
   -2.4190   67.6590   67.3140 C   0  0  0  0  0  0  0  0  0  0  0  0
   -1.3290   66.9540   67.9930 N   0  0  0  0  0  0  0  0  0  0  0  0
    5.1480   68.4560   64.5210 C   0  0  0  0  0  0  0  0  0  0  0  0
    4.8950   69.3360   63.2860 C   0  0  0  0  0  0  0  0  0  0  0  0
    4.6350   68.5180   62.0300 N   0  0  0  0  0  4  0  0  0  0  0  0
    3.3330   68.8790   61.3790 C   0  0  0  0  0  0  0  0  0  0  0  0
    4.7410   67.0350   62.2520 C   0  0  0  0  0  0  0  0  0  0  0  0
    1.5934   70.3711   69.5758 H   0  0  0  0  0  0  0  0  0  0  0  0
    3.9989   71.0612   69.6987 H   0  0  0  0  0  0  0  0  0  0  0  0
    2.2259   68.7374   65.6203 H   0  0  0  0  0  0  0  0  0  0  0  0
    7.2526   69.8348   66.0281 H   0  0  0  0  0  0  0  0  0  0  0  0
    6.3972   70.9333   68.2309 H   0  0  0  0  0  0  0  0  0  0  0  0
   -0.2134   69.4312   68.4484 H   0  0  0  0  0  0  0  0  0  0  0  0
   -0.1688   69.4972   66.6617 H   0  0  0  0  0  0  0  0  0  0  0  0
   -3.0954   68.0965   68.0630 H   0  0  0  0  0  0  0  0  0  0  0  0
   -2.0022   68.4591   66.6846 H   0  0  0  0  0  0  0  0  0  0  0  0
   -2.9778   66.9508   66.6846 H   0  0  0  0  0  0  0  0  0  0  0  0
   -1.3842   67.1948   68.9929 H   0  0  0  0  0  0  0  0  0  0  0  0
    6.1311   67.9737   64.4171 H   0  0  0  0  0  0  0  0  0  0  0  0
    4.3408   67.7108   64.5762 H   0  0  0  0  0  0  0  0  0  0  0  0
    4.0190   69.9723   63.4800 H   0  0  0  0  0  0  0  0  0  0  0  0
    5.8006   69.9357   63.1123 H   0  0  0  0  0  0  0  0  0  0  0  0
    5.3921   68.7694   61.3785 H   0  0  0  0  0  0  0  0  0  0  0  0
    2.5809   69.0875   62.1541 H   0  0  0  0  0  0  0  0  0  0  0  0
    3.4716   69.7726   60.7527 H   0  0  0  0  0  0  0  0  0  0  0  0
    2.9916   68.0416   60.7527 H   0  0  0  0  0  0  0  0  0  0  0  0
    4.7559   66.8260   63.3319 H   0  0  0  0  0  0  0  0  0  0  0  0
    3.8765   66.5329   61.7933 H   0  0  0  0  0  0  0  0  0  0  0  0
    5.6682   66.6609   61.7933 H   0  0  0  0  0  0  0  0  0  0  0  0
  2  1  2  0
  3  2  1  0
  4  3  2  0
  5  4  1  0
  6  5  2  0
  6  1  1  0
  7  5  1  0
  8  7  2  0
  9  4  1  0
  9  8  1  0
 10  1  1  0
 11 10  1  0
 12 11  2  0
 13 11  2  0
 15 14  1  0
 15 11  1  0
 16  7  1  0
 17 16  1  0
 18 17  1  0
 19 18  1  0
 20 18  1  0
  2 21  1  0
  3 22  1  0
  6 23  1  0
  8 24  1  0
  9 25  1  0
 10 26  1  0
 10 27  1  0
 14 28  1  0
 14 29  1  0
 14 30  1  0
 15 31  1  0
 16 32  1  0
 16 33  1  0
 17 34  1  0
 17 35  1  0
 18 36  1  0
 19 37  1  0
 19 38  1  0
 19 39  1  0
 20 40  1  0
 20 41  1  0
 20 42  1  0
M  CHG  1  18   1
M  END
>  <score>  (1) 
-8.724

$$$$
=
     RDKit          3D

 42 43  0  0  0  0  0  0  0  0999 V2000
    4.7850   69.4160   64.8620 C   0  0  0  0  0  0  0  0  0  0  0  0
    5.8820   69.8900   65.5900 C   0  0  0  0  0  0  0  0  0  0  0  0
    5.7790   70.1890   66.9540 C   0  0  0  0  0  0  0  0  0  0  0  0
    4.5290   70.0360   67.5600 C   0  0  0  0  0  0  0  0  0  0  0  0
    3.4080   69.5830   66.8700 C   0  0  0  0  0  0  0  0  0  0  0  0
    3.5530   69.2280   65.5150 C   0  0  0  0  0  0  0  0  0  0  0  0
    2.2970   69.6370   67.7700 C   0  0  0  0  0  0  0  0  0  0  0  0
    2.7950   70.0460   68.9930 C   0  0  0  0  0  0  0  0  0  0  0  0
    4.1430   70.2610   68.8600 N   0  0  0  0  0  0  0  0  0  0  0  0
    4.9150   69.1270   63.3850 C   0  0  0  0  0  0  0  0  0  0  0  0
    4.4530   67.4030   63.0990 S   0  0  0  0  0  6  0  0  0  0  0  0
    4.3360   66.6950   64.3540 O   0  0  0  0  0  0  0  0  0  0  0  0
    5.2780   66.8650   62.0300 O   0  0  0  0  0  0  0  0  0  0  0  0
    2.6240   68.7430   61.6420 C   0  0  0  0  0  0  0  0  0  0  0  0
    2.9170   67.5520   62.4420 N   0  0  0  0  0  0  0  0  0  0  0  0
    0.8630   69.3520   67.4440 C   0  0  0  0  0  0  0  0  0  0  0  0
    0.5830   67.8450   67.3280 C   0  0  0  0  0  0  0  0  0  0  0  0
   -0.6690   67.5450   66.5190 N   0  0  0  0  0  4  0  0  0  0  0  0
   -1.1140   68.7250   65.7050 C   0  0  0  0  0  0  0  0  0  0  0  0
   -1.7980   66.9980   67.3470 C   0  0  0  0  0  0  0  0  0  0  0  0
    6.8462   70.0308   65.0796 H   0  0  0  0  0  0  0  0  0  0  0  0
    6.6518   70.5324   67.5287 H   0  0  0  0  0  0  0  0  0  0  0  0
    2.7005   68.8024   64.9654 H   0  0  0  0  0  0  0  0  0  0  0  0
    2.2100   70.1767   69.9153 H   0  0  0  0  0  0  0  0  0  0  0  0
    4.7734   70.5487   69.6221 H   0  0  0  0  0  0  0  0  0  0  0  0
    4.2465   69.7901   62.8163 H   0  0  0  0  0  0  0  0  0  0  0  0
    5.9499   69.3010   63.0552 H   0  0  0  0  0  0  0  0  0  0  0  0
    2.4153   69.5914   62.3103 H   0  0  0  0  0  0  0  0  0  0  0  0
    3.4904   68.9807   61.0074 H   0  0  0  0  0  0  0  0  0  0  0  0
    1.7462   68.5516   61.0074 H   0  0  0  0  0  0  0  0  0  0  0  0
    2.2466   67.5356   63.2238 H   0  0  0  0  0  0  0  0  0  0  0  0
    0.2289   69.7700   68.2397 H   0  0  0  0  0  0  0  0  0  0  0  0
    0.6396   69.8132   66.4707 H   0  0  0  0  0  0  0  0  0  0  0  0
    1.4426   67.3633   66.8390 H   0  0  0  0  0  0  0  0  0  0  0  0
    0.4249   67.4556   68.3446 H   0  0  0  0  0  0  0  0  0  0  0  0
   -0.3981   66.7962   65.8656 H   0  0  0  0  0  0  0  0  0  0  0  0
   -1.4212   69.5395   66.3775 H   0  0  0  0  0  0  0  0  0  0  0  0
   -0.2831   69.0671   65.0705 H   0  0  0  0  0  0  0  0  0  0  0  0
   -1.9639   68.4332   65.0705 H   0  0  0  0  0  0  0  0  0  0  0  0
   -1.5593   67.1137   68.4145 H   0  0  0  0  0  0  0  0  0  0  0  0
   -2.7221   67.5483   67.1162 H   0  0  0  0  0  0  0  0  0  0  0  0
   -1.9389   65.9317   67.1162 H   0  0  0  0  0  0  0  0  0  0  0  0
  2  1  2  0
  3  2  1  0
  4  3  2  0
  5  4  1  0
  6  5  2  0
  6  1  1  0
  7  5  1  0
  8  7  2  0
  9  4  1  0
  9  8  1  0
 10  1  1  0
 11 10  1  0
 12 11  2  0
 13 11  2  0
 15 14  1  0
 15 11  1  0
 16  7  1  0
 17 16  1  0
 18 17  1  0
 19 18  1  0
 20 18  1  0
  2 21  1  0
  3 22  1  0
  6 23  1  0
  8 24  1  0
  9 25  1  0
 10 26  1  0
 10 27  1  0
 14 28  1  0
 14 29  1  0
 14 30  1  0
 15 31  1  0
 16 32  1  0
 16 33  1  0
 17 34  1  0
 17 35  1  0
 18 36  1  0
 19 37  1  0
 19 38  1  0
 19 39  1  0
 20 40  1  0
 20 41  1  0
 20 42  1  0
M  CHG  1  18   1
M  END
>  <score>  (2) 
-8.46

$$$$
=
     RDKit          3D

 42 43  0  0  0  0  0  0  0  0999 V2000
    2.9530   69.4530   66.9050 C   0  0  0  0  0  0  0  0  0  0  0  0
    4.2220   69.8500   67.3390 C   0  0  0  0  0  0  0  0  0  0  0  0
    5.3140   69.8900   66.4650 C   0  0  0  0  0  0  0  0  0  0  0  0
    5.1050   69.4780   65.1450 C   0  0  0  0  0  0  0  0  0  0  0  0
    3.8630   69.0610   64.6750 C   0  0  0  0  0  0  0  0  0  0  0  0
    2.7660   69.0920   65.5580 C   0  0  0  0  0  0  0  0  0  0  0  0
    4.0360   68.6310   63.3210 C   0  0  0  0  0  0  0  0  0  0  0  0
    5.3570   68.8750   62.9920 C   0  0  0  0  0  0  0  0  0  0  0  0
    5.9840   69.4060   64.0900 N   0  0  0  0  0  0  0  0  0  0  0  0
    1.7960   69.3940   67.8760 C   0  0  0  0  0  0  0  0  0  0  0  0
    1.2020   67.6880   67.9510 S   0  0  0  0  0  6  0  0  0  0  0  0
    1.3230   67.1690   69.2950 O   0  0  0  0  0  0  0  0  0  0  0  0
    1.7520   66.9470   66.8280 O   0  0  0  0  0  0  0  0  0  0  0  0
   -0.8350   68.9760   66.7430 C   0  0  0  0  0  0  0  0  0  0  0  0
   -0.4310   67.8660   67.6090 N   0  0  0  0  0  0  0  0  0  0  0  0
    3.0040   67.9970   62.4410 C   0  0  0  0  0  0  0  0  0  0  0  0
    2.2350   69.0360   61.6070 C   0  0  0  0  0  0  0  0  0  0  0  0
    0.7280   68.8400   61.6780 N   0  0  0  0  0  4  0  0  0  0  0  0
   -0.0180   69.9300   60.9660 C   0  0  0  0  0  0  0  0  0  0  0  0
    0.2150   68.6530   63.0780 C   0  0  0  0  0  0  0  0  0  0  0  0
    4.3648   70.1373   68.3912 H   0  0  0  0  0  0  0  0  0  0  0  0
    6.3024   70.2335   66.8043 H   0  0  0  0  0  0  0  0  0  0  0  0
    1.7608   68.8334   65.1937 H   0  0  0  0  0  0  0  0  0  0  0  0
    5.8248   68.6770   62.0163 H   0  0  0  0  0  0  0  0  0  0  0  0
    6.9687   69.7067   64.1200 H   0  0  0  0  0  0  0  0  0  0  0  0
    2.1310   69.7151   68.8733 H   0  0  0  0  0  0  0  0  0  0  0  0
    0.9879   70.0617   67.5427 H   0  0  0  0  0  0  0  0  0  0  0  0
   -1.1459   69.8301   67.3626 H   0  0  0  0  0  0  0  0  0  0  0  0
    0.0127   69.2730   66.1080 H   0  0  0  0  0  0  0  0  0  0  0  0
   -1.6753   68.6586   66.1080 H   0  0  0  0  0  0  0  0  0  0  0  0
   -0.9210   67.9843   68.5072 H   0  0  0  0  0  0  0  0  0  0  0  0
    3.5039   67.2942   61.7582 H   0  0  0  0  0  0  0  0  0  0  0  0
    2.2800   67.4797   63.0877 H   0  0  0  0  0  0  0  0  0  0  0  0
    2.4782   70.0405   61.9835 H   0  0  0  0  0  0  0  0  0  0  0  0
    2.5390   68.9131   60.5570 H   0  0  0  0  0  0  0  0  0  0  0  0
    0.5442   67.9564   61.1817 H   0  0  0  0  0  0  0  0  0  0  0  0
   -0.4782   70.6024   61.7049 H   0  0  0  0  0  0  0  0  0  0  0  0
    0.6799   70.5006   60.3356 H   0  0  0  0  0  0  0  0  0  0  0  0
   -0.8025   69.4860   60.3356 H   0  0  0  0  0  0  0  0  0  0  0  0
    0.9976   68.9383   63.7964 H   0  0  0  0  0  0  0  0  0  0  0  0
   -0.6717   69.2857   63.2312 H   0  0  0  0  0  0  0  0  0  0  0  0
   -0.0565   67.5981   63.2312 H   0  0  0  0  0  0  0  0  0  0  0  0
  2  1  2  0
  3  2  1  0
  4  3  2  0
  5  4  1  0
  6  5  2  0
  6  1  1  0
  7  5  1  0
  8  7  2  0
  9  4  1  0
  9  8  1  0
 10  1  1  0
 11 10  1  0
 12 11  2  0
 13 11  2  0
 15 14  1  0
 15 11  1  0
 16  7  1  0
 17 16  1  0
 18 17  1  0
 19 18  1  0
 20 18  1  0
  2 21  1  0
  3 22  1  0
  6 23  1  0
  8 24  1  0
  9 25  1  0
 10 26  1  0
 10 27  1  0
 14 28  1  0
 14 29  1  0
 14 30  1  0
 15 31  1  0
 16 32  1  0
 16 33  1  0
 17 34  1  0
 17 35  1  0
 18 36  1  0
 19 37  1  0
 19 38  1  0
 19 39  1  0
 20 40  1  0
 20 41  1  0
 20 42  1  0
M  CHG  1  18   1
M  END
>  <score>  (3) 
-8.305

$$$$
=
     RDKit          3D

 42 43  0  0  0  0  0  0  0  0999 V2000
    5.0170   69.6590   66.0960 C   0  0  0  0  0  0  0  0  0  0  0  0
    5.2680   69.5170   64.7270 C   0  0  0  0  0  0  0  0  0  0  0  0
    4.2450   69.1980   63.8270 C   0  0  0  0  0  0  0  0  0  0  0  0
    2.9650   68.9820   64.3460 C   0  0  0  0  0  0  0  0  0  0  0  0
    2.6750   69.0960   65.7030 C   0  0  0  0  0  0  0  0  0  0  0  0
    3.7080   69.4820   66.5800 C   0  0  0  0  0  0  0  0  0  0  0  0
    1.3060   68.7210   65.8840 C   0  0  0  0  0  0  0  0  0  0  0  0
    0.7930   68.4680   64.6260 C   0  0  0  0  0  0  0  0  0  0  0  0
    1.7940   68.6500   63.7070 N   0  0  0  0  0  0  0  0  0  0  0  0
    6.1440   69.9780   67.0510 C   0  0  0  0  0  0  0  0  0  0  0  0
    5.5110   71.0910   68.3270 S   0  0  0  0  0  6  0  0  0  0  0  0
    4.1610   70.7270   68.6920 O   0  0  0  0  0  0  0  0  0  0  0  0
    5.8260   72.4610   67.9570 O   0  0  0  0  0  0  0  0  0  0  0  0
    7.9120   71.1620   69.5520 C   0  0  0  0  0  0  0  0  0  0  0  0
    6.5110   70.7420   69.6290 N   0  0  0  0  0  0  0  0  0  0  0  0
    0.5780   68.5830   67.1850 C   0  0  0  0  0  0  0  0  0  0  0  0
   -0.7010   69.4350   67.2280 C   0  0  0  0  0  0  0  0  0  0  0  0
   -1.9660   68.5930   67.1480 N   0  0  0  0  0  4  0  0  0  0  0  0
   -1.7100   67.1530   67.4870 C   0  0  0  0  0  0  0  0  0  0  0  0
   -2.6870   68.7230   65.8360 C   0  0  0  0  0  0  0  0  0  0  0  0
    6.2915   69.6592   64.3500 H   0  0  0  0  0  0  0  0  0  0  0  0
    4.4414   69.1198   62.7475 H   0  0  0  0  0  0  0  0  0  0  0  0
    3.4904   69.6454   67.6458 H   0  0  0  0  0  0  0  0  0  0  0  0
   -0.2419   68.1712   64.4005 H   0  0  0  0  0  0  0  0  0  0  0  0
    1.6847   68.5523   62.6875 H   0  0  0  0  0  0  0  0  0  0  0  0
    6.5114   69.0509   67.5153 H   0  0  0  0  0  0  0  0  0  0  0  0
    6.9744   70.4555   66.5103 H   0  0  0  0  0  0  0  0  0  0  0  0
    8.3150   71.2828   70.5684 H   0  0  0  0  0  0  0  0  0  0  0  0
    8.4945   70.3990   69.0149 H   0  0  0  0  0  0  0  0  0  0  0  0
    7.9787   72.1196   69.0149 H   0  0  0  0  0  0  0  0  0  0  0  0
    6.5042   69.7198   69.7550 H   0  0  0  0  0  0  0  0  0  0  0  0
    0.3052   67.5270   67.3280 H   0  0  0  0  0  0  0  0  0  0  0  0
    1.2458   68.9358   67.9847 H   0  0  0  0  0  0  0  0  0  0  0  0
   -0.7146   70.0033   68.1697 H   0  0  0  0  0  0  0  0  0  0  0  0
   -0.6877   70.1016   66.3531 H   0  0  0  0  0  0  0  0  0  0  0  0
   -2.5961   68.9784   67.8659 H   0  0  0  0  0  0  0  0  0  0  0  0
   -1.6885   67.0319   68.5801 H   0  0  0  0  0  0  0  0  0  0  0  0
   -2.5113   66.5288   67.0646 H   0  0  0  0  0  0  0  0  0  0  0  0
   -0.7427   66.8432   67.0646 H   0  0  0  0  0  0  0  0  0  0  0  0
   -3.7540   68.9154   66.0215 H   0  0  0  0  0  0  0  0  0  0  0  0
   -2.2580   69.5583   65.2630 H   0  0  0  0  0  0  0  0  0  0  0  0
   -2.5767   67.7905   65.2630 H   0  0  0  0  0  0  0  0  0  0  0  0
  2  1  2  0
  3  2  1  0
  4  3  2  0
  5  4  1  0
  6  5  2  0
  6  1  1  0
  7  5  1  0
  8  7  2  0
  9  4  1  0
  9  8  1  0
 10  1  1  0
 11 10  1  0
 12 11  2  0
 13 11  2  0
 15 14  1  0
 15 11  1  0
 16  7  1  0
 17 16  1  0
 18 17  1  0
 19 18  1  0
 20 18  1  0
  2 21  1  0
  3 22  1  0
  6 23  1  0
  8 24  1  0
  9 25  1  0
 10 26  1  0
 10 27  1  0
 14 28  1  0
 14 29  1  0
 14 30  1  0
 15 31  1  0
 16 32  1  0
 16 33  1  0
 17 34  1  0
 17 35  1  0
 18 36  1  0
 19 37  1  0
 19 38  1  0
 19 39  1  0
 20 40  1  0
 20 41  1  0
 20 42  1  0
M  CHG  1  18   1
M  END
>  <score>  (4) 
-8.281

$$$$
=
     RDKit          3D

 42 43  0  0  0  0  0  0  0  0999 V2000
    1.4210   68.9440   66.1390 C   0  0  0  0  0  0  0  0  0  0  0  0
    1.0370   68.8560   64.7960 C   0  0  0  0  0  0  0  0  0  0  0  0
    1.9810   68.8880   63.7630 C   0  0  0  0  0  0  0  0  0  0  0  0
    3.3240   69.0530   64.1140 C   0  0  0  0  0  0  0  0  0  0  0  0
    3.7480   69.1610   65.4360 C   0  0  0  0  0  0  0  0  0  0  0  0
    2.7860   69.0610   66.4590 C   0  0  0  0  0  0  0  0  0  0  0  0
    5.1580   69.4080   65.4170 C   0  0  0  0  0  0  0  0  0  0  0  0
    5.5520   69.3650   64.0930 C   0  0  0  0  0  0  0  0  0  0  0  0
    4.4440   69.1280   63.3200 N   0  0  0  0  0  0  0  0  0  0  0  0
    0.3810   68.9350   67.2340 C   0  0  0  0  0  0  0  0  0  0  0  0
   -0.5330   67.3780   67.1390 S   0  0  0  0  0  6  0  0  0  0  0  0
    0.0610   66.5020   66.1530 O   0  0  0  0  0  0  0  0  0  0  0  0
   -1.9560   67.6680   67.0980 O   0  0  0  0  0  0  0  0  0  0  0  0
    1.0530   66.9250   69.2710 C   0  0  0  0  0  0  0  0  0  0  0  0
   -0.2590   66.7120   68.6540 N   0  0  0  0  0  0  0  0  0  0  0  0
    6.0330   69.7040   66.5960 C   0  0  0  0  0  0  0  0  0  0  0  0
    6.0210   71.1950   66.9680 C   0  0  0  0  0  0  0  0  0  0  0  0
    5.9400   71.4210   68.4700 N   0  0  0  0  0  4  0  0  0  0  0  0
    7.1630   70.9240   69.1840 C   0  0  0  0  0  0  0  0  0  0  0  0
    4.6860   70.8700   69.0900 C   0  0  0  0  0  0  0  0  0  0  0  0
   -0.0301   68.7596   64.5468 H   0  0  0  0  0  0  0  0  0  0  0  0
    1.6764   68.7868   62.7109 H   0  0  0  0  0  0  0  0  0  0  0  0
    3.1027   69.0744   67.5123 H   0  0  0  0  0  0  0  0  0  0  0  0
    6.5791   69.4981   63.7223 H   0  0  0  0  0  0  0  0  0  0  0  0
    4.4501   69.0218   62.2955 H   0  0  0  0  0  0  0  0  0  0  0  0
    0.8729   69.0180   68.2144 H   0  0  0  0  0  0  0  0  0  0  0  0
   -0.3060   69.7851   67.1101 H   0  0  0  0  0  0  0  0  0  0  0  0
    0.9503   66.9083   70.3661 H   0  0  0  0  0  0  0  0  0  0  0  0
    1.7407   66.1267   68.9550 H   0  0  0  0  0  0  0  0  0  0  0  0
    1.4529   67.8998   68.9550 H   0  0  0  0  0  0  0  0  0  0  0  0
   -0.3972   65.6947   68.5711 H   0  0  0  0  0  0  0  0  0  0  0  0
    5.6756   69.1210   67.4576 H   0  0  0  0  0  0  0  0  0  0  0  0
    7.0644   69.4311   66.3281 H   0  0  0  0  0  0  0  0  0  0  0  0
    6.9438   71.6599   66.5908 H   0  0  0  0  0  0  0  0  0  0  0  0
    5.1259   71.6451   66.5140 H   0  0  0  0  0  0  0  0  0  0  0  0
    5.8988   72.4432   68.5900 H   0  0  0  0  0  0  0  0  0  0  0  0
    7.0047   70.9883   70.2706 H   0  0  0  0  0  0  0  0  0  0  0  0
    7.3522   69.8776   68.9023 H   0  0  0  0  0  0  0  0  0  0  0  0
    8.0285   71.5418   68.9023 H   0  0  0  0  0  0  0  0  0  0  0  0
    4.7717   70.9077   70.1860 H   0  0  0  0  0  0  0  0  0  0  0  0
    3.8231   71.4719   68.7688 H   0  0  0  0  0  0  0  0  0  0  0  0
    4.5457   69.8273   68.7688 H   0  0  0  0  0  0  0  0  0  0  0  0
  2  1  2  0
  3  2  1  0
  4  3  2  0
  5  4  1  0
  6  5  2  0
  6  1  1  0
  7  5  1  0
  8  7  2  0
  9  4  1  0
  9  8  1  0
 10  1  1  0
 11 10  1  0
 12 11  2  0
 13 11  2  0
 15 14  1  0
 15 11  1  0
 16  7  1  0
 17 16  1  0
 18 17  1  0
 19 18  1  0
 20 18  1  0
  2 21  1  0
  3 22  1  0
  6 23  1  0
  8 24  1  0
  9 25  1  0
 10 26  1  0
 10 27  1  0
 14 28  1  0
 14 29  1  0
 14 30  1  0
 15 31  1  0
 16 32  1  0
 16 33  1  0
 17 34  1  0
 17 35  1  0
 18 36  1  0
 19 37  1  0
 19 38  1  0
 19 39  1  0
 20 40  1  0
 20 41  1  0
 20 42  1  0
M  CHG  1  18   1
M  END
>  <score>  (5) 
-8.152

$$$$
=
     RDKit          3D

 42 43  0  0  0  0  0  0  0  0999 V2000
    1.9690   68.6360   63.0140 C   0  0  0  0  0  0  0  0  0  0  0  0
    0.7780   68.6710   62.2790 C   0  0  0  0  0  0  0  0  0  0  0  0
   -0.4660   68.7810   62.9110 C   0  0  0  0  0  0  0  0  0  0  0  0
   -0.4860   68.8140   64.3080 C   0  0  0  0  0  0  0  0  0  0  0  0
    0.6740   68.7650   65.0780 C   0  0  0  0  0  0  0  0  0  0  0  0
    1.9160   68.7200   64.4170 C   0  0  0  0  0  0  0  0  0  0  0  0
    0.2760   68.7270   66.4530 C   0  0  0  0  0  0  0  0  0  0  0  0
   -1.1020   68.8320   66.4720 C   0  0  0  0  0  0  0  0  0  0  0  0
   -1.5470   68.9060   65.1770 N   0  0  0  0  0  0  0  0  0  0  0  0
    3.2970   68.4900   62.3090 C   0  0  0  0  0  0  0  0  0  0  0  0
    4.2430   67.1920   63.1390 S   0  0  0  0  0  6  0  0  0  0  0  0
    4.9490   66.3830   62.1720 O   0  0  0  0  0  0  0  0  0  0  0  0
    3.4010   66.5640   64.1440 O   0  0  0  0  0  0  0  0  0  0  0  0
    5.4520   69.5190   63.7610 C   0  0  0  0  0  0  0  0  0  0  0  0
    5.3780   68.0760   64.0020 N   0  0  0  0  0  0  0  0  0  0  0  0
    1.1720   68.5600   67.6410 C   0  0  0  0  0  0  0  0  0  0  0  0
    1.7490   69.8990   68.1260 C   0  0  0  0  0  0  0  0  0  0  0  0
    3.2450   69.8290   68.3900 N   0  0  0  0  0  4  0  0  0  0  0  0
    3.7180   70.9450   69.2750 C   0  0  0  0  0  0  0  0  0  0  0  0
    4.0690   69.7420   67.1360 C   0  0  0  0  0  0  0  0  0  0  0  0
    0.8208   68.6108   61.1815 H   0  0  0  0  0  0  0  0  0  0  0  0
   -1.3967   68.8395   62.3277 H   0  0  0  0  0  0  0  0  0  0  0  0
    2.8484   68.7506   64.9998 H   0  0  0  0  0  0  0  0  0  0  0  0
   -1.7339   68.8527   67.3722 H   0  0  0  0  0  0  0  0  0  0  0  0
   -2.5321   69.0146   64.8966 H   0  0  0  0  0  0  0  0  0  0  0  0
    3.1310   68.2141   61.2572 H   0  0  0  0  0  0  0  0  0  0  0  0
    3.8494   69.4407   62.3422 H   0  0  0  0  0  0  0  0  0  0  0  0
    5.4793   70.0506   64.7236 H   0  0  0  0  0  0  0  0  0  0  0  0
    6.3631   69.7490   63.1892 H   0  0  0  0  0  0  0  0  0  0  0  0
    4.5692   69.8410   63.1892 H   0  0  0  0  0  0  0  0  0  0  0  0
    6.3041   67.6810   63.7845 H   0  0  0  0  0  0  0  0  0  0  0  0
    0.5940   68.1061   68.4595 H   0  0  0  0  0  0  0  0  0  0  0  0
    2.0138   67.9184   67.3414 H   0  0  0  0  0  0  0  0  0  0  0  0
    1.5623   70.6626   67.3566 H   0  0  0  0  0  0  0  0  0  0  0  0
    1.2542   70.1509   69.0756 H   0  0  0  0  0  0  0  0  0  0  0  0
    3.3906   68.9437   68.8960 H   0  0  0  0  0  0  0  0  0  0  0  0
    3.5949   70.6546   70.3288 H   0  0  0  0  0  0  0  0  0  0  0  0
    4.7798   71.1487   69.0724 H   0  0  0  0  0  0  0  0  0  0  0  0
    3.1259   71.8497   69.0724 H   0  0  0  0  0  0  0  0  0  0  0  0
    5.1305   69.6299   67.4018 H   0  0  0  0  0  0  0  0  0  0  0  0
    3.7455   68.8730   66.5442 H   0  0  0  0  0  0  0  0  0  0  0  0
    3.9341   70.6594   66.5442 H   0  0  0  0  0  0  0  0  0  0  0  0
  2  1  2  0
  3  2  1  0
  4  3  2  0
  5  4  1  0
  6  5  2  0
  6  1  1  0
  7  5  1  0
  8  7  2  0
  9  4  1  0
  9  8  1  0
 10  1  1  0
 11 10  1  0
 12 11  2  0
 13 11  2  0
 15 14  1  0
 15 11  1  0
 16  7  1  0
 17 16  1  0
 18 17  1  0
 19 18  1  0
 20 18  1  0
  2 21  1  0
  3 22  1  0
  6 23  1  0
  8 24  1  0
  9 25  1  0
 10 26  1  0
 10 27  1  0
 14 28  1  0
 14 29  1  0
 14 30  1  0
 15 31  1  0
 16 32  1  0
 16 33  1  0
 17 34  1  0
 17 35  1  0
 18 36  1  0
 19 37  1  0
 19 38  1  0
 19 39  1  0
 20 40  1  0
 20 41  1  0
 20 42  1  0
M  CHG  1  18   1
M  END
>  <score>  (6) 
-7.34

$$$$
=
     RDKit          3D

 42 43  0  0  0  0  0  0  0  0999 V2000
    2.4900   68.5730   64.3050 C   0  0  0  0  0  0  0  0  0  0  0  0
    1.2790   68.1390   64.8560 C   0  0  0  0  0  0  0  0  0  0  0  0
    0.9810   68.3380   66.2090 C   0  0  0  0  0  0  0  0  0  0  0  0
    1.9520   68.9500   67.0060 C   0  0  0  0  0  0  0  0  0  0  0  0
    3.1760   69.3820   66.5020 C   0  0  0  0  0  0  0  0  0  0  0  0
    3.4260   69.2300   65.1250 C   0  0  0  0  0  0  0  0  0  0  0  0
    3.9470   69.8720   67.6050 C   0  0  0  0  0  0  0  0  0  0  0  0
    3.1380   69.7910   68.7230 C   0  0  0  0  0  0  0  0  0  0  0  0
    1.9330   69.2560   68.3460 N   0  0  0  0  0  0  0  0  0  0  0  0
    2.8000   68.3230   62.8470 C   0  0  0  0  0  0  0  0  0  0  0  0
    4.3290   67.3650   62.7450 S   0  0  0  0  0  6  0  0  0  0  0  0
    5.4760   68.2160   62.9700 O   0  0  0  0  0  0  0  0  0  0  0  0
    4.2720   66.5080   61.5720 O   0  0  0  0  0  0  0  0  0  0  0  0
    4.1050   64.8910   63.7940 C   0  0  0  0  0  0  0  0  0  0  0  0
    4.1870   66.3300   64.0580 N   0  0  0  0  0  0  0  0  0  0  0  0
    5.3690   70.3380   67.5680 C   0  0  0  0  0  0  0  0  0  0  0  0
    5.7650   71.0970   68.8440 C   0  0  0  0  0  0  0  0  0  0  0  0
    7.0840   70.6120   69.4260 N   0  0  0  0  0  4  0  0  0  0  0  0
    6.9700   70.2750   70.8840 C   0  0  0  0  0  0  0  0  0  0  0  0
    8.2300   71.5510   69.1720 C   0  0  0  0  0  0  0  0  0  0  0  0
    0.5460   67.6308   64.2123 H   0  0  0  0  0  0  0  0  0  0  0  0
    0.0150   68.0233   66.6307 H   0  0  0  0  0  0  0  0  0  0  0  0
    4.3552   69.6257   64.6890 H   0  0  0  0  0  0  0  0  0  0  0  0
    3.4138   70.1025   69.7413 H   0  0  0  0  0  0  0  0  0  0  0  0
    1.1312   69.1055   68.9747 H   0  0  0  0  0  0  0  0  0  0  0  0
    1.9769   67.7594   62.3835 H   0  0  0  0  0  0  0  0  0  0  0  0
    2.9171   69.2793   62.3161 H   0  0  0  0  0  0  0  0  0  0  0  0
    4.0739   64.3444   64.7481 H   0  0  0  0  0  0  0  0  0  0  0  0
    3.1931   64.6753   63.2179 H   0  0  0  0  0  0  0  0  0  0  0  0
    4.9865   64.5731   63.2179 H   0  0  0  0  0  0  0  0  0  0  0  0
    3.3326   66.5971   64.5675 H   0  0  0  0  0  0  0  0  0  0  0  0
    6.0259   69.4625   67.4585 H   0  0  0  0  0  0  0  0  0  0  0  0
    5.4760   71.0280   66.7180 H   0  0  0  0  0  0  0  0  0  0  0  0
    5.8577   72.1664   68.6036 H   0  0  0  0  0  0  0  0  0  0  0  0
    4.9823   70.9172   69.5957 H   0  0  0  0  0  0  0  0  0  0  0  0
    7.3025   69.7428   68.9184 H   0  0  0  0  0  0  0  0  0  0  0  0
    7.2650   71.1471   71.4861 H   0  0  0  0  0  0  0  0  0  0  0  0
    5.9299   70.0033   71.1173 H   0  0  0  0  0  0  0  0  0  0  0  0
    7.6315   69.4277   71.1173 H   0  0  0  0  0  0  0  0  0  0  0  0
    8.6451   71.8911   70.1322 H   0  0  0  0  0  0  0  0  0  0  0  0
    9.0110   71.0298   68.5990 H   0  0  0  0  0  0  0  0  0  0  0  0
    7.8725   72.4192   68.5990 H   0  0  0  0  0  0  0  0  0  0  0  0
  2  1  2  0
  3  2  1  0
  4  3  2  0
  5  4  1  0
  6  5  2  0
  6  1  1  0
  7  5  1  0
  8  7  2  0
  9  4  1  0
  9  8  1  0
 10  1  1  0
 11 10  1  0
 12 11  2  0
 13 11  2  0
 15 14  1  0
 15 11  1  0
 16  7  1  0
 17 16  1  0
 18 17  1  0
 19 18  1  0
 20 18  1  0
  2 21  1  0
  3 22  1  0
  6 23  1  0
  8 24  1  0
  9 25  1  0
 10 26  1  0
 10 27  1  0
 14 28  1  0
 14 29  1  0
 14 30  1  0
 15 31  1  0
 16 32  1  0
 16 33  1  0
 17 34  1  0
 17 35  1  0
 18 36  1  0
 19 37  1  0
 19 38  1  0
 19 39  1  0
 20 40  1  0
 20 41  1  0
 20 42  1  0
M  CHG  1  18   1
M  END
>  <score>  (7) 
-7.244

$$$$
=
     RDKit          3D

 42 43  0  0  0  0  0  0  0  0999 V2000
    2.1810   68.7950   65.4210 C   0  0  0  0  0  0  0  0  0  0  0  0
    1.0890   68.7990   64.5450 C   0  0  0  0  0  0  0  0  0  0  0  0
   -0.1730   68.3500   64.9490 C   0  0  0  0  0  0  0  0  0  0  0  0
   -0.3020   67.8560   66.2500 C   0  0  0  0  0  0  0  0  0  0  0  0
    0.7610   67.8180   67.1490 C   0  0  0  0  0  0  0  0  0  0  0  0
    2.0050   68.3350   66.7390 C   0  0  0  0  0  0  0  0  0  0  0  0
    0.2960   67.1730   68.3390 C   0  0  0  0  0  0  0  0  0  0  0  0
   -1.0490   66.9130   68.1510 C   0  0  0  0  0  0  0  0  0  0  0  0
   -1.4020   67.3490   66.9000 N   0  0  0  0  0  0  0  0  0  0  0  0
    3.5390   69.2600   64.9520 C   0  0  0  0  0  0  0  0  0  0  0  0
    4.2490   67.9750   63.8960 S   0  0  0  0  0  6  0  0  0  0  0  0
    3.3600   66.8380   63.8150 O   0  0  0  0  0  0  0  0  0  0  0  0
    5.6450   67.7890   64.2540 O   0  0  0  0  0  0  0  0  0  0  0  0
    3.0570   68.6620   61.5780 C   0  0  0  0  0  0  0  0  0  0  0  0
    4.2710   68.7230   62.3940 N   0  0  0  0  0  0  0  0  0  0  0  0
    1.1130   66.8070   69.5390 C   0  0  0  0  0  0  0  0  0  0  0  0
    0.3940   65.7930   70.4440 C   0  0  0  0  0  0  0  0  0  0  0  0
    0.9000   64.3720   70.2430 N   0  0  0  0  0  4  0  0  0  0  0  0
    0.1590   63.3820   71.0940 C   0  0  0  0  0  0  0  0  0  0  0  0
    2.3870   64.2370   70.4200 C   0  0  0  0  0  0  0  0  0  0  0  0
    1.2262   69.1633   63.5162 H   0  0  0  0  0  0  0  0  0  0  0  0
   -1.0345   68.3846   64.2658 H   0  0  0  0  0  0  0  0  0  0  0  0
    2.8419   68.3794   67.4515 H   0  0  0  0  0  0  0  0  0  0  0  0
   -1.7210   66.4375   68.8806 H   0  0  0  0  0  0  0  0  0  0  0  0
   -2.3522   67.3033   66.5051 H   0  0  0  0  0  0  0  0  0  0  0  0
    3.4350   70.1945   64.3811 H   0  0  0  0  0  0  0  0  0  0  0  0
    4.1946   69.4442   65.8159 H   0  0  0  0  0  0  0  0  0  0  0  0
    2.1756   68.6177   62.2347 H   0  0  0  0  0  0  0  0  0  0  0  0
    2.9965   69.5582   60.9431 H   0  0  0  0  0  0  0  0  0  0  0  0
    3.0867   67.7642   60.9431 H   0  0  0  0  0  0  0  0  0  0  0  0
    5.0294   68.2905   61.8475 H   0  0  0  0  0  0  0  0  0  0  0  0
    2.0631   66.3681   69.2002 H   0  0  0  0  0  0  0  0  0  0  0  0
    1.2813   67.7226   70.1249 H   0  0  0  0  0  0  0  0  0  0  0  0
    0.5557   66.0800   71.4935 H   0  0  0  0  0  0  0  0  0  0  0  0
   -0.6739   65.8081   70.1808 H   0  0  0  0  0  0  0  0  0  0  0  0
    0.7034   64.1492   69.2568 H   0  0  0  0  0  0  0  0  0  0  0  0
    0.3303   63.6109   72.1562 H   0  0  0  0  0  0  0  0  0  0  0  0
   -0.9172   63.4430   70.8747 H   0  0  0  0  0  0  0  0  0  0  0  0
    0.5209   62.3666   70.8747 H   0  0  0  0  0  0  0  0  0  0  0  0
    2.6280   64.2151   71.4930 H   0  0  0  0  0  0  0  0  0  0  0  0
    2.7292   63.3041   69.9482 H   0  0  0  0  0  0  0  0  0  0  0  0
    2.8916   65.0930   69.9482 H   0  0  0  0  0  0  0  0  0  0  0  0
  2  1  2  0
  3  2  1  0
  4  3  2  0
  5  4  1  0
  6  5  2  0
  6  1  1  0
  7  5  1  0
  8  7  2  0
  9  4  1  0
  9  8  1  0
 10  1  1  0
 11 10  1  0
 12 11  2  0
 13 11  2  0
 15 14  1  0
 15 11  1  0
 16  7  1  0
 17 16  1  0
 18 17  1  0
 19 18  1  0
 20 18  1  0
  2 21  1  0
  3 22  1  0
  6 23  1  0
  8 24  1  0
  9 25  1  0
 10 26  1  0
 10 27  1  0
 14 28  1  0
 14 29  1  0
 14 30  1  0
 15 31  1  0
 16 32  1  0
 16 33  1  0
 17 34  1  0
 17 35  1  0
 18 36  1  0
 19 37  1  0
 19 38  1  0
 19 39  1  0
 20 40  1  0
 20 41  1  0
 20 42  1  0
M  CHG  1  18   1
M  END
>  <score>  (8) 
-7.085

$$$$
=
     RDKit          3D

 42 43  0  0  0  0  0  0  0  0999 V2000
    2.6480   62.8990   70.5740 C   0  0  0  0  0  0  0  0  0  0  0  0
    3.2650   62.6270   69.3470 C   0  0  0  0  0  0  0  0  0  0  0  0
    3.6200   61.3240   68.9810 C   0  0  0  0  0  0  0  0  0  0  0  0
    3.3760   60.3010   69.9020 C   0  0  0  0  0  0  0  0  0  0  0  0
    2.7800   60.5290   71.1390 C   0  0  0  0  0  0  0  0  0  0  0  0
    2.3730   61.8390   71.4570 C   0  0  0  0  0  0  0  0  0  0  0  0
    2.7690   59.2850   71.8480 C   0  0  0  0  0  0  0  0  0  0  0  0
    3.2870   58.3340   70.9890 C   0  0  0  0  0  0  0  0  0  0  0  0
    3.6280   58.9520   69.8140 N   0  0  0  0  0  0  0  0  0  0  0  0
    2.2980   64.3180   70.9560 C   0  0  0  0  0  0  0  0  0  0  0  0
    0.4970   64.4670   71.0100 S   0  0  0  0  0  6  0  0  0  0  0  0
    0.0090   64.2220   72.3480 O   0  0  0  0  0  0  0  0  0  0  0  0
   -0.0690   63.7480   69.8810 O   0  0  0  0  0  0  0  0  0  0  0  0
    1.1310   66.7100   69.6570 C   0  0  0  0  0  0  0  0  0  0  0  0
    0.2660   66.0920   70.6630 N   0  0  0  0  0  0  0  0  0  0  0  0
    2.3280   59.0610   73.2610 C   0  0  0  0  0  0  0  0  0  0  0  0
    3.5160   58.9550   74.2300 C   0  0  0  0  0  0  0  0  0  0  0  0
    3.5300   57.6390   74.9940 N   0  0  0  0  0  4  0  0  0  0  0  0
    2.2580   56.8640   74.8110 C   0  0  0  0  0  0  0  0  0  0  0  0
    3.8670   57.7970   76.4500 C   0  0  0  0  0  0  0  0  0  0  0  0
    3.4753   63.4561   68.6553 H   0  0  0  0  0  0  0  0  0  0  0  0
    4.0753   61.1119   68.0024 H   0  0  0  0  0  0  0  0  0  0  0  0
    1.8386   62.0340   72.3985 H   0  0  0  0  0  0  0  0  0  0  0  0
    3.4055   57.2631   71.2107 H   0  0  0  0  0  0  0  0  0  0  0  0
    4.0159   58.4761   68.9870 H   0  0  0  0  0  0  0  0  0  0  0  0
    2.7199   64.5513   71.9447 H   0  0  0  0  0  0  0  0  0  0  0  0
    2.7134   65.0211   70.2191 H   0  0  0  0  0  0  0  0  0  0  0  0
    1.9277   67.2792   70.1583 H   0  0  0  0  0  0  0  0  0  0  0  0
    1.5798   65.9268   69.0283 H   0  0  0  0  0  0  0  0  0  0  0  0
    0.5356   67.3884   69.0283 H   0  0  0  0  0  0  0  0  0  0  0  0
    0.3963   66.6142   71.5412 H   0  0  0  0  0  0  0  0  0  0  0  0
    1.6918   59.9030   73.5713 H   0  0  0  0  0  0  0  0  0  0  0  0
    1.7776   58.1092   73.2961 H   0  0  0  0  0  0  0  0  0  0  0  0
    4.4494   59.0383   73.6540 H   0  0  0  0  0  0  0  0  0  0  0  0
    3.4205   59.7672   74.9656 H   0  0  0  0  0  0  0  0  0  0  0  0
    4.2953   57.0903   74.5768 H   0  0  0  0  0  0  0  0  0  0  0  0
    1.8392   56.6088   75.7956 H   0  0  0  0  0  0  0  0  0  0  0  0
    1.5339   57.4745   74.2516 H   0  0  0  0  0  0  0  0  0  0  0  0
    2.4685   55.9405   74.2516 H   0  0  0  0  0  0  0  0  0  0  0  0
    3.0395   57.4090   77.0621 H   0  0  0  0  0  0  0  0  0  0  0  0
    4.7854   57.2356   76.6768 H   0  0  0  0  0  0  0  0  0  0  0  0
    4.0228   58.8620   76.6768 H   0  0  0  0  0  0  0  0  0  0  0  0
  2  1  2  0
  3  2  1  0
  4  3  2  0
  5  4  1  0
  6  5  2  0
  6  1  1  0
  7  5  1  0
  8  7  2  0
  9  4  1  0
  9  8  1  0
 10  1  1  0
 11 10  1  0
 12 11  2  0
 13 11  2  0
 15 14  1  0
 15 11  1  0
 16  7  1  0
 17 16  1  0
 18 17  1  0
 19 18  1  0
 20 18  1  0
  2 21  1  0
  3 22  1  0
  6 23  1  0
  8 24  1  0
  9 25  1  0
 10 26  1  0
 10 27  1  0
 14 28  1  0
 14 29  1  0
 14 30  1  0
 15 31  1  0
 16 32  1  0
 16 33  1  0
 17 34  1  0
 17 35  1  0
 18 36  1  0
 19 37  1  0
 19 38  1  0
 19 39  1  0
 20 40  1  0
 20 41  1  0
 20 42  1  0
M  CHG  1  18   1
M  END
>  <score>  (9) 
-6.995

$$$$
