=
     RDKit          3D

 56 59  0  0  0  0  0  0  0  0999 V2000
    1.4990   67.1880   69.3660 C   0  0  0  0  0  0  0  0  0  0  0  0
    1.1890   65.9640   70.2510 C   0  0  0  0  0  0  0  0  0  0  0  0
   -0.0460   65.1780   69.7880 C   0  0  0  0  0  0  0  0  0  0  0  0
   -0.1530   63.8720   70.5600 C   0  0  0  0  0  0  0  0  0  0  0  0
    1.0220   62.9740   70.2450 N   0  0  0  0  0  4  0  0  0  0  0  0
    2.2700   63.6940   69.7760 C   0  0  0  0  0  0  0  0  0  0  0  0
    2.4110   65.0460   70.4590 C   0  0  0  0  0  0  0  0  0  0  0  0
    1.2740   61.9800   71.3640 C   0  0  0  0  0  0  0  0  0  0  0  0
    2.7020   61.5080   71.4190 C   0  0  0  0  0  0  0  0  0  0  0  0
    3.5420   61.8950   72.4740 C   0  0  0  0  0  0  0  0  0  0  0  0
    4.8720   61.4740   72.5100 C   0  0  0  0  0  0  0  0  0  0  0  0
    5.3750   60.6610   71.4970 C   0  0  0  0  0  0  0  0  0  0  0  0
    4.5490   60.2630   70.4480 C   0  0  0  0  0  0  0  0  0  0  0  0
    3.2180   60.6820   70.4080 C   0  0  0  0  0  0  0  0  0  0  0  0
    0.3980   67.5780   68.3710 C   0  0  0  0  0  0  0  0  0  0  0  0
    4.0840   69.1570   64.7330 C   0  0  0  0  0  0  0  0  0  0  0  0
    3.0080   68.4270   64.2110 C   0  0  0  0  0  0  0  0  0  0  0  0
    2.0430   68.0080   65.1240 C   0  0  0  0  0  0  0  0  0  0  0  0
    0.9260   67.2880   64.8320 O   0  0  0  0  0  0  0  0  0  0  0  0
    0.2060   67.0570   65.9940 N   0  0  0  0  0  0  0  0  0  0  0  0
    0.9040   67.6460   66.9740 C   0  0  0  0  0  0  0  0  0  0  0  0
    2.0810   68.2640   66.4810 C   0  0  0  0  0  0  0  0  0  0  0  0
    3.1590   68.9960   67.0000 C   0  0  0  0  0  0  0  0  0  0  0  0
    4.1640   69.4430   66.1150 C   0  0  0  0  0  0  0  0  0  0  0  0
    5.3270   70.2310   66.6610 C   0  0  0  0  0  0  0  0  0  0  0  0
    5.6550   68.8000   62.9670 C   0  0  0  0  0  0  0  0  0  0  0  0
    5.1200   69.6470   63.9770 O   0  0  0  0  0  0  0  0  0  0  0  0
    1.6783   68.0482   70.0277 H   0  0  0  0  0  0  0  0  0  0  0  0
    2.3715   66.9081   68.7574 H   0  0  0  0  0  0  0  0  0  0  0  0
    0.9374   66.3811   71.2373 H   0  0  0  0  0  0  0  0  0  0  0  0
   -0.9488   65.7808   69.9657 H   0  0  0  0  0  0  0  0  0  0  0  0
    0.0498   64.9555   68.7150 H   0  0  0  0  0  0  0  0  0  0  0  0
   -0.1644   64.0886   71.6384 H   0  0  0  0  0  0  0  0  0  0  0  0
   -1.0813   63.3599   70.2667 H   0  0  0  0  0  0  0  0  0  0  0  0
    0.7442   62.4328   69.4139 H   0  0  0  0  0  0  0  0  0  0  0  0
    3.1504   63.0784   70.0125 H   0  0  0  0  0  0  0  0  0  0  0  0
    2.1927   63.8569   68.6909 H   0  0  0  0  0  0  0  0  0  0  0  0
    2.5435   64.8800   71.5383 H   0  0  0  0  0  0  0  0  0  0  0  0
    3.2784   65.5504   70.0081 H   0  0  0  0  0  0  0  0  0  0  0  0
    1.0261   62.4602   72.3221 H   0  0  0  0  0  0  0  0  0  0  0  0
    0.6431   61.0998   71.1712 H   0  0  0  0  0  0  0  0  0  0  0  0
    3.1495   62.5346   73.2783 H   0  0  0  0  0  0  0  0  0  0  0  0
    5.5241   61.7847   73.3396 H   0  0  0  0  0  0  0  0  0  0  0  0
    6.4246   60.3331   71.5252 H   0  0  0  0  0  0  0  0  0  0  0  0
    4.9461   59.6179   69.6504 H   0  0  0  0  0  0  0  0  0  0  0  0
    2.5693   60.3629   69.5789 H   0  0  0  0  0  0  0  0  0  0  0  0
   -0.4063   66.8293   68.4207 H   0  0  0  0  0  0  0  0  0  0  0  0
    0.0309   68.5775   68.6470 H   0  0  0  0  0  0  0  0  0  0  0  0
    2.9295   68.1972   63.1381 H   0  0  0  0  0  0  0  0  0  0  0  0
    3.2202   69.2175   68.0757 H   0  0  0  0  0  0  0  0  0  0  0  0
    5.2989   70.2120   67.7605 H   0  0  0  0  0  0  0  0  0  0  0  0
    6.2692   69.7845   66.3105 H   0  0  0  0  0  0  0  0  0  0  0  0
    5.2617   71.2716   66.3105 H   0  0  0  0  0  0  0  0  0  0  0  0
    6.1861   67.9592   63.4370 H   0  0  0  0  0  0  0  0  0  0  0  0
    4.8369   68.4133   62.3415 H   0  0  0  0  0  0  0  0  0  0  0  0
    6.3556   69.3726   62.3415 H   0  0  0  0  0  0  0  0  0  0  0  0
  2  1  1  0
  3  2  1  0
  4  3  1  0
  5  4  1  0
  6  5  1  0
  7  6  1  0
  7  2  1  0
  8  5  1  0
  9  8  1  0
 10  9  2  0
 11 10  1  0
 12 11  2  0
 13 12  1  0
 14 13  2  0
 14  9  1  0
 15  1  1  0
 17 16  2  0
 18 17  1  0
 19 18  1  0
 20 19  1  0
 21 20  2  0
 21 15  1  0
 22 18  2  0
 22 21  1  0
 23 22  1  0
 24 16  1  0
 24 23  2  0
 25 24  1  0
 27 16  1  0
 27 26  1  0
  1 28  1  0
  1 29  1  0
  2 30  1  0
  3 31  1  0
  3 32  1  0
  4 33  1  0
  4 34  1  0
  5 35  1  0
  6 36  1  0
  6 37  1  0
  7 38  1  0
  7 39  1  0
  8 40  1  0
  8 41  1  0
 10 42  1  0
 11 43  1  0
 12 44  1  0
 13 45  1  0
 14 46  1  0
 15 47  1  0
 15 48  1  0
 17 49  1  0
 23 50  1  0
 25 51  1  0
 25 52  1  0
 25 53  1  0
 26 54  1  0
 26 55  1  0
 26 56  1  0
M  CHG  1   5   1
M  END
>  <score>  (1) 
-10.275

$$$$
=
     RDKit          3D

 56 59  0  0  0  0  0  0  0  0999 V2000
    0.2660   66.1970   70.1680 C   0  0  0  0  0  0  0  0  0  0  0  0
    1.0060   65.1460   71.0190 C   0  0  0  0  0  0  0  0  0  0  0  0
    0.0680   64.1010   71.6420 C   0  0  0  0  0  0  0  0  0  0  0  0
    0.8800   62.9790   72.2690 C   0  0  0  0  0  0  0  0  0  0  0  0
    1.6500   62.2270   71.2080 N   0  0  0  0  0  4  0  0  0  0  0  0
    1.9490   63.0200   69.9520 C   0  0  0  0  0  0  0  0  0  0  0  0
    2.1850   64.4870   70.2740 C   0  0  0  0  0  0  0  0  0  0  0  0
    2.8650   61.5320   71.7950 C   0  0  0  0  0  0  0  0  0  0  0  0
    2.7540   60.0310   71.7660 C   0  0  0  0  0  0  0  0  0  0  0  0
    1.9480   59.3560   72.6950 C   0  0  0  0  0  0  0  0  0  0  0  0
    1.8660   57.9630   72.6800 C   0  0  0  0  0  0  0  0  0  0  0  0
    2.5850   57.2320   71.7370 C   0  0  0  0  0  0  0  0  0  0  0  0
    3.3820   57.8900   70.8040 C   0  0  0  0  0  0  0  0  0  0  0  0
    3.4670   59.2830   70.8150 C   0  0  0  0  0  0  0  0  0  0  0  0
    1.1640   67.1960   69.4260 C   0  0  0  0  0  0  0  0  0  0  0  0
    2.4110   68.6310   64.3570 C   0  0  0  0  0  0  0  0  0  0  0  0
    1.1740   67.9880   64.5060 C   0  0  0  0  0  0  0  0  0  0  0  0
    0.8260   67.6090   65.8000 C   0  0  0  0  0  0  0  0  0  0  0  0
   -0.3200   66.9740   66.1660 O   0  0  0  0  0  0  0  0  0  0  0  0
   -0.3160   66.7570   67.5350 N   0  0  0  0  0  0  0  0  0  0  0  0
    0.8410   67.2700   67.9760 C   0  0  0  0  0  0  0  0  0  0  0  0
    1.6070   67.8220   66.9190 C   0  0  0  0  0  0  0  0  0  0  0  0
    2.8440   68.4670   66.7660 C   0  0  0  0  0  0  0  0  0  0  0  0
    3.2420   68.8700   65.4740 C   0  0  0  0  0  0  0  0  0  0  0  0
    4.5690   69.5630   65.2970 C   0  0  0  0  0  0  0  0  0  0  0  0
    2.1870   68.7300   61.9780 C   0  0  0  0  0  0  0  0  0  0  0  0
    2.9090   69.0710   63.1560 O   0  0  0  0  0  0  0  0  0  0  0  0
   -0.3380   65.6631   69.4195 H   0  0  0  0  0  0  0  0  0  0  0  0
   -0.3301   66.7931   70.8746 H   0  0  0  0  0  0  0  0  0  0  0  0
    1.4400   65.7122   71.8563 H   0  0  0  0  0  0  0  0  0  0  0  0
   -0.5483   64.5809   72.4165 H   0  0  0  0  0  0  0  0  0  0  0  0
   -0.5780   63.6826   70.8561 H   0  0  0  0  0  0  0  0  0  0  0  0
    1.5872   63.4060   72.9954 H   0  0  0  0  0  0  0  0  0  0  0  0
    0.1943   62.2818   72.7727 H   0  0  0  0  0  0  0  0  0  0  0  0
    1.0128   61.4922   70.8689 H   0  0  0  0  0  0  0  0  0  0  0  0
    2.8494   62.6080   69.4729 H   0  0  0  0  0  0  0  0  0  0  0  0
    1.0834   62.9453   69.2773 H   0  0  0  0  0  0  0  0  0  0  0  0
    3.0836   64.5660   70.9035 H   0  0  0  0  0  0  0  0  0  0  0  0
    2.3015   65.0158   69.3165 H   0  0  0  0  0  0  0  0  0  0  0  0
    3.7524   61.8293   71.2170 H   0  0  0  0  0  0  0  0  0  0  0  0
    2.9414   61.8364   72.8493 H   0  0  0  0  0  0  0  0  0  0  0  0
    1.3767   59.9288   73.4404 H   0  0  0  0  0  0  0  0  0  0  0  0
    1.2331   57.4418   73.4134 H   0  0  0  0  0  0  0  0  0  0  0  0
    2.5230   56.1338   71.7295 H   0  0  0  0  0  0  0  0  0  0  0  0
    3.9454   57.3112   70.0573 H   0  0  0  0  0  0  0  0  0  0  0  0
    4.0963   59.7982   70.0743 H   0  0  0  0  0  0  0  0  0  0  0  0
    1.0284   68.1929   69.8708 H   0  0  0  0  0  0  0  0  0  0  0  0
    2.2046   66.8531   69.5238 H   0  0  0  0  0  0  0  0  0  0  0  0
    0.5143   67.7935   63.6475 H   0  0  0  0  0  0  0  0  0  0  0  0
    3.4903   68.6546   67.6361 H   0  0  0  0  0  0  0  0  0  0  0  0
    4.9997   69.7879   66.2839 H   0  0  0  0  0  0  0  0  0  0  0  0
    5.2536   68.9073   64.7390 H   0  0  0  0  0  0  0  0  0  0  0  0
    4.4220   70.4995   64.7390 H   0  0  0  0  0  0  0  0  0  0  0  0
    1.2247   68.2755   62.2564 H   0  0  0  0  0  0  0  0  0  0  0  0
    2.0055   69.6376   61.3835 H   0  0  0  0  0  0  0  0  0  0  0  0
    2.7727   68.0133   61.3835 H   0  0  0  0  0  0  0  0  0  0  0  0
  2  1  1  0
  3  2  1  0
  4  3  1  0
  5  4  1  0
  6  5  1  0
  7  6  1  0
  7  2  1  0
  8  5  1  0
  9  8  1  0
 10  9  2  0
 11 10  1  0
 12 11  2  0
 13 12  1  0
 14 13  2  0
 14  9  1  0
 15  1  1  0
 17 16  2  0
 18 17  1  0
 19 18  1  0
 20 19  1  0
 21 20  2  0
 21 15  1  0
 22 18  2  0
 22 21  1  0
 23 22  1  0
 24 16  1  0
 24 23  2  0
 25 24  1  0
 27 16  1  0
 27 26  1  0
  1 28  1  0
  1 29  1  0
  2 30  1  0
  3 31  1  0
  3 32  1  0
  4 33  1  0
  4 34  1  0
  5 35  1  0
  6 36  1  0
  6 37  1  0
  7 38  1  0
  7 39  1  0
  8 40  1  0
  8 41  1  0
 10 42  1  0
 11 43  1  0
 12 44  1  0
 13 45  1  0
 14 46  1  0
 15 47  1  0
 15 48  1  0
 17 49  1  0
 23 50  1  0
 25 51  1  0
 25 52  1  0
 25 53  1  0
 26 54  1  0
 26 55  1  0
 26 56  1  0
M  CHG  1   5   1
M  END
>  <score>  (2) 
-10.262

$$$$
=
     RDKit          3D

 56 59  0  0  0  0  0  0  0  0999 V2000
   -0.5930   66.2710   69.5040 C   0  0  0  0  0  0  0  0  0  0  0  0
    0.2540   66.7480   68.3080 C   0  0  0  0  0  0  0  0  0  0  0  0
   -0.4420   67.8270   67.4650 C   0  0  0  0  0  0  0  0  0  0  0  0
    0.5320   68.4080   66.4520 C   0  0  0  0  0  0  0  0  0  0  0  0
    1.6580   69.1300   67.1560 N   0  0  0  0  0  4  0  0  0  0  0  0
    1.9350   68.6600   68.5700 C   0  0  0  0  0  0  0  0  0  0  0  0
    1.6830   67.1660   68.7080 C   0  0  0  0  0  0  0  0  0  0  0  0
    2.8980   69.2040   66.2840 C   0  0  0  0  0  0  0  0  0  0  0  0
    4.0880   69.7810   67.0020 C   0  0  0  0  0  0  0  0  0  0  0  0
    3.9510   70.3270   68.2870 C   0  0  0  0  0  0  0  0  0  0  0  0
    5.0520   70.8820   68.9410 C   0  0  0  0  0  0  0  0  0  0  0  0
    6.2990   70.8950   68.3190 C   0  0  0  0  0  0  0  0  0  0  0  0
    6.4500   70.3490   67.0470 C   0  0  0  0  0  0  0  0  0  0  0  0
    5.3510   69.7930   66.3900 C   0  0  0  0  0  0  0  0  0  0  0  0
    0.1720   66.0790   70.8190 C   0  0  0  0  0  0  0  0  0  0  0  0
    3.6170   61.9090   71.0690 C   0  0  0  0  0  0  0  0  0  0  0  0
    2.2950   61.6100   71.4240 C   0  0  0  0  0  0  0  0  0  0  0  0
    1.3860   62.6640   71.3680 C   0  0  0  0  0  0  0  0  0  0  0  0
    0.0620   62.5940   71.6720 O   0  0  0  0  0  0  0  0  0  0  0  0
   -0.5210   63.8400   71.5010 N   0  0  0  0  0  0  0  0  0  0  0  0
    0.4670   64.6460   71.0920 C   0  0  0  0  0  0  0  0  0  0  0  0
    1.7010   63.9550   70.9920 C   0  0  0  0  0  0  0  0  0  0  0  0
    3.0260   64.2500   70.6360 C   0  0  0  0  0  0  0  0  0  0  0  0
    3.9850   63.2160   70.6770 C   0  0  0  0  0  0  0  0  0  0  0  0
    5.4110   63.5220   70.2970 C   0  0  0  0  0  0  0  0  0  0  0  0
    4.6090   59.9700   72.0560 C   0  0  0  0  0  0  0  0  0  0  0  0
    4.6400   60.9920   71.0680 O   0  0  0  0  0  0  0  0  0  0  0  0
   -1.3841   67.0154   69.6775 H   0  0  0  0  0  0  0  0  0  0  0  0
   -0.9734   65.2766   69.2276 H   0  0  0  0  0  0  0  0  0  0  0  0
    0.3548   65.8645   67.6606 H   0  0  0  0  0  0  0  0  0  0  0  0
   -1.2953   67.3797   66.9341 H   0  0  0  0  0  0  0  0  0  0  0  0
   -0.7936   68.6309   68.1284 H   0  0  0  0  0  0  0  0  0  0  0  0
    0.9494   67.5932   65.8423 H   0  0  0  0  0  0  0  0  0  0  0  0
   -0.0046   69.1234   65.8115 H   0  0  0  0  0  0  0  0  0  0  0  0
    1.3253   70.0947   67.2961 H   0  0  0  0  0  0  0  0  0  0  0  0
    2.9849   68.8722   68.8203 H   0  0  0  0  0  0  0  0  0  0  0  0
    1.2597   69.1937   69.2550 H   0  0  0  0  0  0  0  0  0  0  0  0
    2.3963   66.6309   68.0639 H   0  0  0  0  0  0  0  0  0  0  0  0
    1.8111   66.9112   69.7704 H   0  0  0  0  0  0  0  0  0  0  0  0
    3.1507   68.1878   65.9470 H   0  0  0  0  0  0  0  0  0  0  0  0
    2.6676   69.8710   65.4402 H   0  0  0  0  0  0  0  0  0  0  0  0
    2.9690   70.3176   68.7826 H   0  0  0  0  0  0  0  0  0  0  0  0
    4.9354   71.3093   69.9479 H   0  0  0  0  0  0  0  0  0  0  0  0
    7.1650   71.3371   68.8335 H   0  0  0  0  0  0  0  0  0  0  0  0
    7.4361   70.3558   66.5595 H   0  0  0  0  0  0  0  0  0  0  0  0
    5.4757   69.3614   65.3859 H   0  0  0  0  0  0  0  0  0  0  0  0
    1.1214   66.6316   70.7608 H   0  0  0  0  0  0  0  0  0  0  0  0
   -0.4603   66.4560   71.6364 H   0  0  0  0  0  0  0  0  0  0  0  0
    1.9915   60.5980   71.7303 H   0  0  0  0  0  0  0  0  0  0  0  0
    3.3113   65.2676   70.3309 H   0  0  0  0  0  0  0  0  0  0  0  0
    6.0136   63.6513   71.2081 H   0  0  0  0  0  0  0  0  0  0  0  0
    5.8185   62.6909   69.7028 H   0  0  0  0  0  0  0  0  0  0  0  0
    5.4417   64.4472   69.7028 H   0  0  0  0  0  0  0  0  0  0  0  0
    4.6229   60.4268   73.0566 H   0  0  0  0  0  0  0  0  0  0  0  0
    3.6923   59.3735   71.9379 H   0  0  0  0  0  0  0  0  0  0  0  0
    5.4878   59.3190   71.9379 H   0  0  0  0  0  0  0  0  0  0  0  0
  2  1  1  0
  3  2  1  0
  4  3  1  0
  5  4  1  0
  6  5  1  0
  7  6  1  0
  7  2  1  0
  8  5  1  0
  9  8  1  0
 10  9  2  0
 11 10  1  0
 12 11  2  0
 13 12  1  0
 14 13  2  0
 14  9  1  0
 15  1  1  0
 17 16  2  0
 18 17  1  0
 19 18  1  0
 20 19  1  0
 21 20  2  0
 21 15  1  0
 22 18  2  0
 22 21  1  0
 23 22  1  0
 24 16  1  0
 24 23  2  0
 25 24  1  0
 27 16  1  0
 27 26  1  0
  1 28  1  0
  1 29  1  0
  2 30  1  0
  3 31  1  0
  3 32  1  0
  4 33  1  0
  4 34  1  0
  5 35  1  0
  6 36  1  0
  6 37  1  0
  7 38  1  0
  7 39  1  0
  8 40  1  0
  8 41  1  0
 10 42  1  0
 11 43  1  0
 12 44  1  0
 13 45  1  0
 14 46  1  0
 15 47  1  0
 15 48  1  0
 17 49  1  0
 23 50  1  0
 25 51  1  0
 25 52  1  0
 25 53  1  0
 26 54  1  0
 26 55  1  0
 26 56  1  0
M  CHG  1   5   1
M  END
>  <score>  (3) 
-9.782

$$$$
=
     RDKit          3D

 56 59  0  0  0  0  0  0  0  0999 V2000
    0.9670   66.7600   70.2680 C   0  0  0  0  0  0  0  0  0  0  0  0
    0.7130   66.8110   68.7480 C   0  0  0  0  0  0  0  0  0  0  0  0
   -0.7760   66.9080   68.3850 C   0  0  0  0  0  0  0  0  0  0  0  0
   -0.9340   67.1830   66.8980 C   0  0  0  0  0  0  0  0  0  0  0  0
   -0.3590   68.5370   66.5480 N   0  0  0  0  0  4  0  0  0  0  0  0
    0.7130   69.0410   67.4930 C   0  0  0  0  0  0  0  0  0  0  0  0
    1.5500   67.8920   68.0330 C   0  0  0  0  0  0  0  0  0  0  0  0
    0.0340   68.6090   65.0840 C   0  0  0  0  0  0  0  0  0  0  0  0
    1.4340   68.1190   64.8270 C   0  0  0  0  0  0  0  0  0  0  0  0
    2.4920   69.0280   64.6740 C   0  0  0  0  0  0  0  0  0  0  0  0
    3.7850   68.5720   64.4130 C   0  0  0  0  0  0  0  0  0  0  0  0
    4.0340   67.2050   64.3050 C   0  0  0  0  0  0  0  0  0  0  0  0
    2.9940   66.2920   64.4620 C   0  0  0  0  0  0  0  0  0  0  0  0
    1.7000   66.7450   64.7240 C   0  0  0  0  0  0  0  0  0  0  0  0
   -0.1000   66.0270   71.0910 C   0  0  0  0  0  0  0  0  0  0  0  0
    3.0470   61.6260   70.8670 C   0  0  0  0  0  0  0  0  0  0  0  0
    2.2810   61.7510   72.0340 C   0  0  0  0  0  0  0  0  0  0  0  0
    1.4600   62.8740   72.1180 C   0  0  0  0  0  0  0  0  0  0  0  0
    0.6420   63.1880   73.1590 O   0  0  0  0  0  0  0  0  0  0  0  0
   -0.0170   64.3780   72.8890 N   0  0  0  0  0  0  0  0  0  0  0  0
    0.4170   64.7630   71.6810 C   0  0  0  0  0  0  0  0  0  0  0  0
    1.3580   63.8480   71.1450 C   0  0  0  0  0  0  0  0  0  0  0  0
    2.1260   63.7190   69.9770 C   0  0  0  0  0  0  0  0  0  0  0  0
    2.9740   62.5990   69.8440 C   0  0  0  0  0  0  0  0  0  0  0  0
    3.8030   62.4510   68.5950 C   0  0  0  0  0  0  0  0  0  0  0  0
    4.5240   59.9600   71.7370 C   0  0  0  0  0  0  0  0  0  0  0  0
    3.9070   60.5850   70.6180 O   0  0  0  0  0  0  0  0  0  0  0  0
    1.9297   66.2545   70.4341 H   0  0  0  0  0  0  0  0  0  0  0  0
    0.9498   67.8045   70.6126 H   0  0  0  0  0  0  0  0  0  0  0  0
    1.0618   65.8395   68.3678 H   0  0  0  0  0  0  0  0  0  0  0  0
   -1.2739   65.9594   68.6346 H   0  0  0  0  0  0  0  0  0  0  0  0
   -1.2326   67.7312   68.9541 H   0  0  0  0  0  0  0  0  0  0  0  0
   -0.4043   66.4059   66.3275 H   0  0  0  0  0  0  0  0  0  0  0  0
   -2.0046   67.1740   66.6454 H   0  0  0  0  0  0  0  0  0  0  0  0
   -1.1250   69.2105   66.6913 H   0  0  0  0  0  0  0  0  0  0  0  0
    1.3683   69.7402   66.9530 H   0  0  0  0  0  0  0  0  0  0  0  0
    0.2240   69.5454   68.3394 H   0  0  0  0  0  0  0  0  0  0  0  0
    2.0821   67.4225   67.1925 H   0  0  0  0  0  0  0  0  0  0  0  0
    2.2414   68.3141   68.7772 H   0  0  0  0  0  0  0  0  0  0  0  0
   -0.6661   67.9914   64.5022 H   0  0  0  0  0  0  0  0  0  0  0  0
   -0.0052   69.6666   64.7840 H   0  0  0  0  0  0  0  0  0  0  0  0
    2.3009   70.1078   64.7604 H   0  0  0  0  0  0  0  0  0  0  0  0
    4.6079   69.2919   64.2925 H   0  0  0  0  0  0  0  0  0  0  0  0
    5.0528   66.8468   64.0956 H   0  0  0  0  0  0  0  0  0  0  0  0
    3.1925   65.2132   64.3795 H   0  0  0  0  0  0  0  0  0  0  0  0
    0.8828   66.0197   64.8507 H   0  0  0  0  0  0  0  0  0  0  0  0
   -0.4352   66.6869   71.9047 H   0  0  0  0  0  0  0  0  0  0  0  0
   -0.9302   65.7706   70.4165 H   0  0  0  0  0  0  0  0  0  0  0  0
    2.3254   61.0035   72.8397 H   0  0  0  0  0  0  0  0  0  0  0  0
    2.0679   64.4761   69.1811 H   0  0  0  0  0  0  0  0  0  0  0  0
    4.8513   62.2638   68.8707 H   0  0  0  0  0  0  0  0  0  0  0  0
    3.4237   61.6064   68.0011 H   0  0  0  0  0  0  0  0  0  0  0  0
    3.7394   63.3747   68.0011 H   0  0  0  0  0  0  0  0  0  0  0  0
    4.1099   60.3795   72.6657 H   0  0  0  0  0  0  0  0  0  0  0  0
    4.3305   58.8776   71.7053 H   0  0  0  0  0  0  0  0  0  0  0  0
    5.6088   60.1396   71.7053 H   0  0  0  0  0  0  0  0  0  0  0  0
  2  1  1  0
  3  2  1  0
  4  3  1  0
  5  4  1  0
  6  5  1  0
  7  6  1  0
  7  2  1  0
  8  5  1  0
  9  8  1  0
 10  9  2  0
 11 10  1  0
 12 11  2  0
 13 12  1  0
 14 13  2  0
 14  9  1  0
 15  1  1  0
 17 16  2  0
 18 17  1  0
 19 18  1  0
 20 19  1  0
 21 20  2  0
 21 15  1  0
 22 18  2  0
 22 21  1  0
 23 22  1  0
 24 16  1  0
 24 23  2  0
 25 24  1  0
 27 16  1  0
 27 26  1  0
  1 28  1  0
  1 29  1  0
  2 30  1  0
  3 31  1  0
  3 32  1  0
  4 33  1  0
  4 34  1  0
  5 35  1  0
  6 36  1  0
  6 37  1  0
  7 38  1  0
  7 39  1  0
  8 40  1  0
  8 41  1  0
 10 42  1  0
 11 43  1  0
 12 44  1  0
 13 45  1  0
 14 46  1  0
 15 47  1  0
 15 48  1  0
 17 49  1  0
 23 50  1  0
 25 51  1  0
 25 52  1  0
 25 53  1  0
 26 54  1  0
 26 55  1  0
 26 56  1  0
M  CHG  1   5   1
M  END
>  <score>  (4) 
-9.624

$$$$
=
     RDKit          3D

 56 59  0  0  0  0  0  0  0  0999 V2000
    0.6950   66.4530   70.2630 C   0  0  0  0  0  0  0  0  0  0  0  0
    0.4760   66.6150   68.7450 C   0  0  0  0  0  0  0  0  0  0  0  0
   -0.9970   66.8180   68.3640 C   0  0  0  0  0  0  0  0  0  0  0  0
   -1.1090   67.1960   66.8960 C   0  0  0  0  0  0  0  0  0  0  0  0
   -0.4540   68.5350   66.6440 N   0  0  0  0  0  4  0  0  0  0  0  0
    0.6240   68.9170   67.6370 C   0  0  0  0  0  0  0  0  0  0  0  0
    1.3860   67.6910   68.1160 C   0  0  0  0  0  0  0  0  0  0  0  0
   -0.0270   68.6770   65.1940 C   0  0  0  0  0  0  0  0  0  0  0  0
    1.3560   68.1460   64.9340 C   0  0  0  0  0  0  0  0  0  0  0  0
    2.4470   69.0210   64.8100 C   0  0  0  0  0  0  0  0  0  0  0  0
    3.7240   68.5250   64.5460 C   0  0  0  0  0  0  0  0  0  0  0  0
    3.9260   67.1540   64.4060 C   0  0  0  0  0  0  0  0  0  0  0  0
    2.8550   66.2750   64.5340 C   0  0  0  0  0  0  0  0  0  0  0  0
    1.5750   66.7650   64.7990 C   0  0  0  0  0  0  0  0  0  0  0  0
    0.3010   65.0900   70.8440 C   0  0  0  0  0  0  0  0  0  0  0  0
    2.4180   60.2160   71.8810 C   0  0  0  0  0  0  0  0  0  0  0  0
    3.2020   61.0430   71.0640 C   0  0  0  0  0  0  0  0  0  0  0  0
    2.6820   62.3040   70.7820 C   0  0  0  0  0  0  0  0  0  0  0  0
    3.2730   63.2580   70.0130 O   0  0  0  0  0  0  0  0  0  0  0  0
    2.4610   64.3800   69.9560 N   0  0  0  0  0  0  0  0  0  0  0  0
    1.3860   64.0830   70.7000 C   0  0  0  0  0  0  0  0  0  0  0  0
    1.4700   62.7780   71.2470 C   0  0  0  0  0  0  0  0  0  0  0  0
    0.6900   61.9470   72.0650 C   0  0  0  0  0  0  0  0  0  0  0  0
    1.1730   60.6590   72.3790 C   0  0  0  0  0  0  0  0  0  0  0  0
    0.3420   59.7580   73.2570 C   0  0  0  0  0  0  0  0  0  0  0  0
    2.9780   57.9840   71.2290 C   0  0  0  0  0  0  0  0  0  0  0  0
    2.7770   58.9450   72.2580 O   0  0  0  0  0  0  0  0  0  0  0  0
    1.7632   66.6141   70.4706 H   0  0  0  0  0  0  0  0  0  0  0  0
    0.0343   67.1892   70.7441 H   0  0  0  0  0  0  0  0  0  0  0  0
    0.7790   65.6519   68.3083 H   0  0  0  0  0  0  0  0  0  0  0  0
   -1.5511   65.8847   68.5428 H   0  0  0  0  0  0  0  0  0  0  0  0
   -1.4196   67.6273   68.9776 H   0  0  0  0  0  0  0  0  0  0  0  0
   -0.6110   66.4285   66.2853 H   0  0  0  0  0  0  0  0  0  0  0  0
   -2.1731   67.2633   66.6255 H   0  0  0  0  0  0  0  0  0  0  0  0
   -1.1847   69.2399   66.8173 H   0  0  0  0  0  0  0  0  0  0  0  0
    1.3274   69.6114   67.1543 H   0  0  0  0  0  0  0  0  0  0  0  0
    0.1460   69.3930   68.5059 H   0  0  0  0  0  0  0  0  0  0  0  0
    1.9092   67.2470   67.2563 H   0  0  0  0  0  0  0  0  0  0  0  0
    2.0839   68.0255   68.8977 H   0  0  0  0  0  0  0  0  0  0  0  0
   -0.7389   68.1245   64.5632 H   0  0  0  0  0  0  0  0  0  0  0  0
   -0.0168   69.7513   64.9576 H   0  0  0  0  0  0  0  0  0  0  0  0
    2.2939   70.1046   64.9217 H   0  0  0  0  0  0  0  0  0  0  0  0
    4.5728   69.2179   64.4482 H   0  0  0  0  0  0  0  0  0  0  0  0
    4.9332   66.7658   64.1940 H   0  0  0  0  0  0  0  0  0  0  0  0
    3.0172   65.1924   64.4262 H   0  0  0  0  0  0  0  0  0  0  0  0
    0.7326   66.0653   64.9028 H   0  0  0  0  0  0  0  0  0  0  0  0
    0.0718   65.2134   71.9128 H   0  0  0  0  0  0  0  0  0  0  0  0
   -0.5742   64.7254   70.2863 H   0  0  0  0  0  0  0  0  0  0  0  0
    4.1740   60.7141   70.6677 H   0  0  0  0  0  0  0  0  0  0  0  0
   -0.2791   62.2928   72.4540 H   0  0  0  0  0  0  0  0  0  0  0  0
    0.5494   59.9828   74.3136 H   0  0  0  0  0  0  0  0  0  0  0  0
   -0.7250   59.9258   73.0490 H   0  0  0  0  0  0  0  0  0  0  0  0
    0.5954   58.7080   73.0490 H   0  0  0  0  0  0  0  0  0  0  0  0
    3.1834   57.0018   71.6796 H   0  0  0  0  0  0  0  0  0  0  0  0
    2.0739   57.9196   70.6058 H   0  0  0  0  0  0  0  0  0  0  0  0
    3.8321   58.2873   70.6058 H   0  0  0  0  0  0  0  0  0  0  0  0
  2  1  1  0
  3  2  1  0
  4  3  1  0
  5  4  1  0
  6  5  1  0
  7  6  1  0
  7  2  1  0
  8  5  1  0
  9  8  1  0
 10  9  2  0
 11 10  1  0
 12 11  2  0
 13 12  1  0
 14 13  2  0
 14  9  1  0
 15  1  1  0
 17 16  2  0
 18 17  1  0
 19 18  1  0
 20 19  1  0
 21 20  2  0
 21 15  1  0
 22 18  2  0
 22 21  1  0
 23 22  1  0
 24 16  1  0
 24 23  2  0
 25 24  1  0
 27 16  1  0
 27 26  1  0
  1 28  1  0
  1 29  1  0
  2 30  1  0
  3 31  1  0
  3 32  1  0
  4 33  1  0
  4 34  1  0
  5 35  1  0
  6 36  1  0
  6 37  1  0
  7 38  1  0
  7 39  1  0
  8 40  1  0
  8 41  1  0
 10 42  1  0
 11 43  1  0
 12 44  1  0
 13 45  1  0
 14 46  1  0
 15 47  1  0
 15 48  1  0
 17 49  1  0
 23 50  1  0
 25 51  1  0
 25 52  1  0
 25 53  1  0
 26 54  1  0
 26 55  1  0
 26 56  1  0
M  CHG  1   5   1
M  END
>  <score>  (5) 
-9.518

$$$$
=
     RDKit          3D

 56 59  0  0  0  0  0  0  0  0999 V2000
    0.3930   66.4800   69.0830 C   0  0  0  0  0  0  0  0  0  0  0  0
    0.9420   65.8340   70.3700 C   0  0  0  0  0  0  0  0  0  0  0  0
   -0.1550   65.4690   71.3800 C   0  0  0  0  0  0  0  0  0  0  0  0
    0.4310   64.6370   72.5100 C   0  0  0  0  0  0  0  0  0  0  0  0
    0.9330   63.3120   71.9850 N   0  0  0  0  0  4  0  0  0  0  0  0
    1.3060   63.3050   70.5160 C   0  0  0  0  0  0  0  0  0  0  0  0
    1.8870   64.6460   70.0940 C   0  0  0  0  0  0  0  0  0  0  0  0
    2.0040   62.7280   72.8890 C   0  0  0  0  0  0  0  0  0  0  0  0
    3.0050   61.8850   72.1470 C   0  0  0  0  0  0  0  0  0  0  0  0
    4.2800   62.3890   71.8460 C   0  0  0  0  0  0  0  0  0  0  0  0
    5.1980   61.6140   71.1370 C   0  0  0  0  0  0  0  0  0  0  0  0
    4.8540   60.3280   70.7240 C   0  0  0  0  0  0  0  0  0  0  0  0
    3.5950   59.8130   71.0230 C   0  0  0  0  0  0  0  0  0  0  0  0
    2.6740   60.5860   71.7330 C   0  0  0  0  0  0  0  0  0  0  0  0
    1.1290   67.7410   68.6120 C   0  0  0  0  0  0  0  0  0  0  0  0
    2.2640   67.7970   63.3180 C   0  0  0  0  0  0  0  0  0  0  0  0
    1.0470   68.3950   63.6710 C   0  0  0  0  0  0  0  0  0  0  0  0
    0.7290   68.3960   65.0280 C   0  0  0  0  0  0  0  0  0  0  0  0
   -0.3980   68.9180   65.5840 O   0  0  0  0  0  0  0  0  0  0  0  0
   -0.3670   68.7320   66.9570 N   0  0  0  0  0  0  0  0  0  0  0  0
    0.7860   68.0990   67.2090 C   0  0  0  0  0  0  0  0  0  0  0  0
    1.5220   67.8570   66.0220 C   0  0  0  0  0  0  0  0  0  0  0  0
    2.7410   67.2610   65.6640 C   0  0  0  0  0  0  0  0  0  0  0  0
    3.1080   67.2340   64.3010 C   0  0  0  0  0  0  0  0  0  0  0  0
    4.4140   66.5950   63.9050 C   0  0  0  0  0  0  0  0  0  0  0  0
    3.0350   68.9240   61.3540 C   0  0  0  0  0  0  0  0  0  0  0  0
    2.7330   67.7090   62.0300 O   0  0  0  0  0  0  0  0  0  0  0  0
    0.4506   65.7331   68.2775 H   0  0  0  0  0  0  0  0  0  0  0  0
   -0.6330   66.7991   69.3188 H   0  0  0  0  0  0  0  0  0  0  0  0
    1.5519   66.6172   70.8438 H   0  0  0  0  0  0  0  0  0  0  0  0
   -0.5894   66.3908   71.7943 H   0  0  0  0  0  0  0  0  0  0  0  0
   -0.9345   64.8845   70.8694 H   0  0  0  0  0  0  0  0  0  0  0  0
    1.2674   65.1856   72.9676 H   0  0  0  0  0  0  0  0  0  0  0  0
   -0.3534   64.4496   73.2581 H   0  0  0  0  0  0  0  0  0  0  0  0
    0.1242   62.6751   72.0195 H   0  0  0  0  0  0  0  0  0  0  0  0
    2.0532   62.5175   70.3385 H   0  0  0  0  0  0  0  0  0  0  0  0
    0.3978   63.1153   69.9250 H   0  0  0  0  0  0  0  0  0  0  0  0
    2.8243   64.8098   70.6460 H   0  0  0  0  0  0  0  0  0  0  0  0
    2.0485   64.6037   69.0067 H   0  0  0  0  0  0  0  0  0  0  0  0
    2.5378   63.5553   73.3796 H   0  0  0  0  0  0  0  0  0  0  0  0
    1.4998   62.0753   73.6168 H   0  0  0  0  0  0  0  0  0  0  0  0
    4.5573   63.4025   72.1716 H   0  0  0  0  0  0  0  0  0  0  0  0
    6.1941   62.0181   70.9037 H   0  0  0  0  0  0  0  0  0  0  0  0
    5.5774   59.7194   70.1615 H   0  0  0  0  0  0  0  0  0  0  0  0
    3.3260   58.7966   70.6996 H   0  0  0  0  0  0  0  0  0  0  0  0
    1.6820   60.1736   71.9694 H   0  0  0  0  0  0  0  0  0  0  0  0
    0.8532   68.5788   69.2693 H   0  0  0  0  0  0  0  0  0  0  0  0
    2.2093   67.5383   68.6551 H   0  0  0  0  0  0  0  0  0  0  0  0
    0.3791   68.8393   62.9183 H   0  0  0  0  0  0  0  0  0  0  0  0
    3.3977   66.8234   66.4303 H   0  0  0  0  0  0  0  0  0  0  0  0
    4.9766   66.3197   64.8093 H   0  0  0  0  0  0  0  0  0  0  0  0
    4.2147   65.6926   63.3083 H   0  0  0  0  0  0  0  0  0  0  0  0
    5.0041   67.3062   63.3083 H   0  0  0  0  0  0  0  0  0  0  0  0
    3.2317   69.7153   62.0924 H   0  0  0  0  0  0  0  0  0  0  0  0
    3.9250   68.7814   60.7235 H   0  0  0  0  0  0  0  0  0  0  0  0
    2.1818   69.2147   60.7235 H   0  0  0  0  0  0  0  0  0  0  0  0
  2  1  1  0
  3  2  1  0
  4  3  1  0
  5  4  1  0
  6  5  1  0
  7  6  1  0
  7  2  1  0
  8  5  1  0
  9  8  1  0
 10  9  2  0
 11 10  1  0
 12 11  2  0
 13 12  1  0
 14 13  2  0
 14  9  1  0
 15  1  1  0
 17 16  2  0
 18 17  1  0
 19 18  1  0
 20 19  1  0
 21 20  2  0
 21 15  1  0
 22 18  2  0
 22 21  1  0
 23 22  1  0
 24 16  1  0
 24 23  2  0
 25 24  1  0
 27 16  1  0
 27 26  1  0
  1 28  1  0
  1 29  1  0
  2 30  1  0
  3 31  1  0
  3 32  1  0
  4 33  1  0
  4 34  1  0
  5 35  1  0
  6 36  1  0
  6 37  1  0
  7 38  1  0
  7 39  1  0
  8 40  1  0
  8 41  1  0
 10 42  1  0
 11 43  1  0
 12 44  1  0
 13 45  1  0
 14 46  1  0
 15 47  1  0
 15 48  1  0
 17 49  1  0
 23 50  1  0
 25 51  1  0
 25 52  1  0
 25 53  1  0
 26 54  1  0
 26 55  1  0
 26 56  1  0
M  CHG  1   5   1
M  END
>  <score>  (6) 
-8.873

$$$$
=
     RDKit          3D

 56 59  0  0  0  0  0  0  0  0999 V2000
    2.3300   61.6140   72.6330 C   0  0  0  0  0  0  0  0  0  0  0  0
    2.0690   63.0740   72.2100 C   0  0  0  0  0  0  0  0  0  0  0  0
    2.7370   63.4480   70.8790 C   0  0  0  0  0  0  0  0  0  0  0  0
    2.2530   64.8140   70.4180 C   0  0  0  0  0  0  0  0  0  0  0  0
    0.7730   64.7740   70.1140 N   0  0  0  0  0  4  0  0  0  0  0  0
   -0.0020   63.6940   70.8420 C   0  0  0  0  0  0  0  0  0  0  0  0
    0.5730   63.4490   72.2280 C   0  0  0  0  0  0  0  0  0  0  0  0
    0.1480   66.1530   70.2240 C   0  0  0  0  0  0  0  0  0  0  0  0
    0.0180   66.8480   68.8950 C   0  0  0  0  0  0  0  0  0  0  0  0
    1.0870   67.5900   68.3700 C   0  0  0  0  0  0  0  0  0  0  0  0
    0.9550   68.2520   67.1480 C   0  0  0  0  0  0  0  0  0  0  0  0
   -0.2420   68.1770   66.4400 C   0  0  0  0  0  0  0  0  0  0  0  0
   -1.3070   67.4370   66.9460 C   0  0  0  0  0  0  0  0  0  0  0  0
   -1.1800   66.7730   68.1680 C   0  0  0  0  0  0  0  0  0  0  0  0
    1.1190   60.6760   72.5470 C   0  0  0  0  0  0  0  0  0  0  0  0
    0.2220   55.6270   74.2820 C   0  0  0  0  0  0  0  0  0  0  0  0
    1.3920   55.7980   73.5300 C   0  0  0  0  0  0  0  0  0  0  0  0
    1.6490   57.0880   73.0720 C   0  0  0  0  0  0  0  0  0  0  0  0
    2.7220   57.4720   72.3270 O   0  0  0  0  0  0  0  0  0  0  0  0
    2.6380   58.8290   72.0580 N   0  0  0  0  0  0  0  0  0  0  0  0
    1.5110   59.2450   72.6500 C   0  0  0  0  0  0  0  0  0  0  0  0
    0.8410   58.1820   73.3070 C   0  0  0  0  0  0  0  0  0  0  0  0
   -0.3300   58.0070   74.0610 C   0  0  0  0  0  0  0  0  0  0  0  0
   -0.6350   56.7180   74.5470 C   0  0  0  0  0  0  0  0  0  0  0  0
   -1.8900   56.5180   75.3580 C   0  0  0  0  0  0  0  0  0  0  0  0
    0.0290   53.2570   74.0290 C   0  0  0  0  0  0  0  0  0  0  0  0
   -0.1840   54.4260   74.8100 O   0  0  0  0  0  0  0  0  0  0  0  0
    3.1197   61.2087   71.9833 H   0  0  0  0  0  0  0  0  0  0  0  0
    2.6080   61.6523   73.6966 H   0  0  0  0  0  0  0  0  0  0  0  0
    2.5558   63.6863   72.9834 H   0  0  0  0  0  0  0  0  0  0  0  0
    3.8283   63.4752   71.0144 H   0  0  0  0  0  0  0  0  0  0  0  0
    2.4731   62.6971   70.1198 H   0  0  0  0  0  0  0  0  0  0  0  0
    2.4400   65.5517   71.2122 H   0  0  0  0  0  0  0  0  0  0  0  0
    2.7973   65.0956   69.5045 H   0  0  0  0  0  0  0  0  0  0  0  0
    0.6996   64.4834   69.1286 H   0  0  0  0  0  0  0  0  0  0  0  0
   -1.0518   64.0081   70.9387 H   0  0  0  0  0  0  0  0  0  0  0  0
    0.0702   62.7613   70.2634 H   0  0  0  0  0  0  0  0  0  0  0  0
    0.4498   64.3652   72.8241 H   0  0  0  0  0  0  0  0  0  0  0  0
    0.0285   62.5968   72.6608 H   0  0  0  0  0  0  0  0  0  0  0  0
   -0.8545   66.0493   70.6648 H   0  0  0  0  0  0  0  0  0  0  0  0
    0.8115   66.7657   70.8520 H   0  0  0  0  0  0  0  0  0  0  0  0
    2.0349   67.6504   68.9248 H   0  0  0  0  0  0  0  0  0  0  0  0
    1.7970   68.8333   66.7440 H   0  0  0  0  0  0  0  0  0  0  0  0
   -0.3460   68.7032   65.4797 H   0  0  0  0  0  0  0  0  0  0  0  0
   -2.2497   67.3752   66.3826 H   0  0  0  0  0  0  0  0  0  0  0  0
   -2.0237   66.1880   68.5629 H   0  0  0  0  0  0  0  0  0  0  0  0
    0.4269   60.9141   73.3682 H   0  0  0  0  0  0  0  0  0  0  0  0
    0.6427   60.8269   71.5670 H   0  0  0  0  0  0  0  0  0  0  0  0
    2.0702   54.9595   73.3133 H   0  0  0  0  0  0  0  0  0  0  0  0
   -0.9962   58.8573   74.2687 H   0  0  0  0  0  0  0  0  0  0  0  0
   -1.6443   56.5572   76.4295 H   0  0  0  0  0  0  0  0  0  0  0  0
   -2.6121   57.3124   75.1181 H   0  0  0  0  0  0  0  0  0  0  0  0
   -2.3294   55.5385   75.1181 H   0  0  0  0  0  0  0  0  0  0  0  0
    0.1860   52.3952   74.6943 H   0  0  0  0  0  0  0  0  0  0  0  0
   -0.8507   53.0748   73.3943 H   0  0  0  0  0  0  0  0  0  0  0  0
    0.9165   53.3968   73.3943 H   0  0  0  0  0  0  0  0  0  0  0  0
  2  1  1  0
  3  2  1  0
  4  3  1  0
  5  4  1  0
  6  5  1  0
  7  6  1  0
  7  2  1  0
  8  5  1  0
  9  8  1  0
 10  9  2  0
 11 10  1  0
 12 11  2  0
 13 12  1  0
 14 13  2  0
 14  9  1  0
 15  1  1  0
 17 16  2  0
 18 17  1  0
 19 18  1  0
 20 19  1  0
 21 20  2  0
 21 15  1  0
 22 18  2  0
 22 21  1  0
 23 22  1  0
 24 16  1  0
 24 23  2  0
 25 24  1  0
 27 16  1  0
 27 26  1  0
  1 28  1  0
  1 29  1  0
  2 30  1  0
  3 31  1  0
  3 32  1  0
  4 33  1  0
  4 34  1  0
  5 35  1  0
  6 36  1  0
  6 37  1  0
  7 38  1  0
  7 39  1  0
  8 40  1  0
  8 41  1  0
 10 42  1  0
 11 43  1  0
 12 44  1  0
 13 45  1  0
 14 46  1  0
 15 47  1  0
 15 48  1  0
 17 49  1  0
 23 50  1  0
 25 51  1  0
 25 52  1  0
 25 53  1  0
 26 54  1  0
 26 55  1  0
 26 56  1  0
M  CHG  1   5   1
M  END
>  <score>  (7) 
-8.669

$$$$
=
     RDKit          3D

 56 59  0  0  0  0  0  0  0  0999 V2000
    1.1860   56.4820   75.0620 C   0  0  0  0  0  0  0  0  0  0  0  0
    2.2360   56.9670   74.0430 C   0  0  0  0  0  0  0  0  0  0  0  0
    1.6800   57.0970   72.6170 C   0  0  0  0  0  0  0  0  0  0  0  0
    2.6960   57.7900   71.7220 C   0  0  0  0  0  0  0  0  0  0  0  0
    2.9220   59.2120   72.1830 N   0  0  0  0  0  4  0  0  0  0  0  0
    2.6260   59.4650   73.6480 C   0  0  0  0  0  0  0  0  0  0  0  0
    2.9690   58.2470   74.4930 C   0  0  0  0  0  0  0  0  0  0  0  0
    4.2780   59.7290   71.7360 C   0  0  0  0  0  0  0  0  0  0  0  0
    4.1820   60.9480   70.8600 C   0  0  0  0  0  0  0  0  0  0  0  0
    4.8960   62.1140   71.1770 C   0  0  0  0  0  0  0  0  0  0  0  0
    4.7870   63.2500   70.3750 C   0  0  0  0  0  0  0  0  0  0  0  0
    3.9670   63.2340   69.2500 C   0  0  0  0  0  0  0  0  0  0  0  0
    3.2580   62.0820   68.9190 C   0  0  0  0  0  0  0  0  0  0  0  0
    3.3650   60.9420   69.7180 C   0  0  0  0  0  0  0  0  0  0  0  0
   -0.1370   55.9890   74.4640 C   0  0  0  0  0  0  0  0  0  0  0  0
   -2.9600   60.6050   74.6720 C   0  0  0  0  0  0  0  0  0  0  0  0
   -3.5080   59.5390   75.4000 C   0  0  0  0  0  0  0  0  0  0  0  0
   -2.8020   58.3390   75.3650 C   0  0  0  0  0  0  0  0  0  0  0  0
   -3.1550   57.1860   75.9950 O   0  0  0  0  0  0  0  0  0  0  0  0
   -2.2130   56.2040   75.7300 N   0  0  0  0  0  0  0  0  0  0  0  0
   -1.3000   56.7850   74.9410 C   0  0  0  0  0  0  0  0  0  0  0  0
   -1.6220   58.1400   74.6740 C   0  0  0  0  0  0  0  0  0  0  0  0
   -1.0770   59.2090   73.9480 C   0  0  0  0  0  0  0  0  0  0  0  0
   -1.7560   60.4460   73.9510 C   0  0  0  0  0  0  0  0  0  0  0  0
   -1.1790   61.6020   73.1740 C   0  0  0  0  0  0  0  0  0  0  0  0
   -4.2020   62.3420   75.7490 C   0  0  0  0  0  0  0  0  0  0  0  0
   -3.5230   61.8550   74.5970 O   0  0  0  0  0  0  0  0  0  0  0  0
    1.6279   55.6539   75.6356 H   0  0  0  0  0  0  0  0  0  0  0  0
    0.9317   57.3599   75.6741 H   0  0  0  0  0  0  0  0  0  0  0  0
    2.9918   56.1684   74.0104 H   0  0  0  0  0  0  0  0  0  0  0  0
    1.4662   56.0949   72.2169 H   0  0  0  0  0  0  0  0  0  0  0  0
    0.7564   57.6939   72.6433 H   0  0  0  0  0  0  0  0  0  0  0  0
    3.6481   57.2406   71.7617 H   0  0  0  0  0  0  0  0  0  0  0  0
    2.3112   57.8061   70.6916 H   0  0  0  0  0  0  0  0  0  0  0  0
    2.2066   59.7773   71.7039 H   0  0  0  0  0  0  0  0  0  0  0  0
    3.2237   60.3217   73.9928 H   0  0  0  0  0  0  0  0  0  0  0  0
    1.5518   59.6752   73.7568 H   0  0  0  0  0  0  0  0  0  0  0  0
    4.0527   58.0703   74.4272 H   0  0  0  0  0  0  0  0  0  0  0  0
    2.6462   58.4628   75.5222 H   0  0  0  0  0  0  0  0  0  0  0  0
    4.8676   59.9844   72.6288 H   0  0  0  0  0  0  0  0  0  0  0  0
    4.7544   58.9342   71.1432 H   0  0  0  0  0  0  0  0  0  0  0  0
    5.5461   62.1321   72.0641 H   0  0  0  0  0  0  0  0  0  0  0  0
    5.3496   64.1597   70.6317 H   0  0  0  0  0  0  0  0  0  0  0  0
    3.8790   64.1326   68.6217 H   0  0  0  0  0  0  0  0  0  0  0  0
    2.6134   62.0702   68.0277 H   0  0  0  0  0  0  0  0  0  0  0  0
    2.8056   60.0332   69.4511 H   0  0  0  0  0  0  0  0  0  0  0  0
   -0.0808   56.0655   73.3681 H   0  0  0  0  0  0  0  0  0  0  0  0
   -0.2857   54.9475   74.7853 H   0  0  0  0  0  0  0  0  0  0  0  0
   -4.4443   59.6448   75.9676 H   0  0  0  0  0  0  0  0  0  0  0  0
   -0.1387   59.0856   73.3873 H   0  0  0  0  0  0  0  0  0  0  0  0
   -0.8000   62.3614   73.8738 H   0  0  0  0  0  0  0  0  0  0  0  0
   -0.3544   61.2429   72.5407 H   0  0  0  0  0  0  0  0  0  0  0  0
   -1.9616   62.0451   72.5407 H   0  0  0  0  0  0  0  0  0  0  0  0
   -3.6948   61.9782   76.6547 H   0  0  0  0  0  0  0  0  0  0  0  0
   -4.1946   63.4419   75.7413 H   0  0  0  0  0  0  0  0  0  0  0  0
   -5.2415   61.9823   75.7413 H   0  0  0  0  0  0  0  0  0  0  0  0
  2  1  1  0
  3  2  1  0
  4  3  1  0
  5  4  1  0
  6  5  1  0
  7  6  1  0
  7  2  1  0
  8  5  1  0
  9  8  1  0
 10  9  2  0
 11 10  1  0
 12 11  2  0
 13 12  1  0
 14 13  2  0
 14  9  1  0
 15  1  1  0
 17 16  2  0
 18 17  1  0
 19 18  1  0
 20 19  1  0
 21 20  2  0
 21 15  1  0
 22 18  2  0
 22 21  1  0
 23 22  1  0
 24 16  1  0
 24 23  2  0
 25 24  1  0
 27 16  1  0
 27 26  1  0
  1 28  1  0
  1 29  1  0
  2 30  1  0
  3 31  1  0
  3 32  1  0
  4 33  1  0
  4 34  1  0
  5 35  1  0
  6 36  1  0
  6 37  1  0
  7 38  1  0
  7 39  1  0
  8 40  1  0
  8 41  1  0
 10 42  1  0
 11 43  1  0
 12 44  1  0
 13 45  1  0
 14 46  1  0
 15 47  1  0
 15 48  1  0
 17 49  1  0
 23 50  1  0
 25 51  1  0
 25 52  1  0
 25 53  1  0
 26 54  1  0
 26 55  1  0
 26 56  1  0
M  CHG  1   5   1
M  END
>  <score>  (8) 
-8.388

$$$$
=
     RDKit          3D

 56 59  0  0  0  0  0  0  0  0999 V2000
   -0.6300   60.0190   73.7620 C   0  0  0  0  0  0  0  0  0  0  0  0
    0.6790   60.4910   73.1000 C   0  0  0  0  0  0  0  0  0  0  0  0
    1.3970   61.5920   73.8940 C   0  0  0  0  0  0  0  0  0  0  0  0
    2.7780   61.8420   73.3080 C   0  0  0  0  0  0  0  0  0  0  0  0
    3.6490   60.6170   73.4670 N   0  0  0  0  0  4  0  0  0  0  0  0
    2.8960   59.3070   73.5830 C   0  0  0  0  0  0  0  0  0  0  0  0
    1.6290   59.3290   72.7420 C   0  0  0  0  0  0  0  0  0  0  0  0
    4.7620   60.5920   72.4350 C   0  0  0  0  0  0  0  0  0  0  0  0
    4.4270   61.3710   71.1920 C   0  0  0  0  0  0  0  0  0  0  0  0
    4.9250   62.6700   71.0070 C   0  0  0  0  0  0  0  0  0  0  0  0
    4.5940   63.3970   69.8630 C   0  0  0  0  0  0  0  0  0  0  0  0
    3.7670   62.8360   68.8930 C   0  0  0  0  0  0  0  0  0  0  0  0
    3.2730   61.5440   69.0600 C   0  0  0  0  0  0  0  0  0  0  0  0
    3.6020   60.8120   70.2030 C   0  0  0  0  0  0  0  0  0  0  0  0
   -0.8900   60.5620   75.1720 C   0  0  0  0  0  0  0  0  0  0  0  0
   -6.2980   60.7000   74.9470 C   0  0  0  0  0  0  0  0  0  0  0  0
   -5.6830   61.9270   75.2300 C   0  0  0  0  0  0  0  0  0  0  0  0
   -4.2920   61.9220   75.2920 C   0  0  0  0  0  0  0  0  0  0  0  0
   -3.5000   62.9970   75.5540 O   0  0  0  0  0  0  0  0  0  0  0  0
   -2.1690   62.6100   75.5360 N   0  0  0  0  0  0  0  0  0  0  0  0
   -2.1800   61.2990   75.2600 C   0  0  0  0  0  0  0  0  0  0  0  0
   -3.5000   60.8070   75.0970 C   0  0  0  0  0  0  0  0  0  0  0  0
   -4.1190   59.5810   74.8140 C   0  0  0  0  0  0  0  0  0  0  0  0
   -5.5270   59.5340   74.7400 C   0  0  0  0  0  0  0  0  0  0  0  0
   -6.2030   58.2210   74.4370 C   0  0  0  0  0  0  0  0  0  0  0  0
   -8.3900   61.4760   74.0860 C   0  0  0  0  0  0  0  0  0  0  0  0
   -7.6560   60.5240   74.8480 O   0  0  0  0  0  0  0  0  0  0  0  0
   -1.4664   60.3309   73.1192 H   0  0  0  0  0  0  0  0  0  0  0  0
   -0.5370   58.9284   73.8709 H   0  0  0  0  0  0  0  0  0  0  0  0
    0.3678   60.9469   72.1485 H   0  0  0  0  0  0  0  0  0  0  0  0
    0.8075   62.5194   73.8450 H   0  0  0  0  0  0  0  0  0  0  0  0
    1.5025   61.2709   74.9408 H   0  0  0  0  0  0  0  0  0  0  0  0
    2.6800   62.0804   72.2386 H   0  0  0  0  0  0  0  0  0  0  0  0
    3.2448   62.6827   73.8421 H   0  0  0  0  0  0  0  0  0  0  0  0
    4.0928   60.7090   74.3919 H   0  0  0  0  0  0  0  0  0  0  0  0
    3.5435   58.4882   73.2362 H   0  0  0  0  0  0  0  0  0  0  0  0
    2.6147   59.1571   74.6358 H   0  0  0  0  0  0  0  0  0  0  0  0
    1.9139   59.4243   71.6838 H   0  0  0  0  0  0  0  0  0  0  0  0
    1.0883   58.3924   72.9429 H   0  0  0  0  0  0  0  0  0  0  0  0
    5.6680   61.0232   72.8857 H   0  0  0  0  0  0  0  0  0  0  0  0
    4.9116   59.5438   72.1368 H   0  0  0  0  0  0  0  0  0  0  0  0
    5.5803   63.1178   71.7686 H   0  0  0  0  0  0  0  0  0  0  0  0
    4.9871   64.4153   69.7270 H   0  0  0  0  0  0  0  0  0  0  0  0
    3.5037   63.4133   67.9945 H   0  0  0  0  0  0  0  0  0  0  0  0
    2.6235   61.1002   68.2911 H   0  0  0  0  0  0  0  0  0  0  0  0
    3.2123   59.7911   70.3292 H   0  0  0  0  0  0  0  0  0  0  0  0
   -0.9147   59.7186   75.8777 H   0  0  0  0  0  0  0  0  0  0  0  0
   -0.0810   61.2655   75.4182 H   0  0  0  0  0  0  0  0  0  0  0  0
   -6.2674   62.8443   75.3942 H   0  0  0  0  0  0  0  0  0  0  0  0
   -3.5184   58.6736   74.6528 H   0  0  0  0  0  0  0  0  0  0  0  0
   -6.4628   57.7163   75.3792 H   0  0  0  0  0  0  0  0  0  0  0  0
   -7.1182   58.4054   73.8553 H   0  0  0  0  0  0  0  0  0  0  0  0
   -5.5212   57.5832   73.8553 H   0  0  0  0  0  0  0  0  0  0  0  0
   -8.9181   62.1610   74.7656 H   0  0  0  0  0  0  0  0  0  0  0  0
   -7.6983   62.0498   73.4517 H   0  0  0  0  0  0  0  0  0  0  0  0
   -9.1209   60.9530   73.4517 H   0  0  0  0  0  0  0  0  0  0  0  0
  2  1  1  0
  3  2  1  0
  4  3  1  0
  5  4  1  0
  6  5  1  0
  7  6  1  0
  7  2  1  0
  8  5  1  0
  9  8  1  0
 10  9  2  0
 11 10  1  0
 12 11  2  0
 13 12  1  0
 14 13  2  0
 14  9  1  0
 15  1  1  0
 17 16  2  0
 18 17  1  0
 19 18  1  0
 20 19  1  0
 21 20  2  0
 21 15  1  0
 22 18  2  0
 22 21  1  0
 23 22  1  0
 24 16  1  0
 24 23  2  0
 25 24  1  0
 27 16  1  0
 27 26  1  0
  1 28  1  0
  1 29  1  0
  2 30  1  0
  3 31  1  0
  3 32  1  0
  4 33  1  0
  4 34  1  0
  5 35  1  0
  6 36  1  0
  6 37  1  0
  7 38  1  0
  7 39  1  0
  8 40  1  0
  8 41  1  0
 10 42  1  0
 11 43  1  0
 12 44  1  0
 13 45  1  0
 14 46  1  0
 15 47  1  0
 15 48  1  0
 17 49  1  0
 23 50  1  0
 25 51  1  0
 25 52  1  0
 25 53  1  0
 26 54  1  0
 26 55  1  0
 26 56  1  0
M  CHG  1   5   1
M  END
>  <score>  (9) 
-8.265

$$$$
