=
     RDKit          3D

 16 16  0  0  0  0  0  0  0  0999 V2000
    3.3930   70.9590   69.5900 O   0  0  0  0  0  0  0  0  0  0  0  0
    4.3730   70.5980   68.9370 C   0  0  0  0  0  0  0  0  0  0  0  0
    5.7680   70.6990   69.5110 C   0  0  0  0  0  0  0  0  0  0  0  0
    6.7370   71.1890   68.4470 C   0  0  0  0  0  0  0  0  0  0  0  0
    6.7440   70.2580   67.2450 C   0  0  0  0  0  0  0  0  0  0  0  0
    5.3560   70.1560   66.6580 C   0  0  0  0  0  0  0  0  0  0  0  0
    5.1830   70.1520   65.4390 O   0  0  0  0  0  0  0  0  0  0  0  0
    4.2150   69.9080   67.6090 C   0  0  0  0  0  0  0  0  0  0  0  0
    5.7644   71.4065   70.3533 H   0  0  0  0  0  0  0  0  0  0  0  0
    6.0871   69.7052   69.8581 H   0  0  0  0  0  0  0  0  0  0  0  0
    6.4343   72.1950   68.1209 H   0  0  0  0  0  0  0  0  0  0  0  0
    7.7486   71.2114   68.8784 H   0  0  0  0  0  0  0  0  0  0  0  0
    7.4328   70.6525   66.4835 H   0  0  0  0  0  0  0  0  0  0  0  0
    7.0729   69.2587   67.5661 H   0  0  0  0  0  0  0  0  0  0  0  0
    3.2873   70.2670   67.1394 H   0  0  0  0  0  0  0  0  0  0  0  0
    4.1930   68.8266   67.8094 H   0  0  0  0  0  0  0  0  0  0  0  0
  2  1  2  0
  3  2  1  0
  4  3  1  0
  5  4  1  0
  6  5  1  0
  7  6  2  0
  8  6  1  0
  8  2  1  0
  3  9  1  0
  3 10  1  0
  4 11  1  0
  4 12  1  0
  5 13  1  0
  5 14  1  0
  8 15  1  0
  8 16  1  0
M  END
>  <score>  (1) 
-5.63

$$$$
=
     RDKit          3D

 16 16  0  0  0  0  0  0  0  0999 V2000
    7.5600   71.6150   69.1300 O   0  0  0  0  0  0  0  0  0  0  0  0
    6.6430   70.9380   68.6660 C   0  0  0  0  0  0  0  0  0  0  0  0
    6.8040   70.2070   67.3530 C   0  0  0  0  0  0  0  0  0  0  0  0
    5.5340   70.3290   66.5260 C   0  0  0  0  0  0  0  0  0  0  0  0
    4.3370   69.7700   67.2790 C   0  0  0  0  0  0  0  0  0  0  0  0
    4.1610   70.4990   68.5900 C   0  0  0  0  0  0  0  0  0  0  0  0
    3.0410   70.8140   68.9930 O   0  0  0  0  0  0  0  0  0  0  0  0
    5.3820   70.6890   69.4500 C   0  0  0  0  0  0  0  0  0  0  0  0
    7.6449   70.6439   66.7944 H   0  0  0  0  0  0  0  0  0  0  0  0
    7.0002   69.1437   67.5554 H   0  0  0  0  0  0  0  0  0  0  0  0
    5.3529   71.3901   66.2995 H   0  0  0  0  0  0  0  0  0  0  0  0
    5.6639   69.7533   65.5977 H   0  0  0  0  0  0  0  0  0  0  0  0
    3.4313   69.8969   66.6678 H   0  0  0  0  0  0  0  0  0  0  0  0
    4.5059   68.7020   67.4811 H   0  0  0  0  0  0  0  0  0  0  0  0
    5.2094   71.5501   70.1124 H   0  0  0  0  0  0  0  0  0  0  0  0
    5.5305   69.7527   70.0079 H   0  0  0  0  0  0  0  0  0  0  0  0
  2  1  2  0
  3  2  1  0
  4  3  1  0
  5  4  1  0
  6  5  1  0
  7  6  2  0
  8  6  1  0
  8  2  1  0
  3  9  1  0
  3 10  1  0
  4 11  1  0
  4 12  1  0
  5 13  1  0
  5 14  1  0
  8 15  1  0
  8 16  1  0
M  END
>  <score>  (2) 
-5.575

$$$$
=
     RDKit          3D

 16 16  0  0  0  0  0  0  0  0999 V2000
    3.6640   68.5920   65.7750 O   0  0  0  0  0  0  0  0  0  0  0  0
    4.2230   69.4590   66.4460 C   0  0  0  0  0  0  0  0  0  0  0  0
    5.5590   70.0270   66.0230 C   0  0  0  0  0  0  0  0  0  0  0  0
    6.4620   70.1980   67.2340 C   0  0  0  0  0  0  0  0  0  0  0  0
    5.8220   71.1120   68.2670 C   0  0  0  0  0  0  0  0  0  0  0  0
    4.4900   70.5500   68.7040 C   0  0  0  0  0  0  0  0  0  0  0  0
    4.1480   70.5790   69.8860 O   0  0  0  0  0  0  0  0  0  0  0  0
    3.5410   70.0940   67.6280 C   0  0  0  0  0  0  0  0  0  0  0  0
    6.0359   69.3407   65.3078 H   0  0  0  0  0  0  0  0  0  0  0  0
    5.3997   71.0081   65.5517 H   0  0  0  0  0  0  0  0  0  0  0  0
    6.6440   69.2131   67.6888 H   0  0  0  0  0  0  0  0  0  0  0  0
    7.4084   70.6512   66.9039 H   0  0  0  0  0  0  0  0  0  0  0  0
    6.4858   71.1950   69.1402 H   0  0  0  0  0  0  0  0  0  0  0  0
    5.6645   72.1049   67.8204 H   0  0  0  0  0  0  0  0  0  0  0  0
    2.8485   69.3594   68.0648 H   0  0  0  0  0  0  0  0  0  0  0  0
    3.0237   70.9906   67.2559 H   0  0  0  0  0  0  0  0  0  0  0  0
  2  1  2  0
  3  2  1  0
  4  3  1  0
  5  4  1  0
  6  5  1  0
  7  6  2  0
  8  6  1  0
  8  2  1  0
  3  9  1  0
  3 10  1  0
  4 11  1  0
  4 12  1  0
  5 13  1  0
  5 14  1  0
  8 15  1  0
  8 16  1  0
M  END
>  <score>  (3) 
-5.478

$$$$
=
     RDKit          3D

 16 16  0  0  0  0  0  0  0  0999 V2000
    5.1610   69.8350   65.1130 O   0  0  0  0  0  0  0  0  0  0  0  0
    5.2120   69.9270   66.3390 C   0  0  0  0  0  0  0  0  0  0  0  0
    4.0140   69.5820   67.1940 C   0  0  0  0  0  0  0  0  0  0  0  0
    3.8650   70.5940   68.3190 C   0  0  0  0  0  0  0  0  0  0  0  0
    5.1150   70.6350   69.1840 C   0  0  0  0  0  0  0  0  0  0  0  0
    6.3180   70.9870   68.3410 C   0  0  0  0  0  0  0  0  0  0  0  0
    7.1780   71.7630   68.7600 O   0  0  0  0  0  0  0  0  0  0  0  0
    6.5030   70.2420   67.0460 C   0  0  0  0  0  0  0  0  0  0  0  0
    3.1072   69.5942   66.5714 H   0  0  0  0  0  0  0  0  0  0  0  0
    4.1576   68.5812   67.6272 H   0  0  0  0  0  0  0  0  0  0  0  0
    3.6943   71.5907   67.8860 H   0  0  0  0  0  0  0  0  0  0  0  0
    3.0131   70.2961   68.9479 H   0  0  0  0  0  0  0  0  0  0  0  0
    4.9880   71.3927   69.9712 H   0  0  0  0  0  0  0  0  0  0  0  0
    5.2709   69.6456   69.6387 H   0  0  0  0  0  0  0  0  0  0  0  0
    7.1240   70.8565   66.3776 H   0  0  0  0  0  0  0  0  0  0  0  0
    6.9768   69.2806   67.2933 H   0  0  0  0  0  0  0  0  0  0  0  0
  2  1  2  0
  3  2  1  0
  4  3  1  0
  5  4  1  0
  6  5  1  0
  7  6  2  0
  8  6  1  0
  8  2  1  0
  3  9  1  0
  3 10  1  0
  4 11  1  0
  4 12  1  0
  5 13  1  0
  5 14  1  0
  8 15  1  0
  8 16  1  0
M  END
>  <score>  (4) 
-5.385

$$$$
=
     RDKit          3D

 16 16  0  0  0  0  0  0  0  0999 V2000
    3.0590   69.7150   68.9180 O   0  0  0  0  0  0  0  0  0  0  0  0
    3.9770   70.1840   68.2460 C   0  0  0  0  0  0  0  0  0  0  0  0
    4.1440   69.8120   66.7910 C   0  0  0  0  0  0  0  0  0  0  0  0
    5.6150   69.5990   66.4700 C   0  0  0  0  0  0  0  0  0  0  0  0
    6.4250   70.8490   66.7740 C   0  0  0  0  0  0  0  0  0  0  0  0
    6.2720   71.2270   68.2280 C   0  0  0  0  0  0  0  0  0  0  0  0
    7.2390   71.6150   68.8860 O   0  0  0  0  0  0  0  0  0  0  0  0
    4.8790   71.2560   68.7970 C   0  0  0  0  0  0  0  0  0  0  0  0
    3.5893   68.8842   66.5870 H   0  0  0  0  0  0  0  0  0  0  0  0
    3.7539   70.6277   66.1645 H   0  0  0  0  0  0  0  0  0  0  0  0
    5.9986   68.7653   67.0765 H   0  0  0  0  0  0  0  0  0  0  0  0
    5.7106   69.3713   65.3981 H   0  0  0  0  0  0  0  0  0  0  0  0
    7.4862   70.6560   66.5582 H   0  0  0  0  0  0  0  0  0  0  0  0
    6.0593   71.6757   66.1472 H   0  0  0  0  0  0  0  0  0  0  0  0
    4.9466   71.1263   69.8872 H   0  0  0  0  0  0  0  0  0  0  0  0
    4.4372   72.2233   68.5156 H   0  0  0  0  0  0  0  0  0  0  0  0
  2  1  2  0
  3  2  1  0
  4  3  1  0
  5  4  1  0
  6  5  1  0
  7  6  2  0
  8  6  1  0
  8  2  1  0
  3  9  1  0
  3 10  1  0
  4 11  1  0
  4 12  1  0
  5 13  1  0
  5 14  1  0
  8 15  1  0
  8 16  1  0
M  END
>  <score>  (5) 
-5.344

$$$$
=
     RDKit          3D

 16 16  0  0  0  0  0  0  0  0999 V2000
    6.3040   70.9970   66.5030 O   0  0  0  0  0  0  0  0  0  0  0  0
    5.4010   70.1700   66.3740 C   0  0  0  0  0  0  0  0  0  0  0  0
    5.3440   69.2640   65.1650 C   0  0  0  0  0  0  0  0  0  0  0  0
    3.9100   69.1320   64.6770 C   0  0  0  0  0  0  0  0  0  0  0  0
    3.0100   68.5810   65.7720 C   0  0  0  0  0  0  0  0  0  0  0  0
    3.0540   69.4830   66.9830 C   0  0  0  0  0  0  0  0  0  0  0  0
    2.0280   69.7440   67.6130 O   0  0  0  0  0  0  0  0  0  0  0  0
    4.4060   69.9220   67.4760 C   0  0  0  0  0  0  0  0  0  0  0  0
    5.9637   69.6897   64.3620 H   0  0  0  0  0  0  0  0  0  0  0  0
    5.7223   68.2692   65.4429 H   0  0  0  0  0  0  0  0  0  0  0  0
    3.5410   70.1226   64.3727 H   0  0  0  0  0  0  0  0  0  0  0  0
    3.8923   68.4358   63.8256 H   0  0  0  0  0  0  0  0  0  0  0  0
    1.9768   68.5230   65.3989 H   0  0  0  0  0  0  0  0  0  0  0  0
    3.3619   67.5785   66.0568 H   0  0  0  0  0  0  0  0  0  0  0  0
    4.2815   70.8536   68.0475 H   0  0  0  0  0  0  0  0  0  0  0  0
    4.8055   69.1022   68.0911 H   0  0  0  0  0  0  0  0  0  0  0  0
  2  1  2  0
  3  2  1  0
  4  3  1  0
  5  4  1  0
  6  5  1  0
  7  6  2  0
  8  6  1  0
  8  2  1  0
  3  9  1  0
  3 10  1  0
  4 11  1  0
  4 12  1  0
  5 13  1  0
  5 14  1  0
  8 15  1  0
  8 16  1  0
M  END
>  <score>  (6) 
-5.175

$$$$
=
     RDKit          3D

 16 16  0  0  0  0  0  0  0  0999 V2000
    6.7610   70.2130   67.6190 O   0  0  0  0  0  0  0  0  0  0  0  0
    5.5310   70.2770   67.6300 C   0  0  0  0  0  0  0  0  0  0  0  0
    4.7990   70.9480   68.7700 C   0  0  0  0  0  0  0  0  0  0  0  0
    3.5680   70.1410   69.1480 C   0  0  0  0  0  0  0  0  0  0  0  0
    2.6310   69.9850   67.9600 C   0  0  0  0  0  0  0  0  0  0  0  0
    3.3510   69.3080   66.8170 C   0  0  0  0  0  0  0  0  0  0  0  0
    2.7890   68.4490   66.1360 O   0  0  0  0  0  0  0  0  0  0  0  0
    4.7150   69.8270   66.4480 C   0  0  0  0  0  0  0  0  0  0  0  0
    5.4683   71.0195   69.6400 H   0  0  0  0  0  0  0  0  0  0  0  0
    4.4865   71.9543   68.4541 H   0  0  0  0  0  0  0  0  0  0  0  0
    3.8828   69.1443   69.4908 H   0  0  0  0  0  0  0  0  0  0  0  0
    3.0328   70.6732   69.9482 H   0  0  0  0  0  0  0  0  0  0  0  0
    1.7652   69.3750   68.2570 H   0  0  0  0  0  0  0  0  0  0  0  0
    2.2934   70.9800   67.6343 H   0  0  0  0  0  0  0  0  0  0  0  0
    5.2638   69.0253   65.9321 H   0  0  0  0  0  0  0  0  0  0  0  0
    4.5614   70.7089   65.8088 H   0  0  0  0  0  0  0  0  0  0  0  0
  2  1  2  0
  3  2  1  0
  4  3  1  0
  5  4  1  0
  6  5  1  0
  7  6  2  0
  8  6  1  0
  8  2  1  0
  3  9  1  0
  3 10  1  0
  4 11  1  0
  4 12  1  0
  5 13  1  0
  5 14  1  0
  8 15  1  0
  8 16  1  0
M  END
>  <score>  (7) 
-5.105

$$$$
=
     RDKit          3D

 16 16  0  0  0  0  0  0  0  0999 V2000
    3.8800   59.2740   69.9840 O   0  0  0  0  0  0  0  0  0  0  0  0
    4.2270   60.4550   70.0090 C   0  0  0  0  0  0  0  0  0  0  0  0
    5.3450   60.9160   70.9160 C   0  0  0  0  0  0  0  0  0  0  0  0
    4.9870   62.2510   71.5510 C   0  0  0  0  0  0  0  0  0  0  0  0
    4.7210   63.3060   70.4890 C   0  0  0  0  0  0  0  0  0  0  0  0
    3.5990   62.8590   69.5810 C   0  0  0  0  0  0  0  0  0  0  0  0
    2.7370   63.6530   69.2040 O   0  0  0  0  0  0  0  0  0  0  0  0
    3.6610   61.4560   69.0380 C   0  0  0  0  0  0  0  0  0  0  0  0
    5.5036   60.1680   71.7068 H   0  0  0  0  0  0  0  0  0  0  0  0
    6.2637   61.0346   70.3228 H   0  0  0  0  0  0  0  0  0  0  0  0
    4.0846   62.1256   72.1674 H   0  0  0  0  0  0  0  0  0  0  0  0
    5.8336   62.5827   72.1700 H   0  0  0  0  0  0  0  0  0  0  0  0
    4.4392   64.2505   70.9773 H   0  0  0  0  0  0  0  0  0  0  0  0
    5.6322   63.4510   69.8900 H   0  0  0  0  0  0  0  0  0  0  0  0
    2.6413   61.1419   68.7706 H   0  0  0  0  0  0  0  0  0  0  0  0
    4.3354   61.4774   68.1693 H   0  0  0  0  0  0  0  0  0  0  0  0
  2  1  2  0
  3  2  1  0
  4  3  1  0
  5  4  1  0
  6  5  1  0
  7  6  2  0
  8  6  1  0
  8  2  1  0
  3  9  1  0
  3 10  1  0
  4 11  1  0
  4 12  1  0
  5 13  1  0
  5 14  1  0
  8 15  1  0
  8 16  1  0
M  END
>  <score>  (8) 
-5.053

$$$$
=
     RDKit          3D

 16 16  0  0  0  0  0  0  0  0999 V2000
    2.0350   68.2300   66.4140 O   0  0  0  0  0  0  0  0  0  0  0  0
    3.0250   68.9470   66.2640 C   0  0  0  0  0  0  0  0  0  0  0  0
    3.6840   69.0890   64.9110 C   0  0  0  0  0  0  0  0  0  0  0  0
    5.1960   69.0770   65.0620 C   0  0  0  0  0  0  0  0  0  0  0  0
    5.6620   70.1980   65.9770 C   0  0  0  0  0  0  0  0  0  0  0  0
    5.0160   70.0620   67.3350 C   0  0  0  0  0  0  0  0  0  0  0  0
    5.6610   70.2630   68.3650 O   0  0  0  0  0  0  0  0  0  0  0  0
    3.5300   69.8230   67.3790 C   0  0  0  0  0  0  0  0  0  0  0  0
    3.3762   68.2521   64.2669 H   0  0  0  0  0  0  0  0  0  0  0  0
    3.3752   70.0430   64.4588 H   0  0  0  0  0  0  0  0  0  0  0  0
    5.5071   68.1120   65.4885 H   0  0  0  0  0  0  0  0  0  0  0  0
    5.6480   69.2241   64.0700 H   0  0  0  0  0  0  0  0  0  0  0  0
    6.7552   70.1467   66.0874 H   0  0  0  0  0  0  0  0  0  0  0  0
    5.3751   71.1645   65.5371 H   0  0  0  0  0  0  0  0  0  0  0  0
    3.2838   69.3421   68.3372 H   0  0  0  0  0  0  0  0  0  0  0  0
    3.0432   70.8027   67.2639 H   0  0  0  0  0  0  0  0  0  0  0  0
  2  1  2  0
  3  2  1  0
  4  3  1  0
  5  4  1  0
  6  5  1  0
  7  6  2  0
  8  6  1  0
  8  2  1  0
  3  9  1  0
  3 10  1  0
  4 11  1  0
  4 12  1  0
  5 13  1  0
  5 14  1  0
  8 15  1  0
  8 16  1  0
M  END
>  <score>  (9) 
-5.004

$$$$
