=
     RDKit          3D

 24 24  0  0  0  0  0  0  0  0999 V2000
    5.4300   69.9380   66.6340 C   0  0  0  0  0  0  0  0  0  0  0  0
    4.2510   69.8200   67.3820 C   0  0  0  0  0  0  0  0  0  0  0  0
    3.0640   69.4170   66.7700 C   0  0  0  0  0  0  0  0  0  0  0  0
    3.0530   69.1370   65.4040 C   0  0  0  0  0  0  0  0  0  0  0  0
    4.2160   69.2540   64.6320 C   0  0  0  0  0  0  0  0  0  0  0  0
    5.4010   69.6590   65.2560 C   0  0  0  0  0  0  0  0  0  0  0  0
    4.0910   68.9570   63.2990 O   0  0  0  0  0  0  0  0  0  0  0  0
    5.2380   69.1200   62.4810 C   0  0  0  0  0  0  0  0  0  0  0  0
    1.8870   68.7410   64.8030 O   0  0  0  0  0  0  0  0  0  0  0  0
    6.7110   70.3900   67.2990 C   0  0  0  0  0  0  0  0  0  0  0  0
    7.3990   70.8780   69.6680 C   0  0  0  0  0  0  0  0  0  0  0  0
    6.4780   70.8960   68.6950 C   0  0  0  0  0  0  0  0  0  0  0  0
    4.2615   70.0465   68.4584 H   0  0  0  0  0  0  0  0  0  0  0  0
    2.1417   69.3206   67.3617 H   0  0  0  0  0  0  0  0  0  0  0  0
    6.3210   69.7604   64.6616 H   0  0  0  0  0  0  0  0  0  0  0  0
    6.1268   69.2463   63.1167 H   0  0  0  0  0  0  0  0  0  0  0  0
    5.3648   68.2309   61.8459 H   0  0  0  0  0  0  0  0  0  0  0  0
    5.1121   70.0093   61.8459 H   0  0  0  0  0  0  0  0  0  0  0  0
    1.8730   68.5408   63.8336 H   0  0  0  0  0  0  0  0  0  0  0  0
    7.4071   69.5393   67.3421 H   0  0  0  0  0  0  0  0  0  0  0  0
    7.1263   71.2173   66.7048 H   0  0  0  0  0  0  0  0  0  0  0  0
    7.1518   71.2675   70.6666 H   0  0  0  0  0  0  0  0  0  0  0  0
    8.4023   70.4737   69.4682 H   0  0  0  0  0  0  0  0  0  0  0  0
    5.4864   71.3081   68.9335 H   0  0  0  0  0  0  0  0  0  0  0  0
  2  1  2  0
  3  2  1  0
  4  3  2  0
  5  4  1  0
  6  5  2  0
  6  1  1  0
  7  5  1  0
  8  7  1  0
  9  4  1  0
 10  1  1  0
 12 10  1  0
 12 11  2  3
  2 13  1  0
  3 14  1  0
  6 15  1  0
  8 16  1  0
  8 17  1  0
  8 18  1  0
  9 19  1  0
 10 20  1  0
 10 21  1  0
 11 22  1  0
 11 23  1  0
 12 24  1  0
M  END
>  <score>  (1) 
-7.239

$$$$
=
     RDKit          3D

 24 24  0  0  0  0  0  0  0  0999 V2000
    5.3660   69.9160   66.5420 C   0  0  0  0  0  0  0  0  0  0  0  0
    5.3680   69.5750   65.1820 C   0  0  0  0  0  0  0  0  0  0  0  0
    4.1880   69.1750   64.5540 C   0  0  0  0  0  0  0  0  0  0  0  0
    3.0030   69.1100   65.2870 C   0  0  0  0  0  0  0  0  0  0  0  0
    2.9760   69.4380   66.6480 C   0  0  0  0  0  0  0  0  0  0  0  0
    4.1650   69.8380   67.2690 C   0  0  0  0  0  0  0  0  0  0  0  0
    1.7590   69.3350   67.2710 O   0  0  0  0  0  0  0  0  0  0  0  0
    1.5840   68.2740   68.1960 C   0  0  0  0  0  0  0  0  0  0  0  0
    1.8460   68.7170   64.6690 O   0  0  0  0  0  0  0  0  0  0  0  0
    6.6490   70.3350   67.2220 C   0  0  0  0  0  0  0  0  0  0  0  0
    7.4170   70.9860   69.5270 C   0  0  0  0  0  0  0  0  0  0  0  0
    6.4330   70.7140   68.6610 C   0  0  0  0  0  0  0  0  0  0  0  0
    6.3046   69.6231   64.6072 H   0  0  0  0  0  0  0  0  0  0  0  0
    4.1922   68.9121   63.4859 H   0  0  0  0  0  0  0  0  0  0  0  0
    4.1597   70.0944   68.3387 H   0  0  0  0  0  0  0  0  0  0  0  0
    1.6488   68.6670   69.2213 H   0  0  0  0  0  0  0  0  0  0  0  0
    0.5976   67.8122   68.0420 H   0  0  0  0  0  0  0  0  0  0  0  0
    2.3699   67.5199   68.0420 H   0  0  0  0  0  0  0  0  0  0  0  0
    1.0017   68.6688   65.1836 H   0  0  0  0  0  0  0  0  0  0  0  0
    7.3618   69.4983   67.1794 H   0  0  0  0  0  0  0  0  0  0  0  0
    7.0367   71.2193   66.6950 H   0  0  0  0  0  0  0  0  0  0  0  0
    7.1764   71.2563   70.5658 H   0  0  0  0  0  0  0  0  0  0  0  0
    8.4662   70.9392   69.1998 H   0  0  0  0  0  0  0  0  0  0  0  0
    5.3971   70.7716   69.0266 H   0  0  0  0  0  0  0  0  0  0  0  0
  2  1  2  0
  3  2  1  0
  4  3  2  0
  5  4  1  0
  6  5  2  0
  6  1  1  0
  7  5  1  0
  8  7  1  0
  9  4  1  0
 10  1  1  0
 12 10  1  0
 12 11  2  3
  2 13  1  0
  3 14  1  0
  6 15  1  0
  8 16  1  0
  8 17  1  0
  8 18  1  0
  9 19  1  0
 10 20  1  0
 10 21  1  0
 11 22  1  0
 11 23  1  0
 12 24  1  0
M  END
>  <score>  (2) 
-7.019

$$$$
=
     RDKit          3D

 24 24  0  0  0  0  0  0  0  0999 V2000
    4.3360   69.4070   65.0750 C   0  0  0  0  0  0  0  0  0  0  0  0
    5.3630   69.5050   64.1270 C   0  0  0  0  0  0  0  0  0  0  0  0
    5.1250   69.1760   62.7920 C   0  0  0  0  0  0  0  0  0  0  0  0
    3.8580   68.7420   62.4040 C   0  0  0  0  0  0  0  0  0  0  0  0
    2.8160   68.6280   63.3330 C   0  0  0  0  0  0  0  0  0  0  0  0
    3.0650   68.9600   64.6690 C   0  0  0  0  0  0  0  0  0  0  0  0
    1.6130   68.1880   62.8430 O   0  0  0  0  0  0  0  0  0  0  0  0
    0.4960   69.0510   62.9790 C   0  0  0  0  0  0  0  0  0  0  0  0
    3.6250   68.4190   61.0930 O   0  0  0  0  0  0  0  0  0  0  0  0
    4.6020   69.7490   66.5230 C   0  0  0  0  0  0  0  0  0  0  0  0
    6.5700   70.6650   67.7940 C   0  0  0  0  0  0  0  0  0  0  0  0
    6.0700   69.9070   66.8100 C   0  0  0  0  0  0  0  0  0  0  0  0
    6.3628   69.8433   64.4369 H   0  0  0  0  0  0  0  0  0  0  0  0
    5.9326   69.2586   62.0497 H   0  0  0  0  0  0  0  0  0  0  0  0
    2.2577   68.8706   65.4108 H   0  0  0  0  0  0  0  0  0  0  0  0
    0.2859   69.2133   64.0465 H   0  0  0  0  0  0  0  0  0  0  0  0
    0.7169   70.0153   62.4980 H   0  0  0  0  0  0  0  0  0  0  0  0
   -0.3813   68.5938   62.4980 H   0  0  0  0  0  0  0  0  0  0  0  0
    2.7276   68.1102   60.8112 H   0  0  0  0  0  0  0  0  0  0  0  0
    4.0906   70.6927   66.7636 H   0  0  0  0  0  0  0  0  0  0  0  0
    4.2250   68.9201   67.1401 H   0  0  0  0  0  0  0  0  0  0  0  0
    7.6584   70.7291   67.9400 H   0  0  0  0  0  0  0  0  0  0  0  0
    5.8924   71.2236   68.4564 H   0  0  0  0  0  0  0  0  0  0  0  0
    6.7799   69.3638   66.1690 H   0  0  0  0  0  0  0  0  0  0  0  0
  2  1  2  0
  3  2  1  0
  4  3  2  0
  5  4  1  0
  6  5  2  0
  6  1  1  0
  7  5  1  0
  8  7  1  0
  9  4  1  0
 10  1  1  0
 12 10  1  0
 12 11  2  3
  2 13  1  0
  3 14  1  0
  6 15  1  0
  8 16  1  0
  8 17  1  0
  8 18  1  0
  9 19  1  0
 10 20  1  0
 10 21  1  0
 11 22  1  0
 11 23  1  0
 12 24  1  0
M  END
>  <score>  (3) 
-7.003

$$$$
=
     RDKit          3D

 24 24  0  0  0  0  0  0  0  0999 V2000
    3.7590   69.2320   65.9340 C   0  0  0  0  0  0  0  0  0  0  0  0
    2.4990   69.0660   66.5240 C   0  0  0  0  0  0  0  0  0  0  0  0
    2.2650   69.5080   67.8250 C   0  0  0  0  0  0  0  0  0  0  0  0
    3.2960   70.1130   68.5450 C   0  0  0  0  0  0  0  0  0  0  0  0
    4.5670   70.2840   67.9820 C   0  0  0  0  0  0  0  0  0  0  0  0
    4.7910   69.8370   66.6750 C   0  0  0  0  0  0  0  0  0  0  0  0
    5.5060   70.8870   68.7780 O   0  0  0  0  0  0  0  0  0  0  0  0
    6.8420   70.9250   68.3030 C   0  0  0  0  0  0  0  0  0  0  0  0
    3.0650   70.5470   69.8230 O   0  0  0  0  0  0  0  0  0  0  0  0
    4.0120   68.7380   64.5280 C   0  0  0  0  0  0  0  0  0  0  0  0
    5.6240   69.1720   62.6460 C   0  0  0  0  0  0  0  0  0  0  0  0
    5.1810   69.4300   63.8840 C   0  0  0  0  0  0  0  0  0  0  0  0
    1.6893   68.5837   65.9568 H   0  0  0  0  0  0  0  0  0  0  0  0
    1.2725   69.3806   68.2819 H   0  0  0  0  0  0  0  0  0  0  0  0
    5.7856   69.9600   66.2215 H   0  0  0  0  0  0  0  0  0  0  0  0
    7.5345   70.9447   69.1574 H   0  0  0  0  0  0  0  0  0  0  0  0
    7.0393   70.0321   67.6916 H   0  0  0  0  0  0  0  0  0  0  0  0
    6.9882   71.8277   67.6916 H   0  0  0  0  0  0  0  0  0  0  0  0
    3.7924   70.9770   70.3388 H   0  0  0  0  0  0  0  0  0  0  0  0
    4.2157   67.6576   64.5635 H   0  0  0  0  0  0  0  0  0  0  0  0
    3.1171   68.9575   63.9271 H   0  0  0  0  0  0  0  0  0  0  0  0
    6.4878   69.7226   62.2451 H   0  0  0  0  0  0  0  0  0  0  0  0
    5.1239   68.4096   62.0306 H   0  0  0  0  0  0  0  0  0  0  0  0
    5.7077   70.1992   64.4679 H   0  0  0  0  0  0  0  0  0  0  0  0
  2  1  2  0
  3  2  1  0
  4  3  2  0
  5  4  1  0
  6  5  2  0
  6  1  1  0
  7  5  1  0
  8  7  1  0
  9  4  1  0
 10  1  1  0
 12 10  1  0
 12 11  2  3
  2 13  1  0
  3 14  1  0
  6 15  1  0
  8 16  1  0
  8 17  1  0
  8 18  1  0
  9 19  1  0
 10 20  1  0
 10 21  1  0
 11 22  1  0
 11 23  1  0
 12 24  1  0
M  END
>  <score>  (4) 
-6.937

$$$$
=
     RDKit          3D

 24 24  0  0  0  0  0  0  0  0999 V2000
    3.8090   69.0500   65.7560 C   0  0  0  0  0  0  0  0  0  0  0  0
    4.7700   69.6930   66.5480 C   0  0  0  0  0  0  0  0  0  0  0  0
    4.4320   70.1830   67.8090 C   0  0  0  0  0  0  0  0  0  0  0  0
    3.1280   70.0370   68.2800 C   0  0  0  0  0  0  0  0  0  0  0  0
    2.1460   69.4050   67.5050 C   0  0  0  0  0  0  0  0  0  0  0  0
    2.4960   68.9170   66.2410 C   0  0  0  0  0  0  0  0  0  0  0  0
    0.8970   69.3190   68.0640 O   0  0  0  0  0  0  0  0  0  0  0  0
    0.0400   68.2890   67.5980 C   0  0  0  0  0  0  0  0  0  0  0  0
    2.7960   70.5190   69.5180 O   0  0  0  0  0  0  0  0  0  0  0  0
    4.1760   68.5330   64.3840 C   0  0  0  0  0  0  0  0  0  0  0  0
    5.5860   69.2810   62.4400 C   0  0  0  0  0  0  0  0  0  0  0  0
    5.2520   69.3590   63.7340 C   0  0  0  0  0  0  0  0  0  0  0  0
    5.7971   69.8119   66.1726 H   0  0  0  0  0  0  0  0  0  0  0  0
    5.1908   70.6825   68.4293 H   0  0  0  0  0  0  0  0  0  0  0  0
    1.7346   68.4233   65.6193 H   0  0  0  0  0  0  0  0  0  0  0  0
   -0.3994   67.7609   68.4571 H   0  0  0  0  0  0  0  0  0  0  0  0
   -0.7630   68.7282   66.9878 H   0  0  0  0  0  0  0  0  0  0  0  0
    0.6179   67.5793   66.9878 H   0  0  0  0  0  0  0  0  0  0  0  0
    1.8714   70.4178   69.8570 H   0  0  0  0  0  0  0  0  0  0  0  0
    4.5339   67.4973   64.4799 H   0  0  0  0  0  0  0  0  0  0  0  0
    3.2783   68.5896   63.7508 H   0  0  0  0  0  0  0  0  0  0  0  0
    6.3862   69.9205   62.0390 H   0  0  0  0  0  0  0  0  0  0  0  0
    5.0603   68.5774   61.7777 H   0  0  0  0  0  0  0  0  0  0  0  0
    5.8009   70.0747   64.3637 H   0  0  0  0  0  0  0  0  0  0  0  0
  2  1  2  0
  3  2  1  0
  4  3  2  0
  5  4  1  0
  6  5  2  0
  6  1  1  0
  7  5  1  0
  8  7  1  0
  9  4  1  0
 10  1  1  0
 12 10  1  0
 12 11  2  3
  2 13  1  0
  3 14  1  0
  6 15  1  0
  8 16  1  0
  8 17  1  0
  8 18  1  0
  9 19  1  0
 10 20  1  0
 10 21  1  0
 11 22  1  0
 11 23  1  0
 12 24  1  0
M  END
>  <score>  (5) 
-6.67

$$$$
=
     RDKit          3D

 24 24  0  0  0  0  0  0  0  0999 V2000
    2.9650   69.0160   65.3800 C   0  0  0  0  0  0  0  0  0  0  0  0
    3.9820   69.1330   64.4230 C   0  0  0  0  0  0  0  0  0  0  0  0
    5.2460   69.5930   64.7900 C   0  0  0  0  0  0  0  0  0  0  0  0
    5.4940   69.9460   66.1170 C   0  0  0  0  0  0  0  0  0  0  0  0
    4.4920   69.8460   67.0910 C   0  0  0  0  0  0  0  0  0  0  0  0
    3.2280   69.3830   66.7120 C   0  0  0  0  0  0  0  0  0  0  0  0
    4.8440   70.2220   68.3620 O   0  0  0  0  0  0  0  0  0  0  0  0
    3.8450   70.8290   69.1660 C   0  0  0  0  0  0  0  0  0  0  0  0
    6.7360   70.3980   66.4770 O   0  0  0  0  0  0  0  0  0  0  0  0
    1.5920   68.5300   64.9750 C   0  0  0  0  0  0  0  0  0  0  0  0
    0.6420   68.9940   62.6930 C   0  0  0  0  0  0  0  0  0  0  0  0
    1.4790   68.3180   63.4910 C   0  0  0  0  0  0  0  0  0  0  0  0
    3.7819   68.8604   63.3763 H   0  0  0  0  0  0  0  0  0  0  0  0
    6.0437   69.6772   64.0373 H   0  0  0  0  0  0  0  0  0  0  0  0
    2.4298   69.3049   67.4648 H   0  0  0  0  0  0  0  0  0  0  0  0
    4.0891   70.6807   70.2283 H   0  0  0  0  0  0  0  0  0  0  0  0
    3.8021   71.9060   68.9465 H   0  0  0  0  0  0  0  0  0  0  0  0
    2.8693   70.3709   68.9465 H   0  0  0  0  0  0  0  0  0  0  0  0
    6.9178   70.6499   67.4170 H   0  0  0  0  0  0  0  0  0  0  0  0
    1.3889   67.5770   65.4854 H   0  0  0  0  0  0  0  0  0  0  0  0
    0.8626   69.3017   65.2622 H   0  0  0  0  0  0  0  0  0  0  0  0
    0.6180   68.7807   61.6142 H   0  0  0  0  0  0  0  0  0  0  0  0
   -0.0214   69.7625   63.1165 H   0  0  0  0  0  0  0  0  0  0  0  0
    2.1264   67.5575   63.0300 H   0  0  0  0  0  0  0  0  0  0  0  0
  2  1  2  0
  3  2  1  0
  4  3  2  0
  5  4  1  0
  6  5  2  0
  6  1  1  0
  7  5  1  0
  8  7  1  0
  9  4  1  0
 10  1  1  0
 12 10  1  0
 12 11  2  3
  2 13  1  0
  3 14  1  0
  6 15  1  0
  8 16  1  0
  8 17  1  0
  8 18  1  0
  9 19  1  0
 10 20  1  0
 10 21  1  0
 11 22  1  0
 11 23  1  0
 12 24  1  0
M  END
>  <score>  (6) 
-6.522

$$$$
=
     RDKit          3D

 24 24  0  0  0  0  0  0  0  0999 V2000
    2.5600   68.7680   64.6510 C   0  0  0  0  0  0  0  0  0  0  0  0
    2.2940   68.9720   63.2900 C   0  0  0  0  0  0  0  0  0  0  0  0
    0.9810   68.9800   62.8210 C   0  0  0  0  0  0  0  0  0  0  0  0
   -0.0720   68.7780   63.7130 C   0  0  0  0  0  0  0  0  0  0  0  0
    0.1670   68.5640   65.0770 C   0  0  0  0  0  0  0  0  0  0  0  0
    1.4880   68.5570   65.5370 C   0  0  0  0  0  0  0  0  0  0  0  0
   -0.9400   68.3720   65.8630 O   0  0  0  0  0  0  0  0  0  0  0  0
   -1.0800   69.1970   67.0090 C   0  0  0  0  0  0  0  0  0  0  0  0
   -1.3620   68.7860   63.2520 O   0  0  0  0  0  0  0  0  0  0  0  0
    3.9860   68.7450   65.1520 C   0  0  0  0  0  0  0  0  0  0  0  0
    5.3630   69.9590   66.8700 C   0  0  0  0  0  0  0  0  0  0  0  0
    4.1730   69.5970   66.3760 C   0  0  0  0  0  0  0  0  0  0  0  0
    3.1263   69.1267   62.5876 H   0  0  0  0  0  0  0  0  0  0  0  0
    0.7766   69.1448   61.7528 H   0  0  0  0  0  0  0  0  0  0  0  0
    1.6909   68.3844   66.6043 H   0  0  0  0  0  0  0  0  0  0  0  0
   -0.9760   68.5844   67.9167 H   0  0  0  0  0  0  0  0  0  0  0  0
   -0.3008   69.9733   66.9993 H   0  0  0  0  0  0  0  0  0  0  0  0
   -2.0717   69.6728   66.9993 H   0  0  0  0  0  0  0  0  0  0  0  0
   -2.1132   68.6431   63.8807 H   0  0  0  0  0  0  0  0  0  0  0  0
    4.2582   67.7079   65.3976 H   0  0  0  0  0  0  0  0  0  0  0  0
    4.6291   69.1509   64.3572 H   0  0  0  0  0  0  0  0  0  0  0  0
    5.4163   70.5858   67.7724 H   0  0  0  0  0  0  0  0  0  0  0  0
    6.2878   69.6298   66.3736 H   0  0  0  0  0  0  0  0  0  0  0  0
    3.2716   69.9463   66.9008 H   0  0  0  0  0  0  0  0  0  0  0  0
  2  1  2  0
  3  2  1  0
  4  3  2  0
  5  4  1  0
  6  5  2  0
  6  1  1  0
  7  5  1  0
  8  7  1  0
  9  4  1  0
 10  1  1  0
 12 10  1  0
 12 11  2  3
  2 13  1  0
  3 14  1  0
  6 15  1  0
  8 16  1  0
  8 17  1  0
  8 18  1  0
  9 19  1  0
 10 20  1  0
 10 21  1  0
 11 22  1  0
 11 23  1  0
 12 24  1  0
M  END
>  <score>  (7) 
-6.458

$$$$
=
     RDKit          3D

 24 24  0  0  0  0  0  0  0  0999 V2000
    2.5700   68.8240   65.9460 C   0  0  0  0  0  0  0  0  0  0  0  0
    3.0050   69.4410   67.1270 C   0  0  0  0  0  0  0  0  0  0  0  0
    4.3120   69.9170   67.2330 C   0  0  0  0  0  0  0  0  0  0  0  0
    5.1900   69.7710   66.1590 C   0  0  0  0  0  0  0  0  0  0  0  0
    4.7820   69.1510   64.9710 C   0  0  0  0  0  0  0  0  0  0  0  0
    3.4690   68.6770   64.8750 C   0  0  0  0  0  0  0  0  0  0  0  0
    5.7260   69.0580   63.9810 O   0  0  0  0  0  0  0  0  0  0  0  0
    5.2770   69.1320   62.6380 C   0  0  0  0  0  0  0  0  0  0  0  0
    6.4730   70.2390   66.2640 O   0  0  0  0  0  0  0  0  0  0  0  0
    1.1570   68.2960   65.8410 C   0  0  0  0  0  0  0  0  0  0  0  0
   -0.9850   69.1430   66.8500 C   0  0  0  0  0  0  0  0  0  0  0  0
    0.2910   68.7580   66.9790 C   0  0  0  0  0  0  0  0  0  0  0  0
    2.3123   69.5504   67.9745 H   0  0  0  0  0  0  0  0  0  0  0  0
    4.6487   70.4053   68.1594 H   0  0  0  0  0  0  0  0  0  0  0  0
    3.1360   68.1832   63.9502 H   0  0  0  0  0  0  0  0  0  0  0  0
    4.1917   69.3109   62.6235 H   0  0  0  0  0  0  0  0  0  0  0  0
    5.7915   69.9575   62.1243 H   0  0  0  0  0  0  0  0  0  0  0  0
    5.4994   68.1851   62.1243 H   0  0  0  0  0  0  0  0  0  0  0  0
    7.1004   70.1381   65.5049 H   0  0  0  0  0  0  0  0  0  0  0  0
    0.7171   68.6474   64.8960 H   0  0  0  0  0  0  0  0  0  0  0  0
    1.2039   67.1976   65.8774 H   0  0  0  0  0  0  0  0  0  0  0  0
   -1.5533   69.4686   67.7338 H   0  0  0  0  0  0  0  0  0  0  0  0
   -1.4649   69.1337   65.8603 H   0  0  0  0  0  0  0  0  0  0  0  0
    0.7350   68.7815   67.9851 H   0  0  0  0  0  0  0  0  0  0  0  0
  2  1  2  0
  3  2  1  0
  4  3  2  0
  5  4  1  0
  6  5  2  0
  6  1  1  0
  7  5  1  0
  8  7  1  0
  9  4  1  0
 10  1  1  0
 12 10  1  0
 12 11  2  3
  2 13  1  0
  3 14  1  0
  6 15  1  0
  8 16  1  0
  8 17  1  0
  8 18  1  0
  9 19  1  0
 10 20  1  0
 10 21  1  0
 11 22  1  0
 11 23  1  0
 12 24  1  0
M  END
>  <score>  (8) 
-6.106

$$$$
=
     RDKit          3D

 24 24  0  0  0  0  0  0  0  0999 V2000
    2.5910   68.7450   64.6240 C   0  0  0  0  0  0  0  0  0  0  0  0
    3.2540   69.1630   65.7860 C   0  0  0  0  0  0  0  0  0  0  0  0
    2.5960   69.1530   67.0160 C   0  0  0  0  0  0  0  0  0  0  0  0
    1.2680   68.7290   67.0850 C   0  0  0  0  0  0  0  0  0  0  0  0
    0.5810   68.3140   65.9370 C   0  0  0  0  0  0  0  0  0  0  0  0
    1.2500   68.3290   64.7090 C   0  0  0  0  0  0  0  0  0  0  0  0
   -0.7200   67.9220   66.1190 O   0  0  0  0  0  0  0  0  0  0  0  0
   -1.7380   68.8520   65.7850 C   0  0  0  0  0  0  0  0  0  0  0  0
    0.6230   68.7200   68.2930 O   0  0  0  0  0  0  0  0  0  0  0  0
    3.3040   68.7720   63.2910 C   0  0  0  0  0  0  0  0  0  0  0  0
    5.7800   68.7020   62.8580 C   0  0  0  0  0  0  0  0  0  0  0  0
    4.7100   69.2900   63.4080 C   0  0  0  0  0  0  0  0  0  0  0  0
    4.2992   69.5009   65.7277 H   0  0  0  0  0  0  0  0  0  0  0  0
    3.1209   69.4775   67.9266 H   0  0  0  0  0  0  0  0  0  0  0  0
    0.7210   68.0116   63.7983 H   0  0  0  0  0  0  0  0  0  0  0  0
   -2.1814   69.2570   66.7066 H   0  0  0  0  0  0  0  0  0  0  0  0
   -1.3052   69.6731   65.1947 H   0  0  0  0  0  0  0  0  0  0  0  0
   -2.5167   68.3469   65.1947 H   0  0  0  0  0  0  0  0  0  0  0  0
   -0.3189   68.4204   68.3490 H   0  0  0  0  0  0  0  0  0  0  0  0
    3.3359   67.7498   62.8859 H   0  0  0  0  0  0  0  0  0  0  0  0
    2.7493   69.4500   62.6257 H   0  0  0  0  0  0  0  0  0  0  0  0
    6.7787   69.1440   62.9893 H   0  0  0  0  0  0  0  0  0  0  0  0
    5.6603   67.7770   62.2749 H   0  0  0  0  0  0  0  0  0  0  0  0
    4.8708   70.2135   63.9837 H   0  0  0  0  0  0  0  0  0  0  0  0
  2  1  2  0
  3  2  1  0
  4  3  2  0
  5  4  1  0
  6  5  2  0
  6  1  1  0
  7  5  1  0
  8  7  1  0
  9  4  1  0
 10  1  1  0
 12 10  1  0
 12 11  2  3
  2 13  1  0
  3 14  1  0
  6 15  1  0
  8 16  1  0
  8 17  1  0
  8 18  1  0
  9 19  1  0
 10 20  1  0
 10 21  1  0
 11 22  1  0
 11 23  1  0
 12 24  1  0
M  END
>  <score>  (9) 
-6.042

$$$$
