=
     RDKit          3D

 34 36  0  0  0  0  0  0  0  0999 V2000
    2.1070   67.9460   65.5410 C   0  0  0  0  0  0  0  0  0  0  0  0
    6.2910   71.1520   67.7150 F   0  0  0  0  0  0  0  0  0  0  0  0
    5.3160   70.3980   67.1950 C   0  0  0  0  0  0  0  0  0  0  0  0
    5.4650   69.8650   65.9220 C   0  0  0  0  0  0  0  0  0  0  0  0
    4.4510   69.0730   65.3690 C   0  0  0  0  0  0  0  0  0  0  0  0
    3.2710   68.8040   66.0890 C   0  0  0  0  0  0  0  0  0  0  0  0
    3.1690   69.3660   67.3790 C   0  0  0  0  0  0  0  0  0  0  0  0
    4.1720   70.1540   67.9340 C   0  0  0  0  0  0  0  0  0  0  0  0
    2.0800   69.1290   68.1270 F   0  0  0  0  0  0  0  0  0  0  0  0
    1.9020   66.9500   66.5610 O   0  0  0  0  0  0  0  0  0  0  0  0
    0.7920   68.7560   65.4390 C   0  0  0  0  0  0  0  0  0  0  0  0
   -0.3010   68.2820   66.2540 N   0  0  0  0  0  0  0  0  0  0  0  0
   -1.2460   69.0110   66.9030 C   0  0  0  0  0  0  0  0  0  0  0  0
   -2.1080   68.1980   67.4700 N   0  0  0  0  0  0  0  0  0  0  0  0
   -1.6320   66.9610   67.1330 C   0  0  0  0  0  0  0  0  0  0  0  0
   -0.5340   66.9610   66.3690 N   0  0  0  0  0  0  0  0  0  0  0  0
    2.5480   67.3510   64.1650 C   0  0  0  0  0  0  0  0  0  0  0  0
    3.2270   66.0740   64.2100 N   0  0  0  0  0  0  0  0  0  0  0  0
    4.5050   65.7890   63.8460 C   0  0  0  0  0  0  0  0  0  0  0  0
    4.7650   64.5320   64.1200 N   0  0  0  0  0  0  0  0  0  0  0  0
    3.5940   64.0820   64.6600 C   0  0  0  0  0  0  0  0  0  0  0  0
    2.6250   64.9990   64.7580 N   0  0  0  0  0  0  0  0  0  0  0  0
    6.3810   70.0650   65.3467 H   0  0  0  0  0  0  0  0  0  0  0  0
    4.5779   68.6556   64.3592 H   0  0  0  0  0  0  0  0  0  0  0  0
    4.0576   70.5760   68.9434 H   0  0  0  0  0  0  0  0  0  0  0  0
    1.9883   67.3692   67.4537 H   0  0  0  0  0  0  0  0  0  0  0  0
    1.0099   69.7925   65.7358 H   0  0  0  0  0  0  0  0  0  0  0  0
    0.4558   68.6511   64.3969 H   0  0  0  0  0  0  0  0  0  0  0  0
   -1.2834   70.1095   66.9468 H   0  0  0  0  0  0  0  0  0  0  0  0
   -2.1176   66.0320   67.4665 H   0  0  0  0  0  0  0  0  0  0  0  0
    1.6461   67.2301   63.5470 H   0  0  0  0  0  0  0  0  0  0  0  0
    3.2830   68.0614   63.7587 H   0  0  0  0  0  0  0  0  0  0  0  0
    5.2110   66.5004   63.3927 H   0  0  0  0  0  0  0  0  0  0  0  0
    3.4577   63.0416   64.9902 H   0  0  0  0  0  0  0  0  0  0  0  0
  3  2  1  0
  4  3  2  0
  5  4  1  0
  6  5  2  0
  6  1  1  0
  7  6  1  0
  8  7  2  0
  8  3  1  0
  9  7  1  0
 10  1  1  0
 11  1  1  0
 12 11  1  0
 13 12  1  0
 14 13  2  0
 15 14  1  0
 16 15  2  0
 16 12  1  0
 17  1  1  0
 18 17  1  0
 19 18  1  0
 20 19  2  0
 21 20  1  0
 22 21  2  0
 22 18  1  0
  4 23  1  0
  5 24  1  0
  8 25  1  0
 10 26  1  0
 11 27  1  0
 11 28  1  0
 13 29  1  0
 15 30  1  0
 17 31  1  0
 17 32  1  0
 19 33  1  0
 21 34  1  0
M  END
>  <score>  (1) 
-9.251

$$$$
=
     RDKit          3D

 34 36  0  0  0  0  0  0  0  0999 V2000
    1.6510   67.5020   65.1160 C   0  0  0  0  0  0  0  0  0  0  0  0
   -0.0350   70.3640   60.4820 F   0  0  0  0  0  0  0  0  0  0  0  0
    0.3710   69.6910   61.5650 C   0  0  0  0  0  0  0  0  0  0  0  0
    1.6700   69.2040   61.6220 C   0  0  0  0  0  0  0  0  0  0  0  0
    2.1060   68.5000   62.7510 C   0  0  0  0  0  0  0  0  0  0  0  0
    1.2420   68.2750   63.8410 C   0  0  0  0  0  0  0  0  0  0  0  0
   -0.0660   68.7930   63.7350 C   0  0  0  0  0  0  0  0  0  0  0  0
   -0.5060   69.4920   62.6160 C   0  0  0  0  0  0  0  0  0  0  0  0
   -0.9310   68.6340   64.7480 F   0  0  0  0  0  0  0  0  0  0  0  0
    0.9430   66.2530   65.0040 O   0  0  0  0  0  0  0  0  0  0  0  0
    3.1610   67.1580   65.1220 C   0  0  0  0  0  0  0  0  0  0  0  0
    3.5140   65.8780   64.5570 N   0  0  0  0  0  0  0  0  0  0  0  0
    4.1590   65.6220   63.3900 C   0  0  0  0  0  0  0  0  0  0  0  0
    4.3560   64.3280   63.2770 N   0  0  0  0  0  0  0  0  0  0  0  0
    3.7990   63.8310   64.4220 C   0  0  0  0  0  0  0  0  0  0  0  0
    3.2860   64.7470   65.2510 N   0  0  0  0  0  0  0  0  0  0  0  0
    1.2290   68.3520   66.3570 C   0  0  0  0  0  0  0  0  0  0  0  0
    0.7250   67.6150   67.4950 N   0  0  0  0  0  0  0  0  0  0  0  0
    1.3010   67.4580   68.7160 C   0  0  0  0  0  0  0  0  0  0  0  0
    0.4860   66.7910   69.4990 N   0  0  0  0  0  0  0  0  0  0  0  0
   -0.5940   66.5590   68.6970 C   0  0  0  0  0  0  0  0  0  0  0  0
   -0.5060   67.0660   67.4630 N   0  0  0  0  0  0  0  0  0  0  0  0
    2.3571   69.3714   60.7795 H   0  0  0  0  0  0  0  0  0  0  0  0
    3.1367   68.1175   62.7875 H   0  0  0  0  0  0  0  0  0  0  0  0
   -1.5341   69.8801   62.5676 H   0  0  0  0  0  0  0  0  0  0  0  0
    0.7450   65.9036   65.9089 H   0  0  0  0  0  0  0  0  0  0  0  0
    3.6871   67.9365   64.5500 H   0  0  0  0  0  0  0  0  0  0  0  0
    3.4527   67.1085   66.1814 H   0  0  0  0  0  0  0  0  0  0  0  0
    4.4681   66.3793   62.6545 H   0  0  0  0  0  0  0  0  0  0  0  0
    3.7743   62.7543   64.6459 H   0  0  0  0  0  0  0  0  0  0  0  0
    2.1099   68.9210   66.6892 H   0  0  0  0  0  0  0  0  0  0  0  0
    0.3896   68.9752   66.0150 H   0  0  0  0  0  0  0  0  0  0  0  0
    2.2950   67.8316   69.0030 H   0  0  0  0  0  0  0  0  0  0  0  0
   -1.4736   65.9953   69.0413 H   0  0  0  0  0  0  0  0  0  0  0  0
  3  2  1  0
  4  3  2  0
  5  4  1  0
  6  5  2  0
  6  1  1  0
  7  6  1  0
  8  7  2  0
  8  3  1  0
  9  7  1  0
 10  1  1  0
 11  1  1  0
 12 11  1  0
 13 12  1  0
 14 13  2  0
 15 14  1  0
 16 15  2  0
 16 12  1  0
 17  1  1  0
 18 17  1  0
 19 18  1  0
 20 19  2  0
 21 20  1  0
 22 21  2  0
 22 18  1  0
  4 23  1  0
  5 24  1  0
  8 25  1  0
 10 26  1  0
 11 27  1  0
 11 28  1  0
 13 29  1  0
 15 30  1  0
 17 31  1  0
 17 32  1  0
 19 33  1  0
 21 34  1  0
M  END
>  <score>  (2) 
-9.055

$$$$
=
     RDKit          3D

 34 36  0  0  0  0  0  0  0  0999 V2000
    1.5940   68.2410   65.6440 C   0  0  0  0  0  0  0  0  0  0  0  0
    6.3700   70.6540   67.6120 F   0  0  0  0  0  0  0  0  0  0  0  0
    5.2540   70.0850   67.1400 C   0  0  0  0  0  0  0  0  0  0  0  0
    5.2590   69.5130   65.8750 C   0  0  0  0  0  0  0  0  0  0  0  0
    4.0970   68.9130   65.3730 C   0  0  0  0  0  0  0  0  0  0  0  0
    2.9140   68.8780   66.1350 C   0  0  0  0  0  0  0  0  0  0  0  0
    2.9620   69.4700   67.4150 C   0  0  0  0  0  0  0  0  0  0  0  0
    4.1120   70.0690   67.9200 C   0  0  0  0  0  0  0  0  0  0  0  0
    1.8750   69.4500   68.2010 F   0  0  0  0  0  0  0  0  0  0  0  0
    0.7270   69.3690   65.4200 O   0  0  0  0  0  0  0  0  0  0  0  0
    1.7680   67.5360   64.2760 C   0  0  0  0  0  0  0  0  0  0  0  0
    1.3570   68.2980   63.1210 N   0  0  0  0  0  0  0  0  0  0  0  0
    2.1350   68.8400   62.1490 C   0  0  0  0  0  0  0  0  0  0  0  0
    1.3680   69.3890   61.2350 N   0  0  0  0  0  0  0  0  0  0  0  0
    0.1070   69.1520   61.7080 C   0  0  0  0  0  0  0  0  0  0  0  0
    0.0480   68.4670   62.8550 N   0  0  0  0  0  0  0  0  0  0  0  0
    1.0810   67.2670   66.7540 C   0  0  0  0  0  0  0  0  0  0  0  0
   -0.3400   67.2960   67.0210 N   0  0  0  0  0  0  0  0  0  0  0  0
   -0.9910   66.8950   68.1450 C   0  0  0  0  0  0  0  0  0  0  0  0
   -2.2710   67.1650   68.0260 N   0  0  0  0  0  0  0  0  0  0  0  0
   -2.3530   67.7410   66.7910 C   0  0  0  0  0  0  0  0  0  0  0  0
   -1.1900   67.8660   66.1430 N   0  0  0  0  0  0  0  0  0  0  0  0
    6.1755   69.5309   65.2669 H   0  0  0  0  0  0  0  0  0  0  0  0
    4.1092   68.4629   64.3694 H   0  0  0  0  0  0  0  0  0  0  0  0
    4.1128   70.5220   68.9224 H   0  0  0  0  0  0  0  0  0  0  0  0
    0.4399   69.7426   66.2907 H   0  0  0  0  0  0  0  0  0  0  0  0
    2.8333   67.2894   64.1563 H   0  0  0  0  0  0  0  0  0  0  0  0
    1.1066   66.6575   64.3058 H   0  0  0  0  0  0  0  0  0  0  0  0
    3.2347   68.8221   62.1301 H   0  0  0  0  0  0  0  0  0  0  0  0
   -0.7945   69.5000   61.1825 H   0  0  0  0  0  0  0  0  0  0  0  0
    1.3447   66.2432   66.4504 H   0  0  0  0  0  0  0  0  0  0  0  0
    1.5626   67.6011   67.6848 H   0  0  0  0  0  0  0  0  0  0  0  0
   -0.5197   66.4190   69.0175 H   0  0  0  0  0  0  0  0  0  0  0  0
   -3.3072   68.0781   66.3599 H   0  0  0  0  0  0  0  0  0  0  0  0
  3  2  1  0
  4  3  2  0
  5  4  1  0
  6  5  2  0
  6  1  1  0
  7  6  1  0
  8  7  2  0
  8  3  1  0
  9  7  1  0
 10  1  1  0
 11  1  1  0
 12 11  1  0
 13 12  1  0
 14 13  2  0
 15 14  1  0
 16 15  2  0
 16 12  1  0
 17  1  1  0
 18 17  1  0
 19 18  1  0
 20 19  2  0
 21 20  1  0
 22 21  2  0
 22 18  1  0
  4 23  1  0
  5 24  1  0
  8 25  1  0
 10 26  1  0
 11 27  1  0
 11 28  1  0
 13 29  1  0
 15 30  1  0
 17 31  1  0
 17 32  1  0
 19 33  1  0
 21 34  1  0
M  END
>  <score>  (3) 
-8.921

$$$$
=
     RDKit          3D

 34 36  0  0  0  0  0  0  0  0999 V2000
    1.6010   68.0250   65.7870 C   0  0  0  0  0  0  0  0  0  0  0  0
    6.5650   70.6470   66.7830 F   0  0  0  0  0  0  0  0  0  0  0  0
    5.4040   70.0270   66.5390 C   0  0  0  0  0  0  0  0  0  0  0  0
    5.2270   69.3510   65.3400 C   0  0  0  0  0  0  0  0  0  0  0  0
    4.0160   68.6990   65.0750 C   0  0  0  0  0  0  0  0  0  0  0  0
    2.9650   68.7150   66.0130 C   0  0  0  0  0  0  0  0  0  0  0  0
    3.1970   69.4140   67.2170 C   0  0  0  0  0  0  0  0  0  0  0  0
    4.3960   70.0650   67.4860 C   0  0  0  0  0  0  0  0  0  0  0  0
    2.2450   69.4490   68.1620 F   0  0  0  0  0  0  0  0  0  0  0  0
    1.5150   67.0690   66.8600 O   0  0  0  0  0  0  0  0  0  0  0  0
    0.4190   69.0090   65.9720 C   0  0  0  0  0  0  0  0  0  0  0  0
   -0.8150   68.4250   66.4390 N   0  0  0  0  0  0  0  0  0  0  0  0
   -2.0780   68.6590   65.9980 C   0  0  0  0  0  0  0  0  0  0  0  0
   -2.9130   67.8680   66.6330 N   0  0  0  0  0  0  0  0  0  0  0  0
   -2.0940   67.1610   67.4670 C   0  0  0  0  0  0  0  0  0  0  0  0
   -0.7920   67.4530   67.3710 N   0  0  0  0  0  0  0  0  0  0  0  0
    1.6160   67.3730   64.3670 C   0  0  0  0  0  0  0  0  0  0  0  0
    1.1930   68.2180   63.2720 N   0  0  0  0  0  0  0  0  0  0  0  0
   -0.0400   68.7430   63.0450 C   0  0  0  0  0  0  0  0  0  0  0  0
    0.0070   69.5260   61.9920 N   0  0  0  0  0  0  0  0  0  0  0  0
    1.3140   69.4450   61.6040 C   0  0  0  0  0  0  0  0  0  0  0  0
    2.0890   68.6730   62.3730 N   0  0  0  0  0  0  0  0  0  0  0  0
    6.0381   69.3272   64.5974 H   0  0  0  0  0  0  0  0  0  0  0  0
    3.8837   68.1671   64.1213 H   0  0  0  0  0  0  0  0  0  0  0  0
    4.5406   70.6011   68.4356 H   0  0  0  0  0  0  0  0  0  0  0  0
    1.5576   67.5427   67.7283 H   0  0  0  0  0  0  0  0  0  0  0  0
    0.7272   69.7742   66.6996 H   0  0  0  0  0  0  0  0  0  0  0  0
    0.2014   69.4075   64.9701 H   0  0  0  0  0  0  0  0  0  0  0  0
   -2.3579   69.3950   65.2299 H   0  0  0  0  0  0  0  0  0  0  0  0
   -2.4779   66.4051   68.1679 H   0  0  0  0  0  0  0  0  0  0  0  0
    2.6451   67.0445   64.1593 H   0  0  0  0  0  0  0  0  0  0  0  0
    0.8801   66.5565   64.4101 H   0  0  0  0  0  0  0  0  0  0  0  0
   -0.9372   68.5431   63.6492 H   0  0  0  0  0  0  0  0  0  0  0  0
    1.7013   69.9766   60.7223 H   0  0  0  0  0  0  0  0  0  0  0  0
  3  2  1  0
  4  3  2  0
  5  4  1  0
  6  5  2  0
  6  1  1  0
  7  6  1  0
  8  7  2  0
  8  3  1  0
  9  7  1  0
 10  1  1  0
 11  1  1  0
 12 11  1  0
 13 12  1  0
 14 13  2  0
 15 14  1  0
 16 15  2  0
 16 12  1  0
 17  1  1  0
 18 17  1  0
 19 18  1  0
 20 19  2  0
 21 20  1  0
 22 21  2  0
 22 18  1  0
  4 23  1  0
  5 24  1  0
  8 25  1  0
 10 26  1  0
 11 27  1  0
 11 28  1  0
 13 29  1  0
 15 30  1  0
 17 31  1  0
 17 32  1  0
 19 33  1  0
 21 34  1  0
M  END
>  <score>  (4) 
-7.96

$$$$
=
     RDKit          3D

 34 36  0  0  0  0  0  0  0  0999 V2000
    2.5350   68.3040   65.0300 C   0  0  0  0  0  0  0  0  0  0  0  0
    6.3130   71.0240   68.3230 F   0  0  0  0  0  0  0  0  0  0  0  0
    5.4340   70.3840   67.5420 C   0  0  0  0  0  0  0  0  0  0  0  0
    5.7970   70.0290   66.2500 C   0  0  0  0  0  0  0  0  0  0  0  0
    4.8860   69.3580   65.4240 C   0  0  0  0  0  0  0  0  0  0  0  0
    3.5950   69.0350   65.8860 C   0  0  0  0  0  0  0  0  0  0  0  0
    3.2760   69.4150   67.2060 C   0  0  0  0  0  0  0  0  0  0  0  0
    4.1760   70.0820   68.0310 C   0  0  0  0  0  0  0  0  0  0  0  0
    2.0710   69.1170   67.7150 F   0  0  0  0  0  0  0  0  0  0  0  0
    1.3210   69.0340   65.2850 O   0  0  0  0  0  0  0  0  0  0  0  0
    2.8250   68.4380   63.5150 C   0  0  0  0  0  0  0  0  0  0  0  0
    1.6990   68.8120   62.6920 N   0  0  0  0  0  0  0  0  0  0  0  0
    1.7040   69.4780   61.5100 C   0  0  0  0  0  0  0  0  0  0  0  0
    0.4770   69.5500   61.0470 N   0  0  0  0  0  0  0  0  0  0  0  0
   -0.2520   68.9030   62.0040 C   0  0  0  0  0  0  0  0  0  0  0  0
    0.4570   68.4130   63.0270 N   0  0  0  0  0  0  0  0  0  0  0  0
    2.4800   66.8120   65.4950 C   0  0  0  0  0  0  0  0  0  0  0  0
    3.2660   65.8740   64.7260 N   0  0  0  0  0  0  0  0  0  0  0  0
    4.2210   66.1430   63.7960 C   0  0  0  0  0  0  0  0  0  0  0  0
    4.7610   65.0170   63.3890 N   0  0  0  0  0  0  0  0  0  0  0  0
    4.0910   64.0720   64.1120 C   0  0  0  0  0  0  0  0  0  0  0  0
    3.1780   64.5500   64.9650 N   0  0  0  0  0  0  0  0  0  0  0  0
    6.8012   70.2749   65.8744 H   0  0  0  0  0  0  0  0  0  0  0  0
    5.1825   69.0799   64.4019 H   0  0  0  0  0  0  0  0  0  0  0  0
    3.8917   70.3645   69.0554 H   0  0  0  0  0  0  0  0  0  0  0  0
    1.1844   69.1162   66.2621 H   0  0  0  0  0  0  0  0  0  0  0  0
    3.6058   69.2022   63.3868 H   0  0  0  0  0  0  0  0  0  0  0  0
    3.1228   67.4344   63.1771 H   0  0  0  0  0  0  0  0  0  0  0  0
    2.5956   69.8926   61.0169 H   0  0  0  0  0  0  0  0  0  0  0  0
   -1.3445   68.7928   61.9381 H   0  0  0  0  0  0  0  0  0  0  0  0
    2.8334   66.7718   66.5359 H   0  0  0  0  0  0  0  0  0  0  0  0
    1.4340   66.5000   65.3592 H   0  0  0  0  0  0  0  0  0  0  0  0
    4.4979   67.1464   63.4403 H   0  0  0  0  0  0  0  0  0  0  0  0
    4.2878   62.9954   64.0010 H   0  0  0  0  0  0  0  0  0  0  0  0
  3  2  1  0
  4  3  2  0
  5  4  1  0
  6  5  2  0
  6  1  1  0
  7  6  1  0
  8  7  2  0
  8  3  1  0
  9  7  1  0
 10  1  1  0
 11  1  1  0
 12 11  1  0
 13 12  1  0
 14 13  2  0
 15 14  1  0
 16 15  2  0
 16 12  1  0
 17  1  1  0
 18 17  1  0
 19 18  1  0
 20 19  2  0
 21 20  1  0
 22 21  2  0
 22 18  1  0
  4 23  1  0
  5 24  1  0
  8 25  1  0
 10 26  1  0
 11 27  1  0
 11 28  1  0
 13 29  1  0
 15 30  1  0
 17 31  1  0
 17 32  1  0
 19 33  1  0
 21 34  1  0
M  END
>  <score>  (5) 
-7.925

$$$$
=
     RDKit          3D

 34 36  0  0  0  0  0  0  0  0999 V2000
    2.3920   68.7180   65.8590 C   0  0  0  0  0  0  0  0  0  0  0  0
    6.8470   71.0500   68.5470 F   0  0  0  0  0  0  0  0  0  0  0  0
    5.7950   70.5060   67.9250 C   0  0  0  0  0  0  0  0  0  0  0  0
    4.5560   70.4990   68.5520 C   0  0  0  0  0  0  0  0  0  0  0  0
    3.4480   69.9340   67.9090 C   0  0  0  0  0  0  0  0  0  0  0  0
    3.5680   69.3660   66.6260 C   0  0  0  0  0  0  0  0  0  0  0  0
    4.8470   69.4000   66.0310 C   0  0  0  0  0  0  0  0  0  0  0  0
    5.9520   69.9590   66.6640 C   0  0  0  0  0  0  0  0  0  0  0  0
    5.0250   68.8960   64.8000 F   0  0  0  0  0  0  0  0  0  0  0  0
    2.5400   67.3100   66.1250 O   0  0  0  0  0  0  0  0  0  0  0  0
    1.0210   69.1390   66.4430 C   0  0  0  0  0  0  0  0  0  0  0  0
    0.2440   68.0810   67.0430 N   0  0  0  0  0  0  0  0  0  0  0  0
    0.3880   67.5230   68.2720 C   0  0  0  0  0  0  0  0  0  0  0  0
   -0.5690   66.6440   68.4650 N   0  0  0  0  0  0  0  0  0  0  0  0
   -1.2810   66.7040   67.3000 C   0  0  0  0  0  0  0  0  0  0  0  0
   -0.8330   67.5880   66.4020 N   0  0  0  0  0  0  0  0  0  0  0  0
    2.5340   69.0880   64.3470 C   0  0  0  0  0  0  0  0  0  0  0  0
    1.3650   68.8710   63.5240 N   0  0  0  0  0  0  0  0  0  0  0  0
    0.7950   67.6880   63.1720 C   0  0  0  0  0  0  0  0  0  0  0  0
   -0.3020   67.9210   62.4890 N   0  0  0  0  0  0  0  0  0  0  0  0
   -0.3600   69.2840   62.4490 C   0  0  0  0  0  0  0  0  0  0  0  0
    0.6290   69.9150   63.0920 N   0  0  0  0  0  0  0  0  0  0  0  0
    4.4449   70.9377   69.5546 H   0  0  0  0  0  0  0  0  0  0  0  0
    2.4702   69.9338   68.4130 H   0  0  0  0  0  0  0  0  0  0  0  0
    6.9348   69.9661   66.1701 H   0  0  0  0  0  0  0  0  0  0  0  0
    2.5559   67.1589   67.1033 H   0  0  0  0  0  0  0  0  0  0  0  0
    1.2022   69.9034   67.2129 H   0  0  0  0  0  0  0  0  0  0  0  0
    0.4288   69.4977   65.5883 H   0  0  0  0  0  0  0  0  0  0  0  0
    1.1815   67.7683   68.9932 H   0  0  0  0  0  0  0  0  0  0  0  0
   -2.1605   66.0700   67.1141 H   0  0  0  0  0  0  0  0  0  0  0  0
    2.7942   70.1550   64.2856 H   0  0  0  0  0  0  0  0  0  0  0  0
    3.3039   68.4104   63.9492 H   0  0  0  0  0  0  0  0  0  0  0  0
    1.1906   66.6921   63.4203 H   0  0  0  0  0  0  0  0  0  0  0  0
   -1.1623   69.8248   61.9257 H   0  0  0  0  0  0  0  0  0  0  0  0
  3  2  1  0
  4  3  2  0
  5  4  1  0
  6  5  2  0
  6  1  1  0
  7  6  1  0
  8  7  2  0
  8  3  1  0
  9  7  1  0
 10  1  1  0
 11  1  1  0
 12 11  1  0
 13 12  1  0
 14 13  2  0
 15 14  1  0
 16 15  2  0
 16 12  1  0
 17  1  1  0
 18 17  1  0
 19 18  1  0
 20 19  2  0
 21 20  1  0
 22 21  2  0
 22 18  1  0
  4 23  1  0
  5 24  1  0
  8 25  1  0
 10 26  1  0
 11 27  1  0
 11 28  1  0
 13 29  1  0
 15 30  1  0
 17 31  1  0
 17 32  1  0
 19 33  1  0
 21 34  1  0
M  END
>  <score>  (6) 
-7.896

$$$$
=
     RDKit          3D

 34 36  0  0  0  0  0  0  0  0999 V2000
    3.0340   68.9450   65.7110 C   0  0  0  0  0  0  0  0  0  0  0  0
    6.7270   71.1750   69.4390 F   0  0  0  0  0  0  0  0  0  0  0  0
    5.8510   70.6540   68.5720 C   0  0  0  0  0  0  0  0  0  0  0  0
    4.5070   70.5880   68.9110 C   0  0  0  0  0  0  0  0  0  0  0  0
    3.5820   70.0460   68.0100 C   0  0  0  0  0  0  0  0  0  0  0  0
    3.9950   69.5630   66.7530 C   0  0  0  0  0  0  0  0  0  0  0  0
    5.3710   69.6550   66.4550 C   0  0  0  0  0  0  0  0  0  0  0  0
    6.2950   70.1910   67.3460 C   0  0  0  0  0  0  0  0  0  0  0  0
    5.8270   69.2340   65.2650 F   0  0  0  0  0  0  0  0  0  0  0  0
    3.1440   67.5280   65.9360 O   0  0  0  0  0  0  0  0  0  0  0  0
    1.5590   69.3270   65.9910 C   0  0  0  0  0  0  0  0  0  0  0  0
    0.7700   68.3240   66.6660 N   0  0  0  0  0  0  0  0  0  0  0  0
    0.7740   67.9950   67.9830 C   0  0  0  0  0  0  0  0  0  0  0  0
   -0.1470   67.0850   68.2060 N   0  0  0  0  0  0  0  0  0  0  0  0
   -0.6920   66.8890   66.9680 C   0  0  0  0  0  0  0  0  0  0  0  0
   -0.1750   67.6420   65.9910 N   0  0  0  0  0  0  0  0  0  0  0  0
    3.5050   69.3930   64.2900 C   0  0  0  0  0  0  0  0  0  0  0  0
    3.7480   68.3330   63.3360 N   0  0  0  0  0  0  0  0  0  0  0  0
    3.2720   68.2200   62.0670 C   0  0  0  0  0  0  0  0  0  0  0  0
    3.7940   67.1570   61.5000 N   0  0  0  0  0  0  0  0  0  0  0  0
    4.5960   66.6450   62.4780 C   0  0  0  0  0  0  0  0  0  0  0  0
    4.6210   67.3450   63.6180 N   0  0  0  0  0  0  0  0  0  0  0  0
    4.1679   70.9618   69.8884 H   0  0  0  0  0  0  0  0  0  0  0  0
    2.5188   69.9968   68.2877 H   0  0  0  0  0  0  0  0  0  0  0  0
    7.3610   70.2459   67.0803 H   0  0  0  0  0  0  0  0  0  0  0  0
    3.1579   67.3485   66.9095 H   0  0  0  0  0  0  0  0  0  0  0  0
    1.5571   70.2339   66.6135 H   0  0  0  0  0  0  0  0  0  0  0  0
    1.0918   69.4622   65.0044 H   0  0  0  0  0  0  0  0  0  0  0  0
    1.4432   68.4230   68.7439 H   0  0  0  0  0  0  0  0  0  0  0  0
   -1.4988   66.1633   66.7879 H   0  0  0  0  0  0  0  0  0  0  0  0
    2.7294   70.0509   63.8709 H   0  0  0  0  0  0  0  0  0  0  0  0
    4.4784   69.8821   64.4422 H   0  0  0  0  0  0  0  0  0  0  0  0
    2.5611   68.9109   61.5903 H   0  0  0  0  0  0  0  0  0  0  0  0
    5.1799   65.7232   62.3392 H   0  0  0  0  0  0  0  0  0  0  0  0
  3  2  1  0
  4  3  2  0
  5  4  1  0
  6  5  2  0
  6  1  1  0
  7  6  1  0
  8  7  2  0
  8  3  1  0
  9  7  1  0
 10  1  1  0
 11  1  1  0
 12 11  1  0
 13 12  1  0
 14 13  2  0
 15 14  1  0
 16 15  2  0
 16 12  1  0
 17  1  1  0
 18 17  1  0
 19 18  1  0
 20 19  2  0
 21 20  1  0
 22 21  2  0
 22 18  1  0
  4 23  1  0
  5 24  1  0
  8 25  1  0
 10 26  1  0
 11 27  1  0
 11 28  1  0
 13 29  1  0
 15 30  1  0
 17 31  1  0
 17 32  1  0
 19 33  1  0
 21 34  1  0
M  END
>  <score>  (7) 
-7.896

$$$$
=
     RDKit          3D

 34 36  0  0  0  0  0  0  0  0999 V2000
    2.5870   68.0610   64.9900 C   0  0  0  0  0  0  0  0  0  0  0  0
    4.4240   71.0380   69.4920 F   0  0  0  0  0  0  0  0  0  0  0  0
    4.0030   70.3410   68.4310 C   0  0  0  0  0  0  0  0  0  0  0  0
    4.8530   70.1630   67.3470 C   0  0  0  0  0  0  0  0  0  0  0  0
    4.4230   69.4330   66.2310 C   0  0  0  0  0  0  0  0  0  0  0  0
    3.1320   68.8710   66.1890 C   0  0  0  0  0  0  0  0  0  0  0  0
    2.3090   69.0780   67.3150 C   0  0  0  0  0  0  0  0  0  0  0  0
    2.7290   69.8020   68.4260 C   0  0  0  0  0  0  0  0  0  0  0  0
    1.0760   68.5490   67.3480 F   0  0  0  0  0  0  0  0  0  0  0  0
    3.6350   68.1500   64.0070 O   0  0  0  0  0  0  0  0  0  0  0  0
    2.4260   66.5600   65.3340 C   0  0  0  0  0  0  0  0  0  0  0  0
    3.2920   65.6560   64.6150 N   0  0  0  0  0  0  0  0  0  0  0  0
    4.1070   65.9280   63.5630 C   0  0  0  0  0  0  0  0  0  0  0  0
    4.7850   64.8480   63.2490 N   0  0  0  0  0  0  0  0  0  0  0  0
    4.3360   63.9270   64.1540 C   0  0  0  0  0  0  0  0  0  0  0  0
    3.4310   64.3820   65.0280 N   0  0  0  0  0  0  0  0  0  0  0  0
    1.2430   68.7150   64.5330 C   0  0  0  0  0  0  0  0  0  0  0  0
    1.1260   69.0130   63.1230 N   0  0  0  0  0  0  0  0  0  0  0  0
    0.1530   69.7240   62.4930 C   0  0  0  0  0  0  0  0  0  0  0  0
    0.4550   69.8420   61.2210 N   0  0  0  0  0  0  0  0  0  0  0  0
    1.6420   69.1750   61.1200 C   0  0  0  0  0  0  0  0  0  0  0  0
    2.1080   68.6670   62.2660 N   0  0  0  0  0  0  0  0  0  0  0  0
    5.8643   70.5954   67.3647 H   0  0  0  0  0  0  0  0  0  0  0  0
    5.1023   69.2970   65.3766 H   0  0  0  0  0  0  0  0  0  0  0  0
    2.0589   69.9437   69.2867 H   0  0  0  0  0  0  0  0  0  0  0  0
    4.5103   68.2243   64.4636 H   0  0  0  0  0  0  0  0  0  0  0  0
    2.6259   66.4363   66.4086 H   0  0  0  0  0  0  0  0  0  0  0  0
    1.4011   66.2928   65.0369 H   0  0  0  0  0  0  0  0  0  0  0  0
    4.1866   66.9000   63.0541 H   0  0  0  0  0  0  0  0  0  0  0  0
    4.6931   62.8866   64.1630 H   0  0  0  0  0  0  0  0  0  0  0  0
    0.4271   68.0271   64.7996 H   0  0  0  0  0  0  0  0  0  0  0  0
    1.1997   69.6879   65.0445 H   0  0  0  0  0  0  0  0  0  0  0  0
   -0.7464   70.1358   62.9740 H   0  0  0  0  0  0  0  0  0  0  0  0
    2.1764   69.0635   60.1650 H   0  0  0  0  0  0  0  0  0  0  0  0
  3  2  1  0
  4  3  2  0
  5  4  1  0
  6  5  2  0
  6  1  1  0
  7  6  1  0
  8  7  2  0
  8  3  1  0
  9  7  1  0
 10  1  1  0
 11  1  1  0
 12 11  1  0
 13 12  1  0
 14 13  2  0
 15 14  1  0
 16 15  2  0
 16 12  1  0
 17  1  1  0
 18 17  1  0
 19 18  1  0
 20 19  2  0
 21 20  1  0
 22 21  2  0
 22 18  1  0
  4 23  1  0
  5 24  1  0
  8 25  1  0
 10 26  1  0
 11 27  1  0
 11 28  1  0
 13 29  1  0
 15 30  1  0
 17 31  1  0
 17 32  1  0
 19 33  1  0
 21 34  1  0
M  END
>  <score>  (8) 
-7.723

$$$$
=
     RDKit          3D

 34 36  0  0  0  0  0  0  0  0999 V2000
    2.5560   60.7870   72.5600 C   0  0  0  0  0  0  0  0  0  0  0  0
    3.9560   63.3210   67.6480 F   0  0  0  0  0  0  0  0  0  0  0  0
    3.6260   62.7370   68.8060 C   0  0  0  0  0  0  0  0  0  0  0  0
    3.4170   63.5190   69.9330 C   0  0  0  0  0  0  0  0  0  0  0  0
    3.0710   62.9180   71.1500 C   0  0  0  0  0  0  0  0  0  0  0  0
    2.9280   61.5200   71.2510 C   0  0  0  0  0  0  0  0  0  0  0  0
    3.1490   60.7700   70.0770 C   0  0  0  0  0  0  0  0  0  0  0  0
    3.4940   61.3610   68.8660 C   0  0  0  0  0  0  0  0  0  0  0  0
    3.0070   59.4360   70.1000 F   0  0  0  0  0  0  0  0  0  0  0  0
    1.2300   60.2860   72.3110 O   0  0  0  0  0  0  0  0  0  0  0  0
    3.4600   59.5540   72.8070 C   0  0  0  0  0  0  0  0  0  0  0  0
    2.7940   58.3850   73.3320 N   0  0  0  0  0  0  0  0  0  0  0  0
    2.6320   58.0200   74.6300 C   0  0  0  0  0  0  0  0  0  0  0  0
    1.9020   56.9300   74.6860 N   0  0  0  0  0  0  0  0  0  0  0  0
    1.6430   56.6640   73.3710 C   0  0  0  0  0  0  0  0  0  0  0  0
    2.1540   57.5430   72.5010 N   0  0  0  0  0  0  0  0  0  0  0  0
    2.6250   61.8200   73.7320 C   0  0  0  0  0  0  0  0  0  0  0  0
    1.3570   62.2820   74.2510 N   0  0  0  0  0  0  0  0  0  0  0  0
    0.7190   63.4540   73.9890 C   0  0  0  0  0  0  0  0  0  0  0  0
   -0.4490   63.4570   74.5880 N   0  0  0  0  0  0  0  0  0  0  0  0
   -0.4810   62.2430   75.2130 C   0  0  0  0  0  0  0  0  0  0  0  0
    0.5960   61.4740   75.0180 N   0  0  0  0  0  0  0  0  0  0  0  0
    3.5231   64.6121   69.8706 H   0  0  0  0  0  0  0  0  0  0  0  0
    2.9088   63.5458   72.0386 H   0  0  0  0  0  0  0  0  0  0  0  0
    3.6593   60.7442   67.9703 H   0  0  0  0  0  0  0  0  0  0  0  0
    0.7749   60.1140   73.1732 H   0  0  0  0  0  0  0  0  0  0  0  0
    3.9235   59.2772   71.8486 H   0  0  0  0  0  0  0  0  0  0  0  0
    4.1813   59.8605   73.5789 H   0  0  0  0  0  0  0  0  0  0  0  0
    3.0470   58.5535   75.4978 H   0  0  0  0  0  0  0  0  0  0  0  0
    1.0566   55.7902   73.0506 H   0  0  0  0  0  0  0  0  0  0  0  0
    3.1761   61.3512   74.5606 H   0  0  0  0  0  0  0  0  0  0  0  0
    3.1130   62.7112   73.3106 H   0  0  0  0  0  0  0  0  0  0  0  0
    1.1192   64.2717   73.3716 H   0  0  0  0  0  0  0  0  0  0  0  0
   -1.3312   61.9208   75.8321 H   0  0  0  0  0  0  0  0  0  0  0  0
  3  2  1  0
  4  3  2  0
  5  4  1  0
  6  5  2  0
  6  1  1  0
  7  6  1  0
  8  7  2  0
  8  3  1  0
  9  7  1  0
 10  1  1  0
 11  1  1  0
 12 11  1  0
 13 12  1  0
 14 13  2  0
 15 14  1  0
 16 15  2  0
 16 12  1  0
 17  1  1  0
 18 17  1  0
 19 18  1  0
 20 19  2  0
 21 20  1  0
 22 21  2  0
 22 18  1  0
  4 23  1  0
  5 24  1  0
  8 25  1  0
 10 26  1  0
 11 27  1  0
 11 28  1  0
 13 29  1  0
 15 30  1  0
 17 31  1  0
 17 32  1  0
 19 33  1  0
 21 34  1  0
M  END
>  <score>  (9) 
-7.05

$$$$
