=
     RDKit          3D

 42 41  0  0  0  0  0  0  0  0999 V2000
    3.8460   67.8270   62.4050 C   0  0  0  0  0  0  0  0  0  0  0  0
    4.0880   66.6790   62.0540 O   0  0  0  0  0  0  0  0  0  0  0  0
    4.9830   68.7040   62.9140 C   0  0  0  0  0  0  0  0  0  0  0  0
    5.5710   69.4370   62.1290 O   0  0  0  0  0  0  0  0  0  0  0  0
    5.2980   68.5820   64.3880 C   0  0  0  0  0  0  0  0  0  0  0  0
    4.9560   69.8600   65.1540 C   0  0  0  0  0  0  0  0  0  0  0  0
    5.0420   69.7000   66.6740 C   0  0  0  0  0  0  0  0  0  0  0  0
    6.3130   70.3000   67.2780 C   0  0  0  0  0  0  0  0  0  0  0  0
    6.0100   71.0470   68.5770 C   0  0  0  0  0  0  0  0  0  0  0  0
    4.6460   70.6700   69.1320 C   0  0  0  0  0  0  0  0  0  0  0  0
    2.4680   68.4440   62.3510 C   0  0  0  0  0  0  0  0  0  0  0  0
    1.8360   68.6100   63.7280 C   0  0  0  0  0  0  0  0  0  0  0  0
    1.6890   67.3260   64.5560 C   0  0  0  0  0  0  0  0  0  0  0  0
    2.1040   67.4560   66.0270 C   0  0  0  0  0  0  0  0  0  0  0  0
    1.4450   69.2860   67.6850 C   0  0  0  0  0  0  0  0  0  0  0  0
    1.0360   68.0010   66.9800 C   0  0  0  0  0  0  0  0  0  0  0  0
    4.7149   67.7493   64.8081 H   0  0  0  0  0  0  0  0  0  0  0  0
    6.3784   68.4028   64.4910 H   0  0  0  0  0  0  0  0  0  0  0  0
    5.6578   70.6492   64.8463 H   0  0  0  0  0  0  0  0  0  0  0  0
    3.9131   70.1135   64.9130 H   0  0  0  0  0  0  0  0  0  0  0  0
    4.1721   70.1984   67.1267 H   0  0  0  0  0  0  0  0  0  0  0  0
    5.0603   68.6208   66.8860 H   0  0  0  0  0  0  0  0  0  0  0  0
    7.0270   69.4901   67.4883 H   0  0  0  0  0  0  0  0  0  0  0  0
    6.7371   71.0142   66.5569 H   0  0  0  0  0  0  0  0  0  0  0  0
    6.7803   70.7965   69.3213 H   0  0  0  0  0  0  0  0  0  0  0  0
    6.0087   72.1258   68.3622 H   0  0  0  0  0  0  0  0  0  0  0  0
    4.6820   70.6799   70.2314 H   0  0  0  0  0  0  0  0  0  0  0  0
    3.8952   71.3943   68.7831 H   0  0  0  0  0  0  0  0  0  0  0  0
    4.3738   69.6629   68.7831 H   0  0  0  0  0  0  0  0  0  0  0  0
    2.5456   69.4346   61.8791 H   0  0  0  0  0  0  0  0  0  0  0  0
    1.8250   67.7636   61.7735 H   0  0  0  0  0  0  0  0  0  0  0  0
    2.4582   69.3122   64.3022 H   0  0  0  0  0  0  0  0  0  0  0  0
    0.8113   68.9657   63.5449 H   0  0  0  0  0  0  0  0  0  0  0  0
    0.6335   67.0179   64.5245 H   0  0  0  0  0  0  0  0  0  0  0  0
    2.3709   66.5890   64.1067 H   0  0  0  0  0  0  0  0  0  0  0  0
    2.3956   66.4572   66.3840 H   0  0  0  0  0  0  0  0  0  0  0  0
    2.9190   68.1946   66.0412 H   0  0  0  0  0  0  0  0  0  0  0  0
    1.3978   69.1378   68.7739 H   0  0  0  0  0  0  0  0  0  0  0  0
    2.4723   69.5522   67.3953 H   0  0  0  0  0  0  0  0  0  0  0  0
    0.7606   70.0970   67.3953 H   0  0  0  0  0  0  0  0  0  0  0  0
    0.8289   67.2366   67.7434 H   0  0  0  0  0  0  0  0  0  0  0  0
    0.1506   68.2358   66.3709 H   0  0  0  0  0  0  0  0  0  0  0  0
  2  1  2  0
  3  1  1  0
  4  3  2  0
  5  3  1  0
  6  5  1  0
  7  6  1  0
  8  7  1  0
  9  8  1  0
 10  9  1  0
 11  1  1  0
 12 11  1  0
 13 12  1  0
 14 13  1  0
 16 15  1  0
 16 14  1  0
  5 17  1  0
  5 18  1  0
  6 19  1  0
  6 20  1  0
  7 21  1  0
  7 22  1  0
  8 23  1  0
  8 24  1  0
  9 25  1  0
  9 26  1  0
 10 27  1  0
 10 28  1  0
 10 29  1  0
 11 30  1  0
 11 31  1  0
 12 32  1  0
 12 33  1  0
 13 34  1  0
 13 35  1  0
 14 36  1  0
 14 37  1  0
 15 38  1  0
 15 39  1  0
 15 40  1  0
 16 41  1  0
 16 42  1  0
M  END
>  <score>  (1) 
-6.313

$$$$
=
     RDKit          3D

 42 41  0  0  0  0  0  0  0  0999 V2000
    1.2600   67.9050   67.0690 C   0  0  0  0  0  0  0  0  0  0  0  0
    1.2030   67.0010   67.8930 O   0  0  0  0  0  0  0  0  0  0  0  0
    1.0380   67.5830   65.5960 C   0  0  0  0  0  0  0  0  0  0  0  0
    0.9240   66.4140   65.2500 O   0  0  0  0  0  0  0  0  0  0  0  0
    0.9820   68.7720   64.6640 C   0  0  0  0  0  0  0  0  0  0  0  0
    0.8290   68.3480   63.2030 C   0  0  0  0  0  0  0  0  0  0  0  0
    2.0220   68.7400   62.3280 C   0  0  0  0  0  0  0  0  0  0  0  0
    3.3420   68.1140   62.7830 C   0  0  0  0  0  0  0  0  0  0  0  0
    4.5240   69.0380   62.4900 C   0  0  0  0  0  0  0  0  0  0  0  0
    5.6940   68.7570   63.4180 C   0  0  0  0  0  0  0  0  0  0  0  0
    1.5270   69.3470   67.4280 C   0  0  0  0  0  0  0  0  0  0  0  0
    2.9770   69.6030   67.8240 C   0  0  0  0  0  0  0  0  0  0  0  0
    3.9970   69.5830   66.6780 C   0  0  0  0  0  0  0  0  0  0  0  0
    5.3810   70.1390   67.0370 C   0  0  0  0  0  0  0  0  0  0  0  0
    6.9840   70.9690   68.8460 C   0  0  0  0  0  0  0  0  0  0  0  0
    5.5420   70.6660   68.4660 C   0  0  0  0  0  0  0  0  0  0  0  0
    0.1242   69.4016   64.9427 H   0  0  0  0  0  0  0  0  0  0  0  0
    1.9286   69.3239   64.7602 H   0  0  0  0  0  0  0  0  0  0  0  0
    0.7149   67.2545   63.1674 H   0  0  0  0  0  0  0  0  0  0  0  0
   -0.0523   68.8713   62.8037 H   0  0  0  0  0  0  0  0  0  0  0  0
    1.8195   68.4153   61.2967 H   0  0  0  0  0  0  0  0  0  0  0  0
    2.1367   69.8312   62.4058 H   0  0  0  0  0  0  0  0  0  0  0  0
    3.2947   67.9248   63.8656 H   0  0  0  0  0  0  0  0  0  0  0  0
    3.4899   67.1745   62.2303 H   0  0  0  0  0  0  0  0  0  0  0  0
    4.8480   68.8851   61.4500 H   0  0  0  0  0  0  0  0  0  0  0  0
    4.1982   70.0764   62.6501 H   0  0  0  0  0  0  0  0  0  0  0  0
    5.3605   68.8371   64.4632 H   0  0  0  0  0  0  0  0  0  0  0  0
    6.0745   67.7419   63.2313 H   0  0  0  0  0  0  0  0  0  0  0  0
    6.4940   69.4886   63.2313 H   0  0  0  0  0  0  0  0  0  0  0  0
    1.2848   69.9755   66.5583 H   0  0  0  0  0  0  0  0  0  0  0  0
    0.8999   69.5913   68.2981 H   0  0  0  0  0  0  0  0  0  0  0  0
    3.0264   70.5924   68.3022 H   0  0  0  0  0  0  0  0  0  0  0  0
    3.2566   68.7706   68.4866 H   0  0  0  0  0  0  0  0  0  0  0  0
    4.1219   68.5406   66.3496 H   0  0  0  0  0  0  0  0  0  0  0  0
    3.5937   70.2405   65.8938 H   0  0  0  0  0  0  0  0  0  0  0  0
    6.1158   69.3336   66.8904 H   0  0  0  0  0  0  0  0  0  0  0  0
    5.5306   71.0092   66.3810 H   0  0  0  0  0  0  0  0  0  0  0  0
    7.0780   70.9888   69.9418 H   0  0  0  0  0  0  0  0  0  0  0  0
    7.6429   70.1897   68.4354 H   0  0  0  0  0  0  0  0  0  0  0  0
    7.2735   71.9476   68.4354 H   0  0  0  0  0  0  0  0  0  0  0  0
    5.1510   69.9090   69.1617 H   0  0  0  0  0  0  0  0  0  0  0  0
    4.9876   71.6143   68.5239 H   0  0  0  0  0  0  0  0  0  0  0  0
  2  1  2  0
  3  1  1  0
  4  3  2  0
  5  3  1  0
  6  5  1  0
  7  6  1  0
  8  7  1  0
  9  8  1  0
 10  9  1  0
 11  1  1  0
 12 11  1  0
 13 12  1  0
 14 13  1  0
 16 15  1  0
 16 14  1  0
  5 17  1  0
  5 18  1  0
  6 19  1  0
  6 20  1  0
  7 21  1  0
  7 22  1  0
  8 23  1  0
  8 24  1  0
  9 25  1  0
  9 26  1  0
 10 27  1  0
 10 28  1  0
 10 29  1  0
 11 30  1  0
 11 31  1  0
 12 32  1  0
 12 33  1  0
 13 34  1  0
 13 35  1  0
 14 36  1  0
 14 37  1  0
 15 38  1  0
 15 39  1  0
 15 40  1  0
 16 41  1  0
 16 42  1  0
M  END
>  <score>  (2) 
-6.299

$$$$
=
     RDKit          3D

 42 41  0  0  0  0  0  0  0  0999 V2000
    2.3250   68.6950   62.2210 C   0  0  0  0  0  0  0  0  0  0  0  0
    1.7430   69.1620   61.2500 O   0  0  0  0  0  0  0  0  0  0  0  0
    3.7460   68.1720   62.0540 C   0  0  0  0  0  0  0  0  0  0  0  0
    3.9200   67.0060   61.7260 O   0  0  0  0  0  0  0  0  0  0  0  0
    4.8500   69.1700   62.3240 C   0  0  0  0  0  0  0  0  0  0  0  0
    5.9740   68.5680   63.1660 C   0  0  0  0  0  0  0  0  0  0  0  0
    5.5980   68.3760   64.6370 C   0  0  0  0  0  0  0  0  0  0  0  0
    5.0190   69.6350   65.2850 C   0  0  0  0  0  0  0  0  0  0  0  0
    5.6570   69.9000   66.6490 C   0  0  0  0  0  0  0  0  0  0  0  0
    4.6060   70.1830   67.7100 C   0  0  0  0  0  0  0  0  0  0  0  0
    1.7160   68.6170   63.6010 C   0  0  0  0  0  0  0  0  0  0  0  0
    2.0560   67.3210   64.3280 C   0  0  0  0  0  0  0  0  0  0  0  0
    2.0650   67.3960   65.8610 C   0  0  0  0  0  0  0  0  0  0  0  0
    1.5780   68.7280   66.4440 C   0  0  0  0  0  0  0  0  0  0  0  0
   -0.4190   67.3410   67.2310 C   0  0  0  0  0  0  0  0  0  0  0  0
    0.3430   68.6540   67.3470 C   0  0  0  0  0  0  0  0  0  0  0  0
    5.2672   69.5063   61.3634 H   0  0  0  0  0  0  0  0  0  0  0  0
    4.4175   70.0105   62.8866 H   0  0  0  0  0  0  0  0  0  0  0  0
    6.2390   67.5876   62.7434 H   0  0  0  0  0  0  0  0  0  0  0  0
    6.8155   69.2758   63.1365 H   0  0  0  0  0  0  0  0  0  0  0  0
    4.8487   67.5734   64.7036 H   0  0  0  0  0  0  0  0  0  0  0  0
    6.5225   68.1275   65.1789 H   0  0  0  0  0  0  0  0  0  0  0  0
    5.2082   70.4962   64.6273 H   0  0  0  0  0  0  0  0  0  0  0  0
    3.9387   69.4863   65.4295 H   0  0  0  0  0  0  0  0  0  0  0  0
    6.2390   69.0162   66.9492 H   0  0  0  0  0  0  0  0  0  0  0  0
    6.3053   70.7843   66.5609 H   0  0  0  0  0  0  0  0  0  0  0  0
    5.0515   70.0630   68.7086 H   0  0  0  0  0  0  0  0  0  0  0  0
    4.2365   71.2126   67.5946 H   0  0  0  0  0  0  0  0  0  0  0  0
    3.7694   69.4781   67.5946 H   0  0  0  0  0  0  0  0  0  0  0  0
    2.0895   69.4623   64.1976 H   0  0  0  0  0  0  0  0  0  0  0  0
    0.6230   68.6510   63.4815 H   0  0  0  0  0  0  0  0  0  0  0  0
    1.3151   66.5638   64.0318 H   0  0  0  0  0  0  0  0  0  0  0  0
    3.0879   67.0769   64.0354 H   0  0  0  0  0  0  0  0  0  0  0  0
    1.4154   66.5963   66.2463 H   0  0  0  0  0  0  0  0  0  0  0  0
    3.1155   67.2894   66.1694 H   0  0  0  0  0  0  0  0  0  0  0  0
    2.4009   69.1582   67.0338 H   0  0  0  0  0  0  0  0  0  0  0  0
    1.2772   69.3379   65.5794 H   0  0  0  0  0  0  0  0  0  0  0  0
   -0.6422   66.9565   68.2371 H   0  0  0  0  0  0  0  0  0  0  0  0
   -1.3595   67.5098   66.6860 H   0  0  0  0  0  0  0  0  0  0  0  0
    0.1941   66.6081   66.6860 H   0  0  0  0  0  0  0  0  0  0  0  0
   -0.3362   69.4755   67.0753 H   0  0  0  0  0  0  0  0  0  0  0  0
    0.6976   68.7306   68.3855 H   0  0  0  0  0  0  0  0  0  0  0  0
  2  1  2  0
  3  1  1  0
  4  3  2  0
  5  3  1  0
  6  5  1  0
  7  6  1  0
  8  7  1  0
  9  8  1  0
 10  9  1  0
 11  1  1  0
 12 11  1  0
 13 12  1  0
 14 13  1  0
 16 15  1  0
 16 14  1  0
  5 17  1  0
  5 18  1  0
  6 19  1  0
  6 20  1  0
  7 21  1  0
  7 22  1  0
  8 23  1  0
  8 24  1  0
  9 25  1  0
  9 26  1  0
 10 27  1  0
 10 28  1  0
 10 29  1  0
 11 30  1  0
 11 31  1  0
 12 32  1  0
 12 33  1  0
 13 34  1  0
 13 35  1  0
 14 36  1  0
 14 37  1  0
 15 38  1  0
 15 39  1  0
 15 40  1  0
 16 41  1  0
 16 42  1  0
M  END
>  <score>  (3) 
-6.206

$$$$
=
     RDKit          3D

 42 41  0  0  0  0  0  0  0  0999 V2000
    1.5850   67.2640   65.1120 C   0  0  0  0  0  0  0  0  0  0  0  0
    1.1890   66.1120   64.9910 O   0  0  0  0  0  0  0  0  0  0  0  0
    2.9030   67.6680   64.4630 C   0  0  0  0  0  0  0  0  0  0  0  0
    3.5330   66.8380   63.8200 O   0  0  0  0  0  0  0  0  0  0  0  0
    3.3320   69.1020   64.6820 C   0  0  0  0  0  0  0  0  0  0  0  0
    4.7390   69.1950   65.2720 C   0  0  0  0  0  0  0  0  0  0  0  0
    4.7740   69.8190   66.6690 C   0  0  0  0  0  0  0  0  0  0  0  0
    6.1840   70.1770   67.1400 C   0  0  0  0  0  0  0  0  0  0  0  0
    6.1450   71.1500   68.3190 C   0  0  0  0  0  0  0  0  0  0  0  0
    7.3070   70.9190   69.2710 C   0  0  0  0  0  0  0  0  0  0  0  0
    0.8290   68.3320   65.8650 C   0  0  0  0  0  0  0  0  0  0  0  0
    1.1130   68.3170   67.3630 C   0  0  0  0  0  0  0  0  0  0  0  0
    0.6380   67.0700   68.1220 C   0  0  0  0  0  0  0  0  0  0  0  0
    1.1950   66.9300   69.5450 C   0  0  0  0  0  0  0  0  0  0  0  0
    0.8420   64.6630   70.6690 C   0  0  0  0  0  0  0  0  0  0  0  0
    0.3530   66.0960   70.5140 C   0  0  0  0  0  0  0  0  0  0  0  0
    3.3162   69.6288   63.7165 H   0  0  0  0  0  0  0  0  0  0  0  0
    2.6328   69.5604   65.3968 H   0  0  0  0  0  0  0  0  0  0  0  0
    5.1589   68.1801   65.3331 H   0  0  0  0  0  0  0  0  0  0  0  0
    5.3253   69.8493   64.6101 H   0  0  0  0  0  0  0  0  0  0  0  0
    4.1674   70.7365   66.6562 H   0  0  0  0  0  0  0  0  0  0  0  0
    4.3788   69.0685   67.3694 H   0  0  0  0  0  0  0  0  0  0  0  0
    6.7022   69.2579   67.4508 H   0  0  0  0  0  0  0  0  0  0  0  0
    6.7160   70.6609   66.3076 H   0  0  0  0  0  0  0  0  0  0  0  0
    6.1971   72.1794   67.9347 H   0  0  0  0  0  0  0  0  0  0  0  0
    5.2083   70.9850   68.8716 H   0  0  0  0  0  0  0  0  0  0  0  0
    6.9502   70.9899   70.3091 H   0  0  0  0  0  0  0  0  0  0  0  0
    7.7308   69.9190   69.0965 H   0  0  0  0  0  0  0  0  0  0  0  0
    8.0810   71.6808   69.0965 H   0  0  0  0  0  0  0  0  0  0  0  0
    1.1167   69.3148   65.4632 H   0  0  0  0  0  0  0  0  0  0  0  0
   -0.2444   68.1326   65.7310 H   0  0  0  0  0  0  0  0  0  0  0  0
    2.2010   68.4016   67.5008 H   0  0  0  0  0  0  0  0  0  0  0  0
    0.5413   69.1576   67.7833 H   0  0  0  0  0  0  0  0  0  0  0  0
   -0.4595   67.1063   68.1864 H   0  0  0  0  0  0  0  0  0  0  0  0
    1.0119   66.2033   67.5571 H   0  0  0  0  0  0  0  0  0  0  0  0
    2.1883   66.4627   69.4736 H   0  0  0  0  0  0  0  0  0  0  0  0
    1.2066   67.9481   69.9614 H   0  0  0  0  0  0  0  0  0  0  0  0
    0.9257   64.4177   71.7380 H   0  0  0  0  0  0  0  0  0  0  0  0
    0.1268   63.9777   70.1905 H   0  0  0  0  0  0  0  0  0  0  0  0
    1.8269   64.5579   70.1905 H   0  0  0  0  0  0  0  0  0  0  0  0
   -0.6822   66.0719   70.1429 H   0  0  0  0  0  0  0  0  0  0  0  0
    0.4324   66.5724   71.5023 H   0  0  0  0  0  0  0  0  0  0  0  0
  2  1  2  0
  3  1  1  0
  4  3  2  0
  5  3  1  0
  6  5  1  0
  7  6  1  0
  8  7  1  0
  9  8  1  0
 10  9  1  0
 11  1  1  0
 12 11  1  0
 13 12  1  0
 14 13  1  0
 16 15  1  0
 16 14  1  0
  5 17  1  0
  5 18  1  0
  6 19  1  0
  6 20  1  0
  7 21  1  0
  7 22  1  0
  8 23  1  0
  8 24  1  0
  9 25  1  0
  9 26  1  0
 10 27  1  0
 10 28  1  0
 10 29  1  0
 11 30  1  0
 11 31  1  0
 12 32  1  0
 12 33  1  0
 13 34  1  0
 13 35  1  0
 14 36  1  0
 14 37  1  0
 15 38  1  0
 15 39  1  0
 15 40  1  0
 16 41  1  0
 16 42  1  0
M  END
>  <score>  (4) 
-6.178

$$$$
=
     RDKit          3D

 42 41  0  0  0  0  0  0  0  0999 V2000
    3.7090   67.6560   64.2140 C   0  0  0  0  0  0  0  0  0  0  0  0
    4.2100   66.8120   63.4810 O   0  0  0  0  0  0  0  0  0  0  0  0
    2.5100   67.2760   65.0730 C   0  0  0  0  0  0  0  0  0  0  0  0
    2.3460   66.1040   65.3880 O   0  0  0  0  0  0  0  0  0  0  0  0
    1.5970   68.4150   65.4700 C   0  0  0  0  0  0  0  0  0  0  0  0
    1.6670   68.7100   66.9670 C   0  0  0  0  0  0  0  0  0  0  0  0
    0.2930   68.8830   67.6190 C   0  0  0  0  0  0  0  0  0  0  0  0
   -0.8540   68.9550   66.6090 C   0  0  0  0  0  0  0  0  0  0  0  0
   -1.9430   67.9310   66.9320 C   0  0  0  0  0  0  0  0  0  0  0  0
   -1.4300   66.8500   67.8690 C   0  0  0  0  0  0  0  0  0  0  0  0
    4.2230   69.0710   64.3310 C   0  0  0  0  0  0  0  0  0  0  0  0
    5.3800   69.2030   65.3150 C   0  0  0  0  0  0  0  0  0  0  0  0
    5.1360   70.1270   66.5160 C   0  0  0  0  0  0  0  0  0  0  0  0
    6.3930   70.4910   67.3160 C   0  0  0  0  0  0  0  0  0  0  0  0
    4.7260   70.7200   69.2400 C   0  0  0  0  0  0  0  0  0  0  0  0
    6.1880   70.7300   68.8150 C   0  0  0  0  0  0  0  0  0  0  0  0
    1.8940   69.3177   64.9160 H   0  0  0  0  0  0  0  0  0  0  0  0
    0.5644   68.1220   65.2296 H   0  0  0  0  0  0  0  0  0  0  0  0
    2.1852   67.8759   67.4626 H   0  0  0  0  0  0  0  0  0  0  0  0
    2.2038   69.6629   67.0847 H   0  0  0  0  0  0  0  0  0  0  0  0
    0.1148   68.0288   68.2887 H   0  0  0  0  0  0  0  0  0  0  0  0
    0.3089   69.8400   68.1611 H   0  0  0  0  0  0  0  0  0  0  0  0
   -1.2916   69.9639   66.6349 H   0  0  0  0  0  0  0  0  0  0  0  0
   -0.4518   68.7311   65.6099 H   0  0  0  0  0  0  0  0  0  0  0  0
   -2.7885   68.4471   67.4104 H   0  0  0  0  0  0  0  0  0  0  0  0
   -2.2572   67.4530   65.9924 H   0  0  0  0  0  0  0  0  0  0  0  0
   -1.5804   67.1669   68.9116 H   0  0  0  0  0  0  0  0  0  0  0  0
   -1.9806   65.9153   67.6868 H   0  0  0  0  0  0  0  0  0  0  0  0
   -0.3578   66.6854   67.6868 H   0  0  0  0  0  0  0  0  0  0  0  0
    4.5657   69.4029   63.3398 H   0  0  0  0  0  0  0  0  0  0  0  0
    3.3969   69.6919   64.7079 H   0  0  0  0  0  0  0  0  0  0  0  0
    5.6089   68.1994   65.7028 H   0  0  0  0  0  0  0  0  0  0  0  0
    6.2025   69.6629   64.7476 H   0  0  0  0  0  0  0  0  0  0  0  0
    4.6857   71.0592   66.1441 H   0  0  0  0  0  0  0  0  0  0  0  0
    4.4818   69.5721   67.2045 H   0  0  0  0  0  0  0  0  0  0  0  0
    7.1147   69.6688   67.2017 H   0  0  0  0  0  0  0  0  0  0  0  0
    6.7377   71.4520   66.9065 H   0  0  0  0  0  0  0  0  0  0  0  0
    4.6634   70.7196   70.3382 H   0  0  0  0  0  0  0  0  0  0  0  0
    4.2230   71.6147   68.8444 H   0  0  0  0  0  0  0  0  0  0  0  0
    4.2353   69.8185   68.8444 H   0  0  0  0  0  0  0  0  0  0  0  0
    6.6184   71.7089   69.0730 H   0  0  0  0  0  0  0  0  0  0  0  0
    6.6832   69.9024   69.3441 H   0  0  0  0  0  0  0  0  0  0  0  0
  2  1  2  0
  3  1  1  0
  4  3  2  0
  5  3  1  0
  6  5  1  0
  7  6  1  0
  8  7  1  0
  9  8  1  0
 10  9  1  0
 11  1  1  0
 12 11  1  0
 13 12  1  0
 14 13  1  0
 16 15  1  0
 16 14  1  0
  5 17  1  0
  5 18  1  0
  6 19  1  0
  6 20  1  0
  7 21  1  0
  7 22  1  0
  8 23  1  0
  8 24  1  0
  9 25  1  0
  9 26  1  0
 10 27  1  0
 10 28  1  0
 10 29  1  0
 11 30  1  0
 11 31  1  0
 12 32  1  0
 12 33  1  0
 13 34  1  0
 13 35  1  0
 14 36  1  0
 14 37  1  0
 15 38  1  0
 15 39  1  0
 15 40  1  0
 16 41  1  0
 16 42  1  0
M  END
>  <score>  (5) 
-6.169

$$$$
=
     RDKit          3D

 42 41  0  0  0  0  0  0  0  0999 V2000
    1.3460   67.3330   65.4870 C   0  0  0  0  0  0  0  0  0  0  0  0
    0.9570   66.3000   64.9560 O   0  0  0  0  0  0  0  0  0  0  0  0
    0.3230   68.3780   65.9150 C   0  0  0  0  0  0  0  0  0  0  0  0
   -0.3310   68.9610   65.0600 O   0  0  0  0  0  0  0  0  0  0  0  0
    0.2080   68.6130   67.4040 C   0  0  0  0  0  0  0  0  0  0  0  0
   -0.1390   67.3320   68.1620 C   0  0  0  0  0  0  0  0  0  0  0  0
    0.9170   66.9300   69.1940 C   0  0  0  0  0  0  0  0  0  0  0  0
    0.3500   66.1150   70.3580 C   0  0  0  0  0  0  0  0  0  0  0  0
    1.1720   64.8490   70.6010 C   0  0  0  0  0  0  0  0  0  0  0  0
    0.3050   63.6020   70.5440 C   0  0  0  0  0  0  0  0  0  0  0  0
    2.8000   67.6350   65.7610 C   0  0  0  0  0  0  0  0  0  0  0  0
    3.1410   69.1110   65.5990 C   0  0  0  0  0  0  0  0  0  0  0  0
    4.0930   69.6980   66.6510 C   0  0  0  0  0  0  0  0  0  0  0  0
    5.5170   69.9720   66.1520 C   0  0  0  0  0  0  0  0  0  0  0  0
    6.0140   71.1990   68.3370 C   0  0  0  0  0  0  0  0  0  0  0  0
    6.5530   70.3050   67.2300 C   0  0  0  0  0  0  0  0  0  0  0  0
    1.1684   68.9975   67.7778 H   0  0  0  0  0  0  0  0  0  0  0  0
   -0.6034   69.3366   67.5715 H   0  0  0  0  0  0  0  0  0  0  0  0
   -1.0956   67.4839   68.6834 H   0  0  0  0  0  0  0  0  0  0  0  0
   -0.1929   66.5212   67.4206 H   0  0  0  0  0  0  0  0  0  0  0  0
    1.6865   66.3277   68.6889 H   0  0  0  0  0  0  0  0  0  0  0  0
    1.3272   67.8587   69.6174 H   0  0  0  0  0  0  0  0  0  0  0  0
    0.3646   66.7322   71.2684 H   0  0  0  0  0  0  0  0  0  0  0  0
   -0.6788   65.8183   70.1060 H   0  0  0  0  0  0  0  0  0  0  0  0
    1.9532   64.7767   69.8300 H   0  0  0  0  0  0  0  0  0  0  0  0
    1.6171   64.9141   71.6048 H   0  0  0  0  0  0  0  0  0  0  0  0
    0.0736   63.2692   71.5666 H   0  0  0  0  0  0  0  0  0  0  0  0
   -0.6305   63.8298   70.0121 H   0  0  0  0  0  0  0  0  0  0  0  0
    0.8444   62.8044   70.0121 H   0  0  0  0  0  0  0  0  0  0  0  0
    3.0327   67.3324   66.7926 H   0  0  0  0  0  0  0  0  0  0  0  0
    3.3970   67.0762   65.0252 H   0  0  0  0  0  0  0  0  0  0  0  0
    3.6072   69.2429   64.6114 H   0  0  0  0  0  0  0  0  0  0  0  0
    2.1910   69.6516   65.7222 H   0  0  0  0  0  0  0  0  0  0  0  0
    3.6665   70.6479   67.0056 H   0  0  0  0  0  0  0  0  0  0  0  0
    4.1840   68.9392   67.4422 H   0  0  0  0  0  0  0  0  0  0  0  0
    5.8643   69.0761   65.6165 H   0  0  0  0  0  0  0  0  0  0  0  0
    5.4433   70.8715   65.5231 H   0  0  0  0  0  0  0  0  0  0  0  0
    6.2737   70.7683   69.3153 H   0  0  0  0  0  0  0  0  0  0  0  0
    6.4585   72.2013   68.2480 H   0  0  0  0  0  0  0  0  0  0  0  0
    4.9202   71.2738   68.2480 H   0  0  0  0  0  0  0  0  0  0  0  0
    7.4008   70.8169   66.7513 H   0  0  0  0  0  0  0  0  0  0  0  0
    6.8486   69.3545   67.6980 H   0  0  0  0  0  0  0  0  0  0  0  0
  2  1  2  0
  3  1  1  0
  4  3  2  0
  5  3  1  0
  6  5  1  0
  7  6  1  0
  8  7  1  0
  9  8  1  0
 10  9  1  0
 11  1  1  0
 12 11  1  0
 13 12  1  0
 14 13  1  0
 16 15  1  0
 16 14  1  0
  5 17  1  0
  5 18  1  0
  6 19  1  0
  6 20  1  0
  7 21  1  0
  7 22  1  0
  8 23  1  0
  8 24  1  0
  9 25  1  0
  9 26  1  0
 10 27  1  0
 10 28  1  0
 10 29  1  0
 11 30  1  0
 11 31  1  0
 12 32  1  0
 12 33  1  0
 13 34  1  0
 13 35  1  0
 14 36  1  0
 14 37  1  0
 15 38  1  0
 15 39  1  0
 15 40  1  0
 16 41  1  0
 16 42  1  0
M  END
>  <score>  (6) 
-6.132

$$$$
=
     RDKit          3D

 42 41  0  0  0  0  0  0  0  0999 V2000
    0.1090   67.4320   67.5920 C   0  0  0  0  0  0  0  0  0  0  0  0
    0.0530   66.8540   66.5130 O   0  0  0  0  0  0  0  0  0  0  0  0
    0.6400   68.8580   67.6440 C   0  0  0  0  0  0  0  0  0  0  0  0
   -0.1510   69.7910   67.7070 O   0  0  0  0  0  0  0  0  0  0  0  0
    2.1450   69.0020   67.6070 C   0  0  0  0  0  0  0  0  0  0  0  0
    2.6330   70.1520   68.4870 C   0  0  0  0  0  0  0  0  0  0  0  0
    4.1520   70.3390   68.4570 C   0  0  0  0  0  0  0  0  0  0  0  0
    4.7910   69.9180   67.1330 C   0  0  0  0  0  0  0  0  0  0  0  0
    6.2700   70.3030   67.0830 C   0  0  0  0  0  0  0  0  0  0  0  0
    6.7460   70.8560   68.4160 C   0  0  0  0  0  0  0  0  0  0  0  0
   -0.3380   66.8120   68.8950 C   0  0  0  0  0  0  0  0  0  0  0  0
    0.8160   66.2220   69.6980 C   0  0  0  0  0  0  0  0  0  0  0  0
    0.4270   65.2010   70.7760 C   0  0  0  0  0  0  0  0  0  0  0  0
    1.4900   64.1330   71.0670 C   0  0  0  0  0  0  0  0  0  0  0  0
    3.8510   63.2340   70.6860 C   0  0  0  0  0  0  0  0  0  0  0  0
    2.8140   64.2840   70.3140 C   0  0  0  0  0  0  0  0  0  0  0  0
    2.6000   68.0656   67.9621 H   0  0  0  0  0  0  0  0  0  0  0  0
    2.4396   69.2199   66.5698 H   0  0  0  0  0  0  0  0  0  0  0  0
    2.1603   71.0822   68.1387 H   0  0  0  0  0  0  0  0  0  0  0  0
    2.3566   69.9075   69.5232 H   0  0  0  0  0  0  0  0  0  0  0  0
    4.3757   71.4021   68.6293 H   0  0  0  0  0  0  0  0  0  0  0  0
    4.5738   69.6924   69.2406 H   0  0  0  0  0  0  0  0  0  0  0  0
    4.7007   68.8273   67.0223 H   0  0  0  0  0  0  0  0  0  0  0  0
    4.2693   70.4366   66.3152 H   0  0  0  0  0  0  0  0  0  0  0  0
    6.8635   69.4111   66.8334 H   0  0  0  0  0  0  0  0  0  0  0  0
    6.3980   71.0843   66.3193 H   0  0  0  0  0  0  0  0  0  0  0  0
    6.2674   70.3000   69.2356 H   0  0  0  0  0  0  0  0  0  0  0  0
    7.8383   70.7482   68.4887 H   0  0  0  0  0  0  0  0  0  0  0  0
    6.4769   71.9201   68.4887 H   0  0  0  0  0  0  0  0  0  0  0  0
   -0.8282   67.5870   69.5025 H   0  0  0  0  0  0  0  0  0  0  0  0
   -1.0249   65.9884   68.6502 H   0  0  0  0  0  0  0  0  0  0  0  0
    1.4982   65.7247   68.9928 H   0  0  0  0  0  0  0  0  0  0  0  0
    1.2678   67.0678   70.2370 H   0  0  0  0  0  0  0  0  0  0  0  0
    0.2278   65.7483   71.7092 H   0  0  0  0  0  0  0  0  0  0  0  0
   -0.4524   64.6644   70.3902 H   0  0  0  0  0  0  0  0  0  0  0  0
    1.7100   64.1615   72.1444 H   0  0  0  0  0  0  0  0  0  0  0  0
    1.0583   63.1820   70.7217 H   0  0  0  0  0  0  0  0  0  0  0  0
    3.9227   63.1614   71.7813 H   0  0  0  0  0  0  0  0  0  0  0  0
    3.5509   62.2597   70.2728 H   0  0  0  0  0  0  0  0  0  0  0  0
    4.8289   63.5220   70.2728 H   0  0  0  0  0  0  0  0  0  0  0  0
    3.2297   65.2776   70.5377 H   0  0  0  0  0  0  0  0  0  0  0  0
    2.5929   64.1535   69.2444 H   0  0  0  0  0  0  0  0  0  0  0  0
  2  1  2  0
  3  1  1  0
  4  3  2  0
  5  3  1  0
  6  5  1  0
  7  6  1  0
  8  7  1  0
  9  8  1  0
 10  9  1  0
 11  1  1  0
 12 11  1  0
 13 12  1  0
 14 13  1  0
 16 15  1  0
 16 14  1  0
  5 17  1  0
  5 18  1  0
  6 19  1  0
  6 20  1  0
  7 21  1  0
  7 22  1  0
  8 23  1  0
  8 24  1  0
  9 25  1  0
  9 26  1  0
 10 27  1  0
 10 28  1  0
 10 29  1  0
 11 30  1  0
 11 31  1  0
 12 32  1  0
 12 33  1  0
 13 34  1  0
 13 35  1  0
 14 36  1  0
 14 37  1  0
 15 38  1  0
 15 39  1  0
 15 40  1  0
 16 41  1  0
 16 42  1  0
M  END
>  <score>  (7) 
-6.073

$$$$
=
     RDKit          3D

 42 41  0  0  0  0  0  0  0  0999 V2000
    1.6150   67.4860   64.5630 C   0  0  0  0  0  0  0  0  0  0  0  0
    1.1630   66.3750   64.8090 O   0  0  0  0  0  0  0  0  0  0  0  0
    3.1220   67.6630   64.4320 C   0  0  0  0  0  0  0  0  0  0  0  0
    3.8270   66.6790   64.2470 O   0  0  0  0  0  0  0  0  0  0  0  0
    3.6310   69.0820   64.5500 C   0  0  0  0  0  0  0  0  0  0  0  0
    5.1560   69.1390   64.6370 C   0  0  0  0  0  0  0  0  0  0  0  0
    5.6690   69.8290   65.9020 C   0  0  0  0  0  0  0  0  0  0  0  0
    4.6470   69.8510   67.0400 C   0  0  0  0  0  0  0  0  0  0  0  0
    5.2050   70.5600   68.2750 C   0  0  0  0  0  0  0  0  0  0  0  0
    4.1350   70.7600   69.3340 C   0  0  0  0  0  0  0  0  0  0  0  0
    0.7550   68.7110   64.3630 C   0  0  0  0  0  0  0  0  0  0  0  0
   -0.6370   68.5650   64.9660 C   0  0  0  0  0  0  0  0  0  0  0  0
   -0.7580   68.8950   66.4600 C   0  0  0  0  0  0  0  0  0  0  0  0
   -0.8610   67.6760   67.3850 C   0  0  0  0  0  0  0  0  0  0  0  0
    1.4690   68.4260   68.1180 C   0  0  0  0  0  0  0  0  0  0  0  0
    0.3730   67.3770   68.2400 C   0  0  0  0  0  0  0  0  0  0  0  0
    3.3043   69.6509   63.6670 H   0  0  0  0  0  0  0  0  0  0  0  0
    3.2220   69.5134   65.4755 H   0  0  0  0  0  0  0  0  0  0  0  0
    5.5445   68.1101   64.6196 H   0  0  0  0  0  0  0  0  0  0  0  0
    5.5073   69.7319   63.7796 H   0  0  0  0  0  0  0  0  0  0  0  0
    6.5665   69.2966   66.2498 H   0  0  0  0  0  0  0  0  0  0  0  0
    5.8821   70.8752   65.6371 H   0  0  0  0  0  0  0  0  0  0  0  0
    3.7442   70.3799   66.7006 H   0  0  0  0  0  0  0  0  0  0  0  0
    4.4100   68.8123   67.3137 H   0  0  0  0  0  0  0  0  0  0  0  0
    6.0181   69.9524   68.6989 H   0  0  0  0  0  0  0  0  0  0  0  0
    5.5745   71.5493   67.9671 H   0  0  0  0  0  0  0  0  0  0  0  0
    4.5875   70.6754   70.3330 H   0  0  0  0  0  0  0  0  0  0  0  0
    3.6862   71.7576   69.2180 H   0  0  0  0  0  0  0  0  0  0  0  0
    3.3562   69.9919   69.2180 H   0  0  0  0  0  0  0  0  0  0  0  0
    1.2534   69.5704   64.8353 H   0  0  0  0  0  0  0  0  0  0  0  0
    0.6313   68.8534   63.2793 H   0  0  0  0  0  0  0  0  0  0  0  0
   -1.3143   69.2355   64.4168 H   0  0  0  0  0  0  0  0  0  0  0  0
   -0.8906   67.4985   64.8751 H   0  0  0  0  0  0  0  0  0  0  0  0
    0.1298   69.4736   66.7550 H   0  0  0  0  0  0  0  0  0  0  0  0
   -1.6996   69.4514   66.5774 H   0  0  0  0  0  0  0  0  0  0  0  0
   -1.7100   67.8401   68.0649 H   0  0  0  0  0  0  0  0  0  0  0  0
   -0.9787   66.8078   66.7199 H   0  0  0  0  0  0  0  0  0  0  0  0
    1.7931   68.7362   69.1224 H   0  0  0  0  0  0  0  0  0  0  0  0
    2.3240   68.0011   67.5717 H   0  0  0  0  0  0  0  0  0  0  0  0
    1.0820   69.2988   67.5717 H   0  0  0  0  0  0  0  0  0  0  0  0
    0.7850   66.4060   67.9280 H   0  0  0  0  0  0  0  0  0  0  0  0
    0.0446   67.3749   69.2898 H   0  0  0  0  0  0  0  0  0  0  0  0
  2  1  2  0
  3  1  1  0
  4  3  2  0
  5  3  1  0
  6  5  1  0
  7  6  1  0
  8  7  1  0
  9  8  1  0
 10  9  1  0
 11  1  1  0
 12 11  1  0
 13 12  1  0
 14 13  1  0
 16 15  1  0
 16 14  1  0
  5 17  1  0
  5 18  1  0
  6 19  1  0
  6 20  1  0
  7 21  1  0
  7 22  1  0
  8 23  1  0
  8 24  1  0
  9 25  1  0
  9 26  1  0
 10 27  1  0
 10 28  1  0
 10 29  1  0
 11 30  1  0
 11 31  1  0
 12 32  1  0
 12 33  1  0
 13 34  1  0
 13 35  1  0
 14 36  1  0
 14 37  1  0
 15 38  1  0
 15 39  1  0
 15 40  1  0
 16 41  1  0
 16 42  1  0
M  END
>  <score>  (8) 
-6.049

$$$$
=
     RDKit          3D

 42 41  0  0  0  0  0  0  0  0999 V2000
    1.1950   68.1280   63.8550 C   0  0  0  0  0  0  0  0  0  0  0  0
    0.0190   68.3110   63.5700 O   0  0  0  0  0  0  0  0  0  0  0  0
    1.5470   67.1370   64.9580 C   0  0  0  0  0  0  0  0  0  0  0  0
    1.2450   65.9580   64.8220 O   0  0  0  0  0  0  0  0  0  0  0  0
    2.2550   67.7160   66.1620 C   0  0  0  0  0  0  0  0  0  0  0  0
    1.6080   69.0170   66.6370 C   0  0  0  0  0  0  0  0  0  0  0  0
    0.3900   68.7980   67.5370 C   0  0  0  0  0  0  0  0  0  0  0  0
   -0.9310   69.2100   66.8840 C   0  0  0  0  0  0  0  0  0  0  0  0
   -1.8670   68.0130   66.7220 C   0  0  0  0  0  0  0  0  0  0  0  0
   -1.5040   66.8890   67.6790 C   0  0  0  0  0  0  0  0  0  0  0  0
    2.3410   68.8240   63.1600 C   0  0  0  0  0  0  0  0  0  0  0  0
    3.4170   67.8590   62.6760 C   0  0  0  0  0  0  0  0  0  0  0  0
    4.8680   68.3060   62.9030 C   0  0  0  0  0  0  0  0  0  0  0  0
    5.2960   68.3850   64.3740 C   0  0  0  0  0  0  0  0  0  0  0  0
    5.3530   69.7740   66.5180 C   0  0  0  0  0  0  0  0  0  0  0  0
    5.2960   69.7840   64.9980 C   0  0  0  0  0  0  0  0  0  0  0  0
    2.2201   66.9825   66.9810 H   0  0  0  0  0  0  0  0  0  0  0  0
    3.2921   67.9392   65.8711 H   0  0  0  0  0  0  0  0  0  0  0  0
    2.3573   69.5939   67.1989 H   0  0  0  0  0  0  0  0  0  0  0  0
    1.2575   69.5507   65.7413 H   0  0  0  0  0  0  0  0  0  0  0  0
    0.3337   67.7298   67.7935 H   0  0  0  0  0  0  0  0  0  0  0  0
    0.5246   69.4328   68.4252 H   0  0  0  0  0  0  0  0  0  0  0  0
   -1.4219   69.9661   67.5144 H   0  0  0  0  0  0  0  0  0  0  0  0
   -0.7128   69.6178   65.8860 H   0  0  0  0  0  0  0  0  0  0  0  0
   -2.8988   68.3360   66.9248 H   0  0  0  0  0  0  0  0  0  0  0  0
   -1.7701   67.6355   65.6933 H   0  0  0  0  0  0  0  0  0  0  0  0
   -1.6171   67.2392   68.7156 H   0  0  0  0  0  0  0  0  0  0  0  0
   -2.1708   66.0312   67.5069 H   0  0  0  0  0  0  0  0  0  0  0  0
   -0.4614   66.5833   67.5069 H   0  0  0  0  0  0  0  0  0  0  0  0
    1.9445   69.3712   62.2920 H   0  0  0  0  0  0  0  0  0  0  0  0
    2.8089   69.4992   63.8916 H   0  0  0  0  0  0  0  0  0  0  0  0
    3.2728   66.9027   63.2000 H   0  0  0  0  0  0  0  0  0  0  0  0
    3.2917   67.7954   61.5850 H   0  0  0  0  0  0  0  0  0  0  0  0
    5.5298   67.5910   62.3923 H   0  0  0  0  0  0  0  0  0  0  0  0
    4.9421   69.3286   62.5044 H   0  0  0  0  0  0  0  0  0  0  0  0
    4.6093   67.7554   64.9588 H   0  0  0  0  0  0  0  0  0  0  0  0
    6.3433   68.0494   64.3971 H   0  0  0  0  0  0  0  0  0  0  0  0
    4.3460   69.9507   66.9239 H   0  0  0  0  0  0  0  0  0  0  0  0
    5.7219   68.7974   66.8647 H   0  0  0  0  0  0  0  0  0  0  0  0
    6.0323   70.5667   66.8647 H   0  0  0  0  0  0  0  0  0  0  0  0
    4.3769   70.3028   64.6881 H   0  0  0  0  0  0  0  0  0  0  0  0
    6.2044   70.2941   64.6450 H   0  0  0  0  0  0  0  0  0  0  0  0
  2  1  2  0
  3  1  1  0
  4  3  2  0
  5  3  1  0
  6  5  1  0
  7  6  1  0
  8  7  1  0
  9  8  1  0
 10  9  1  0
 11  1  1  0
 12 11  1  0
 13 12  1  0
 14 13  1  0
 16 15  1  0
 16 14  1  0
  5 17  1  0
  5 18  1  0
  6 19  1  0
  6 20  1  0
  7 21  1  0
  7 22  1  0
  8 23  1  0
  8 24  1  0
  9 25  1  0
  9 26  1  0
 10 27  1  0
 10 28  1  0
 10 29  1  0
 11 30  1  0
 11 31  1  0
 12 32  1  0
 12 33  1  0
 13 34  1  0
 13 35  1  0
 14 36  1  0
 14 37  1  0
 15 38  1  0
 15 39  1  0
 15 40  1  0
 16 41  1  0
 16 42  1  0
M  END
>  <score>  (9) 
-6.025

$$$$
