=
     RDKit          3D

 87 93  0  0  0  0  0  0  0  0999 V2000
    0.5690   63.7410   71.7460 C   0  0  0  0  0  0  0  0  0  0  0  0
    1.4720   63.5240   70.7060 C   0  0  0  0  0  0  0  0  0  0  0  0
    2.2110   62.3220   70.6180 C   0  0  0  0  0  0  0  0  0  0  0  0
    3.1450   62.1600   69.4400 C   0  0  0  0  0  0  0  0  0  0  0  0
    3.6020   60.7230   69.2160 C   0  0  0  0  0  0  0  0  0  0  0  0
    4.0320   60.0870   70.5200 N   0  0  2  0  0  4  0  0  0  0  0  0
    2.8210   59.9870   71.4760 C   0  0  2  0  0  0  0  0  0  0  0  0
    2.1030   61.3330   71.6230 C   0  0  0  0  0  0  0  0  0  0  0  0
    1.2040   61.5850   72.6730 C   0  0  0  0  0  0  0  0  0  0  0  0
    0.4350   62.7550   72.7260 C   0  0  0  0  0  0  0  0  0  0  0  0
   -0.5670   62.8950   73.6720 O   0  0  0  0  0  0  0  0  0  0  0  0
   -0.1460   62.9460   74.9790 C   0  0  0  0  0  0  0  0  0  0  0  0
   -0.2580   61.7990   75.7740 C   0  0  0  0  0  0  0  0  0  0  0  0
    0.1870   61.8110   77.1040 C   0  0  0  0  0  0  0  0  0  0  0  0
    0.7190   63.0070   77.6190 C   0  0  0  0  0  0  0  0  0  0  0  0
    0.7680   64.1670   76.8410 C   0  0  0  0  0  0  0  0  0  0  0  0
    0.3280   64.1340   75.5260 C   0  0  0  0  0  0  0  0  0  0  0  0
    0.2310   60.5430   77.9250 C   0  0  0  0  0  0  0  0  0  0  0  0
   -1.0670   59.8300   78.4180 C   0  0  2  0  0  0  0  0  0  0  0  0
   -2.0390   59.3810   77.3300 C   0  0  0  0  0  0  0  0  0  0  0  0
   -3.2770   60.0480   77.1660 C   0  0  0  0  0  0  0  0  0  0  0  0
   -3.6680   61.2480   77.9980 C   0  0  0  0  0  0  0  0  0  0  0  0
   -2.6280   61.7380   79.0010 C   0  0  0  0  0  0  0  0  0  0  0  0
   -1.7970   60.5990   79.5900 N   0  0  0  0  0  4  0  0  0  0  0  0
   -0.8270   61.1710   80.6230 C   0  0  0  0  0  0  0  0  0  0  0  0
   -2.6950   59.6130   80.3680 C   0  0  0  0  0  0  0  0  0  0  0  0
   -4.2550   59.5350   76.2870 C   0  0  0  0  0  0  0  0  0  0  0  0
   -4.0510   58.3350   75.6170 C   0  0  0  0  0  0  0  0  0  0  0  0
   -2.8290   57.6790   75.7790 C   0  0  0  0  0  0  0  0  0  0  0  0
   -1.7940   58.2280   76.5500 C   0  0  0  0  0  0  0  0  0  0  0  0
   -0.5790   57.5730   76.6200 O   0  0  0  0  0  0  0  0  0  0  0  0
    0.3140   57.8010   75.5840 C   0  0  0  0  0  0  0  0  0  0  0  0
    1.6590   57.8870   75.9380 C   0  0  0  0  0  0  0  0  0  0  0  0
    2.6090   58.3140   75.0040 C   0  0  0  0  0  0  0  0  0  0  0  0
    2.2400   58.6090   73.6810 C   0  0  0  0  0  0  0  0  0  0  0  0
    3.2760   59.2270   72.7630 C   0  0  0  0  0  0  0  0  0  0  0  0
    0.9280   58.3260   73.2910 C   0  0  0  0  0  0  0  0  0  0  0  0
   -0.0310   57.9610   74.2410 C   0  0  0  0  0  0  0  0  0  0  0  0
    5.2660   60.7280   71.1030 C   0  0  0  0  0  0  0  0  0  0  0  0
    0.0410   65.9630   71.0500 C   0  0  0  0  0  0  0  0  0  0  0  0
   -0.2040   64.8590   71.9170 O   0  0  0  0  0  0  0  0  0  0  0  0
    0.3800   65.2950   74.8120 O   0  0  0  0  0  0  0  0  0  0  0  0
   -2.6490   56.4610   75.1700 O   0  0  0  0  0  0  0  0  0  0  0  0
   -4.9440   57.6990   74.7990 O   0  0  0  0  0  0  0  0  0  0  0  0
   -6.0880   58.4390   74.3840 C   0  0  0  0  0  0  0  0  0  0  0  0
    1.6118   64.3016   69.9406 H   0  0  0  0  0  0  0  0  0  0  0  0
    2.6250   62.5047   68.5340 H   0  0  0  0  0  0  0  0  0  0  0  0
    4.0447   62.7542   69.6579 H   0  0  0  0  0  0  0  0  0  0  0  0
    2.7711   60.1427   68.7884 H   0  0  0  0  0  0  0  0  0  0  0  0
    4.4592   60.7288   68.5267 H   0  0  0  0  0  0  0  0  0  0  0  0
    4.3403   59.1204   70.3427 H   0  0  0  0  0  0  0  0  0  0  0  0
    2.0044   59.3719   71.0700 H   0  0  0  0  0  0  0  0  0  0  0  0
    1.1009   60.8417   73.4773 H   0  0  0  0  0  0  0  0  0  0  0  0
   -0.6977   60.8828   75.3529 H   0  0  0  0  0  0  0  0  0  0  0  0
    1.1023   63.0296   78.6498 H   0  0  0  0  0  0  0  0  0  0  0  0
    1.1543   65.1033   77.2702 H   0  0  0  0  0  0  0  0  0  0  0  0
    0.7773   59.8040   77.3206 H   0  0  0  0  0  0  0  0  0  0  0  0
    0.6732   60.8948   78.8687 H   0  0  0  0  0  0  0  0  0  0  0  0
   -0.6797   58.8884   78.8343 H   0  0  0  0  0  0  0  0  0  0  0  0
   -3.8873   62.0772   77.3093 H   0  0  0  0  0  0  0  0  0  0  0  0
   -4.5283   60.9215   78.6007 H   0  0  0  0  0  0  0  0  0  0  0  0
   -1.9518   62.4408   78.4923 H   0  0  0  0  0  0  0  0  0  0  0  0
   -3.1663   62.2207   79.8300 H   0  0  0  0  0  0  0  0  0  0  0  0
   -1.1981   60.9521   81.6351 H   0  0  0  0  0  0  0  0  0  0  0  0
    0.1639   60.7127   80.4887 H   0  0  0  0  0  0  0  0  0  0  0  0
   -0.7485   62.2600   80.4887 H   0  0  0  0  0  0  0  0  0  0  0  0
   -2.5564   59.7652   81.4486 H   0  0  0  0  0  0  0  0  0  0  0  0
   -3.7482   59.7904   80.1049 H   0  0  0  0  0  0  0  0  0  0  0  0
   -2.4202   58.5809   80.1049 H   0  0  0  0  0  0  0  0  0  0  0  0
   -5.1904   60.0922   76.1304 H   0  0  0  0  0  0  0  0  0  0  0  0
    1.9753   57.6179   76.9566 H   0  0  0  0  0  0  0  0  0  0  0  0
    3.6602   58.4203   75.3100 H   0  0  0  0  0  0  0  0  0  0  0  0
    3.8511   59.9429   73.3686 H   0  0  0  0  0  0  0  0  0  0  0  0
    3.8161   58.3550   72.3657 H   0  0  0  0  0  0  0  0  0  0  0  0
    0.6478   58.3909   72.2293 H   0  0  0  0  0  0  0  0  0  0  0  0
   -1.0720   57.7977   73.9254 H   0  0  0  0  0  0  0  0  0  0  0  0
    5.2102   60.6990   72.2012 H   0  0  0  0  0  0  0  0  0  0  0  0
    6.1580   60.1793   70.7666 H   0  0  0  0  0  0  0  0  0  0  0  0
    5.3300   61.7733   70.7666 H   0  0  0  0  0  0  0  0  0  0  0  0
    0.2407   66.8631   71.6499 H   0  0  0  0  0  0  0  0  0  0  0  0
    0.9125   65.7445   70.4154 H   0  0  0  0  0  0  0  0  0  0  0  0
   -0.8411   66.1337   70.4154 H   0  0  0  0  0  0  0  0  0  0  0  0
    0.7238   66.1214   75.2351 H   0  0  0  0  0  0  0  0  0  0  0  0
   -1.7904   55.9788   75.2718 H   0  0  0  0  0  0  0  0  0  0  0  0
   -6.6362   58.7936   75.2693 H   0  0  0  0  0  0  0  0  0  0  0  0
   -5.7678   59.3016   73.7811 H   0  0  0  0  0  0  0  0  0  0  0  0
   -6.7435   57.7933   73.7811 H   0  0  0  0  0  0  0  0  0  0  0  0
  2  1  2  0
  3  2  1  0
  4  3  1  0
  5  4  1  0
  6  5  1  0
  7  6  1  0
  8  3  2  0
  8  7  1  0
  9  8  1  0
 10  9  2  0
 10  1  1  0
 11 10  1  0
 12 11  1  0
 13 12  2  0
 14 13  1  0
 15 14  2  0
 16 15  1  0
 17 12  1  0
 17 16  2  0
 18 14  1  0
 19 18  1  0
 20 19  1  0
 21 20  2  0
 22 21  1  0
 23 22  1  0
 24 19  1  0
 24 23  1  0
 25 24  1  0
 26 24  1  0
 27 21  1  0
 28 27  2  0
 29 28  1  0
 30 29  2  0
 30 20  1  0
 31 30  1  0
 32 31  1  0
 33 32  2  0
 34 33  1  0
 35 34  2  0
 36 35  1  0
 36  7  1  0
 37 35  1  0
 38 37  2  0
 38 32  1  0
 39  6  1  0
 41  1  1  0
 41 40  1  0
 42 17  1  0
 43 29  1  0
 44 28  1  0
 45 44  1  0
  2 46  1  0
  4 47  1  0
  4 48  1  0
  5 49  1  0
  5 50  1  0
  6 51  1  6
  7 52  1  6
  9 53  1  0
 13 54  1  0
 15 55  1  0
 16 56  1  0
 18 57  1  0
 18 58  1  0
 19 59  1  1
 22 60  1  0
 22 61  1  0
 23 62  1  0
 23 63  1  0
 25 64  1  0
 25 65  1  0
 25 66  1  0
 26 67  1  0
 26 68  1  0
 26 69  1  0
 27 70  1  0
 33 71  1  0
 34 72  1  0
 36 73  1  0
 36 74  1  0
 37 75  1  0
 38 76  1  0
 39 77  1  0
 39 78  1  0
 39 79  1  0
 40 80  1  0
 40 81  1  0
 40 82  1  0
 42 83  1  0
 43 84  1  0
 45 85  1  0
 45 86  1  0
 45 87  1  0
M  CHG  2   6   1  24   1
M  END
>  <score>  (1) 
-9.573

$$$$
=
     RDKit          3D

 87 93  0  0  0  0  0  0  0  0999 V2000
    0.8180   61.4090   72.6850 C   0  0  0  0  0  0  0  0  0  0  0  0
    1.6230   60.3230   72.3420 C   0  0  0  0  0  0  0  0  0  0  0  0
    1.3760   59.0340   72.8700 C   0  0  0  0  0  0  0  0  0  0  0  0
    2.2800   57.9090   72.4200 C   0  0  0  0  0  0  0  0  0  0  0  0
    1.7260   56.5220   72.7250 C   0  0  0  0  0  0  0  0  0  0  0  0
    1.2050   56.4510   74.1440 N   0  0  2  0  0  4  0  0  0  0  0  0
    0.0070   57.4160   74.3070 C   0  0  2  0  0  0  0  0  0  0  0  0
    0.3440   58.8270   73.8150 C   0  0  0  0  0  0  0  0  0  0  0  0
   -0.4370   59.9420   74.1620 C   0  0  0  0  0  0  0  0  0  0  0  0
   -0.2210   61.2050   73.5950 C   0  0  0  0  0  0  0  0  0  0  0  0
   -1.1150   62.2390   73.8200 O   0  0  0  0  0  0  0  0  0  0  0  0
   -1.1950   62.6810   75.1180 C   0  0  0  0  0  0  0  0  0  0  0  0
   -2.2680   62.2610   75.9140 C   0  0  0  0  0  0  0  0  0  0  0  0
   -2.3640   62.6740   77.2510 C   0  0  0  0  0  0  0  0  0  0  0  0
   -1.3740   63.5370   77.7550 C   0  0  0  0  0  0  0  0  0  0  0  0
   -0.3420   64.0060   76.9380 C   0  0  0  0  0  0  0  0  0  0  0  0
   -0.2610   63.5820   75.6200 C   0  0  0  0  0  0  0  0  0  0  0  0
   -3.4160   62.1010   78.1720 C   0  0  0  0  0  0  0  0  0  0  0  0
   -4.9320   62.4390   78.0110 C   0  0  2  0  0  0  0  0  0  0  0  0
   -5.5600   62.0740   76.6680 C   0  0  0  0  0  0  0  0  0  0  0  0
   -5.9290   63.0930   75.7580 C   0  0  0  0  0  0  0  0  0  0  0  0
   -5.6730   64.5570   76.0320 C   0  0  0  0  0  0  0  0  0  0  0  0
   -4.9450   64.8800   77.3330 C   0  0  0  0  0  0  0  0  0  0  0  0
   -5.2960   63.9090   78.4600 N   0  0  0  0  0  4  0  0  0  0  0  0
   -4.5720   64.3410   79.7340 C   0  0  0  0  0  0  0  0  0  0  0  0
   -6.8010   63.9830   78.7950 C   0  0  0  0  0  0  0  0  0  0  0  0
   -6.6680   62.7810   74.5960 C   0  0  0  0  0  0  0  0  0  0  0  0
   -7.1030   61.4830   74.3570 C   0  0  0  0  0  0  0  0  0  0  0  0
   -6.7380   60.4790   75.2550 C   0  0  0  0  0  0  0  0  0  0  0  0
   -5.9020   60.7390   76.3500 C   0  0  0  0  0  0  0  0  0  0  0  0
   -5.5110   59.6970   77.1700 O   0  0  0  0  0  0  0  0  0  0  0  0
   -4.4250   58.9450   76.7480 C   0  0  0  0  0  0  0  0  0  0  0  0
   -3.5490   58.5170   77.7440 C   0  0  0  0  0  0  0  0  0  0  0  0
   -2.3240   57.9330   77.4030 C   0  0  0  0  0  0  0  0  0  0  0  0
   -1.9770   57.7120   76.0600 C   0  0  0  0  0  0  0  0  0  0  0  0
   -0.5740   57.2340   75.7460 C   0  0  0  0  0  0  0  0  0  0  0  0
   -2.9480   57.9620   75.0860 C   0  0  0  0  0  0  0  0  0  0  0  0
   -4.1440   58.6040   75.4240 C   0  0  0  0  0  0  0  0  0  0  0  0
    2.2960   56.5950   75.1740 C   0  0  0  0  0  0  0  0  0  0  0  0
    2.2570   63.0860   71.7810 C   0  0  0  0  0  0  0  0  0  0  0  0
    0.9620   62.6900   72.2220 O   0  0  0  0  0  0  0  0  0  0  0  0
    0.7540   64.0790   74.8560 O   0  0  0  0  0  0  0  0  0  0  0  0
   -7.2200   59.2090   75.0550 O   0  0  0  0  0  0  0  0  0  0  0  0
   -7.8830   61.0680   73.3120 O   0  0  0  0  0  0  0  0  0  0  0  0
   -8.6120   62.0670   72.6050 C   0  0  0  0  0  0  0  0  0  0  0  0
    2.4644   60.4713   71.6491 H   0  0  0  0  0  0  0  0  0  0  0  0
    2.4261   57.9938   71.3331 H   0  0  0  0  0  0  0  0  0  0  0  0
    3.2227   58.0098   72.9779 H   0  0  0  0  0  0  0  0  0  0  0  0
    0.9045   56.3006   72.0278 H   0  0  0  0  0  0  0  0  0  0  0  0
    2.5354   55.7861   72.6096 H   0  0  0  0  0  0  0  0  0  0  0  0
    0.8423   55.5047   74.3280 H   0  0  0  0  0  0  0  0  0  0  0  0
   -0.8330   57.1721   73.6400 H   0  0  0  0  0  0  0  0  0  0  0  0
   -1.2424   59.8198   74.9012 H   0  0  0  0  0  0  0  0  0  0  0  0
   -3.0401   61.6033   75.4882 H   0  0  0  0  0  0  0  0  0  0  0  0
   -1.4129   63.8477   78.8095 H   0  0  0  0  0  0  0  0  0  0  0  0
    0.4033   64.7088   77.3387 H   0  0  0  0  0  0  0  0  0  0  0  0
   -3.3343   61.0072   78.0894 H   0  0  0  0  0  0  0  0  0  0  0  0
   -3.1726   62.5855   79.1291 H   0  0  0  0  0  0  0  0  0  0  0  0
   -5.4088   61.7506   78.7242 H   0  0  0  0  0  0  0  0  0  0  0  0
   -5.0696   64.9535   75.2021 H   0  0  0  0  0  0  0  0  0  0  0  0
   -6.6674   65.0174   76.1282 H   0  0  0  0  0  0  0  0  0  0  0  0
   -3.8612   64.8320   77.1514 H   0  0  0  0  0  0  0  0  0  0  0  0
   -5.2593   65.8854   77.6497 H   0  0  0  0  0  0  0  0  0  0  0  0
   -5.1409   64.0015   80.6121 H   0  0  0  0  0  0  0  0  0  0  0  0
   -3.5667   63.8950   79.7536 H   0  0  0  0  0  0  0  0  0  0  0  0
   -4.4871   65.4375   79.7536 H   0  0  0  0  0  0  0  0  0  0  0  0
   -6.9337   63.9895   79.8869 H   0  0  0  0  0  0  0  0  0  0  0  0
   -7.2268   64.9032   78.3684 H   0  0  0  0  0  0  0  0  0  0  0  0
   -7.3150   63.1090   78.3684 H   0  0  0  0  0  0  0  0  0  0  0  0
   -6.9022   63.5748   73.8714 H   0  0  0  0  0  0  0  0  0  0  0  0
   -3.8218   58.6388   78.8027 H   0  0  0  0  0  0  0  0  0  0  0  0
   -1.6222   57.6426   78.1987 H   0  0  0  0  0  0  0  0  0  0  0  0
    0.1034   57.7638   76.4319 H   0  0  0  0  0  0  0  0  0  0  0  0
   -0.6477   56.1418   75.8538 H   0  0  0  0  0  0  0  0  0  0  0  0
   -2.7703   57.6515   74.0458 H   0  0  0  0  0  0  0  0  0  0  0  0
   -4.8729   58.8433   74.6357 H   0  0  0  0  0  0  0  0  0  0  0  0
    1.8588   56.5373   76.1817 H   0  0  0  0  0  0  0  0  0  0  0  0
    3.0302   55.7860   75.0460 H   0  0  0  0  0  0  0  0  0  0  0  0
    2.7952   57.5668   75.0460 H   0  0  0  0  0  0  0  0  0  0  0  0
    2.8975   63.2819   72.6536 H   0  0  0  0  0  0  0  0  0  0  0  0
    2.6995   62.2821   71.1744 H   0  0  0  0  0  0  0  0  0  0  0  0
    2.1742   63.9999   71.1744 H   0  0  0  0  0  0  0  0  0  0  0  0
    1.4005   64.7187   75.2471 H   0  0  0  0  0  0  0  0  0  0  0  0
   -6.9736   58.4819   75.6800 H   0  0  0  0  0  0  0  0  0  0  0  0
   -9.1030   62.7399   73.3234 H   0  0  0  0  0  0  0  0  0  0  0  0
   -7.9224   62.6457   71.9728 H   0  0  0  0  0  0  0  0  0  0  0  0
   -9.3735   61.5868   71.9728 H   0  0  0  0  0  0  0  0  0  0  0  0
  2  1  2  0
  3  2  1  0
  4  3  1  0
  5  4  1  0
  6  5  1  0
  7  6  1  0
  8  3  2  0
  8  7  1  0
  9  8  1  0
 10  9  2  0
 10  1  1  0
 11 10  1  0
 12 11  1  0
 13 12  2  0
 14 13  1  0
 15 14  2  0
 16 15  1  0
 17 12  1  0
 17 16  2  0
 18 14  1  0
 19 18  1  0
 20 19  1  0
 21 20  2  0
 22 21  1  0
 23 22  1  0
 24 19  1  0
 24 23  1  0
 25 24  1  0
 26 24  1  0
 27 21  1  0
 28 27  2  0
 29 28  1  0
 30 29  2  0
 30 20  1  0
 31 30  1  0
 32 31  1  0
 33 32  2  0
 34 33  1  0
 35 34  2  0
 36 35  1  0
 36  7  1  0
 37 35  1  0
 38 37  2  0
 38 32  1  0
 39  6  1  0
 41  1  1  0
 41 40  1  0
 42 17  1  0
 43 29  1  0
 44 28  1  0
 45 44  1  0
  2 46  1  0
  4 47  1  0
  4 48  1  0
  5 49  1  0
  5 50  1  0
  6 51  1  6
  7 52  1  6
  9 53  1  0
 13 54  1  0
 15 55  1  0
 16 56  1  0
 18 57  1  0
 18 58  1  0
 19 59  1  1
 22 60  1  0
 22 61  1  0
 23 62  1  0
 23 63  1  0
 25 64  1  0
 25 65  1  0
 25 66  1  0
 26 67  1  0
 26 68  1  0
 26 69  1  0
 27 70  1  0
 33 71  1  0
 34 72  1  0
 36 73  1  0
 36 74  1  0
 37 75  1  0
 38 76  1  0
 39 77  1  0
 39 78  1  0
 39 79  1  0
 40 80  1  0
 40 81  1  0
 40 82  1  0
 42 83  1  0
 43 84  1  0
 45 85  1  0
 45 86  1  0
 45 87  1  0
M  CHG  2   6   1  24   1
M  END
>  <score>  (2) 
-8.36

$$$$
=
     RDKit          3D

 87 93  0  0  0  0  0  0  0  0999 V2000
   -5.5970   61.4270   74.6890 C   0  0  0  0  0  0  0  0  0  0  0  0
   -6.1850   62.6100   75.1360 C   0  0  0  0  0  0  0  0  0  0  0  0
   -5.4590   63.5360   75.9210 C   0  0  0  0  0  0  0  0  0  0  0  0
   -6.1660   64.8070   76.3340 C   0  0  0  0  0  0  0  0  0  0  0  0
   -5.2220   65.8950   76.8360 C   0  0  0  0  0  0  0  0  0  0  0  0
   -4.2160   65.3250   77.8120 N   0  0  2  0  0  4  0  0  0  0  0  0
   -3.3120   64.2990   77.0900 C   0  0  2  0  0  0  0  0  0  0  0  0
   -4.1350   63.2540   76.3300 C   0  0  0  0  0  0  0  0  0  0  0  0
   -3.5740   62.0450   75.8880 C   0  0  0  0  0  0  0  0  0  0  0  0
   -4.2810   61.1550   75.0660 C   0  0  0  0  0  0  0  0  0  0  0  0
   -3.6440   60.0620   74.5020 O   0  0  0  0  0  0  0  0  0  0  0  0
   -3.2020   59.1110   75.3890 C   0  0  0  0  0  0  0  0  0  0  0  0
   -1.8450   59.0800   75.7320 C   0  0  0  0  0  0  0  0  0  0  0  0
   -1.3670   58.1380   76.6550 C   0  0  0  0  0  0  0  0  0  0  0  0
   -2.2790   57.2150   77.1980 C   0  0  0  0  0  0  0  0  0  0  0  0
   -3.6190   57.2070   76.8020 C   0  0  0  0  0  0  0  0  0  0  0  0
   -4.0740   58.1510   75.8920 C   0  0  0  0  0  0  0  0  0  0  0  0
    0.0540   58.1950   77.1650 C   0  0  0  0  0  0  0  0  0  0  0  0
    1.2750   57.8500   76.2560 C   0  0  2  0  0  0  0  0  0  0  0  0
    1.4350   58.7000   74.9980 C   0  0  0  0  0  0  0  0  0  0  0  0
    1.1880   58.1350   73.7250 C   0  0  0  0  0  0  0  0  0  0  0  0
    0.7060   56.7130   73.5480 C   0  0  0  0  0  0  0  0  0  0  0  0
    0.4510   55.9260   74.8290 C   0  0  0  0  0  0  0  0  0  0  0  0
    1.4140   56.3050   75.9540 N   0  0  0  0  0  4  0  0  0  0  0  0
    1.1270   55.4300   77.1730 C   0  0  0  0  0  0  0  0  0  0  0  0
    2.8710   55.9910   75.5530 C   0  0  0  0  0  0  0  0  0  0  0  0
    1.5000   58.8540   72.5500 C   0  0  0  0  0  0  0  0  0  0  0  0
    2.1160   60.0970   72.6200 C   0  0  0  0  0  0  0  0  0  0  0  0
    2.3590   60.6540   73.8770 C   0  0  0  0  0  0  0  0  0  0  0  0
    1.9480   60.0170   75.0560 C   0  0  0  0  0  0  0  0  0  0  0  0
    2.1480   60.6430   76.2730 O   0  0  0  0  0  0  0  0  0  0  0  0
    1.1980   61.5770   76.6580 C   0  0  0  0  0  0  0  0  0  0  0  0
    0.8790   61.6070   78.0140 C   0  0  0  0  0  0  0  0  0  0  0  0
   -0.2060   62.3640   78.4670 C   0  0  0  0  0  0  0  0  0  0  0  0
   -0.9570   63.1540   77.5810 C   0  0  0  0  0  0  0  0  0  0  0  0
   -2.2180   63.8170   78.0960 C   0  0  0  0  0  0  0  0  0  0  0  0
   -0.5020   63.2690   76.2640 C   0  0  0  0  0  0  0  0  0  0  0  0
    0.5420   62.4620   75.8010 C   0  0  0  0  0  0  0  0  0  0  0  0
   -4.8530   64.8390   79.0900 C   0  0  0  0  0  0  0  0  0  0  0  0
   -7.4040   60.8430   73.2410 C   0  0  0  0  0  0  0  0  0  0  0  0
   -6.2040   60.4730   73.9160 O   0  0  0  0  0  0  0  0  0  0  0  0
   -5.3860   58.0940   75.5230 O   0  0  0  0  0  0  0  0  0  0  0  0
    3.0250   61.8520   73.9500 O   0  0  0  0  0  0  0  0  0  0  0  0
    2.5330   60.8580   71.5620 O   0  0  0  0  0  0  0  0  0  0  0  0
    3.3940   60.2350   70.6120 C   0  0  0  0  0  0  0  0  0  0  0  0
   -7.2311   62.8266   74.8737 H   0  0  0  0  0  0  0  0  0  0  0  0
   -6.7158   65.1974   75.4649 H   0  0  0  0  0  0  0  0  0  0  0  0
   -6.8334   64.5482   77.1692 H   0  0  0  0  0  0  0  0  0  0  0  0
   -4.6866   66.3312   75.9798 H   0  0  0  0  0  0  0  0  0  0  0  0
   -5.8144   66.6661   77.3503 H   0  0  0  0  0  0  0  0  0  0  0  0
   -3.5944   66.0782   78.1394 H   0  0  0  0  0  0  0  0  0  0  0  0
   -2.7422   64.7410   76.2594 H   0  0  0  0  0  0  0  0  0  0  0  0
   -2.5496   61.7882   76.1955 H   0  0  0  0  0  0  0  0  0  0  0  0
   -1.1492   59.7989   75.2748 H   0  0  0  0  0  0  0  0  0  0  0  0
   -1.9317   56.4877   77.9466 H   0  0  0  0  0  0  0  0  0  0  0  0
   -4.3107   56.4553   77.2100 H   0  0  0  0  0  0  0  0  0  0  0  0
    0.2136   59.2250   77.5165 H   0  0  0  0  0  0  0  0  0  0  0  0
    0.0701   57.3718   77.8944 H   0  0  0  0  0  0  0  0  0  0  0  0
    2.1304   58.1399   76.8839 H   0  0  0  0  0  0  0  0  0  0  0  0
   -0.2359   56.7457   72.9807 H   0  0  0  0  0  0  0  0  0  0  0  0
    1.5241   56.1857   73.0355 H   0  0  0  0  0  0  0  0  0  0  0  0
   -0.5778   56.1233   75.1646 H   0  0  0  0  0  0  0  0  0  0  0  0
    0.6069   54.8610   74.6020 H   0  0  0  0  0  0  0  0  0  0  0  0
    1.3160   56.0063   78.0907 H   0  0  0  0  0  0  0  0  0  0  0  0
    0.0758   55.1068   77.1530 H   0  0  0  0  0  0  0  0  0  0  0  0
    1.7826   54.5469   77.1530 H   0  0  0  0  0  0  0  0  0  0  0  0
    3.4805   55.8596   76.4592 H   0  0  0  0  0  0  0  0  0  0  0  0
    2.8962   55.0668   74.9570 H   0  0  0  0  0  0  0  0  0  0  0  0
    3.2746   56.8228   74.9570 H   0  0  0  0  0  0  0  0  0  0  0  0
    1.2523   58.4246   71.5680 H   0  0  0  0  0  0  0  0  0  0  0  0
    1.4834   61.0326   78.7315 H   0  0  0  0  0  0  0  0  0  0  0  0
   -0.4754   62.3405   79.5332 H   0  0  0  0  0  0  0  0  0  0  0  0
   -2.7026   63.0968   78.7716 H   0  0  0  0  0  0  0  0  0  0  0  0
   -1.8493   64.7544   78.5380 H   0  0  0  0  0  0  0  0  0  0  0  0
   -0.9687   63.9997   75.5870 H   0  0  0  0  0  0  0  0  0  0  0  0
    0.8504   62.5256   74.7470 H   0  0  0  0  0  0  0  0  0  0  0  0
   -4.3093   65.2538   79.9515 H   0  0  0  0  0  0  0  0  0  0  0  0
   -5.9019   65.1684   79.1252 H   0  0  0  0  0  0  0  0  0  0  0  0
   -4.8123   63.7403   79.1252 H   0  0  0  0  0  0  0  0  0  0  0  0
   -8.1819   61.0828   73.9809 H   0  0  0  0  0  0  0  0  0  0  0  0
   -7.2134   61.7241   72.6107 H   0  0  0  0  0  0  0  0  0  0  0  0
   -7.7427   60.0075   72.6107 H   0  0  0  0  0  0  0  0  0  0  0  0
   -5.9770   57.3961   75.9022 H   0  0  0  0  0  0  0  0  0  0  0  0
    3.2074   62.2640   74.8315 H   0  0  0  0  0  0  0  0  0  0  0  0
    4.1754   59.6696   71.1408 H   0  0  0  0  0  0  0  0  0  0  0  0
    2.8090   59.5497   69.9810 H   0  0  0  0  0  0  0  0  0  0  0  0
    3.8620   61.0050   69.9810 H   0  0  0  0  0  0  0  0  0  0  0  0
  2  1  2  0
  3  2  1  0
  4  3  1  0
  5  4  1  0
  6  5  1  0
  7  6  1  0
  8  3  2  0
  8  7  1  0
  9  8  1  0
 10  9  2  0
 10  1  1  0
 11 10  1  0
 12 11  1  0
 13 12  2  0
 14 13  1  0
 15 14  2  0
 16 15  1  0
 17 12  1  0
 17 16  2  0
 18 14  1  0
 19 18  1  0
 20 19  1  0
 21 20  2  0
 22 21  1  0
 23 22  1  0
 24 19  1  0
 24 23  1  0
 25 24  1  0
 26 24  1  0
 27 21  1  0
 28 27  2  0
 29 28  1  0
 30 29  2  0
 30 20  1  0
 31 30  1  0
 32 31  1  0
 33 32  2  0
 34 33  1  0
 35 34  2  0
 36 35  1  0
 36  7  1  0
 37 35  1  0
 38 37  2  0
 38 32  1  0
 39  6  1  0
 41  1  1  0
 41 40  1  0
 42 17  1  0
 43 29  1  0
 44 28  1  0
 45 44  1  0
  2 46  1  0
  4 47  1  0
  4 48  1  0
  5 49  1  0
  5 50  1  0
  6 51  1  1
  7 52  1  6
  9 53  1  0
 13 54  1  0
 15 55  1  0
 16 56  1  0
 18 57  1  0
 18 58  1  0
 19 59  1  1
 22 60  1  0
 22 61  1  0
 23 62  1  0
 23 63  1  0
 25 64  1  0
 25 65  1  0
 25 66  1  0
 26 67  1  0
 26 68  1  0
 26 69  1  0
 27 70  1  0
 33 71  1  0
 34 72  1  0
 36 73  1  0
 36 74  1  0
 37 75  1  0
 38 76  1  0
 39 77  1  0
 39 78  1  0
 39 79  1  0
 40 80  1  0
 40 81  1  0
 40 82  1  0
 42 83  1  0
 43 84  1  0
 45 85  1  0
 45 86  1  0
 45 87  1  0
M  CHG  2   6   1  24   1
M  END
>  <score>  (3) 
-8.294

$$$$
=
     RDKit          3D

 87 93  0  0  0  0  0  0  0  0999 V2000
    4.0930   61.1680   71.1190 C   0  0  0  0  0  0  0  0  0  0  0  0
    3.8030   62.2610   70.3020 C   0  0  0  0  0  0  0  0  0  0  0  0
    2.7920   63.1870   70.6510 C   0  0  0  0  0  0  0  0  0  0  0  0
    2.5670   64.3590   69.7230 C   0  0  0  0  0  0  0  0  0  0  0  0
    1.7490   65.4840   70.3480 C   0  0  0  0  0  0  0  0  0  0  0  0
    0.5320   64.9330   71.0590 N   0  0  2  0  0  4  0  0  0  0  0  0
    0.9780   64.0440   72.2430 C   0  0  2  0  0  0  0  0  0  0  0  0
    2.0010   62.9900   71.8070 C   0  0  0  0  0  0  0  0  0  0  0  0
    2.2970   61.8680   72.6000 C   0  0  0  0  0  0  0  0  0  0  0  0
    3.3350   60.9840   72.2770 C   0  0  0  0  0  0  0  0  0  0  0  0
    3.7170   59.9940   73.1660 O   0  0  0  0  0  0  0  0  0  0  0  0
    2.7770   59.0210   73.4110 C   0  0  0  0  0  0  0  0  0  0  0  0
    2.0290   59.0830   74.5920 C   0  0  0  0  0  0  0  0  0  0  0  0
    1.0440   58.1200   74.8580 C   0  0  0  0  0  0  0  0  0  0  0  0
    0.8530   57.0850   73.9250 C   0  0  0  0  0  0  0  0  0  0  0  0
    1.6490   56.9920   72.7800 C   0  0  0  0  0  0  0  0  0  0  0  0
    2.6140   57.9560   72.5310 C   0  0  0  0  0  0  0  0  0  0  0  0
    0.1120   58.2620   76.0400 C   0  0  0  0  0  0  0  0  0  0  0  0
    0.6070   58.0890   77.5100 C   0  0  2  0  0  0  0  0  0  0  0  0
    1.7140   59.0400   77.9600 C   0  0  0  0  0  0  0  0  0  0  0  0
    3.0240   58.5500   78.1760 C   0  0  0  0  0  0  0  0  0  0  0  0
    3.4030   57.1090   77.9220 C   0  0  0  0  0  0  0  0  0  0  0  0
    2.3000   56.2110   77.3700 C   0  0  0  0  0  0  0  0  0  0  0  0
    0.9160   56.5880   77.8960 N   0  0  0  0  0  4  0  0  0  0  0  0
   -0.1140   55.6060   77.3400 C   0  0  0  0  0  0  0  0  0  0  0  0
    0.8530   56.4310   79.4300 C   0  0  0  0  0  0  0  0  0  0  0  0
    4.0100   59.3760   78.7580 C   0  0  0  0  0  0  0  0  0  0  0  0
    3.6980   60.6600   79.1890 C   0  0  0  0  0  0  0  0  0  0  0  0
    2.4060   61.1420   78.9750 C   0  0  0  0  0  0  0  0  0  0  0  0
    1.4430   60.3880   78.2890 C   0  0  0  0  0  0  0  0  0  0  0  0
    0.2000   60.9390   78.0400 O   0  0  0  0  0  0  0  0  0  0  0  0
    0.0920   61.7570   76.9250 C   0  0  0  0  0  0  0  0  0  0  0  0
   -1.0960   61.6610   76.2040 C   0  0  0  0  0  0  0  0  0  0  0  0
   -1.2190   62.2880   74.9590 C   0  0  0  0  0  0  0  0  0  0  0  0
   -0.1760   63.0720   74.4390 C   0  0  0  0  0  0  0  0  0  0  0  0
   -0.2990   63.5860   73.0190 C   0  0  0  0  0  0  0  0  0  0  0  0
    0.9260   63.3220   75.2620 C   0  0  0  0  0  0  0  0  0  0  0  0
    1.0720   62.6420   76.4760 C   0  0  0  0  0  0  0  0  0  0  0  0
   -0.4600   64.3020   70.1150 C   0  0  0  0  0  0  0  0  0  0  0  0
    6.4140   60.6090   71.0850 C   0  0  0  0  0  0  0  0  0  0  0  0
    5.0570   60.2250   70.8810 O   0  0  0  0  0  0  0  0  0  0  0  0
    3.3770   57.8140   71.4090 O   0  0  0  0  0  0  0  0  0  0  0  0
    2.0780   62.3850   79.4570 O   0  0  0  0  0  0  0  0  0  0  0  0
    4.5390   61.5280   79.8300 O   0  0  0  0  0  0  0  0  0  0  0  0
    5.7600   60.9960   80.3390 C   0  0  0  0  0  0  0  0  0  0  0  0
    4.3701   62.4053   69.3706 H   0  0  0  0  0  0  0  0  0  0  0  0
    3.5470   64.7633   69.4294 H   0  0  0  0  0  0  0  0  0  0  0  0
    1.9944   63.9836   68.8621 H   0  0  0  0  0  0  0  0  0  0  0  0
    2.3752   66.0257   71.0722 H   0  0  0  0  0  0  0  0  0  0  0  0
    1.4137   66.1617   69.5491 H   0  0  0  0  0  0  0  0  0  0  0  0
   -0.0054   65.7111   71.4673 H   0  0  0  0  0  0  0  0  0  0  0  0
    1.5694   64.5925   72.9910 H   0  0  0  0  0  0  0  0  0  0  0  0
    1.6957   61.6782   73.5013 H   0  0  0  0  0  0  0  0  0  0  0  0
    2.2142   59.8907   75.3154 H   0  0  0  0  0  0  0  0  0  0  0  0
    0.0651   56.3374   74.0991 H   0  0  0  0  0  0  0  0  0  0  0  0
    1.5103   56.1563   72.0783 H   0  0  0  0  0  0  0  0  0  0  0  0
   -0.3143   59.2740   75.9759 H   0  0  0  0  0  0  0  0  0  0  0  0
   -0.5513   57.3932   75.9163 H   0  0  0  0  0  0  0  0  0  0  0  0
   -0.2696   58.4032   78.0956 H   0  0  0  0  0  0  0  0  0  0  0  0
    4.2338   57.1023   77.2011 H   0  0  0  0  0  0  0  0  0  0  0  0
    3.6566   56.6925   78.9080 H   0  0  0  0  0  0  0  0  0  0  0  0
    2.2944   56.2938   76.2731 H   0  0  0  0  0  0  0  0  0  0  0  0
    2.5122   55.1829   77.6986 H   0  0  0  0  0  0  0  0  0  0  0  0
   -0.6343   55.1099   78.1726 H   0  0  0  0  0  0  0  0  0  0  0  0
   -0.8444   56.1506   76.7236 H   0  0  0  0  0  0  0  0  0  0  0  0
    0.3951   54.8505   76.7236 H   0  0  0  0  0  0  0  0  0  0  0  0
    1.2219   57.3504   79.9081 H   0  0  0  0  0  0  0  0  0  0  0  0
   -0.1875   56.2498   79.7376 H   0  0  0  0  0  0  0  0  0  0  0  0
    1.4796   55.5809   79.7376 H   0  0  0  0  0  0  0  0  0  0  0  0
    5.0371   58.9990   78.8717 H   0  0  0  0  0  0  0  0  0  0  0  0
   -1.9413   61.0897   76.6152 H   0  0  0  0  0  0  0  0  0  0  0  0
   -2.1457   62.1651   74.3793 H   0  0  0  0  0  0  0  0  0  0  0  0
   -0.7585   62.7802   72.4278 H   0  0  0  0  0  0  0  0  0  0  0  0
   -0.8734   64.5169   73.1347 H   0  0  0  0  0  0  0  0  0  0  0  0
    1.6830   64.0579   74.9532 H   0  0  0  0  0  0  0  0  0  0  0  0
    1.9728   62.8078   77.0852 H   0  0  0  0  0  0  0  0  0  0  0  0
   -1.2491   63.8001   70.6941 H   0  0  0  0  0  0  0  0  0  0  0  0
   -0.9094   65.0806   69.4811 H   0  0  0  0  0  0  0  0  0  0  0  0
    0.0547   63.5650   69.4811 H   0  0  0  0  0  0  0  0  0  0  0  0
    6.6203   60.6674   72.1639 H   0  0  0  0  0  0  0  0  0  0  0  0
    7.0792   59.8638   70.6243 H   0  0  0  0  0  0  0  0  0  0  0  0
    6.5901   61.5922   70.6243 H   0  0  0  0  0  0  0  0  0  0  0  0
    3.2318   57.0423   70.8060 H   0  0  0  0  0  0  0  0  0  0  0  0
    1.1670   62.7459   79.3162 H   0  0  0  0  0  0  0  0  0  0  0  0
    5.7346   61.0071   81.4387 H   0  0  0  0  0  0  0  0  0  0  0  0
    5.8849   59.9619   79.9855 H   0  0  0  0  0  0  0  0  0  0  0  0
    6.6025   61.6086   79.9855 H   0  0  0  0  0  0  0  0  0  0  0  0
  2  1  2  0
  3  2  1  0
  4  3  1  0
  5  4  1  0
  6  5  1  0
  7  6  1  0
  8  3  2  0
  8  7  1  0
  9  8  1  0
 10  9  2  0
 10  1  1  0
 11 10  1  0
 12 11  1  0
 13 12  2  0
 14 13  1  0
 15 14  2  0
 16 15  1  0
 17 12  1  0
 17 16  2  0
 18 14  1  0
 19 18  1  0
 20 19  1  0
 21 20  2  0
 22 21  1  0
 23 22  1  0
 24 19  1  0
 24 23  1  0
 25 24  1  0
 26 24  1  0
 27 21  1  0
 28 27  2  0
 29 28  1  0
 30 29  2  0
 30 20  1  0
 31 30  1  0
 32 31  1  0
 33 32  2  0
 34 33  1  0
 35 34  2  0
 36 35  1  0
 36  7  1  0
 37 35  1  0
 38 37  2  0
 38 32  1  0
 39  6  1  0
 41  1  1  0
 41 40  1  0
 42 17  1  0
 43 29  1  0
 44 28  1  0
 45 44  1  0
  2 46  1  0
  4 47  1  0
  4 48  1  0
  5 49  1  0
  5 50  1  0
  6 51  1  1
  7 52  1  1
  9 53  1  0
 13 54  1  0
 15 55  1  0
 16 56  1  0
 18 57  1  0
 18 58  1  0
 19 59  1  1
 22 60  1  0
 22 61  1  0
 23 62  1  0
 23 63  1  0
 25 64  1  0
 25 65  1  0
 25 66  1  0
 26 67  1  0
 26 68  1  0
 26 69  1  0
 27 70  1  0
 33 71  1  0
 34 72  1  0
 36 73  1  0
 36 74  1  0
 37 75  1  0
 38 76  1  0
 39 77  1  0
 39 78  1  0
 39 79  1  0
 40 80  1  0
 40 81  1  0
 40 82  1  0
 42 83  1  0
 43 84  1  0
 45 85  1  0
 45 86  1  0
 45 87  1  0
M  CHG  2   6   1  24   1
M  END
>  <score>  (4) 
-7.979

$$$$
=
     RDKit          3D

 87 93  0  0  0  0  0  0  0  0999 V2000
    4.2280   61.3690   70.8000 C   0  0  0  0  0  0  0  0  0  0  0  0
    3.9110   62.5170   70.0750 C   0  0  0  0  0  0  0  0  0  0  0  0
    2.8490   63.3630   70.4720 C   0  0  0  0  0  0  0  0  0  0  0  0
    2.5970   64.6030   69.6450 C   0  0  0  0  0  0  0  0  0  0  0  0
    1.7110   65.6310   70.3410 C   0  0  0  0  0  0  0  0  0  0  0  0
    0.5010   64.9660   70.9600 N   0  0  2  0  0  4  0  0  0  0  0  0
    0.9540   63.9940   72.0740 C   0  0  2  0  0  0  0  0  0  0  0  0
    2.0360   63.0280   71.5790 C   0  0  0  0  0  0  0  0  0  0  0  0
    2.3600   61.8540   72.2780 C   0  0  0  0  0  0  0  0  0  0  0  0
    3.4460   61.0480   71.9110 C   0  0  0  0  0  0  0  0  0  0  0  0
    3.8480   59.9990   72.7220 O   0  0  0  0  0  0  0  0  0  0  0  0
    2.9480   58.9690   72.8480 C   0  0  0  0  0  0  0  0  0  0  0  0
    2.1630   58.8900   74.0050 C   0  0  0  0  0  0  0  0  0  0  0  0
    1.2160   57.8660   74.1520 C   0  0  0  0  0  0  0  0  0  0  0  0
    1.1000   56.9130   73.1250 C   0  0  0  0  0  0  0  0  0  0  0  0
    1.9320   56.9570   72.0030 C   0  0  0  0  0  0  0  0  0  0  0  0
    2.8580   57.9810   71.8720 C   0  0  0  0  0  0  0  0  0  0  0  0
    0.2460   57.8600   75.3110 C   0  0  0  0  0  0  0  0  0  0  0  0
    0.7070   57.5770   76.7760 C   0  0  2  0  0  0  0  0  0  0  0  0
    1.7550   58.5300   77.3430 C   0  0  0  0  0  0  0  0  0  0  0  0
    3.0800   58.0790   77.5580 C   0  0  0  0  0  0  0  0  0  0  0  0
    3.5320   56.6850   77.1890 C   0  0  0  0  0  0  0  0  0  0  0  0
    2.4880   55.7940   76.5230 C   0  0  0  0  0  0  0  0  0  0  0  0
    1.0730   56.0620   77.0360 N   0  0  0  0  0  4  0  0  0  0  0  0
    0.1060   55.0900   76.3620 C   0  0  0  0  0  0  0  0  0  0  0  0
    0.9740   55.7640   78.5470 C   0  0  0  0  0  0  0  0  0  0  0  0
    4.0100   58.8920   78.2420 C   0  0  0  0  0  0  0  0  0  0  0  0
    3.6280   60.1160   78.7760 C   0  0  0  0  0  0  0  0  0  0  0  0
    2.3210   60.5590   78.5630 C   0  0  0  0  0  0  0  0  0  0  0  0
    1.4130   59.8290   77.7830 C   0  0  0  0  0  0  0  0  0  0  0  0
    0.1540   60.3470   77.5430 O   0  0  0  0  0  0  0  0  0  0  0  0
    0.0400   61.2570   76.5030 C   0  0  0  0  0  0  0  0  0  0  0  0
   -1.1210   61.1750   75.7380 C   0  0  0  0  0  0  0  0  0  0  0  0
   -1.2370   61.9060   74.5510 C   0  0  0  0  0  0  0  0  0  0  0  0
   -0.2170   62.7780   74.1360 C   0  0  0  0  0  0  0  0  0  0  0  0
   -0.3220   63.4130   72.7640 C   0  0  0  0  0  0  0  0  0  0  0  0
    0.8490   63.0000   75.0130 C   0  0  0  0  0  0  0  0  0  0  0  0
    0.9920   62.2210   76.1660 C   0  0  0  0  0  0  0  0  0  0  0  0
   -0.4340   64.3810   69.9320 C   0  0  0  0  0  0  0  0  0  0  0  0
    6.4840   60.6850   71.1800 C   0  0  0  0  0  0  0  0  0  0  0  0
    5.2400   60.4930   70.5110 O   0  0  0  0  0  0  0  0  0  0  0  0
    3.6590   57.9740   70.7680 O   0  0  0  0  0  0  0  0  0  0  0  0
    1.9230   61.7380   79.1440 O   0  0  0  0  0  0  0  0  0  0  0  0
    4.4090   60.9590   79.5180 O   0  0  0  0  0  0  0  0  0  0  0  0
    5.5150   60.3820   80.2090 C   0  0  0  0  0  0  0  0  0  0  0  0
    4.4968   62.7692   69.1788 H   0  0  0  0  0  0  0  0  0  0  0  0
    3.5654   65.0738   69.4201 H   0  0  0  0  0  0  0  0  0  0  0  0
    2.0667   64.2825   68.7361 H   0  0  0  0  0  0  0  0  0  0  0  0
    2.2909   66.1314   71.1305 H   0  0  0  0  0  0  0  0  0  0  0  0
    1.3680   66.3634   69.5954 H   0  0  0  0  0  0  0  0  0  0  0  0
   -0.0834   65.6798   71.4182 H   0  0  0  0  0  0  0  0  0  0  0  0
    1.4985   64.4980   72.8861 H   0  0  0  0  0  0  0  0  0  0  0  0
    1.7430   61.5582   73.1393 H   0  0  0  0  0  0  0  0  0  0  0  0
    2.2899   59.6358   74.8036 H   0  0  0  0  0  0  0  0  0  0  0  0
    0.3421   56.1199   73.2059 H   0  0  0  0  0  0  0  0  0  0  0  0
    1.8526   56.1820   71.2264 H   0  0  0  0  0  0  0  0  0  0  0  0
   -0.2249   58.8540   75.3232 H   0  0  0  0  0  0  0  0  0  0  0  0
   -0.3722   56.9775   75.0895 H   0  0  0  0  0  0  0  0  0  0  0  0
   -0.1984   57.7992   77.3599 H   0  0  0  0  0  0  0  0  0  0  0  0
    4.3827   56.7796   76.4981 H   0  0  0  0  0  0  0  0  0  0  0  0
    3.7759   56.1921   78.1417 H   0  0  0  0  0  0  0  0  0  0  0  0
    2.5099   55.9759   75.4384 H   0  0  0  0  0  0  0  0  0  0  0  0
    2.7378   54.7503   76.7644 H   0  0  0  0  0  0  0  0  0  0  0  0
   -0.4488   54.5324   77.1310 H   0  0  0  0  0  0  0  0  0  0  0  0
   -0.6015   55.6523   75.7349 H   0  0  0  0  0  0  0  0  0  0  0  0
    0.6720   54.3855   75.7349 H   0  0  0  0  0  0  0  0  0  0  0  0
    1.2706   56.6568   79.1170 H   0  0  0  0  0  0  0  0  0  0  0  0
   -0.0619   55.4946   78.8005 H   0  0  0  0  0  0  0  0  0  0  0  0
    1.6428   54.9282   78.8005 H   0  0  0  0  0  0  0  0  0  0  0  0
    5.0501   58.5517   78.3534 H   0  0  0  0  0  0  0  0  0  0  0  0
   -1.9504   60.5326   76.0687 H   0  0  0  0  0  0  0  0  0  0  0  0
   -2.1406   61.7963   73.9333 H   0  0  0  0  0  0  0  0  0  0  0  0
   -0.7269   62.6451   72.0885 H   0  0  0  0  0  0  0  0  0  0  0  0
   -0.9411   64.3043   72.9438 H   0  0  0  0  0  0  0  0  0  0  0  0
    1.5800   63.7925   74.7949 H   0  0  0  0  0  0  0  0  0  0  0  0
    1.8667   62.3700   76.8162 H   0  0  0  0  0  0  0  0  0  0  0  0
   -1.2608   63.8637   70.4407 H   0  0  0  0  0  0  0  0  0  0  0  0
   -0.8380   65.1877   69.3027 H   0  0  0  0  0  0  0  0  0  0  0  0
    0.1147   63.6649   69.3027 H   0  0  0  0  0  0  0  0  0  0  0  0
    6.3230   60.6601   72.2679 H   0  0  0  0  0  0  0  0  0  0  0  0
    7.1815   59.8839   70.8942 H   0  0  0  0  0  0  0  0  0  0  0  0
    6.9075   61.6591   70.8942 H   0  0  0  0  0  0  0  0  0  0  0  0
    3.5667   57.2547   70.0940 H   0  0  0  0  0  0  0  0  0  0  0  0
    1.0009   62.0711   79.0065 H   0  0  0  0  0  0  0  0  0  0  0  0
    5.3538   60.4661   81.2939 H   0  0  0  0  0  0  0  0  0  0  0  0
    5.6067   59.3211   79.9331 H   0  0  0  0  0  0  0  0  0  0  0  0
    6.4376   60.9137   79.9331 H   0  0  0  0  0  0  0  0  0  0  0  0
  2  1  2  0
  3  2  1  0
  4  3  1  0
  5  4  1  0
  6  5  1  0
  7  6  1  0
  8  3  2  0
  8  7  1  0
  9  8  1  0
 10  9  2  0
 10  1  1  0
 11 10  1  0
 12 11  1  0
 13 12  2  0
 14 13  1  0
 15 14  2  0
 16 15  1  0
 17 12  1  0
 17 16  2  0
 18 14  1  0
 19 18  1  0
 20 19  1  0
 21 20  2  0
 22 21  1  0
 23 22  1  0
 24 19  1  0
 24 23  1  0
 25 24  1  0
 26 24  1  0
 27 21  1  0
 28 27  2  0
 29 28  1  0
 30 29  2  0
 30 20  1  0
 31 30  1  0
 32 31  1  0
 33 32  2  0
 34 33  1  0
 35 34  2  0
 36 35  1  0
 36  7  1  0
 37 35  1  0
 38 37  2  0
 38 32  1  0
 39  6  1  0
 41  1  1  0
 41 40  1  0
 42 17  1  0
 43 29  1  0
 44 28  1  0
 45 44  1  0
  2 46  1  0
  4 47  1  0
  4 48  1  0
  5 49  1  0
  5 50  1  0
  6 51  1  1
  7 52  1  1
  9 53  1  0
 13 54  1  0
 15 55  1  0
 16 56  1  0
 18 57  1  0
 18 58  1  0
 19 59  1  1
 22 60  1  0
 22 61  1  0
 23 62  1  0
 23 63  1  0
 25 64  1  0
 25 65  1  0
 25 66  1  0
 26 67  1  0
 26 68  1  0
 26 69  1  0
 27 70  1  0
 33 71  1  0
 34 72  1  0
 36 73  1  0
 36 74  1  0
 37 75  1  0
 38 76  1  0
 39 77  1  0
 39 78  1  0
 39 79  1  0
 40 80  1  0
 40 81  1  0
 40 82  1  0
 42 83  1  0
 43 84  1  0
 45 85  1  0
 45 86  1  0
 45 87  1  0
M  CHG  2   6   1  24   1
M  END
>  <score>  (5) 
-7.854

$$$$
=
     RDKit          3D

 87 93  0  0  0  0  0  0  0  0999 V2000
    3.1340   59.4960   71.8770 C   0  0  0  0  0  0  0  0  0  0  0  0
    3.2450   60.4640   70.8800 C   0  0  0  0  0  0  0  0  0  0  0  0
    2.6680   61.7460   71.0380 C   0  0  0  0  0  0  0  0  0  0  0  0
    2.8640   62.7440   69.9190 C   0  0  0  0  0  0  0  0  0  0  0  0
    2.5510   64.1810   70.3210 C   0  0  0  0  0  0  0  0  0  0  0  0
    1.2440   64.2540   71.0790 N   0  0  2  0  0  4  0  0  0  0  0  0
    1.3670   63.4740   72.4090 C   0  0  2  0  0  0  0  0  0  0  0  0
    1.9040   62.0560   72.1870 C   0  0  0  0  0  0  0  0  0  0  0  0
    1.7870   61.0550   73.1650 C   0  0  0  0  0  0  0  0  0  0  0  0
    2.4060   59.8060   73.0260 C   0  0  0  0  0  0  0  0  0  0  0  0
    2.4210   58.9080   74.0810 O   0  0  0  0  0  0  0  0  0  0  0  0
    1.1960   58.4150   74.4590 C   0  0  0  0  0  0  0  0  0  0  0  0
    0.5680   58.9490   75.5900 C   0  0  0  0  0  0  0  0  0  0  0  0
   -0.6950   58.4860   75.9860 C   0  0  0  0  0  0  0  0  0  0  0  0
   -1.2940   57.4580   75.2360 C   0  0  0  0  0  0  0  0  0  0  0  0
   -0.6340   56.8820   74.1470 C   0  0  0  0  0  0  0  0  0  0  0  0
    0.6130   57.3580   73.7670 C   0  0  0  0  0  0  0  0  0  0  0  0
   -1.4620   59.1620   77.1000 C   0  0  0  0  0  0  0  0  0  0  0  0
   -1.0140   59.0650   78.5920 C   0  0  2  0  0  0  0  0  0  0  0  0
    0.3840   59.5910   78.9060 C   0  0  0  0  0  0  0  0  0  0  0  0
    1.4220   58.6890   79.2400 C   0  0  0  0  0  0  0  0  0  0  0  0
    1.2240   57.1900   79.2450 C   0  0  0  0  0  0  0  0  0  0  0  0
   -0.1540   56.6930   78.8190 C   0  0  0  0  0  0  0  0  0  0  0  0
   -1.2760   57.6450   79.2340 N   0  0  0  0  0  4  0  0  0  0  0  0
   -2.6180   57.0430   78.8220 C   0  0  0  0  0  0  0  0  0  0  0  0
   -1.3370   57.7810   80.7700 C   0  0  0  0  0  0  0  0  0  0  0  0
    2.6670   59.1700   79.7030 C   0  0  0  0  0  0  0  0  0  0  0  0
    2.8750   60.5290   79.9020 C   0  0  0  0  0  0  0  0  0  0  0  0
    1.8500   61.4170   79.5720 C   0  0  0  0  0  0  0  0  0  0  0  0
    0.6500   60.9770   78.9960 C   0  0  0  0  0  0  0  0  0  0  0  0
   -0.3040   61.9040   78.6210 O   0  0  0  0  0  0  0  0  0  0  0  0
   -0.1390   62.5050   77.3820 C   0  0  0  0  0  0  0  0  0  0  0  0
   -1.3020   62.7420   76.6530 C   0  0  0  0  0  0  0  0  0  0  0  0
   -1.2260   63.1520   75.3170 C   0  0  0  0  0  0  0  0  0  0  0  0
    0.0140   63.3880   74.7020 C   0  0  0  0  0  0  0  0  0  0  0  0
    0.0410   63.6650   73.2130 C   0  0  0  0  0  0  0  0  0  0  0  0
    1.1590   63.3400   75.5030 C   0  0  0  0  0  0  0  0  0  0  0  0
    1.0850   62.8690   76.8180 C   0  0  0  0  0  0  0  0  0  0  0  0
    0.0540   63.8930   70.2260 C   0  0  0  0  0  0  0  0  0  0  0  0
    3.4150   57.4600   70.6600 C   0  0  0  0  0  0  0  0  0  0  0  0
    3.6650   58.2340   71.8300 O   0  0  0  0  0  0  0  0  0  0  0  0
    1.2250   56.7550   72.7080 O   0  0  0  0  0  0  0  0  0  0  0  0
    2.0300   62.7550   79.8280 O   0  0  0  0  0  0  0  0  0  0  0  0
    4.0030   61.1120   80.4120 O   0  0  0  0  0  0  0  0  0  0  0  0
    5.2560   60.5540   80.0250 C   0  0  0  0  0  0  0  0  0  0  0  0
    3.7905   60.2270   69.9547 H   0  0  0  0  0  0  0  0  0  0  0  0
    3.9124   62.6956   69.5895 H   0  0  0  0  0  0  0  0  0  0  0  0
    2.1607   62.4727   69.1179 H   0  0  0  0  0  0  0  0  0  0  0  0
    3.3609   64.5610   70.9611 H   0  0  0  0  0  0  0  0  0  0  0  0
    2.4648   64.7913   69.4099 H   0  0  0  0  0  0  0  0  0  0  0  0
    1.0530   65.2333   71.3348 H   0  0  0  0  0  0  0  0  0  0  0  0
    2.1473   63.8775   73.0710 H   0  0  0  0  0  0  0  0  0  0  0  0
    1.1914   61.2578   74.0673 H   0  0  0  0  0  0  0  0  0  0  0  0
    1.0684   59.7370   76.1720 H   0  0  0  0  0  0  0  0  0  0  0  0
   -2.2978   57.1017   75.5109 H   0  0  0  0  0  0  0  0  0  0  0  0
   -1.1012   56.0544   73.5931 H   0  0  0  0  0  0  0  0  0  0  0  0
   -1.4813   60.2339   76.8537 H   0  0  0  0  0  0  0  0  0  0  0  0
   -2.4057   58.5968   77.1058 H   0  0  0  0  0  0  0  0  0  0  0  0
   -1.6860   59.7787   79.0911 H   0  0  0  0  0  0  0  0  0  0  0  0
    1.9656   56.7509   78.5615 H   0  0  0  0  0  0  0  0  0  0  0  0
    1.3379   56.8807   80.2945 H   0  0  0  0  0  0  0  0  0  0  0  0
   -0.1678   56.5881   77.7241 H   0  0  0  0  0  0  0  0  0  0  0  0
   -0.3310   55.7303   79.3208 H   0  0  0  0  0  0  0  0  0  0  0  0
   -3.1954   56.7840   79.7218 H   0  0  0  0  0  0  0  0  0  0  0  0
   -3.1801   57.7752   78.2238 H   0  0  0  0  0  0  0  0  0  0  0  0
   -2.4449   56.1363   78.2238 H   0  0  0  0  0  0  0  0  0  0  0  0
   -0.9290   56.8715   81.2351 H   0  0  0  0  0  0  0  0  0  0  0  0
   -0.7432   58.6518   81.0849 H   0  0  0  0  0  0  0  0  0  0  0  0
   -2.3822   57.9167   81.0849 H   0  0  0  0  0  0  0  0  0  0  0  0
    3.4815   58.4598   79.9084 H   0  0  0  0  0  0  0  0  0  0  0  0
   -2.2842   62.6064   77.1293 H   0  0  0  0  0  0  0  0  0  0  0  0
   -2.1520   63.2915   74.7399 H   0  0  0  0  0  0  0  0  0  0  0  0
   -0.7079   63.0036   72.7529 H   0  0  0  0  0  0  0  0  0  0  0  0
   -0.1384   64.7486   73.1531 H   0  0  0  0  0  0  0  0  0  0  0  0
    2.1246   63.6749   75.0963 H   0  0  0  0  0  0  0  0  0  0  0  0
    2.0043   62.7842   77.4161 H   0  0  0  0  0  0  0  0  0  0  0  0
   -0.7967   63.6349   70.8738 H   0  0  0  0  0  0  0  0  0  0  0  0
   -0.2154   64.7498   69.5910 H   0  0  0  0  0  0  0  0  0  0  0  0
    0.3061   63.0309   69.5910 H   0  0  0  0  0  0  0  0  0  0  0  0
    3.0889   56.4505   70.9509 H   0  0  0  0  0  0  0  0  0  0  0  0
    2.6269   57.9420   70.0629 H   0  0  0  0  0  0  0  0  0  0  0  0
    4.3362   57.3899   70.0629 H   0  0  0  0  0  0  0  0  0  0  0  0
    0.7792   56.0052   72.2399 H   0  0  0  0  0  0  0  0  0  0  0  0
    1.3161   63.4026   79.6020 H   0  0  0  0  0  0  0  0  0  0  0  0
    5.8356   60.2959   80.9236 H   0  0  0  0  0  0  0  0  0  0  0  0
    5.0844   59.6473   79.4264 H   0  0  0  0  0  0  0  0  0  0  0  0
    5.8151   61.2882   79.4264 H   0  0  0  0  0  0  0  0  0  0  0  0
  2  1  2  0
  3  2  1  0
  4  3  1  0
  5  4  1  0
  6  5  1  0
  7  6  1  0
  8  3  2  0
  8  7  1  0
  9  8  1  0
 10  9  2  0
 10  1  1  0
 11 10  1  0
 12 11  1  0
 13 12  2  0
 14 13  1  0
 15 14  2  0
 16 15  1  0
 17 12  1  0
 17 16  2  0
 18 14  1  0
 19 18  1  0
 20 19  1  0
 21 20  2  0
 22 21  1  0
 23 22  1  0
 24 19  1  0
 24 23  1  0
 25 24  1  0
 26 24  1  0
 27 21  1  0
 28 27  2  0
 29 28  1  0
 30 29  2  0
 30 20  1  0
 31 30  1  0
 32 31  1  0
 33 32  2  0
 34 33  1  0
 35 34  2  0
 36 35  1  0
 36  7  1  0
 37 35  1  0
 38 37  2  0
 38 32  1  0
 39  6  1  0
 41  1  1  0
 41 40  1  0
 42 17  1  0
 43 29  1  0
 44 28  1  0
 45 44  1  0
  2 46  1  0
  4 47  1  0
  4 48  1  0
  5 49  1  0
  5 50  1  0
  6 51  1  1
  7 52  1  1
  9 53  1  0
 13 54  1  0
 15 55  1  0
 16 56  1  0
 18 57  1  0
 18 58  1  0
 19 59  1  1
 22 60  1  0
 22 61  1  0
 23 62  1  0
 23 63  1  0
 25 64  1  0
 25 65  1  0
 25 66  1  0
 26 67  1  0
 26 68  1  0
 26 69  1  0
 27 70  1  0
 33 71  1  0
 34 72  1  0
 36 73  1  0
 36 74  1  0
 37 75  1  0
 38 76  1  0
 39 77  1  0
 39 78  1  0
 39 79  1  0
 40 80  1  0
 40 81  1  0
 40 82  1  0
 42 83  1  0
 43 84  1  0
 45 85  1  0
 45 86  1  0
 45 87  1  0
M  CHG  2   6   1  24   1
M  END
>  <score>  (6) 
-7.704

$$$$
=
     RDKit          3D

 87 93  0  0  0  0  0  0  0  0999 V2000
   -4.0670   56.5500   78.6120 C   0  0  0  0  0  0  0  0  0  0  0  0
   -4.2950   55.1830   78.7650 C   0  0  0  0  0  0  0  0  0  0  0  0
   -3.4560   54.2280   78.1450 C   0  0  0  0  0  0  0  0  0  0  0  0
   -3.7590   52.7670   78.3900 C   0  0  0  0  0  0  0  0  0  0  0  0
   -2.6130   51.8340   78.0140 C   0  0  0  0  0  0  0  0  0  0  0  0
   -2.0500   52.1960   76.6560 N   0  0  2  0  0  4  0  0  0  0  0  0
   -1.4260   53.6100   76.7100 C   0  0  2  0  0  0  0  0  0  0  0  0
   -2.4000   54.6370   77.2970 C   0  0  0  0  0  0  0  0  0  0  0  0
   -2.2060   56.0190   77.1410 C   0  0  0  0  0  0  0  0  0  0  0  0
   -3.0080   56.9600   77.8000 C   0  0  0  0  0  0  0  0  0  0  0  0
   -2.6830   58.3070   77.7680 O   0  0  0  0  0  0  0  0  0  0  0  0
   -2.7530   58.9050   76.5330 C   0  0  0  0  0  0  0  0  0  0  0  0
   -1.5710   59.1250   75.8170 C   0  0  0  0  0  0  0  0  0  0  0  0
   -1.6110   59.7090   74.5420 C   0  0  0  0  0  0  0  0  0  0  0  0
   -2.8620   60.0890   74.0220 C   0  0  0  0  0  0  0  0  0  0  0  0
   -4.0320   59.9280   74.7690 C   0  0  0  0  0  0  0  0  0  0  0  0
   -3.9720   59.3430   76.0260 C   0  0  0  0  0  0  0  0  0  0  0  0
   -0.3700   59.8010   73.6850 C   0  0  0  0  0  0  0  0  0  0  0  0
    0.8080   60.7640   74.0340 C   0  0  2  0  0  0  0  0  0  0  0  0
    1.4690   60.5490   75.3940 C   0  0  0  0  0  0  0  0  0  0  0  0
    1.2810   61.4940   76.4300 C   0  0  0  0  0  0  0  0  0  0  0  0
    0.3910   62.7060   76.2710 C   0  0  0  0  0  0  0  0  0  0  0  0
   -0.3400   62.8330   74.9380 C   0  0  0  0  0  0  0  0  0  0  0  0
    0.4740   62.2850   73.7660 N   0  0  0  0  0  4  0  0  0  0  0  0
   -0.3050   62.5060   72.4710 C   0  0  0  0  0  0  0  0  0  0  0  0
    1.7890   63.0760   73.5990 C   0  0  0  0  0  0  0  0  0  0  0  0
    2.0230   61.4000   77.6280 C   0  0  0  0  0  0  0  0  0  0  0  0
    2.9960   60.4210   77.7860 C   0  0  0  0  0  0  0  0  0  0  0  0
    3.1790   59.4890   76.7630 C   0  0  0  0  0  0  0  0  0  0  0  0
    2.3720   59.4850   75.6170 C   0  0  0  0  0  0  0  0  0  0  0  0
    2.5470   58.4960   74.6660 O   0  0  0  0  0  0  0  0  0  0  0  0
    1.9120   57.2860   74.8990 C   0  0  0  0  0  0  0  0  0  0  0  0
    1.3810   56.6440   73.7810 C   0  0  0  0  0  0  0  0  0  0  0  0
    0.5500   55.5300   73.9360 C   0  0  0  0  0  0  0  0  0  0  0  0
    0.2790   55.0010   75.2080 C   0  0  0  0  0  0  0  0  0  0  0  0
   -0.7580   53.9030   75.3290 C   0  0  0  0  0  0  0  0  0  0  0  0
    0.9770   55.5310   76.2980 C   0  0  0  0  0  0  0  0  0  0  0  0
    1.7560   56.6830   76.1480 C   0  0  0  0  0  0  0  0  0  0  0  0
   -3.0330   51.9650   75.5360 C   0  0  0  0  0  0  0  0  0  0  0  0
   -6.0540   57.1950   79.7680 C   0  0  0  0  0  0  0  0  0  0  0  0
   -4.8070   57.5530   79.1780 O   0  0  0  0  0  0  0  0  0  0  0  0
   -5.1380   59.2210   76.7240 O   0  0  0  0  0  0  0  0  0  0  0  0
    4.1830   58.5600   76.8900 O   0  0  0  0  0  0  0  0  0  0  0  0
    3.8280   60.2690   78.8620 O   0  0  0  0  0  0  0  0  0  0  0  0
    4.3270   61.4560   79.4720 C   0  0  0  0  0  0  0  0  0  0  0  0
   -5.1418   54.8415   79.3784 H   0  0  0  0  0  0  0  0  0  0  0  0
   -3.9805   52.6324   79.4590 H   0  0  0  0  0  0  0  0  0  0  0  0
   -4.6131   52.5030   77.7491 H   0  0  0  0  0  0  0  0  0  0  0  0
   -1.8171   51.9178   78.7686 H   0  0  0  0  0  0  0  0  0  0  0  0
   -2.9953   50.8033   77.9744 H   0  0  0  0  0  0  0  0  0  0  0  0
   -1.2826   51.5501   76.4219 H   0  0  0  0  0  0  0  0  0  0  0  0
   -0.6009   53.6862   77.4334 H   0  0  0  0  0  0  0  0  0  0  0  0
   -1.4001   56.3735   76.4815 H   0  0  0  0  0  0  0  0  0  0  0  0
   -0.6043   58.8382   76.2566 H   0  0  0  0  0  0  0  0  0  0  0  0
   -2.9199   60.5196   73.0115 H   0  0  0  0  0  0  0  0  0  0  0  0
   -4.9972   60.2638   74.3621 H   0  0  0  0  0  0  0  0  0  0  0  0
    0.0589   58.7885   73.6549 H   0  0  0  0  0  0  0  0  0  0  0  0
   -0.7626   60.2437   72.7577 H   0  0  0  0  0  0  0  0  0  0  0  0
    1.5825   60.4664   73.3118 H   0  0  0  0  0  0  0  0  0  0  0  0
   -0.3667   62.6732   77.0678 H   0  0  0  0  0  0  0  0  0  0  0  0
    1.0638   63.5748   76.3224 H   0  0  0  0  0  0  0  0  0  0  0  0
   -1.2863   62.2756   75.0007 H   0  0  0  0  0  0  0  0  0  0  0  0
   -0.5110   63.9037   74.7528 H   0  0  0  0  0  0  0  0  0  0  0  0
   -1.3380   62.7991   72.7099 H   0  0  0  0  0  0  0  0  0  0  0  0
    0.1761   63.3031   71.8852 H   0  0  0  0  0  0  0  0  0  0  0  0
   -0.3142   61.5750   71.8852 H   0  0  0  0  0  0  0  0  0  0  0  0
    2.1975   63.3217   74.5903 H   0  0  0  0  0  0  0  0  0  0  0  0
    2.5162   62.4653   73.0438 H   0  0  0  0  0  0  0  0  0  0  0  0
    1.5903   64.0046   73.0438 H   0  0  0  0  0  0  0  0  0  0  0  0
    1.8283   62.1100   78.4453 H   0  0  0  0  0  0  0  0  0  0  0  0
    1.6167   57.0154   72.7728 H   0  0  0  0  0  0  0  0  0  0  0  0
    0.1018   55.0610   73.0477 H   0  0  0  0  0  0  0  0  0  0  0  0
   -1.5697   54.1541   74.6303 H   0  0  0  0  0  0  0  0  0  0  0  0
   -0.1825   52.9876   75.1266 H   0  0  0  0  0  0  0  0  0  0  0  0
    0.9129   55.0387   77.2796 H   0  0  0  0  0  0  0  0  0  0  0  0
    2.2527   57.1199   77.0269 H   0  0  0  0  0  0  0  0  0  0  0  0
   -4.0218   51.7326   75.9581 H   0  0  0  0  0  0  0  0  0  0  0  0
   -3.1026   52.8713   74.9164 H   0  0  0  0  0  0  0  0  0  0  0  0
   -2.6916   51.1226   74.9164 H   0  0  0  0  0  0  0  0  0  0  0  0
   -5.9622   57.2214   80.8638 H   0  0  0  0  0  0  0  0  0  0  0  0
   -6.8290   57.9069   79.4478 H   0  0  0  0  0  0  0  0  0  0  0  0
   -6.3333   56.1804   79.4478 H   0  0  0  0  0  0  0  0  0  0  0  0
   -5.9868   59.5446   76.3303 H   0  0  0  0  0  0  0  0  0  0  0  0
    4.3304   57.8898   76.1764 H   0  0  0  0  0  0  0  0  0  0  0  0
    4.2833   61.3522   80.5662 H   0  0  0  0  0  0  0  0  0  0  0  0
    5.3694   61.6181   79.1604 H   0  0  0  0  0  0  0  0  0  0  0  0
    3.7135   62.3142   79.1604 H   0  0  0  0  0  0  0  0  0  0  0  0
  2  1  2  0
  3  2  1  0
  4  3  1  0
  5  4  1  0
  6  5  1  0
  7  6  1  0
  8  3  2  0
  8  7  1  0
  9  8  1  0
 10  9  2  0
 10  1  1  0
 11 10  1  0
 12 11  1  0
 13 12  2  0
 14 13  1  0
 15 14  2  0
 16 15  1  0
 17 12  1  0
 17 16  2  0
 18 14  1  0
 19 18  1  0
 20 19  1  0
 21 20  2  0
 22 21  1  0
 23 22  1  0
 24 19  1  0
 24 23  1  0
 25 24  1  0
 26 24  1  0
 27 21  1  0
 28 27  2  0
 29 28  1  0
 30 29  2  0
 30 20  1  0
 31 30  1  0
 32 31  1  0
 33 32  2  0
 34 33  1  0
 35 34  2  0
 36 35  1  0
 36  7  1  0
 37 35  1  0
 38 37  2  0
 38 32  1  0
 39  6  1  0
 41  1  1  0
 41 40  1  0
 42 17  1  0
 43 29  1  0
 44 28  1  0
 45 44  1  0
  2 46  1  0
  4 47  1  0
  4 48  1  0
  5 49  1  0
  5 50  1  0
  6 51  1  6
  7 52  1  1
  9 53  1  0
 13 54  1  0
 15 55  1  0
 16 56  1  0
 18 57  1  0
 18 58  1  0
 19 59  1  6
 22 60  1  0
 22 61  1  0
 23 62  1  0
 23 63  1  0
 25 64  1  0
 25 65  1  0
 25 66  1  0
 26 67  1  0
 26 68  1  0
 26 69  1  0
 27 70  1  0
 33 71  1  0
 34 72  1  0
 36 73  1  0
 36 74  1  0
 37 75  1  0
 38 76  1  0
 39 77  1  0
 39 78  1  0
 39 79  1  0
 40 80  1  0
 40 81  1  0
 40 82  1  0
 42 83  1  0
 43 84  1  0
 45 85  1  0
 45 86  1  0
 45 87  1  0
M  CHG  2   6   1  24   1
M  END
>  <score>  (7) 
-7.306

$$$$
=
     RDKit          3D

 87 93  0  0  0  0  0  0  0  0999 V2000
   -1.6610   55.6120   77.7820 C   0  0  0  0  0  0  0  0  0  0  0  0
   -0.5680   54.8510   77.3680 C   0  0  0  0  0  0  0  0  0  0  0  0
    0.3790   55.3680   76.4530 C   0  0  0  0  0  0  0  0  0  0  0  0
    1.5490   54.4850   76.0840 C   0  0  0  0  0  0  0  0  0  0  0  0
    2.6930   55.2360   75.4130 C   0  0  0  0  0  0  0  0  0  0  0  0
    2.1700   56.1600   74.3350 N   0  0  2  0  0  4  0  0  0  0  0  0
    1.2800   57.2530   74.9720 C   0  0  2  0  0  0  0  0  0  0  0  0
    0.2040   56.6490   75.8800 C   0  0  0  0  0  0  0  0  0  0  0  0
   -0.9180   57.3860   76.2950 C   0  0  0  0  0  0  0  0  0  0  0  0
   -1.8240   56.8900   77.2420 C   0  0  0  0  0  0  0  0  0  0  0  0
   -2.8150   57.7050   77.7610 O   0  0  0  0  0  0  0  0  0  0  0  0
   -3.7680   58.1240   76.8650 C   0  0  0  0  0  0  0  0  0  0  0  0
   -3.6860   59.4210   76.3430 C   0  0  0  0  0  0  0  0  0  0  0  0
   -4.6280   59.8690   75.4050 C   0  0  0  0  0  0  0  0  0  0  0  0
   -5.6650   58.9950   75.0310 C   0  0  0  0  0  0  0  0  0  0  0  0
   -5.7810   57.7270   75.6060 C   0  0  0  0  0  0  0  0  0  0  0  0
   -4.8360   57.2990   76.5260 C   0  0  0  0  0  0  0  0  0  0  0  0
   -4.4620   61.1980   74.7050 C   0  0  0  0  0  0  0  0  0  0  0  0
   -4.6340   62.5570   75.4540 C   0  0  2  0  0  0  0  0  0  0  0  0
   -3.7020   62.7900   76.6400 C   0  0  0  0  0  0  0  0  0  0  0  0
   -4.2150   62.7710   77.9590 C   0  0  0  0  0  0  0  0  0  0  0  0
   -5.6650   62.4670   78.2610 C   0  0  0  0  0  0  0  0  0  0  0  0
   -6.5450   62.1310   77.0620 C   0  0  0  0  0  0  0  0  0  0  0  0
   -6.1380   62.8940   75.8020 N   0  0  0  0  0  4  0  0  0  0  0  0
   -7.1050   62.5430   74.6720 C   0  0  0  0  0  0  0  0  0  0  0  0
   -6.2850   64.4160   76.0140 C   0  0  0  0  0  0  0  0  0  0  0  0
   -3.4040   63.1580   79.0480 C   0  0  0  0  0  0  0  0  0  0  0  0
   -2.1120   63.6260   78.8420 C   0  0  0  0  0  0  0  0  0  0  0  0
   -1.6070   63.6430   77.5410 C   0  0  0  0  0  0  0  0  0  0  0  0
   -2.3470   63.1500   76.4570 C   0  0  0  0  0  0  0  0  0  0  0  0
   -1.7750   63.1240   75.1990 O   0  0  0  0  0  0  0  0  0  0  0  0
   -0.9610   62.0400   74.9060 C   0  0  0  0  0  0  0  0  0  0  0  0
   -1.0400   61.5450   73.6050 C   0  0  0  0  0  0  0  0  0  0  0  0
   -0.4180   60.3370   73.2710 C   0  0  0  0  0  0  0  0  0  0  0  0
    0.3430   59.6300   74.2160 C   0  0  0  0  0  0  0  0  0  0  0  0
    0.8500   58.2500   73.8480 C   0  0  0  0  0  0  0  0  0  0  0  0
    0.5770   60.2380   75.4530 C   0  0  0  0  0  0  0  0  0  0  0  0
   -0.0970   61.4120   75.8040 C   0  0  0  0  0  0  0  0  0  0  0  0
    1.5520   55.4160   73.1780 C   0  0  0  0  0  0  0  0  0  0  0  0
   -2.8370   53.8130   78.8220 C   0  0  0  0  0  0  0  0  0  0  0  0
   -2.6230   55.2140   78.6710 O   0  0  0  0  0  0  0  0  0  0  0  0
   -4.9990   56.0590   77.0720 O   0  0  0  0  0  0  0  0  0  0  0  0
   -0.3550   64.1660   77.3270 O   0  0  0  0  0  0  0  0  0  0  0  0
   -1.2560   64.0960   79.8000 O   0  0  0  0  0  0  0  0  0  0  0  0
   -1.7590   65.0840   80.6960 C   0  0  0  0  0  0  0  0  0  0  0  0
   -0.4401   53.8311   77.7597 H   0  0  0  0  0  0  0  0  0  0  0  0
    1.9326   54.0148   77.0014 H   0  0  0  0  0  0  0  0  0  0  0  0
    1.1789   53.7460   75.3581 H   0  0  0  0  0  0  0  0  0  0  0  0
    3.2271   55.8300   76.1692 H   0  0  0  0  0  0  0  0  0  0  0  0
    3.3722   54.5043   74.9512 H   0  0  0  0  0  0  0  0  0  0  0  0
    2.9605   56.6512   73.8937 H   0  0  0  0  0  0  0  0  0  0  0  0
    1.8221   57.8770   75.6978 H   0  0  0  0  0  0  0  0  0  0  0  0
   -1.0905   58.3829   75.8633 H   0  0  0  0  0  0  0  0  0  0  0  0
   -2.8784   60.0922   76.6704 H   0  0  0  0  0  0  0  0  0  0  0  0
   -6.3960   59.3150   74.2739 H   0  0  0  0  0  0  0  0  0  0  0  0
   -6.6192   57.0704   75.3298 H   0  0  0  0  0  0  0  0  0  0  0  0
   -3.4430   61.2021   74.2906 H   0  0  0  0  0  0  0  0  0  0  0  0
   -5.3202   61.2043   74.0170 H   0  0  0  0  0  0  0  0  0  0  0  0
   -4.2991   63.2884   74.7037 H   0  0  0  0  0  0  0  0  0  0  0  0
   -5.6921   61.6087   78.9485 H   0  0  0  0  0  0  0  0  0  0  0  0
   -6.0798   63.3955   78.6803 H   0  0  0  0  0  0  0  0  0  0  0  0
   -6.4691   61.0523   76.8606 H   0  0  0  0  0  0  0  0  0  0  0  0
   -7.5750   62.4256   77.3117 H   0  0  0  0  0  0  0  0  0  0  0  0
   -8.0579   62.1971   75.0990 H   0  0  0  0  0  0  0  0  0  0  0  0
   -7.2830   63.4339   74.0518 H   0  0  0  0  0  0  0  0  0  0  0  0
   -6.6701   61.7454   74.0518 H   0  0  0  0  0  0  0  0  0  0  0  0
   -6.3062   64.6357   77.0916 H   0  0  0  0  0  0  0  0  0  0  0  0
   -5.4328   64.9347   75.5507 H   0  0  0  0  0  0  0  0  0  0  0  0
   -7.2207   64.7621   75.5507 H   0  0  0  0  0  0  0  0  0  0  0  0
   -3.7998   63.0882   80.0720 H   0  0  0  0  0  0  0  0  0  0  0  0
   -1.5936   62.1065   72.8380 H   0  0  0  0  0  0  0  0  0  0  0  0
   -0.5267   59.9351   72.2529 H   0  0  0  0  0  0  0  0  0  0  0  0
    0.0487   57.7587   73.2765 H   0  0  0  0  0  0  0  0  0  0  0  0
    1.7918   58.4580   73.3190 H   0  0  0  0  0  0  0  0  0  0  0  0
    1.2959   59.7900   76.1548 H   0  0  0  0  0  0  0  0  0  0  0  0
    0.0562   61.8468   76.8027 H   0  0  0  0  0  0  0  0  0  0  0  0
    0.8933   54.6230   73.5618 H   0  0  0  0  0  0  0  0  0  0  0  0
    0.9651   56.1150   72.5641 H   0  0  0  0  0  0  0  0  0  0  0  0
    2.3468   54.9673   72.5641 H   0  0  0  0  0  0  0  0  0  0  0  0
   -2.8755   53.5612   79.8921 H   0  0  0  0  0  0  0  0  0  0  0  0
   -3.7882   53.5339   78.3452 H   0  0  0  0  0  0  0  0  0  0  0  0
   -2.0125   53.2627   78.3452 H   0  0  0  0  0  0  0  0  0  0  0  0
   -5.7713   55.4991   76.8071 H   0  0  0  0  0  0  0  0  0  0  0  0
    0.0225   64.1879   76.4121 H   0  0  0  0  0  0  0  0  0  0  0  0
   -1.5926   64.7572   81.7331 H   0  0  0  0  0  0  0  0  0  0  0  0
   -1.2359   66.0361   80.5232 H   0  0  0  0  0  0  0  0  0  0  0  0
   -2.8366   65.2211   80.5232 H   0  0  0  0  0  0  0  0  0  0  0  0
  2  1  2  0
  3  2  1  0
  4  3  1  0
  5  4  1  0
  6  5  1  0
  7  6  1  0
  8  3  2  0
  8  7  1  0
  9  8  1  0
 10  9  2  0
 10  1  1  0
 11 10  1  0
 12 11  1  0
 13 12  2  0
 14 13  1  0
 15 14  2  0
 16 15  1  0
 17 12  1  0
 17 16  2  0
 18 14  1  0
 19 18  1  0
 20 19  1  0
 21 20  2  0
 22 21  1  0
 23 22  1  0
 24 19  1  0
 24 23  1  0
 25 24  1  0
 26 24  1  0
 27 21  1  0
 28 27  2  0
 29 28  1  0
 30 29  2  0
 30 20  1  0
 31 30  1  0
 32 31  1  0
 33 32  2  0
 34 33  1  0
 35 34  2  0
 36 35  1  0
 36  7  1  0
 37 35  1  0
 38 37  2  0
 38 32  1  0
 39  6  1  0
 41  1  1  0
 41 40  1  0
 42 17  1  0
 43 29  1  0
 44 28  1  0
 45 44  1  0
  2 46  1  0
  4 47  1  0
  4 48  1  0
  5 49  1  0
  5 50  1  0
  6 51  1  6
  7 52  1  1
  9 53  1  0
 13 54  1  0
 15 55  1  0
 16 56  1  0
 18 57  1  0
 18 58  1  0
 19 59  1  6
 22 60  1  0
 22 61  1  0
 23 62  1  0
 23 63  1  0
 25 64  1  0
 25 65  1  0
 25 66  1  0
 26 67  1  0
 26 68  1  0
 26 69  1  0
 27 70  1  0
 33 71  1  0
 34 72  1  0
 36 73  1  0
 36 74  1  0
 37 75  1  0
 38 76  1  0
 39 77  1  0
 39 78  1  0
 39 79  1  0
 40 80  1  0
 40 81  1  0
 40 82  1  0
 42 83  1  0
 43 84  1  0
 45 85  1  0
 45 86  1  0
 45 87  1  0
M  CHG  2   6   1  24   1
M  END
>  <score>  (8) 
-7.07

$$$$
