=
     RDKit          3D

 25 26  0  0  0  0  0  0  0  0999 V2000
    3.4250   69.3170   66.1380 C   0  0  0  0  0  0  0  0  0  0  0  0
    3.6030   69.1480   64.7550 C   0  0  0  0  0  0  0  0  0  0  0  0
    2.5720   68.6600   63.9480 C   0  0  0  0  0  0  0  0  0  0  0  0
    1.3420   68.3390   64.5120 C   0  0  0  0  0  0  0  0  0  0  0  0
    1.1140   68.4900   65.8860 C   0  0  0  0  0  0  0  0  0  0  0  0
    2.1710   68.9750   66.6800 C   0  0  0  0  0  0  0  0  0  0  0  0
    7.5600   71.3580   69.3690 F   0  0  0  0  0  0  0  0  0  0  0  0
    6.5730   70.8740   68.6030 C   0  0  0  0  0  0  0  0  0  0  0  0
    6.8450   70.4870   67.2990 C   0  0  0  0  0  0  0  0  0  0  0  0
    5.8150   69.9800   66.5000 C   0  0  0  0  0  0  0  0  0  0  0  0
    4.5010   69.8550   66.9950 C   0  0  0  0  0  0  0  0  0  0  0  0
    4.2740   70.2600   68.3220 C   0  0  0  0  0  0  0  0  0  0  0  0
    5.2940   70.7650   69.1260 C   0  0  0  0  0  0  0  0  0  0  0  0
    3.0470   70.1750   68.8610 F   0  0  0  0  0  0  0  0  0  0  0  0
   -0.2200   68.1550   66.5050 C   0  0  0  0  0  0  0  0  0  0  0  0
   -0.9470   69.1120   66.9100 O   0  0  0  0  0  0  0  0  0  0  0  0
   -0.5070   66.9120   66.5610 O   0  0  0  0  0  1  0  0  0  0  0  0
    0.3710   67.8710   63.6650 O   0  0  0  0  0  0  0  0  0  0  0  0
    4.5708   69.4043   64.2993 H   0  0  0  0  0  0  0  0  0  0  0  0
    2.7331   68.5299   62.8677 H   0  0  0  0  0  0  0  0  0  0  0  0
    2.0115   69.0909   67.7622 H   0  0  0  0  0  0  0  0  0  0  0  0
    7.8644   70.5783   66.8958 H   0  0  0  0  0  0  0  0  0  0  0  0
    6.0343   69.6732   65.4666 H   0  0  0  0  0  0  0  0  0  0  0  0
    5.0870   71.0729   70.1615 H   0  0  0  0  0  0  0  0  0  0  0  0
   -0.5210   67.6292   64.0200 H   0  0  0  0  0  0  0  0  0  0  0  0
  2  1  2  0
  3  2  1  0
  4  3  2  0
  5  4  1  0
  6  5  2  0
  6  1  1  0
  8  7  1  0
  9  8  2  0
 10  9  1  0
 11  1  1  0
 11 10  2  0
 12 11  1  0
 13 12  2  0
 13  8  1  0
 14 12  1  0
 15  5  1  0
 16 15  2  0
 17 15  1  0
 18  4  1  0
  2 19  1  0
  3 20  1  0
  6 21  1  0
  9 22  1  0
 10 23  1  0
 13 24  1  0
 18 25  1  0
M  CHG  1  17  -1
M  END
>  <score>  (1) 
-10.595

$$$$
=
     RDKit          3D

 25 26  0  0  0  0  0  0  0  0999 V2000
    3.3960   69.2660   65.7760 C   0  0  0  0  0  0  0  0  0  0  0  0
    2.1030   68.9230   66.2040 C   0  0  0  0  0  0  0  0  0  0  0  0
    1.1540   68.4220   65.3090 C   0  0  0  0  0  0  0  0  0  0  0  0
    1.4870   68.2510   63.9690 C   0  0  0  0  0  0  0  0  0  0  0  0
    2.7630   68.5770   63.4930 C   0  0  0  0  0  0  0  0  0  0  0  0
    3.6990   69.0890   64.4120 C   0  0  0  0  0  0  0  0  0  0  0  0
    7.3080   71.1830   69.3430 F   0  0  0  0  0  0  0  0  0  0  0  0
    6.3740   70.7290   68.4970 C   0  0  0  0  0  0  0  0  0  0  0  0
    6.7500   70.2770   67.2400 C   0  0  0  0  0  0  0  0  0  0  0  0
    5.7750   69.8010   66.3580 C   0  0  0  0  0  0  0  0  0  0  0  0
    4.4130   69.7720   66.7200 C   0  0  0  0  0  0  0  0  0  0  0  0
    4.0810   70.2390   68.0040 C   0  0  0  0  0  0  0  0  0  0  0  0
    5.0460   70.7150   68.8900 C   0  0  0  0  0  0  0  0  0  0  0  0
    2.8030   70.2470   68.4180 F   0  0  0  0  0  0  0  0  0  0  0  0
    3.1360   68.3840   62.0440 C   0  0  0  0  0  0  0  0  0  0  0  0
    4.0490   67.5470   61.7700 O   0  0  0  0  0  0  0  0  0  0  0  0
    2.4820   69.0900   61.2050 O   0  0  0  0  0  1  0  0  0  0  0  0
    0.5120   67.7510   63.1450 O   0  0  0  0  0  0  0  0  0  0  0  0
    1.8326   69.0510   67.2625 H   0  0  0  0  0  0  0  0  0  0  0  0
    0.1453   68.1632   65.6633 H   0  0  0  0  0  0  0  0  0  0  0  0
    4.7023   69.3603   64.0519 H   0  0  0  0  0  0  0  0  0  0  0  0
    7.8080   70.2931   66.9395 H   0  0  0  0  0  0  0  0  0  0  0  0
    6.0766   69.4424   65.3628 H   0  0  0  0  0  0  0  0  0  0  0  0
    4.7566   71.0749   69.8884 H   0  0  0  0  0  0  0  0  0  0  0  0
    0.7004   67.6113   62.1832 H   0  0  0  0  0  0  0  0  0  0  0  0
  2  1  2  0
  3  2  1  0
  4  3  2  0
  5  4  1  0
  6  5  2  0
  6  1  1  0
  8  7  1  0
  9  8  2  0
 10  9  1  0
 11  1  1  0
 11 10  2  0
 12 11  1  0
 13 12  2  0
 13  8  1  0
 14 12  1  0
 15  5  1  0
 16 15  2  0
 17 15  1  0
 18  4  1  0
  2 19  1  0
  3 20  1  0
  6 21  1  0
  9 22  1  0
 10 23  1  0
 13 24  1  0
 18 25  1  0
M  CHG  1  17  -1
M  END
>  <score>  (2) 
-10.515

$$$$
=
     RDKit          3D

 25 26  0  0  0  0  0  0  0  0999 V2000
    3.9750   69.0480   64.9880 C   0  0  0  0  0  0  0  0  0  0  0  0
    5.1020   68.5530   64.3110 C   0  0  0  0  0  0  0  0  0  0  0  0
    5.0150   68.1180   62.9860 C   0  0  0  0  0  0  0  0  0  0  0  0
    3.7990   68.1760   62.3140 C   0  0  0  0  0  0  0  0  0  0  0  0
    2.6470   68.6620   62.9450 C   0  0  0  0  0  0  0  0  0  0  0  0
    2.7560   69.0860   64.2830 C   0  0  0  0  0  0  0  0  0  0  0  0
    4.2570   70.8900   70.3010 F   0  0  0  0  0  0  0  0  0  0  0  0
    4.1940   70.4520   69.0370 C   0  0  0  0  0  0  0  0  0  0  0  0
    3.0110   69.9080   68.5580 C   0  0  0  0  0  0  0  0  0  0  0  0
    2.9460   69.4520   67.2380 C   0  0  0  0  0  0  0  0  0  0  0  0
    4.0610   69.5340   66.3810 C   0  0  0  0  0  0  0  0  0  0  0  0
    5.2380   70.0930   66.9090 C   0  0  0  0  0  0  0  0  0  0  0  0
    5.3120   70.5500   68.2240 C   0  0  0  0  0  0  0  0  0  0  0  0
    6.3430   70.1980   66.1540 F   0  0  0  0  0  0  0  0  0  0  0  0
    1.3250   68.7390   62.2210 C   0  0  0  0  0  0  0  0  0  0  0  0
    0.3400   68.1080   62.7100 O   0  0  0  0  0  0  0  0  0  0  0  0
    1.3150   69.4530   61.1620 O   0  0  0  0  0  1  0  0  0  0  0  0
    3.7840   67.7390   61.0150 O   0  0  0  0  0  0  0  0  0  0  0  0
    6.0693   68.5071   64.8328 H   0  0  0  0  0  0  0  0  0  0  0  0
    5.9082   67.7298   62.4746 H   0  0  0  0  0  0  0  0  0  0  0  0
    1.8577   69.4601   64.7960 H   0  0  0  0  0  0  0  0  0  0  0  0
    2.1299   69.8359   69.2126 H   0  0  0  0  0  0  0  0  0  0  0  0
    2.0065   69.0211   66.8615 H   0  0  0  0  0  0  0  0  0  0  0  0
    6.2461   70.9829   68.6114 H   0  0  0  0  0  0  0  0  0  0  0  0
    2.9418   67.7607   60.4951 H   0  0  0  0  0  0  0  0  0  0  0  0
  2  1  2  0
  3  2  1  0
  4  3  2  0
  5  4  1  0
  6  5  2  0
  6  1  1  0
  8  7  1  0
  9  8  2  0
 10  9  1  0
 11  1  1  0
 11 10  2  0
 12 11  1  0
 13 12  2  0
 13  8  1  0
 14 12  1  0
 15  5  1  0
 16 15  2  0
 17 15  1  0
 18  4  1  0
  2 19  1  0
  3 20  1  0
  6 21  1  0
  9 22  1  0
 10 23  1  0
 13 24  1  0
 18 25  1  0
M  CHG  1  17  -1
M  END
>  <score>  (3) 
-10.147

$$$$
=
     RDKit          3D

 25 26  0  0  0  0  0  0  0  0999 V2000
    2.2580   68.8950   66.8120 C   0  0  0  0  0  0  0  0  0  0  0  0
    2.9670   68.6110   65.6320 C   0  0  0  0  0  0  0  0  0  0  0  0
    4.2680   69.0810   65.4400 C   0  0  0  0  0  0  0  0  0  0  0  0
    4.8860   69.8390   66.4290 C   0  0  0  0  0  0  0  0  0  0  0  0
    4.2220   70.1500   67.6230 C   0  0  0  0  0  0  0  0  0  0  0  0
    2.9080   69.6730   67.7900 C   0  0  0  0  0  0  0  0  0  0  0  0
   -2.9700   66.9700   67.6250 F   0  0  0  0  0  0  0  0  0  0  0  0
   -1.7250   67.4250   67.4350 C   0  0  0  0  0  0  0  0  0  0  0  0
   -1.4710   68.3130   66.3990 C   0  0  0  0  0  0  0  0  0  0  0  0
   -0.1710   68.7890   66.2010 C   0  0  0  0  0  0  0  0  0  0  0  0
    0.8910   68.3820   67.0340 C   0  0  0  0  0  0  0  0  0  0  0  0
    0.5860   67.4820   68.0700 C   0  0  0  0  0  0  0  0  0  0  0  0
   -0.7070   67.0030   68.2750 C   0  0  0  0  0  0  0  0  0  0  0  0
    1.5460   67.0450   68.9000 F   0  0  0  0  0  0  0  0  0  0  0  0
    4.8870   70.9630   68.7050 C   0  0  0  0  0  0  0  0  0  0  0  0
    5.6070   71.9470   68.3550 O   0  0  0  0  0  0  0  0  0  0  0  0
    4.6550   70.5850   69.9030 O   0  0  0  0  0  1  0  0  0  0  0  0
    6.1650   70.2650   66.1800 O   0  0  0  0  0  0  0  0  0  0  0  0
    2.4888   68.0080   64.8461 H   0  0  0  0  0  0  0  0  0  0  0  0
    4.8038   68.8518   64.5070 H   0  0  0  0  0  0  0  0  0  0  0  0
    2.3695   69.9166   68.7177 H   0  0  0  0  0  0  0  0  0  0  0  0
   -2.2870   68.6403   65.7379 H   0  0  0  0  0  0  0  0  0  0  0  0
    0.0265   69.4940   65.3801 H   0  0  0  0  0  0  0  0  0  0  0  0
   -0.9166   66.2987   69.0935 H   0  0  0  0  0  0  0  0  0  0  0  0
    6.6461   70.8074   66.8541 H   0  0  0  0  0  0  0  0  0  0  0  0
  2  1  2  0
  3  2  1  0
  4  3  2  0
  5  4  1  0
  6  5  2  0
  6  1  1  0
  8  7  1  0
  9  8  2  0
 10  9  1  0
 11  1  1  0
 11 10  2  0
 12 11  1  0
 13 12  2  0
 13  8  1  0
 14 12  1  0
 15  5  1  0
 16 15  2  0
 17 15  1  0
 18  4  1  0
  2 19  1  0
  3 20  1  0
  6 21  1  0
  9 22  1  0
 10 23  1  0
 13 24  1  0
 18 25  1  0
M  CHG  1  17  -1
M  END
>  <score>  (4) 
-10.01

$$$$
=
     RDKit          3D

 25 26  0  0  0  0  0  0  0  0999 V2000
    2.2540   68.7270   65.7730 C   0  0  0  0  0  0  0  0  0  0  0  0
    2.5880   68.5460   64.4200 C   0  0  0  0  0  0  0  0  0  0  0  0
    3.8420   68.9170   63.9300 C   0  0  0  0  0  0  0  0  0  0  0  0
    4.7870   69.4710   64.7870 C   0  0  0  0  0  0  0  0  0  0  0  0
    4.5030   69.6710   66.1440 C   0  0  0  0  0  0  0  0  0  0  0  0
    3.2290   69.2980   66.6140 C   0  0  0  0  0  0  0  0  0  0  0  0
   -2.7350   67.1320   67.8400 F   0  0  0  0  0  0  0  0  0  0  0  0
   -1.5500   67.5140   67.3450 C   0  0  0  0  0  0  0  0  0  0  0  0
   -0.3860   67.1860   68.0250 C   0  0  0  0  0  0  0  0  0  0  0  0
    0.8510   67.5840   67.5080 C   0  0  0  0  0  0  0  0  0  0  0  0
    0.9390   68.3150   66.3060 C   0  0  0  0  0  0  0  0  0  0  0  0
   -0.2670   68.6240   65.6530 C   0  0  0  0  0  0  0  0  0  0  0  0
   -1.5040   68.2310   66.1600 C   0  0  0  0  0  0  0  0  0  0  0  0
   -0.2620   69.3230   64.5060 F   0  0  0  0  0  0  0  0  0  0  0  0
    5.5250   70.2610   67.0840 C   0  0  0  0  0  0  0  0  0  0  0  0
    6.7350   69.9040   66.9490 O   0  0  0  0  0  0  0  0  0  0  0  0
    5.0730   71.0890   67.9440 O   0  0  0  0  0  1  0  0  0  0  0  0
    5.9990   69.8080   64.2440 O   0  0  0  0  0  0  0  0  0  0  0  0
    1.8490   68.1045   63.7352 H   0  0  0  0  0  0  0  0  0  0  0  0
    4.0823   68.7711   62.8665 H   0  0  0  0  0  0  0  0  0  0  0  0
    2.9868   69.4582   67.6750 H   0  0  0  0  0  0  0  0  0  0  0  0
   -0.4358   66.6165   68.9648 H   0  0  0  0  0  0  0  0  0  0  0  0
    1.7721   67.3218   68.0492 H   0  0  0  0  0  0  0  0  0  0  0  0
   -2.4316   68.4865   65.6268 H   0  0  0  0  0  0  0  0  0  0  0  0
    6.7037   70.2055   64.8145 H   0  0  0  0  0  0  0  0  0  0  0  0
  2  1  2  0
  3  2  1  0
  4  3  2  0
  5  4  1  0
  6  5  2  0
  6  1  1  0
  8  7  1  0
  9  8  2  0
 10  9  1  0
 11  1  1  0
 11 10  2  0
 12 11  1  0
 13 12  2  0
 13  8  1  0
 14 12  1  0
 15  5  1  0
 16 15  2  0
 17 15  1  0
 18  4  1  0
  2 19  1  0
  3 20  1  0
  6 21  1  0
  9 22  1  0
 10 23  1  0
 13 24  1  0
 18 25  1  0
M  CHG  1  17  -1
M  END
>  <score>  (5) 
-9.823

$$$$
=
     RDKit          3D

 25 26  0  0  0  0  0  0  0  0999 V2000
    1.9230   68.5810   65.3130 C   0  0  0  0  0  0  0  0  0  0  0  0
    2.9910   69.1430   66.0330 C   0  0  0  0  0  0  0  0  0  0  0  0
    4.2120   69.4220   65.4130 C   0  0  0  0  0  0  0  0  0  0  0  0
    4.3820   69.1490   64.0600 C   0  0  0  0  0  0  0  0  0  0  0  0
    3.3490   68.5900   63.2990 C   0  0  0  0  0  0  0  0  0  0  0  0
    2.1300   68.3080   63.9470 C   0  0  0  0  0  0  0  0  0  0  0  0
   -3.0630   67.5600   67.7220 F   0  0  0  0  0  0  0  0  0  0  0  0
   -1.8750   67.8000   67.1520 C   0  0  0  0  0  0  0  0  0  0  0  0
   -1.8070   68.5970   66.0180 C   0  0  0  0  0  0  0  0  0  0  0  0
   -0.5670   68.8480   65.4230 C   0  0  0  0  0  0  0  0  0  0  0  0
    0.6210   68.3050   65.9530 C   0  0  0  0  0  0  0  0  0  0  0  0
    0.5030   67.5050   67.1030 C   0  0  0  0  0  0  0  0  0  0  0  0
   -0.7290   67.2500   67.7030 C   0  0  0  0  0  0  0  0  0  0  0  0
    1.5900   66.9490   67.6620 F   0  0  0  0  0  0  0  0  0  0  0  0
    3.5210   68.3000   61.8290 C   0  0  0  0  0  0  0  0  0  0  0  0
    3.0470   69.1330   60.9970 O   0  0  0  0  0  0  0  0  0  0  0  0
    4.1470   67.2240   61.5460 O   0  0  0  0  0  1  0  0  0  0  0  0
    5.6020   69.4520   63.5130 O   0  0  0  0  0  0  0  0  0  0  0  0
    2.8638   69.3670   67.1024 H   0  0  0  0  0  0  0  0  0  0  0  0
    5.0380   69.8572   65.9947 H   0  0  0  0  0  0  0  0  0  0  0  0
    1.3113   67.8589   63.3655 H   0  0  0  0  0  0  0  0  0  0  0  0
   -2.7236   69.0288   65.5897 H   0  0  0  0  0  0  0  0  0  0  0  0
   -0.5175   69.4809   64.5247 H   0  0  0  0  0  0  0  0  0  0  0  0
   -0.7906   66.6200   68.6026 H   0  0  0  0  0  0  0  0  0  0  0  0
    5.7718   69.2761   62.5537 H   0  0  0  0  0  0  0  0  0  0  0  0
  2  1  2  0
  3  2  1  0
  4  3  2  0
  5  4  1  0
  6  5  2  0
  6  1  1  0
  8  7  1  0
  9  8  2  0
 10  9  1  0
 11  1  1  0
 11 10  2  0
 12 11  1  0
 13 12  2  0
 13  8  1  0
 14 12  1  0
 15  5  1  0
 16 15  2  0
 17 15  1  0
 18  4  1  0
  2 19  1  0
  3 20  1  0
  6 21  1  0
  9 22  1  0
 10 23  1  0
 13 24  1  0
 18 25  1  0
M  CHG  1  17  -1
M  END
>  <score>  (6) 
-9.535

$$$$
=
     RDKit          3D

 25 26  0  0  0  0  0  0  0  0999 V2000
    2.3460   69.2370   67.8420 C   0  0  0  0  0  0  0  0  0  0  0  0
    2.6550   69.9540   69.0100 C   0  0  0  0  0  0  0  0  0  0  0  0
    3.8760   70.6200   69.1470 C   0  0  0  0  0  0  0  0  0  0  0  0
    4.8050   70.5860   68.1140 C   0  0  0  0  0  0  0  0  0  0  0  0
    4.5440   69.8860   66.9290 C   0  0  0  0  0  0  0  0  0  0  0  0
    3.3120   69.2140   66.8170 C   0  0  0  0  0  0  0  0  0  0  0  0
   -2.6120   66.6510   67.1830 F   0  0  0  0  0  0  0  0  0  0  0  0
   -1.4310   67.2630   67.3430 C   0  0  0  0  0  0  0  0  0  0  0  0
   -1.0960   68.3300   66.5210 C   0  0  0  0  0  0  0  0  0  0  0  0
    0.1360   68.9700   66.6890 C   0  0  0  0  0  0  0  0  0  0  0  0
    1.0490   68.5500   67.6780 C   0  0  0  0  0  0  0  0  0  0  0  0
    0.6650   67.4660   68.4860 C   0  0  0  0  0  0  0  0  0  0  0  0
   -0.5610   66.8230   68.3270 C   0  0  0  0  0  0  0  0  0  0  0  0
    1.4850   67.0060   69.4460 F   0  0  0  0  0  0  0  0  0  0  0  0
    5.5420   69.8520   65.7980 C   0  0  0  0  0  0  0  0  0  0  0  0
    5.6040   68.8020   65.0890 O   0  0  0  0  0  0  0  0  0  0  0  0
    6.2450   70.9080   65.6470 O   0  0  0  0  0  1  0  0  0  0  0  0
    5.9800   71.2650   68.3100 O   0  0  0  0  0  0  0  0  0  0  0  0
    1.9235   69.9918   69.8306 H   0  0  0  0  0  0  0  0  0  0  0  0
    4.1016   71.1708   70.0720 H   0  0  0  0  0  0  0  0  0  0  0  0
    3.0961   68.6512   65.8968 H   0  0  0  0  0  0  0  0  0  0  0  0
   -1.7949   68.6700   65.7426 H   0  0  0  0  0  0  0  0  0  0  0  0
    0.3977   69.8168   66.0375 H   0  0  0  0  0  0  0  0  0  0  0  0
   -0.8344   65.9769   68.9746 H   0  0  0  0  0  0  0  0  0  0  0  0
    6.6727   71.2700   67.6028 H   0  0  0  0  0  0  0  0  0  0  0  0
  2  1  2  0
  3  2  1  0
  4  3  2  0
  5  4  1  0
  6  5  2  0
  6  1  1  0
  8  7  1  0
  9  8  2  0
 10  9  1  0
 11  1  1  0
 11 10  2  0
 12 11  1  0
 13 12  2  0
 13  8  1  0
 14 12  1  0
 15  5  1  0
 16 15  2  0
 17 15  1  0
 18  4  1  0
  2 19  1  0
  3 20  1  0
  6 21  1  0
  9 22  1  0
 10 23  1  0
 13 24  1  0
 18 25  1  0
M  CHG  1  17  -1
M  END
>  <score>  (7) 
-9.358

$$$$
=
     RDKit          3D

 25 26  0  0  0  0  0  0  0  0999 V2000
    2.5160   68.8420   66.7880 C   0  0  0  0  0  0  0  0  0  0  0  0
    3.1800   69.6510   67.7250 C   0  0  0  0  0  0  0  0  0  0  0  0
    4.4570   70.1550   67.4680 C   0  0  0  0  0  0  0  0  0  0  0  0
    5.0900   69.8620   66.2640 C   0  0  0  0  0  0  0  0  0  0  0  0
    4.4700   69.0610   65.2980 C   0  0  0  0  0  0  0  0  0  0  0  0
    3.1870   68.5560   65.5820 C   0  0  0  0  0  0  0  0  0  0  0  0
   -2.6530   66.8470   67.7900 F   0  0  0  0  0  0  0  0  0  0  0  0
   -1.4250   67.3240   67.5480 C   0  0  0  0  0  0  0  0  0  0  0  0
   -0.4090   67.0970   68.4650 C   0  0  0  0  0  0  0  0  0  0  0  0
    0.8730   67.5940   68.2120 C   0  0  0  0  0  0  0  0  0  0  0  0
    1.1550   68.3250   67.0400 C   0  0  0  0  0  0  0  0  0  0  0  0
    0.0950   68.5290   66.1400 C   0  0  0  0  0  0  0  0  0  0  0  0
   -1.1860   68.0370   66.3840 C   0  0  0  0  0  0  0  0  0  0  0  0
    0.2860   69.2200   65.0050 F   0  0  0  0  0  0  0  0  0  0  0  0
    5.1440   68.7470   63.9850 C   0  0  0  0  0  0  0  0  0  0  0  0
    5.1980   67.5340   63.6180 O   0  0  0  0  0  0  0  0  0  0  0  0
    5.6030   69.7510   63.3440 O   0  0  0  0  0  1  0  0  0  0  0  0
    6.3400   70.3920   66.0730 O   0  0  0  0  0  0  0  0  0  0  0  0
    2.6856   69.8917   68.6777 H   0  0  0  0  0  0  0  0  0  0  0  0
    4.9619   70.7830   68.2168 H   0  0  0  0  0  0  0  0  0  0  0  0
    2.6912   67.9162   64.8371 H   0  0  0  0  0  0  0  0  0  0  0  0
   -0.6109   66.5295   69.3854 H   0  0  0  0  0  0  0  0  0  0  0  0
    1.6764   67.4113   68.9408 H   0  0  0  0  0  0  0  0  0  0  0  0
   -1.9970   68.2124   65.6618 H   0  0  0  0  0  0  0  0  0  0  0  0
    6.8308   70.2119   65.2323 H   0  0  0  0  0  0  0  0  0  0  0  0
  2  1  2  0
  3  2  1  0
  4  3  2  0
  5  4  1  0
  6  5  2  0
  6  1  1  0
  8  7  1  0
  9  8  2  0
 10  9  1  0
 11  1  1  0
 11 10  2  0
 12 11  1  0
 13 12  2  0
 13  8  1  0
 14 12  1  0
 15  5  1  0
 16 15  2  0
 17 15  1  0
 18  4  1  0
  2 19  1  0
  3 20  1  0
  6 21  1  0
  9 22  1  0
 10 23  1  0
 13 24  1  0
 18 25  1  0
M  CHG  1  17  -1
M  END
>  <score>  (8) 
-9.297

$$$$
=
     RDKit          3D

 25 26  0  0  0  0  0  0  0  0999 V2000
    1.0820   68.4730   65.3050 C   0  0  0  0  0  0  0  0  0  0  0  0
   -0.1770   68.9540   64.9080 C   0  0  0  0  0  0  0  0  0  0  0  0
   -1.3060   68.7720   65.7100 C   0  0  0  0  0  0  0  0  0  0  0  0
   -1.1930   68.1100   66.9280 C   0  0  0  0  0  0  0  0  0  0  0  0
    0.0390   67.6120   67.3690 C   0  0  0  0  0  0  0  0  0  0  0  0
    1.1620   67.7980   66.5400 C   0  0  0  0  0  0  0  0  0  0  0  0
    5.6480   69.2490   62.1040 F   0  0  0  0  0  0  0  0  0  0  0  0
    4.5640   69.0670   62.8690 C   0  0  0  0  0  0  0  0  0  0  0  0
    3.3940   68.5890   62.2960 C   0  0  0  0  0  0  0  0  0  0  0  0
    2.2630   68.3970   63.0950 C   0  0  0  0  0  0  0  0  0  0  0  0
    2.2860   68.6820   64.4750 C   0  0  0  0  0  0  0  0  0  0  0  0
    3.4940   69.1630   65.0110 C   0  0  0  0  0  0  0  0  0  0  0  0
    4.6260   69.3570   64.2220 C   0  0  0  0  0  0  0  0  0  0  0  0
    3.5900   69.4620   66.3160 F   0  0  0  0  0  0  0  0  0  0  0  0
    0.1740   66.9010   68.6930 C   0  0  0  0  0  0  0  0  0  0  0  0
    1.1300   67.2380   69.4560 O   0  0  0  0  0  0  0  0  0  0  0  0
   -0.7090   66.0110   68.9360 O   0  0  0  0  0  1  0  0  0  0  0  0
   -2.3380   67.9690   67.6690 O   0  0  0  0  0  0  0  0  0  0  0  0
   -0.2753   69.4832   63.9487 H   0  0  0  0  0  0  0  0  0  0  0  0
   -2.2837   69.1519   65.3786 H   0  0  0  0  0  0  0  0  0  0  0  0
    2.1351   67.4030   66.8673 H   0  0  0  0  0  0  0  0  0  0  0  0
    3.3567   68.3627   61.2202 H   0  0  0  0  0  0  0  0  0  0  0  0
    1.3377   68.0163   62.6379 H   0  0  0  0  0  0  0  0  0  0  0  0
    5.5574   69.7358   64.6681 H   0  0  0  0  0  0  0  0  0  0  0  0
   -2.3080   67.5050   68.5430 H   0  0  0  0  0  0  0  0  0  0  0  0
  2  1  2  0
  3  2  1  0
  4  3  2  0
  5  4  1  0
  6  5  2  0
  6  1  1  0
  8  7  1  0
  9  8  2  0
 10  9  1  0
 11  1  1  0
 11 10  2  0
 12 11  1  0
 13 12  2  0
 13  8  1  0
 14 12  1  0
 15  5  1  0
 16 15  2  0
 17 15  1  0
 18  4  1  0
  2 19  1  0
  3 20  1  0
  6 21  1  0
  9 22  1  0
 10 23  1  0
 13 24  1  0
 18 25  1  0
M  CHG  1  17  -1
M  END
>  <score>  (9) 
-9.129

$$$$
