=
     RDKit          3D

 16 17  0  0  0  0  0  0  0  0999 V2000
    4.0650   68.5000   61.2900 N   0  0  0  0  0  0  0  0  0  0  0  0
    3.8350   67.5720   62.2550 C   0  0  0  0  0  0  0  0  0  0  0  0
    2.9130   67.9230   63.2260 N   0  0  0  0  0  0  0  0  0  0  0  0
    2.5660   67.0990   64.2840 C   0  0  0  0  0  0  0  0  0  0  0  0
    1.4840   67.5180   65.4640 S   0  0  0  0  0  0  0  0  0  0  0  0
    3.2370   65.8280   64.2740 C   0  0  0  0  0  0  0  0  0  0  0  0
    4.1260   65.6080   63.2460 C   0  0  0  0  0  0  0  0  0  0  0  0
    4.4640   66.4280   62.2240 N   0  0  0  0  0  0  0  0  0  0  0  0
    4.6250   64.3600   63.4640 N   0  0  0  0  0  0  0  0  0  0  0  0
    4.0220   63.8780   64.5980 C   0  0  0  0  0  0  0  0  0  0  0  0
    3.1720   64.7450   65.1140 N   0  0  0  0  0  0  0  0  0  0  0  0
    4.7395   68.3035   60.5368 H   0  0  0  0  0  0  0  0  0  0  0  0
    3.5649   69.4002   61.3115 H   0  0  0  0  0  0  0  0  0  0  0  0
    2.4609   68.8460   63.1582 H   0  0  0  0  0  0  0  0  0  0  0  0
    5.3233   63.8703   62.8865 H   0  0  0  0  0  0  0  0  0  0  0  0
    4.2235   62.8852   65.0267 H   0  0  0  0  0  0  0  0  0  0  0  0
  2  1  1  0
  3  2  1  0
  4  3  1  0
  5  4  2  0
  6  4  1  0
  7  6  2  0
  8  7  1  0
  8  2  2  0
  9  7  1  0
 10  9  1  0
 11 10  2  0
 11  6  1  0
  1 12  1  0
  1 13  1  0
  3 14  1  0
  9 15  1  0
 10 16  1  0
M  END
>  <score>  (1) 
-6.234

$$$$
=
     RDKit          3D

 16 17  0  0  0  0  0  0  0  0999 V2000
    5.8480   69.3230   63.5450 N   0  0  0  0  0  0  0  0  0  0  0  0
    5.2290   69.4720   64.7440 C   0  0  0  0  0  0  0  0  0  0  0  0
    6.0000   70.0020   65.7630 N   0  0  0  0  0  0  0  0  0  0  0  0
    5.5280   70.2140   67.0490 C   0  0  0  0  0  0  0  0  0  0  0  0
    6.4490   70.8240   68.2810 S   0  0  0  0  0  0  0  0  0  0  0  0
    4.1490   69.8500   67.2280 C   0  0  0  0  0  0  0  0  0  0  0  0
    3.4990   69.3380   66.1270 C   0  0  0  0  0  0  0  0  0  0  0  0
    3.9760   69.1270   64.8790 N   0  0  0  0  0  0  0  0  0  0  0  0
    2.2330   69.0700   66.5520 N   0  0  0  0  0  0  0  0  0  0  0  0
    2.1670   69.4300   67.8730 C   0  0  0  0  0  0  0  0  0  0  0  0
    3.3140   69.9090   68.3150 N   0  0  0  0  0  0  0  0  0  0  0  0
    5.3312   68.9340   62.7434 H   0  0  0  0  0  0  0  0  0  0  0  0
    6.8344   69.5990   63.4369 H   0  0  0  0  0  0  0  0  0  0  0  0
    6.9772   70.2525   65.5550 H   0  0  0  0  0  0  0  0  0  0  0  0
    1.4692   68.6719   65.9872 H   0  0  0  0  0  0  0  0  0  0  0  0
    1.2632   69.3311   68.4922 H   0  0  0  0  0  0  0  0  0  0  0  0
  2  1  1  0
  3  2  1  0
  4  3  1  0
  5  4  2  0
  6  4  1  0
  7  6  2  0
  8  7  1  0
  8  2  2  0
  9  7  1  0
 10  9  1  0
 11 10  2  0
 11  6  1  0
  1 12  1  0
  1 13  1  0
  3 14  1  0
  9 15  1  0
 10 16  1  0
M  END
>  <score>  (2) 
-6.117

$$$$
=
     RDKit          3D

 16 17  0  0  0  0  0  0  0  0999 V2000
    1.2870   69.5810   68.1360 N   0  0  0  0  0  0  0  0  0  0  0  0
    2.6090   69.7660   67.8890 C   0  0  0  0  0  0  0  0  0  0  0  0
    3.0430   69.4250   66.6210 N   0  0  0  0  0  0  0  0  0  0  0  0
    4.3590   69.5440   66.2040 C   0  0  0  0  0  0  0  0  0  0  0  0
    4.8930   69.1150   64.6970 S   0  0  0  0  0  0  0  0  0  0  0  0
    5.2390   70.0790   67.2070 C   0  0  0  0  0  0  0  0  0  0  0  0
    4.6730   70.3810   68.4250 C   0  0  0  0  0  0  0  0  0  0  0  0
    3.3860   70.2490   68.8220 N   0  0  0  0  0  0  0  0  0  0  0  0
    5.6970   70.8540   69.1880 N   0  0  0  0  0  0  0  0  0  0  0  0
    6.8260   70.8240   68.4100 C   0  0  0  0  0  0  0  0  0  0  0  0
    6.5820   70.3600   67.2000 N   0  0  0  0  0  0  0  0  0  0  0  0
    0.8982   69.8150   69.0606 H   0  0  0  0  0  0  0  0  0  0  0  0
    0.6728   69.2067   67.3988 H   0  0  0  0  0  0  0  0  0  0  0  0
    2.3504   69.0629   65.9501 H   0  0  0  0  0  0  0  0  0  0  0  0
    5.6352   71.1739   70.1651 H   0  0  0  0  0  0  0  0  0  0  0  0
    7.8187   71.1489   68.7549 H   0  0  0  0  0  0  0  0  0  0  0  0
  2  1  1  0
  3  2  1  0
  4  3  1  0
  5  4  2  0
  6  4  1  0
  7  6  2  0
  8  7  1  0
  8  2  2  0
  9  7  1  0
 10  9  1  0
 11 10  2  0
 11  6  1  0
  1 12  1  0
  1 13  1  0
  3 14  1  0
  9 15  1  0
 10 16  1  0
M  END
>  <score>  (3) 
-6.059

$$$$
=
     RDKit          3D

 16 17  0  0  0  0  0  0  0  0999 V2000
    5.6340   69.1060   62.3940 N   0  0  0  0  0  0  0  0  0  0  0  0
    5.0120   69.1950   63.5980 C   0  0  0  0  0  0  0  0  0  0  0  0
    5.7880   69.6510   64.6490 N   0  0  0  0  0  0  0  0  0  0  0  0
    5.3140   69.7950   65.9430 C   0  0  0  0  0  0  0  0  0  0  0  0
    6.2400   70.3160   67.2130 S   0  0  0  0  0  0  0  0  0  0  0  0
    3.9280   69.4470   66.0960 C   0  0  0  0  0  0  0  0  0  0  0  0
    3.2740   69.0130   64.9650 C   0  0  0  0  0  0  0  0  0  0  0  0
    3.7530   68.8660   63.7080 N   0  0  0  0  0  0  0  0  0  0  0  0
    2.0010   68.7430   65.3680 N   0  0  0  0  0  0  0  0  0  0  0  0
    1.9360   69.0260   66.7090 C   0  0  0  0  0  0  0  0  0  0  0  0
    3.0890   69.4570   67.1810 N   0  0  0  0  0  0  0  0  0  0  0  0
    5.1143   68.7737   61.5691 H   0  0  0  0  0  0  0  0  0  0  0  0
    6.6255   69.3708   62.3057 H   0  0  0  0  0  0  0  0  0  0  0  0
    6.7702   69.8964   64.4593 H   0  0  0  0  0  0  0  0  0  0  0  0
    1.2329   68.3928   64.7779 H   0  0  0  0  0  0  0  0  0  0  0  0
    1.0282   68.9072   67.3188 H   0  0  0  0  0  0  0  0  0  0  0  0
  2  1  1  0
  3  2  1  0
  4  3  1  0
  5  4  2  0
  6  4  1  0
  7  6  2  0
  8  7  1  0
  8  2  2  0
  9  7  1  0
 10  9  1  0
 11 10  2  0
 11  6  1  0
  1 12  1  0
  1 13  1  0
  3 14  1  0
  9 15  1  0
 10 16  1  0
M  END
>  <score>  (4) 
-6.032

$$$$
=
     RDKit          3D

 16 17  0  0  0  0  0  0  0  0999 V2000
    7.2890   71.0200   69.1610 N   0  0  0  0  0  0  0  0  0  0  0  0
    6.1100   70.6340   68.6090 C   0  0  0  0  0  0  0  0  0  0  0  0
    6.1630   70.2340   67.2850 N   0  0  0  0  0  0  0  0  0  0  0  0
    5.0530   69.8170   66.5670 C   0  0  0  0  0  0  0  0  0  0  0  0
    5.1010   69.3600   64.9770 S   0  0  0  0  0  0  0  0  0  0  0  0
    3.8350   69.8160   67.3300 C   0  0  0  0  0  0  0  0  0  0  0  0
    3.9280   70.2330   68.6390 C   0  0  0  0  0  0  0  0  0  0  0  0
    5.0180   70.6490   69.3250 N   0  0  0  0  0  0  0  0  0  0  0  0
    2.6610   70.1500   69.1320 N   0  0  0  0  0  0  0  0  0  0  0  0
    1.8640   69.6860   68.1170 C   0  0  0  0  0  0  0  0  0  0  0  0
    2.5460   69.4720   67.0090 N   0  0  0  0  0  0  0  0  0  0  0  0
    7.3211   71.3297   70.1428 H   0  0  0  0  0  0  0  0  0  0  0  0
    8.1513   71.0032   68.5979 H   0  0  0  0  0  0  0  0  0  0  0  0
    7.0757   70.2469   66.8079 H   0  0  0  0  0  0  0  0  0  0  0  0
    2.3586   70.3903   70.0868 H   0  0  0  0  0  0  0  0  0  0  0  0
    0.7822   69.5126   68.2157 H   0  0  0  0  0  0  0  0  0  0  0  0
  2  1  1  0
  3  2  1  0
  4  3  1  0
  5  4  2  0
  6  4  1  0
  7  6  2  0
  8  7  1  0
  8  2  2  0
  9  7  1  0
 10  9  1  0
 11 10  2  0
 11  6  1  0
  1 12  1  0
  1 13  1  0
  3 14  1  0
  9 15  1  0
 10 16  1  0
M  END
>  <score>  (5) 
-6.026

$$$$
=
     RDKit          3D

 16 17  0  0  0  0  0  0  0  0999 V2000
   -3.7050   68.7180   65.7990 N   0  0  0  0  0  0  0  0  0  0  0  0
   -2.3500   68.7150   65.8840 C   0  0  0  0  0  0  0  0  0  0  0  0
   -1.6660   68.8090   64.6850 N   0  0  0  0  0  0  0  0  0  0  0  0
   -0.2840   68.8130   64.5900 C   0  0  0  0  0  0  0  0  0  0  0  0
    0.5430   68.8990   63.1590 S   0  0  0  0  0  0  0  0  0  0  0  0
    0.3850   68.7320   65.8590 C   0  0  0  0  0  0  0  0  0  0  0  0
   -0.4180   68.6490   66.9740 C   0  0  0  0  0  0  0  0  0  0  0  0
   -1.7690   68.6350   67.0510 N   0  0  0  0  0  0  0  0  0  0  0  0
    0.4400   68.5760   68.0290 N   0  0  0  0  0  0  0  0  0  0  0  0
    1.7120   68.6220   67.5170 C   0  0  0  0  0  0  0  0  0  0  0  0
    1.7140   68.7190   66.2020 N   0  0  0  0  0  0  0  0  0  0  0  0
   -4.2748   68.6507   66.6544 H   0  0  0  0  0  0  0  0  0  0  0  0
   -4.1632   68.7876   64.8791 H   0  0  0  0  0  0  0  0  0  0  0  0
   -2.2141   68.8799   63.8158 H   0  0  0  0  0  0  0  0  0  0  0  0
    0.1826   68.5005   69.0235 H   0  0  0  0  0  0  0  0  0  0  0  0
    2.6235   68.5826   68.1315 H   0  0  0  0  0  0  0  0  0  0  0  0
  2  1  1  0
  3  2  1  0
  4  3  1  0
  5  4  2  0
  6  4  1  0
  7  6  2  0
  8  7  1  0
  8  2  2  0
  9  7  1  0
 10  9  1  0
 11 10  2  0
 11  6  1  0
  1 12  1  0
  1 13  1  0
  3 14  1  0
  9 15  1  0
 10 16  1  0
M  END
>  <score>  (6) 
-6.005

$$$$
=
     RDKit          3D

 16 17  0  0  0  0  0  0  0  0999 V2000
    3.6870   70.6490   69.5820 N   0  0  0  0  0  0  0  0  0  0  0  0
    3.7710   70.2080   68.3010 C   0  0  0  0  0  0  0  0  0  0  0  0
    2.6480   69.5710   67.8040 N   0  0  0  0  0  0  0  0  0  0  0  0
    2.5660   69.0550   66.5200 C   0  0  0  0  0  0  0  0  0  0  0  0
    1.2360   68.2710   65.9240 S   0  0  0  0  0  0  0  0  0  0  0  0
    3.7530   69.2590   65.7360 C   0  0  0  0  0  0  0  0  0  0  0  0
    4.7950   69.9120   66.3550 C   0  0  0  0  0  0  0  0  0  0  0  0
    4.8650   70.4020   67.6140 N   0  0  0  0  0  0  0  0  0  0  0  0
    5.7850   69.9700   65.4220 N   0  0  0  0  0  0  0  0  0  0  0  0
    5.3070   69.3630   64.2890 C   0  0  0  0  0  0  0  0  0  0  0  0
    4.0750   68.9210   64.4460 N   0  0  0  0  0  0  0  0  0  0  0  0
    4.4877   71.1319   70.0140 H   0  0  0  0  0  0  0  0  0  0  0  0
    2.8226   70.5007   70.1221 H   0  0  0  0  0  0  0  0  0  0  0  0
    1.8289   69.4750   68.4211 H   0  0  0  0  0  0  0  0  0  0  0  0
    6.7173   70.3905   65.5442 H   0  0  0  0  0  0  0  0  0  0  0  0
    5.8839   69.2573   63.3584 H   0  0  0  0  0  0  0  0  0  0  0  0
  2  1  1  0
  3  2  1  0
  4  3  1  0
  5  4  2  0
  6  4  1  0
  7  6  2  0
  8  7  1  0
  8  2  2  0
  9  7  1  0
 10  9  1  0
 11 10  2  0
 11  6  1  0
  1 12  1  0
  1 13  1  0
  3 14  1  0
  9 15  1  0
 10 16  1  0
M  END
>  <score>  (7) 
-6.0

$$$$
=
     RDKit          3D

 16 17  0  0  0  0  0  0  0  0999 V2000
    0.0260   65.8500   69.5940 N   0  0  0  0  0  0  0  0  0  0  0  0
   -0.3810   66.5900   68.5310 C   0  0  0  0  0  0  0  0  0  0  0  0
    0.6160   67.0130   67.6690 N   0  0  0  0  0  0  0  0  0  0  0  0
    0.3770   67.7810   66.5410 C   0  0  0  0  0  0  0  0  0  0  0  0
    1.5640   68.3130   65.5180 S   0  0  0  0  0  0  0  0  0  0  0  0
   -1.0120   68.0860   66.3300 C   0  0  0  0  0  0  0  0  0  0  0  0
   -1.8980   67.5970   67.2630 C   0  0  0  0  0  0  0  0  0  0  0  0
   -1.6490   66.8560   68.3670 N   0  0  0  0  0  0  0  0  0  0  0  0
   -3.1240   68.0210   66.8490 N   0  0  0  0  0  0  0  0  0  0  0  0
   -2.9340   68.7360   65.6940 C   0  0  0  0  0  0  0  0  0  0  0  0
   -1.6620   68.7930   65.3510 N   0  0  0  0  0  0  0  0  0  0  0  0
   -0.6648   65.5031   70.2747 H   0  0  0  0  0  0  0  0  0  0  0  0
    1.0255   65.6355   69.7197 H   0  0  0  0  0  0  0  0  0  0  0  0
    1.5877   66.7423   67.8774 H   0  0  0  0  0  0  0  0  0  0  0  0
   -4.0242   67.8391   67.3152 H   0  0  0  0  0  0  0  0  0  0  0  0
   -3.7469   69.2064   65.1213 H   0  0  0  0  0  0  0  0  0  0  0  0
  2  1  1  0
  3  2  1  0
  4  3  1  0
  5  4  2  0
  6  4  1  0
  7  6  2  0
  8  7  1  0
  8  2  2  0
  9  7  1  0
 10  9  1  0
 11 10  2  0
 11  6  1  0
  1 12  1  0
  1 13  1  0
  3 14  1  0
  9 15  1  0
 10 16  1  0
M  END
>  <score>  (8) 
-5.869

$$$$
=
     RDKit          3D

 16 17  0  0  0  0  0  0  0  0999 V2000
    0.3980   67.8880   65.7540 N   0  0  0  0  0  0  0  0  0  0  0  0
    1.4360   68.5290   66.3500 C   0  0  0  0  0  0  0  0  0  0  0  0
    2.5770   68.6810   65.5820 N   0  0  0  0  0  0  0  0  0  0  0  0
    3.7280   69.3040   66.0360 C   0  0  0  0  0  0  0  0  0  0  0  0
    5.1060   69.4680   65.1340 S   0  0  0  0  0  0  0  0  0  0  0  0
    3.6260   69.8040   67.3800 C   0  0  0  0  0  0  0  0  0  0  0  0
    2.4300   69.5880   68.0270 C   0  0  0  0  0  0  0  0  0  0  0  0
    1.3170   68.9680   67.5750 N   0  0  0  0  0  0  0  0  0  0  0  0
    2.5890   70.1380   69.2630 N   0  0  0  0  0  0  0  0  0  0  0  0
    3.8560   70.6610   69.3110 C   0  0  0  0  0  0  0  0  0  0  0  0
    4.5120   70.4760   68.1830 N   0  0  0  0  0  0  0  0  0  0  0  0
   -0.4813   67.7414   66.2699 H   0  0  0  0  0  0  0  0  0  0  0  0
    0.4899   67.5484   64.7860 H   0  0  0  0  0  0  0  0  0  0  0  0
    2.5701   68.3109   64.6208 H   0  0  0  0  0  0  0  0  0  0  0  0
    1.8897   70.1575   70.0189 H   0  0  0  0  0  0  0  0  0  0  0  0
    4.2756   71.1748   70.1884 H   0  0  0  0  0  0  0  0  0  0  0  0
  2  1  1  0
  3  2  1  0
  4  3  1  0
  5  4  2  0
  6  4  1  0
  7  6  2  0
  8  7  1  0
  8  2  2  0
  9  7  1  0
 10  9  1  0
 11 10  2  0
 11  6  1  0
  1 12  1  0
  1 13  1  0
  3 14  1  0
  9 15  1  0
 10 16  1  0
M  END
>  <score>  (9) 
-5.839

$$$$
