=
     RDKit          3D

 44 45  0  0  0  0  0  0  0  0999 V2000
    1.4560   68.1130   66.5850 C   0  0  0  0  0  0  0  0  0  0  0  0
    2.8270   68.7120   66.3900 C   0  0  0  0  0  0  0  0  0  0  0  0
    3.3440   69.5220   67.4180 C   0  0  0  0  0  0  0  0  0  0  0  0
    4.6140   70.1200   67.3500 C   0  0  0  0  0  0  0  0  0  0  0  0
    5.3640   69.8510   66.1900 C   0  0  0  0  0  0  0  0  0  0  0  0
    4.8790   69.0660   65.1220 C   0  0  0  0  0  0  0  0  0  0  0  0
    3.6000   68.4690   65.2340 C   0  0  0  0  0  0  0  0  0  0  0  0
    5.7330   68.8570   63.8930 C   0  0  0  0  0  0  0  0  0  0  0  0
    5.1470   71.0060   68.5010 C   0  0  0  0  0  0  0  0  0  0  0  0
    5.7830   72.2970   67.9400 C   0  0  0  0  0  0  0  0  0  0  0  0
    4.0060   71.3650   69.4790 C   0  0  0  0  0  0  0  0  0  0  0  0
    6.2450   70.3210   69.3580 C   0  0  0  0  0  0  0  0  0  0  0  0
    6.6180   70.3890   66.0810 O   0  0  0  0  0  0  0  0  0  0  0  0
    3.0220   67.6520   64.0910 C   0  0  0  0  0  0  0  0  0  0  0  0
    3.4270   66.2240   64.0980 C   0  0  0  0  0  0  0  0  0  0  0  0
    2.8940   65.3450   64.9270 N   0  0  0  0  0  4  0  0  0  0  0  0
    3.4890   64.0170   64.7030 C   0  0  0  0  0  0  0  0  0  0  0  0
    4.4950   64.2680   63.5650 C   0  0  0  0  0  0  0  0  0  0  0  0
    4.3360   65.7030   63.2970 N   0  0  0  0  0  0  0  0  0  0  0  0
    1.2456   68.0211   67.6608 H   0  0  0  0  0  0  0  0  0  0  0  0
    0.7018   68.7636   66.1182 H   0  0  0  0  0  0  0  0  0  0  0  0
    1.4210   67.1176   66.1182 H   0  0  0  0  0  0  0  0  0  0  0  0
    2.7279   69.6945   68.3128 H   0  0  0  0  0  0  0  0  0  0  0  0
    6.7595   68.6058   64.1982 H   0  0  0  0  0  0  0  0  0  0  0  0
    5.3171   68.0341   63.2931 H   0  0  0  0  0  0  0  0  0  0  0  0
    5.7441   69.7789   63.2931 H   0  0  0  0  0  0  0  0  0  0  0  0
    6.1004   72.9413   68.7731 H   0  0  0  0  0  0  0  0  0  0  0  0
    6.6564   72.0376   67.3237 H   0  0  0  0  0  0  0  0  0  0  0  0
    5.0451   72.8314   67.3237 H   0  0  0  0  0  0  0  0  0  0  0  0
    4.3614   71.2532   70.5140 H   0  0  0  0  0  0  0  0  0  0  0  0
    3.6917   72.4054   69.3097 H   0  0  0  0  0  0  0  0  0  0  0  0
    3.1526   70.6920   69.3097 H   0  0  0  0  0  0  0  0  0  0  0  0
    6.0186   70.4623   70.4251 H   0  0  0  0  0  0  0  0  0  0  0  0
    6.2719   69.2456   69.1281 H   0  0  0  0  0  0  0  0  0  0  0  0
    7.2227   70.7697   69.1281 H   0  0  0  0  0  0  0  0  0  0  0  0
    7.1636   70.2131   65.2739 H   0  0  0  0  0  0  0  0  0  0  0  0
    1.9248   67.6997   64.1533 H   0  0  0  0  0  0  0  0  0  0  0  0
    3.4155   68.0875   63.1607 H   0  0  0  0  0  0  0  0  0  0  0  0
    2.1689   65.5572   65.6271 H   0  0  0  0  0  0  0  0  0  0  0  0
    3.9996   63.6561   65.6080 H   0  0  0  0  0  0  0  0  0  0  0  0
    2.7433   63.2468   64.4567 H   0  0  0  0  0  0  0  0  0  0  0  0
    5.5214   64.0367   63.8860 H   0  0  0  0  0  0  0  0  0  0  0  0
    4.3164   63.6386   62.6807 H   0  0  0  0  0  0  0  0  0  0  0  0
    4.8608   66.2289   62.5836 H   0  0  0  0  0  0  0  0  0  0  0  0
  2  1  1  0
  3  2  2  0
  4  3  1  0
  5  4  2  0
  6  5  1  0
  7  6  2  0
  7  2  1  0
  8  6  1  0
  9  4  1  0
 10  9  1  0
 11  9  1  0
 12  9  1  0
 13  5  1  0
 14  7  1  0
 15 14  1  0
 16 15  2  0
 17 16  1  0
 18 17  1  0
 19 18  1  0
 19 15  1  0
  1 20  1  0
  1 21  1  0
  1 22  1  0
  3 23  1  0
  8 24  1  0
  8 25  1  0
  8 26  1  0
 10 27  1  0
 10 28  1  0
 10 29  1  0
 11 30  1  0
 11 31  1  0
 11 32  1  0
 12 33  1  0
 12 34  1  0
 12 35  1  0
 13 36  1  0
 14 37  1  0
 14 38  1  0
 16 39  1  0
 17 40  1  0
 17 41  1  0
 18 42  1  0
 18 43  1  0
 19 44  1  0
M  CHG  1  16   1
M  END
>  <score>  (1) 
-8.811

$$$$
=
     RDKit          3D

 44 45  0  0  0  0  0  0  0  0999 V2000
    5.8040   68.8480   63.6810 C   0  0  0  0  0  0  0  0  0  0  0  0
    5.0200   69.1020   64.9450 C   0  0  0  0  0  0  0  0  0  0  0  0
    5.6540   69.8140   65.9820 C   0  0  0  0  0  0  0  0  0  0  0  0
    5.0170   70.1190   67.1960 C   0  0  0  0  0  0  0  0  0  0  0  0
    3.6840   69.6870   67.3210 C   0  0  0  0  0  0  0  0  0  0  0  0
    3.0140   68.9490   66.3220 C   0  0  0  0  0  0  0  0  0  0  0  0
    3.6850   68.6730   65.1060 C   0  0  0  0  0  0  0  0  0  0  0  0
    1.5940   68.4880   66.5510 C   0  0  0  0  0  0  0  0  0  0  0  0
    5.7490   70.9030   68.3120 C   0  0  0  0  0  0  0  0  0  0  0  0
    5.6640   72.4230   68.0490 C   0  0  0  0  0  0  0  0  0  0  0  0
    5.1370   70.5740   69.6920 C   0  0  0  0  0  0  0  0  0  0  0  0
    7.2600   70.5670   68.4210 C   0  0  0  0  0  0  0  0  0  0  0  0
    3.0070   69.9780   68.4750 O   0  0  0  0  0  0  0  0  0  0  0  0
    3.0170   67.8460   64.0200 C   0  0  0  0  0  0  0  0  0  0  0  0
    3.3770   66.4060   64.0460 C   0  0  0  0  0  0  0  0  0  0  0  0
    2.8170   65.5560   64.8860 N   0  0  0  0  0  4  0  0  0  0  0  0
    3.3690   64.2060   64.6790 C   0  0  0  0  0  0  0  0  0  0  0  0
    4.3800   64.4100   63.5370 C   0  0  0  0  0  0  0  0  0  0  0  0
    4.2670   65.8450   63.2500 N   0  0  0  0  0  0  0  0  0  0  0  0
    6.8210   68.5185   63.9403 H   0  0  0  0  0  0  0  0  0  0  0  0
    5.3045   68.0657   63.0906 H   0  0  0  0  0  0  0  0  0  0  0  0
    5.8581   69.7746   63.0906 H   0  0  0  0  0  0  0  0  0  0  0  0
    6.6925   70.1453   65.8347 H   0  0  0  0  0  0  0  0  0  0  0  0
    1.3988   68.4246   67.6317 H   0  0  0  0  0  0  0  0  0  0  0  0
    0.8972   69.2061   66.0940 H   0  0  0  0  0  0  0  0  0  0  0  0
    1.4518   67.4976   66.0940 H   0  0  0  0  0  0  0  0  0  0  0  0
    5.6340   72.9600   69.0085 H   0  0  0  0  0  0  0  0  0  0  0  0
    6.5455   72.7458   67.4756 H   0  0  0  0  0  0  0  0  0  0  0  0
    4.7520   72.6455   67.4756 H   0  0  0  0  0  0  0  0  0  0  0  0
    5.8076   70.9345   70.4859 H   0  0  0  0  0  0  0  0  0  0  0  0
    4.1585   71.0677   69.7863 H   0  0  0  0  0  0  0  0  0  0  0  0
    5.0091   69.4855   69.7863 H   0  0  0  0  0  0  0  0  0  0  0  0
    7.5459   70.5034   69.4813 H   0  0  0  0  0  0  0  0  0  0  0  0
    7.4576   69.6030   67.9295 H   0  0  0  0  0  0  0  0  0  0  0  0
    7.8476   71.3564   67.9295 H   0  0  0  0  0  0  0  0  0  0  0  0
    2.0681   69.6842   68.5856 H   0  0  0  0  0  0  0  0  0  0  0  0
    1.9271   67.9317   64.1419 H   0  0  0  0  0  0  0  0  0  0  0  0
    3.3697   68.2435   63.0569 H   0  0  0  0  0  0  0  0  0  0  0  0
    2.0997   65.8005   65.5835 H   0  0  0  0  0  0  0  0  0  0  0  0
    3.8693   63.8409   65.5881 H   0  0  0  0  0  0  0  0  0  0  0  0
    2.5987   63.4567   64.4441 H   0  0  0  0  0  0  0  0  0  0  0  0
    5.3990   64.1502   63.8597 H   0  0  0  0  0  0  0  0  0  0  0  0
    4.1795   63.7752   62.6613 H   0  0  0  0  0  0  0  0  0  0  0  0
    4.8068   66.3439   62.5285 H   0  0  0  0  0  0  0  0  0  0  0  0
  2  1  1  0
  3  2  2  0
  4  3  1  0
  5  4  2  0
  6  5  1  0
  7  6  2  0
  7  2  1  0
  8  6  1  0
  9  4  1  0
 10  9  1  0
 11  9  1  0
 12  9  1  0
 13  5  1  0
 14  7  1  0
 15 14  1  0
 16 15  2  0
 17 16  1  0
 18 17  1  0
 19 18  1  0
 19 15  1  0
  1 20  1  0
  1 21  1  0
  1 22  1  0
  3 23  1  0
  8 24  1  0
  8 25  1  0
  8 26  1  0
 10 27  1  0
 10 28  1  0
 10 29  1  0
 11 30  1  0
 11 31  1  0
 11 32  1  0
 12 33  1  0
 12 34  1  0
 12 35  1  0
 13 36  1  0
 14 37  1  0
 14 38  1  0
 16 39  1  0
 17 40  1  0
 17 41  1  0
 18 42  1  0
 18 43  1  0
 19 44  1  0
M  CHG  1  16   1
M  END
>  <score>  (2) 
-8.693

$$$$
=
     RDKit          3D

 44 45  0  0  0  0  0  0  0  0999 V2000
    4.1020   69.7690   67.5220 C   0  0  0  0  0  0  0  0  0  0  0  0
    3.3420   69.3270   66.2960 C   0  0  0  0  0  0  0  0  0  0  0  0
    4.0690   69.1220   65.1080 C   0  0  0  0  0  0  0  0  0  0  0  0
    3.4680   68.6980   63.9110 C   0  0  0  0  0  0  0  0  0  0  0  0
    2.0810   68.4670   63.9620 C   0  0  0  0  0  0  0  0  0  0  0  0
    1.3050   68.6830   65.1210 C   0  0  0  0  0  0  0  0  0  0  0  0
    1.9490   69.0960   66.3120 C   0  0  0  0  0  0  0  0  0  0  0  0
   -0.1880   68.4490   65.0820 C   0  0  0  0  0  0  0  0  0  0  0  0
    4.3030   68.4850   62.6250 C   0  0  0  0  0  0  0  0  0  0  0  0
    5.6330   69.2650   62.7100 C   0  0  0  0  0  0  0  0  0  0  0  0
    4.5880   66.9810   62.4090 C   0  0  0  0  0  0  0  0  0  0  0  0
    3.5950   68.9760   61.3340 C   0  0  0  0  0  0  0  0  0  0  0  0
    1.4480   68.0300   62.8300 O   0  0  0  0  0  0  0  0  0  0  0  0
    1.1470   69.3810   67.5710 C   0  0  0  0  0  0  0  0  0  0  0  0
    0.8820   68.1840   68.4070 C   0  0  0  0  0  0  0  0  0  0  0  0
   -0.1770   67.4180   68.2260 N   0  0  0  0  0  4  0  0  0  0  0  0
   -0.1720   66.3130   69.1980 C   0  0  0  0  0  0  0  0  0  0  0  0
    1.1110   66.5630   70.0100 C   0  0  0  0  0  0  0  0  0  0  0  0
    1.6610   67.7750   69.3910 N   0  0  0  0  0  0  0  0  0  0  0  0
    3.5582   69.4527   68.4243 H   0  0  0  0  0  0  0  0  0  0  0  0
    5.1025   69.3119   67.5178 H   0  0  0  0  0  0  0  0  0  0  0  0
    4.1994   70.8647   67.5178 H   0  0  0  0  0  0  0  0  0  0  0  0
    5.1542   69.3015   65.1174 H   0  0  0  0  0  0  0  0  0  0  0  0
   -0.5766   68.3881   66.1093 H   0  0  0  0  0  0  0  0  0  0  0  0
   -0.6760   69.2816   64.5542 H   0  0  0  0  0  0  0  0  0  0  0  0
   -0.3978   67.5070   64.5542 H   0  0  0  0  0  0  0  0  0  0  0  0
    5.8996   69.4213   63.7657 H   0  0  0  0  0  0  0  0  0  0  0  0
    6.4278   68.6899   62.2124 H   0  0  0  0  0  0  0  0  0  0  0  0
    5.5191   70.2394   62.2124 H   0  0  0  0  0  0  0  0  0  0  0  0
    4.6826   66.4819   63.3847 H   0  0  0  0  0  0  0  0  0  0  0  0
    3.7597   66.5282   61.8443 H   0  0  0  0  0  0  0  0  0  0  0  0
    5.5245   66.8627   61.8443 H   0  0  0  0  0  0  0  0  0  0  0  0
    2.7189   69.5836   61.6047 H   0  0  0  0  0  0  0  0  0  0  0  0
    4.2940   69.5842   60.7412 H   0  0  0  0  0  0  0  0  0  0  0  0
    3.2703   68.1082   60.7412 H   0  0  0  0  0  0  0  0  0  0  0  0
    0.4726   67.8608   62.8423 H   0  0  0  0  0  0  0  0  0  0  0  0
    1.7049   70.1092   68.1780 H   0  0  0  0  0  0  0  0  0  0  0  0
    0.1681   69.7608   67.2432 H   0  0  0  0  0  0  0  0  0  0  0  0
   -0.9010   67.5710   67.5095 H   0  0  0  0  0  0  0  0  0  0  0  0
   -1.0614   66.3523   69.8441 H   0  0  0  0  0  0  0  0  0  0  0  0
   -0.1948   65.3212   68.7229 H   0  0  0  0  0  0  0  0  0  0  0  0
    0.8804   66.7311   71.0723 H   0  0  0  0  0  0  0  0  0  0  0  0
    1.8081   65.7123   69.9929 H   0  0  0  0  0  0  0  0  0  0  0  0
    2.5320   68.2407   69.6833 H   0  0  0  0  0  0  0  0  0  0  0  0
  2  1  1  0
  3  2  2  0
  4  3  1  0
  5  4  2  0
  6  5  1  0
  7  6  2  0
  7  2  1  0
  8  6  1  0
  9  4  1  0
 10  9  1  0
 11  9  1  0
 12  9  1  0
 13  5  1  0
 14  7  1  0
 15 14  1  0
 16 15  2  0
 17 16  1  0
 18 17  1  0
 19 18  1  0
 19 15  1  0
  1 20  1  0
  1 21  1  0
  1 22  1  0
  3 23  1  0
  8 24  1  0
  8 25  1  0
  8 26  1  0
 10 27  1  0
 10 28  1  0
 10 29  1  0
 11 30  1  0
 11 31  1  0
 11 32  1  0
 12 33  1  0
 12 34  1  0
 12 35  1  0
 13 36  1  0
 14 37  1  0
 14 38  1  0
 16 39  1  0
 17 40  1  0
 17 41  1  0
 18 42  1  0
 18 43  1  0
 19 44  1  0
M  CHG  1  16   1
M  END
>  <score>  (3) 
-8.535

$$$$
=
     RDKit          3D

 44 45  0  0  0  0  0  0  0  0999 V2000
    4.6660   68.1240   64.0400 C   0  0  0  0  0  0  0  0  0  0  0  0
    4.1330   68.6680   65.3430 C   0  0  0  0  0  0  0  0  0  0  0  0
    5.0050   69.4280   66.1460 C   0  0  0  0  0  0  0  0  0  0  0  0
    4.6130   69.9940   67.3700 C   0  0  0  0  0  0  0  0  0  0  0  0
    3.2780   69.7760   67.7550 C   0  0  0  0  0  0  0  0  0  0  0  0
    2.3740   69.0000   66.9980 C   0  0  0  0  0  0  0  0  0  0  0  0
    2.8020   68.4580   65.7620 C   0  0  0  0  0  0  0  0  0  0  0  0
    0.9660   68.7800   67.5010 C   0  0  0  0  0  0  0  0  0  0  0  0
    5.6030   70.8230   68.2250 C   0  0  0  0  0  0  0  0  0  0  0  0
    5.3610   70.5680   69.7290 C   0  0  0  0  0  0  0  0  0  0  0  0
    7.0610   70.4680   67.8580 C   0  0  0  0  0  0  0  0  0  0  0  0
    5.4700   72.3560   68.0200 C   0  0  0  0  0  0  0  0  0  0  0  0
    2.8350   70.3240   68.9280 O   0  0  0  0  0  0  0  0  0  0  0  0
    1.8750   67.5820   64.9350 C   0  0  0  0  0  0  0  0  0  0  0  0
    1.1250   68.3130   63.8830 C   0  0  0  0  0  0  0  0  0  0  0  0
   -0.1370   68.6700   64.0370 N   0  0  0  0  0  4  0  0  0  0  0  0
   -0.6100   69.3760   62.8350 C   0  0  0  0  0  0  0  0  0  0  0  0
    0.6240   69.3760   61.9160 C   0  0  0  0  0  0  0  0  0  0  0  0
    1.6310   68.6710   62.7190 N   0  0  0  0  0  0  0  0  0  0  0  0
    5.4221   67.3523   64.2468 H   0  0  0  0  0  0  0  0  0  0  0  0
    3.8406   67.6830   63.4618 H   0  0  0  0  0  0  0  0  0  0  0  0
    5.1237   68.9402   63.4618 H   0  0  0  0  0  0  0  0  0  0  0  0
    6.0372   69.5851   65.7998 H   0  0  0  0  0  0  0  0  0  0  0  0
    0.9654   68.7799   68.6010 H   0  0  0  0  0  0  0  0  0  0  0  0
    0.3152   69.5874   67.1341 H   0  0  0  0  0  0  0  0  0  0  0  0
    0.5925   67.8126   67.1341 H   0  0  0  0  0  0  0  0  0  0  0  0
    5.9987   71.2400   70.3221 H   0  0  0  0  0  0  0  0  0  0  0  0
    4.3045   70.7595   69.9680 H   0  0  0  0  0  0  0  0  0  0  0  0
    5.6074   69.5229   69.9680 H   0  0  0  0  0  0  0  0  0  0  0  0
    7.6464   70.3255   68.7783 H   0  0  0  0  0  0  0  0  0  0  0  0
    7.0749   69.5402   67.2672 H   0  0  0  0  0  0  0  0  0  0  0  0
    7.4998   71.2855   67.2672 H   0  0  0  0  0  0  0  0  0  0  0  0
    5.4267   72.8545   68.9996 H   0  0  0  0  0  0  0  0  0  0  0  0
    6.3393   72.7275   67.4576 H   0  0  0  0  0  0  0  0  0  0  0  0
    4.5497   72.5722   67.4576 H   0  0  0  0  0  0  0  0  0  0  0  0
    1.8989   70.1829   69.2178 H   0  0  0  0  0  0  0  0  0  0  0  0
    2.4798   66.8023   64.4488 H   0  0  0  0  0  0  0  0  0  0  0  0
    1.1268   67.1705   65.6285 H   0  0  0  0  0  0  0  0  0  0  0  0
   -0.7064   68.4822   64.8745 H   0  0  0  0  0  0  0  0  0  0  0  0
   -1.4493   68.8399   62.3678 H   0  0  0  0  0  0  0  0  0  0  0  0
   -0.9868   70.3869   63.0498 H   0  0  0  0  0  0  0  0  0  0  0  0
    0.4190   68.8391   60.9781 H   0  0  0  0  0  0  0  0  0  0  0  0
    0.9394   70.3851   61.6122 H   0  0  0  0  0  0  0  0  0  0  0  0
    2.5971   68.4825   62.4157 H   0  0  0  0  0  0  0  0  0  0  0  0
  2  1  1  0
  3  2  2  0
  4  3  1  0
  5  4  2  0
  6  5  1  0
  7  6  2  0
  7  2  1  0
  8  6  1  0
  9  4  1  0
 10  9  1  0
 11  9  1  0
 12  9  1  0
 13  5  1  0
 14  7  1  0
 15 14  1  0
 16 15  2  0
 17 16  1  0
 18 17  1  0
 19 18  1  0
 19 15  1  0
  1 20  1  0
  1 21  1  0
  1 22  1  0
  3 23  1  0
  8 24  1  0
  8 25  1  0
  8 26  1  0
 10 27  1  0
 10 28  1  0
 10 29  1  0
 11 30  1  0
 11 31  1  0
 11 32  1  0
 12 33  1  0
 12 34  1  0
 12 35  1  0
 13 36  1  0
 14 37  1  0
 14 38  1  0
 16 39  1  0
 17 40  1  0
 17 41  1  0
 18 42  1  0
 18 43  1  0
 19 44  1  0
M  CHG  1  16   1
M  END
>  <score>  (4) 
-8.324

$$$$
=
     RDKit          3D

 44 45  0  0  0  0  0  0  0  0999 V2000
    0.3900   60.9310   73.5420 C   0  0  0  0  0  0  0  0  0  0  0  0
    1.4650   60.7030   72.5080 C   0  0  0  0  0  0  0  0  0  0  0  0
    1.9540   61.8220   71.8070 C   0  0  0  0  0  0  0  0  0  0  0  0
    2.9630   61.7290   70.8340 C   0  0  0  0  0  0  0  0  0  0  0  0
    3.4830   60.4430   70.6020 C   0  0  0  0  0  0  0  0  0  0  0  0
    3.0090   59.2880   71.2600 C   0  0  0  0  0  0  0  0  0  0  0  0
    2.0010   59.4240   72.2450 C   0  0  0  0  0  0  0  0  0  0  0  0
    3.5950   57.9360   70.9240 C   0  0  0  0  0  0  0  0  0  0  0  0
    3.4720   62.9840   70.0840 C   0  0  0  0  0  0  0  0  0  0  0  0
    2.5190   64.1770   70.3180 C   0  0  0  0  0  0  0  0  0  0  0  0
    4.8990   63.3500   70.5520 C   0  0  0  0  0  0  0  0  0  0  0  0
    3.5610   62.7970   68.5460 C   0  0  0  0  0  0  0  0  0  0  0  0
    4.4850   60.2980   69.6800 O   0  0  0  0  0  0  0  0  0  0  0  0
    1.4320   58.2030   72.9480 C   0  0  0  0  0  0  0  0  0  0  0  0
    2.2170   57.7580   74.1270 C   0  0  0  0  0  0  0  0  0  0  0  0
    2.2210   56.5040   74.5370 N   0  0  0  0  0  4  0  0  0  0  0  0
    3.0850   56.3650   75.7210 C   0  0  0  0  0  0  0  0  0  0  0  0
    3.6080   57.7940   75.9470 C   0  0  0  0  0  0  0  0  0  0  0  0
    2.9710   58.5520   74.8620 N   0  0  0  0  0  0  0  0  0  0  0  0
    0.8240   60.8390   74.5486 H   0  0  0  0  0  0  0  0  0  0  0  0
   -0.0325   61.9387   73.4156 H   0  0  0  0  0  0  0  0  0  0  0  0
   -0.4052   60.1815   73.4156 H   0  0  0  0  0  0  0  0  0  0  0  0
    1.5278   62.8111   72.0308 H   0  0  0  0  0  0  0  0  0  0  0  0
    3.8289   57.3965   71.8536 H   0  0  0  0  0  0  0  0  0  0  0  0
    2.8673   57.3566   70.3369 H   0  0  0  0  0  0  0  0  0  0  0  0
    4.5154   58.0709   70.3369 H   0  0  0  0  0  0  0  0  0  0  0  0
    2.3908   64.3374   71.3987 H   0  0  0  0  0  0  0  0  0  0  0  0
    2.9455   65.0821   69.8610 H   0  0  0  0  0  0  0  0  0  0  0  0
    1.5420   63.9610   69.8610 H   0  0  0  0  0  0  0  0  0  0  0  0
    4.9333   63.3588   71.6514 H   0  0  0  0  0  0  0  0  0  0  0  0
    5.6127   62.6058   70.1688 H   0  0  0  0  0  0  0  0  0  0  0  0
    5.1664   64.3458   70.1688 H   0  0  0  0  0  0  0  0  0  0  0  0
    4.0237   61.8248   68.3210 H   0  0  0  0  0  0  0  0  0  0  0  0
    2.5502   62.8309   68.1134 H   0  0  0  0  0  0  0  0  0  0  0  0
    4.1722   63.6028   68.1134 H   0  0  0  0  0  0  0  0  0  0  0  0
    4.8664   59.4023   69.5002 H   0  0  0  0  0  0  0  0  0  0  0  0
    0.4120   58.4421   73.2831 H   0  0  0  0  0  0  0  0  0  0  0  0
    1.4596   57.3783   72.2206 H   0  0  0  0  0  0  0  0  0  0  0  0
    1.6971   55.7357   74.0942 H   0  0  0  0  0  0  0  0  0  0  0  0
    2.5091   56.0141   76.5900 H   0  0  0  0  0  0  0  0  0  0  0  0
    3.8904   55.6287   75.5822 H   0  0  0  0  0  0  0  0  0  0  0  0
    3.3001   58.1771   76.9311 H   0  0  0  0  0  0  0  0  0  0  0  0
    4.7059   57.8613   75.9375 H   0  0  0  0  0  0  0  0  0  0  0  0
    3.0956   59.5612   74.6983 H   0  0  0  0  0  0  0  0  0  0  0  0
  2  1  1  0
  3  2  2  0
  4  3  1  0
  5  4  2  0
  6  5  1  0
  7  6  2  0
  7  2  1  0
  8  6  1  0
  9  4  1  0
 10  9  1  0
 11  9  1  0
 12  9  1  0
 13  5  1  0
 14  7  1  0
 15 14  1  0
 16 15  2  0
 17 16  1  0
 18 17  1  0
 19 18  1  0
 19 15  1  0
  1 20  1  0
  1 21  1  0
  1 22  1  0
  3 23  1  0
  8 24  1  0
  8 25  1  0
  8 26  1  0
 10 27  1  0
 10 28  1  0
 10 29  1  0
 11 30  1  0
 11 31  1  0
 11 32  1  0
 12 33  1  0
 12 34  1  0
 12 35  1  0
 13 36  1  0
 14 37  1  0
 14 38  1  0
 16 39  1  0
 17 40  1  0
 17 41  1  0
 18 42  1  0
 18 43  1  0
 19 44  1  0
M  CHG  1  16   1
M  END
>  <score>  (5) 
-7.744

$$$$
=
     RDKit          3D

 44 45  0  0  0  0  0  0  0  0999 V2000
    0.2850   69.6850   61.8880 C   0  0  0  0  0  0  0  0  0  0  0  0
    0.4880   68.9120   63.1680 C   0  0  0  0  0  0  0  0  0  0  0  0
   -0.4630   69.0750   64.1940 C   0  0  0  0  0  0  0  0  0  0  0  0
   -0.3810   68.3950   65.4210 C   0  0  0  0  0  0  0  0  0  0  0  0
    0.7060   67.5160   65.5710 C   0  0  0  0  0  0  0  0  0  0  0  0
    1.6980   67.3380   64.5830 C   0  0  0  0  0  0  0  0  0  0  0  0
    1.5730   68.0290   63.3530 C   0  0  0  0  0  0  0  0  0  0  0  0
    2.8570   66.4030   64.8380 C   0  0  0  0  0  0  0  0  0  0  0  0
   -1.4460   68.6020   66.5250 C   0  0  0  0  0  0  0  0  0  0  0  0
   -0.9670   69.6590   67.5460 C   0  0  0  0  0  0  0  0  0  0  0  0
   -2.7900   69.0430   65.9030 C   0  0  0  0  0  0  0  0  0  0  0  0
   -1.7520   67.3200   67.3440 C   0  0  0  0  0  0  0  0  0  0  0  0
    0.8220   66.8100   66.7380 O   0  0  0  0  0  0  0  0  0  0  0  0
    2.6400   67.9000   62.2780 C   0  0  0  0  0  0  0  0  0  0  0  0
    3.9770   68.4000   62.6850 C   0  0  0  0  0  0  0  0  0  0  0  0
    5.0920   67.9550   62.1350 N   0  0  0  0  0  4  0  0  0  0  0  0
    6.2540   68.6300   62.7380 C   0  0  0  0  0  0  0  0  0  0  0  0
    5.6170   69.5780   63.7680 C   0  0  0  0  0  0  0  0  0  0  0  0
    4.1810   69.3150   63.6130 N   0  0  0  0  0  0  0  0  0  0  0  0
    0.0122   70.7237   62.1263 H   0  0  0  0  0  0  0  0  0  0  0  0
    1.2161   69.6755   61.3023 H   0  0  0  0  0  0  0  0  0  0  0  0
   -0.5213   69.2193   61.3023 H   0  0  0  0  0  0  0  0  0  0  0  0
   -1.3049   69.7632   64.0279 H   0  0  0  0  0  0  0  0  0  0  0  0
    3.0020   66.2860   65.9221 H   0  0  0  0  0  0  0  0  0  0  0  0
    2.6425   65.4221   64.3888 H   0  0  0  0  0  0  0  0  0  0  0  0
    3.7703   66.8202   64.3888 H   0  0  0  0  0  0  0  0  0  0  0  0
   -1.1361   69.2858   68.5668 H   0  0  0  0  0  0  0  0  0  0  0  0
    0.1061   69.8510   67.3989 H   0  0  0  0  0  0  0  0  0  0  0  0
   -1.5301   70.5924   67.3989 H   0  0  0  0  0  0  0  0  0  0  0  0
   -3.5056   69.2778   66.7048 H   0  0  0  0  0  0  0  0  0  0  0  0
   -2.6306   69.9359   65.2807 H   0  0  0  0  0  0  0  0  0  0  0  0
   -3.1906   68.2292   65.2807 H   0  0  0  0  0  0  0  0  0  0  0  0
   -1.6972   67.5495   68.4184 H   0  0  0  0  0  0  0  0  0  0  0  0
   -2.7615   66.9594   67.0971 H   0  0  0  0  0  0  0  0  0  0  0  0
   -1.0142   66.5423   67.0971 H   0  0  0  0  0  0  0  0  0  0  0  0
    1.5794   66.1853   66.8654 H   0  0  0  0  0  0  0  0  0  0  0  0
    2.7354   66.8368   62.0124 H   0  0  0  0  0  0  0  0  0  0  0  0
    2.3135   68.5228   61.4321 H   0  0  0  0  0  0  0  0  0  0  0  0
    5.1418   67.2414   61.3939 H   0  0  0  0  0  0  0  0  0  0  0  0
    6.9200   67.9050   63.2287 H   0  0  0  0  0  0  0  0  0  0  0  0
    6.8788   69.1537   61.9995 H   0  0  0  0  0  0  0  0  0  0  0  0
    5.9551   69.3396   64.7872 H   0  0  0  0  0  0  0  0  0  0  0  0
    5.8845   70.6333   63.6103 H   0  0  0  0  0  0  0  0  0  0  0  0
    3.4372   69.7797   64.1531 H   0  0  0  0  0  0  0  0  0  0  0  0
  2  1  1  0
  3  2  2  0
  4  3  1  0
  5  4  2  0
  6  5  1  0
  7  6  2  0
  7  2  1  0
  8  6  1  0
  9  4  1  0
 10  9  1  0
 11  9  1  0
 12  9  1  0
 13  5  1  0
 14  7  1  0
 15 14  1  0
 16 15  2  0
 17 16  1  0
 18 17  1  0
 19 18  1  0
 19 15  1  0
  1 20  1  0
  1 21  1  0
  1 22  1  0
  3 23  1  0
  8 24  1  0
  8 25  1  0
  8 26  1  0
 10 27  1  0
 10 28  1  0
 10 29  1  0
 11 30  1  0
 11 31  1  0
 11 32  1  0
 12 33  1  0
 12 34  1  0
 12 35  1  0
 13 36  1  0
 14 37  1  0
 14 38  1  0
 16 39  1  0
 17 40  1  0
 17 41  1  0
 18 42  1  0
 18 43  1  0
 19 44  1  0
M  CHG  1  16   1
M  END
>  <score>  (6) 
-6.946

$$$$
=
     RDKit          3D

 44 45  0  0  0  0  0  0  0  0999 V2000
    0.7870   59.3880   73.1600 C   0  0  0  0  0  0  0  0  0  0  0  0
    1.2150   60.6810   72.5100 C   0  0  0  0  0  0  0  0  0  0  0  0
    2.4580   60.7060   71.8480 C   0  0  0  0  0  0  0  0  0  0  0  0
    2.9500   61.8500   71.1980 C   0  0  0  0  0  0  0  0  0  0  0  0
    2.1190   62.9850   71.2260 C   0  0  0  0  0  0  0  0  0  0  0  0
    0.8780   63.0170   71.8970 C   0  0  0  0  0  0  0  0  0  0  0  0
    0.4090   61.8400   72.5290 C   0  0  0  0  0  0  0  0  0  0  0  0
    0.0630   64.2890   71.9140 C   0  0  0  0  0  0  0  0  0  0  0  0
    4.3220   61.8380   70.4820 C   0  0  0  0  0  0  0  0  0  0  0  0
    4.1600   61.3890   69.0130 C   0  0  0  0  0  0  0  0  0  0  0  0
    4.9720   63.2390   70.5350 C   0  0  0  0  0  0  0  0  0  0  0  0
    5.3490   60.8650   71.1200 C   0  0  0  0  0  0  0  0  0  0  0  0
    2.5390   64.1210   70.5880 O   0  0  0  0  0  0  0  0  0  0  0  0
   -0.9010   61.8410   73.2990 C   0  0  0  0  0  0  0  0  0  0  0  0
   -0.7910   62.3630   74.6850 C   0  0  0  0  0  0  0  0  0  0  0  0
    0.3470   62.3520   75.3530 N   0  0  0  0  0  4  0  0  0  0  0  0
    0.1490   62.9300   76.6930 C   0  0  0  0  0  0  0  0  0  0  0  0
   -1.3450   63.2960   76.7030 C   0  0  0  0  0  0  0  0  0  0  0  0
   -1.7950   62.8770   75.3700 N   0  0  0  0  0  0  0  0  0  0  0  0
    0.8234   59.4979   74.2539 H   0  0  0  0  0  0  0  0  0  0  0  0
   -0.2398   59.1441   72.8499 H   0  0  0  0  0  0  0  0  0  0  0  0
    1.4655   58.5796   72.8499 H   0  0  0  0  0  0  0  0  0  0  0  0
    3.0691   59.7914   71.8396 H   0  0  0  0  0  0  0  0  0  0  0  0
   -0.1285   64.5879   72.9552 H   0  0  0  0  0  0  0  0  0  0  0  0
    0.6183   65.0872   71.3996 H   0  0  0  0  0  0  0  0  0  0  0  0
   -0.8942   64.1181   71.3996 H   0  0  0  0  0  0  0  0  0  0  0  0
    3.7868   60.3546   68.9848 H   0  0  0  0  0  0  0  0  0  0  0  0
    3.4441   62.0511   68.5040 H   0  0  0  0  0  0  0  0  0  0  0  0
    5.1338   61.4415   68.5040 H   0  0  0  0  0  0  0  0  0  0  0  0
    5.1113   63.5391   71.5841 H   0  0  0  0  0  0  0  0  0  0  0  0
    5.9484   63.2096   70.0293 H   0  0  0  0  0  0  0  0  0  0  0  0
    4.3190   63.9655   70.0293 H   0  0  0  0  0  0  0  0  0  0  0  0
    5.2821   60.9283   72.2161 H   0  0  0  0  0  0  0  0  0  0  0  0
    5.1287   59.8365   70.7980 H   0  0  0  0  0  0  0  0  0  0  0  0
    6.3641   61.1405   70.7980 H   0  0  0  0  0  0  0  0  0  0  0  0
    1.9705   64.9315   70.5948 H   0  0  0  0  0  0  0  0  0  0  0  0
   -1.6227   62.4649   72.7515 H   0  0  0  0  0  0  0  0  0  0  0  0
   -1.2211   60.7918   73.3804 H   0  0  0  0  0  0  0  0  0  0  0  0
    1.2416   61.9923   74.9907 H   0  0  0  0  0  0  0  0  0  0  0  0
    0.3798   62.1943   77.4776 H   0  0  0  0  0  0  0  0  0  0  0  0
    0.8045   63.7907   76.8918 H   0  0  0  0  0  0  0  0  0  0  0  0
   -1.8812   62.7482   77.4919 H   0  0  0  0  0  0  0  0  0  0  0  0
   -1.5297   64.3607   76.9087 H   0  0  0  0  0  0  0  0  0  0  0  0
   -2.7587   62.9710   75.0188 H   0  0  0  0  0  0  0  0  0  0  0  0
  2  1  1  0
  3  2  2  0
  4  3  1  0
  5  4  2  0
  6  5  1  0
  7  6  2  0
  7  2  1  0
  8  6  1  0
  9  4  1  0
 10  9  1  0
 11  9  1  0
 12  9  1  0
 13  5  1  0
 14  7  1  0
 15 14  1  0
 16 15  2  0
 17 16  1  0
 18 17  1  0
 19 18  1  0
 19 15  1  0
  1 20  1  0
  1 21  1  0
  1 22  1  0
  3 23  1  0
  8 24  1  0
  8 25  1  0
  8 26  1  0
 10 27  1  0
 10 28  1  0
 10 29  1  0
 11 30  1  0
 11 31  1  0
 11 32  1  0
 12 33  1  0
 12 34  1  0
 12 35  1  0
 13 36  1  0
 14 37  1  0
 14 38  1  0
 16 39  1  0
 17 40  1  0
 17 41  1  0
 18 42  1  0
 18 43  1  0
 19 44  1  0
M  CHG  1  16   1
M  END
>  <score>  (7) 
-6.73

$$$$
=
     RDKit          3D

 44 45  0  0  0  0  0  0  0  0999 V2000
   -0.6960   61.8440   72.8500 C   0  0  0  0  0  0  0  0  0  0  0  0
    0.4420   60.8780   72.6320 C   0  0  0  0  0  0  0  0  0  0  0  0
    1.5400   61.3150   71.8650 C   0  0  0  0  0  0  0  0  0  0  0  0
    2.6600   60.5060   71.6100 C   0  0  0  0  0  0  0  0  0  0  0  0
    2.6390   59.2210   72.1810 C   0  0  0  0  0  0  0  0  0  0  0  0
    1.5520   58.7290   72.9350 C   0  0  0  0  0  0  0  0  0  0  0  0
    0.4470   59.5790   73.1830 C   0  0  0  0  0  0  0  0  0  0  0  0
    1.5910   57.3210   73.4820 C   0  0  0  0  0  0  0  0  0  0  0  0
    3.8460   61.0230   70.7610 C   0  0  0  0  0  0  0  0  0  0  0  0
    5.1720   60.8730   71.5390 C   0  0  0  0  0  0  0  0  0  0  0  0
    3.9310   60.2520   69.4250 C   0  0  0  0  0  0  0  0  0  0  0  0
    3.7350   62.5240   70.3830 C   0  0  0  0  0  0  0  0  0  0  0  0
    3.7150   58.3990   71.9840 O   0  0  0  0  0  0  0  0  0  0  0  0
   -0.7620   59.0760   73.9530 C   0  0  0  0  0  0  0  0  0  0  0  0
   -0.7810   59.4730   75.3840 C   0  0  0  0  0  0  0  0  0  0  0  0
   -1.8800   59.8880   75.9840 N   0  0  0  0  0  4  0  0  0  0  0  0
   -1.5930   60.2090   77.3930 C   0  0  0  0  0  0  0  0  0  0  0  0
   -0.0910   59.9030   77.5260 C   0  0  0  0  0  0  0  0  0  0  0  0
    0.2720   59.4500   76.1770 N   0  0  0  0  0  0  0  0  0  0  0  0
   -0.8583   61.9818   73.9292 H   0  0  0  0  0  0  0  0  0  0  0  0
   -0.4485   62.8120   72.3899 H   0  0  0  0  0  0  0  0  0  0  0  0
   -1.6110   61.4426   72.3899 H   0  0  0  0  0  0  0  0  0  0  0  0
    1.5195   62.3327   71.4481 H   0  0  0  0  0  0  0  0  0  0  0  0
    1.5901   57.3546   74.5815 H   0  0  0  0  0  0  0  0  0  0  0  0
    0.7079   56.7668   73.1314 H   0  0  0  0  0  0  0  0  0  0  0  0
    2.5035   56.8166   73.1314 H   0  0  0  0  0  0  0  0  0  0  0  0
    4.9677   60.8961   72.6196 H   0  0  0  0  0  0  0  0  0  0  0  0
    5.6453   59.9156   71.2757 H   0  0  0  0  0  0  0  0  0  0  0  0
    5.8472   61.7005   71.2757 H   0  0  0  0  0  0  0  0  0  0  0  0
    4.0495   59.1775   69.6286 H   0  0  0  0  0  0  0  0  0  0  0  0
    3.0093   60.4163   68.8475 H   0  0  0  0  0  0  0  0  0  0  0  0
    4.7948   60.6132   68.8475 H   0  0  0  0  0  0  0  0  0  0  0  0
    3.6901   63.1306   71.2995 H   0  0  0  0  0  0  0  0  0  0  0  0
    4.6138   62.8189   69.7908 H   0  0  0  0  0  0  0  0  0  0  0  0
    2.8224   62.6865   69.7908 H   0  0  0  0  0  0  0  0  0  0  0  0
    3.7221   57.4902   72.3765 H   0  0  0  0  0  0  0  0  0  0  0  0
   -1.6675   59.4749   73.4723 H   0  0  0  0  0  0  0  0  0  0  0  0
   -0.7162   57.9772   73.9305 H   0  0  0  0  0  0  0  0  0  0  0  0
   -2.8024   59.9748   75.5340 H   0  0  0  0  0  0  0  0  0  0  0  0
   -1.7999   61.2682   77.6060 H   0  0  0  0  0  0  0  0  0  0  0  0
   -2.2132   59.6382   78.0998 H   0  0  0  0  0  0  0  0  0  0  0  0
    0.4734   60.8047   77.8059 H   0  0  0  0  0  0  0  0  0  0  0  0
    0.1341   59.1629   78.3081 H   0  0  0  0  0  0  0  0  0  0  0  0
    1.2166   59.1557   75.8906 H   0  0  0  0  0  0  0  0  0  0  0  0
  2  1  1  0
  3  2  2  0
  4  3  1  0
  5  4  2  0
  6  5  1  0
  7  6  2  0
  7  2  1  0
  8  6  1  0
  9  4  1  0
 10  9  1  0
 11  9  1  0
 12  9  1  0
 13  5  1  0
 14  7  1  0
 15 14  1  0
 16 15  2  0
 17 16  1  0
 18 17  1  0
 19 18  1  0
 19 15  1  0
  1 20  1  0
  1 21  1  0
  1 22  1  0
  3 23  1  0
  8 24  1  0
  8 25  1  0
  8 26  1  0
 10 27  1  0
 10 28  1  0
 10 29  1  0
 11 30  1  0
 11 31  1  0
 11 32  1  0
 12 33  1  0
 12 34  1  0
 12 35  1  0
 13 36  1  0
 14 37  1  0
 14 38  1  0
 16 39  1  0
 17 40  1  0
 17 41  1  0
 18 42  1  0
 18 43  1  0
 19 44  1  0
M  CHG  1  16   1
M  END
>  <score>  (8) 
-6.676

$$$$
=
     RDKit          3D

 44 45  0  0  0  0  0  0  0  0999 V2000
    4.0900   59.4240   73.9850 C   0  0  0  0  0  0  0  0  0  0  0  0
    3.0920   60.2850   73.2510 C   0  0  0  0  0  0  0  0  0  0  0  0
    3.5750   61.1410   72.2430 C   0  0  0  0  0  0  0  0  0  0  0  0
    2.7360   61.9760   71.4870 C   0  0  0  0  0  0  0  0  0  0  0  0
    1.3620   61.9020   71.7800 C   0  0  0  0  0  0  0  0  0  0  0  0
    0.8320   61.0800   72.7970 C   0  0  0  0  0  0  0  0  0  0  0  0
    1.7080   60.2420   73.5280 C   0  0  0  0  0  0  0  0  0  0  0  0
   -0.6530   61.0890   73.0760 C   0  0  0  0  0  0  0  0  0  0  0  0
    3.3060   62.9040   70.3870 C   0  0  0  0  0  0  0  0  0  0  0  0
    4.8190   63.1310   70.6040 C   0  0  0  0  0  0  0  0  0  0  0  0
    3.0610   62.2960   68.9880 C   0  0  0  0  0  0  0  0  0  0  0  0
    2.6570   64.3130   70.3620 C   0  0  0  0  0  0  0  0  0  0  0  0
    0.4960   62.6780   71.0580 O   0  0  0  0  0  0  0  0  0  0  0  0
    1.1870   59.3720   74.6610 C   0  0  0  0  0  0  0  0  0  0  0  0
    0.8500   57.9840   74.2560 C   0  0  0  0  0  0  0  0  0  0  0  0
    1.7290   57.0010   74.3140 N   0  0  0  0  0  4  0  0  0  0  0  0
    1.1110   55.7470   73.8520 C   0  0  0  0  0  0  0  0  0  0  0  0
   -0.3270   56.1690   73.5010 C   0  0  0  0  0  0  0  0  0  0  0  0
   -0.3320   57.6040   73.8110 N   0  0  0  0  0  0  0  0  0  0  0  0
    3.9505   59.5443   75.0695 H   0  0  0  0  0  0  0  0  0  0  0  0
    3.9369   58.3699   73.7104 H   0  0  0  0  0  0  0  0  0  0  0  0
    5.1103   59.7300   73.7104 H   0  0  0  0  0  0  0  0  0  0  0  0
    4.6558   61.1565   72.0388 H   0  0  0  0  0  0  0  0  0  0  0  0
   -0.8219   61.0900   74.1630 H   0  0  0  0  0  0  0  0  0  0  0  0
   -1.1037   61.9899   72.6341 H   0  0  0  0  0  0  0  0  0  0  0  0
   -1.1145   60.1936   72.6341 H   0  0  0  0  0  0  0  0  0  0  0  0
    5.0340   63.1633   71.6823 H   0  0  0  0  0  0  0  0  0  0  0  0
    5.3833   62.3075   70.1421 H   0  0  0  0  0  0  0  0  0  0  0  0
    5.1168   64.0839   70.1421 H   0  0  0  0  0  0  0  0  0  0  0  0
    2.6519   61.2807   69.0960 H   0  0  0  0  0  0  0  0  0  0  0  0
    2.3453   62.9229   68.4360 H   0  0  0  0  0  0  0  0  0  0  0  0
    4.0114   62.2515   68.4360 H   0  0  0  0  0  0  0  0  0  0  0  0
    2.4966   64.6612   71.3930 H   0  0  0  0  0  0  0  0  0  0  0  0
    3.3229   65.0142   69.8376 H   0  0  0  0  0  0  0  0  0  0  0  0
    1.6913   64.2627   69.8376 H   0  0  0  0  0  0  0  0  0  0  0  0
   -0.4752   62.6426   71.2465 H   0  0  0  0  0  0  0  0  0  0  0  0
    1.9589   59.3255   75.4433 H   0  0  0  0  0  0  0  0  0  0  0  0
    0.2528   59.8350   75.0116 H   0  0  0  0  0  0  0  0  0  0  0  0
    2.7030   57.0970   74.6349 H   0  0  0  0  0  0  0  0  0  0  0  0
    1.6330   55.3530   72.9675 H   0  0  0  0  0  0  0  0  0  0  0  0
    1.1528   54.9444   74.6030 H   0  0  0  0  0  0  0  0  0  0  0  0
   -0.5425   55.9932   72.4367 H   0  0  0  0  0  0  0  0  0  0  0  0
   -1.0927   55.6028   74.0515 H   0  0  0  0  0  0  0  0  0  0  0  0
   -1.1445   58.2266   73.6970 H   0  0  0  0  0  0  0  0  0  0  0  0
  2  1  1  0
  3  2  2  0
  4  3  1  0
  5  4  2  0
  6  5  1  0
  7  6  2  0
  7  2  1  0
  8  6  1  0
  9  4  1  0
 10  9  1  0
 11  9  1  0
 12  9  1  0
 13  5  1  0
 14  7  1  0
 15 14  1  0
 16 15  2  0
 17 16  1  0
 18 17  1  0
 19 18  1  0
 19 15  1  0
  1 20  1  0
  1 21  1  0
  1 22  1  0
  3 23  1  0
  8 24  1  0
  8 25  1  0
  8 26  1  0
 10 27  1  0
 10 28  1  0
 10 29  1  0
 11 30  1  0
 11 31  1  0
 11 32  1  0
 12 33  1  0
 12 34  1  0
 12 35  1  0
 13 36  1  0
 14 37  1  0
 14 38  1  0
 16 39  1  0
 17 40  1  0
 17 41  1  0
 18 42  1  0
 18 43  1  0
 19 44  1  0
M  CHG  1  16   1
M  END
>  <score>  (9) 
-6.629

$$$$
