=
     RDKit          3D

 62 64  0  0  0  0  0  0  0  0999 V2000
   -0.3410   67.6190   68.5780 N   0  0  0  0  0  4  0  0  0  0  0  0
   -0.8680   67.3410   67.1600 C   0  0  1  0  0  0  0  0  0  0  0  0
   -2.3810   67.2520   67.2910 C   0  0  0  0  0  0  0  0  0  0  0  0
   -0.3650   68.4880   66.2550 C   0  0  0  0  0  0  0  0  0  0  0  0
   -0.8570   69.6090   66.4710 O   0  0  0  0  0  0  0  0  0  0  0  0
    0.6290   68.2710   65.3190 N   0  0  0  0  0  0  0  0  0  0  0  0
    1.2410   66.9650   65.0900 C   0  0  0  0  0  0  0  0  0  0  0  0
    2.4990   67.0310   64.2660 C   0  0  0  0  0  0  0  0  0  0  0  0
    3.4050   65.9580   64.2940 C   0  0  0  0  0  0  0  0  0  0  0  0
    4.5520   65.9770   63.5000 C   0  0  0  0  0  0  0  0  0  0  0  0
    4.7990   67.0600   62.6620 C   0  0  0  0  0  0  0  0  0  0  0  0
    3.9000   68.1240   62.6160 C   0  0  0  0  0  0  0  0  0  0  0  0
    2.7420   68.1140   63.4070 C   0  0  0  0  0  0  0  0  0  0  0  0
    1.8050   69.3000   63.3650 C   0  0  0  0  0  0  0  0  0  0  0  0
    0.4670   69.0810   64.0760 C   0  0  1  0  0  0  0  0  0  0  0  0
   -0.6880   68.5360   63.1590 C   0  0  0  0  0  0  0  0  0  0  0  0
   -0.2780   67.9610   62.0990 O   0  0  0  0  0  0  0  0  0  0  0  0
   -1.8640   68.7050   63.5730 O   0  0  0  0  0  1  0  0  0  0  0  0
    1.0760   67.1260   68.8360 C   0  0  2  0  0  0  0  0  0  0  0  0
    1.0630   66.0330   69.9100 C   0  0  0  0  0  0  0  0  0  0  0  0
    0.3620   66.1050   70.9140 O   0  0  0  0  0  0  0  0  0  0  0  0
    1.8980   65.0140   69.5870 O   0  0  0  0  0  0  0  0  0  0  0  0
    3.6420   63.4970   70.3070 C   0  0  0  0  0  0  0  0  0  0  0  0
    2.3430   64.1880   70.6760 C   0  0  0  0  0  0  0  0  0  0  0  0
    1.9320   68.3040   69.3100 C   0  0  0  0  0  0  0  0  0  0  0  0
    1.9410   69.4740   68.3220 C   0  0  0  0  0  0  0  0  0  0  0  0
    3.3490   69.8070   67.8990 C   0  0  0  0  0  0  0  0  0  0  0  0
    3.8170   69.4350   66.6310 C   0  0  0  0  0  0  0  0  0  0  0  0
    5.1280   69.7220   66.2500 C   0  0  0  0  0  0  0  0  0  0  0  0
    5.9830   70.3790   67.1310 C   0  0  0  0  0  0  0  0  0  0  0  0
    5.5280   70.7530   68.3930 C   0  0  0  0  0  0  0  0  0  0  0  0
    4.2180   70.4680   68.7780 C   0  0  0  0  0  0  0  0  0  0  0  0
   -0.3603   68.6369   68.7340 H   0  0  0  0  0  0  0  0  0  0  0  0
   -0.9527   67.0994   69.2236 H   0  0  0  0  0  0  0  0  0  0  0  0
   -0.5146   66.4050   66.7028 H   0  0  0  0  0  0  0  0  0  0  0  0
   -2.6565   67.2358   68.3558 H   0  0  0  0  0  0  0  0  0  0  0  0
   -2.8430   68.1245   66.8060 H   0  0  0  0  0  0  0  0  0  0  0  0
   -2.7375   66.3313   66.8060 H   0  0  0  0  0  0  0  0  0  0  0  0
    1.4858   66.5188   66.0652 H   0  0  0  0  0  0  0  0  0  0  0  0
    0.5150   66.3602   64.5268 H   0  0  0  0  0  0  0  0  0  0  0  0
    3.2085   65.0953   64.9476 H   0  0  0  0  0  0  0  0  0  0  0  0
    5.2606   65.1364   63.5364 H   0  0  0  0  0  0  0  0  0  0  0  0
    5.7034   67.0764   62.0361 H   0  0  0  0  0  0  0  0  0  0  0  0
    4.1005   68.9790   61.9536 H   0  0  0  0  0  0  0  0  0  0  0  0
    2.3104   70.1535   63.8404 H   0  0  0  0  0  0  0  0  0  0  0  0
    1.5696   69.4738   62.3046 H   0  0  0  0  0  0  0  0  0  0  0  0
    0.1325   70.0880   64.3658 H   0  0  0  0  0  0  0  0  0  0  0  0
    1.4952   66.7073   67.9092 H   0  0  0  0  0  0  0  0  0  0  0  0
    4.1787   63.2115   71.2237 H   0  0  0  0  0  0  0  0  0  0  0  0
    3.4228   62.5963   69.7148 H   0  0  0  0  0  0  0  0  0  0  0  0
    4.2664   64.1821   69.7148 H   0  0  0  0  0  0  0  0  0  0  0  0
    1.5766   63.4298   70.8947 H   0  0  0  0  0  0  0  0  0  0  0  0
    2.5087   64.8181   71.5623 H   0  0  0  0  0  0  0  0  0  0  0  0
    1.5352   68.6608   70.2719 H   0  0  0  0  0  0  0  0  0  0  0  0
    2.9670   67.9426   69.4009 H   0  0  0  0  0  0  0  0  0  0  0  0
    1.3528   69.2003   67.4337 H   0  0  0  0  0  0  0  0  0  0  0  0
    1.5034   70.3548   68.8147 H   0  0  0  0  0  0  0  0  0  0  0  0
    3.1464   68.9136   65.9321 H   0  0  0  0  0  0  0  0  0  0  0  0
    5.4867   69.4289   65.2523 H   0  0  0  0  0  0  0  0  0  0  0  0
    7.0172   70.6025   66.8304 H   0  0  0  0  0  0  0  0  0  0  0  0
    6.2031   71.2743   69.0876 H   0  0  0  0  0  0  0  0  0  0  0  0
    3.8649   70.7636   69.7770 H   0  0  0  0  0  0  0  0  0  0  0  0
  2  1  1  0
  3  2  1  0
  4  2  1  0
  5  4  2  0
  6  4  1  0
  7  6  1  0
  8  7  1  0
  9  8  2  0
 10  9  1  0
 11 10  2  0
 12 11  1  0
 13 12  2  0
 13  8  1  0
 14 13  1  0
 15 14  1  0
 15  6  1  0
 16 15  1  0
 17 16  2  0
 18 16  1  0
 19  1  1  0
 20 19  1  0
 21 20  2  0
 22 20  1  0
 24 23  1  0
 24 22  1  0
 25 19  1  0
 26 25  1  0
 27 26  1  0
 28 27  2  0
 29 28  1  0
 30 29  2  0
 31 30  1  0
 32 27  1  0
 32 31  2  0
  1 33  1  0
  1 34  1  0
  2 35  1  6
  3 36  1  0
  3 37  1  0
  3 38  1  0
  7 39  1  0
  7 40  1  0
  9 41  1  0
 10 42  1  0
 11 43  1  0
 12 44  1  0
 14 45  1  0
 14 46  1  0
 15 47  1  1
 19 48  1  6
 23 49  1  0
 23 50  1  0
 23 51  1  0
 24 52  1  0
 24 53  1  0
 25 54  1  0
 25 55  1  0
 26 56  1  0
 26 57  1  0
 28 58  1  0
 29 59  1  0
 30 60  1  0
 31 61  1  0
 32 62  1  0
M  CHG  2   1   1  18  -1
M  END
>  <score>  (1) 
-10.397

$$$$
=
     RDKit          3D

 62 64  0  0  0  0  0  0  0  0999 V2000
    3.1120   67.9500   64.7240 N   0  0  0  0  0  4  0  0  0  0  0  0
    1.9430   68.8370   64.2640 C   0  0  1  0  0  0  0  0  0  0  0  0
    2.1750   69.0910   62.7820 C   0  0  0  0  0  0  0  0  0  0  0  0
    0.6390   68.0770   64.5900 C   0  0  0  0  0  0  0  0  0  0  0  0
   -0.0720   67.7690   63.6190 O   0  0  0  0  0  0  0  0  0  0  0  0
    0.3390   67.7030   65.8880 N   0  0  0  0  0  0  0  0  0  0  0  0
    1.1920   68.0250   67.0290 C   0  0  0  0  0  0  0  0  0  0  0  0
    0.8380   67.2560   68.2740 C   0  0  0  0  0  0  0  0  0  0  0  0
    1.7780   67.1430   69.3110 C   0  0  0  0  0  0  0  0  0  0  0  0
    1.4530   66.4790   70.4940 C   0  0  0  0  0  0  0  0  0  0  0  0
    0.1840   65.9320   70.6570 C   0  0  0  0  0  0  0  0  0  0  0  0
   -0.7610   66.0500   69.6400 C   0  0  0  0  0  0  0  0  0  0  0  0
   -0.4470   66.7190   68.4480 C   0  0  0  0  0  0  0  0  0  0  0  0
   -1.4790   66.7960   67.3470 C   0  0  0  0  0  0  0  0  0  0  0  0
   -1.1190   67.7460   66.2010 C   0  0  1  0  0  0  0  0  0  0  0  0
   -1.6470   69.2170   66.3700 C   0  0  0  0  0  0  0  0  0  0  0  0
   -2.7160   69.4610   65.7220 O   0  0  0  0  0  0  0  0  0  0  0  0
   -0.9810   69.9710   67.1270 O   0  0  0  0  0  1  0  0  0  0  0  0
    4.3250   67.9720   63.8070 C   0  0  2  0  0  0  0  0  0  0  0  0
    4.5350   66.5900   63.1800 C   0  0  0  0  0  0  0  0  0  0  0  0
    4.2680   66.3520   62.0070 O   0  0  0  0  0  0  0  0  0  0  0  0
    5.0510   65.7140   64.0770 O   0  0  0  0  0  0  0  0  0  0  0  0
    3.7570   63.8990   65.0230 C   0  0  0  0  0  0  0  0  0  0  0  0
    4.6830   64.3360   63.9030 C   0  0  0  0  0  0  0  0  0  0  0  0
    5.5590   68.3600   64.6250 C   0  0  0  0  0  0  0  0  0  0  0  0
    5.6300   69.8600   64.9270 C   0  0  0  0  0  0  0  0  0  0  0  0
    5.5590   70.1110   66.4120 C   0  0  0  0  0  0  0  0  0  0  0  0
    4.3440   69.9810   67.0980 C   0  0  0  0  0  0  0  0  0  0  0  0
    4.2740   70.2380   68.4670 C   0  0  0  0  0  0  0  0  0  0  0  0
    5.4140   70.6310   69.1630 C   0  0  0  0  0  0  0  0  0  0  0  0
    6.6270   70.7640   68.4910 C   0  0  0  0  0  0  0  0  0  0  0  0
    6.7010   70.5080   67.1220 C   0  0  0  0  0  0  0  0  0  0  0  0
    3.4093   68.2693   65.6571 H   0  0  0  0  0  0  0  0  0  0  0  0
    2.7616   66.9814   64.7199 H   0  0  0  0  0  0  0  0  0  0  0  0
    1.8693   69.8130   64.7659 H   0  0  0  0  0  0  0  0  0  0  0  0
    2.9122   69.8981   62.6593 H   0  0  0  0  0  0  0  0  0  0  0  0
    2.5534   68.1735   62.3076 H   0  0  0  0  0  0  0  0  0  0  0  0
    1.2271   69.3850   62.3076 H   0  0  0  0  0  0  0  0  0  0  0  0
    2.2340   67.7955   66.7615 H   0  0  0  0  0  0  0  0  0  0  0  0
    1.0466   69.0920   67.2532 H   0  0  0  0  0  0  0  0  0  0  0  0
    2.7793   67.5819   69.1895 H   0  0  0  0  0  0  0  0  0  0  0  0
    2.1991   66.3879   71.2971 H   0  0  0  0  0  0  0  0  0  0  0  0
   -0.0731   65.4065   71.5886 H   0  0  0  0  0  0  0  0  0  0  0  0
   -1.7623   65.6146   69.7732 H   0  0  0  0  0  0  0  0  0  0  0  0
   -1.6098   65.7873   66.9282 H   0  0  0  0  0  0  0  0  0  0  0  0
   -2.3956   67.1947   67.8062 H   0  0  0  0  0  0  0  0  0  0  0  0
   -1.6673   67.3593   65.3293 H   0  0  0  0  0  0  0  0  0  0  0  0
    4.1640   68.7046   63.0024 H   0  0  0  0  0  0  0  0  0  0  0  0
    4.2255   64.1201   65.9934 H   0  0  0  0  0  0  0  0  0  0  0  0
    2.8038   64.4423   64.9437 H   0  0  0  0  0  0  0  0  0  0  0  0
    3.5705   62.8178   64.9437 H   0  0  0  0  0  0  0  0  0  0  0  0
    5.5893   63.7128   63.9160 H   0  0  0  0  0  0  0  0  0  0  0  0
    4.1636   64.2205   62.9402 H   0  0  0  0  0  0  0  0  0  0  0  0
    5.5343   67.8114   65.5781 H   0  0  0  0  0  0  0  0  0  0  0  0
    6.4449   68.1029   64.0258 H   0  0  0  0  0  0  0  0  0  0  0  0
    6.5774   70.2617   64.5382 H   0  0  0  0  0  0  0  0  0  0  0  0
    4.7762   70.3577   64.4440 H   0  0  0  0  0  0  0  0  0  0  0  0
    3.4392   69.6741   66.5529 H   0  0  0  0  0  0  0  0  0  0  0  0
    3.3166   70.1300   68.9977 H   0  0  0  0  0  0  0  0  0  0  0  0
    5.3569   70.8362   70.2422 H   0  0  0  0  0  0  0  0  0  0  0  0
    7.5284   71.0716   69.0413 H   0  0  0  0  0  0  0  0  0  0  0  0
    7.6609   70.6182   66.5962 H   0  0  0  0  0  0  0  0  0  0  0  0
  2  1  1  0
  3  2  1  0
  4  2  1  0
  5  4  2  0
  6  4  1  0
  7  6  1  0
  8  7  1  0
  9  8  2  0
 10  9  1  0
 11 10  2  0
 12 11  1  0
 13 12  2  0
 13  8  1  0
 14 13  1  0
 15 14  1  0
 15  6  1  0
 16 15  1  0
 17 16  2  0
 18 16  1  0
 19  1  1  0
 20 19  1  0
 21 20  2  0
 22 20  1  0
 24 23  1  0
 24 22  1  0
 25 19  1  0
 26 25  1  0
 27 26  1  0
 28 27  2  0
 29 28  1  0
 30 29  2  0
 31 30  1  0
 32 27  1  0
 32 31  2  0
  1 33  1  0
  1 34  1  0
  2 35  1  1
  3 36  1  0
  3 37  1  0
  3 38  1  0
  7 39  1  0
  7 40  1  0
  9 41  1  0
 10 42  1  0
 11 43  1  0
 12 44  1  0
 14 45  1  0
 14 46  1  0
 15 47  1  6
 19 48  1  6
 23 49  1  0
 23 50  1  0
 23 51  1  0
 24 52  1  0
 24 53  1  0
 25 54  1  0
 25 55  1  0
 26 56  1  0
 26 57  1  0
 28 58  1  0
 29 59  1  0
 30 60  1  0
 31 61  1  0
 32 62  1  0
M  CHG  2   1   1  18  -1
M  END
>  <score>  (2) 
-9.556

$$$$
=
     RDKit          3D

 62 64  0  0  0  0  0  0  0  0999 V2000
    0.7280   66.7510   68.0720 N   0  0  0  0  0  4  0  0  0  0  0  0
    1.4710   66.2510   69.3230 C   0  0  1  0  0  0  0  0  0  0  0  0
    1.4130   67.3960   70.3240 C   0  0  0  0  0  0  0  0  0  0  0  0
    0.7660   64.9570   69.7840 C   0  0  0  0  0  0  0  0  0  0  0  0
   -0.4440   64.8690   69.5170 O   0  0  0  0  0  0  0  0  0  0  0  0
    1.4780   63.9360   70.3880 N   0  0  0  0  0  0  0  0  0  0  0  0
    2.9090   64.0160   70.6660 C   0  0  0  0  0  0  0  0  0  0  0  0
    3.5210   62.6890   71.0290 C   0  0  0  0  0  0  0  0  0  0  0  0
    4.9120   62.5150   70.9300 C   0  0  0  0  0  0  0  0  0  0  0  0
    5.5050   61.3110   71.3090 C   0  0  0  0  0  0  0  0  0  0  0  0
    4.7190   60.2730   71.8000 C   0  0  0  0  0  0  0  0  0  0  0  0
    3.3400   60.4390   71.9140 C   0  0  0  0  0  0  0  0  0  0  0  0
    2.7330   61.6470   71.5400 C   0  0  0  0  0  0  0  0  0  0  0  0
    1.2310   61.7830   71.6380 C   0  0  0  0  0  0  0  0  0  0  0  0
    0.7050   63.2070   71.4350 C   0  0  1  0  0  0  0  0  0  0  0  0
    0.5530   64.0500   72.7540 C   0  0  0  0  0  0  0  0  0  0  0  0
   -0.2500   65.0330   72.6500 O   0  0  0  0  0  0  0  0  0  0  0  0
    1.2110   63.6570   73.7530 O   0  0  0  0  0  1  0  0  0  0  0  0
    0.6930   68.2640   67.9180 C   0  0  2  0  0  0  0  0  0  0  0  0
   -0.3750   68.6630   66.8930 C   0  0  0  0  0  0  0  0  0  0  0  0
   -1.1950   69.5490   67.1090 O   0  0  0  0  0  0  0  0  0  0  0  0
   -0.2690   67.9290   65.7580 O   0  0  0  0  0  0  0  0  0  0  0  0
    1.1870   68.6800   63.9750 C   0  0  0  0  0  0  0  0  0  0  0  0
   -0.2270   68.6670   64.5260 C   0  0  0  0  0  0  0  0  0  0  0  0
    2.0670   68.7460   67.4440 C   0  0  0  0  0  0  0  0  0  0  0  0
    2.5970   69.9320   68.2560 C   0  0  0  0  0  0  0  0  0  0  0  0
    4.0670   70.1470   67.9930 C   0  0  0  0  0  0  0  0  0  0  0  0
    4.6300   69.7770   66.7650 C   0  0  0  0  0  0  0  0  0  0  0  0
    5.9940   69.9520   66.5310 C   0  0  0  0  0  0  0  0  0  0  0  0
    6.8080   70.4950   67.5230 C   0  0  0  0  0  0  0  0  0  0  0  0
    6.2580   70.8660   68.7470 C   0  0  0  0  0  0  0  0  0  0  0  0
    4.8940   70.6910   68.9850 C   0  0  0  0  0  0  0  0  0  0  0  0
    1.1925   66.3544   67.2426 H   0  0  0  0  0  0  0  0  0  0  0  0
   -0.2505   66.4453   68.1723 H   0  0  0  0  0  0  0  0  0  0  0  0
    2.5288   65.9922   69.1681 H   0  0  0  0  0  0  0  0  0  0  0  0
    1.4335   66.9906   71.3464 H   0  0  0  0  0  0  0  0  0  0  0  0
    2.2788   68.0579   70.1745 H   0  0  0  0  0  0  0  0  0  0  0  0
    0.4848   67.9670   70.1745 H   0  0  0  0  0  0  0  0  0  0  0  0
    3.4176   64.4015   69.7700 H   0  0  0  0  0  0  0  0  0  0  0  0
    3.0354   64.6809   71.5332 H   0  0  0  0  0  0  0  0  0  0  0  0
    5.5385   63.3356   70.5503 H   0  0  0  0  0  0  0  0  0  0  0  0
    6.5938   61.1819   71.2198 H   0  0  0  0  0  0  0  0  0  0  0  0
    5.1856   59.3224   72.0978 H   0  0  0  0  0  0  0  0  0  0  0  0
    2.7220   59.6153   72.3008 H   0  0  0  0  0  0  0  0  0  0  0  0
    0.7773   61.1372   70.8717 H   0  0  0  0  0  0  0  0  0  0  0  0
    0.9580   61.4931   72.6634 H   0  0  0  0  0  0  0  0  0  0  0  0
   -0.3255   63.0791   71.0722 H   0  0  0  0  0  0  0  0  0  0  0  0
    0.4463   68.7267   68.8850 H   0  0  0  0  0  0  0  0  0  0  0  0
    1.9051   68.6866   64.8082 H   0  0  0  0  0  0  0  0  0  0  0  0
    1.3486   67.7833   63.3587 H   0  0  0  0  0  0  0  0  0  0  0  0
    1.3321   69.5795   63.3587 H   0  0  0  0  0  0  0  0  0  0  0  0
   -0.5557   69.7006   64.7094 H   0  0  0  0  0  0  0  0  0  0  0  0
   -0.8942   68.1867   63.7952 H   0  0  0  0  0  0  0  0  0  0  0  0
    2.7805   67.9135   67.5326 H   0  0  0  0  0  0  0  0  0  0  0  0
    1.9569   69.0826   66.4026 H   0  0  0  0  0  0  0  0  0  0  0  0
    2.0434   70.8393   67.9725 H   0  0  0  0  0  0  0  0  0  0  0  0
    2.4579   69.7172   69.3258 H   0  0  0  0  0  0  0  0  0  0  0  0
    3.9921   69.3454   65.9796 H   0  0  0  0  0  0  0  0  0  0  0  0
    6.4273   69.6611   65.5627 H   0  0  0  0  0  0  0  0  0  0  0  0
    7.8841   70.6304   67.3392 H   0  0  0  0  0  0  0  0  0  0  0  0
    6.9002   71.2982   69.5285 H   0  0  0  0  0  0  0  0  0  0  0  0
    4.4660   70.9814   69.9558 H   0  0  0  0  0  0  0  0  0  0  0  0
  2  1  1  0
  3  2  1  0
  4  2  1  0
  5  4  2  0
  6  4  1  0
  7  6  1  0
  8  7  1  0
  9  8  2  0
 10  9  1  0
 11 10  2  0
 12 11  1  0
 13 12  2  0
 13  8  1  0
 14 13  1  0
 15 14  1  0
 15  6  1  0
 16 15  1  0
 17 16  2  0
 18 16  1  0
 19  1  1  0
 20 19  1  0
 21 20  2  0
 22 20  1  0
 24 23  1  0
 24 22  1  0
 25 19  1  0
 26 25  1  0
 27 26  1  0
 28 27  2  0
 29 28  1  0
 30 29  2  0
 31 30  1  0
 32 27  1  0
 32 31  2  0
  1 33  1  0
  1 34  1  0
  2 35  1  6
  3 36  1  0
  3 37  1  0
  3 38  1  0
  7 39  1  0
  7 40  1  0
  9 41  1  0
 10 42  1  0
 11 43  1  0
 12 44  1  0
 14 45  1  0
 14 46  1  0
 15 47  1  6
 19 48  1  1
 23 49  1  0
 23 50  1  0
 23 51  1  0
 24 52  1  0
 24 53  1  0
 25 54  1  0
 25 55  1  0
 26 56  1  0
 26 57  1  0
 28 58  1  0
 29 59  1  0
 30 60  1  0
 31 61  1  0
 32 62  1  0
M  CHG  2   1   1  18  -1
M  END
>  <score>  (3) 
-9.191

$$$$
=
     RDKit          3D

 62 64  0  0  0  0  0  0  0  0999 V2000
    2.5670   57.0870   73.1670 N   0  0  0  0  0  4  0  0  0  0  0  0
    2.6860   58.6180   73.2710 C   0  0  1  0  0  0  0  0  0  0  0  0
    3.8300   58.8780   74.2400 C   0  0  0  0  0  0  0  0  0  0  0  0
    2.9180   59.1540   71.8420 C   0  0  0  0  0  0  0  0  0  0  0  0
    3.3050   58.3230   71.0020 O   0  0  0  0  0  0  0  0  0  0  0  0
    2.6320   60.4680   71.5200 N   0  0  0  0  0  0  0  0  0  0  0  0
    2.1380   61.4390   72.4920 C   0  0  0  0  0  0  0  0  0  0  0  0
    1.6020   62.6970   71.8600 C   0  0  0  0  0  0  0  0  0  0  0  0
    0.7430   63.5320   72.5940 C   0  0  0  0  0  0  0  0  0  0  0  0
    0.2760   64.7260   72.0460 C   0  0  0  0  0  0  0  0  0  0  0  0
    0.6700   65.1050   70.7660 C   0  0  0  0  0  0  0  0  0  0  0  0
    1.5320   64.2900   70.0340 C   0  0  0  0  0  0  0  0  0  0  0  0
    2.0110   63.0890   70.5770 C   0  0  0  0  0  0  0  0  0  0  0  0
    2.9140   62.2070   69.7440 C   0  0  0  0  0  0  0  0  0  0  0  0
    3.5640   61.0530   70.5120 C   0  0  1  0  0  0  0  0  0  0  0  0
    4.9740   61.3800   71.1260 C   0  0  0  0  0  0  0  0  0  0  0  0
    5.0210   62.4880   71.7540 O   0  0  0  0  0  0  0  0  0  0  0  0
    5.8770   60.5210   70.9520 O   0  0  0  0  0  1  0  0  0  0  0  0
    1.5110   56.4710   74.0720 C   0  0  2  0  0  0  0  0  0  0  0  0
    1.5890   54.9420   74.0030 C   0  0  0  0  0  0  0  0  0  0  0  0
    2.6560   54.3380   73.9830 O   0  0  0  0  0  0  0  0  0  0  0  0
    0.3530   54.3850   73.9830 O   0  0  0  0  0  0  0  0  0  0  0  0
   -1.4540   53.7400   75.4600 C   0  0  0  0  0  0  0  0  0  0  0  0
    0.0100   53.5580   75.1080 C   0  0  0  0  0  0  0  0  0  0  0  0
    0.1280   56.9380   73.6120 C   0  0  0  0  0  0  0  0  0  0  0  0
   -0.7820   57.3510   74.7730 C   0  0  0  0  0  0  0  0  0  0  0  0
   -1.4370   58.6800   74.4930 C   0  0  0  0  0  0  0  0  0  0  0  0
   -2.6960   58.9780   75.0310 C   0  0  0  0  0  0  0  0  0  0  0  0
   -3.3130   60.1980   74.7510 C   0  0  0  0  0  0  0  0  0  0  0  0
   -2.6800   61.1290   73.9310 C   0  0  0  0  0  0  0  0  0  0  0  0
   -1.4280   60.8420   73.3910 C   0  0  0  0  0  0  0  0  0  0  0  0
   -0.8080   59.6230   73.6680 C   0  0  0  0  0  0  0  0  0  0  0  0
    2.3338   56.8484   72.1925 H   0  0  0  0  0  0  0  0  0  0  0  0
    3.4727   56.7025   73.4715 H   0  0  0  0  0  0  0  0  0  0  0  0
    1.7940   59.1335   73.6565 H   0  0  0  0  0  0  0  0  0  0  0  0
    3.4616   58.7943   75.2731 H   0  0  0  0  0  0  0  0  0  0  0  0
    4.6267   58.1380   74.0737 H   0  0  0  0  0  0  0  0  0  0  0  0
    4.2286   59.8896   74.0737 H   0  0  0  0  0  0  0  0  0  0  0  0
    1.3312   60.9701   73.0744 H   0  0  0  0  0  0  0  0  0  0  0  0
    2.9907   61.7300   73.1231 H   0  0  0  0  0  0  0  0  0  0  0  0
    0.4363   63.2413   73.6096 H   0  0  0  0  0  0  0  0  0  0  0  0
   -0.4037   65.3683   72.6252 H   0  0  0  0  0  0  0  0  0  0  0  0
    0.3016   66.0465   70.3326 H   0  0  0  0  0  0  0  0  0  0  0  0
    1.8392   64.5915   69.0217 H   0  0  0  0  0  0  0  0  0  0  0  0
    2.3162   61.7803   68.9251 H   0  0  0  0  0  0  0  0  0  0  0  0
    3.7354   62.8477   69.3907 H   0  0  0  0  0  0  0  0  0  0  0  0
    3.7692   60.2853   69.7514 H   0  0  0  0  0  0  0  0  0  0  0  0
    1.6860   56.7885   75.1105 H   0  0  0  0  0  0  0  0  0  0  0  0
   -1.5691   53.7543   76.5539 H   0  0  0  0  0  0  0  0  0  0  0  0
   -1.8166   54.6901   75.0407 H   0  0  0  0  0  0  0  0  0  0  0  0
   -2.0382   52.9076   75.0407 H   0  0  0  0  0  0  0  0  0  0  0  0
    0.6300   53.8421   75.9711 H   0  0  0  0  0  0  0  0  0  0  0  0
    0.1903   52.5042   74.8491 H   0  0  0  0  0  0  0  0  0  0  0  0
    0.2546   57.8011   72.9419 H   0  0  0  0  0  0  0  0  0  0  0  0
   -0.3530   56.0896   73.1032 H   0  0  0  0  0  0  0  0  0  0  0  0
   -1.5611   56.5867   74.9101 H   0  0  0  0  0  0  0  0  0  0  0  0
   -0.1719   57.4434   75.6837 H   0  0  0  0  0  0  0  0  0  0  0  0
   -3.2012   58.2458   75.6781 H   0  0  0  0  0  0  0  0  0  0  0  0
   -4.3008   60.4247   75.1786 H   0  0  0  0  0  0  0  0  0  0  0  0
   -3.1679   62.0898   73.7099 H   0  0  0  0  0  0  0  0  0  0  0  0
   -0.9272   61.5780   72.7449 H   0  0  0  0  0  0  0  0  0  0  0  0
    0.1793   59.4008   73.2369 H   0  0  0  0  0  0  0  0  0  0  0  0
  2  1  1  0
  3  2  1  0
  4  2  1  0
  5  4  2  0
  6  4  1  0
  7  6  1  0
  8  7  1  0
  9  8  2  0
 10  9  1  0
 11 10  2  0
 12 11  1  0
 13 12  2  0
 13  8  1  0
 14 13  1  0
 15 14  1  0
 15  6  1  0
 16 15  1  0
 17 16  2  0
 18 16  1  0
 19  1  1  0
 20 19  1  0
 21 20  2  0
 22 20  1  0
 24 23  1  0
 24 22  1  0
 25 19  1  0
 26 25  1  0
 27 26  1  0
 28 27  2  0
 29 28  1  0
 30 29  2  0
 31 30  1  0
 32 27  1  0
 32 31  2  0
  1 33  1  0
  1 34  1  0
  2 35  1  1
  3 36  1  0
  3 37  1  0
  3 38  1  0
  7 39  1  0
  7 40  1  0
  9 41  1  0
 10 42  1  0
 11 43  1  0
 12 44  1  0
 14 45  1  0
 14 46  1  0
 15 47  1  6
 19 48  1  1
 23 49  1  0
 23 50  1  0
 23 51  1  0
 24 52  1  0
 24 53  1  0
 25 54  1  0
 25 55  1  0
 26 56  1  0
 26 57  1  0
 28 58  1  0
 29 59  1  0
 30 60  1  0
 31 61  1  0
 32 62  1  0
M  CHG  2   1   1  18  -1
M  END
>  <score>  (4) 
-8.38

$$$$
=
     RDKit          3D

 62 64  0  0  0  0  0  0  0  0999 V2000
    0.4800   66.6860   68.1820 N   0  0  0  0  0  4  0  0  0  0  0  0
    1.3840   66.1090   69.2850 C   0  0  1  0  0  0  0  0  0  0  0  0
    1.5300   67.2140   70.3200 C   0  0  0  0  0  0  0  0  0  0  0  0
    0.7020   64.8250   69.8060 C   0  0  0  0  0  0  0  0  0  0  0  0
   -0.5130   64.7170   69.5690 O   0  0  0  0  0  0  0  0  0  0  0  0
    1.4360   63.8320   70.4290 N   0  0  0  0  0  0  0  0  0  0  0  0
    2.8720   63.9350   70.6740 C   0  0  0  0  0  0  0  0  0  0  0  0
    3.5050   62.6270   71.0690 C   0  0  0  0  0  0  0  0  0  0  0  0
    4.8950   62.4620   70.9460 C   0  0  0  0  0  0  0  0  0  0  0  0
    5.5080   61.2780   71.3530 C   0  0  0  0  0  0  0  0  0  0  0  0
    4.7420   60.2510   71.8970 C   0  0  0  0  0  0  0  0  0  0  0  0
    3.3650   60.4080   72.0360 C   0  0  0  0  0  0  0  0  0  0  0  0
    2.7380   61.5960   71.6330 C   0  0  0  0  0  0  0  0  0  0  0  0
    1.2370   61.7230   71.7590 C   0  0  0  0  0  0  0  0  0  0  0  0
    0.6930   63.1340   71.5190 C   0  0  1  0  0  0  0  0  0  0  0  0
    0.5610   64.0210   72.8110 C   0  0  0  0  0  0  0  0  0  0  0  0
    1.2540   63.6050   73.7960 O   0  0  0  0  0  0  0  0  0  0  0  0
   -0.1820   65.0330   72.7260 O   0  0  0  0  0  1  0  0  0  0  0  0
    1.1650   67.6800   67.2560 C   0  0  2  0  0  0  0  0  0  0  0  0
    0.4160   69.0160   67.2740 C   0  0  0  0  0  0  0  0  0  0  0  0
    0.7300   69.9360   68.0230 O   0  0  0  0  0  0  0  0  0  0  0  0
   -0.5920   69.0310   66.3670 O   0  0  0  0  0  0  0  0  0  0  0  0
   -2.8930   68.6390   65.7270 C   0  0  0  0  0  0  0  0  0  0  0  0
   -1.9070   68.7500   66.8740 C   0  0  0  0  0  0  0  0  0  0  0  0
    1.1700   67.1110   65.8350 C   0  0  0  0  0  0  0  0  0  0  0  0
    2.5820   66.8980   65.2800 C   0  0  0  0  0  0  0  0  0  0  0  0
    2.7270   67.5390   63.9230 C   0  0  0  0  0  0  0  0  0  0  0  0
    3.9520   67.4970   63.2450 C   0  0  0  0  0  0  0  0  0  0  0  0
    4.0930   68.1120   62.0010 C   0  0  0  0  0  0  0  0  0  0  0  0
    3.0130   68.7760   61.4240 C   0  0  0  0  0  0  0  0  0  0  0  0
    1.7900   68.8240   62.0900 C   0  0  0  0  0  0  0  0  0  0  0  0
    1.6460   68.2110   63.3350 C   0  0  0  0  0  0  0  0  0  0  0  0
    0.1307   65.9032   67.6109 H   0  0  0  0  0  0  0  0  0  0  0  0
   -0.2706   67.2035   68.6613 H   0  0  0  0  0  0  0  0  0  0  0  0
    2.3933   65.8168   68.9596 H   0  0  0  0  0  0  0  0  0  0  0  0
    1.4728   66.7808   71.3295 H   0  0  0  0  0  0  0  0  0  0  0  0
    2.5018   67.7125   70.1895 H   0  0  0  0  0  0  0  0  0  0  0  0
    0.7210   67.9478   70.1895 H   0  0  0  0  0  0  0  0  0  0  0  0
    3.3579   64.2944   69.7549 H   0  0  0  0  0  0  0  0  0  0  0  0
    3.0096   64.6303   71.5152 H   0  0  0  0  0  0  0  0  0  0  0  0
    5.5050   63.2746   70.5247 H   0  0  0  0  0  0  0  0  0  0  0  0
    6.5957   61.1555   71.2444 H   0  0  0  0  0  0  0  0  0  0  0  0
    5.2241   59.3155   72.2171 H   0  0  0  0  0  0  0  0  0  0  0  0
    2.7640   59.5930   72.4657 H   0  0  0  0  0  0  0  0  0  0  0  0
    0.7730   61.0473   71.0254 H   0  0  0  0  0  0  0  0  0  0  0  0
    0.9893   61.4669   72.7997 H   0  0  0  0  0  0  0  0  0  0  0  0
   -0.3444   62.9854   71.1847 H   0  0  0  0  0  0  0  0  0  0  0  0
    2.1975   67.8486   67.5957 H   0  0  0  0  0  0  0  0  0  0  0  0
   -3.9108   68.5244   66.1282 H   0  0  0  0  0  0  0  0  0  0  0  0
   -2.8421   69.5485   65.1104 H   0  0  0  0  0  0  0  0  0  0  0  0
   -2.6412   67.7635   65.1104 H   0  0  0  0  0  0  0  0  0  0  0  0
   -2.2197   69.5630   67.5457 H   0  0  0  0  0  0  0  0  0  0  0  0
   -1.8856   67.7981   67.4248 H   0  0  0  0  0  0  0  0  0  0  0  0
    0.6470   66.1433   65.8431 H   0  0  0  0  0  0  0  0  0  0  0  0
    0.6685   67.8436   65.1856 H   0  0  0  0  0  0  0  0  0  0  0  0
    3.3120   67.3460   65.9702 H   0  0  0  0  0  0  0  0  0  0  0  0
    2.7620   65.8174   65.1802 H   0  0  0  0  0  0  0  0  0  0  0  0
    4.8087   66.9754   63.6967 H   0  0  0  0  0  0  0  0  0  0  0  0
    5.0583   68.0726   61.4750 H   0  0  0  0  0  0  0  0  0  0  0  0
    3.1255   69.2620   60.4436 H   0  0  0  0  0  0  0  0  0  0  0  0
    0.9364   69.3462   61.6333 H   0  0  0  0  0  0  0  0  0  0  0  0
    0.6793   68.2551   63.8580 H   0  0  0  0  0  0  0  0  0  0  0  0
  2  1  1  0
  3  2  1  0
  4  2  1  0
  5  4  2  0
  6  4  1  0
  7  6  1  0
  8  7  1  0
  9  8  2  0
 10  9  1  0
 11 10  2  0
 12 11  1  0
 13 12  2  0
 13  8  1  0
 14 13  1  0
 15 14  1  0
 15  6  1  0
 16 15  1  0
 17 16  2  0
 18 16  1  0
 19  1  1  0
 20 19  1  0
 21 20  2  0
 22 20  1  0
 24 23  1  0
 24 22  1  0
 25 19  1  0
 26 25  1  0
 27 26  1  0
 28 27  2  0
 29 28  1  0
 30 29  2  0
 31 30  1  0
 32 27  1  0
 32 31  2  0
  1 33  1  0
  1 34  1  0
  2 35  1  6
  3 36  1  0
  3 37  1  0
  3 38  1  0
  7 39  1  0
  7 40  1  0
  9 41  1  0
 10 42  1  0
 11 43  1  0
 12 44  1  0
 14 45  1  0
 14 46  1  0
 15 47  1  6
 19 48  1  1
 23 49  1  0
 23 50  1  0
 23 51  1  0
 24 52  1  0
 24 53  1  0
 25 54  1  0
 25 55  1  0
 26 56  1  0
 26 57  1  0
 28 58  1  0
 29 59  1  0
 30 60  1  0
 31 61  1  0
 32 62  1  0
M  CHG  2   1   1  18  -1
M  END
>  <score>  (5) 
-7.826

$$$$
=
     RDKit          3D

 62 64  0  0  0  0  0  0  0  0999 V2000
    2.2670   62.2630   74.5750 N   0  0  0  0  0  4  0  0  0  0  0  0
    2.2200   61.0060   73.6890 C   0  0  1  0  0  0  0  0  0  0  0  0
    3.6170   60.8590   73.1050 C   0  0  0  0  0  0  0  0  0  0  0  0
    1.7700   59.8330   74.5870 C   0  0  0  0  0  0  0  0  0  0  0  0
    2.6620   59.2830   75.2550 O   0  0  0  0  0  0  0  0  0  0  0  0
    0.4360   59.4830   74.6850 N   0  0  0  0  0  0  0  0  0  0  0  0
   -0.6230   60.1530   73.9350 C   0  0  0  0  0  0  0  0  0  0  0  0
   -2.0060   59.8250   74.4310 C   0  0  0  0  0  0  0  0  0  0  0  0
   -3.0800   60.6680   74.1020 C   0  0  0  0  0  0  0  0  0  0  0  0
   -4.3780   60.3560   74.5090 C   0  0  0  0  0  0  0  0  0  0  0  0
   -4.6160   59.1940   75.2370 C   0  0  0  0  0  0  0  0  0  0  0  0
   -3.5600   58.3440   75.5580 C   0  0  0  0  0  0  0  0  0  0  0  0
   -2.2520   58.6460   75.1510 C   0  0  0  0  0  0  0  0  0  0  0  0
   -1.1210   57.7250   75.5470 C   0  0  0  0  0  0  0  0  0  0  0  0
    0.2130   58.0180   74.8540 C   0  0  1  0  0  0  0  0  0  0  0  0
    0.4520   57.2230   73.5180 C   0  0  0  0  0  0  0  0  0  0  0  0
   -0.4420   56.3510   73.2680 O   0  0  0  0  0  0  0  0  0  0  0  0
    1.4670   57.5420   72.8470 O   0  0  0  0  0  1  0  0  0  0  0  0
    1.5210   63.4640   74.0120 C   0  0  2  0  0  0  0  0  0  0  0  0
    0.5850   64.0470   75.0760 C   0  0  0  0  0  0  0  0  0  0  0  0
    0.9560   64.8900   75.8860 O   0  0  0  0  0  0  0  0  0  0  0  0
   -0.6610   63.5220   74.9790 O   0  0  0  0  0  0  0  0  0  0  0  0
   -0.8020   62.1710   76.9840 C   0  0  0  0  0  0  0  0  0  0  0  0
   -1.3740   63.3470   76.2150 C   0  0  0  0  0  0  0  0  0  0  0  0
    0.7050   63.0160   72.7970 C   0  0  0  0  0  0  0  0  0  0  0  0
    0.9650   63.8710   71.5530 C   0  0  0  0  0  0  0  0  0  0  0  0
    2.0890   63.2930   70.7310 C   0  0  0  0  0  0  0  0  0  0  0  0
    3.3630   63.8760   70.7600 C   0  0  0  0  0  0  0  0  0  0  0  0
    4.3960   63.3560   69.9800 C   0  0  0  0  0  0  0  0  0  0  0  0
    4.1660   62.2520   69.1630 C   0  0  0  0  0  0  0  0  0  0  0  0
    2.9040   61.6650   69.1270 C   0  0  0  0  0  0  0  0  0  0  0  0
    1.8680   62.1820   69.9050 C   0  0  0  0  0  0  0  0  0  0  0  0
    1.8537   62.0276   75.4886 H   0  0  0  0  0  0  0  0  0  0  0  0
    3.2575   62.5384   74.6382 H   0  0  0  0  0  0  0  0  0  0  0  0
    1.5081   61.0485   72.8515 H   0  0  0  0  0  0  0  0  0  0  0  0
    4.3497   60.7819   73.9219 H   0  0  0  0  0  0  0  0  0  0  0  0
    3.6618   59.9512   72.4854 H   0  0  0  0  0  0  0  0  0  0  0  0
    3.8497   61.7376   72.4854 H   0  0  0  0  0  0  0  0  0  0  0  0
   -0.4726   61.2398   74.0145 H   0  0  0  0  0  0  0  0  0  0  0  0
   -0.5584   59.7994   72.8954 H   0  0  0  0  0  0  0  0  0  0  0  0
   -2.8966   61.5822   73.5184 H   0  0  0  0  0  0  0  0  0  0  0  0
   -5.2115   61.0274   74.2548 H   0  0  0  0  0  0  0  0  0  0  0  0
   -5.6383   58.9467   75.5591 H   0  0  0  0  0  0  0  0  0  0  0  0
   -3.7535   57.4281   76.1356 H   0  0  0  0  0  0  0  0  0  0  0  0
   -0.9702   57.8142   76.6330 H   0  0  0  0  0  0  0  0  0  0  0  0
   -1.4190   56.7134   75.2341 H   0  0  0  0  0  0  0  0  0  0  0  0
    0.9806   57.6332   75.5416 H   0  0  0  0  0  0  0  0  0  0  0  0
    2.2428   64.2385   73.7133 H   0  0  0  0  0  0  0  0  0  0  0  0
   -0.8937   62.3595   78.0638 H   0  0  0  0  0  0  0  0  0  0  0  0
   -1.3565   61.2575   76.7229 H   0  0  0  0  0  0  0  0  0  0  0  0
    0.2589   62.0432   76.7229 H   0  0  0  0  0  0  0  0  0  0  0  0
   -2.4360   63.1587   75.9990 H   0  0  0  0  0  0  0  0  0  0  0  0
   -1.2718   64.2586   76.8221 H   0  0  0  0  0  0  0  0  0  0  0  0
    0.9649   61.9725   72.5657 H   0  0  0  0  0  0  0  0  0  0  0  0
   -0.3584   63.1267   73.0559 H   0  0  0  0  0  0  0  0  0  0  0  0
    0.0514   63.9048   70.9413 H   0  0  0  0  0  0  0  0  0  0  0  0
    1.2484   64.8841   71.8746 H   0  0  0  0  0  0  0  0  0  0  0  0
    3.5497   64.7494   71.4021 H   0  0  0  0  0  0  0  0  0  0  0  0
    5.3935   63.8186   70.0103 H   0  0  0  0  0  0  0  0  0  0  0  0
    4.9807   61.8441   68.5466 H   0  0  0  0  0  0  0  0  0  0  0  0
    2.7234   60.7914   68.4834 H   0  0  0  0  0  0  0  0  0  0  0  0
    0.8724   61.7155   69.8702 H   0  0  0  0  0  0  0  0  0  0  0  0
  2  1  1  0
  3  2  1  0
  4  2  1  0
  5  4  2  0
  6  4  1  0
  7  6  1  0
  8  7  1  0
  9  8  2  0
 10  9  1  0
 11 10  2  0
 12 11  1  0
 13 12  2  0
 13  8  1  0
 14 13  1  0
 15 14  1  0
 15  6  1  0
 16 15  1  0
 17 16  2  0
 18 16  1  0
 19  1  1  0
 20 19  1  0
 21 20  2  0
 22 20  1  0
 24 23  1  0
 24 22  1  0
 25 19  1  0
 26 25  1  0
 27 26  1  0
 28 27  2  0
 29 28  1  0
 30 29  2  0
 31 30  1  0
 32 27  1  0
 32 31  2  0
  1 33  1  0
  1 34  1  0
  2 35  1  6
  3 36  1  0
  3 37  1  0
  3 38  1  0
  7 39  1  0
  7 40  1  0
  9 41  1  0
 10 42  1  0
 11 43  1  0
 12 44  1  0
 14 45  1  0
 14 46  1  0
 15 47  1  1
 19 48  1  6
 23 49  1  0
 23 50  1  0
 23 51  1  0
 24 52  1  0
 24 53  1  0
 25 54  1  0
 25 55  1  0
 26 56  1  0
 26 57  1  0
 28 58  1  0
 29 59  1  0
 30 60  1  0
 31 61  1  0
 32 62  1  0
M  CHG  2   1   1  18  -1
M  END
>  <score>  (6) 
-7.426

$$$$
