=
     RDKit          3D

 31 32  0  0  0  0  0  0  0  0999 V2000
    4.6400   69.8870   66.9200 C   0  0  0  0  0  0  0  0  0  0  0  0
    5.6790   69.8570   65.9760 C   0  0  0  0  0  0  0  0  0  0  0  0
    5.4390   69.4660   64.6570 C   0  0  0  0  0  0  0  0  0  0  0  0
    4.1560   69.0890   64.2640 C   0  0  0  0  0  0  0  0  0  0  0  0
    3.1170   69.1000   65.1980 C   0  0  0  0  0  0  0  0  0  0  0  0
    3.3500   69.5170   66.5080 C   0  0  0  0  0  0  0  0  0  0  0  0
    4.9280   70.3010   68.3540 C   0  0  2  0  0  0  0  0  0  0  0  0
    3.6680   70.8140   69.0490 C   0  0  0  0  0  0  0  0  0  0  0  0
    5.8330   72.4910   68.0290 O   0  0  0  0  0  1  0  0  0  0  0  0
    6.0890   71.3160   68.4220 C   0  0  0  0  0  0  0  0  0  0  0  0
    7.1710   70.8580   68.9000 O   0  0  0  0  0  0  0  0  0  0  0  0
    1.8270   68.7710   64.8510 O   0  0  0  0  0  0  0  0  0  0  0  0
    1.0140   68.2880   65.8520 C   0  0  0  0  0  0  0  0  0  0  0  0
   -0.3360   68.6350   65.7890 C   0  0  0  0  0  0  0  0  0  0  0  0
   -1.2140   68.2080   66.7870 C   0  0  0  0  0  0  0  0  0  0  0  0
   -0.7370   67.4460   67.8540 C   0  0  0  0  0  0  0  0  0  0  0  0
    0.6180   67.1170   67.9290 C   0  0  0  0  0  0  0  0  0  0  0  0
    1.4960   67.5440   66.9320 C   0  0  0  0  0  0  0  0  0  0  0  0
    6.6961   70.1455   66.2796 H   0  0  0  0  0  0  0  0  0  0  0  0
    6.2627   69.4555   63.9280 H   0  0  0  0  0  0  0  0  0  0  0  0
    3.9626   68.7847   63.2248 H   0  0  0  0  0  0  0  0  0  0  0  0
    2.5162   69.5564   67.2244 H   0  0  0  0  0  0  0  0  0  0  0  0
    5.2532   69.4064   68.9053 H   0  0  0  0  0  0  0  0  0  0  0  0
    3.8026   70.7592   70.1394 H   0  0  0  0  0  0  0  0  0  0  0  0
    3.4858   71.8579   68.7540 H   0  0  0  0  0  0  0  0  0  0  0  0
    2.8084   70.1942   68.7540 H   0  0  0  0  0  0  0  0  0  0  0  0
   -0.7086   69.2451   64.9529 H   0  0  0  0  0  0  0  0  0  0  0  0
   -2.2804   68.4720   66.7322 H   0  0  0  0  0  0  0  0  0  0  0  0
   -1.4294   67.1039   68.6373 H   0  0  0  0  0  0  0  0  0  0  0  0
    0.9933   66.5212   68.7741 H   0  0  0  0  0  0  0  0  0  0  0  0
    2.5656   67.2953   66.9962 H   0  0  0  0  0  0  0  0  0  0  0  0
  2  1  2  0
  3  2  1  0
  4  3  2  0
  5  4  1  0
  6  5  2  0
  6  1  1  0
  7  1  1  0
  8  7  1  0
 10  7  1  0
 10  9  1  0
 11 10  2  0
 12  5  1  0
 13 12  1  0
 14 13  2  0
 15 14  1  0
 16 15  2  0
 17 16  1  0
 18 17  2  0
 18 13  1  0
  2 19  1  0
  3 20  1  0
  4 21  1  0
  6 22  1  0
  7 23  1  1
  8 24  1  0
  8 25  1  0
  8 26  1  0
 14 27  1  0
 15 28  1  0
 16 29  1  0
 17 30  1  0
 18 31  1  0
M  CHG  1   9  -1
M  END
>  <score>  (1) 
-9.447

$$$$
=
     RDKit          3D

 31 32  0  0  0  0  0  0  0  0999 V2000
    4.7310   69.8930   67.1560 C   0  0  0  0  0  0  0  0  0  0  0  0
    5.7750   69.9130   66.2170 C   0  0  0  0  0  0  0  0  0  0  0  0
    5.5890   69.4050   64.9280 C   0  0  0  0  0  0  0  0  0  0  0  0
    4.3590   68.8620   64.5630 C   0  0  0  0  0  0  0  0  0  0  0  0
    3.3180   68.8240   65.4940 C   0  0  0  0  0  0  0  0  0  0  0  0
    3.4930   69.3550   66.7720 C   0  0  0  0  0  0  0  0  0  0  0  0
    4.9610   70.4360   68.5570 C   0  0  2  0  0  0  0  0  0  0  0  0
    3.6710   70.9960   69.1550 C   0  0  0  0  0  0  0  0  0  0  0  0
    7.2030   71.0800   69.0860 O   0  0  0  0  0  1  0  0  0  0  0  0
    6.1110   71.4670   68.5780 C   0  0  0  0  0  0  0  0  0  0  0  0
    5.8350   72.5840   68.0460 O   0  0  0  0  0  0  0  0  0  0  0  0
    2.0740   68.3300   65.1710 O   0  0  0  0  0  0  0  0  0  0  0  0
    1.5390   68.7220   63.9650 C   0  0  0  0  0  0  0  0  0  0  0  0
    0.1910   69.0830   63.9620 C   0  0  0  0  0  0  0  0  0  0  0  0
   -0.4270   69.4600   62.7690 C   0  0  0  0  0  0  0  0  0  0  0  0
    0.2990   69.4610   61.5770 C   0  0  0  0  0  0  0  0  0  0  0  0
    1.6420   69.0780   61.5760 C   0  0  0  0  0  0  0  0  0  0  0  0
    2.2620   68.7000   62.7690 C   0  0  0  0  0  0  0  0  0  0  0  0
    6.7514   70.3337   66.4993 H   0  0  0  0  0  0  0  0  0  0  0  0
    6.4144   69.4340   64.2014 H   0  0  0  0  0  0  0  0  0  0  0  0
    4.2084   68.4656   63.5480 H   0  0  0  0  0  0  0  0  0  0  0  0
    2.6545   69.3520   67.4840 H   0  0  0  0  0  0  0  0  0  0  0  0
    5.2720   69.5974   69.1974 H   0  0  0  0  0  0  0  0  0  0  0  0
    3.7338   70.9688   70.2529 H   0  0  0  0  0  0  0  0  0  0  0  0
    3.5330   72.0350   68.8213 H   0  0  0  0  0  0  0  0  0  0  0  0
    2.8177   70.3873   68.8213 H   0  0  0  0  0  0  0  0  0  0  0  0
   -0.3841   69.0704   64.8996 H   0  0  0  0  0  0  0  0  0  0  0  0
   -1.4863   69.7564   62.7681 H   0  0  0  0  0  0  0  0  0  0  0  0
   -0.1869   69.7637   60.6377 H   0  0  0  0  0  0  0  0  0  0  0  0
    2.2118   69.0740   60.6351 H   0  0  0  0  0  0  0  0  0  0  0  0
    3.3162   68.3859   62.7674 H   0  0  0  0  0  0  0  0  0  0  0  0
  2  1  2  0
  3  2  1  0
  4  3  2  0
  5  4  1  0
  6  5  2  0
  6  1  1  0
  7  1  1  0
  8  7  1  0
 10  7  1  0
 10  9  1  0
 11 10  2  0
 12  5  1  0
 13 12  1  0
 14 13  2  0
 15 14  1  0
 16 15  2  0
 17 16  1  0
 18 17  2  0
 18 13  1  0
  2 19  1  0
  3 20  1  0
  4 21  1  0
  6 22  1  0
  7 23  1  1
  8 24  1  0
  8 25  1  0
  8 26  1  0
 14 27  1  0
 15 28  1  0
 16 29  1  0
 17 30  1  0
 18 31  1  0
M  CHG  1   9  -1
M  END
>  <score>  (2) 
-9.403

$$$$
=
     RDKit          3D

 31 32  0  0  0  0  0  0  0  0999 V2000
    3.5280   69.0510   64.6970 C   0  0  0  0  0  0  0  0  0  0  0  0
    4.8510   69.4720   64.9050 C   0  0  0  0  0  0  0  0  0  0  0  0
    5.2850   69.8730   66.1710 C   0  0  0  0  0  0  0  0  0  0  0  0
    4.3980   69.8680   67.2460 C   0  0  0  0  0  0  0  0  0  0  0  0
    3.0750   69.4660   67.0480 C   0  0  0  0  0  0  0  0  0  0  0  0
    2.6480   69.0390   65.7900 C   0  0  0  0  0  0  0  0  0  0  0  0
    3.0730   68.6350   63.3070 C   0  0  2  0  0  0  0  0  0  0  0  0
    1.5480   68.6030   63.2070 C   0  0  0  0  0  0  0  0  0  0  0  0
    3.9340   66.4600   63.8100 O   0  0  0  0  0  1  0  0  0  0  0  0
    3.7160   67.2950   62.8850 C   0  0  0  0  0  0  0  0  0  0  0  0
    3.9220   67.1720   61.6400 O   0  0  0  0  0  0  0  0  0  0  0  0
    2.1700   69.4110   68.0830 O   0  0  0  0  0  0  0  0  0  0  0  0
    1.0110   68.7010   67.8650 C   0  0  0  0  0  0  0  0  0  0  0  0
    0.0000   69.3500   67.1570 C   0  0  0  0  0  0  0  0  0  0  0  0
   -1.2150   68.7040   66.9250 C   0  0  0  0  0  0  0  0  0  0  0  0
   -1.4230   67.4140   67.4140 C   0  0  0  0  0  0  0  0  0  0  0  0
   -0.4180   66.7720   68.1410 C   0  0  0  0  0  0  0  0  0  0  0  0
    0.7970   67.4180   68.3740 C   0  0  0  0  0  0  0  0  0  0  0  0
    5.5552   69.4863   64.0601 H   0  0  0  0  0  0  0  0  0  0  0  0
    6.3270   70.1927   66.3193 H   0  0  0  0  0  0  0  0  0  0  0  0
    4.7379   70.1789   68.2449 H   0  0  0  0  0  0  0  0  0  0  0  0
    1.6136   68.6903   65.6541 H   0  0  0  0  0  0  0  0  0  0  0  0
    3.4226   69.3963   62.5941 H   0  0  0  0  0  0  0  0  0  0  0  0
    1.1144   68.5939   64.2179 H   0  0  0  0  0  0  0  0  0  0  0  0
    1.1973   69.4940   62.6656 H   0  0  0  0  0  0  0  0  0  0  0  0
    1.2350   67.6981   62.6656 H   0  0  0  0  0  0  0  0  0  0  0  0
    0.1603   70.3714   66.7813 H   0  0  0  0  0  0  0  0  0  0  0  0
   -2.0084   69.2116   66.3568 H   0  0  0  0  0  0  0  0  0  0  0  0
   -2.3787   66.9025   67.2269 H   0  0  0  0  0  0  0  0  0  0  0  0
   -0.5842   65.7566   68.5301 H   0  0  0  0  0  0  0  0  0  0  0  0
    1.5843   66.9179   68.9572 H   0  0  0  0  0  0  0  0  0  0  0  0
  2  1  2  0
  3  2  1  0
  4  3  2  0
  5  4  1  0
  6  5  2  0
  6  1  1  0
  7  1  1  0
  8  7  1  0
 10  7  1  0
 10  9  1  0
 11 10  2  0
 12  5  1  0
 13 12  1  0
 14 13  2  0
 15 14  1  0
 16 15  2  0
 17 16  1  0
 18 17  2  0
 18 13  1  0
  2 19  1  0
  3 20  1  0
  4 21  1  0
  6 22  1  0
  7 23  1  6
  8 24  1  0
  8 25  1  0
  8 26  1  0
 14 27  1  0
 15 28  1  0
 16 29  1  0
 17 30  1  0
 18 31  1  0
M  CHG  1   9  -1
M  END
>  <score>  (3) 
-9.192

$$$$
=
     RDKit          3D

 31 32  0  0  0  0  0  0  0  0999 V2000
    4.1090   69.8860   67.6870 C   0  0  0  0  0  0  0  0  0  0  0  0
    2.9640   69.9520   68.4970 C   0  0  0  0  0  0  0  0  0  0  0  0
    1.7150   69.5630   68.0080 C   0  0  0  0  0  0  0  0  0  0  0  0
    1.5910   69.1110   66.6950 C   0  0  0  0  0  0  0  0  0  0  0  0
    2.7200   69.0560   65.8750 C   0  0  0  0  0  0  0  0  0  0  0  0
    3.9720   69.4180   66.3710 C   0  0  0  0  0  0  0  0  0  0  0  0
    5.4550   70.3310   68.2360 C   0  0  2  0  0  0  0  0  0  0  0  0
    5.3770   70.6190   69.7340 C   0  0  0  0  0  0  0  0  0  0  0  0
    6.4840   71.2680   66.2900 O   0  0  0  0  0  1  0  0  0  0  0  0
    6.0190   71.5270   67.4380 C   0  0  0  0  0  0  0  0  0  0  0  0
    5.9190   72.6490   68.0190 O   0  0  0  0  0  0  0  0  0  0  0  0
    2.6560   68.5840   64.5830 O   0  0  0  0  0  0  0  0  0  0  0  0
    3.1350   67.3140   64.3560 C   0  0  0  0  0  0  0  0  0  0  0  0
    4.0880   67.1710   63.3460 C   0  0  0  0  0  0  0  0  0  0  0  0
    4.5950   65.9080   63.0390 C   0  0  0  0  0  0  0  0  0  0  0  0
    4.1390   64.7870   63.7320 C   0  0  0  0  0  0  0  0  0  0  0  0
    3.1700   64.9260   64.7280 C   0  0  0  0  0  0  0  0  0  0  0  0
    2.6610   66.1890   65.0360 C   0  0  0  0  0  0  0  0  0  0  0  0
    3.0520   70.3153   69.5315 H   0  0  0  0  0  0  0  0  0  0  0  0
    0.8294   69.6132   68.6586 H   0  0  0  0  0  0  0  0  0  0  0  0
    0.6098   68.7996   66.3073 H   0  0  0  0  0  0  0  0  0  0  0  0
    4.8591   69.3361   65.7258 H   0  0  0  0  0  0  0  0  0  0  0  0
    6.1637   69.4995   68.1083 H   0  0  0  0  0  0  0  0  0  0  0  0
    5.6242   69.7064   70.2962 H   0  0  0  0  0  0  0  0  0  0  0  0
    6.0922   71.4138   69.9923 H   0  0  0  0  0  0  0  0  0  0  0  0
    4.3584   70.9442   69.9923 H   0  0  0  0  0  0  0  0  0  0  0  0
    4.4392   68.0541   62.7922 H   0  0  0  0  0  0  0  0  0  0  0  0
    5.3541   65.7965   62.2507 H   0  0  0  0  0  0  0  0  0  0  0  0
    4.5431   63.7920   63.4938 H   0  0  0  0  0  0  0  0  0  0  0  0
    2.8077   64.0400   65.2700 H   0  0  0  0  0  0  0  0  0  0  0  0
    1.8889   66.2982   65.8119 H   0  0  0  0  0  0  0  0  0  0  0  0
  2  1  2  0
  3  2  1  0
  4  3  2  0
  5  4  1  0
  6  5  2  0
  6  1  1  0
  7  1  1  0
  8  7  1  0
 10  7  1  0
 10  9  1  0
 11 10  2  0
 12  5  1  0
 13 12  1  0
 14 13  2  0
 15 14  1  0
 16 15  2  0
 17 16  1  0
 18 17  2  0
 18 13  1  0
  2 19  1  0
  3 20  1  0
  4 21  1  0
  6 22  1  0
  7 23  1  1
  8 24  1  0
  8 25  1  0
  8 26  1  0
 14 27  1  0
 15 28  1  0
 16 29  1  0
 17 30  1  0
 18 31  1  0
M  CHG  1   9  -1
M  END
>  <score>  (4) 
-9.132

$$$$
=
     RDKit          3D

 31 32  0  0  0  0  0  0  0  0999 V2000
    3.8560   68.4030   64.9460 C   0  0  0  0  0  0  0  0  0  0  0  0
    4.1860   69.4820   65.7820 C   0  0  0  0  0  0  0  0  0  0  0  0
    3.4550   69.7390   66.9450 C   0  0  0  0  0  0  0  0  0  0  0  0
    2.3760   68.9240   67.2840 C   0  0  0  0  0  0  0  0  0  0  0  0
    2.0290   67.8570   66.4520 C   0  0  0  0  0  0  0  0  0  0  0  0
    2.7750   67.5830   65.3060 C   0  0  0  0  0  0  0  0  0  0  0  0
    4.6560   68.1530   63.6780 C   0  0  2  0  0  0  0  0  0  0  0  0
    5.4570   69.3890   63.2720 C   0  0  0  0  0  0  0  0  0  0  0  0
    4.0290   66.5020   62.0640 O   0  0  0  0  0  1  0  0  0  0  0  0
    3.7490   67.6420   62.5360 C   0  0  0  0  0  0  0  0  0  0  0  0
    2.7980   68.4190   62.2220 O   0  0  0  0  0  0  0  0  0  0  0  0
    0.9950   67.0030   66.7610 O   0  0  0  0  0  0  0  0  0  0  0  0
   -0.2830   67.5060   66.6610 C   0  0  0  0  0  0  0  0  0  0  0  0
   -1.2460   66.9480   67.5020 C   0  0  0  0  0  0  0  0  0  0  0  0
   -2.5700   67.3860   67.4340 C   0  0  0  0  0  0  0  0  0  0  0  0
   -2.9310   68.3710   66.5140 C   0  0  0  0  0  0  0  0  0  0  0  0
   -1.9720   68.9130   65.6570 C   0  0  0  0  0  0  0  0  0  0  0  0
   -0.6480   68.4760   65.7240 C   0  0  0  0  0  0  0  0  0  0  0  0
    5.0316   70.1340   65.5177 H   0  0  0  0  0  0  0  0  0  0  0  0
    3.7309   70.5841   67.5928 H   0  0  0  0  0  0  0  0  0  0  0  0
    1.8013   69.1200   68.2012 H   0  0  0  0  0  0  0  0  0  0  0  0
    2.5143   66.7175   64.6792 H   0  0  0  0  0  0  0  0  0  0  0  0
    5.3853   67.3571   63.8892 H   0  0  0  0  0  0  0  0  0  0  0  0
    5.7991   69.9169   64.1744 H   0  0  0  0  0  0  0  0  0  0  0  0
    6.3280   69.0816   62.6747 H   0  0  0  0  0  0  0  0  0  0  0  0
    4.8206   70.0584   62.6747 H   0  0  0  0  0  0  0  0  0  0  0  0
   -0.9623   66.1631   68.2186 H   0  0  0  0  0  0  0  0  0  0  0  0
   -3.3277   66.9550   68.1050 H   0  0  0  0  0  0  0  0  0  0  0  0
   -3.9727   68.7208   66.4641 H   0  0  0  0  0  0  0  0  0  0  0  0
   -2.2597   69.6851   64.9282 H   0  0  0  0  0  0  0  0  0  0  0  0
    0.1060   68.8942   65.0409 H   0  0  0  0  0  0  0  0  0  0  0  0
  2  1  2  0
  3  2  1  0
  4  3  2  0
  5  4  1  0
  6  5  2  0
  6  1  1  0
  7  1  1  0
  8  7  1  0
 10  7  1  0
 10  9  1  0
 11 10  2  0
 12  5  1  0
 13 12  1  0
 14 13  2  0
 15 14  1  0
 16 15  2  0
 17 16  1  0
 18 17  2  0
 18 13  1  0
  2 19  1  0
  3 20  1  0
  4 21  1  0
  6 22  1  0
  7 23  1  1
  8 24  1  0
  8 25  1  0
  8 26  1  0
 14 27  1  0
 15 28  1  0
 16 29  1  0
 17 30  1  0
 18 31  1  0
M  CHG  1   9  -1
M  END
>  <score>  (5) 
-9.119

$$$$
=
     RDKit          3D

 31 32  0  0  0  0  0  0  0  0999 V2000
    2.6180   68.6950   64.0840 C   0  0  0  0  0  0  0  0  0  0  0  0
    3.9710   69.0640   64.1510 C   0  0  0  0  0  0  0  0  0  0  0  0
    4.5520   69.4410   65.3650 C   0  0  0  0  0  0  0  0  0  0  0  0
    3.7840   69.4640   66.5280 C   0  0  0  0  0  0  0  0  0  0  0  0
    2.4340   69.1130   66.4710 C   0  0  0  0  0  0  0  0  0  0  0  0
    1.8590   68.7090   65.2650 C   0  0  0  0  0  0  0  0  0  0  0  0
    2.0030   68.3030   62.7500 C   0  0  2  0  0  0  0  0  0  0  0  0
    2.8890   68.7320   61.5820 C   0  0  0  0  0  0  0  0  0  0  0  0
   -0.3700   67.9970   62.7740 O   0  0  0  0  0  1  0  0  0  0  0  0
    0.5610   68.8400   62.6190 C   0  0  0  0  0  0  0  0  0  0  0  0
    0.4740   70.0860   62.4010 O   0  0  0  0  0  0  0  0  0  0  0  0
    1.6420   69.0850   67.5970 O   0  0  0  0  0  0  0  0  0  0  0  0
    0.3830   68.5440   67.4640 C   0  0  0  0  0  0  0  0  0  0  0  0
    0.1330   67.3550   68.1490 C   0  0  0  0  0  0  0  0  0  0  0  0
   -1.1100   66.7320   68.0350 C   0  0  0  0  0  0  0  0  0  0  0  0
   -2.0990   67.2920   67.2250 C   0  0  0  0  0  0  0  0  0  0  0  0
   -1.8420   68.4710   66.5220 C   0  0  0  0  0  0  0  0  0  0  0  0
   -0.5980   69.0950   66.6340 C   0  0  0  0  0  0  0  0  0  0  0  0
    4.5817   69.0563   63.2361 H   0  0  0  0  0  0  0  0  0  0  0  0
    5.6155   69.7196   65.4027 H   0  0  0  0  0  0  0  0  0  0  0  0
    4.2392   69.7571   67.4855 H   0  0  0  0  0  0  0  0  0  0  0  0
    0.8038   68.3994   65.2397 H   0  0  0  0  0  0  0  0  0  0  0  0
    1.9401   67.2053   62.7154 H   0  0  0  0  0  0  0  0  0  0  0  0
    3.8154   69.1806   61.9700 H   0  0  0  0  0  0  0  0  0  0  0  0
    3.1362   67.8538   60.9675 H   0  0  0  0  0  0  0  0  0  0  0  0
    2.3534   69.4706   60.9675 H   0  0  0  0  0  0  0  0  0  0  0  0
    0.9161   66.9084   68.7793 H   0  0  0  0  0  0  0  0  0  0  0  0
   -1.3105   65.7997   68.5833 H   0  0  0  0  0  0  0  0  0  0  0  0
   -3.0814   66.8045   67.1403 H   0  0  0  0  0  0  0  0  0  0  0  0
   -2.6203   68.9084   65.8795 H   0  0  0  0  0  0  0  0  0  0  0  0
   -0.3904   70.0170   66.0711 H   0  0  0  0  0  0  0  0  0  0  0  0
  2  1  2  0
  3  2  1  0
  4  3  2  0
  5  4  1  0
  6  5  2  0
  6  1  1  0
  7  1  1  0
  8  7  1  0
 10  7  1  0
 10  9  1  0
 11 10  2  0
 12  5  1  0
 13 12  1  0
 14 13  2  0
 15 14  1  0
 16 15  2  0
 17 16  1  0
 18 17  2  0
 18 13  1  0
  2 19  1  0
  3 20  1  0
  4 21  1  0
  6 22  1  0
  7 23  1  1
  8 24  1  0
  8 25  1  0
  8 26  1  0
 14 27  1  0
 15 28  1  0
 16 29  1  0
 17 30  1  0
 18 31  1  0
M  CHG  1   9  -1
M  END
>  <score>  (6) 
-9.107

$$$$
=
     RDKit          3D

 31 32  0  0  0  0  0  0  0  0999 V2000
    1.8000   68.1020   66.4620 C   0  0  0  0  0  0  0  0  0  0  0  0
    2.0000   67.0580   65.5460 C   0  0  0  0  0  0  0  0  0  0  0  0
    3.1300   67.0310   64.7240 C   0  0  0  0  0  0  0  0  0  0  0  0
    4.0710   68.0560   64.8000 C   0  0  0  0  0  0  0  0  0  0  0  0
    3.8750   69.1080   65.6970 C   0  0  0  0  0  0  0  0  0  0  0  0
    2.7620   69.1210   66.5380 C   0  0  0  0  0  0  0  0  0  0  0  0
    0.5550   68.1190   67.3350 C   0  0  2  0  0  0  0  0  0  0  0  0
    0.7510   67.2820   68.5980 C   0  0  0  0  0  0  0  0  0  0  0  0
   -1.0530   68.4580   65.5960 O   0  0  0  0  0  1  0  0  0  0  0  0
   -0.6950   67.6900   66.5360 C   0  0  0  0  0  0  0  0  0  0  0  0
   -1.2060   66.5870   66.8970 O   0  0  0  0  0  0  0  0  0  0  0  0
    4.7930   70.1250   65.8350 O   0  0  0  0  0  0  0  0  0  0  0  0
    5.2790   70.3610   67.1010 C   0  0  0  0  0  0  0  0  0  0  0  0
    6.6640   70.4620   67.2350 C   0  0  0  0  0  0  0  0  0  0  0  0
    7.2310   70.6690   68.4930 C   0  0  0  0  0  0  0  0  0  0  0  0
    6.4120   70.7610   69.6190 C   0  0  0  0  0  0  0  0  0  0  0  0
    5.0270   70.6390   69.4890 C   0  0  0  0  0  0  0  0  0  0  0  0
    4.4590   70.4310   68.2310 C   0  0  0  0  0  0  0  0  0  0  0  0
    1.2573   66.2498   65.4739 H   0  0  0  0  0  0  0  0  0  0  0  0
    3.2765   66.2009   64.0173 H   0  0  0  0  0  0  0  0  0  0  0  0
    4.9632   68.0365   64.1569 H   0  0  0  0  0  0  0  0  0  0  0  0
    2.6375   69.9360   67.2661 H   0  0  0  0  0  0  0  0  0  0  0  0
    0.3846   69.1551   67.6628 H   0  0  0  0  0  0  0  0  0  0  0  0
    0.6026   67.9159   69.4847 H   0  0  0  0  0  0  0  0  0  0  0  0
    0.0213   66.4590   68.6093 H   0  0  0  0  0  0  0  0  0  0  0  0
    1.7703   66.8685   68.6093 H   0  0  0  0  0  0  0  0  0  0  0  0
    7.3095   70.3784   66.3482 H   0  0  0  0  0  0  0  0  0  0  0  0
    8.3223   70.7596   68.5970 H   0  0  0  0  0  0  0  0  0  0  0  0
    6.8579   70.9298   70.6103 H   0  0  0  0  0  0  0  0  0  0  0  0
    4.3833   70.7068   70.3784 H   0  0  0  0  0  0  0  0  0  0  0  0
    3.3691   70.3225   68.1291 H   0  0  0  0  0  0  0  0  0  0  0  0
  2  1  2  0
  3  2  1  0
  4  3  2  0
  5  4  1  0
  6  5  2  0
  6  1  1  0
  7  1  1  0
  8  7  1  0
 10  7  1  0
 10  9  1  0
 11 10  2  0
 12  5  1  0
 13 12  1  0
 14 13  2  0
 15 14  1  0
 16 15  2  0
 17 16  1  0
 18 17  2  0
 18 13  1  0
  2 19  1  0
  3 20  1  0
  4 21  1  0
  6 22  1  0
  7 23  1  1
  8 24  1  0
  8 25  1  0
  8 26  1  0
 14 27  1  0
 15 28  1  0
 16 29  1  0
 17 30  1  0
 18 31  1  0
M  CHG  1   9  -1
M  END
>  <score>  (7) 
-9.047

$$$$
=
     RDKit          3D

 31 32  0  0  0  0  0  0  0  0999 V2000
    4.6670   69.9330   66.5280 C   0  0  0  0  0  0  0  0  0  0  0  0
    4.5160   69.2770   65.2970 C   0  0  0  0  0  0  0  0  0  0  0  0
    3.3340   68.6020   64.9840 C   0  0  0  0  0  0  0  0  0  0  0  0
    2.2880   68.5650   65.9050 C   0  0  0  0  0  0  0  0  0  0  0  0
    2.4330   69.2020   67.1390 C   0  0  0  0  0  0  0  0  0  0  0  0
    3.6020   69.9000   67.4420 C   0  0  0  0  0  0  0  0  0  0  0  0
    5.9690   70.6480   66.8530 C   0  0  2  0  0  0  0  0  0  0  0  0
    7.1630   69.6970   66.7680 C   0  0  0  0  0  0  0  0  0  0  0  0
    6.0220   70.6380   69.2450 O   0  0  0  0  0  1  0  0  0  0  0  0
    5.8890   71.3650   68.2190 C   0  0  0  0  0  0  0  0  0  0  0  0
    5.7310   72.6220   68.1520 O   0  0  0  0  0  0  0  0  0  0  0  0
    1.4170   69.2240   68.0680 O   0  0  0  0  0  0  0  0  0  0  0  0
    0.2450   68.5860   67.7290 C   0  0  0  0  0  0  0  0  0  0  0  0
   -0.6460   69.2920   66.9200 C   0  0  0  0  0  0  0  0  0  0  0  0
   -1.8680   68.7210   66.5620 C   0  0  0  0  0  0  0  0  0  0  0  0
   -2.2040   67.4480   67.0260 C   0  0  0  0  0  0  0  0  0  0  0  0
   -1.3220   66.7500   67.8540 C   0  0  0  0  0  0  0  0  0  0  0  0
   -0.1000   67.3210   68.2130 C   0  0  0  0  0  0  0  0  0  0  0  0
    5.3399   69.2945   64.5684 H   0  0  0  0  0  0  0  0  0  0  0  0
    3.2284   68.0997   64.0111 H   0  0  0  0  0  0  0  0  0  0  0  0
    1.3542   68.0372   65.6610 H   0  0  0  0  0  0  0  0  0  0  0  0
    3.6899   70.4279   68.4031 H   0  0  0  0  0  0  0  0  0  0  0  0
    6.1264   71.4260   66.0914 H   0  0  0  0  0  0  0  0  0  0  0  0
    7.4945   69.4330   67.7831 H   0  0  0  0  0  0  0  0  0  0  0  0
    6.8673   68.7843   66.2299 H   0  0  0  0  0  0  0  0  0  0  0  0
    7.9864   70.1894   66.2299 H   0  0  0  0  0  0  0  0  0  0  0  0
   -0.3850   70.2996   66.5641 H   0  0  0  0  0  0  0  0  0  0  0  0
   -2.5655   69.2733   65.9151 H   0  0  0  0  0  0  0  0  0  0  0  0
   -3.1642   66.9943   66.7393 H   0  0  0  0  0  0  0  0  0  0  0  0
   -1.5906   65.7494   68.2235 H   0  0  0  0  0  0  0  0  0  0  0  0
    0.5897   66.7769   68.8751 H   0  0  0  0  0  0  0  0  0  0  0  0
  2  1  2  0
  3  2  1  0
  4  3  2  0
  5  4  1  0
  6  5  2  0
  6  1  1  0
  7  1  1  0
  8  7  1  0
 10  7  1  0
 10  9  1  0
 11 10  2  0
 12  5  1  0
 13 12  1  0
 14 13  2  0
 15 14  1  0
 16 15  2  0
 17 16  1  0
 18 17  2  0
 18 13  1  0
  2 19  1  0
  3 20  1  0
  4 21  1  0
  6 22  1  0
  7 23  1  6
  8 24  1  0
  8 25  1  0
  8 26  1  0
 14 27  1  0
 15 28  1  0
 16 29  1  0
 17 30  1  0
 18 31  1  0
M  CHG  1   9  -1
M  END
>  <score>  (8) 
-8.976

$$$$
=
     RDKit          3D

 31 32  0  0  0  0  0  0  0  0999 V2000
    2.3190   69.3850   67.1280 C   0  0  0  0  0  0  0  0  0  0  0  0
    2.6210   70.0030   68.3510 C   0  0  0  0  0  0  0  0  0  0  0  0
    3.9260   70.4080   68.6480 C   0  0  0  0  0  0  0  0  0  0  0  0
    4.9490   70.1900   67.7270 C   0  0  0  0  0  0  0  0  0  0  0  0
    4.6630   69.5620   66.5130 C   0  0  0  0  0  0  0  0  0  0  0  0
    3.3560   69.1830   66.2040 C   0  0  0  0  0  0  0  0  0  0  0  0
    0.8960   68.9390   66.8340 C   0  0  2  0  0  0  0  0  0  0  0  0
   -0.1190   69.7490   67.6390 C   0  0  0  0  0  0  0  0  0  0  0  0
    1.2360   66.9380   68.1010 O   0  0  0  0  0  1  0  0  0  0  0  0
    0.7300   67.4170   67.0450 C   0  0  0  0  0  0  0  0  0  0  0  0
    0.0700   66.8220   66.1410 O   0  0  0  0  0  0  0  0  0  0  0  0
    5.6310   69.3560   65.5560 O   0  0  0  0  0  0  0  0  0  0  0  0
    5.2510   68.6870   64.4150 C   0  0  0  0  0  0  0  0  0  0  0  0
    5.1360   69.4460   63.2490 C   0  0  0  0  0  0  0  0  0  0  0  0
    4.7240   68.8410   62.0610 C   0  0  0  0  0  0  0  0  0  0  0  0
    4.4130   67.4810   62.0420 C   0  0  0  0  0  0  0  0  0  0  0  0
    4.5060   66.7260   63.2130 C   0  0  0  0  0  0  0  0  0  0  0  0
    4.9180   67.3300   64.4030 C   0  0  0  0  0  0  0  0  0  0  0  0
    1.8202   70.1712   69.0862 H   0  0  0  0  0  0  0  0  0  0  0  0
    4.1450   70.8984   69.6080 H   0  0  0  0  0  0  0  0  0  0  0  0
    5.9761   70.5109   67.9551 H   0  0  0  0  0  0  0  0  0  0  0  0
    3.1369   68.7226   65.2293 H   0  0  0  0  0  0  0  0  0  0  0  0
    0.6921   69.1389   65.7717 H   0  0  0  0  0  0  0  0  0  0  0  0
    0.0645   69.6026   68.7137 H   0  0  0  0  0  0  0  0  0  0  0  0
   -0.0159   70.8158   67.3915 H   0  0  0  0  0  0  0  0  0  0  0  0
   -1.1364   69.4118   67.3915 H   0  0  0  0  0  0  0  0  0  0  0  0
    5.3701   70.5207   63.2667 H   0  0  0  0  0  0  0  0  0  0  0  0
    4.6444   69.4363   61.1394 H   0  0  0  0  0  0  0  0  0  0  0  0
    4.0943   67.0032   61.1039 H   0  0  0  0  0  0  0  0  0  0  0  0
    4.2547   65.6552   63.1982 H   0  0  0  0  0  0  0  0  0  0  0  0
    4.9802   66.7389   65.3286 H   0  0  0  0  0  0  0  0  0  0  0  0
  2  1  2  0
  3  2  1  0
  4  3  2  0
  5  4  1  0
  6  5  2  0
  6  1  1  0
  7  1  1  0
  8  7  1  0
 10  7  1  0
 10  9  1  0
 11 10  2  0
 12  5  1  0
 13 12  1  0
 14 13  2  0
 15 14  1  0
 16 15  2  0
 17 16  1  0
 18 17  2  0
 18 13  1  0
  2 19  1  0
  3 20  1  0
  4 21  1  0
  6 22  1  0
  7 23  1  6
  8 24  1  0
  8 25  1  0
  8 26  1  0
 14 27  1  0
 15 28  1  0
 16 29  1  0
 17 30  1  0
 18 31  1  0
M  CHG  1   9  -1
M  END
>  <score>  (9) 
-8.865

$$$$
