=
     RDKit          3D

 67 71  0  0  0  0  0  0  0  0999 V2000
    0.2960   65.4160   70.6530 C   0  0  0  0  0  0  0  0  0  0  0  0
    0.7770   64.1670   70.6080 C   0  0  0  0  0  0  0  0  0  0  0  0
    0.8210   63.3870   71.8090 C   0  0  0  0  0  0  0  0  0  0  0  0
    1.3000   62.1220   71.6360 O   0  0  0  0  0  0  0  0  0  0  0  0
    1.2420   61.1790   72.7470 C   0  0  2  0  0  0  0  0  0  0  0  0
    2.3820   60.2170   72.3530 C   0  0  0  0  0  0  0  0  0  0  0  0
   -0.1200   60.4590   72.6500 C   0  0  0  0  0  0  0  0  0  0  0  0
   -0.7910   60.1380   73.9890 C   0  0  0  0  0  0  0  0  0  0  0  0
    0.1740   59.7040   75.1120 C   0  0  1  0  0  0  0  0  0  0  0  0
    1.2680   60.8390   75.4220 C   0  0  2  0  0  0  0  0  0  0  0  0
    1.4370   61.8630   74.1540 C   0  0  2  0  0  0  0  0  0  0  0  0
    0.4930   63.1080   74.2430 C   0  0  0  0  0  0  0  0  0  0  0  0
    0.4140   63.8870   72.9760 C   0  0  0  0  0  0  0  0  0  0  0  0
   -0.1150   65.2660   73.0340 C   0  0  0  0  0  0  0  0  0  0  0  0
   -0.5100   65.7390   74.0970 O   0  0  0  0  0  0  0  0  0  0  0  0
   -0.1530   65.9810   71.8720 O   0  0  0  0  0  0  0  0  0  0  0  0
    2.6710   60.2190   75.7370 C   0  0  0  0  0  0  0  0  0  0  0  0
    0.8860   61.6760   76.6810 C   0  0  0  0  0  0  0  0  0  0  0  0
    0.8880   61.0430   78.0710 C   0  0  0  0  0  0  0  0  0  0  0  0
    0.9320   59.5550   78.2520 C   0  0  0  0  0  0  0  0  0  0  0  0
    1.5770   59.0620   79.1740 O   0  0  0  0  0  0  0  0  0  0  0  0
    0.2430   58.7590   77.4240 O   0  0  0  0  0  0  0  0  0  0  0  0
   -0.6560   59.1240   76.3430 C   0  0  0  0  0  0  0  0  0  0  0  0
   -1.8420   59.9630   76.8560 C   0  0  0  0  0  0  0  0  0  0  0  0
   -1.2890   57.7440   75.9900 C   0  0  0  0  0  0  0  0  0  0  0  0
    0.0740   68.0700   67.2720 C   0  0  0  0  0  0  0  0  0  0  0  0
   -1.0080   67.2530   67.5980 C   0  0  0  0  0  0  0  0  0  0  0  0
   -0.9460   66.3850   68.6940 C   0  0  0  0  0  0  0  0  0  0  0  0
    0.2080   66.3130   69.4850 C   0  0  0  0  0  0  0  0  0  0  0  0
    1.2870   67.1450   69.1540 C   0  0  0  0  0  0  0  0  0  0  0  0
    1.2250   68.0150   68.0560 C   0  0  0  0  0  0  0  0  0  0  0  0
   -1.4210   68.8660   65.6060 C   0  0  0  0  0  0  0  0  0  0  0  0
   -0.1200   68.8680   66.1790 O   0  0  0  0  0  0  0  0  0  0  0  0
    2.7790   62.4150   74.1930 O   0  0  0  0  0  0  0  0  0  0  0  0
    0.8920   58.5870   74.5430 O   0  0  0  0  0  0  0  0  0  0  0  0
    1.1350   63.7439   69.6578 H   0  0  0  0  0  0  0  0  0  0  0  0
    2.8553   59.8176   73.2621 H   0  0  0  0  0  0  0  0  0  0  0  0
    1.9725   59.3874   71.7580 H   0  0  0  0  0  0  0  0  0  0  0  0
    3.1310   60.7602   71.7580 H   0  0  0  0  0  0  0  0  0  0  0  0
   -0.8027   61.1007   72.0737 H   0  0  0  0  0  0  0  0  0  0  0  0
    0.0836   59.4889   72.1731 H   0  0  0  0  0  0  0  0  0  0  0  0
   -1.3263   61.0375   74.3272 H   0  0  0  0  0  0  0  0  0  0  0  0
   -1.4543   59.2802   73.8038 H   0  0  0  0  0  0  0  0  0  0  0  0
   -0.5181   62.7602   74.5012 H   0  0  0  0  0  0  0  0  0  0  0  0
    0.9127   63.7776   75.0082 H   0  0  0  0  0  0  0  0  0  0  0  0
    2.8087   60.1582   76.8266 H   0  0  0  0  0  0  0  0  0  0  0  0
    2.7319   59.2102   75.3028 H   0  0  0  0  0  0  0  0  0  0  0  0
    3.4580   60.8532   75.3028 H   0  0  0  0  0  0  0  0  0  0  0  0
    1.5883   62.5217   76.7204 H   0  0  0  0  0  0  0  0  0  0  0  0
   -0.1789   61.8955   76.5143 H   0  0  0  0  0  0  0  0  0  0  0  0
    1.7674   61.4459   78.5947 H   0  0  0  0  0  0  0  0  0  0  0  0
   -0.1125   61.2988   78.4498 H   0  0  0  0  0  0  0  0  0  0  0  0
   -1.8423   59.9632   77.9560 H   0  0  0  0  0  0  0  0  0  0  0  0
   -1.7465   60.9956   76.4891 H   0  0  0  0  0  0  0  0  0  0  0  0
   -2.7839   59.5292   76.4891 H   0  0  0  0  0  0  0  0  0  0  0  0
   -1.5358   57.2059   76.9171 H   0  0  0  0  0  0  0  0  0  0  0  0
   -2.2053   57.9006   75.4019 H   0  0  0  0  0  0  0  0  0  0  0  0
   -0.5726   57.1517   75.4019 H   0  0  0  0  0  0  0  0  0  0  0  0
   -1.9214   67.2912   66.9862 H   0  0  0  0  0  0  0  0  0  0  0  0
   -1.8126   65.7526   68.9370 H   0  0  0  0  0  0  0  0  0  0  0  0
    2.1996   67.1147   69.7674 H   0  0  0  0  0  0  0  0  0  0  0  0
    2.0860   68.6550   67.8131 H   0  0  0  0  0  0  0  0  0  0  0  0
   -2.1746   68.8648   66.4073 H   0  0  0  0  0  0  0  0  0  0  0  0
   -1.5489   69.7639   64.9837 H   0  0  0  0  0  0  0  0  0  0  0  0
   -1.5462   67.9677   64.9837 H   0  0  0  0  0  0  0  0  0  0  0  0
    3.0609   62.5309   75.1349 H   0  0  0  0  0  0  0  0  0  0  0  0
    1.2548   58.0226   75.2710 H   0  0  0  0  0  0  0  0  0  0  0  0
  2  1  2  0
  3  2  1  0
  4  3  1  0
  5  4  1  0
  5  6  1  6
  7  5  1  0
  8  7  1  0
  9  8  1  0
 10  9  1  0
 11 10  1  0
 11  5  1  0
 12 11  1  0
 13 12  1  0
 13  3  2  0
 14 13  1  0
 15 14  2  0
 16 14  1  0
 16  1  1  0
 10 17  1  1
 18 10  1  0
 19 18  1  0
 20 19  1  0
 21 20  2  0
 22 20  1  0
 23  9  1  0
 23 22  1  0
 24 23  1  0
 25 23  1  0
 27 26  2  0
 28 27  1  0
 29 28  2  0
 29  1  1  0
 30 29  1  0
 31 30  2  0
 31 26  1  0
 33 32  1  0
 33 26  1  0
 11 34  1  6
  9 35  1  6
  2 36  1  0
  6 37  1  0
  6 38  1  0
  6 39  1  0
  7 40  1  0
  7 41  1  0
  8 42  1  0
  8 43  1  0
 12 44  1  0
 12 45  1  0
 17 46  1  0
 17 47  1  0
 17 48  1  0
 18 49  1  0
 18 50  1  0
 19 51  1  0
 19 52  1  0
 24 53  1  0
 24 54  1  0
 24 55  1  0
 25 56  1  0
 25 57  1  0
 25 58  1  0
 27 59  1  0
 28 60  1  0
 30 61  1  0
 31 62  1  0
 32 63  1  0
 32 64  1  0
 32 65  1  0
 34 66  1  0
 35 67  1  0
M  END
>  <score>  (1) 
-9.592

$$$$
=
     RDKit          3D

 67 71  0  0  0  0  0  0  0  0999 V2000
    0.6410   64.6220   70.4770 C   0  0  0  0  0  0  0  0  0  0  0  0
    0.0690   64.4440   71.6750 C   0  0  0  0  0  0  0  0  0  0  0  0
    0.2630   63.2070   72.3710 C   0  0  0  0  0  0  0  0  0  0  0  0
   -0.3390   63.1530   73.5930 O   0  0  0  0  0  0  0  0  0  0  0  0
   -0.0810   62.0130   74.4650 C   0  0  2  0  0  0  0  0  0  0  0  0
   -1.3540   62.0380   75.3370 C   0  0  0  0  0  0  0  0  0  0  0  0
    1.1550   62.3760   75.3170 C   0  0  0  0  0  0  0  0  0  0  0  0
    2.1100   61.2160   75.6160 C   0  0  0  0  0  0  0  0  0  0  0  0
    1.4220   59.8610   75.8850 C   0  0  1  0  0  0  0  0  0  0  0  0
    0.5310   59.3920   74.6330 C   0  0  2  0  0  0  0  0  0  0  0  0
    0.1320   60.6630   73.6790 C   0  0  2  0  0  0  0  0  0  0  0  0
    1.1620   60.9100   72.5270 C   0  0  0  0  0  0  0  0  0  0  0  0
    0.9840   62.2200   71.8400 C   0  0  0  0  0  0  0  0  0  0  0  0
    1.6160   62.4060   70.5170 C   0  0  0  0  0  0  0  0  0  0  0  0
    2.2970   61.5140   70.0180 O   0  0  0  0  0  0  0  0  0  0  0  0
    1.4200   63.6000   69.8830 O   0  0  0  0  0  0  0  0  0  0  0  0
   -0.7940   58.6960   75.0960 C   0  0  0  0  0  0  0  0  0  0  0  0
    1.2760   58.3380   73.7600 C   0  0  0  0  0  0  0  0  0  0  0  0
    1.5700   56.9400   74.3010 C   0  0  0  0  0  0  0  0  0  0  0  0
    1.4570   56.6290   75.7640 C   0  0  0  0  0  0  0  0  0  0  0  0
    1.0240   55.5410   76.1350 O   0  0  0  0  0  0  0  0  0  0  0  0
    1.8560   57.5290   76.6720 O   0  0  0  0  0  0  0  0  0  0  0  0
    2.4840   58.8220   76.4630 C   0  0  0  0  0  0  0  0  0  0  0  0
    3.8210   58.6830   75.7120 C   0  0  0  0  0  0  0  0  0  0  0  0
    2.9010   59.2010   77.9170 C   0  0  0  0  0  0  0  0  0  0  0  0
    0.2810   68.2270   68.1540 C   0  0  0  0  0  0  0  0  0  0  0  0
   -0.7630   67.3010   68.1850 C   0  0  0  0  0  0  0  0  0  0  0  0
   -0.6560   66.1250   68.9360 C   0  0  0  0  0  0  0  0  0  0  0  0
    0.5060   65.8480   69.6680 C   0  0  0  0  0  0  0  0  0  0  0  0
    1.5460   66.7890   69.6370 C   0  0  0  0  0  0  0  0  0  0  0  0
    1.4370   67.9680   68.8850 C   0  0  0  0  0  0  0  0  0  0  0  0
   -1.1310   69.3140   66.5810 C   0  0  0  0  0  0  0  0  0  0  0  0
    0.0440   69.3310   67.3820 O   0  0  0  0  0  0  0  0  0  0  0  0
   -1.1120   60.3470   73.0000 O   0  0  0  0  0  0  0  0  0  0  0  0
    0.5020   60.1440   76.9620 O   0  0  0  0  0  0  0  0  0  0  0  0
   -0.5445   65.2409   72.1206 H   0  0  0  0  0  0  0  0  0  0  0  0
   -1.0706   62.0324   76.3998 H   0  0  0  0  0  0  0  0  0  0  0  0
   -1.9318   62.9477   75.1164 H   0  0  0  0  0  0  0  0  0  0  0  0
   -1.9670   61.1517   75.1164 H   0  0  0  0  0  0  0  0  0  0  0  0
    1.7209   63.1520   74.7808 H   0  0  0  0  0  0  0  0  0  0  0  0
    0.7654   62.7069   76.2910 H   0  0  0  0  0  0  0  0  0  0  0  0
    2.7799   61.0936   74.7522 H   0  0  0  0  0  0  0  0  0  0  0  0
    2.6390   61.4829   76.5428 H   0  0  0  0  0  0  0  0  0  0  0  0
    2.1755   60.8754   72.9531 H   0  0  0  0  0  0  0  0  0  0  0  0
    0.9985   60.1253   71.7737 H   0  0  0  0  0  0  0  0  0  0  0  0
   -0.8328   58.6756   76.1951 H   0  0  0  0  0  0  0  0  0  0  0  0
   -1.6574   59.2570   74.7090 H   0  0  0  0  0  0  0  0  0  0  0  0
   -0.8221   57.6667   74.7090 H   0  0  0  0  0  0  0  0  0  0  0  0
    0.6728   58.2017   72.8503 H   0  0  0  0  0  0  0  0  0  0  0  0
    2.2801   58.7747   73.6548 H   0  0  0  0  0  0  0  0  0  0  0  0
    0.8819   56.2553   73.7835 H   0  0  0  0  0  0  0  0  0  0  0  0
    2.6499   56.8368   74.1187 H   0  0  0  0  0  0  0  0  0  0  0  0
    4.6425   58.5976   76.4385 H   0  0  0  0  0  0  0  0  0  0  0  0
    3.7950   57.7827   75.0805 H   0  0  0  0  0  0  0  0  0  0  0  0
    3.9807   59.5694   75.0805 H   0  0  0  0  0  0  0  0  0  0  0  0
    2.2834   58.6397   78.6337 H   0  0  0  0  0  0  0  0  0  0  0  0
    3.9609   58.9507   78.0715 H   0  0  0  0  0  0  0  0  0  0  0  0
    2.7528   60.2800   78.0715 H   0  0  0  0  0  0  0  0  0  0  0  0
   -1.6811   67.4981   67.6121 H   0  0  0  0  0  0  0  0  0  0  0  0
   -1.4926   65.4110   68.9517 H   0  0  0  0  0  0  0  0  0  0  0  0
    2.4637   66.5988   70.2129 H   0  0  0  0  0  0  0  0  0  0  0  0
    2.2670   68.6897   68.8729 H   0  0  0  0  0  0  0  0  0  0  0  0
   -2.0180   69.3012   67.2314 H   0  0  0  0  0  0  0  0  0  0  0  0
   -1.1549   70.2119   65.9460 H   0  0  0  0  0  0  0  0  0  0  0  0
   -1.1289   68.4158   65.9460 H   0  0  0  0  0  0  0  0  0  0  0  0
   -1.8177   60.1677   73.6707 H   0  0  0  0  0  0  0  0  0  0  0  0
    0.9570   60.0040   77.8300 H   0  0  0  0  0  0  0  0  0  0  0  0
  2  1  2  0
  3  2  1  0
  4  3  1  0
  5  4  1  0
  5  6  1  1
  7  5  1  0
  8  7  1  0
  9  8  1  0
 10  9  1  0
 11 10  1  0
 11  5  1  0
 12 11  1  0
 13 12  1  0
 13  3  2  0
 14 13  1  0
 15 14  2  0
 16 14  1  0
 16  1  1  0
 10 17  1  1
 18 10  1  0
 19 18  1  0
 20 19  1  0
 21 20  2  0
 22 20  1  0
 23  9  1  0
 23 22  1  0
 24 23  1  0
 25 23  1  0
 27 26  2  0
 28 27  1  0
 29 28  2  0
 29  1  1  0
 30 29  1  0
 31 30  2  0
 31 26  1  0
 33 32  1  0
 33 26  1  0
 11 34  1  6
  9 35  1  1
  2 36  1  0
  6 37  1  0
  6 38  1  0
  6 39  1  0
  7 40  1  0
  7 41  1  0
  8 42  1  0
  8 43  1  0
 12 44  1  0
 12 45  1  0
 17 46  1  0
 17 47  1  0
 17 48  1  0
 18 49  1  0
 18 50  1  0
 19 51  1  0
 19 52  1  0
 24 53  1  0
 24 54  1  0
 24 55  1  0
 25 56  1  0
 25 57  1  0
 25 58  1  0
 27 59  1  0
 28 60  1  0
 30 61  1  0
 31 62  1  0
 32 63  1  0
 32 64  1  0
 32 65  1  0
 34 66  1  0
 35 67  1  0
M  END
>  <score>  (2) 
-9.107

$$$$
=
     RDKit          3D

 67 71  0  0  0  0  0  0  0  0999 V2000
    0.5780   63.2800   71.5720 C   0  0  0  0  0  0  0  0  0  0  0  0
    1.6500   62.5730   71.9530 C   0  0  0  0  0  0  0  0  0  0  0  0
    1.4710   61.4020   72.7580 C   0  0  0  0  0  0  0  0  0  0  0  0
    2.6290   60.7470   73.0570 O   0  0  0  0  0  0  0  0  0  0  0  0
    2.5640   59.4550   73.7310 C   0  0  2  0  0  0  0  0  0  0  0  0
    3.9540   59.4230   74.4010 C   0  0  0  0  0  0  0  0  0  0  0  0
    2.4790   58.3800   72.6260 C   0  0  0  0  0  0  0  0  0  0  0  0
    1.5880   57.1760   72.9480 C   0  0  0  0  0  0  0  0  0  0  0  0
    1.6460   56.6990   74.4140 C   0  0  1  0  0  0  0  0  0  0  0  0
    1.2060   57.8620   75.4310 C   0  0  2  0  0  0  0  0  0  0  0  0
    1.3620   59.3420   74.7440 C   0  0  2  0  0  0  0  0  0  0  0  0
    0.0550   59.8230   74.0290 C   0  0  0  0  0  0  0  0  0  0  0  0
    0.2590   61.0130   73.1560 C   0  0  0  0  0  0  0  0  0  0  0  0
   -0.9290   61.7890   72.7430 C   0  0  0  0  0  0  0  0  0  0  0  0
   -2.0550   61.4380   73.0860 O   0  0  0  0  0  0  0  0  0  0  0  0
   -0.7270   62.8950   71.9680 O   0  0  0  0  0  0  0  0  0  0  0  0
    2.0660   57.8410   76.7400 C   0  0  0  0  0  0  0  0  0  0  0  0
   -0.2710   57.6900   75.8970 C   0  0  0  0  0  0  0  0  0  0  0  0
   -0.6810   56.5150   76.7840 C   0  0  0  0  0  0  0  0  0  0  0  0
    0.2160   55.3280   76.9710 C   0  0  0  0  0  0  0  0  0  0  0  0
    0.2870   54.7710   78.0640 O   0  0  0  0  0  0  0  0  0  0  0  0
    0.9240   54.8540   75.9370 O   0  0  0  0  0  0  0  0  0  0  0  0
    0.9180   55.2870   74.5500 C   0  0  0  0  0  0  0  0  0  0  0  0
   -0.4820   55.1470   73.9230 C   0  0  0  0  0  0  0  0  0  0  0  0
    1.7550   54.1590   73.8730 C   0  0  0  0  0  0  0  0  0  0  0  0
    0.7200   66.8260   69.1380 C   0  0  0  0  0  0  0  0  0  0  0  0
    1.8590   66.3890   69.8130 C   0  0  0  0  0  0  0  0  0  0  0  0
    1.8240   65.2380   70.6090 C   0  0  0  0  0  0  0  0  0  0  0  0
    0.6400   64.5030   70.7500 C   0  0  0  0  0  0  0  0  0  0  0  0
   -0.4980   64.9450   70.0590 C   0  0  0  0  0  0  0  0  0  0  0  0
   -0.4610   66.0980   69.2610 C   0  0  0  0  0  0  0  0  0  0  0  0
   -0.0590   68.2100   67.3700 C   0  0  0  0  0  0  0  0  0  0  0  0
    0.8940   67.9620   68.3970 O   0  0  0  0  0  0  0  0  0  0  0  0
    1.5830   60.3110   75.8020 O   0  0  0  0  0  0  0  0  0  0  0  0
    3.0500   56.4570   74.6480 O   0  0  0  0  0  0  0  0  0  0  0  0
    2.6592   62.8891   71.6502 H   0  0  0  0  0  0  0  0  0  0  0  0
    3.8341   59.4258   75.4944 H   0  0  0  0  0  0  0  0  0  0  0  0
    4.4886   58.5123   74.0930 H   0  0  0  0  0  0  0  0  0  0  0  0
    4.5299   60.3081   74.0930 H   0  0  0  0  0  0  0  0  0  0  0  0
    2.0872   58.8585   71.7163 H   0  0  0  0  0  0  0  0  0  0  0  0
    3.4978   57.9813   72.5119 H   0  0  0  0  0  0  0  0  0  0  0  0
    0.5476   57.4497   72.7186 H   0  0  0  0  0  0  0  0  0  0  0  0
    1.9635   56.3420   72.3370 H   0  0  0  0  0  0  0  0  0  0  0  0
   -0.3268   58.9981   73.4096 H   0  0  0  0  0  0  0  0  0  0  0  0
   -0.6551   60.1168   74.8160 H   0  0  0  0  0  0  0  0  0  0  0  0
    1.4009   57.8572   77.6160 H   0  0  0  0  0  0  0  0  0  0  0  0
    2.6786   56.9276   76.7616 H   0  0  0  0  0  0  0  0  0  0  0  0
    2.7225   58.7234   76.7616 H   0  0  0  0  0  0  0  0  0  0  0  0
   -0.5347   58.6052   76.4474 H   0  0  0  0  0  0  0  0  0  0  0  0
   -0.8006   57.4811   74.9558 H   0  0  0  0  0  0  0  0  0  0  0  0
   -0.8605   56.9301   77.7867 H   0  0  0  0  0  0  0  0  0  0  0  0
   -1.5311   56.0863   76.2330 H   0  0  0  0  0  0  0  0  0  0  0  0
   -1.2353   55.0717   74.7210 H   0  0  0  0  0  0  0  0  0  0  0  0
   -0.6946   56.0284   73.3001 H   0  0  0  0  0  0  0  0  0  0  0  0
   -0.5159   54.2410   73.3001 H   0  0  0  0  0  0  0  0  0  0  0  0
    2.2201   53.5321   74.6480 H   0  0  0  0  0  0  0  0  0  0  0  0
    1.0964   53.5394   73.2467 H   0  0  0  0  0  0  0  0  0  0  0  0
    2.5389   54.6097   73.2467 H   0  0  0  0  0  0  0  0  0  0  0  0
    2.7970   66.9558   69.7189 H   0  0  0  0  0  0  0  0  0  0  0  0
    2.7353   64.9075   71.1289 H   0  0  0  0  0  0  0  0  0  0  0  0
   -1.4362   64.3772   70.1445 H   0  0  0  0  0  0  0  0  0  0  0  0
   -1.3668   66.4280   68.7312 H   0  0  0  0  0  0  0  0  0  0  0  0
   -1.0290   68.4624   67.8231 H   0  0  0  0  0  0  0  0  0  0  0  0
    0.2838   69.0488   66.7465 H   0  0  0  0  0  0  0  0  0  0  0  0
   -0.1686   67.3105   66.7465 H   0  0  0  0  0  0  0  0  0  0  0  0
    1.4820   59.8680   76.6816 H   0  0  0  0  0  0  0  0  0  0  0  0
    3.2218   56.4274   75.6225 H   0  0  0  0  0  0  0  0  0  0  0  0
  2  1  2  0
  3  2  1  0
  4  3  1  0
  5  4  1  0
  5  6  1  1
  7  5  1  0
  8  7  1  0
  9  8  1  0
 10  9  1  0
 11 10  1  0
 11  5  1  0
 12 11  1  0
 13 12  1  0
 13  3  2  0
 14 13  1  0
 15 14  2  0
 16 14  1  0
 16  1  1  0
 10 17  1  1
 18 10  1  0
 19 18  1  0
 20 19  1  0
 21 20  2  0
 22 20  1  0
 23  9  1  0
 23 22  1  0
 24 23  1  0
 25 23  1  0
 27 26  2  0
 28 27  1  0
 29 28  2  0
 29  1  1  0
 30 29  1  0
 31 30  2  0
 31 26  1  0
 33 32  1  0
 33 26  1  0
 11 34  1  1
  9 35  1  1
  2 36  1  0
  6 37  1  0
  6 38  1  0
  6 39  1  0
  7 40  1  0
  7 41  1  0
  8 42  1  0
  8 43  1  0
 12 44  1  0
 12 45  1  0
 17 46  1  0
 17 47  1  0
 17 48  1  0
 18 49  1  0
 18 50  1  0
 19 51  1  0
 19 52  1  0
 24 53  1  0
 24 54  1  0
 24 55  1  0
 25 56  1  0
 25 57  1  0
 25 58  1  0
 27 59  1  0
 28 60  1  0
 30 61  1  0
 31 62  1  0
 32 63  1  0
 32 64  1  0
 32 65  1  0
 34 66  1  0
 35 67  1  0
M  END
>  <score>  (3) 
-9.084

$$$$
=
     RDKit          3D

 67 71  0  0  0  0  0  0  0  0999 V2000
    1.2520   61.5140   72.3030 C   0  0  0  0  0  0  0  0  0  0  0  0
    0.1780   61.0760   72.9730 C   0  0  0  0  0  0  0  0  0  0  0  0
    0.2180   59.7900   73.6020 C   0  0  0  0  0  0  0  0  0  0  0  0
   -0.9190   59.4650   74.2810 O   0  0  0  0  0  0  0  0  0  0  0  0
   -0.9420   58.2560   75.0970 C   0  0  2  0  0  0  0  0  0  0  0  0
   -2.4570   57.9640   75.1160 C   0  0  0  0  0  0  0  0  0  0  0  0
   -0.4580   58.6610   76.5050 C   0  0  0  0  0  0  0  0  0  0  0  0
    0.4010   57.6190   77.2290 C   0  0  0  0  0  0  0  0  0  0  0  0
   -0.0310   56.1540   77.0100 C   0  0  1  0  0  0  0  0  0  0  0  0
    0.0050   55.7560   75.4530 C   0  0  2  0  0  0  0  0  0  0  0  0
   -0.0720   57.0860   74.4980 C   0  0  2  0  0  0  0  0  0  0  0  0
    1.3390   57.6500   74.1240 C   0  0  0  0  0  0  0  0  0  0  0  0
    1.2940   59.0080   73.5140 C   0  0  0  0  0  0  0  0  0  0  0  0
    2.4830   59.4820   72.7730 C   0  0  0  0  0  0  0  0  0  0  0  0
    3.4900   58.7840   72.6950 O   0  0  0  0  0  0  0  0  0  0  0  0
    2.4170   60.7170   72.1930 O   0  0  0  0  0  0  0  0  0  0  0  0
   -1.1870   54.8140   75.0710 C   0  0  0  0  0  0  0  0  0  0  0  0
    1.2970   54.9650   75.0910 C   0  0  0  0  0  0  0  0  0  0  0  0
    1.5340   53.5580   75.6390 C   0  0  0  0  0  0  0  0  0  0  0  0
    0.7220   53.0170   76.7790 C   0  0  0  0  0  0  0  0  0  0  0  0
    0.3910   51.8340   76.7960 O   0  0  0  0  0  0  0  0  0  0  0  0
    0.3790   53.8180   77.7960 O   0  0  0  0  0  0  0  0  0  0  0  0
    0.7430   55.2050   78.0310 C   0  0  0  0  0  0  0  0  0  0  0  0
    2.2690   55.3760   78.1400 C   0  0  0  0  0  0  0  0  0  0  0  0
    0.2290   55.4160   79.4880 C   0  0  0  0  0  0  0  0  0  0  0  0
    1.5210   65.3130   70.2990 C   0  0  0  0  0  0  0  0  0  0  0  0
    0.3500   64.9490   70.9650 C   0  0  0  0  0  0  0  0  0  0  0  0
    0.2520   63.7160   71.6190 C   0  0  0  0  0  0  0  0  0  0  0  0
    1.3240   62.8160   71.6120 C   0  0  0  0  0  0  0  0  0  0  0  0
    2.5000   63.1950   70.9470 C   0  0  0  0  0  0  0  0  0  0  0  0
    2.5990   64.4310   70.2930 C   0  0  0  0  0  0  0  0  0  0  0  0
    0.3180   66.8540   68.9470 C   0  0  0  0  0  0  0  0  0  0  0  0
    1.4820   66.5440   69.7040 O   0  0  0  0  0  0  0  0  0  0  0  0
   -0.6640   56.6990   73.2300 O   0  0  0  0  0  0  0  0  0  0  0  0
   -1.4190   56.1350   77.4080 O   0  0  0  0  0  0  0  0  0  0  0  0
   -0.7265   61.6984   73.0395 H   0  0  0  0  0  0  0  0  0  0  0  0
   -2.8045   57.8970   76.1575 H   0  0  0  0  0  0  0  0  0  0  0  0
   -2.9933   58.7753   74.6020 H   0  0  0  0  0  0  0  0  0  0  0  0
   -2.6533   57.0115   74.6020 H   0  0  0  0  0  0  0  0  0  0  0  0
    0.1355   59.5821   76.4081 H   0  0  0  0  0  0  0  0  0  0  0  0
   -1.3656   58.7824   77.1145 H   0  0  0  0  0  0  0  0  0  0  0  0
    1.4373   57.7259   76.8760 H   0  0  0  0  0  0  0  0  0  0  0  0
    0.2842   57.8171   78.3047 H   0  0  0  0  0  0  0  0  0  0  0  0
    1.9478   57.6994   75.0388 H   0  0  0  0  0  0  0  0  0  0  0  0
    1.7693   56.9720   73.3722 H   0  0  0  0  0  0  0  0  0  0  0  0
   -1.6644   54.4367   75.9874 H   0  0  0  0  0  0  0  0  0  0  0  0
   -1.9237   55.3766   74.4787 H   0  0  0  0  0  0  0  0  0  0  0  0
   -0.8099   53.9673   74.4787 H   0  0  0  0  0  0  0  0  0  0  0  0
    1.3166   54.8817   73.9943 H   0  0  0  0  0  0  0  0  0  0  0  0
    2.0876   55.5531   75.5799 H   0  0  0  0  0  0  0  0  0  0  0  0
    1.3858   52.8669   74.7961 H   0  0  0  0  0  0  0  0  0  0  0  0
    2.5383   53.6405   76.0802 H   0  0  0  0  0  0  0  0  0  0  0  0
    2.5595   55.4086   79.2005 H   0  0  0  0  0  0  0  0  0  0  0  0
    2.7690   54.5283   77.6487 H   0  0  0  0  0  0  0  0  0  0  0  0
    2.5689   56.3134   77.6487 H   0  0  0  0  0  0  0  0  0  0  0  0
    1.0046   55.0976   80.2001 H   0  0  0  0  0  0  0  0  0  0  0  0
    0.0010   56.4805   79.6458 H   0  0  0  0  0  0  0  0  0  0  0  0
   -0.6812   54.8187   79.6458 H   0  0  0  0  0  0  0  0  0  0  0  0
   -0.5061   65.6396   70.9759 H   0  0  0  0  0  0  0  0  0  0  0  0
   -0.6774   63.4511   72.1443 H   0  0  0  0  0  0  0  0  0  0  0  0
    3.3602   62.5095   70.9387 H   0  0  0  0  0  0  0  0  0  0  0  0
    3.5296   64.7047   69.7742 H   0  0  0  0  0  0  0  0  0  0  0  0
   -0.5152   67.0759   69.6300 H   0  0  0  0  0  0  0  0  0  0  0  0
    0.5158   67.7308   68.3129 H   0  0  0  0  0  0  0  0  0  0  0  0
    0.0535   65.9950   68.3129 H   0  0  0  0  0  0  0  0  0  0  0  0
   -1.4808   56.1650   73.3965 H   0  0  0  0  0  0  0  0  0  0  0  0
   -1.4790   56.1342   78.3962 H   0  0  0  0  0  0  0  0  0  0  0  0
  2  1  2  0
  3  2  1  0
  4  3  1  0
  5  4  1  0
  5  6  1  1
  7  5  1  0
  8  7  1  0
  9  8  1  0
 10  9  1  0
 11 10  1  0
 11  5  1  0
 12 11  1  0
 13 12  1  0
 13  3  2  0
 14 13  1  0
 15 14  2  0
 16 14  1  0
 16  1  1  0
 10 17  1  6
 18 10  1  0
 19 18  1  0
 20 19  1  0
 21 20  2  0
 22 20  1  0
 23  9  1  0
 23 22  1  0
 24 23  1  0
 25 23  1  0
 27 26  2  0
 28 27  1  0
 29 28  2  0
 29  1  1  0
 30 29  1  0
 31 30  2  0
 31 26  1  0
 33 32  1  0
 33 26  1  0
 11 34  1  6
  9 35  1  1
  2 36  1  0
  6 37  1  0
  6 38  1  0
  6 39  1  0
  7 40  1  0
  7 41  1  0
  8 42  1  0
  8 43  1  0
 12 44  1  0
 12 45  1  0
 17 46  1  0
 17 47  1  0
 17 48  1  0
 18 49  1  0
 18 50  1  0
 19 51  1  0
 19 52  1  0
 24 53  1  0
 24 54  1  0
 24 55  1  0
 25 56  1  0
 25 57  1  0
 25 58  1  0
 27 59  1  0
 28 60  1  0
 30 61  1  0
 31 62  1  0
 32 63  1  0
 32 64  1  0
 32 65  1  0
 34 66  1  0
 35 67  1  0
M  END
>  <score>  (4) 
-8.135

$$$$
=
     RDKit          3D

 67 71  0  0  0  0  0  0  0  0999 V2000
    1.1370   62.9650   71.5140 C   0  0  0  0  0  0  0  0  0  0  0  0
    0.4790   62.6760   72.6440 C   0  0  0  0  0  0  0  0  0  0  0  0
    0.6590   61.3930   73.2550 C   0  0  0  0  0  0  0  0  0  0  0  0
   -0.0360   61.2240   74.4160 O   0  0  0  0  0  0  0  0  0  0  0  0
    0.1910   60.0240   75.2140 C   0  0  2  0  0  0  0  0  0  0  0  0
   -1.1470   59.9450   75.9800 C   0  0  0  0  0  0  0  0  0  0  0  0
    1.3440   60.3490   76.1880 C   0  0  0  0  0  0  0  0  0  0  0  0
    2.3100   59.1940   76.4710 C   0  0  0  0  0  0  0  0  0  0  0  0
    1.6470   57.8040   76.5770 C   0  0  1  0  0  0  0  0  0  0  0  0
    0.8720   57.4150   75.2240 C   0  0  2  0  0  0  0  0  0  0  0  0
    0.5080   58.7490   74.3440 C   0  0  2  0  0  0  0  0  0  0  0  0
    1.6170   59.1140   73.3020 C   0  0  0  0  0  0  0  0  0  0  0  0
    1.4500   60.4700   72.7070 C   0  0  0  0  0  0  0  0  0  0  0  0
    2.1770   60.7800   71.4580 C   0  0  0  0  0  0  0  0  0  0  0  0
    2.9240   59.9490   70.9470 O   0  0  0  0  0  0  0  0  0  0  0  0
    1.9920   62.0150   70.9060 O   0  0  0  0  0  0  0  0  0  0  0  0
   -0.4610   56.6500   75.5230 C   0  0  0  0  0  0  0  0  0  0  0  0
    1.7170   56.4550   74.3330 C   0  0  0  0  0  0  0  0  0  0  0  0
    2.0130   55.0260   74.7850 C   0  0  0  0  0  0  0  0  0  0  0  0
    1.7970   54.5950   76.2060 C   0  0  0  0  0  0  0  0  0  0  0  0
    1.3720   53.4690   76.4530 O   0  0  0  0  0  0  0  0  0  0  0  0
    2.0940   55.4290   77.2110 O   0  0  0  0  0  0  0  0  0  0  0  0
    2.6940   56.7510   77.1550 C   0  0  0  0  0  0  0  0  0  0  0  0
    4.0900   56.7080   76.5050 C   0  0  0  0  0  0  0  0  0  0  0  0
    2.9840   57.0210   78.6630 C   0  0  0  0  0  0  0  0  0  0  0  0
    0.7650   66.6890   69.3880 C   0  0  0  0  0  0  0  0  0  0  0  0
    2.0190   66.2330   69.7980 C   0  0  0  0  0  0  0  0  0  0  0  0
    2.1510   65.0250   70.4920 C   0  0  0  0  0  0  0  0  0  0  0  0
    1.0250   64.2490   70.7950 C   0  0  0  0  0  0  0  0  0  0  0  0
   -0.2290   64.7100   70.3710 C   0  0  0  0  0  0  0  0  0  0  0  0
   -0.3610   65.9210   69.6750 C   0  0  0  0  0  0  0  0  0  0  0  0
    0.3950   67.8570   67.3520 C   0  0  0  0  0  0  0  0  0  0  0  0
    0.7800   67.8820   68.7210 O   0  0  0  0  0  0  0  0  0  0  0  0
   -0.6680   58.4560   73.5450 O   0  0  0  0  0  0  0  0  0  0  0  0
    0.6370   57.9750   77.5950 O   0  0  0  0  0  0  0  0  0  0  0  0
   -0.1940   63.4176   73.0991 H   0  0  0  0  0  0  0  0  0  0  0  0
   -0.9511   59.9566   77.0624 H   0  0  0  0  0  0  0  0  0  0  0  0
   -1.7746   60.8077   75.7117 H   0  0  0  0  0  0  0  0  0  0  0  0
   -1.6687   59.0145   75.7117 H   0  0  0  0  0  0  0  0  0  0  0  0
    1.9245   61.1803   75.7614 H   0  0  0  0  0  0  0  0  0  0  0  0
    0.8691   60.5899   77.1505 H   0  0  0  0  0  0  0  0  0  0  0  0
    3.0489   59.1591   75.6568 H   0  0  0  0  0  0  0  0  0  0  0  0
    2.7564   59.3990   77.4552 H   0  0  0  0  0  0  0  0  0  0  0  0
    2.5945   59.0723   73.8048 H   0  0  0  0  0  0  0  0  0  0  0  0
    1.5398   58.3878   72.4794 H   0  0  0  0  0  0  0  0  0  0  0  0
   -0.6014   56.5694   76.6110 H   0  0  0  0  0  0  0  0  0  0  0  0
   -1.3061   57.2005   75.0840 H   0  0  0  0  0  0  0  0  0  0  0  0
   -0.4120   55.6426   75.0840 H   0  0  0  0  0  0  0  0  0  0  0  0
    1.1913   56.3769   73.3699 H   0  0  0  0  0  0  0  0  0  0  0  0
    2.7115   56.9250   74.3427 H   0  0  0  0  0  0  0  0  0  0  0  0
    1.3895   54.3676   74.1623 H   0  0  0  0  0  0  0  0  0  0  0  0
    3.1065   54.9660   74.6822 H   0  0  0  0  0  0  0  0  0  0  0  0
    4.8596   56.6843   77.2905 H   0  0  0  0  0  0  0  0  0  0  0  0
    4.1759   55.8068   75.8802 H   0  0  0  0  0  0  0  0  0  0  0  0
    4.2312   57.6022   75.8802 H   0  0  0  0  0  0  0  0  0  0  0  0
    2.3181   56.4010   79.2812 H   0  0  0  0  0  0  0  0  0  0  0  0
    4.0313   56.7689   78.8859 H   0  0  0  0  0  0  0  0  0  0  0  0
    2.8072   58.0836   78.8859 H   0  0  0  0  0  0  0  0  0  0  0  0
    2.9146   66.8307   69.5728 H   0  0  0  0  0  0  0  0  0  0  0  0
    3.1488   64.6815   70.8026 H   0  0  0  0  0  0  0  0  0  0  0  0
   -1.1260   64.1114   70.5879 H   0  0  0  0  0  0  0  0  0  0  0  0
   -1.3558   66.2647   69.3553 H   0  0  0  0  0  0  0  0  0  0  0  0
   -0.7004   67.7859   67.2804 H   0  0  0  0  0  0  0  0  0  0  0  0
    0.7356   68.7792   66.8584 H   0  0  0  0  0  0  0  0  0  0  0  0
    0.8520   66.9866   66.8584 H   0  0  0  0  0  0  0  0  0  0  0  0
   -1.4338   58.2652   74.1426 H   0  0  0  0  0  0  0  0  0  0  0  0
    1.0549   57.9042   78.4897 H   0  0  0  0  0  0  0  0  0  0  0  0
  2  1  2  0
  3  2  1  0
  4  3  1  0
  5  4  1  0
  5  6  1  1
  7  5  1  0
  8  7  1  0
  9  8  1  0
 10  9  1  0
 11 10  1  0
 11  5  1  0
 12 11  1  0
 13 12  1  0
 13  3  2  0
 14 13  1  0
 15 14  2  0
 16 14  1  0
 16  1  1  0
 10 17  1  1
 18 10  1  0
 19 18  1  0
 20 19  1  0
 21 20  2  0
 22 20  1  0
 23  9  1  0
 23 22  1  0
 24 23  1  0
 25 23  1  0
 27 26  2  0
 28 27  1  0
 29 28  2  0
 29  1  1  0
 30 29  1  0
 31 30  2  0
 31 26  1  0
 33 32  1  0
 33 26  1  0
 11 34  1  6
  9 35  1  1
  2 36  1  0
  6 37  1  0
  6 38  1  0
  6 39  1  0
  7 40  1  0
  7 41  1  0
  8 42  1  0
  8 43  1  0
 12 44  1  0
 12 45  1  0
 17 46  1  0
 17 47  1  0
 17 48  1  0
 18 49  1  0
 18 50  1  0
 19 51  1  0
 19 52  1  0
 24 53  1  0
 24 54  1  0
 24 55  1  0
 25 56  1  0
 25 57  1  0
 25 58  1  0
 27 59  1  0
 28 60  1  0
 30 61  1  0
 31 62  1  0
 32 63  1  0
 32 64  1  0
 32 65  1  0
 34 66  1  0
 35 67  1  0
M  END
>  <score>  (5) 
-7.624

$$$$
=
     RDKit          3D

 67 71  0  0  0  0  0  0  0  0999 V2000
   -0.3960   60.4980   73.2150 C   0  0  0  0  0  0  0  0  0  0  0  0
   -1.4350   61.2660   73.5680 C   0  0  0  0  0  0  0  0  0  0  0  0
   -2.4750   60.7110   74.3810 C   0  0  0  0  0  0  0  0  0  0  0  0
   -3.4640   61.5930   74.7040 O   0  0  0  0  0  0  0  0  0  0  0  0
   -4.4920   61.1940   75.6580 C   0  0  2  0  0  0  0  0  0  0  0  0
   -5.6380   62.1390   75.2400 C   0  0  0  0  0  0  0  0  0  0  0  0
   -3.9710   61.5770   77.0600 C   0  0  0  0  0  0  0  0  0  0  0  0
   -4.3290   60.5990   78.1830 C   0  0  0  0  0  0  0  0  0  0  0  0
   -5.7400   59.9820   78.0830 C   0  0  1  0  0  0  0  0  0  0  0  0
   -5.9340   59.1720   76.7090 C   0  0  2  0  0  0  0  0  0  0  0  0
   -4.8600   59.6640   75.5730 C   0  0  2  0  0  0  0  0  0  0  0  0
   -3.5360   58.8280   75.5820 C   0  0  0  0  0  0  0  0  0  0  0  0
   -2.4430   59.4370   74.7740 C   0  0  0  0  0  0  0  0  0  0  0  0
   -1.3010   58.5820   74.3850 C   0  0  0  0  0  0  0  0  0  0  0  0
   -1.2450   57.4100   74.7500 O   0  0  0  0  0  0  0  0  0  0  0  0
   -0.3210   59.1430   73.6180 O   0  0  0  0  0  0  0  0  0  0  0  0
   -7.3760   59.3590   76.1270 C   0  0  0  0  0  0  0  0  0  0  0  0
   -5.7610   57.6370   76.9170 C   0  0  0  0  0  0  0  0  0  0  0  0
   -6.7730   56.8390   77.7370 C   0  0  0  0  0  0  0  0  0  0  0  0
   -7.7670   57.5220   78.6290 C   0  0  0  0  0  0  0  0  0  0  0  0
   -8.9080   57.0800   78.7360 O   0  0  0  0  0  0  0  0  0  0  0  0
   -7.4030   58.6000   79.3360 O   0  0  0  0  0  0  0  0  0  0  0  0
   -6.0960   59.2260   79.4410 C   0  0  0  0  0  0  0  0  0  0  0  0
   -5.0480   58.2480   80.0030 C   0  0  0  0  0  0  0  0  0  0  0  0
   -6.3330   60.2410   80.6000 C   0  0  0  0  0  0  0  0  0  0  0  0
    2.8460   61.8730   70.7400 C   0  0  0  0  0  0  0  0  0  0  0  0
    2.9020   60.6160   71.3410 C   0  0  0  0  0  0  0  0  0  0  0  0
    1.8550   60.1590   72.1490 C   0  0  0  0  0  0  0  0  0  0  0  0
    0.7280   60.9590   72.3780 C   0  0  0  0  0  0  0  0  0  0  0  0
    0.6770   62.2180   71.7620 C   0  0  0  0  0  0  0  0  0  0  0  0
    1.7260   62.6750   70.9520 C   0  0  0  0  0  0  0  0  0  0  0  0
    3.6790   62.6970   68.6730 C   0  0  0  0  0  0  0  0  0  0  0  0
    3.9350   62.1940   69.9780 O   0  0  0  0  0  0  0  0  0  0  0  0
   -5.4410   59.4220   74.2650 O   0  0  0  0  0  0  0  0  0  0  0  0
   -6.6180   61.1270   78.0130 O   0  0  0  0  0  0  0  0  0  0  0  0
   -1.4889   62.3135   73.2364 H   0  0  0  0  0  0  0  0  0  0  0  0
   -6.1271   62.5423   76.1390 H   0  0  0  0  0  0  0  0  0  0  0  0
   -5.2305   62.9671   74.6415 H   0  0  0  0  0  0  0  0  0  0  0  0
   -6.3733   61.5812   74.6415 H   0  0  0  0  0  0  0  0  0  0  0  0
   -2.8745   61.6468   77.0073 H   0  0  0  0  0  0  0  0  0  0  0  0
   -4.4622   62.5271   77.3171 H   0  0  0  0  0  0  0  0  0  0  0  0
   -3.5959   59.7791   78.1685 H   0  0  0  0  0  0  0  0  0  0  0  0
   -4.3128   61.1816   79.1159 H   0  0  0  0  0  0  0  0  0  0  0  0
   -3.1899   58.7353   76.6220 H   0  0  0  0  0  0  0  0  0  0  0  0
   -3.7667   57.8519   75.1304 H   0  0  0  0  0  0  0  0  0  0  0  0
   -8.0958   59.4523   76.9536 H   0  0  0  0  0  0  0  0  0  0  0  0
   -7.4070   60.2687   75.5093 H   0  0  0  0  0  0  0  0  0  0  0  0
   -7.6380   58.4873   75.5093 H   0  0  0  0  0  0  0  0  0  0  0  0
   -5.7435   57.1848   75.9144 H   0  0  0  0  0  0  0  0  0  0  0  0
   -4.8489   57.5753   77.5287 H   0  0  0  0  0  0  0  0  0  0  0  0
   -7.3567   56.2452   77.0182 H   0  0  0  0  0  0  0  0  0  0  0  0
   -6.1315   56.3097   78.4569 H   0  0  0  0  0  0  0  0  0  0  0  0
   -5.0752   58.2734   81.1024 H   0  0  0  0  0  0  0  0  0  0  0  0
   -5.2728   57.2293   79.6541 H   0  0  0  0  0  0  0  0  0  0  0  0
   -4.0473   58.5426   79.6541 H   0  0  0  0  0  0  0  0  0  0  0  0
   -6.2134   59.7288   81.5661 H   0  0  0  0  0  0  0  0  0  0  0  0
   -5.6018   61.0594   80.5259 H   0  0  0  0  0  0  0  0  0  0  0  0
   -7.3510   60.6510   80.5259 H   0  0  0  0  0  0  0  0  0  0  0  0
    3.7810   59.9751   71.1777 H   0  0  0  0  0  0  0  0  0  0  0  0
    1.9175   59.1617   72.6089 H   0  0  0  0  0  0  0  0  0  0  0  0
   -0.2031   62.8593   71.9175 H   0  0  0  0  0  0  0  0  0  0  0  0
    1.6650   63.6681   70.4830 H   0  0  0  0  0  0  0  0  0  0  0  0
    3.1812   63.6750   68.7481 H   0  0  0  0  0  0  0  0  0  0  0  0
    4.6293   62.8099   68.1306 H   0  0  0  0  0  0  0  0  0  0  0  0
    3.0284   61.9952   68.1306 H   0  0  0  0  0  0  0  0  0  0  0  0
   -6.3495   59.0436   74.3723 H   0  0  0  0  0  0  0  0  0  0  0  0
   -6.8461   61.4245   78.9293 H   0  0  0  0  0  0  0  0  0  0  0  0
  2  1  2  0
  3  2  1  0
  4  3  1  0
  5  4  1  0
  5  6  1  6
  7  5  1  0
  8  7  1  0
  9  8  1  0
 10  9  1  0
 11 10  1  0
 11  5  1  0
 12 11  1  0
 13 12  1  0
 13  3  2  0
 14 13  1  0
 15 14  2  0
 16 14  1  0
 16  1  1  0
 10 17  1  6
 18 10  1  0
 19 18  1  0
 20 19  1  0
 21 20  2  0
 22 20  1  0
 23  9  1  0
 23 22  1  0
 24 23  1  0
 25 23  1  0
 27 26  2  0
 28 27  1  0
 29 28  2  0
 29  1  1  0
 30 29  1  0
 31 30  2  0
 31 26  1  0
 33 32  1  0
 33 26  1  0
 11 34  1  6
  9 35  1  6
  2 36  1  0
  6 37  1  0
  6 38  1  0
  6 39  1  0
  7 40  1  0
  7 41  1  0
  8 42  1  0
  8 43  1  0
 12 44  1  0
 12 45  1  0
 17 46  1  0
 17 47  1  0
 17 48  1  0
 18 49  1  0
 18 50  1  0
 19 51  1  0
 19 52  1  0
 24 53  1  0
 24 54  1  0
 24 55  1  0
 25 56  1  0
 25 57  1  0
 25 58  1  0
 27 59  1  0
 28 60  1  0
 30 61  1  0
 31 62  1  0
 32 63  1  0
 32 64  1  0
 32 65  1  0
 34 66  1  0
 35 67  1  0
M  END
>  <score>  (6) 
-7.256

$$$$
