=
     RDKit          3D

 53 55  0  0  0  0  0  0  0  0999 V2000
    1.2090   67.1260   68.3620 C   0  0  0  0  0  0  0  0  0  0  0  0
    1.7280   66.2770   67.6250 O   0  0  0  0  0  0  0  0  0  0  0  0
    0.7040   68.4620   67.8050 C   0  0  1  0  0  0  0  0  0  0  0  0
    1.6210   69.6150   68.2680 C   0  0  0  0  0  0  0  0  0  0  0  0
    2.7950   69.6060   67.3190 C   0  0  0  0  0  0  0  0  0  0  0  0
    2.4710   69.1350   66.0450 C   0  0  0  0  0  0  0  0  0  0  0  0
    0.8150   68.5150   65.9810 S   0  0  0  0  0  0  0  0  0  0  0  0
    3.4160   69.0750   65.0410 C   0  0  0  0  0  0  0  0  0  0  0  0
    4.7280   69.4380   65.3520 C   0  0  0  0  0  0  0  0  0  0  0  0
    5.0850   69.8820   66.6430 C   0  0  0  0  0  0  0  0  0  0  0  0
    4.0950   69.9960   67.6260 C   0  0  0  0  0  0  0  0  0  0  0  0
    6.4200   70.1040   66.8610 O   0  0  0  0  0  0  0  0  0  0  0  0
    6.7720   70.6210   68.1420 C   0  0  0  0  0  0  0  0  0  0  0  0
    5.6780   69.2240   64.3820 O   0  0  0  0  0  0  0  0  0  0  0  0
    5.0480   69.1310   63.0990 C   0  0  0  0  0  0  0  0  0  0  0  0
    1.1470   66.8480   69.8570 C   0  0  0  0  0  0  0  0  0  0  0  0
    0.3600   65.5980   70.2800 C   0  0  0  0  0  0  0  0  0  0  0  0
    2.4990   61.9650   71.0550 N   0  0  0  0  0  4  0  0  0  0  0  0
    3.1590   63.0200   70.5260 C   0  0  0  0  0  0  0  0  0  0  0  0
    2.5120   64.2360   70.3290 C   0  0  0  0  0  0  0  0  0  0  0  0
    1.1550   64.3600   70.6300 C   0  0  0  0  0  0  0  0  0  0  0  0
    0.5280   63.2830   71.2580 C   0  0  0  0  0  0  0  0  0  0  0  0
    1.2180   62.0910   71.4570 C   0  0  0  0  0  0  0  0  0  0  0  0
    3.1750   60.6440   71.1470 C   0  0  0  0  0  0  0  0  0  0  0  0
    3.6020   60.1860   69.7560 C   0  0  0  0  0  0  0  0  0  0  0  0
    3.4010   58.1510   70.9410 C   0  0  0  0  0  0  0  0  0  0  0  0
    3.9770   58.8080   69.8130 O   0  0  0  0  0  0  0  0  0  0  0  0
   -0.3330   68.5630   68.1576 H   0  0  0  0  0  0  0  0  0  0  0  0
    1.0884   70.5758   68.2109 H   0  0  0  0  0  0  0  0  0  0  0  0
    1.9409   69.4863   69.3125 H   0  0  0  0  0  0  0  0  0  0  0  0
    3.1437   68.7508   64.0257 H   0  0  0  0  0  0  0  0  0  0  0  0
    4.3405   70.3873   68.6243 H   0  0  0  0  0  0  0  0  0  0  0  0
    6.3381   69.9836   68.9265 H   0  0  0  0  0  0  0  0  0  0  0  0
    7.8672   70.6337   68.2440 H   0  0  0  0  0  0  0  0  0  0  0  0
    6.3824   71.6446   68.2440 H   0  0  0  0  0  0  0  0  0  0  0  0
    3.9677   68.9715   63.2317 H   0  0  0  0  0  0  0  0  0  0  0  0
    5.2151   70.0635   62.5400 H   0  0  0  0  0  0  0  0  0  0  0  0
    5.4774   68.2865   62.5400 H   0  0  0  0  0  0  0  0  0  0  0  0
    2.1789   66.7346   70.2208 H   0  0  0  0  0  0  0  0  0  0  0  0
    0.6054   67.7000   70.2938 H   0  0  0  0  0  0  0  0  0  0  0  0
   -0.2370   65.8674   71.1637 H   0  0  0  0  0  0  0  0  0  0  0  0
   -0.2208   65.3166   69.3892 H   0  0  0  0  0  0  0  0  0  0  0  0
    4.2183   62.9158   70.2485 H   0  0  0  0  0  0  0  0  0  0  0  0
    3.0698   65.0989   69.9363 H   0  0  0  0  0  0  0  0  0  0  0  0
   -0.5144   63.3765   71.5966 H   0  0  0  0  0  0  0  0  0  0  0  0
    0.7142   61.2444   71.9464 H   0  0  0  0  0  0  0  0  0  0  0  0
    4.0622   60.7315   71.7913 H   0  0  0  0  0  0  0  0  0  0  0  0
    2.4785   59.9078   71.5747 H   0  0  0  0  0  0  0  0  0  0  0  0
    2.7648   60.3113   69.0536 H   0  0  0  0  0  0  0  0  0  0  0  0
    4.4556   60.7889   69.4127 H   0  0  0  0  0  0  0  0  0  0  0  0
    3.7935   58.5987   71.8660 H   0  0  0  0  0  0  0  0  0  0  0  0
    2.3074   58.2660   70.9133 H   0  0  0  0  0  0  0  0  0  0  0  0
    3.6581   57.0818   70.9133 H   0  0  0  0  0  0  0  0  0  0  0  0
  2  1  2  0
  3  1  1  0
  4  3  1  0
  5  4  1  0
  6  5  2  0
  7  6  1  0
  7  3  1  0
  8  6  1  0
  9  8  2  0
 10  9  1  0
 11 10  2  0
 11  5  1  0
 12 10  1  0
 13 12  1  0
 14  9  1  0
 15 14  1  0
 16  1  1  0
 17 16  1  0
 19 18  2  0
 20 19  1  0
 21 20  2  0
 21 17  1  0
 22 21  1  0
 23 22  2  0
 23 18  1  0
 24 18  1  0
 25 24  1  0
 27 26  1  0
 27 25  1  0
  3 28  1  6
  4 29  1  0
  4 30  1  0
  8 31  1  0
 11 32  1  0
 13 33  1  0
 13 34  1  0
 13 35  1  0
 15 36  1  0
 15 37  1  0
 15 38  1  0
 16 39  1  0
 16 40  1  0
 17 41  1  0
 17 42  1  0
 19 43  1  0
 20 44  1  0
 22 45  1  0
 23 46  1  0
 24 47  1  0
 24 48  1  0
 25 49  1  0
 25 50  1  0
 26 51  1  0
 26 52  1  0
 26 53  1  0
M  CHG  1  18   1
M  END
>  <score>  (1) 
-8.878

$$$$
=
     RDKit          3D

 53 55  0  0  0  0  0  0  0  0999 V2000
    0.1230   67.3490   68.1360 C   0  0  0  0  0  0  0  0  0  0  0  0
   -0.4960   66.4550   67.5440 O   0  0  0  0  0  0  0  0  0  0  0  0
    0.0400   68.8110   67.6820 C   0  0  1  0  0  0  0  0  0  0  0  0
    1.4550   69.4160   67.5630 C   0  0  0  0  0  0  0  0  0  0  0  0
    1.9740   68.9740   66.2170 C   0  0  0  0  0  0  0  0  0  0  0  0
    0.9650   68.7890   65.2700 C   0  0  0  0  0  0  0  0  0  0  0  0
   -0.6430   68.9510   65.9920 S   0  0  0  0  0  0  0  0  0  0  0  0
    1.2560   68.4050   63.9760 C   0  0  0  0  0  0  0  0  0  0  0  0
    2.5890   68.1410   63.6550 C   0  0  0  0  0  0  0  0  0  0  0  0
    3.6210   68.2860   64.6060 C   0  0  0  0  0  0  0  0  0  0  0  0
    3.3070   68.7400   65.8920 C   0  0  0  0  0  0  0  0  0  0  0  0
    4.8720   67.8930   64.2090 O   0  0  0  0  0  0  0  0  0  0  0  0
    5.7360   68.9230   63.7330 C   0  0  0  0  0  0  0  0  0  0  0  0
    2.8340   67.6130   62.4090 O   0  0  0  0  0  0  0  0  0  0  0  0
    2.8770   68.6650   61.4370 C   0  0  0  0  0  0  0  0  0  0  0  0
    1.0350   66.9580   69.2900 C   0  0  0  0  0  0  0  0  0  0  0  0
    0.4080   66.0700   70.3770 C   0  0  0  0  0  0  0  0  0  0  0  0
    2.3830   62.3910   71.3430 N   0  0  0  0  0  4  0  0  0  0  0  0
    1.0700   62.5300   71.6320 C   0  0  0  0  0  0  0  0  0  0  0  0
    0.3820   63.6840   71.2660 C   0  0  0  0  0  0  0  0  0  0  0  0
    1.0590   64.7310   70.6420 C   0  0  0  0  0  0  0  0  0  0  0  0
    2.3900   64.5190   70.2780 C   0  0  0  0  0  0  0  0  0  0  0  0
    3.0360   63.3420   70.6420 C   0  0  0  0  0  0  0  0  0  0  0  0
    3.1260   61.2050   71.8450 C   0  0  0  0  0  0  0  0  0  0  0  0
    3.4320   60.2610   70.6880 C   0  0  0  0  0  0  0  0  0  0  0  0
    5.5460   60.8510   71.5670 C   0  0  0  0  0  0  0  0  0  0  0  0
    4.8500   60.1540   70.5350 O   0  0  0  0  0  0  0  0  0  0  0  0
   -0.5894   69.3222   68.4253 H   0  0  0  0  0  0  0  0  0  0  0  0
    1.4087   70.5138   67.6150 H   0  0  0  0  0  0  0  0  0  0  0  0
    2.1102   69.0824   68.3812 H   0  0  0  0  0  0  0  0  0  0  0  0
    0.4618   68.3099   63.2209 H   0  0  0  0  0  0  0  0  0  0  0  0
    4.1011   68.9092   66.6342 H   0  0  0  0  0  0  0  0  0  0  0  0
    6.1806   69.4530   64.5882 H   0  0  0  0  0  0  0  0  0  0  0  0
    6.5350   68.4780   63.1218 H   0  0  0  0  0  0  0  0  0  0  0  0
    5.1588   69.6324   63.1218 H   0  0  0  0  0  0  0  0  0  0  0  0
    2.9167   69.6371   61.9503 H   0  0  0  0  0  0  0  0  0  0  0  0
    3.7710   68.5461   60.8073 H   0  0  0  0  0  0  0  0  0  0  0  0
    1.9762   68.6194   60.8073 H   0  0  0  0  0  0  0  0  0  0  0  0
    1.8958   66.4174   68.8697 H   0  0  0  0  0  0  0  0  0  0  0  0
    1.2956   67.9009   69.7930 H   0  0  0  0  0  0  0  0  0  0  0  0
    0.4266   66.6382   71.3187 H   0  0  0  0  0  0  0  0  0  0  0  0
   -0.5948   65.8252   69.9968 H   0  0  0  0  0  0  0  0  0  0  0  0
    0.5401   61.7242   72.1611 H   0  0  0  0  0  0  0  0  0  0  0  0
   -0.6957   63.7696   71.4692 H   0  0  0  0  0  0  0  0  0  0  0  0
    2.9295   65.2850   69.7016 H   0  0  0  0  0  0  0  0  0  0  0  0
    4.0867   63.1851   70.3565 H   0  0  0  0  0  0  0  0  0  0  0  0
    4.0684   61.5332   72.3078 H   0  0  0  0  0  0  0  0  0  0  0  0
    2.5110   60.6793   72.5903 H   0  0  0  0  0  0  0  0  0  0  0  0
    3.0083   59.2683   70.9004 H   0  0  0  0  0  0  0  0  0  0  0  0
    2.9874   60.6534   69.7615 H   0  0  0  0  0  0  0  0  0  0  0  0
    5.1948   60.4993   72.5483 H   0  0  0  0  0  0  0  0  0  0  0  0
    6.6255   60.6609   71.4742 H   0  0  0  0  0  0  0  0  0  0  0  0
    5.3544   61.9302   71.4742 H   0  0  0  0  0  0  0  0  0  0  0  0
  2  1  2  0
  3  1  1  0
  4  3  1  0
  5  4  1  0
  6  5  2  0
  7  6  1  0
  7  3  1  0
  8  6  1  0
  9  8  2  0
 10  9  1  0
 11 10  2  0
 11  5  1  0
 12 10  1  0
 13 12  1  0
 14  9  1  0
 15 14  1  0
 16  1  1  0
 17 16  1  0
 19 18  2  0
 20 19  1  0
 21 20  2  0
 21 17  1  0
 22 21  1  0
 23 22  2  0
 23 18  1  0
 24 18  1  0
 25 24  1  0
 27 26  1  0
 27 25  1  0
  3 28  1  1
  4 29  1  0
  4 30  1  0
  8 31  1  0
 11 32  1  0
 13 33  1  0
 13 34  1  0
 13 35  1  0
 15 36  1  0
 15 37  1  0
 15 38  1  0
 16 39  1  0
 16 40  1  0
 17 41  1  0
 17 42  1  0
 19 43  1  0
 20 44  1  0
 22 45  1  0
 23 46  1  0
 24 47  1  0
 24 48  1  0
 25 49  1  0
 25 50  1  0
 26 51  1  0
 26 52  1  0
 26 53  1  0
M  CHG  1  18   1
M  END
>  <score>  (2) 
-8.838

$$$$
=
     RDKit          3D

 53 55  0  0  0  0  0  0  0  0999 V2000
    2.1150   63.8540   69.9300 C   0  0  0  0  0  0  0  0  0  0  0  0
    1.1930   63.0290   69.8930 O   0  0  0  0  0  0  0  0  0  0  0  0
    3.5220   63.4990   69.4330 C   0  0  1  0  0  0  0  0  0  0  0  0
    4.4920   63.3640   70.6270 C   0  0  0  0  0  0  0  0  0  0  0  0
    4.2770   61.9720   71.1690 C   0  0  0  0  0  0  0  0  0  0  0  0
    3.8750   61.0560   70.1950 C   0  0  0  0  0  0  0  0  0  0  0  0
    3.5590   61.8490   68.6460 S   0  0  0  0  0  0  0  0  0  0  0  0
    3.6520   59.7290   70.5060 C   0  0  0  0  0  0  0  0  0  0  0  0
    3.7750   59.3390   71.8410 C   0  0  0  0  0  0  0  0  0  0  0  0
    4.1430   60.2560   72.8480 C   0  0  0  0  0  0  0  0  0  0  0  0
    4.4290   61.5800   72.4970 C   0  0  0  0  0  0  0  0  0  0  0  0
    4.1240   59.7850   74.1350 O   0  0  0  0  0  0  0  0  0  0  0  0
    2.9670   60.1030   74.9060 C   0  0  0  0  0  0  0  0  0  0  0  0
    3.3980   58.0530   72.1490 O   0  0  0  0  0  0  0  0  0  0  0  0
    2.9570   57.3800   70.9640 C   0  0  0  0  0  0  0  0  0  0  0  0
    1.8440   65.2170   70.5500 C   0  0  0  0  0  0  0  0  0  0  0  0
    0.4170   65.7620   70.3890 C   0  0  0  0  0  0  0  0  0  0  0  0
   -0.2210   68.0740   66.8360 N   0  0  0  0  0  4  0  0  0  0  0  0
   -1.2280   67.3120   67.3170 C   0  0  0  0  0  0  0  0  0  0  0  0
   -1.0780   66.6060   68.5070 C   0  0  0  0  0  0  0  0  0  0  0  0
    0.1380   66.6390   69.1880 C   0  0  0  0  0  0  0  0  0  0  0  0
    1.1250   67.5060   68.7150 C   0  0  0  0  0  0  0  0  0  0  0  0
    0.9270   68.2120   67.5330 C   0  0  0  0  0  0  0  0  0  0  0  0
   -0.3590   68.7240   65.5070 C   0  0  0  0  0  0  0  0  0  0  0  0
    0.8420   68.3750   64.6350 C   0  0  0  0  0  0  0  0  0  0  0  0
    0.3540   69.1240   62.4470 C   0  0  0  0  0  0  0  0  0  0  0  0
    0.3830   68.0060   63.3320 O   0  0  0  0  0  0  0  0  0  0  0  0
    3.8051   64.2973   68.7311 H   0  0  0  0  0  0  0  0  0  0  0  0
    5.5324   63.4894   70.2926 H   0  0  0  0  0  0  0  0  0  0  0  0
    4.3053   64.1321   71.3920 H   0  0  0  0  0  0  0  0  0  0  0  0
    3.3855   59.0012   69.7254 H   0  0  0  0  0  0  0  0  0  0  0  0
    4.7682   62.2992   73.2570 H   0  0  0  0  0  0  0  0  0  0  0  0
    3.2101   60.0362   75.9767 H   0  0  0  0  0  0  0  0  0  0  0  0
    2.6373   61.1251   74.6680 H   0  0  0  0  0  0  0  0  0  0  0  0
    2.1612   59.3930   74.6680 H   0  0  0  0  0  0  0  0  0  0  0  0
    2.3739   56.4901   71.2432 H   0  0  0  0  0  0  0  0  0  0  0  0
    2.3280   58.0588   70.3694 H   0  0  0  0  0  0  0  0  0  0  0  0
    3.8305   57.0743   70.3694 H   0  0  0  0  0  0  0  0  0  0  0  0
    2.0563   65.1444   71.6269 H   0  0  0  0  0  0  0  0  0  0  0  0
    2.4918   65.9217   70.0081 H   0  0  0  0  0  0  0  0  0  0  0  0
   -0.2616   64.8982   70.3315 H   0  0  0  0  0  0  0  0  0  0  0  0
    0.2672   66.4193   71.2582 H   0  0  0  0  0  0  0  0  0  0  0  0
   -2.1759   67.2491   66.7624 H   0  0  0  0  0  0  0  0  0  0  0  0
   -1.9186   66.0222   68.9101 H   0  0  0  0  0  0  0  0  0  0  0  0
    2.0614   67.6310   69.2785 H   0  0  0  0  0  0  0  0  0  0  0  0
    1.7120   68.8881   67.1632 H   0  0  0  0  0  0  0  0  0  0  0  0
   -1.2793   68.3687   65.0204 H   0  0  0  0  0  0  0  0  0  0  0  0
   -0.4075   69.8150   65.6392 H   0  0  0  0  0  0  0  0  0  0  0  0
    1.5071   69.2478   64.5577 H   0  0  0  0  0  0  0  0  0  0  0  0
    1.3949   67.5368   65.0842 H   0  0  0  0  0  0  0  0  0  0  0  0
    0.3299   70.0548   63.0327 H   0  0  0  0  0  0  0  0  0  0  0  0
    1.2527   69.1131   61.8128 H   0  0  0  0  0  0  0  0  0  0  0  0
   -0.5430   69.0665   61.8128 H   0  0  0  0  0  0  0  0  0  0  0  0
  2  1  2  0
  3  1  1  0
  4  3  1  0
  5  4  1  0
  6  5  2  0
  7  6  1  0
  7  3  1  0
  8  6  1  0
  9  8  2  0
 10  9  1  0
 11 10  2  0
 11  5  1  0
 12 10  1  0
 13 12  1  0
 14  9  1  0
 15 14  1  0
 16  1  1  0
 17 16  1  0
 19 18  2  0
 20 19  1  0
 21 20  2  0
 21 17  1  0
 22 21  1  0
 23 22  2  0
 23 18  1  0
 24 18  1  0
 25 24  1  0
 27 26  1  0
 27 25  1  0
  3 28  1  6
  4 29  1  0
  4 30  1  0
  8 31  1  0
 11 32  1  0
 13 33  1  0
 13 34  1  0
 13 35  1  0
 15 36  1  0
 15 37  1  0
 15 38  1  0
 16 39  1  0
 16 40  1  0
 17 41  1  0
 17 42  1  0
 19 43  1  0
 20 44  1  0
 22 45  1  0
 23 46  1  0
 24 47  1  0
 24 48  1  0
 25 49  1  0
 25 50  1  0
 26 51  1  0
 26 52  1  0
 26 53  1  0
M  CHG  1  18   1
M  END
>  <score>  (3) 
-8.08

$$$$
=
     RDKit          3D

 53 55  0  0  0  0  0  0  0  0999 V2000
    1.1160   63.8250   71.6610 C   0  0  0  0  0  0  0  0  0  0  0  0
    2.2950   63.4730   71.5270 O   0  0  0  0  0  0  0  0  0  0  0  0
    0.2970   63.4150   72.8910 C   0  0  1  0  0  0  0  0  0  0  0  0
   -0.2780   61.9940   72.7000 C   0  0  0  0  0  0  0  0  0  0  0  0
    0.8410   61.0510   73.0680 C   0  0  0  0  0  0  0  0  0  0  0  0
    1.7140   61.5760   74.0230 C   0  0  0  0  0  0  0  0  0  0  0  0
    1.3480   63.2690   74.3800 S   0  0  0  0  0  0  0  0  0  0  0  0
    2.7860   60.8440   74.4940 C   0  0  0  0  0  0  0  0  0  0  0  0
    3.0140   59.5830   73.9400 C   0  0  0  0  0  0  0  0  0  0  0  0
    2.1670   59.0490   72.9470 C   0  0  0  0  0  0  0  0  0  0  0  0
    1.0490   59.7820   72.5330 C   0  0  0  0  0  0  0  0  0  0  0  0
    2.5520   57.8530   72.3980 O   0  0  0  0  0  0  0  0  0  0  0  0
    3.2010   57.9210   71.1300 C   0  0  0  0  0  0  0  0  0  0  0  0
    4.1720   58.9410   74.3120 O   0  0  0  0  0  0  0  0  0  0  0  0
    3.9900   58.3160   75.5880 C   0  0  0  0  0  0  0  0  0  0  0  0
    0.4640   64.6210   70.5390 C   0  0  0  0  0  0  0  0  0  0  0  0
    1.0820   65.9950   70.2370 C   0  0  0  0  0  0  0  0  0  0  0  0
   -0.5500   68.1780   66.9290 N   0  0  0  0  0  4  0  0  0  0  0  0
   -1.3020   67.2280   67.5280 C   0  0  0  0  0  0  0  0  0  0  0  0
   -0.8300   66.5510   68.6490 C   0  0  0  0  0  0  0  0  0  0  0  0
    0.4510   66.8140   69.1330 C   0  0  0  0  0  0  0  0  0  0  0  0
    1.1640   67.8620   68.5490 C   0  0  0  0  0  0  0  0  0  0  0  0
    0.6470   68.5290   67.4430 C   0  0  0  0  0  0  0  0  0  0  0  0
   -1.0230   68.8030   65.6660 C   0  0  0  0  0  0  0  0  0  0  0  0
    0.0350   68.6340   64.5800 C   0  0  0  0  0  0  0  0  0  0  0  0
   -0.0270   69.4730   62.3710 C   0  0  0  0  0  0  0  0  0  0  0  0
   -0.6100   68.5670   63.3060 O   0  0  0  0  0  0  0  0  0  0  0  0
   -0.4786   64.1861   73.0082 H   0  0  0  0  0  0  0  0  0  0  0  0
   -1.1441   61.8383   73.3600 H   0  0  0  0  0  0  0  0  0  0  0  0
   -0.6257   61.8306   71.6693 H   0  0  0  0  0  0  0  0  0  0  0  0
    3.4411   61.2428   75.2826 H   0  0  0  0  0  0  0  0  0  0  0  0
    0.3465   59.3630   71.7975 H   0  0  0  0  0  0  0  0  0  0  0  0
    4.2850   58.0346   71.2785 H   0  0  0  0  0  0  0  0  0  0  0  0
    3.0029   56.9972   70.5667 H   0  0  0  0  0  0  0  0  0  0  0  0
    2.8157   58.7837   70.5667 H   0  0  0  0  0  0  0  0  0  0  0  0
    4.2017   59.0430   76.3859 H   0  0  0  0  0  0  0  0  0  0  0  0
    2.9519   57.9636   75.6790 H   0  0  0  0  0  0  0  0  0  0  0  0
    4.6766   57.4614   75.6790 H   0  0  0  0  0  0  0  0  0  0  0  0
    0.5220   64.0174   69.6212 H   0  0  0  0  0  0  0  0  0  0  0  0
   -0.5613   64.8269   70.8802 H   0  0  0  0  0  0  0  0  0  0  0  0
    1.0302   66.5904   71.1605 H   0  0  0  0  0  0  0  0  0  0  0  0
    2.0980   65.7739   69.8780 H   0  0  0  0  0  0  0  0  0  0  0  0
   -2.2971   66.9874   67.1256 H   0  0  0  0  0  0  0  0  0  0  0  0
   -1.4671   65.8091   69.1527 H   0  0  0  0  0  0  0  0  0  0  0  0
    2.1375   68.1615   68.9644 H   0  0  0  0  0  0  0  0  0  0  0  0
    1.2187   69.3490   66.9840 H   0  0  0  0  0  0  0  0  0  0  0  0
   -1.9567   68.3177   65.3454 H   0  0  0  0  0  0  0  0  0  0  0  0
   -1.2026   69.8749   65.8354 H   0  0  0  0  0  0  0  0  0  0  0  0
    0.7236   69.4916   64.5998 H   0  0  0  0  0  0  0  0  0  0  0  0
    0.6037   67.7092   64.7569 H   0  0  0  0  0  0  0  0  0  0  0  0
    0.4907   70.2775   62.9139 H   0  0  0  0  0  0  0  0  0  0  0  0
    0.6942   68.9340   61.7390 H   0  0  0  0  0  0  0  0  0  0  0  0
   -0.8163   69.9061   61.7390 H   0  0  0  0  0  0  0  0  0  0  0  0
  2  1  2  0
  3  1  1  0
  4  3  1  0
  5  4  1  0
  6  5  2  0
  7  6  1  0
  7  3  1  0
  8  6  1  0
  9  8  2  0
 10  9  1  0
 11 10  2  0
 11  5  1  0
 12 10  1  0
 13 12  1  0
 14  9  1  0
 15 14  1  0
 16  1  1  0
 17 16  1  0
 19 18  2  0
 20 19  1  0
 21 20  2  0
 21 17  1  0
 22 21  1  0
 23 22  2  0
 23 18  1  0
 24 18  1  0
 25 24  1  0
 27 26  1  0
 27 25  1  0
  3 28  1  1
  4 29  1  0
  4 30  1  0
  8 31  1  0
 11 32  1  0
 13 33  1  0
 13 34  1  0
 13 35  1  0
 15 36  1  0
 15 37  1  0
 15 38  1  0
 16 39  1  0
 16 40  1  0
 17 41  1  0
 17 42  1  0
 19 43  1  0
 20 44  1  0
 22 45  1  0
 23 46  1  0
 24 47  1  0
 24 48  1  0
 25 49  1  0
 25 50  1  0
 26 51  1  0
 26 52  1  0
 26 53  1  0
M  CHG  1  18   1
M  END
>  <score>  (4) 
-7.574

$$$$
=
     RDKit          3D

 53 55  0  0  0  0  0  0  0  0999 V2000
    3.1120   62.5780   69.7900 C   0  0  0  0  0  0  0  0  0  0  0  0
    2.2660   62.3350   68.9190 O   0  0  0  0  0  0  0  0  0  0  0  0
    4.2750   61.6160   70.0610 C   0  0  1  0  0  0  0  0  0  0  0  0
    4.7380   61.7370   71.5280 C   0  0  0  0  0  0  0  0  0  0  0  0
    3.7820   60.8870   72.3280 C   0  0  0  0  0  0  0  0  0  0  0  0
    3.2670   59.8080   71.6060 C   0  0  0  0  0  0  0  0  0  0  0  0
    3.7520   59.8710   69.9060 S   0  0  0  0  0  0  0  0  0  0  0  0
    2.3910   58.9100   72.1850 C   0  0  0  0  0  0  0  0  0  0  0  0
    1.9810   59.1480   73.4980 C   0  0  0  0  0  0  0  0  0  0  0  0
    2.4590   60.2530   74.2330 C   0  0  0  0  0  0  0  0  0  0  0  0
    3.3970   61.1110   73.6470 C   0  0  0  0  0  0  0  0  0  0  0  0
    1.9020   60.4460   75.4700 O   0  0  0  0  0  0  0  0  0  0  0  0
    2.6860   60.0330   76.5870 C   0  0  0  0  0  0  0  0  0  0  0  0
    0.9940   58.3310   73.9970 O   0  0  0  0  0  0  0  0  0  0  0  0
    1.3970   56.9610   73.8860 C   0  0  0  0  0  0  0  0  0  0  0  0
    2.9360   63.8250   70.6450 C   0  0  0  0  0  0  0  0  0  0  0  0
    1.4880   64.2120   70.9850 C   0  0  0  0  0  0  0  0  0  0  0  0
   -0.6790   62.1630   74.0640 N   0  0  0  0  0  4  0  0  0  0  0  0
   -0.6880   61.6650   72.8070 C   0  0  0  0  0  0  0  0  0  0  0  0
    0.0630   62.2650   71.8000 C   0  0  0  0  0  0  0  0  0  0  0  0
    0.7940   63.4210   72.0720 C   0  0  0  0  0  0  0  0  0  0  0  0
    0.8550   63.8560   73.3970 C   0  0  0  0  0  0  0  0  0  0  0  0
    0.1070   63.2140   74.3780 C   0  0  0  0  0  0  0  0  0  0  0  0
   -1.5780   61.5790   75.0940 C   0  0  0  0  0  0  0  0  0  0  0  0
   -1.9910   62.6590   76.0880 C   0  0  0  0  0  0  0  0  0  0  0  0
   -4.1540   63.1330   76.9160 C   0  0  0  0  0  0  0  0  0  0  0  0
   -3.3090   63.1100   75.7670 O   0  0  0  0  0  0  0  0  0  0  0  0
    5.0590   61.8779   69.3352 H   0  0  0  0  0  0  0  0  0  0  0  0
    5.7670   61.3640   71.6376 H   0  0  0  0  0  0  0  0  0  0  0  0
    4.7361   62.7825   71.8699 H   0  0  0  0  0  0  0  0  0  0  0  0
    2.0276   58.0338   71.6280 H   0  0  0  0  0  0  0  0  0  0  0  0
    3.8229   61.9484   74.2192 H   0  0  0  0  0  0  0  0  0  0  0  0
    2.1688   60.3055   77.5188 H   0  0  0  0  0  0  0  0  0  0  0  0
    2.8284   58.9428   76.5520 H   0  0  0  0  0  0  0  0  0  0  0  0
    3.6656   60.5321   76.5520 H   0  0  0  0  0  0  0  0  0  0  0  0
    1.5228   56.5332   74.8916 H   0  0  0  0  0  0  0  0  0  0  0  0
    0.6272   56.3954   73.3406 H   0  0  0  0  0  0  0  0  0  0  0  0
    2.3505   56.9023   73.3406 H   0  0  0  0  0  0  0  0  0  0  0  0
    3.4716   63.6618   71.5919 H   0  0  0  0  0  0  0  0  0  0  0  0
    3.3302   64.6557   70.0412 H   0  0  0  0  0  0  0  0  0  0  0  0
    1.4926   65.2671   71.2962 H   0  0  0  0  0  0  0  0  0  0  0  0
    0.9164   63.9957   70.0704 H   0  0  0  0  0  0  0  0  0  0  0  0
   -1.2949   60.7767   72.5777 H   0  0  0  0  0  0  0  0  0  0  0  0
    0.0798   61.8277   70.7908 H   0  0  0  0  0  0  0  0  0  0  0  0
    1.4961   64.7085   73.6658 H   0  0  0  0  0  0  0  0  0  0  0  0
    0.1565   63.5660   75.4190 H   0  0  0  0  0  0  0  0  0  0  0  0
   -2.4746   61.1687   74.6065 H   0  0  0  0  0  0  0  0  0  0  0  0
   -1.0476   60.7765   75.6276 H   0  0  0  0  0  0  0  0  0  0  0  0
   -1.9812   62.2450   77.1071 H   0  0  0  0  0  0  0  0  0  0  0  0
   -1.2869   63.5023   76.0332 H   0  0  0  0  0  0  0  0  0  0  0  0
   -3.5361   63.1162   77.8259 H   0  0  0  0  0  0  0  0  0  0  0  0
   -4.7643   64.0481   76.9041 H   0  0  0  0  0  0  0  0  0  0  0  0
   -4.8132   62.2525   76.9041 H   0  0  0  0  0  0  0  0  0  0  0  0
  2  1  2  0
  3  1  1  0
  4  3  1  0
  5  4  1  0
  6  5  2  0
  7  6  1  0
  7  3  1  0
  8  6  1  0
  9  8  2  0
 10  9  1  0
 11 10  2  0
 11  5  1  0
 12 10  1  0
 13 12  1  0
 14  9  1  0
 15 14  1  0
 16  1  1  0
 17 16  1  0
 19 18  2  0
 20 19  1  0
 21 20  2  0
 21 17  1  0
 22 21  1  0
 23 22  2  0
 23 18  1  0
 24 18  1  0
 25 24  1  0
 27 26  1  0
 27 25  1  0
  3 28  1  6
  4 29  1  0
  4 30  1  0
  8 31  1  0
 11 32  1  0
 13 33  1  0
 13 34  1  0
 13 35  1  0
 15 36  1  0
 15 37  1  0
 15 38  1  0
 16 39  1  0
 16 40  1  0
 17 41  1  0
 17 42  1  0
 19 43  1  0
 20 44  1  0
 22 45  1  0
 23 46  1  0
 24 47  1  0
 24 48  1  0
 25 49  1  0
 25 50  1  0
 26 51  1  0
 26 52  1  0
 26 53  1  0
M  CHG  1  18   1
M  END
>  <score>  (5) 
-7.479

$$$$
=
     RDKit          3D

 53 55  0  0  0  0  0  0  0  0999 V2000
    4.4820   62.8840   70.4650 C   0  0  0  0  0  0  0  0  0  0  0  0
    5.0220   63.8080   71.0880 O   0  0  0  0  0  0  0  0  0  0  0  0
    3.2090   63.1150   69.6410 C   0  0  1  0  0  0  0  0  0  0  0  0
    2.2280   61.9380   69.8300 C   0  0  0  0  0  0  0  0  0  0  0  0
    1.5020   62.2170   71.1230 C   0  0  0  0  0  0  0  0  0  0  0  0
    1.3770   63.5790   71.4020 C   0  0  0  0  0  0  0  0  0  0  0  0
    2.2750   64.5680   70.2420 S   0  0  0  0  0  0  0  0  0  0  0  0
    0.7230   64.0220   72.5350 C   0  0  0  0  0  0  0  0  0  0  0  0
    0.2440   63.0660   73.4320 C   0  0  0  0  0  0  0  0  0  0  0  0
    0.3920   61.6840   73.1880 C   0  0  0  0  0  0  0  0  0  0  0  0
    1.0000   61.2600   72.0010 C   0  0  0  0  0  0  0  0  0  0  0  0
   -0.0180   60.8430   74.1890 O   0  0  0  0  0  0  0  0  0  0  0  0
   -0.9630   59.8400   73.8230 C   0  0  0  0  0  0  0  0  0  0  0  0
   -0.2640   63.5300   74.6220 O   0  0  0  0  0  0  0  0  0  0  0  0
    0.7810   64.1340   75.3930 C   0  0  0  0  0  0  0  0  0  0  0  0
    5.0660   61.4840   70.5920 C   0  0  0  0  0  0  0  0  0  0  0  0
    5.1020   60.8920   72.0090 C   0  0  0  0  0  0  0  0  0  0  0  0
    2.2720   57.7860   72.8560 N   0  0  0  0  0  4  0  0  0  0  0  0
    2.7360   57.9290   71.5950 C   0  0  0  0  0  0  0  0  0  0  0  0
    3.7090   58.8800   71.3010 C   0  0  0  0  0  0  0  0  0  0  0  0
    4.1760   59.7320   72.3010 C   0  0  0  0  0  0  0  0  0  0  0  0
    3.7440   59.4980   73.6080 C   0  0  0  0  0  0  0  0  0  0  0  0
    2.7870   58.5210   73.8640 C   0  0  0  0  0  0  0  0  0  0  0  0
    1.1510   56.8480   73.1260 C   0  0  0  0  0  0  0  0  0  0  0  0
    1.3190   56.2280   74.5090 C   0  0  0  0  0  0  0  0  0  0  0  0
    1.8450   53.9410   74.7920 C   0  0  0  0  0  0  0  0  0  0  0  0
    0.8230   54.8880   74.4850 O   0  0  0  0  0  0  0  0  0  0  0  0
    3.5421   63.2398   68.6001 H   0  0  0  0  0  0  0  0  0  0  0  0
    1.5165   61.8931   68.9923 H   0  0  0  0  0  0  0  0  0  0  0  0
    2.7530   60.9718   69.8588 H   0  0  0  0  0  0  0  0  0  0  0  0
    0.5838   65.0965   72.7248 H   0  0  0  0  0  0  0  0  0  0  0  0
    1.0800   60.1885   71.7655 H   0  0  0  0  0  0  0  0  0  0  0  0
   -1.3886   59.3883   74.7312 H   0  0  0  0  0  0  0  0  0  0  0  0
   -1.7684   60.2948   73.2277 H   0  0  0  0  0  0  0  0  0  0  0  0
   -0.4610   59.0630   73.2277 H   0  0  0  0  0  0  0  0  0  0  0  0
    0.5652   64.0093   76.4644 H   0  0  0  0  0  0  0  0  0  0  0  0
    1.7397   63.6507   75.1534 H   0  0  0  0  0  0  0  0  0  0  0  0
    0.8408   65.2059   75.1534 H   0  0  0  0  0  0  0  0  0  0  0  0
    4.4657   60.8112   69.9620 H   0  0  0  0  0  0  0  0  0  0  0  0
    6.1178   61.5738   70.2828 H   0  0  0  0  0  0  0  0  0  0  0  0
    6.1301   60.5494   72.1978 H   0  0  0  0  0  0  0  0  0  0  0  0
    4.7514   61.7041   72.6629 H   0  0  0  0  0  0  0  0  0  0  0  0
    2.3411   57.2878   70.7932 H   0  0  0  0  0  0  0  0  0  0  0  0
    4.1095   58.9594   70.2796 H   0  0  0  0  0  0  0  0  0  0  0  0
    4.1614   60.0877   74.4375 H   0  0  0  0  0  0  0  0  0  0  0  0
    2.4476   58.3463   74.8957 H   0  0  0  0  0  0  0  0  0  0  0  0
    0.1981   57.3960   73.0846 H   0  0  0  0  0  0  0  0  0  0  0  0
    1.1531   56.0511   72.3677 H   0  0  0  0  0  0  0  0  0  0  0  0
    2.3844   56.2214   74.7826 H   0  0  0  0  0  0  0  0  0  0  0  0
    0.7581   56.8172   75.2495 H   0  0  0  0  0  0  0  0  0  0  0  0
    1.9440   53.8493   75.8837 H   0  0  0  0  0  0  0  0  0  0  0  0
    1.5790   52.9630   74.3645 H   0  0  0  0  0  0  0  0  0  0  0  0
    2.8000   54.2806   74.3645 H   0  0  0  0  0  0  0  0  0  0  0  0
  2  1  2  0
  3  1  1  0
  4  3  1  0
  5  4  1  0
  6  5  2  0
  7  6  1  0
  7  3  1  0
  8  6  1  0
  9  8  2  0
 10  9  1  0
 11 10  2  0
 11  5  1  0
 12 10  1  0
 13 12  1  0
 14  9  1  0
 15 14  1  0
 16  1  1  0
 17 16  1  0
 19 18  2  0
 20 19  1  0
 21 20  2  0
 21 17  1  0
 22 21  1  0
 23 22  2  0
 23 18  1  0
 24 18  1  0
 25 24  1  0
 27 26  1  0
 27 25  1  0
  3 28  1  6
  4 29  1  0
  4 30  1  0
  8 31  1  0
 11 32  1  0
 13 33  1  0
 13 34  1  0
 13 35  1  0
 15 36  1  0
 15 37  1  0
 15 38  1  0
 16 39  1  0
 16 40  1  0
 17 41  1  0
 17 42  1  0
 19 43  1  0
 20 44  1  0
 22 45  1  0
 23 46  1  0
 24 47  1  0
 24 48  1  0
 25 49  1  0
 25 50  1  0
 26 51  1  0
 26 52  1  0
 26 53  1  0
M  CHG  1  18   1
M  END
>  <score>  (6) 
-7.393

$$$$
=
     RDKit          3D

 53 55  0  0  0  0  0  0  0  0999 V2000
    3.6810   62.4390   70.2430 C   0  0  0  0  0  0  0  0  0  0  0  0
    4.1140   63.5290   70.6410 O   0  0  0  0  0  0  0  0  0  0  0  0
    4.6110   61.2350   70.0490 C   0  0  1  0  0  0  0  0  0  0  0  0
    5.3140   60.8830   71.3780 C   0  0  0  0  0  0  0  0  0  0  0  0
    4.3210   60.0550   72.1560 C   0  0  0  0  0  0  0  0  0  0  0  0
    3.4600   59.3170   71.3400 C   0  0  0  0  0  0  0  0  0  0  0  0
    3.6740   59.7230   69.6320 S   0  0  0  0  0  0  0  0  0  0  0  0
    2.4980   58.4860   71.8790 C   0  0  0  0  0  0  0  0  0  0  0  0
    2.3650   58.4510   73.2690 C   0  0  0  0  0  0  0  0  0  0  0  0
    3.2000   59.2160   74.1100 C   0  0  0  0  0  0  0  0  0  0  0  0
    4.2100   60.0000   73.5420 C   0  0  0  0  0  0  0  0  0  0  0  0
    2.9040   59.1860   75.4480 O   0  0  0  0  0  0  0  0  0  0  0  0
    3.7520   58.3810   76.2640 C   0  0  0  0  0  0  0  0  0  0  0  0
    1.3030   57.7370   73.7730 O   0  0  0  0  0  0  0  0  0  0  0  0
    1.5450   56.3340   73.6160 C   0  0  0  0  0  0  0  0  0  0  0  0
    2.2080   62.3340   69.8760 C   0  0  0  0  0  0  0  0  0  0  0  0
    1.2250   63.0540   70.8120 C   0  0  0  0  0  0  0  0  0  0  0  0
    0.5310   61.6400   74.7990 N   0  0  0  0  0  4  0  0  0  0  0  0
   -0.1440   61.0770   73.7720 C   0  0  0  0  0  0  0  0  0  0  0  0
    0.1100   61.4630   72.4590 C   0  0  0  0  0  0  0  0  0  0  0  0
    1.0320   62.4760   72.1960 C   0  0  0  0  0  0  0  0  0  0  0  0
    1.7760   62.9710   73.2680 C   0  0  0  0  0  0  0  0  0  0  0  0
    1.5060   62.5420   74.5640 C   0  0  0  0  0  0  0  0  0  0  0  0
    0.1620   61.2990   76.1970 C   0  0  0  0  0  0  0  0  0  0  0  0
   -1.2280   61.8430   76.5100 C   0  0  0  0  0  0  0  0  0  0  0  0
   -2.4240   63.8370   76.9380 C   0  0  0  0  0  0  0  0  0  0  0  0
   -1.1380   63.2500   76.7450 O   0  0  0  0  0  0  0  0  0  0  0  0
    5.3106   61.5200   69.2494 H   0  0  0  0  0  0  0  0  0  0  0  0
    6.2297   60.3044   71.1864 H   0  0  0  0  0  0  0  0  0  0  0  0
    5.6133   61.7853   71.9313 H   0  0  0  0  0  0  0  0  0  0  0  0
    1.8554   57.8698   71.2329 H   0  0  0  0  0  0  0  0  0  0  0  0
    4.9054   60.5640   74.1810 H   0  0  0  0  0  0  0  0  0  0  0  0
    3.5396   58.5826   77.3243 H   0  0  0  0  0  0  0  0  0  0  0  0
    3.5669   57.3183   76.0486 H   0  0  0  0  0  0  0  0  0  0  0  0
    4.8037   58.6211   76.0486 H   0  0  0  0  0  0  0  0  0  0  0  0
    1.6263   55.8628   74.6067 H   0  0  0  0  0  0  0  0  0  0  0  0
    0.7122   55.8782   73.0604 H   0  0  0  0  0  0  0  0  0  0  0  0
    2.4824   56.1835   73.0604 H   0  0  0  0  0  0  0  0  0  0  0  0
    2.0820   62.7555   68.8678 H   0  0  0  0  0  0  0  0  0  0  0  0
    1.9599   61.2651   69.9528 H   0  0  0  0  0  0  0  0  0  0  0  0
    1.5814   64.0876   70.9328 H   0  0  0  0  0  0  0  0  0  0  0  0
    0.2445   62.9498   70.3243 H   0  0  0  0  0  0  0  0  0  0  0  0
   -0.9016   60.3060   73.9760 H   0  0  0  0  0  0  0  0  0  0  0  0
   -0.4164   60.9692   71.6289 H   0  0  0  0  0  0  0  0  0  0  0  0
    2.5779   63.7021   73.0880 H   0  0  0  0  0  0  0  0  0  0  0  0
    2.0928   62.9419   75.4041 H   0  0  0  0  0  0  0  0  0  0  0  0
    0.1626   60.2058   76.3189 H   0  0  0  0  0  0  0  0  0  0  0  0
    0.8923   61.7483   76.8860 H   0  0  0  0  0  0  0  0  0  0  0  0
   -1.8979   61.6540   75.6582 H   0  0  0  0  0  0  0  0  0  0  0  0
   -1.6288   61.3430   77.4041 H   0  0  0  0  0  0  0  0  0  0  0  0
   -2.6269   63.9296   78.0152 H   0  0  0  0  0  0  0  0  0  0  0  0
   -2.4454   64.8340   76.4738 H   0  0  0  0  0  0  0  0  0  0  0  0
   -3.1913   63.1999   76.4738 H   0  0  0  0  0  0  0  0  0  0  0  0
  2  1  2  0
  3  1  1  0
  4  3  1  0
  5  4  1  0
  6  5  2  0
  7  6  1  0
  7  3  1  0
  8  6  1  0
  9  8  2  0
 10  9  1  0
 11 10  2  0
 11  5  1  0
 12 10  1  0
 13 12  1  0
 14  9  1  0
 15 14  1  0
 16  1  1  0
 17 16  1  0
 19 18  2  0
 20 19  1  0
 21 20  2  0
 21 17  1  0
 22 21  1  0
 23 22  2  0
 23 18  1  0
 24 18  1  0
 25 24  1  0
 27 26  1  0
 27 25  1  0
  3 28  1  6
  4 29  1  0
  4 30  1  0
  8 31  1  0
 11 32  1  0
 13 33  1  0
 13 34  1  0
 13 35  1  0
 15 36  1  0
 15 37  1  0
 15 38  1  0
 16 39  1  0
 16 40  1  0
 17 41  1  0
 17 42  1  0
 19 43  1  0
 20 44  1  0
 22 45  1  0
 23 46  1  0
 24 47  1  0
 24 48  1  0
 25 49  1  0
 25 50  1  0
 26 51  1  0
 26 52  1  0
 26 53  1  0
M  CHG  1  18   1
M  END
>  <score>  (7) 
-7.306

$$$$
=
     RDKit          3D

 53 55  0  0  0  0  0  0  0  0999 V2000
    3.9510   59.3980   70.6850 C   0  0  0  0  0  0  0  0  0  0  0  0
    3.7900   59.1760   69.4770 O   0  0  0  0  0  0  0  0  0  0  0  0
    4.8290   60.5570   71.1710 C   0  0  1  0  0  0  0  0  0  0  0  0
    4.5870   61.8120   70.3040 C   0  0  0  0  0  0  0  0  0  0  0  0
    3.3410   62.4560   70.8620 C   0  0  0  0  0  0  0  0  0  0  0  0
    3.1660   62.2270   72.2280 C   0  0  0  0  0  0  0  0  0  0  0  0
    4.3660   61.0890   72.8570 S   0  0  0  0  0  0  0  0  0  0  0  0
    2.0900   62.7570   72.9120 C   0  0  0  0  0  0  0  0  0  0  0  0
    1.1410   63.4780   72.1850 C   0  0  0  0  0  0  0  0  0  0  0  0
    1.2790   63.6910   70.7970 C   0  0  0  0  0  0  0  0  0  0  0  0
    2.4120   63.1990   70.1390 C   0  0  0  0  0  0  0  0  0  0  0  0
    0.2330   64.3160   70.1710 O   0  0  0  0  0  0  0  0  0  0  0  0
    0.3260   65.7340   70.0500 C   0  0  0  0  0  0  0  0  0  0  0  0
    0.0050   63.8630   72.8570 O   0  0  0  0  0  0  0  0  0  0  0  0
    0.2600   63.8850   74.2660 C   0  0  0  0  0  0  0  0  0  0  0  0
    3.3150   58.4480   71.6890 C   0  0  0  0  0  0  0  0  0  0  0  0
    1.9530   58.8770   72.2570 C   0  0  0  0  0  0  0  0  0  0  0  0
   -0.3330   56.0210   74.4910 N   0  0  0  0  0  4  0  0  0  0  0  0
    0.8340   55.6360   73.9280 C   0  0  0  0  0  0  0  0  0  0  0  0
    1.6350   56.5560   73.2570 C   0  0  0  0  0  0  0  0  0  0  0  0
    1.2120   57.8770   73.1170 C   0  0  0  0  0  0  0  0  0  0  0  0
    0.0490   58.2620   73.7870 C   0  0  0  0  0  0  0  0  0  0  0  0
   -0.7120   57.3160   74.4660 C   0  0  0  0  0  0  0  0  0  0  0  0
   -1.2290   55.0020   75.0990 C   0  0  0  0  0  0  0  0  0  0  0  0
   -0.6850   53.6050   74.8180 C   0  0  0  0  0  0  0  0  0  0  0  0
    0.9360   52.2000   75.8120 C   0  0  0  0  0  0  0  0  0  0  0  0
   -0.1950   53.0410   76.0370 O   0  0  0  0  0  0  0  0  0  0  0  0
    5.8651   60.1904   71.1244 H   0  0  0  0  0  0  0  0  0  0  0  0
    5.4415   62.5007   70.3782 H   0  0  0  0  0  0  0  0  0  0  0  0
    4.4719   61.5562   69.2404 H   0  0  0  0  0  0  0  0  0  0  0  0
    1.9837   62.6153   73.9976 H   0  0  0  0  0  0  0  0  0  0  0  0
    2.5659   63.3962   69.0678 H   0  0  0  0  0  0  0  0  0  0  0  0
    0.3557   66.1864   71.0522 H   0  0  0  0  0  0  0  0  0  0  0  0
    1.2433   65.9959   69.5022 H   0  0  0  0  0  0  0  0  0  0  0  0
   -0.5492   66.1134   69.5022 H   0  0  0  0  0  0  0  0  0  0  0  0
   -0.6913   63.8029   74.8121 H   0  0  0  0  0  0  0  0  0  0  0  0
    0.9108   63.0397   74.5341 H   0  0  0  0  0  0  0  0  0  0  0  0
    0.7564   64.8293   74.5341 H   0  0  0  0  0  0  0  0  0  0  0  0
    3.1810   57.4754   71.1930 H   0  0  0  0  0  0  0  0  0  0  0  0
    4.0000   58.4256   72.5494 H   0  0  0  0  0  0  0  0  0  0  0  0
    2.1184   59.7778   72.8663 H   0  0  0  0  0  0  0  0  0  0  0  0
    1.3119   59.0191   71.3745 H   0  0  0  0  0  0  0  0  0  0  0  0
    1.1538   54.5860   74.0007 H   0  0  0  0  0  0  0  0  0  0  0  0
    2.6016   56.2406   72.8373 H   0  0  0  0  0  0  0  0  0  0  0  0
   -0.2662   59.3158   73.7779 H   0  0  0  0  0  0  0  0  0  0  0  0
   -1.6300   57.6260   74.9867 H   0  0  0  0  0  0  0  0  0  0  0  0
   -1.2804   55.1624   76.1860 H   0  0  0  0  0  0  0  0  0  0  0  0
   -2.2348   55.0954   74.6635 H   0  0  0  0  0  0  0  0  0  0  0  0
   -1.4884   52.9708   74.4152 H   0  0  0  0  0  0  0  0  0  0  0  0
    0.1310   53.6655   74.0828 H   0  0  0  0  0  0  0  0  0  0  0  0
    1.3578   51.8864   76.7783 H   0  0  0  0  0  0  0  0  0  0  0  0
    0.6250   51.3120   75.2421 H   0  0  0  0  0  0  0  0  0  0  0  0
    1.6969   52.7534   75.2421 H   0  0  0  0  0  0  0  0  0  0  0  0
  2  1  2  0
  3  1  1  0
  4  3  1  0
  5  4  1  0
  6  5  2  0
  7  6  1  0
  7  3  1  0
  8  6  1  0
  9  8  2  0
 10  9  1  0
 11 10  2  0
 11  5  1  0
 12 10  1  0
 13 12  1  0
 14  9  1  0
 15 14  1  0
 16  1  1  0
 17 16  1  0
 19 18  2  0
 20 19  1  0
 21 20  2  0
 21 17  1  0
 22 21  1  0
 23 22  2  0
 23 18  1  0
 24 18  1  0
 25 24  1  0
 27 26  1  0
 27 25  1  0
  3 28  1  1
  4 29  1  0
  4 30  1  0
  8 31  1  0
 11 32  1  0
 13 33  1  0
 13 34  1  0
 13 35  1  0
 15 36  1  0
 15 37  1  0
 15 38  1  0
 16 39  1  0
 16 40  1  0
 17 41  1  0
 17 42  1  0
 19 43  1  0
 20 44  1  0
 22 45  1  0
 23 46  1  0
 24 47  1  0
 24 48  1  0
 25 49  1  0
 25 50  1  0
 26 51  1  0
 26 52  1  0
 26 53  1  0
M  CHG  1  18   1
M  END
>  <score>  (8) 
-7.195

$$$$
=
     RDKit          3D

 53 55  0  0  0  0  0  0  0  0999 V2000
    3.8610   59.7800   70.3490 C   0  0  0  0  0  0  0  0  0  0  0  0
    4.1430   59.3280   69.2320 O   0  0  0  0  0  0  0  0  0  0  0  0
    4.7380   60.8420   71.0230 C   0  0  1  0  0  0  0  0  0  0  0  0
    4.5870   62.1980   70.3010 C   0  0  0  0  0  0  0  0  0  0  0  0
    3.3270   62.8150   70.8550 C   0  0  0  0  0  0  0  0  0  0  0  0
    3.0570   62.4330   72.1710 C   0  0  0  0  0  0  0  0  0  0  0  0
    4.1830   61.1870   72.7300 S   0  0  0  0  0  0  0  0  0  0  0  0
    1.9550   62.9160   72.8480 C   0  0  0  0  0  0  0  0  0  0  0  0
    1.0750   63.7510   72.1560 C   0  0  0  0  0  0  0  0  0  0  0  0
    1.3080   64.1210   70.8150 C   0  0  0  0  0  0  0  0  0  0  0  0
    2.4670   63.6710   70.1720 C   0  0  0  0  0  0  0  0  0  0  0  0
    0.3220   64.8530   70.2070 O   0  0  0  0  0  0  0  0  0  0  0  0
    0.5700   66.2500   70.0630 C   0  0  0  0  0  0  0  0  0  0  0  0
   -0.0910   64.0940   72.8000 O   0  0  0  0  0  0  0  0  0  0  0  0
    0.0880   63.9850   74.2170 C   0  0  0  0  0  0  0  0  0  0  0  0
    2.6560   59.2060   71.0820 C   0  0  0  0  0  0  0  0  0  0  0  0
    2.8470   57.8170   71.7100 C   0  0  0  0  0  0  0  0  0  0  0  0
    0.6770   57.2670   75.3660 N   0  0  0  0  0  4  0  0  0  0  0  0
    0.2180   56.6890   74.2330 C   0  0  0  0  0  0  0  0  0  0  0  0
    0.9370   56.7880   73.0450 C   0  0  0  0  0  0  0  0  0  0  0  0
    2.1160   57.5320   73.0030 C   0  0  0  0  0  0  0  0  0  0  0  0
    2.6070   58.0390   74.2070 C   0  0  0  0  0  0  0  0  0  0  0  0
    1.8690   57.8990   75.3780 C   0  0  0  0  0  0  0  0  0  0  0  0
   -0.1620   57.2500   76.5920 C   0  0  0  0  0  0  0  0  0  0  0  0
   -0.4880   58.6790   77.0140 C   0  0  0  0  0  0  0  0  0  0  0  0
   -1.3350   60.7060   76.1400 C   0  0  0  0  0  0  0  0  0  0  0  0
   -1.3130   59.2850   76.0160 O   0  0  0  0  0  0  0  0  0  0  0  0
    5.7643   60.4470   70.9949 H   0  0  0  0  0  0  0  0  0  0  0  0
    5.4538   62.8425   70.5094 H   0  0  0  0  0  0  0  0  0  0  0  0
    4.5332   62.0739   69.2093 H   0  0  0  0  0  0  0  0  0  0  0  0
    1.7755   62.6512   73.9005 H   0  0  0  0  0  0  0  0  0  0  0  0
    2.6947   63.9885   69.1437 H   0  0  0  0  0  0  0  0  0  0  0  0
    0.6521   66.7123   71.0578 H   0  0  0  0  0  0  0  0  0  0  0  0
    1.5089   66.4006   69.5101 H   0  0  0  0  0  0  0  0  0  0  0  0
   -0.2597   66.7146   69.5101 H   0  0  0  0  0  0  0  0  0  0  0  0
   -0.7424   64.4907   74.7315 H   0  0  0  0  0  0  0  0  0  0  0  0
    0.1048   62.9232   74.5039 H   0  0  0  0  0  0  0  0  0  0  0  0
    1.0391   64.4574   74.5039 H   0  0  0  0  0  0  0  0  0  0  0  0
    2.3880   59.9054   71.8876 H   0  0  0  0  0  0  0  0  0  0  0  0
    1.8763   59.0800   70.3164 H   0  0  0  0  0  0  0  0  0  0  0  0
    2.5144   57.0724   70.9718 H   0  0  0  0  0  0  0  0  0  0  0  0
    3.9139   57.7715   71.9738 H   0  0  0  0  0  0  0  0  0  0  0  0
   -0.7324   56.1354   74.2502 H   0  0  0  0  0  0  0  0  0  0  0  0
    0.5752   56.2794   72.1393 H   0  0  0  0  0  0  0  0  0  0  0  0
    3.5804   58.5508   74.2302 H   0  0  0  0  0  0  0  0  0  0  0  0
    2.2606   58.3070   76.3215 H   0  0  0  0  0  0  0  0  0  0  0  0
   -1.0967   56.7072   76.3875 H   0  0  0  0  0  0  0  0  0  0  0  0
    0.3880   56.7483   77.4019 H   0  0  0  0  0  0  0  0  0  0  0  0
   -1.0222   58.6663   77.9755 H   0  0  0  0  0  0  0  0  0  0  0  0
    0.4431   59.2543   77.1244 H   0  0  0  0  0  0  0  0  0  0  0  0
   -1.3393   60.9811   77.2050 H   0  0  0  0  0  0  0  0  0  0  0  0
   -0.4433   61.1302   75.6553 H   0  0  0  0  0  0  0  0  0  0  0  0
   -2.2394   61.1024   75.6553 H   0  0  0  0  0  0  0  0  0  0  0  0
  2  1  2  0
  3  1  1  0
  4  3  1  0
  5  4  1  0
  6  5  2  0
  7  6  1  0
  7  3  1  0
  8  6  1  0
  9  8  2  0
 10  9  1  0
 11 10  2  0
 11  5  1  0
 12 10  1  0
 13 12  1  0
 14  9  1  0
 15 14  1  0
 16  1  1  0
 17 16  1  0
 19 18  2  0
 20 19  1  0
 21 20  2  0
 21 17  1  0
 22 21  1  0
 23 22  2  0
 23 18  1  0
 24 18  1  0
 25 24  1  0
 27 26  1  0
 27 25  1  0
  3 28  1  1
  4 29  1  0
  4 30  1  0
  8 31  1  0
 11 32  1  0
 13 33  1  0
 13 34  1  0
 13 35  1  0
 15 36  1  0
 15 37  1  0
 15 38  1  0
 16 39  1  0
 16 40  1  0
 17 41  1  0
 17 42  1  0
 19 43  1  0
 20 44  1  0
 22 45  1  0
 23 46  1  0
 24 47  1  0
 24 48  1  0
 25 49  1  0
 25 50  1  0
 26 51  1  0
 26 52  1  0
 26 53  1  0
M  CHG  1  18   1
M  END
>  <score>  (9) 
-6.889

$$$$
