=
     RDKit          3D

 40 41  0  0  0  0  0  0  0  0999 V2000
    1.1020   66.7270   69.0730 C   0  0  0  0  0  0  0  0  0  0  0  0
    0.5760   67.7680   68.3930 C   0  0  0  0  0  0  0  0  0  0  0  0
    0.4820   66.0800   70.2930 C   0  0  0  0  0  0  0  0  0  0  0  0
    2.4850   62.4150   71.1870 C   0  0  0  0  0  0  0  0  0  0  0  0
    1.1410   62.5940   71.5220 C   0  0  0  0  0  0  0  0  0  0  0  0
    0.1780   61.3770   72.2710 Cl  0  0  0  0  0  0  0  0  0  0  0  0
    0.5110   63.8030   71.2240 C   0  0  0  0  0  0  0  0  0  0  0  0
    1.1870   64.8130   70.6270 N   0  0  0  0  0  4  0  0  0  0  0  0
    2.4930   64.6600   70.3020 C   0  0  0  0  0  0  0  0  0  0  0  0
    3.1710   63.4720   70.5800 C   0  0  0  0  0  0  0  0  0  0  0  0
    4.8540   63.4580   70.2100 Cl  0  0  0  0  0  0  0  0  0  0  0  0
    3.4390   60.3150   70.4890 N   0  0  0  0  0  0  0  0  0  0  0  0
    3.1240   61.1140   71.4540 C   0  0  0  0  0  0  0  0  0  0  0  0
    4.0000   59.1570   71.0390 O   0  0  0  0  0  0  0  0  0  0  0  0
    1.1790   68.4030   67.1550 C   0  0  0  0  0  0  0  0  0  0  0  0
    2.4100   69.1550   67.5080 N   0  0  0  0  0  4  0  0  0  0  0  0
    2.4990   69.7910   68.7030 C   0  0  0  0  0  0  0  0  0  0  0  0
    3.6410   70.5070   69.0490 C   0  0  0  0  0  0  0  0  0  0  0  0
    4.7050   70.5580   68.1530 C   0  0  0  0  0  0  0  0  0  0  0  0
    4.6020   69.8870   66.9350 C   0  0  0  0  0  0  0  0  0  0  0  0
    3.4460   69.1830   66.6370 C   0  0  0  0  0  0  0  0  0  0  0  0
    5.9280   71.3570   68.4030 C   0  0  0  0  0  0  0  0  0  0  0  0
    5.9740   72.5220   68.0350 O   0  0  0  0  0  0  0  0  0  0  0  0
    6.9770   70.7540   69.0310 N   0  0  0  0  0  0  0  0  0  0  0  0
    2.0566   66.3166   68.7119 H   0  0  0  0  0  0  0  0  0  0  0  0
   -0.3679   68.1904   68.7680 H   0  0  0  0  0  0  0  0  0  0  0  0
    0.5558   66.7708   71.1458 H   0  0  0  0  0  0  0  0  0  0  0  0
   -0.5728   65.8537   70.0779 H   0  0  0  0  0  0  0  0  0  0  0  0
   -0.5508   63.9375   71.4779 H   0  0  0  0  0  0  0  0  0  0  0  0
    3.0283   65.4859   69.8107 H   0  0  0  0  0  0  0  0  0  0  0  0
    3.3362   60.8185   72.4921 H   0  0  0  0  0  0  0  0  0  0  0  0
    4.3043   58.4248   70.4463 H   0  0  0  0  0  0  0  0  0  0  0  0
    1.4306   67.6155   66.4293 H   0  0  0  0  0  0  0  0  0  0  0  0
    0.4478   69.0991   66.7181 H   0  0  0  0  0  0  0  0  0  0  0  0
    1.6565   69.7400   69.4084 H   0  0  0  0  0  0  0  0  0  0  0  0
    3.7020   71.0255   70.0172 H   0  0  0  0  0  0  0  0  0  0  0  0
    5.4332   69.9163   66.2151 H   0  0  0  0  0  0  0  0  0  0  0  0
    3.3695   68.6413   65.6827 H   0  0  0  0  0  0  0  0  0  0  0  0
    7.8396   71.2849   69.2178 H   0  0  0  0  0  0  0  0  0  0  0  0
    6.9070   69.7675   69.3187 H   0  0  0  0  0  0  0  0  0  0  0  0
  2  1  2  0
  3  1  1  0
  5  4  2  0
  6  5  1  0
  7  5  1  0
  8  7  2  0
  8  3  1  0
  9  8  1  0
 10  9  2  0
 10  4  1  0
 11 10  1  0
 13 12  2  0
 13  4  1  0
 14 12  1  0
 15  2  1  0
 16 15  1  0
 17 16  2  0
 18 17  1  0
 19 18  2  0
 20 19  1  0
 21 20  2  0
 21 16  1  0
 22 19  1  0
 23 22  2  0
 24 22  1  0
  1 25  1  0
  2 26  1  0
  3 27  1  0
  3 28  1  0
  7 29  1  0
  9 30  1  0
 13 31  1  0
 14 32  1  0
 15 33  1  0
 15 34  1  0
 17 35  1  0
 18 36  1  0
 20 37  1  0
 21 38  1  0
 24 39  1  0
 24 40  1  0
M  CHG  2   8   1  16   1
M  END
>  <score>  (1) 
-9.401

$$$$
=
     RDKit          3D

 40 41  0  0  0  0  0  0  0  0999 V2000
    1.0390   66.6730   69.0210 C   0  0  0  0  0  0  0  0  0  0  0  0
    0.6180   67.7830   68.3780 C   0  0  0  0  0  0  0  0  0  0  0  0
    0.3820   66.0740   70.2460 C   0  0  0  0  0  0  0  0  0  0  0  0
    2.3190   62.4460   71.3980 C   0  0  0  0  0  0  0  0  0  0  0  0
    3.0210   63.4450   70.7200 C   0  0  0  0  0  0  0  0  0  0  0  0
    4.6960   63.3330   70.3290 Cl  0  0  0  0  0  0  0  0  0  0  0  0
    2.3640   64.6190   70.3500 C   0  0  0  0  0  0  0  0  0  0  0  0
    1.0500   64.7990   70.6250 N   0  0  0  0  0  4  0  0  0  0  0  0
    0.3510   63.8370   71.2740 C   0  0  0  0  0  0  0  0  0  0  0  0
    0.9610   62.6440   71.6650 C   0  0  0  0  0  0  0  0  0  0  0  0
   -0.0730   61.4680   72.3850 Cl  0  0  0  0  0  0  0  0  0  0  0  0
    2.9910   60.1450   71.1410 N   0  0  0  0  0  0  0  0  0  0  0  0
    3.0370   61.2350   71.8350 C   0  0  0  0  0  0  0  0  0  0  0  0
    3.7360   59.1660   71.8050 O   0  0  0  0  0  0  0  0  0  0  0  0
    1.2570   68.3740   67.1360 C   0  0  0  0  0  0  0  0  0  0  0  0
    2.4720   69.1470   67.4980 N   0  0  0  0  0  4  0  0  0  0  0  0
    2.5480   69.7710   68.7010 C   0  0  0  0  0  0  0  0  0  0  0  0
    3.6740   70.5060   69.0560 C   0  0  0  0  0  0  0  0  0  0  0  0
    4.7370   70.5900   68.1610 C   0  0  0  0  0  0  0  0  0  0  0  0
    4.6480   69.9330   66.9340 C   0  0  0  0  0  0  0  0  0  0  0  0
    3.5070   69.2080   66.6280 C   0  0  0  0  0  0  0  0  0  0  0  0
    5.9440   71.4110   68.4210 C   0  0  0  0  0  0  0  0  0  0  0  0
    5.9670   72.5800   68.0610 O   0  0  0  0  0  0  0  0  0  0  0  0
    7.0020   70.8250   69.0470 N   0  0  0  0  0  0  0  0  0  0  0  0
    1.9294   66.1640   68.6234 H   0  0  0  0  0  0  0  0  0  0  0  0
   -0.2609   68.3015   68.7888 H   0  0  0  0  0  0  0  0  0  0  0  0
    0.4583   66.7850   71.0819 H   0  0  0  0  0  0  0  0  0  0  0  0
   -0.6743   65.8682   70.0184 H   0  0  0  0  0  0  0  0  0  0  0  0
    2.9215   65.4101   69.8272 H   0  0  0  0  0  0  0  0  0  0  0  0
   -0.7141   63.9986   71.4963 H   0  0  0  0  0  0  0  0  0  0  0  0
    3.6214   61.2590   72.7666 H   0  0  0  0  0  0  0  0  0  0  0  0
    3.8152   58.2577   71.4192 H   0  0  0  0  0  0  0  0  0  0  0  0
    1.5357   67.5608   66.4496 H   0  0  0  0  0  0  0  0  0  0  0  0
    0.5364   69.0481   66.6498 H   0  0  0  0  0  0  0  0  0  0  0  0
    1.7067   69.6942   69.4055 H   0  0  0  0  0  0  0  0  0  0  0  0
    3.7240   71.0139   70.0304 H   0  0  0  0  0  0  0  0  0  0  0  0
    5.4777   69.9898   66.2140 H   0  0  0  0  0  0  0  0  0  0  0  0
    3.4419   68.6762   65.6673 H   0  0  0  0  0  0  0  0  0  0  0  0
    7.8533   71.3716   69.2403 H   0  0  0  0  0  0  0  0  0  0  0  0
    6.9509   69.8352   69.3272 H   0  0  0  0  0  0  0  0  0  0  0  0
  2  1  2  0
  3  1  1  0
  5  4  2  0
  6  5  1  0
  7  5  1  0
  8  7  2  0
  8  3  1  0
  9  8  1  0
 10  9  2  0
 10  4  1  0
 11 10  1  0
 13 12  2  0
 13  4  1  0
 14 12  1  0
 15  2  1  0
 16 15  1  0
 17 16  2  0
 18 17  1  0
 19 18  2  0
 20 19  1  0
 21 20  2  0
 21 16  1  0
 22 19  1  0
 23 22  2  0
 24 22  1  0
  1 25  1  0
  2 26  1  0
  3 27  1  0
  3 28  1  0
  7 29  1  0
  9 30  1  0
 13 31  1  0
 14 32  1  0
 15 33  1  0
 15 34  1  0
 17 35  1  0
 18 36  1  0
 20 37  1  0
 21 38  1  0
 24 39  1  0
 24 40  1  0
M  CHG  2   8   1  16   1
M  END
>  <score>  (2) 
-9.363

$$$$
=
     RDKit          3D

 40 41  0  0  0  0  0  0  0  0999 V2000
    1.2430   64.7570   70.7070 C   0  0  0  0  0  0  0  0  0  0  0  0
    0.5850   65.8370   70.2330 C   0  0  0  0  0  0  0  0  0  0  0  0
    0.6420   63.6950   71.6020 C   0  0  0  0  0  0  0  0  0  0  0  0
    2.8330   60.0420   71.2880 C   0  0  0  0  0  0  0  0  0  0  0  0
    1.8410   60.1970   72.2570 C   0  0  0  0  0  0  0  0  0  0  0  0
    1.3880   58.9540   73.3620 Cl  0  0  0  0  0  0  0  0  0  0  0  0
    1.1420   61.4020   72.3430 C   0  0  0  0  0  0  0  0  0  0  0  0
    1.4230   62.4320   71.5090 N   0  0  0  0  0  4  0  0  0  0  0  0
    2.3890   62.3020   70.5680 C   0  0  0  0  0  0  0  0  0  0  0  0
    3.1180   61.1190   70.4420 C   0  0  0  0  0  0  0  0  0  0  0  0
    4.3870   61.1340   69.2750 Cl  0  0  0  0  0  0  0  0  0  0  0  0
    3.2510   57.9290   70.2060 N   0  0  0  0  0  0  0  0  0  0  0  0
    3.5250   58.7460   71.1690 C   0  0  0  0  0  0  0  0  0  0  0  0
    4.0340   56.7810   70.3630 O   0  0  0  0  0  0  0  0  0  0  0  0
    1.1740   66.8910   69.3150 C   0  0  0  0  0  0  0  0  0  0  0  0
    0.1600   67.3390   68.3270 N   0  0  0  0  0  4  0  0  0  0  0  0
    0.4910   68.2480   67.3760 C   0  0  0  0  0  0  0  0  0  0  0  0
   -0.4460   68.6850   66.4460 C   0  0  0  0  0  0  0  0  0  0  0  0
   -1.7380   68.1710   66.4950 C   0  0  0  0  0  0  0  0  0  0  0  0
   -2.0590   67.2280   67.4700 C   0  0  0  0  0  0  0  0  0  0  0  0
   -1.0900   66.8190   68.3720 C   0  0  0  0  0  0  0  0  0  0  0  0
   -2.8220   68.6330   65.5950 C   0  0  0  0  0  0  0  0  0  0  0  0
   -3.9640   68.7200   66.0210 O   0  0  0  0  0  0  0  0  0  0  0  0
   -2.5050   68.9380   64.3050 N   0  0  0  0  0  0  0  0  0  0  0  0
    2.2985   64.6402   70.4200 H   0  0  0  0  0  0  0  0  0  0  0  0
   -0.4644   65.9626   70.5378 H   0  0  0  0  0  0  0  0  0  0  0  0
    0.6518   64.0508   72.6428 H   0  0  0  0  0  0  0  0  0  0  0  0
   -0.3908   63.4993   71.2778 H   0  0  0  0  0  0  0  0  0  0  0  0
    0.3513   61.5171   73.0990 H   0  0  0  0  0  0  0  0  0  0  0  0
    2.6022   63.1432   69.8920 H   0  0  0  0  0  0  0  0  0  0  0  0
    4.2873   58.4697   71.9123 H   0  0  0  0  0  0  0  0  0  0  0  0
    3.9593   56.0381   69.7129 H   0  0  0  0  0  0  0  0  0  0  0  0
    1.5014   67.7528   69.9151 H   0  0  0  0  0  0  0  0  0  0  0  0
    2.0308   66.4587   68.7773 H   0  0  0  0  0  0  0  0  0  0  0  0
    1.5161   68.6454   67.3400 H   0  0  0  0  0  0  0  0  0  0  0  0
   -0.1696   69.4268   65.6822 H   0  0  0  0  0  0  0  0  0  0  0  0
   -3.0755   66.8110   67.5230 H   0  0  0  0  0  0  0  0  0  0  0  0
   -1.3384   66.0641   69.1326 H   0  0  0  0  0  0  0  0  0  0  0  0
   -3.2377   69.2614   63.6573 H   0  0  0  0  0  0  0  0  0  0  0  0
   -1.5328   68.8451   63.9778 H   0  0  0  0  0  0  0  0  0  0  0  0
  2  1  2  0
  3  1  1  0
  5  4  2  0
  6  5  1  0
  7  5  1  0
  8  7  2  0
  8  3  1  0
  9  8  1  0
 10  9  2  0
 10  4  1  0
 11 10  1  0
 13 12  2  0
 13  4  1  0
 14 12  1  0
 15  2  1  0
 16 15  1  0
 17 16  2  0
 18 17  1  0
 19 18  2  0
 20 19  1  0
 21 20  2  0
 21 16  1  0
 22 19  1  0
 23 22  2  0
 24 22  1  0
  1 25  1  0
  2 26  1  0
  3 27  1  0
  3 28  1  0
  7 29  1  0
  9 30  1  0
 13 31  1  0
 14 32  1  0
 15 33  1  0
 15 34  1  0
 17 35  1  0
 18 36  1  0
 20 37  1  0
 21 38  1  0
 24 39  1  0
 24 40  1  0
M  CHG  2   8   1  16   1
M  END
>  <score>  (3) 
-8.944

$$$$
=
     RDKit          3D

 40 41  0  0  0  0  0  0  0  0999 V2000
    1.1990   66.8420   69.7100 C   0  0  0  0  0  0  0  0  0  0  0  0
    0.9780   67.6330   68.6380 C   0  0  0  0  0  0  0  0  0  0  0  0
    0.2590   65.7640   70.2060 C   0  0  0  0  0  0  0  0  0  0  0  0
    2.4410   62.2830   71.3760 C   0  0  0  0  0  0  0  0  0  0  0  0
    1.0750   62.3910   71.6420 C   0  0  0  0  0  0  0  0  0  0  0  0
    0.1550   61.1530   72.4100 Cl  0  0  0  0  0  0  0  0  0  0  0  0
    0.3850   63.5410   71.2540 C   0  0  0  0  0  0  0  0  0  0  0  0
    1.0250   64.5620   70.6360 N   0  0  0  0  0  4  0  0  0  0  0  0
    2.3520   64.4780   70.3770 C   0  0  0  0  0  0  0  0  0  0  0  0
    3.0880   63.3510   70.7460 C   0  0  0  0  0  0  0  0  0  0  0  0
    4.7840   63.4270   70.4510 Cl  0  0  0  0  0  0  0  0  0  0  0  0
    3.3210   60.0960   70.8740 N   0  0  0  0  0  0  0  0  0  0  0  0
    3.1470   61.0410   71.7380 C   0  0  0  0  0  0  0  0  0  0  0  0
    3.9910   59.0410   71.5010 O   0  0  0  0  0  0  0  0  0  0  0  0
    1.9270   68.6960   68.1210 C   0  0  0  0  0  0  0  0  0  0  0  0
    1.9620   68.6790   66.6360 N   0  0  0  0  0  4  0  0  0  0  0  0
    3.1170   68.9530   65.9790 C   0  0  0  0  0  0  0  0  0  0  0  0
    3.1680   68.9490   64.5900 C   0  0  0  0  0  0  0  0  0  0  0  0
    2.0140   68.6510   63.8710 C   0  0  0  0  0  0  0  0  0  0  0  0
    0.8380   68.3590   64.5610 C   0  0  0  0  0  0  0  0  0  0  0  0
    0.8380   68.3700   65.9470 C   0  0  0  0  0  0  0  0  0  0  0  0
    1.9550   68.6970   62.3900 C   0  0  0  0  0  0  0  0  0  0  0  0
    2.9910   68.6500   61.7430 O   0  0  0  0  0  0  0  0  0  0  0  0
    0.7340   68.8030   61.7950 N   0  0  0  0  0  0  0  0  0  0  0  0
    2.1357   66.9929   70.2666 H   0  0  0  0  0  0  0  0  0  0  0  0
    0.0313   67.4945   68.0952 H   0  0  0  0  0  0  0  0  0  0  0  0
   -0.3171   66.1507   71.0596 H   0  0  0  0  0  0  0  0  0  0  0  0
   -0.4196   65.4798   69.3883 H   0  0  0  0  0  0  0  0  0  0  0  0
   -0.6940   63.6189   71.4531 H   0  0  0  0  0  0  0  0  0  0  0  0
    2.8577   65.3115   69.8676 H   0  0  0  0  0  0  0  0  0  0  0  0
    3.5323   60.9164   72.7608 H   0  0  0  0  0  0  0  0  0  0  0  0
    4.2128   58.2224   70.9904 H   0  0  0  0  0  0  0  0  0  0  0  0
    1.5868   69.6840   68.4645 H   0  0  0  0  0  0  0  0  0  0  0  0
    2.9372   68.4904   68.5047 H   0  0  0  0  0  0  0  0  0  0  0  0
    4.0264   69.1817   66.5540 H   0  0  0  0  0  0  0  0  0  0  0  0
    4.1076   69.1782   64.0660 H   0  0  0  0  0  0  0  0  0  0  0  0
   -0.0834   68.1215   64.0091 H   0  0  0  0  0  0  0  0  0  0  0  0
   -0.0849   68.1251   66.4931 H   0  0  0  0  0  0  0  0  0  0  0  0
    0.6628   68.8371   60.7680 H   0  0  0  0  0  0  0  0  0  0  0  0
   -0.1179   68.8490   62.3721 H   0  0  0  0  0  0  0  0  0  0  0  0
  2  1  2  0
  3  1  1  0
  5  4  2  0
  6  5  1  0
  7  5  1  0
  8  7  2  0
  8  3  1  0
  9  8  1  0
 10  9  2  0
 10  4  1  0
 11 10  1  0
 13 12  2  0
 13  4  1  0
 14 12  1  0
 15  2  1  0
 16 15  1  0
 17 16  2  0
 18 17  1  0
 19 18  2  0
 20 19  1  0
 21 20  2  0
 21 16  1  0
 22 19  1  0
 23 22  2  0
 24 22  1  0
  1 25  1  0
  2 26  1  0
  3 27  1  0
  3 28  1  0
  7 29  1  0
  9 30  1  0
 13 31  1  0
 14 32  1  0
 15 33  1  0
 15 34  1  0
 17 35  1  0
 18 36  1  0
 20 37  1  0
 21 38  1  0
 24 39  1  0
 24 40  1  0
M  CHG  2   8   1  16   1
M  END
>  <score>  (4) 
-8.854

$$$$
=
     RDKit          3D

 40 41  0  0  0  0  0  0  0  0999 V2000
    1.1400   66.9320   69.5080 C   0  0  0  0  0  0  0  0  0  0  0  0
    0.9870   67.6640   68.3840 C   0  0  0  0  0  0  0  0  0  0  0  0
    0.1940   65.8490   69.9790 C   0  0  0  0  0  0  0  0  0  0  0  0
    2.3920   62.5220   71.5090 C   0  0  0  0  0  0  0  0  0  0  0  0
    3.0380   63.5390   70.8020 C   0  0  0  0  0  0  0  0  0  0  0  0
    4.7380   63.5700   70.5210 Cl  0  0  0  0  0  0  0  0  0  0  0  0
    2.2960   64.6130   70.3080 C   0  0  0  0  0  0  0  0  0  0  0  0
    0.9560   64.6770   70.4900 N   0  0  0  0  0  4  0  0  0  0  0  0
    0.3120   63.6950   71.1660 C   0  0  0  0  0  0  0  0  0  0  0  0
    1.0070   62.5980   71.6780 C   0  0  0  0  0  0  0  0  0  0  0  0
    0.0460   61.3750   72.4200 Cl  0  0  0  0  0  0  0  0  0  0  0  0
    3.5330   60.4040   71.3550 N   0  0  0  0  0  0  0  0  0  0  0  0
    3.1940   61.4220   72.0750 C   0  0  0  0  0  0  0  0  0  0  0  0
    4.2580   59.5160   72.1560 O   0  0  0  0  0  0  0  0  0  0  0  0
    1.9450   68.7330   67.8940 C   0  0  0  0  0  0  0  0  0  0  0  0
    2.0870   68.6600   66.4170 N   0  0  0  0  0  4  0  0  0  0  0  0
    3.2520   69.0280   65.8270 C   0  0  0  0  0  0  0  0  0  0  0  0
    3.4030   68.9740   64.4460 C   0  0  0  0  0  0  0  0  0  0  0  0
    2.3400   68.5280   63.6660 C   0  0  0  0  0  0  0  0  0  0  0  0
    1.1540   68.1410   64.2890 C   0  0  0  0  0  0  0  0  0  0  0  0
    1.0530   68.2070   65.6690 C   0  0  0  0  0  0  0  0  0  0  0  0
    2.3830   68.5080   62.1840 C   0  0  0  0  0  0  0  0  0  0  0  0
    3.2540   67.8670   61.6140 O   0  0  0  0  0  0  0  0  0  0  0  0
    1.4450   69.2240   61.5010 N   0  0  0  0  0  0  0  0  0  0  0  0
    2.0226   67.1394   70.1310 H   0  0  0  0  0  0  0  0  0  0  0  0
    0.0934   67.4690   67.7728 H   0  0  0  0  0  0  0  0  0  0  0  0
   -0.4402   66.2476   70.7846 H   0  0  0  0  0  0  0  0  0  0  0  0
   -0.4280   65.5265   69.1310 H   0  0  0  0  0  0  0  0  0  0  0  0
    2.8077   65.4196   69.7626 H   0  0  0  0  0  0  0  0  0  0  0  0
   -0.7759   63.7634   71.3137 H   0  0  0  0  0  0  0  0  0  0  0  0
    3.5091   61.4687   73.1279 H   0  0  0  0  0  0  0  0  0  0  0  0
    4.6032   58.6715   71.7716 H   0  0  0  0  0  0  0  0  0  0  0  0
    1.5567   69.7237   68.1727 H   0  0  0  0  0  0  0  0  0  0  0  0
    2.9296   68.5705   68.3567 H   0  0  0  0  0  0  0  0  0  0  0  0
    4.0895   69.3742   66.4505 H   0  0  0  0  0  0  0  0  0  0  0  0
    4.3496   69.2796   63.9762 H   0  0  0  0  0  0  0  0  0  0  0  0
    0.3038   67.7855   63.6883 H   0  0  0  0  0  0  0  0  0  0  0  0
    0.1231   67.8881   66.1625 H   0  0  0  0  0  0  0  0  0  0  0  0
    1.4501   69.2289   60.4710 H   0  0  0  0  0  0  0  0  0  0  0  0
    0.7313   69.7600   62.0150 H   0  0  0  0  0  0  0  0  0  0  0  0
  2  1  2  0
  3  1  1  0
  5  4  2  0
  6  5  1  0
  7  5  1  0
  8  7  2  0
  8  3  1  0
  9  8  1  0
 10  9  2  0
 10  4  1  0
 11 10  1  0
 13 12  2  0
 13  4  1  0
 14 12  1  0
 15  2  1  0
 16 15  1  0
 17 16  2  0
 18 17  1  0
 19 18  2  0
 20 19  1  0
 21 20  2  0
 21 16  1  0
 22 19  1  0
 23 22  2  0
 24 22  1  0
  1 25  1  0
  2 26  1  0
  3 27  1  0
  3 28  1  0
  7 29  1  0
  9 30  1  0
 13 31  1  0
 14 32  1  0
 15 33  1  0
 15 34  1  0
 17 35  1  0
 18 36  1  0
 20 37  1  0
 21 38  1  0
 24 39  1  0
 24 40  1  0
M  CHG  2   8   1  16   1
M  END
>  <score>  (5) 
-8.814

$$$$
=
     RDKit          3D

 40 41  0  0  0  0  0  0  0  0999 V2000
    0.2420   66.4710   69.6590 C   0  0  0  0  0  0  0  0  0  0  0  0
    0.1030   65.1810   70.0340 C   0  0  0  0  0  0  0  0  0  0  0  0
   -0.1420   67.0320   68.3070 C   0  0  0  0  0  0  0  0  0  0  0  0
    3.1710   69.1380   66.6260 C   0  0  0  0  0  0  0  0  0  0  0  0
    2.7080   69.4430   67.9070 C   0  0  0  0  0  0  0  0  0  0  0  0
    3.4310   70.6350   68.9210 Cl  0  0  0  0  0  0  0  0  0  0  0  0
    1.6210   68.7440   68.4320 C   0  0  0  0  0  0  0  0  0  0  0  0
    0.9960   67.7830   67.7110 N   0  0  0  0  0  4  0  0  0  0  0  0
    1.4260   67.4800   66.4630 C   0  0  0  0  0  0  0  0  0  0  0  0
    2.5080   68.1510   65.8910 C   0  0  0  0  0  0  0  0  0  0  0  0
    2.8760   67.7370   64.2590 Cl  0  0  0  0  0  0  0  0  0  0  0  0
    5.5350   69.6070   66.5760 N   0  0  0  0  0  0  0  0  0  0  0  0
    4.3560   69.8430   66.1040 C   0  0  0  0  0  0  0  0  0  0  0  0
    6.4510   70.4320   65.9160 O   0  0  0  0  0  0  0  0  0  0  0  0
    0.4620   64.6180   71.3950 C   0  0  0  0  0  0  0  0  0  0  0  0
    1.6400   63.7200   71.2880 N   0  0  0  0  0  4  0  0  0  0  0  0
    2.7560   64.1360   70.6390 C   0  0  0  0  0  0  0  0  0  0  0  0
    3.8660   63.3070   70.5220 C   0  0  0  0  0  0  0  0  0  0  0  0
    3.8250   62.0370   71.0880 C   0  0  0  0  0  0  0  0  0  0  0  0
    2.6750   61.6290   71.7630 C   0  0  0  0  0  0  0  0  0  0  0  0
    1.5960   62.4920   71.8580 C   0  0  0  0  0  0  0  0  0  0  0  0
    4.9300   61.0580   70.9480 C   0  0  0  0  0  0  0  0  0  0  0  0
    4.8970   60.2370   70.0420 O   0  0  0  0  0  0  0  0  0  0  0  0
    5.9500   61.1000   71.8510 N   0  0  0  0  0  0  0  0  0  0  0  0
    0.6681   67.1692   70.3946 H   0  0  0  0  0  0  0  0  0  0  0  0
   -0.3046   64.4807   69.2901 H   0  0  0  0  0  0  0  0  0  0  0  0
   -0.4196   66.2045   67.6375 H   0  0  0  0  0  0  0  0  0  0  0  0
   -0.9922   67.7181   68.4354 H   0  0  0  0  0  0  0  0  0  0  0  0
    1.2662   68.9769   69.4468 H   0  0  0  0  0  0  0  0  0  0  0  0
    0.9142   66.6922   65.8908 H   0  0  0  0  0  0  0  0  0  0  0  0
    4.2340   70.5825   65.2989 H   0  0  0  0  0  0  0  0  0  0  0  0
    7.4124   70.3894   66.1483 H   0  0  0  0  0  0  0  0  0  0  0  0
    0.6983   65.4462   72.0793 H   0  0  0  0  0  0  0  0  0  0  0  0
   -0.3924   64.0423   71.7803 H   0  0  0  0  0  0  0  0  0  0  0  0
    2.7833   65.1438   70.1989 H   0  0  0  0  0  0  0  0  0  0  0  0
    4.7647   63.6508   69.9889 H   0  0  0  0  0  0  0  0  0  0  0  0
    2.6252   60.6283   72.2170 H   0  0  0  0  0  0  0  0  0  0  0  0
    0.6935   62.1768   72.4022 H   0  0  0  0  0  0  0  0  0  0  0  0
    6.7305   60.4319   71.7777 H   0  0  0  0  0  0  0  0  0  0  0  0
    5.9403   61.7998   72.6067 H   0  0  0  0  0  0  0  0  0  0  0  0
  2  1  2  0
  3  1  1  0
  5  4  2  0
  6  5  1  0
  7  5  1  0
  8  7  2  0
  8  3  1  0
  9  8  1  0
 10  9  2  0
 10  4  1  0
 11 10  1  0
 13 12  2  0
 13  4  1  0
 14 12  1  0
 15  2  1  0
 16 15  1  0
 17 16  2  0
 18 17  1  0
 19 18  2  0
 20 19  1  0
 21 20  2  0
 21 16  1  0
 22 19  1  0
 23 22  2  0
 24 22  1  0
  1 25  1  0
  2 26  1  0
  3 27  1  0
  3 28  1  0
  7 29  1  0
  9 30  1  0
 13 31  1  0
 14 32  1  0
 15 33  1  0
 15 34  1  0
 17 35  1  0
 18 36  1  0
 20 37  1  0
 21 38  1  0
 24 39  1  0
 24 40  1  0
M  CHG  2   8   1  16   1
M  END
>  <score>  (6) 
-8.695

$$$$
=
     RDKit          3D

 40 41  0  0  0  0  0  0  0  0999 V2000
    0.8560   67.1760   68.7110 C   0  0  0  0  0  0  0  0  0  0  0  0
    1.1270   66.5620   69.8820 C   0  0  0  0  0  0  0  0  0  0  0  0
    1.5800   68.3920   68.1760 C   0  0  0  0  0  0  0  0  0  0  0  0
    0.8700   68.7660   63.9810 C   0  0  0  0  0  0  0  0  0  0  0  0
    2.1720   68.7450   64.4850 C   0  0  0  0  0  0  0  0  0  0  0  0
    3.5780   68.8250   63.4910 Cl  0  0  0  0  0  0  0  0  0  0  0  0
    2.3780   68.6270   65.8600 C   0  0  0  0  0  0  0  0  0  0  0  0
    1.3320   68.5480   66.7170 N   0  0  0  0  0  4  0  0  0  0  0  0
    0.0620   68.5760   66.2470 C   0  0  0  0  0  0  0  0  0  0  0  0
   -0.1980   68.6950   64.8810 C   0  0  0  0  0  0  0  0  0  0  0  0
   -1.8580   68.8250   64.4360 Cl  0  0  0  0  0  0  0  0  0  0  0  0
    0.3660   69.9480   61.9420 N   0  0  0  0  0  0  0  0  0  0  0  0
    0.6650   68.8330   62.5230 C   0  0  0  0  0  0  0  0  0  0  0  0
    0.2080   69.7060   60.5740 O   0  0  0  0  0  0  0  0  0  0  0  0
    0.4220   65.3280   70.4110 C   0  0  0  0  0  0  0  0  0  0  0  0
    1.4010   64.2360   70.6470 N   0  0  0  0  0  4  0  0  0  0  0  0
    0.9750   63.0200   71.0730 C   0  0  0  0  0  0  0  0  0  0  0  0
    1.8760   61.9870   71.3070 C   0  0  0  0  0  0  0  0  0  0  0  0
    3.2330   62.2110   71.0900 C   0  0  0  0  0  0  0  0  0  0  0  0
    3.6530   63.4620   70.6390 C   0  0  0  0  0  0  0  0  0  0  0  0
    2.7160   64.4590   70.4150 C   0  0  0  0  0  0  0  0  0  0  0  0
    4.2720   61.1960   71.3840 C   0  0  0  0  0  0  0  0  0  0  0  0
    4.0180   60.0100   71.2280 O   0  0  0  0  0  0  0  0  0  0  0  0
    5.4850   61.6240   71.8340 N   0  0  0  0  0  0  0  0  0  0  0  0
    0.0442   66.7592   68.0968 H   0  0  0  0  0  0  0  0  0  0  0  0
    1.9255   66.9924   70.5042 H   0  0  0  0  0  0  0  0  0  0  0  0
    1.2194   69.2882   68.7021 H   0  0  0  0  0  0  0  0  0  0  0  0
    2.6599   68.2634   68.3409 H   0  0  0  0  0  0  0  0  0  0  0  0
    3.4047   68.5977   66.2537 H   0  0  0  0  0  0  0  0  0  0  0  0
   -0.7781   68.5038   66.9534 H   0  0  0  0  0  0  0  0  0  0  0  0
    0.7682   67.9191   61.9196 H   0  0  0  0  0  0  0  0  0  0  0  0
   -0.0247   70.4497   59.9634 H   0  0  0  0  0  0  0  0  0  0  0  0
   -0.0809   65.5752   71.3575 H   0  0  0  0  0  0  0  0  0  0  0  0
   -0.3165   64.9920   69.6683 H   0  0  0  0  0  0  0  0  0  0  0  0
   -0.0994   62.8489   71.2357 H   0  0  0  0  0  0  0  0  0  0  0  0
    1.5217   61.0068   71.6586 H   0  0  0  0  0  0  0  0  0  0  0  0
    4.7211   63.6565   70.4621 H   0  0  0  0  0  0  0  0  0  0  0  0
    3.0445   65.4414   70.0449 H   0  0  0  0  0  0  0  0  0  0  0  0
    6.2259   60.9407   72.0463 H   0  0  0  0  0  0  0  0  0  0  0  0
    5.6609   62.6308   71.9618 H   0  0  0  0  0  0  0  0  0  0  0  0
  2  1  2  0
  3  1  1  0
  5  4  2  0
  6  5  1  0
  7  5  1  0
  8  7  2  0
  8  3  1  0
  9  8  1  0
 10  9  2  0
 10  4  1  0
 11 10  1  0
 13 12  2  0
 13  4  1  0
 14 12  1  0
 15  2  1  0
 16 15  1  0
 17 16  2  0
 18 17  1  0
 19 18  2  0
 20 19  1  0
 21 20  2  0
 21 16  1  0
 22 19  1  0
 23 22  2  0
 24 22  1  0
  1 25  1  0
  2 26  1  0
  3 27  1  0
  3 28  1  0
  7 29  1  0
  9 30  1  0
 13 31  1  0
 14 32  1  0
 15 33  1  0
 15 34  1  0
 17 35  1  0
 18 36  1  0
 20 37  1  0
 21 38  1  0
 24 39  1  0
 24 40  1  0
M  CHG  2   8   1  16   1
M  END
>  <score>  (7) 
-8.498

$$$$
=
     RDKit          3D

 40 41  0  0  0  0  0  0  0  0999 V2000
    0.1570   66.6850   69.4860 C   0  0  0  0  0  0  0  0  0  0  0  0
    0.0710   65.4240   69.9610 C   0  0  0  0  0  0  0  0  0  0  0  0
   -0.2770   67.1290   68.1060 C   0  0  0  0  0  0  0  0  0  0  0  0
    2.9540   68.9280   65.9700 C   0  0  0  0  0  0  0  0  0  0  0  0
    2.1030   68.0180   65.3410 C   0  0  0  0  0  0  0  0  0  0  0  0
    2.2440   67.5740   63.6820 Cl  0  0  0  0  0  0  0  0  0  0  0  0
    1.0580   67.4400   66.0620 C   0  0  0  0  0  0  0  0  0  0  0  0
    0.8640   67.7360   67.3690 N   0  0  0  0  0  4  0  0  0  0  0  0
    1.6850   68.6110   67.9980 C   0  0  0  0  0  0  0  0  0  0  0  0
    2.7470   69.2150   67.3230 C   0  0  0  0  0  0  0  0  0  0  0  0
    3.7730   70.2220   68.2750 Cl  0  0  0  0  0  0  0  0  0  0  0  0
    5.0790   68.9230   64.8310 N   0  0  0  0  0  0  0  0  0  0  0  0
    4.0200   69.5750   65.1840 C   0  0  0  0  0  0  0  0  0  0  0  0
    5.9180   69.7910   64.1260 O   0  0  0  0  0  0  0  0  0  0  0  0
    0.4810   64.9790   71.3510 C   0  0  0  0  0  0  0  0  0  0  0  0
    1.5740   63.9760   71.2700 N   0  0  0  0  0  4  0  0  0  0  0  0
    1.4570   62.7880   71.9140 C   0  0  0  0  0  0  0  0  0  0  0  0
    2.4730   61.8400   71.8570 C   0  0  0  0  0  0  0  0  0  0  0  0
    3.6190   62.1200   71.1190 C   0  0  0  0  0  0  0  0  0  0  0  0
    3.7190   63.3410   70.4520 C   0  0  0  0  0  0  0  0  0  0  0  0
    2.6780   64.2520   70.5350 C   0  0  0  0  0  0  0  0  0  0  0  0
    4.7830   61.2030   71.0630 C   0  0  0  0  0  0  0  0  0  0  0  0
    4.8670   60.3900   70.1540 O   0  0  0  0  0  0  0  0  0  0  0  0
    5.7230   61.2920   72.0450 N   0  0  0  0  0  0  0  0  0  0  0  0
    0.5760   67.4506   70.1556 H   0  0  0  0  0  0  0  0  0  0  0  0
   -0.3298   64.6559   69.2832 H   0  0  0  0  0  0  0  0  0  0  0  0
   -0.6471   66.2578   67.5456 H   0  0  0  0  0  0  0  0  0  0  0  0
   -1.0732   67.8809   68.2091 H   0  0  0  0  0  0  0  0  0  0  0  0
    0.3809   66.7326   65.5609 H   0  0  0  0  0  0  0  0  0  0  0  0
    1.5119   68.8493   69.0578 H   0  0  0  0  0  0  0  0  0  0  0  0
    3.9126   70.6303   64.8929 H   0  0  0  0  0  0  0  0  0  0  0  0
    6.7839   69.4651   63.7737 H   0  0  0  0  0  0  0  0  0  0  0  0
    0.8306   65.8512   71.9229 H   0  0  0  0  0  0  0  0  0  0  0  0
   -0.3863   64.5234   71.8511 H   0  0  0  0  0  0  0  0  0  0  0  0
    0.5452   62.5712   72.4898 H   0  0  0  0  0  0  0  0  0  0  0  0
    2.3721   60.8820   72.3880 H   0  0  0  0  0  0  0  0  0  0  0  0
    4.6178   63.5791   69.8643 H   0  0  0  0  0  0  0  0  0  0  0  0
    2.7489   65.2096   69.9983 H   0  0  0  0  0  0  0  0  0  0  0  0
    6.5422   60.6678   72.0318 H   0  0  0  0  0  0  0  0  0  0  0  0
    5.6145   61.9835   72.8006 H   0  0  0  0  0  0  0  0  0  0  0  0
  2  1  2  0
  3  1  1  0
  5  4  2  0
  6  5  1  0
  7  5  1  0
  8  7  2  0
  8  3  1  0
  9  8  1  0
 10  9  2  0
 10  4  1  0
 11 10  1  0
 13 12  2  0
 13  4  1  0
 14 12  1  0
 15  2  1  0
 16 15  1  0
 17 16  2  0
 18 17  1  0
 19 18  2  0
 20 19  1  0
 21 20  2  0
 21 16  1  0
 22 19  1  0
 23 22  2  0
 24 22  1  0
  1 25  1  0
  2 26  1  0
  3 27  1  0
  3 28  1  0
  7 29  1  0
  9 30  1  0
 13 31  1  0
 14 32  1  0
 15 33  1  0
 15 34  1  0
 17 35  1  0
 18 36  1  0
 20 37  1  0
 21 38  1  0
 24 39  1  0
 24 40  1  0
M  CHG  2   8   1  16   1
M  END
>  <score>  (8) 
-8.446

$$$$
=
     RDKit          3D

 40 41  0  0  0  0  0  0  0  0999 V2000
    0.7730   67.5930   68.3680 C   0  0  0  0  0  0  0  0  0  0  0  0
    0.8250   66.9400   69.5490 C   0  0  0  0  0  0  0  0  0  0  0  0
    1.5730   68.8300   68.0200 C   0  0  0  0  0  0  0  0  0  0  0  0
    2.7970   68.7860   63.9280 C   0  0  0  0  0  0  0  0  0  0  0  0
    1.4560   68.6100   64.2730 C   0  0  0  0  0  0  0  0  0  0  0  0
    0.1950   68.4050   63.1160 Cl  0  0  0  0  0  0  0  0  0  0  0  0
    1.0820   68.6240   65.6170 C   0  0  0  0  0  0  0  0  0  0  0  0
    2.0030   68.7890   66.5960 N   0  0  0  0  0  4  0  0  0  0  0  0
    3.3110   68.9520   66.2800 C   0  0  0  0  0  0  0  0  0  0  0  0
    3.7370   68.9450   64.9510 C   0  0  0  0  0  0  0  0  0  0  0  0
    5.4390   69.0550   64.7030 Cl  0  0  0  0  0  0  0  0  0  0  0  0
    3.3770   67.7400   61.8350 N   0  0  0  0  0  0  0  0  0  0  0  0
    3.1720   68.8270   62.5030 C   0  0  0  0  0  0  0  0  0  0  0  0
    3.7410   68.0840   60.5300 O   0  0  0  0  0  0  0  0  0  0  0  0
    0.0460   65.6850   69.8940 C   0  0  0  0  0  0  0  0  0  0  0  0
    0.9360   64.6880   70.5430 N   0  0  0  0  0  4  0  0  0  0  0  0
    2.2680   64.6950   70.2850 C   0  0  0  0  0  0  0  0  0  0  0  0
    3.1160   63.7640   70.8760 C   0  0  0  0  0  0  0  0  0  0  0  0
    2.5820   62.8220   71.7500 C   0  0  0  0  0  0  0  0  0  0  0  0
    1.2120   62.8360   72.0140 C   0  0  0  0  0  0  0  0  0  0  0  0
    0.4090   63.7860   71.4050 C   0  0  0  0  0  0  0  0  0  0  0  0
    3.3940   61.7460   72.3670 C   0  0  0  0  0  0  0  0  0  0  0  0
    4.0950   61.0370   71.6580 O   0  0  0  0  0  0  0  0  0  0  0  0
    3.3230   61.5750   73.7170 N   0  0  0  0  0  0  0  0  0  0  0  0
    0.0958   67.1945   67.5982 H   0  0  0  0  0  0  0  0  0  0  0  0
    1.4869   67.3523   70.3248 H   0  0  0  0  0  0  0  0  0  0  0  0
    0.9505   69.7219   68.1846 H   0  0  0  0  0  0  0  0  0  0  0  0
    2.4665   68.8677   68.6605 H   0  0  0  0  0  0  0  0  0  0  0  0
    0.0226   68.4991   65.8856 H   0  0  0  0  0  0  0  0  0  0  0  0
    4.0486   69.0920   67.0840 H   0  0  0  0  0  0  0  0  0  0  0  0
    3.2791   69.7993   61.9998 H   0  0  0  0  0  0  0  0  0  0  0  0
    3.9387   67.3749   59.8680 H   0  0  0  0  0  0  0  0  0  0  0  0
   -0.7722   65.9434   70.5823 H   0  0  0  0  0  0  0  0  0  0  0  0
   -0.3624   65.2517   68.9691 H   0  0  0  0  0  0  0  0  0  0  0  0
    2.6833   65.4476   69.5987 H   0  0  0  0  0  0  0  0  0  0  0  0
    4.1936   63.7723   70.6555 H   0  0  0  0  0  0  0  0  0  0  0  0
    0.7728   62.0977   72.7010 H   0  0  0  0  0  0  0  0  0  0  0  0
   -0.6688   63.8082   71.6238 H   0  0  0  0  0  0  0  0  0  0  0  0
    3.8764   60.8351   74.1722 H   0  0  0  0  0  0  0  0  0  0  0  0
    2.7159   62.1856   74.2822 H   0  0  0  0  0  0  0  0  0  0  0  0
  2  1  2  0
  3  1  1  0
  5  4  2  0
  6  5  1  0
  7  5  1  0
  8  7  2  0
  8  3  1  0
  9  8  1  0
 10  9  2  0
 10  4  1  0
 11 10  1  0
 13 12  2  0
 13  4  1  0
 14 12  1  0
 15  2  1  0
 16 15  1  0
 17 16  2  0
 18 17  1  0
 19 18  2  0
 20 19  1  0
 21 20  2  0
 21 16  1  0
 22 19  1  0
 23 22  2  0
 24 22  1  0
  1 25  1  0
  2 26  1  0
  3 27  1  0
  3 28  1  0
  7 29  1  0
  9 30  1  0
 13 31  1  0
 14 32  1  0
 15 33  1  0
 15 34  1  0
 17 35  1  0
 18 36  1  0
 20 37  1  0
 21 38  1  0
 24 39  1  0
 24 40  1  0
M  CHG  2   8   1  16   1
M  END
>  <score>  (9) 
-8.3

$$$$
