=
     RDKit          3D

 32 33  0  0  0  0  0  0  0  0999 V2000
    1.7490   69.4390   67.4880 N   0  0  0  0  0  0  0  0  0  0  0  0
    3.0750   69.5100   66.9980 C   0  0  0  0  0  0  0  0  0  0  0  0
    3.4070   69.0820   65.7040 C   0  0  0  0  0  0  0  0  0  0  0  0
    4.7130   69.1700   65.2290 C   0  0  0  0  0  0  0  0  0  0  0  0
    5.7120   69.7050   66.0360 C   0  0  0  0  0  0  0  0  0  0  0  0
    5.4160   70.1630   67.3280 C   0  0  0  0  0  0  0  0  0  0  0  0
    4.0950   70.0450   67.8250 C   0  0  0  0  0  0  0  0  0  0  0  0
    3.7390   70.5410   69.2070 C   0  0  0  0  0  0  0  0  0  0  0  0
    6.5240   70.7580   68.1550 C   0  0  0  0  0  0  0  0  0  0  0  0
   -0.2120   67.9510   67.3940 C   0  0  0  0  0  0  0  0  0  0  0  0
   -0.9230   66.8670   67.9510 C   0  0  0  0  0  0  0  0  0  0  0  0
   -0.4610   66.1940   69.0810 C   0  0  0  0  0  0  0  0  0  0  0  0
    0.7220   66.5990   69.6870 C   0  0  0  0  0  0  0  0  0  0  0  0
    1.4440   67.6680   69.1530 C   0  0  0  0  0  0  0  0  0  0  0  0
    1.0080   68.3410   67.9970 C   0  0  0  0  0  0  0  0  0  0  0  0
   -0.2290   68.4160   65.0480 O   0  0  0  0  0  1  0  0  0  0  0  0
   -0.7780   68.6540   66.1710 C   0  0  0  0  0  0  0  0  0  0  0  0
   -1.7700   69.4370   66.3540 O   0  0  0  0  0  0  0  0  0  0  0  0
    1.2369   70.3326   67.4726 H   0  0  0  0  0  0  0  0  0  0  0  0
    2.6219   68.6697   65.0532 H   0  0  0  0  0  0  0  0  0  0  0  0
    4.9548   68.8165   64.2158 H   0  0  0  0  0  0  0  0  0  0  0  0
    6.7428   69.7693   65.6574 H   0  0  0  0  0  0  0  0  0  0  0  0
    4.2058   69.8907   69.9615 H   0  0  0  0  0  0  0  0  0  0  0  0
    4.1057   71.5704   69.3329 H   0  0  0  0  0  0  0  0  0  0  0  0
    2.6464   70.5230   69.3329 H   0  0  0  0  0  0  0  0  0  0  0  0
    6.2919   70.6334   69.2230 H   0  0  0  0  0  0  0  0  0  0  0  0
    7.4698   70.2465   67.9232 H   0  0  0  0  0  0  0  0  0  0  0  0
    6.6200   71.8290   67.9232 H   0  0  0  0  0  0  0  0  0  0  0  0
   -1.8646   66.5452   67.4822 H   0  0  0  0  0  0  0  0  0  0  0  0
   -1.0301   65.3466   69.4909 H   0  0  0  0  0  0  0  0  0  0  0  0
    1.0884   66.0791   70.5845 H   0  0  0  0  0  0  0  0  0  0  0  0
    2.3728   67.9907   69.6462 H   0  0  0  0  0  0  0  0  0  0  0  0
  2  1  1  0
  3  2  2  0
  4  3  1  0
  5  4  2  0
  6  5  1  0
  7  6  2  0
  7  2  1  0
  8  7  1  0
  9  6  1  0
 11 10  2  0
 12 11  1  0
 13 12  2  0
 14 13  1  0
 15 14  2  0
 15 10  1  0
 15  1  1  0
 17 16  1  0
 17 10  1  0
 18 17  2  0
  1 19  1  0
  3 20  1  0
  4 21  1  0
  5 22  1  0
  8 23  1  0
  8 24  1  0
  8 25  1  0
  9 26  1  0
  9 27  1  0
  9 28  1  0
 11 29  1  0
 12 30  1  0
 13 31  1  0
 14 32  1  0
M  CHG  1  16  -1
M  END
>  <score>  (1) 
-9.984

$$$$
=
     RDKit          3D

 32 33  0  0  0  0  0  0  0  0999 V2000
    2.5380   68.2280   65.4940 N   0  0  0  0  0  0  0  0  0  0  0  0
    3.1340   69.0310   66.4960 C   0  0  0  0  0  0  0  0  0  0  0  0
    2.4430   69.3830   67.6650 C   0  0  0  0  0  0  0  0  0  0  0  0
    3.0450   70.1620   68.6500 C   0  0  0  0  0  0  0  0  0  0  0  0
    4.3590   70.5900   68.4920 C   0  0  0  0  0  0  0  0  0  0  0  0
    5.0900   70.2420   67.3460 C   0  0  0  0  0  0  0  0  0  0  0  0
    4.4700   69.4770   66.3290 C   0  0  0  0  0  0  0  0  0  0  0  0
    5.2320   69.0720   65.0880 C   0  0  0  0  0  0  0  0  0  0  0  0
    6.5170   70.7060   67.2310 C   0  0  0  0  0  0  0  0  0  0  0  0
    0.3430   68.6650   64.4660 C   0  0  0  0  0  0  0  0  0  0  0  0
   -0.3950   69.0030   63.3120 C   0  0  0  0  0  0  0  0  0  0  0  0
    0.2300   69.2370   62.0870 C   0  0  0  0  0  0  0  0  0  0  0  0
    1.6120   69.1290   61.9890 C   0  0  0  0  0  0  0  0  0  0  0  0
    2.3630   68.7980   63.1180 C   0  0  0  0  0  0  0  0  0  0  0  0
    1.7530   68.5850   64.3670 C   0  0  0  0  0  0  0  0  0  0  0  0
   -1.1190   69.3450   66.2320 O   0  0  0  0  0  1  0  0  0  0  0  0
   -0.4000   68.4040   65.7660 C   0  0  0  0  0  0  0  0  0  0  0  0
   -0.2510   67.2560   66.3030 O   0  0  0  0  0  0  0  0  0  0  0  0
    2.7012   67.2166   65.6007 H   0  0  0  0  0  0  0  0  0  0  0  0
    1.4081   69.0379   67.8060 H   0  0  0  0  0  0  0  0  0  0  0  0
    2.4813   70.4389   69.5531 H   0  0  0  0  0  0  0  0  0  0  0  0
    4.8291   71.2066   69.2722 H   0  0  0  0  0  0  0  0  0  0  0  0
    6.1687   68.5741   65.3790 H   0  0  0  0  0  0  0  0  0  0  0  0
    4.6194   68.3805   64.4909 H   0  0  0  0  0  0  0  0  0  0  0  0
    5.4624   69.9666   64.4909 H   0  0  0  0  0  0  0  0  0  0  0  0
    6.9400   70.8436   68.2370 H   0  0  0  0  0  0  0  0  0  0  0  0
    7.1047   69.9527   66.6860 H   0  0  0  0  0  0  0  0  0  0  0  0
    6.5493   71.6609   66.6860 H   0  0  0  0  0  0  0  0  0  0  0  0
   -1.4899   69.0840   63.3799 H   0  0  0  0  0  0  0  0  0  0  0  0
   -0.3678   69.5055   61.2035 H   0  0  0  0  0  0  0  0  0  0  0  0
    2.1123   69.3038   61.0251 H   0  0  0  0  0  0  0  0  0  0  0  0
    3.4551   68.7017   63.0289 H   0  0  0  0  0  0  0  0  0  0  0  0
  2  1  1  0
  3  2  2  0
  4  3  1  0
  5  4  2  0
  6  5  1  0
  7  6  2  0
  7  2  1  0
  8  7  1  0
  9  6  1  0
 11 10  2  0
 12 11  1  0
 13 12  2  0
 14 13  1  0
 15 14  2  0
 15 10  1  0
 15  1  1  0
 17 16  1  0
 17 10  1  0
 18 17  2  0
  1 19  1  0
  3 20  1  0
  4 21  1  0
  5 22  1  0
  8 23  1  0
  8 24  1  0
  8 25  1  0
  9 26  1  0
  9 27  1  0
  9 28  1  0
 11 29  1  0
 12 30  1  0
 13 31  1  0
 14 32  1  0
M  CHG  1  16  -1
M  END
>  <score>  (2) 
-9.734

$$$$
=
     RDKit          3D

 32 33  0  0  0  0  0  0  0  0999 V2000
    2.3870   68.2880   65.4160 N   0  0  0  0  0  0  0  0  0  0  0  0
    3.4450   68.9860   66.0460 C   0  0  0  0  0  0  0  0  0  0  0  0
    4.6630   69.2240   65.3930 C   0  0  0  0  0  0  0  0  0  0  0  0
    5.6920   69.9230   66.0180 C   0  0  0  0  0  0  0  0  0  0  0  0
    5.5150   70.4140   67.3080 C   0  0  0  0  0  0  0  0  0  0  0  0
    4.3050   70.2130   67.9880 C   0  0  0  0  0  0  0  0  0  0  0  0
    3.2680   69.4750   67.3660 C   0  0  0  0  0  0  0  0  0  0  0  0
    1.9470   69.2530   68.0640 C   0  0  0  0  0  0  0  0  0  0  0  0
    4.1500   70.7840   69.3720 C   0  0  0  0  0  0  0  0  0  0  0  0
    0.1820   68.7130   64.4040 C   0  0  0  0  0  0  0  0  0  0  0  0
   -0.5680   69.0380   63.2540 C   0  0  0  0  0  0  0  0  0  0  0  0
    0.0450   69.2590   62.0210 C   0  0  0  0  0  0  0  0  0  0  0  0
    1.4260   69.1500   61.9100 C   0  0  0  0  0  0  0  0  0  0  0  0
    2.1880   68.8320   63.0360 C   0  0  0  0  0  0  0  0  0  0  0  0
    1.5900   68.6330   64.2930 C   0  0  0  0  0  0  0  0  0  0  0  0
   -1.2210   69.4290   66.2050 O   0  0  0  0  0  1  0  0  0  0  0  0
   -0.5480   68.4660   65.7150 C   0  0  0  0  0  0  0  0  0  0  0  0
   -0.4360   67.3060   66.2360 O   0  0  0  0  0  0  0  0  0  0  0  0
    2.1573   67.3793   65.8431 H   0  0  0  0  0  0  0  0  0  0  0  0
    4.8080   68.8516   64.3682 H   0  0  0  0  0  0  0  0  0  0  0  0
    6.6443   70.0871   65.4925 H   0  0  0  0  0  0  0  0  0  0  0  0
    6.3312   70.9645   67.7986 H   0  0  0  0  0  0  0  0  0  0  0  0
    2.0990   69.2785   69.1532 H   0  0  0  0  0  0  0  0  0  0  0  0
    1.2412   70.0451   67.7736 H   0  0  0  0  0  0  0  0  0  0  0  0
    1.5389   68.2737   67.7736 H   0  0  0  0  0  0  0  0  0  0  0  0
    4.3621   70.0028   70.1168 H   0  0  0  0  0  0  0  0  0  0  0  0
    4.8541   71.6185   69.5053 H   0  0  0  0  0  0  0  0  0  0  0  0
    3.1206   71.1480   69.5053 H   0  0  0  0  0  0  0  0  0  0  0  0
   -1.6623   69.1190   63.3318 H   0  0  0  0  0  0  0  0  0  0  0  0
   -0.5615   69.5183   61.1407 H   0  0  0  0  0  0  0  0  0  0  0  0
    1.9167   69.3136   60.9392 H   0  0  0  0  0  0  0  0  0  0  0  0
    3.2793   68.7351   62.9376 H   0  0  0  0  0  0  0  0  0  0  0  0
  2  1  1  0
  3  2  2  0
  4  3  1  0
  5  4  2  0
  6  5  1  0
  7  6  2  0
  7  2  1  0
  8  7  1  0
  9  6  1  0
 11 10  2  0
 12 11  1  0
 13 12  2  0
 14 13  1  0
 15 14  2  0
 15 10  1  0
 15  1  1  0
 17 16  1  0
 17 10  1  0
 18 17  2  0
  1 19  1  0
  3 20  1  0
  4 21  1  0
  5 22  1  0
  8 23  1  0
  8 24  1  0
  8 25  1  0
  9 26  1  0
  9 27  1  0
  9 28  1  0
 11 29  1  0
 12 30  1  0
 13 31  1  0
 14 32  1  0
M  CHG  1  16  -1
M  END
>  <score>  (3) 
-9.573

$$$$
=
     RDKit          3D

 32 33  0  0  0  0  0  0  0  0999 V2000
    1.9900   69.4080   67.5380 N   0  0  0  0  0  0  0  0  0  0  0  0
    1.1370   68.3780   68.0010 C   0  0  0  0  0  0  0  0  0  0  0  0
    1.4790   67.5750   69.0980 C   0  0  0  0  0  0  0  0  0  0  0  0
    0.6240   66.5740   69.5530 C   0  0  0  0  0  0  0  0  0  0  0  0
   -0.6010   66.3680   68.9270 C   0  0  0  0  0  0  0  0  0  0  0  0
   -0.9880   67.1630   67.8380 C   0  0  0  0  0  0  0  0  0  0  0  0
   -0.1070   68.1610   67.3540 C   0  0  0  0  0  0  0  0  0  0  0  0
   -0.4990   69.0450   66.1930 C   0  0  0  0  0  0  0  0  0  0  0  0
   -2.3340   66.9210   67.2090 C   0  0  0  0  0  0  0  0  0  0  0  0
    4.3560   69.9660   67.1430 C   0  0  0  0  0  0  0  0  0  0  0  0
    5.4780   69.9020   66.2890 C   0  0  0  0  0  0  0  0  0  0  0  0
    5.4160   69.2680   65.0490 C   0  0  0  0  0  0  0  0  0  0  0  0
    4.2230   68.6910   64.6300 C   0  0  0  0  0  0  0  0  0  0  0  0
    3.1010   68.7410   65.4590 C   0  0  0  0  0  0  0  0  0  0  0  0
    3.1520   69.3520   66.7250 C   0  0  0  0  0  0  0  0  0  0  0  0
    5.1950   71.7430   68.5070 O   0  0  0  0  0  1  0  0  0  0  0  0
    4.4840   70.6880   68.4750 C   0  0  0  0  0  0  0  0  0  0  0  0
    3.8660   70.1860   69.4730 O   0  0  0  0  0  0  0  0  0  0  0  0
    1.7233   70.3555   67.8414 H   0  0  0  0  0  0  0  0  0  0  0  0
    2.4396   67.7383   69.6085 H   0  0  0  0  0  0  0  0  0  0  0  0
    0.9175   65.9464   70.4074 H   0  0  0  0  0  0  0  0  0  0  0  0
   -1.2719   65.5750   69.2890 H   0  0  0  0  0  0  0  0  0  0  0  0
   -0.9172   69.9880   66.5750 H   0  0  0  0  0  0  0  0  0  0  0  0
    0.3884   69.2594   65.5794 H   0  0  0  0  0  0  0  0  0  0  0  0
   -1.2537   68.5312   65.5794 H   0  0  0  0  0  0  0  0  0  0  0  0
   -3.0884   66.7854   67.9980 H   0  0  0  0  0  0  0  0  0  0  0  0
   -2.6075   67.7844   66.5847 H   0  0  0  0  0  0  0  0  0  0  0  0
   -2.2897   66.0164   66.5847 H   0  0  0  0  0  0  0  0  0  0  0  0
    6.4238   70.3633   66.6095 H   0  0  0  0  0  0  0  0  0  0  0  0
    6.3069   69.2246   64.4053 H   0  0  0  0  0  0  0  0  0  0  0  0
    4.1632   68.1969   63.6490 H   0  0  0  0  0  0  0  0  0  0  0  0
    2.1570   68.2931   65.1150 H   0  0  0  0  0  0  0  0  0  0  0  0
  2  1  1  0
  3  2  2  0
  4  3  1  0
  5  4  2  0
  6  5  1  0
  7  6  2  0
  7  2  1  0
  8  7  1  0
  9  6  1  0
 11 10  2  0
 12 11  1  0
 13 12  2  0
 14 13  1  0
 15 14  2  0
 15 10  1  0
 15  1  1  0
 17 16  1  0
 17 10  1  0
 18 17  2  0
  1 19  1  0
  3 20  1  0
  4 21  1  0
  5 22  1  0
  8 23  1  0
  8 24  1  0
  8 25  1  0
  9 26  1  0
  9 27  1  0
  9 28  1  0
 11 29  1  0
 12 30  1  0
 13 31  1  0
 14 32  1  0
M  CHG  1  16  -1
M  END
>  <score>  (4) 
-9.446

$$$$
=
     RDKit          3D

 32 33  0  0  0  0  0  0  0  0999 V2000
    1.7050   69.5580   67.9870 N   0  0  0  0  0  0  0  0  0  0  0  0
    3.0680   69.8030   67.6920 C   0  0  0  0  0  0  0  0  0  0  0  0
    3.9370   70.3650   68.6390 C   0  0  0  0  0  0  0  0  0  0  0  0
    5.2790   70.5880   68.3420 C   0  0  0  0  0  0  0  0  0  0  0  0
    5.7820   70.2370   67.0930 C   0  0  0  0  0  0  0  0  0  0  0  0
    4.9500   69.6550   66.1260 C   0  0  0  0  0  0  0  0  0  0  0  0
    3.5770   69.4550   66.4150 C   0  0  0  0  0  0  0  0  0  0  0  0
    2.6560   68.8170   65.4020 C   0  0  0  0  0  0  0  0  0  0  0  0
    5.5440   69.2670   64.7990 C   0  0  0  0  0  0  0  0  0  0  0  0
   -0.1760   67.9810   67.7820 C   0  0  0  0  0  0  0  0  0  0  0  0
   -0.8060   66.8010   68.2300 C   0  0  0  0  0  0  0  0  0  0  0  0
   -0.2650   66.0290   69.2570 C   0  0  0  0  0  0  0  0  0  0  0  0
    0.9170   66.4280   69.8680 C   0  0  0  0  0  0  0  0  0  0  0  0
    1.5590   67.5920   69.4400 C   0  0  0  0  0  0  0  0  0  0  0  0
    1.0440   68.3680   68.3870 C   0  0  0  0  0  0  0  0  0  0  0  0
   -0.9490   68.2310   65.5320 O   0  0  0  0  0  1  0  0  0  0  0  0
   -0.8260   68.7890   66.6690 C   0  0  0  0  0  0  0  0  0  0  0  0
   -1.2060   69.9740   66.9530 O   0  0  0  0  0  0  0  0  0  0  0  0
    1.0914   70.3803   67.8961 H   0  0  0  0  0  0  0  0  0  0  0  0
    3.5516   70.6342   69.6335 H   0  0  0  0  0  0  0  0  0  0  0  0
    5.9411   71.0414   69.0943 H   0  0  0  0  0  0  0  0  0  0  0  0
    6.8422   70.4178   66.8621 H   0  0  0  0  0  0  0  0  0  0  0  0
    1.8607   68.2661   65.9254 H   0  0  0  0  0  0  0  0  0  0  0  0
    2.2069   69.5985   64.7715 H   0  0  0  0  0  0  0  0  0  0  0  0
    3.2297   68.1219   64.7715 H   0  0  0  0  0  0  0  0  0  0  0  0
    6.4544   68.6723   64.9646 H   0  0  0  0  0  0  0  0  0  0  0  0
    4.8147   68.6706   64.2312 H   0  0  0  0  0  0  0  0  0  0  0  0
    5.7971   70.1745   64.2312 H   0  0  0  0  0  0  0  0  0  0  0  0
   -1.7469   66.4823   67.7576 H   0  0  0  0  0  0  0  0  0  0  0  0
   -0.7717   65.1083   69.5820 H   0  0  0  0  0  0  0  0  0  0  0  0
    1.3455   65.8296   70.6855 H   0  0  0  0  0  0  0  0  0  0  0  0
    2.4876   67.9084   69.9375 H   0  0  0  0  0  0  0  0  0  0  0  0
  2  1  1  0
  3  2  2  0
  4  3  1  0
  5  4  2  0
  6  5  1  0
  7  6  2  0
  7  2  1  0
  8  7  1  0
  9  6  1  0
 11 10  2  0
 12 11  1  0
 13 12  2  0
 14 13  1  0
 15 14  2  0
 15 10  1  0
 15  1  1  0
 17 16  1  0
 17 10  1  0
 18 17  2  0
  1 19  1  0
  3 20  1  0
  4 21  1  0
  5 22  1  0
  8 23  1  0
  8 24  1  0
  8 25  1  0
  9 26  1  0
  9 27  1  0
  9 28  1  0
 11 29  1  0
 12 30  1  0
 13 31  1  0
 14 32  1  0
M  CHG  1  16  -1
M  END
>  <score>  (5) 
-9.356

$$$$
=
     RDKit          3D

 32 33  0  0  0  0  0  0  0  0999 V2000
    3.2080   68.4050   65.5110 N   0  0  0  0  0  0  0  0  0  0  0  0
    3.4360   69.1990   66.6610 C   0  0  0  0  0  0  0  0  0  0  0  0
    2.4510   69.3750   67.6430 C   0  0  0  0  0  0  0  0  0  0  0  0
    2.6930   70.1480   68.7760 C   0  0  0  0  0  0  0  0  0  0  0  0
    3.9360   70.7470   68.9570 C   0  0  0  0  0  0  0  0  0  0  0  0
    4.9540   70.5790   68.0060 C   0  0  0  0  0  0  0  0  0  0  0  0
    4.7000   69.8190   66.8380 C   0  0  0  0  0  0  0  0  0  0  0  0
    5.7780   69.6060   65.8020 C   0  0  0  0  0  0  0  0  0  0  0  0
    6.2900   71.2250   68.2570 C   0  0  0  0  0  0  0  0  0  0  0  0
    2.8300   68.5830   63.0840 C   0  0  0  0  0  0  0  0  0  0  0  0
    1.9260   68.8040   62.0240 C   0  0  0  0  0  0  0  0  0  0  0  0
    0.5750   69.0560   62.2570 C   0  0  0  0  0  0  0  0  0  0  0  0
    0.0980   69.1010   63.5610 C   0  0  0  0  0  0  0  0  0  0  0  0
    0.9740   68.8830   64.6260 C   0  0  0  0  0  0  0  0  0  0  0  0
    2.3350   68.6010   64.4100 C   0  0  0  0  0  0  0  0  0  0  0  0
    4.8250   67.2710   63.2280 O   0  0  0  0  0  1  0  0  0  0  0  0
    4.2960   68.3320   62.7640 C   0  0  0  0  0  0  0  0  0  0  0  0
    4.8950   69.2030   62.0500 O   0  0  0  0  0  0  0  0  0  0  0  0
    3.7688   67.5422   65.4664 H   0  0  0  0  0  0  0  0  0  0  0  0
    1.4698   68.8941   67.5164 H   0  0  0  0  0  0  0  0  0  0  0  0
    1.9017   70.2850   69.5277 H   0  0  0  0  0  0  0  0  0  0  0  0
    4.1220   71.3573   69.8531 H   0  0  0  0  0  0  0  0  0  0  0  0
    6.7377   69.4164   66.3051 H   0  0  0  0  0  0  0  0  0  0  0  0
    5.5167   68.7421   65.1732 H   0  0  0  0  0  0  0  0  0  0  0  0
    5.8649   70.5043   65.1732 H   0  0  0  0  0  0  0  0  0  0  0  0
    6.4598   71.3071   69.3407 H   0  0  0  0  0  0  0  0  0  0  0  0
    7.0843   70.6114   67.8069 H   0  0  0  0  0  0  0  0  0  0  0  0
    6.3024   72.2286   67.8069 H   0  0  0  0  0  0  0  0  0  0  0  0
    2.2961   68.7768   60.9885 H   0  0  0  0  0  0  0  0  0  0  0  0
   -0.1104   69.2185   61.4121 H   0  0  0  0  0  0  0  0  0  0  0  0
   -0.9652   69.3075   63.7535 H   0  0  0  0  0  0  0  0  0  0  0  0
    0.5916   68.9328   65.6562 H   0  0  0  0  0  0  0  0  0  0  0  0
  2  1  1  0
  3  2  2  0
  4  3  1  0
  5  4  2  0
  6  5  1  0
  7  6  2  0
  7  2  1  0
  8  7  1  0
  9  6  1  0
 11 10  2  0
 12 11  1  0
 13 12  2  0
 14 13  1  0
 15 14  2  0
 15 10  1  0
 15  1  1  0
 17 16  1  0
 17 10  1  0
 18 17  2  0
  1 19  1  0
  3 20  1  0
  4 21  1  0
  5 22  1  0
  8 23  1  0
  8 24  1  0
  8 25  1  0
  9 26  1  0
  9 27  1  0
  9 28  1  0
 11 29  1  0
 12 30  1  0
 13 31  1  0
 14 32  1  0
M  CHG  1  16  -1
M  END
>  <score>  (6) 
-9.35

$$$$
=
     RDKit          3D

 32 33  0  0  0  0  0  0  0  0999 V2000
    1.8750   69.4210   67.2190 N   0  0  0  0  0  0  0  0  0  0  0  0
    1.0840   68.4020   67.8010 C   0  0  0  0  0  0  0  0  0  0  0  0
    1.5200   67.6800   68.9210 C   0  0  0  0  0  0  0  0  0  0  0  0
    0.7270   66.6890   69.4940 C   0  0  0  0  0  0  0  0  0  0  0  0
   -0.5300   66.4130   68.9640 C   0  0  0  0  0  0  0  0  0  0  0  0
   -1.0100   67.1270   67.8560 C   0  0  0  0  0  0  0  0  0  0  0  0
   -0.1920   68.1140   67.2540 C   0  0  0  0  0  0  0  0  0  0  0  0
   -0.6840   68.9120   66.0690 C   0  0  0  0  0  0  0  0  0  0  0  0
   -2.3860   66.8120   67.3350 C   0  0  0  0  0  0  0  0  0  0  0  0
    4.2180   69.5250   66.4660 C   0  0  0  0  0  0  0  0  0  0  0  0
    5.5530   69.8850   66.7450 C   0  0  0  0  0  0  0  0  0  0  0  0
    5.9130   70.4680   67.9600 C   0  0  0  0  0  0  0  0  0  0  0  0
    4.9430   70.6960   68.9280 C   0  0  0  0  0  0  0  0  0  0  0  0
    3.6150   70.3490   68.6730 C   0  0  0  0  0  0  0  0  0  0  0  0
    3.2280   69.7850   67.4430 C   0  0  0  0  0  0  0  0  0  0  0  0
    3.2400   67.7840   65.1490 O   0  0  0  0  0  1  0  0  0  0  0  0
    3.8930   68.8750   65.1300 C   0  0  0  0  0  0  0  0  0  0  0  0
    4.2990   69.4720   64.0770 O   0  0  0  0  0  0  0  0  0  0  0  0
    1.3873   69.9939   66.5156 H   0  0  0  0  0  0  0  0  0  0  0  0
    2.5064   67.9004   69.3550 H   0  0  0  0  0  0  0  0  0  0  0  0
    1.0936   66.1251   70.3644 H   0  0  0  0  0  0  0  0  0  0  0  0
   -1.1526   65.6280   69.4180 H   0  0  0  0  0  0  0  0  0  0  0  0
   -1.2302   69.7980   66.4249 H   0  0  0  0  0  0  0  0  0  0  0  0
    0.1746   69.2308   65.4597 H   0  0  0  0  0  0  0  0  0  0  0  0
   -1.3545   68.2881   65.4597 H   0  0  0  0  0  0  0  0  0  0  0  0
   -3.0713   66.6551   68.1810 H   0  0  0  0  0  0  0  0  0  0  0  0
   -2.7467   67.6508   66.7216 H   0  0  0  0  0  0  0  0  0  0  0  0
   -2.3459   65.8998   66.7216 H   0  0  0  0  0  0  0  0  0  0  0  0
    6.3284   69.7017   65.9866 H   0  0  0  0  0  0  0  0  0  0  0  0
    6.9601   70.7459   68.1508 H   0  0  0  0  0  0  0  0  0  0  0  0
    5.2202   71.1482   69.8917 H   0  0  0  0  0  0  0  0  0  0  0  0
    2.8551   70.5200   69.4498 H   0  0  0  0  0  0  0  0  0  0  0  0
  2  1  1  0
  3  2  2  0
  4  3  1  0
  5  4  2  0
  6  5  1  0
  7  6  2  0
  7  2  1  0
  8  7  1  0
  9  6  1  0
 11 10  2  0
 12 11  1  0
 13 12  2  0
 14 13  1  0
 15 14  2  0
 15 10  1  0
 15  1  1  0
 17 16  1  0
 17 10  1  0
 18 17  2  0
  1 19  1  0
  3 20  1  0
  4 21  1  0
  5 22  1  0
  8 23  1  0
  8 24  1  0
  8 25  1  0
  9 26  1  0
  9 27  1  0
  9 28  1  0
 11 29  1  0
 12 30  1  0
 13 31  1  0
 14 32  1  0
M  CHG  1  16  -1
M  END
>  <score>  (7) 
-9.256

$$$$
=
     RDKit          3D

 32 33  0  0  0  0  0  0  0  0999 V2000
    3.3480   69.1990   65.5410 N   0  0  0  0  0  0  0  0  0  0  0  0
    3.7100   69.6920   66.8180 C   0  0  0  0  0  0  0  0  0  0  0  0
    2.7920   69.7400   67.8770 C   0  0  0  0  0  0  0  0  0  0  0  0
    3.1640   70.2130   69.1330 C   0  0  0  0  0  0  0  0  0  0  0  0
    4.4710   70.6340   69.3570 C   0  0  0  0  0  0  0  0  0  0  0  0
    5.4240   70.5840   68.3290 C   0  0  0  0  0  0  0  0  0  0  0  0
    5.0400   70.1320   67.0430 C   0  0  0  0  0  0  0  0  0  0  0  0
    6.0440   70.0510   65.9170 C   0  0  0  0  0  0  0  0  0  0  0  0
    6.8320   71.0250   68.6260 C   0  0  0  0  0  0  0  0  0  0  0  0
    2.3360   66.9770   65.2180 C   0  0  0  0  0  0  0  0  0  0  0  0
    2.4440   65.6760   64.6850 C   0  0  0  0  0  0  0  0  0  0  0  0
    3.5750   65.2680   63.9780 C   0  0  0  0  0  0  0  0  0  0  0  0
    4.6300   66.1550   63.7980 C   0  0  0  0  0  0  0  0  0  0  0  0
    4.5440   67.4480   64.3150 C   0  0  0  0  0  0  0  0  0  0  0  0
    3.4000   67.8860   65.0070 C   0  0  0  0  0  0  0  0  0  0  0  0
    0.9600   66.8900   67.1730 O   0  0  0  0  0  1  0  0  0  0  0  0
    1.0840   67.3550   65.9950 C   0  0  0  0  0  0  0  0  0  0  0  0
    0.2410   68.1150   65.4110 O   0  0  0  0  0  0  0  0  0  0  0  0
    2.9868   69.9125   64.8919 H   0  0  0  0  0  0  0  0  0  0  0  0
    1.7595   69.3979   67.7127 H   0  0  0  0  0  0  0  0  0  0  0  0
    2.4253   70.2537   69.9470 H   0  0  0  0  0  0  0  0  0  0  0  0
    4.7598   71.0096   70.3497 H   0  0  0  0  0  0  0  0  0  0  0  0
    7.0581   69.9692   66.3352 H   0  0  0  0  0  0  0  0  0  0  0  0
    5.8302   69.1672   65.2980 H   0  0  0  0  0  0  0  0  0  0  0  0
    5.9747   70.9577   65.2980 H   0  0  0  0  0  0  0  0  0  0  0  0
    6.9797   71.0713   69.7151 H   0  0  0  0  0  0  0  0  0  0  0  0
    7.5411   70.3059   68.1900 H   0  0  0  0  0  0  0  0  0  0  0  0
    7.0042   72.0201   68.1900 H   0  0  0  0  0  0  0  0  0  0  0  0
    1.6165   64.9659   64.8302 H   0  0  0  0  0  0  0  0  0  0  0  0
    3.6318   64.2500   63.5652 H   0  0  0  0  0  0  0  0  0  0  0  0
    5.5296   65.8386   63.2498 H   0  0  0  0  0  0  0  0  0  0  0  0
    5.3885   68.1396   64.1787 H   0  0  0  0  0  0  0  0  0  0  0  0
  2  1  1  0
  3  2  2  0
  4  3  1  0
  5  4  2  0
  6  5  1  0
  7  6  2  0
  7  2  1  0
  8  7  1  0
  9  6  1  0
 11 10  2  0
 12 11  1  0
 13 12  2  0
 14 13  1  0
 15 14  2  0
 15 10  1  0
 15  1  1  0
 17 16  1  0
 17 10  1  0
 18 17  2  0
  1 19  1  0
  3 20  1  0
  4 21  1  0
  5 22  1  0
  8 23  1  0
  8 24  1  0
  8 25  1  0
  9 26  1  0
  9 27  1  0
  9 28  1  0
 11 29  1  0
 12 30  1  0
 13 31  1  0
 14 32  1  0
M  CHG  1  16  -1
M  END
>  <score>  (8) 
-9.223

$$$$
=
     RDKit          3D

 32 33  0  0  0  0  0  0  0  0999 V2000
    3.0820   68.6030   64.9680 N   0  0  0  0  0  0  0  0  0  0  0  0
    3.1510   69.1790   66.2590 C   0  0  0  0  0  0  0  0  0  0  0  0
    2.0440   69.1960   67.1190 C   0  0  0  0  0  0  0  0  0  0  0  0
    2.1270   69.7530   68.3920 C   0  0  0  0  0  0  0  0  0  0  0  0
    3.3310   70.2910   68.8380 C   0  0  0  0  0  0  0  0  0  0  0  0
    4.4670   70.2760   68.0150 C   0  0  0  0  0  0  0  0  0  0  0  0
    4.3750   69.7380   66.7080 C   0  0  0  0  0  0  0  0  0  0  0  0
    5.5830   69.6930   65.8010 C   0  0  0  0  0  0  0  0  0  0  0  0
    5.7530   70.8460   68.5490 C   0  0  0  0  0  0  0  0  0  0  0  0
    4.1920   67.1290   63.3360 C   0  0  0  0  0  0  0  0  0  0  0  0
    4.4900   65.8170   62.9140 C   0  0  0  0  0  0  0  0  0  0  0  0
    4.0350   64.7020   63.6180 C   0  0  0  0  0  0  0  0  0  0  0  0
    3.2610   64.8780   64.7580 C   0  0  0  0  0  0  0  0  0  0  0  0
    2.9550   66.1680   65.1950 C   0  0  0  0  0  0  0  0  0  0  0  0
    3.4270   67.3040   64.5140 C   0  0  0  0  0  0  0  0  0  0  0  0
    3.8430   68.9900   61.8740 O   0  0  0  0  0  1  0  0  0  0  0  0
    4.7020   68.3030   62.5140 C   0  0  0  0  0  0  0  0  0  0  0  0
    5.9600   68.5190   62.5240 O   0  0  0  0  0  0  0  0  0  0  0  0
    2.7212   69.2317   64.2362 H   0  0  0  0  0  0  0  0  0  0  0  0
    1.0918   68.7609   66.7814 H   0  0  0  0  0  0  0  0  0  0  0  0
    1.2419   69.7680   69.0450 H   0  0  0  0  0  0  0  0  0  0  0  0
    3.3921   70.7315   69.8441 H   0  0  0  0  0  0  0  0  0  0  0  0
    6.4981   69.6589   66.4105 H   0  0  0  0  0  0  0  0  0  0  0  0
    5.5317   68.7961   65.1662 H   0  0  0  0  0  0  0  0  0  0  0  0
    5.5985   70.5912   65.1662 H   0  0  0  0  0  0  0  0  0  0  0  0
    5.7299   70.8358   69.6487 H   0  0  0  0  0  0  0  0  0  0  0  0
    6.5986   70.2384   68.1943 H   0  0  0  0  0  0  0  0  0  0  0  0
    5.8707   71.8806   68.1943 H   0  0  0  0  0  0  0  0  0  0  0  0
    5.0958   65.6692   62.0079 H   0  0  0  0  0  0  0  0  0  0  0  0
    4.2878   63.6888   63.2723 H   0  0  0  0  0  0  0  0  0  0  0  0
    2.8907   64.0042   65.3142 H   0  0  0  0  0  0  0  0  0  0  0  0
    2.3311   66.2986   66.0915 H   0  0  0  0  0  0  0  0  0  0  0  0
  2  1  1  0
  3  2  2  0
  4  3  1  0
  5  4  2  0
  6  5  1  0
  7  6  2  0
  7  2  1  0
  8  7  1  0
  9  6  1  0
 11 10  2  0
 12 11  1  0
 13 12  2  0
 14 13  1  0
 15 14  2  0
 15 10  1  0
 15  1  1  0
 17 16  1  0
 17 10  1  0
 18 17  2  0
  1 19  1  0
  3 20  1  0
  4 21  1  0
  5 22  1  0
  8 23  1  0
  8 24  1  0
  8 25  1  0
  9 26  1  0
  9 27  1  0
  9 28  1  0
 11 29  1  0
 12 30  1  0
 13 31  1  0
 14 32  1  0
M  CHG  1  16  -1
M  END
>  <score>  (9) 
-9.15

$$$$
