=
     RDKit          3D

 73 75  0  0  0  0  0  0  0  0999 V2000
    2.5320   58.1880   73.5890 C   0  0  0  0  0  0  0  0  0  0  0  0
    1.9240   59.2550   73.0330 C   0  0  0  0  0  0  0  0  0  0  0  0
    0.7550   59.9890   73.6680 C   0  0  0  0  0  0  0  0  0  0  0  0
    0.0270   60.9160   72.6880 C   0  0  0  0  0  0  0  0  0  0  0  0
    0.9490   61.9230   71.9810 C   0  0  0  0  0  0  0  0  0  0  0  0
    2.3760   61.3880   71.7050 C   0  0  1  0  0  0  0  0  0  0  0  0
    2.3430   59.8340   71.6950 C   0  0  1  0  0  0  0  0  0  0  0  0
    3.6860   59.4500   71.0740 C   0  0  0  0  0  0  0  0  0  0  0  0
    3.9710   60.5540   70.0510 C   0  0  0  0  0  0  0  0  0  0  0  0
    2.8990   61.6590   70.2570 C   0  0  2  0  0  0  0  0  0  0  0  0
    3.3500   61.9510   72.7730 C   0  0  0  0  0  0  0  0  0  0  0  0
    1.0120   54.4540   76.5770 C   0  0  1  0  0  0  0  0  0  0  0  0
    1.6080   53.7170   75.3790 C   0  0  0  0  0  0  0  0  0  0  0  0
    1.0820   54.2610   74.0440 C   0  0  0  0  0  0  0  0  0  0  0  0
    0.7570   55.7370   74.0800 C   0  0  0  0  0  0  0  0  0  0  0  0
   -0.1930   56.2700   73.2950 C   0  0  0  0  0  0  0  0  0  0  0  0
    1.4420   56.5170   75.1040 C   0  0  0  0  0  0  0  0  0  0  0  0
    2.2100   57.6040   74.8770 C   0  0  0  0  0  0  0  0  0  0  0  0
    1.2970   55.9680   76.5160 C   0  0  0  0  0  0  0  0  0  0  0  0
   -0.3940   54.2070   76.6470 O   0  0  0  0  0  0  0  0  0  0  0  0
    3.4440   63.0750   69.9160 C   0  0  2  0  0  0  0  0  0  0  0  0
    4.8770   63.3040   70.4020 C   0  0  0  0  0  0  0  0  0  0  0  0
    2.6000   64.2340   70.4250 C   0  0  0  0  0  0  0  0  0  0  0  0
    1.8350   65.0620   69.6950 C   0  0  0  0  0  0  0  0  0  0  0  0
    1.0240   66.1990   70.2850 C   0  0  2  0  0  0  0  0  0  0  0  0
    0.0030   65.6270   71.2740 C   0  0  0  0  0  0  0  0  0  0  0  0
    0.4020   67.0820   69.1680 C   0  0  0  0  0  0  0  0  0  0  0  0
    1.3650   67.4300   68.0290 C   0  0  0  0  0  0  0  0  0  0  0  0
   -0.8650   66.4430   68.5870 C   0  0  0  0  0  0  0  0  0  0  0  0
    3.3444   57.7186   73.0149 H   0  0  0  0  0  0  0  0  0  0  0  0
    0.0378   59.2455   74.0460 H   0  0  0  0  0  0  0  0  0  0  0  0
    1.1597   60.6164   74.4758 H   0  0  0  0  0  0  0  0  0  0  0  0
   -0.4606   60.2956   71.9216 H   0  0  0  0  0  0  0  0  0  0  0  0
   -0.6931   61.5021   73.2779 H   0  0  0  0  0  0  0  0  0  0  0  0
    0.4901   62.1953   71.0191 H   0  0  0  0  0  0  0  0  0  0  0  0
    1.0581   62.7830   72.6582 H   0  0  0  0  0  0  0  0  0  0  0  0
    1.5541   59.3699   71.0849 H   0  0  0  0  0  0  0  0  0  0  0  0
    4.4736   59.4194   71.8413 H   0  0  0  0  0  0  0  0  0  0  0  0
    3.6611   58.4516   70.6129 H   0  0  0  0  0  0  0  0  0  0  0  0
    4.9764   60.9691   70.2148 H   0  0  0  0  0  0  0  0  0  0  0  0
    3.9302   60.1566   69.0261 H   0  0  0  0  0  0  0  0  0  0  0  0
    2.0460   61.6278   69.5631 H   0  0  0  0  0  0  0  0  0  0  0  0
    2.9620   61.7267   73.7776 H   0  0  0  0  0  0  0  0  0  0  0  0
    4.3388   61.4852   72.6494 H   0  0  0  0  0  0  0  0  0  0  0  0
    3.4399   63.0403   72.6494 H   0  0  0  0  0  0  0  0  0  0  0  0
    1.4929   54.0696   77.4886 H   0  0  0  0  0  0  0  0  0  0  0  0
    2.7019   53.8306   75.4015 H   0  0  0  0  0  0  0  0  0  0  0  0
    1.3139   52.6596   75.4524 H   0  0  0  0  0  0  0  0  0  0  0  0
    1.8482   54.0920   73.2731 H   0  0  0  0  0  0  0  0  0  0  0  0
    0.1447   53.7287   73.8246 H   0  0  0  0  0  0  0  0  0  0  0  0
   -0.4063   57.3480   73.3443 H   0  0  0  0  0  0  0  0  0  0  0  0
   -0.7580   55.6287   72.6025 H   0  0  0  0  0  0  0  0  0  0  0  0
    2.6364   58.0988   75.7621 H   0  0  0  0  0  0  0  0  0  0  0  0
    0.4669   56.4958   77.0082 H   0  0  0  0  0  0  0  0  0  0  0  0
    2.2615   56.1296   77.0196 H   0  0  0  0  0  0  0  0  0  0  0  0
   -0.6736   54.1579   77.5954 H   0  0  0  0  0  0  0  0  0  0  0  0
    3.4047   63.0739   68.8167 H   0  0  0  0  0  0  0  0  0  0  0  0
    4.8951   63.3069   71.5018 H   0  0  0  0  0  0  0  0  0  0  0  0
    5.5247   62.4980   70.0267 H   0  0  0  0  0  0  0  0  0  0  0  0
    5.2412   64.2717   70.0267 H   0  0  0  0  0  0  0  0  0  0  0  0
    2.6184   64.4135   71.5101 H   0  0  0  0  0  0  0  0  0  0  0  0
    1.7945   64.9063   68.6068 H   0  0  0  0  0  0  0  0  0  0  0  0
    1.6760   66.8795   70.8522 H   0  0  0  0  0  0  0  0  0  0  0  0
    0.3427   65.8173   72.3028 H   0  0  0  0  0  0  0  0  0  0  0  0
   -0.9723   66.1101   71.1146 H   0  0  0  0  0  0  0  0  0  0  0  0
   -0.0944   64.5430   71.1146 H   0  0  0  0  0  0  0  0  0  0  0  0
    0.1492   68.0269   69.6713 H   0  0  0  0  0  0  0  0  0  0  0  0
    2.3209   67.7754   68.4497 H   0  0  0  0  0  0  0  0  0  0  0  0
    1.5381   66.5376   67.4096 H   0  0  0  0  0  0  0  0  0  0  0  0
    0.9276   68.2269   67.4096 H   0  0  0  0  0  0  0  0  0  0  0  0
   -1.5188   66.1132   69.4078 H   0  0  0  0  0  0  0  0  0  0  0  0
   -1.3970   67.1806   67.9682 H   0  0  0  0  0  0  0  0  0  0  0  0
   -0.5881   65.5767   67.9682 H   0  0  0  0  0  0  0  0  0  0  0  0
  2  1  2  0
  3  2  1  0
  4  3  1  0
  5  4  1  0
  6  5  1  0
  7  2  1  0
  7  6  1  0
  8  7  1  0
  9  8  1  0
 10  9  1  0
 10  6  1  0
  6 11  1  1
 13 12  1  0
 14 13  1  0
 15 14  1  0
 16 15  2  0
 17 15  1  0
 18 17  2  0
 18  1  1  0
 19 12  1  0
 19 17  1  0
 20 12  1  0
 21 10  1  0
 22 21  1  0
 23 21  1  0
 24 23  2  0
 25 24  1  0
 26 25  1  0
 27 25  1  0
 28 27  1  0
 29 27  1  0
  1 30  1  0
  3 31  1  0
  3 32  1  0
  4 33  1  0
  4 34  1  0
  5 35  1  0
  5 36  1  0
  7 37  1  6
  8 38  1  0
  8 39  1  0
  9 40  1  0
  9 41  1  0
 10 42  1  6
 11 43  1  0
 11 44  1  0
 11 45  1  0
 12 46  1  1
 13 47  1  0
 13 48  1  0
 14 49  1  0
 14 50  1  0
 16 51  1  0
 16 52  1  0
 18 53  1  0
 19 54  1  0
 19 55  1  0
 20 56  1  0
 21 57  1  6
 22 58  1  0
 22 59  1  0
 22 60  1  0
 23 61  1  0
 24 62  1  0
 25 63  1  1
 26 64  1  0
 26 65  1  0
 26 66  1  0
 27 67  1  0
 28 68  1  0
 28 69  1  0
 28 70  1  0
 29 71  1  0
 29 72  1  0
 29 73  1  0
M  END
>  <score>  (1) 
-9.703

$$$$
=
     RDKit          3D

 73 75  0  0  0  0  0  0  0  0999 V2000
    1.1270   65.5420   69.8570 C   0  0  0  0  0  0  0  0  0  0  0  0
    1.1620   64.4280   70.6160 C   0  0  0  0  0  0  0  0  0  0  0  0
   -0.0780   63.7060   71.1140 C   0  0  0  0  0  0  0  0  0  0  0  0
    0.2240   62.7030   72.2340 C   0  0  0  0  0  0  0  0  0  0  0  0
    1.3120   61.6780   71.8760 C   0  0  0  0  0  0  0  0  0  0  0  0
    2.4190   62.2310   70.9430 C   0  0  1  0  0  0  0  0  0  0  0  0
    2.4580   63.7790   71.0630 C   0  0  1  0  0  0  0  0  0  0  0  0
    3.7810   64.1590   70.3980 C   0  0  0  0  0  0  0  0  0  0  0  0
    4.7290   63.0020   70.7310 C   0  0  0  0  0  0  0  0  0  0  0  0
    3.8750   61.8850   71.3930 C   0  0  2  0  0  0  0  0  0  0  0  0
    2.1480   61.7580   69.4900 C   0  0  0  0  0  0  0  0  0  0  0  0
   -1.4050   68.4490   66.6450 C   0  0  1  0  0  0  0  0  0  0  0  0
   -0.2560   67.9130   65.7930 C   0  0  0  0  0  0  0  0  0  0  0  0
    1.1030   68.0690   66.4890 C   0  0  0  0  0  0  0  0  0  0  0  0
    1.0230   67.9760   67.9960 C   0  0  0  0  0  0  0  0  0  0  0  0
    1.8960   68.6180   68.7890 C   0  0  0  0  0  0  0  0  0  0  0  0
   -0.1270   67.2580   68.5310 C   0  0  0  0  0  0  0  0  0  0  0  0
   -0.0690   66.1950   69.3620 C   0  0  0  0  0  0  0  0  0  0  0  0
   -1.4720   67.7520   68.0180 C   0  0  0  0  0  0  0  0  0  0  0  0
   -1.2710   69.8640   66.8020 O   0  0  0  0  0  0  0  0  0  0  0  0
    4.4300   60.4650   71.0870 C   0  0  2  0  0  0  0  0  0  0  0  0
    4.5620   60.1760   69.5900 C   0  0  0  0  0  0  0  0  0  0  0  0
    3.6480   59.3160   71.7050 C   0  0  0  0  0  0  0  0  0  0  0  0
    3.2970   59.1750   72.9950 C   0  0  0  0  0  0  0  0  0  0  0  0
    2.5150   57.9920   73.5300 C   0  0  2  0  0  0  0  0  0  0  0  0
    2.0170   57.1460   72.3540 C   0  0  0  0  0  0  0  0  0  0  0  0
    1.3930   58.4540   74.5010 C   0  0  0  0  0  0  0  0  0  0  0  0
    1.7110   59.7450   75.2640 C   0  0  0  0  0  0  0  0  0  0  0  0
    0.0510   58.6090   73.7750 C   0  0  0  0  0  0  0  0  0  0  0  0
    2.0925   65.9960   69.5894 H   0  0  0  0  0  0  0  0  0  0  0  0
   -0.7899   64.4532   71.4947 H   0  0  0  0  0  0  0  0  0  0  0  0
   -0.4923   63.1396   70.2669 H   0  0  0  0  0  0  0  0  0  0  0  0
    0.5547   63.2635   73.1209 H   0  0  0  0  0  0  0  0  0  0  0  0
   -0.7017   62.1364   72.4131 H   0  0  0  0  0  0  0  0  0  0  0  0
    1.7849   61.3361   72.8085 H   0  0  0  0  0  0  0  0  0  0  0  0
    0.8136   60.8638   71.3294 H   0  0  0  0  0  0  0  0  0  0  0  0
    2.4759   64.1847   72.0853 H   0  0  0  0  0  0  0  0  0  0  0  0
    3.6545   64.2561   69.3096 H   0  0  0  0  0  0  0  0  0  0  0  0
    4.1635   65.1268   70.7544 H   0  0  0  0  0  0  0  0  0  0  0  0
    5.1984   62.6226   69.8114 H   0  0  0  0  0  0  0  0  0  0  0  0
    5.5293   63.3351   71.4082 H   0  0  0  0  0  0  0  0  0  0  0  0
    3.9055   61.8525   72.4921 H   0  0  0  0  0  0  0  0  0  0  0  0
    1.6013   60.8037   69.5110 H   0  0  0  0  0  0  0  0  0  0  0  0
    1.5460   62.5140   68.9645 H   0  0  0  0  0  0  0  0  0  0  0  0
    3.1046   61.6210   68.9645 H   0  0  0  0  0  0  0  0  0  0  0  0
   -2.3487   68.2298   66.1241 H   0  0  0  0  0  0  0  0  0  0  0  0
   -0.4312   66.8456   65.5929 H   0  0  0  0  0  0  0  0  0  0  0  0
   -0.2268   68.4954   64.8603 H   0  0  0  0  0  0  0  0  0  0  0  0
    1.7731   67.2756   66.1263 H   0  0  0  0  0  0  0  0  0  0  0  0
    1.4773   69.0745   66.2463 H   0  0  0  0  0  0  0  0  0  0  0  0
    1.8125   68.5313   69.8824 H   0  0  0  0  0  0  0  0  0  0  0  0
    2.6946   69.2306   68.3452 H   0  0  0  0  0  0  0  0  0  0  0  0
   -1.0308   65.7809   69.6989 H   0  0  0  0  0  0  0  0  0  0  0  0
   -1.8789   68.4666   68.7486 H   0  0  0  0  0  0  0  0  0  0  0  0
   -2.1087   66.8639   67.8919 H   0  0  0  0  0  0  0  0  0  0  0  0
   -1.2497   70.0885   67.7660 H   0  0  0  0  0  0  0  0  0  0  0  0
    5.4218   60.5043   71.5611 H   0  0  0  0  0  0  0  0  0  0  0  0
    5.0151   59.1840   69.4466 H   0  0  0  0  0  0  0  0  0  0  0  0
    3.5659   60.1950   69.1237 H   0  0  0  0  0  0  0  0  0  0  0  0
    5.1998   60.9413   69.1237 H   0  0  0  0  0  0  0  0  0  0  0  0
    3.3355   58.5126   71.0217 H   0  0  0  0  0  0  0  0  0  0  0  0
    3.5942   59.9630   73.7025 H   0  0  0  0  0  0  0  0  0  0  0  0
    3.1665   57.3473   74.1382 H   0  0  0  0  0  0  0  0  0  0  0  0
    1.4939   56.2574   72.7371 H   0  0  0  0  0  0  0  0  0  0  0  0
    1.3257   57.7422   71.7402 H   0  0  0  0  0  0  0  0  0  0  0  0
    2.8737   56.8309   71.7402 H   0  0  0  0  0  0  0  0  0  0  0  0
    1.3253   57.6499   75.2485 H   0  0  0  0  0  0  0  0  0  0  0  0
    1.6636   59.5526   76.3460 H   0  0  0  0  0  0  0  0  0  0  0  0
    2.7209   60.0896   74.9968 H   0  0  0  0  0  0  0  0  0  0  0  0
    0.9767   60.5192   74.9968 H   0  0  0  0  0  0  0  0  0  0  0  0
   -0.7575   58.7024   74.5150 H   0  0  0  0  0  0  0  0  0  0  0  0
    0.0770   59.5101   73.1447 H   0  0  0  0  0  0  0  0  0  0  0  0
   -0.1291   57.7257   73.1447 H   0  0  0  0  0  0  0  0  0  0  0  0
  2  1  2  0
  3  2  1  0
  4  3  1  0
  5  4  1  0
  6  5  1  0
  7  2  1  0
  7  6  1  0
  8  7  1  0
  9  8  1  0
 10  9  1  0
 10  6  1  0
  6 11  1  6
 13 12  1  0
 14 13  1  0
 15 14  1  0
 16 15  2  0
 17 15  1  0
 18 17  2  0
 18  1  1  0
 19 12  1  0
 19 17  1  0
 20 12  1  0
 21 10  1  0
 22 21  1  0
 23 21  1  0
 24 23  2  0
 25 24  1  0
 26 25  1  0
 27 25  1  0
 28 27  1  0
 29 27  1  0
  1 30  1  0
  3 31  1  0
  3 32  1  0
  4 33  1  0
  4 34  1  0
  5 35  1  0
  5 36  1  0
  7 37  1  1
  8 38  1  0
  8 39  1  0
  9 40  1  0
  9 41  1  0
 10 42  1  1
 11 43  1  0
 11 44  1  0
 11 45  1  0
 12 46  1  6
 13 47  1  0
 13 48  1  0
 14 49  1  0
 14 50  1  0
 16 51  1  0
 16 52  1  0
 18 53  1  0
 19 54  1  0
 19 55  1  0
 20 56  1  0
 21 57  1  1
 22 58  1  0
 22 59  1  0
 22 60  1  0
 23 61  1  0
 24 62  1  0
 25 63  1  1
 26 64  1  0
 26 65  1  0
 26 66  1  0
 27 67  1  0
 28 68  1  0
 28 69  1  0
 28 70  1  0
 29 71  1  0
 29 72  1  0
 29 73  1  0
M  END
>  <score>  (2) 
-9.611

$$$$
=
     RDKit          3D

 73 75  0  0  0  0  0  0  0  0999 V2000
   -0.2290   59.9210   75.3290 C   0  0  0  0  0  0  0  0  0  0  0  0
    0.0470   61.2410   75.2890 C   0  0  0  0  0  0  0  0  0  0  0  0
    0.6860   62.0060   76.4340 C   0  0  0  0  0  0  0  0  0  0  0  0
    0.5610   63.5270   76.2810 C   0  0  0  0  0  0  0  0  0  0  0  0
    1.0890   64.0640   74.9400 C   0  0  0  0  0  0  0  0  0  0  0  0
    0.8870   63.0950   73.7480 C   0  0  1  0  0  0  0  0  0  0  0  0
   -0.2650   62.1080   74.0840 C   0  0  1  0  0  0  0  0  0  0  0  0
   -0.5960   61.4670   72.7370 C   0  0  0  0  0  0  0  0  0  0  0  0
   -0.3600   62.5800   71.7090 C   0  0  0  0  0  0  0  0  0  0  0  0
    0.3060   63.7650   72.4620 C   0  0  2  0  0  0  0  0  0  0  0  0
    2.2220   62.3630   73.4510 C   0  0  0  0  0  0  0  0  0  0  0  0
    2.8800   57.2540   78.2270 C   0  0  1  0  0  0  0  0  0  0  0  0
    3.7670   58.3920   77.7240 C   0  0  0  0  0  0  0  0  0  0  0  0
    3.6640   58.5780   76.2050 C   0  0  0  0  0  0  0  0  0  0  0  0
    2.3050   58.2250   75.6440 C   0  0  0  0  0  0  0  0  0  0  0  0
    2.1550   57.7720   74.3890 C   0  0  0  0  0  0  0  0  0  0  0  0
    1.1920   58.2840   76.5840 C   0  0  0  0  0  0  0  0  0  0  0  0
    0.0740   59.0250   76.4280 C   0  0  0  0  0  0  0  0  0  0  0  0
    1.4000   57.4780   77.8580 C   0  0  0  0  0  0  0  0  0  0  0  0
    3.3490   56.0090   77.7060 O   0  0  0  0  0  0  0  0  0  0  0  0
    1.2680   64.5740   71.5460 C   0  0  2  0  0  0  0  0  0  0  0  0
    0.5480   65.6070   70.6760 C   0  0  0  0  0  0  0  0  0  0  0  0
    2.1440   63.7370   70.6270 C   0  0  0  0  0  0  0  0  0  0  0  0
    3.4860   63.6580   70.6360 C   0  0  0  0  0  0  0  0  0  0  0  0
    4.2850   62.7960   69.6790 C   0  0  2  0  0  0  0  0  0  0  0  0
    3.5410   62.7070   68.3420 C   0  0  0  0  0  0  0  0  0  0  0  0
    4.6210   61.4180   70.3120 C   0  0  0  0  0  0  0  0  0  0  0  0
    5.2560   61.5020   71.7040 C   0  0  0  0  0  0  0  0  0  0  0  0
    3.3870   60.5100   70.3690 C   0  0  0  0  0  0  0  0  0  0  0  0
   -0.7279   59.4861   74.4504 H   0  0  0  0  0  0  0  0  0  0  0  0
    0.1963   61.7065   77.3723 H   0  0  0  0  0  0  0  0  0  0  0  0
    1.7586   61.7621   76.4351 H   0  0  0  0  0  0  0  0  0  0  0  0
   -0.5016   63.7977   76.3682 H   0  0  0  0  0  0  0  0  0  0  0  0
    1.1783   63.9792   77.0713 H   0  0  0  0  0  0  0  0  0  0  0  0
    0.5648   65.0042   74.7137 H   0  0  0  0  0  0  0  0  0  0  0  0
    2.1741   64.2008   75.0577 H   0  0  0  0  0  0  0  0  0  0  0  0
   -1.1914   62.5593   74.4688 H   0  0  0  0  0  0  0  0  0  0  0  0
    0.0666   60.6110   72.5413 H   0  0  0  0  0  0  0  0  0  0  0  0
   -1.6246   61.0788   72.7019 H   0  0  0  0  0  0  0  0  0  0  0  0
    0.3042   62.2202   70.9094 H   0  0  0  0  0  0  0  0  0  0  0  0
   -1.3079   62.8933   71.2471 H   0  0  0  0  0  0  0  0  0  0  0  0
   -0.3728   64.5760   72.7644 H   0  0  0  0  0  0  0  0  0  0  0  0
    2.7117   62.0945   74.3987 H   0  0  0  0  0  0  0  0  0  0  0  0
    2.0187   61.4502   72.8718 H   0  0  0  0  0  0  0  0  0  0  0  0
    2.8823   63.0252   72.8718 H   0  0  0  0  0  0  0  0  0  0  0  0
    2.9403   57.2320   79.3251 H   0  0  0  0  0  0  0  0  0  0  0  0
    3.4590   59.3258   78.2170 H   0  0  0  0  0  0  0  0  0  0  0  0
    4.8103   58.1385   77.9635 H   0  0  0  0  0  0  0  0  0  0  0  0
    3.8753   59.6312   75.9682 H   0  0  0  0  0  0  0  0  0  0  0  0
    4.3913   57.8925   75.7455 H   0  0  0  0  0  0  0  0  0  0  0  0
    1.1526   57.5237   74.0100 H   0  0  0  0  0  0  0  0  0  0  0  0
    3.0345   57.6492   73.7398 H   0  0  0  0  0  0  0  0  0  0  0  0
   -0.6870   58.9400   77.2178 H   0  0  0  0  0  0  0  0  0  0  0  0
    0.9243   56.4950   77.7263 H   0  0  0  0  0  0  0  0  0  0  0  0
    0.9535   58.0599   78.6777 H   0  0  0  0  0  0  0  0  0  0  0  0
    3.5773   55.4029   78.4548 H   0  0  0  0  0  0  0  0  0  0  0  0
    1.9150   65.0730   72.2824 H   0  0  0  0  0  0  0  0  0  0  0  0
    0.0384   66.3381   71.3208 H   0  0  0  0  0  0  0  0  0  0  0  0
    1.2809   66.1262   70.0410 H   0  0  0  0  0  0  0  0  0  0  0  0
   -0.1928   65.0991   70.0410 H   0  0  0  0  0  0  0  0  0  0  0  0
    1.6226   63.1298   69.8724 H   0  0  0  0  0  0  0  0  0  0  0  0
    4.0356   64.2529   71.3804 H   0  0  0  0  0  0  0  0  0  0  0  0
    5.2621   63.2581   69.4746 H   0  0  0  0  0  0  0  0  0  0  0  0
    2.4647   62.5783   68.5292 H   0  0  0  0  0  0  0  0  0  0  0  0
    3.7055   63.6312   67.7686 H   0  0  0  0  0  0  0  0  0  0  0  0
    3.9188   61.8476   67.7686 H   0  0  0  0  0  0  0  0  0  0  0  0
    5.3767   60.9824   69.6419 H   0  0  0  0  0  0  0  0  0  0  0  0
    4.4740   61.3985   72.4706 H   0  0  0  0  0  0  0  0  0  0  0  0
    5.9927   60.6935   71.8203 H   0  0  0  0  0  0  0  0  0  0  0  0
    5.7572   62.4743   71.8203 H   0  0  0  0  0  0  0  0  0  0  0  0
    3.1229   60.3157   71.4190 H   0  0  0  0  0  0  0  0  0  0  0  0
    2.5440   61.0048   69.8644 H   0  0  0  0  0  0  0  0  0  0  0  0
    3.6086   59.5580   69.8644 H   0  0  0  0  0  0  0  0  0  0  0  0
  2  1  2  0
  3  2  1  0
  4  3  1  0
  5  4  1  0
  6  5  1  0
  7  2  1  0
  7  6  1  0
  8  7  1  0
  9  8  1  0
 10  9  1  0
 10  6  1  0
  6 11  1  6
 13 12  1  0
 14 13  1  0
 15 14  1  0
 16 15  2  0
 17 15  1  0
 18 17  2  0
 18  1  1  0
 19 12  1  0
 19 17  1  0
 20 12  1  0
 21 10  1  0
 22 21  1  0
 23 21  1  0
 24 23  2  0
 25 24  1  0
 26 25  1  0
 27 25  1  0
 28 27  1  0
 29 27  1  0
  1 30  1  0
  3 31  1  0
  3 32  1  0
  4 33  1  0
  4 34  1  0
  5 35  1  0
  5 36  1  0
  7 37  1  1
  8 38  1  0
  8 39  1  0
  9 40  1  0
  9 41  1  0
 10 42  1  1
 11 43  1  0
 11 44  1  0
 11 45  1  0
 12 46  1  1
 13 47  1  0
 13 48  1  0
 14 49  1  0
 14 50  1  0
 16 51  1  0
 16 52  1  0
 18 53  1  0
 19 54  1  0
 19 55  1  0
 20 56  1  0
 21 57  1  1
 22 58  1  0
 22 59  1  0
 22 60  1  0
 23 61  1  0
 24 62  1  0
 25 63  1  6
 26 64  1  0
 26 65  1  0
 26 66  1  0
 27 67  1  0
 28 68  1  0
 28 69  1  0
 28 70  1  0
 29 71  1  0
 29 72  1  0
 29 73  1  0
M  END
>  <score>  (3) 
-9.008

$$$$
=
     RDKit          3D

 73 75  0  0  0  0  0  0  0  0999 V2000
    2.2160   57.9210   72.8330 C   0  0  0  0  0  0  0  0  0  0  0  0
    1.7210   59.1310   72.5030 C   0  0  0  0  0  0  0  0  0  0  0  0
    0.6750   59.8690   73.3210 C   0  0  0  0  0  0  0  0  0  0  0  0
    0.0280   61.0290   72.5560 C   0  0  0  0  0  0  0  0  0  0  0  0
    1.0370   62.0340   71.9770 C   0  0  0  0  0  0  0  0  0  0  0  0
    2.3770   61.3980   71.5310 C   0  0  1  0  0  0  0  0  0  0  0  0
    2.1560   59.8840   71.2600 C   0  0  1  0  0  0  0  0  0  0  0  0
    3.4170   59.4650   70.5050 C   0  0  0  0  0  0  0  0  0  0  0  0
    3.7950   60.6920   69.6680 C   0  0  0  0  0  0  0  0  0  0  0  0
    2.8730   61.8580   70.1220 C   0  0  2  0  0  0  0  0  0  0  0  0
    3.4530   61.6520   72.6190 C   0  0  0  0  0  0  0  0  0  0  0  0
    1.7070   57.3140   77.7880 C   0  0  1  0  0  0  0  0  0  0  0  0
    1.5340   58.8210   77.6050 C   0  0  0  0  0  0  0  0  0  0  0  0
    2.6450   59.4300   76.7400 C   0  0  0  0  0  0  0  0  0  0  0  0
    3.1790   58.4840   75.6890 C   0  0  0  0  0  0  0  0  0  0  0  0
    4.4440   58.5640   75.2450 C   0  0  0  0  0  0  0  0  0  0  0  0
    2.2830   57.4080   75.2840 C   0  0  0  0  0  0  0  0  0  0  0  0
    1.8760   57.1600   74.0210 C   0  0  0  0  0  0  0  0  0  0  0  0
    1.7400   56.5740   76.4360 C   0  0  0  0  0  0  0  0  0  0  0  0
    2.8950   57.0510   78.5380 O   0  0  0  0  0  0  0  0  0  0  0  0
    3.5720   63.2410   69.9940 C   0  0  2  0  0  0  0  0  0  0  0  0
    4.9190   63.3070   70.7180 C   0  0  0  0  0  0  0  0  0  0  0  0
    2.7460   64.4300   70.4610 C   0  0  0  0  0  0  0  0  0  0  0  0
    1.8020   65.0860   69.7650 C   0  0  0  0  0  0  0  0  0  0  0  0
    1.0240   66.2680   70.3080 C   0  0  2  0  0  0  0  0  0  0  0  0
   -0.0060   65.7670   71.3250 C   0  0  0  0  0  0  0  0  0  0  0  0
    0.4200   67.1190   69.1570 C   0  0  0  0  0  0  0  0  0  0  0  0
    1.3870   67.3910   67.9990 C   0  0  0  0  0  0  0  0  0  0  0  0
   -0.8650   66.4890   68.6080 C   0  0  0  0  0  0  0  0  0  0  0  0
    2.9421   57.4707   72.1402 H   0  0  0  0  0  0  0  0  0  0  0  0
   -0.1119   59.1565   73.6092 H   0  0  0  0  0  0  0  0  0  0  0  0
    1.1830   60.2953   74.1986 H   0  0  0  0  0  0  0  0  0  0  0  0
   -0.5597   60.6109   71.7254 H   0  0  0  0  0  0  0  0  0  0  0  0
   -0.5928   61.5801   73.2777 H   0  0  0  0  0  0  0  0  0  0  0  0
    0.5778   62.5205   71.1038 H   0  0  0  0  0  0  0  0  0  0  0  0
    1.2752   62.7444   72.7823 H   0  0  0  0  0  0  0  0  0  0  0  0
    1.2941   59.6259   70.6271 H   0  0  0  0  0  0  0  0  0  0  0  0
    4.2240   59.2116   71.2082 H   0  0  0  0  0  0  0  0  0  0  0  0
    3.2529   58.5720   69.8840 H   0  0  0  0  0  0  0  0  0  0  0  0
    4.8490   60.9557   69.8400 H   0  0  0  0  0  0  0  0  0  0  0  0
    3.6673   60.4877   68.5947 H   0  0  0  0  0  0  0  0  0  0  0  0
    1.9961   62.0454   69.4849 H   0  0  0  0  0  0  0  0  0  0  0  0
    2.9994   61.5449   73.6154 H   0  0  0  0  0  0  0  0  0  0  0  0
    4.2677   60.9215   72.5066 H   0  0  0  0  0  0  0  0  0  0  0  0
    3.8550   62.6697   72.5066 H   0  0  0  0  0  0  0  0  0  0  0  0
    0.8368   56.9346   78.3436 H   0  0  0  0  0  0  0  0  0  0  0  0
    0.5643   59.0103   77.1214 H   0  0  0  0  0  0  0  0  0  0  0  0
    1.5836   59.2902   78.5987 H   0  0  0  0  0  0  0  0  0  0  0  0
    2.2438   60.3209   76.2347 H   0  0  0  0  0  0  0  0  0  0  0  0
    3.4816   59.6721   77.4119 H   0  0  0  0  0  0  0  0  0  0  0  0
    4.8036   57.8610   74.4791 H   0  0  0  0  0  0  0  0  0  0  0  0
    5.1205   59.3325   75.6472 H   0  0  0  0  0  0  0  0  0  0  0  0
    1.2180   56.2903   73.8773 H   0  0  0  0  0  0  0  0  0  0  0  0
    2.3744   55.6821   76.5458 H   0  0  0  0  0  0  0  0  0  0  0  0
    0.6982   56.3261   76.1846 H   0  0  0  0  0  0  0  0  0  0  0  0
    2.6911   57.0961   79.5057 H   0  0  0  0  0  0  0  0  0  0  0  0
    3.7139   63.3226   68.9063 H   0  0  0  0  0  0  0  0  0  0  0  0
    4.7517   63.2988   71.8052 H   0  0  0  0  0  0  0  0  0  0  0  0
    5.5306   62.4377   70.4346 H   0  0  0  0  0  0  0  0  0  0  0  0
    5.4427   64.2319   70.4346 H   0  0  0  0  0  0  0  0  0  0  0  0
    2.9431   64.7927   71.4806 H   0  0  0  0  0  0  0  0  0  0  0  0
    1.5813   64.7456   68.7425 H   0  0  0  0  0  0  0  0  0  0  0  0
    1.6969   66.9548   70.8424 H   0  0  0  0  0  0  0  0  0  0  0  0
    0.3667   65.9483   72.3440 H   0  0  0  0  0  0  0  0  0  0  0  0
   -0.9550   66.3041   71.1807 H   0  0  0  0  0  0  0  0  0  0  0  0
   -0.1693   64.6888   71.1807 H   0  0  0  0  0  0  0  0  0  0  0  0
    0.1946   68.0908   69.6206 H   0  0  0  0  0  0  0  0  0  0  0  0
    2.3724   67.6682   68.4016 H   0  0  0  0  0  0  0  0  0  0  0  0
    1.4844   66.4854   67.3822 H   0  0  0  0  0  0  0  0  0  0  0  0
    0.9980   68.2146   67.3822 H   0  0  0  0  0  0  0  0  0  0  0  0
   -1.5059   66.1748   69.4450 H   0  0  0  0  0  0  0  0  0  0  0  0
   -1.4010   67.2265   67.9925 H   0  0  0  0  0  0  0  0  0  0  0  0
   -0.6103   65.6136   67.9925 H   0  0  0  0  0  0  0  0  0  0  0  0
  2  1  2  0
  3  2  1  0
  4  3  1  0
  5  4  1  0
  6  5  1  0
  7  2  1  0
  7  6  1  0
  8  7  1  0
  9  8  1  0
 10  9  1  0
 10  6  1  0
  6 11  1  1
 13 12  1  0
 14 13  1  0
 15 14  1  0
 16 15  2  0
 17 15  1  0
 18 17  2  0
 18  1  1  0
 19 12  1  0
 19 17  1  0
 20 12  1  0
 21 10  1  0
 22 21  1  0
 23 21  1  0
 24 23  2  0
 25 24  1  0
 26 25  1  0
 27 25  1  0
 28 27  1  0
 29 27  1  0
  1 30  1  0
  3 31  1  0
  3 32  1  0
  4 33  1  0
  4 34  1  0
  5 35  1  0
  5 36  1  0
  7 37  1  6
  8 38  1  0
  8 39  1  0
  9 40  1  0
  9 41  1  0
 10 42  1  6
 11 43  1  0
 11 44  1  0
 11 45  1  0
 12 46  1  1
 13 47  1  0
 13 48  1  0
 14 49  1  0
 14 50  1  0
 16 51  1  0
 16 52  1  0
 18 53  1  0
 19 54  1  0
 19 55  1  0
 20 56  1  0
 21 57  1  6
 22 58  1  0
 22 59  1  0
 22 60  1  0
 23 61  1  0
 24 62  1  0
 25 63  1  1
 26 64  1  0
 26 65  1  0
 26 66  1  0
 27 67  1  0
 28 68  1  0
 28 69  1  0
 28 70  1  0
 29 71  1  0
 29 72  1  0
 29 73  1  0
M  END
>  <score>  (4) 
-8.983

$$$$
=
     RDKit          3D

 73 75  0  0  0  0  0  0  0  0999 V2000
    0.8650   58.5020   76.5970 C   0  0  0  0  0  0  0  0  0  0  0  0
    1.6660   59.0010   75.6330 C   0  0  0  0  0  0  0  0  0  0  0  0
    2.4730   58.1410   74.6750 C   0  0  0  0  0  0  0  0  0  0  0  0
    3.5580   58.9290   73.9330 C   0  0  0  0  0  0  0  0  0  0  0  0
    3.0320   60.1720   73.1960 C   0  0  0  0  0  0  0  0  0  0  0  0
    1.8440   60.8700   73.9040 C   0  0  1  0  0  0  0  0  0  0  0  0
    1.8540   60.4890   75.4100 C   0  0  1  0  0  0  0  0  0  0  0  0
    0.8890   61.4920   76.0420 C   0  0  0  0  0  0  0  0  0  0  0  0
    1.0750   62.7760   75.2280 C   0  0  0  0  0  0  0  0  0  0  0  0
    1.9790   62.4230   74.0140 C   0  0  2  0  0  0  0  0  0  0  0  0
    0.5210   60.4660   73.2020 C   0  0  0  0  0  0  0  0  0  0  0  0
   -0.5110   53.8770   75.2240 C   0  0  1  0  0  0  0  0  0  0  0  0
    0.0190   54.4790   73.9240 C   0  0  0  0  0  0  0  0  0  0  0  0
   -0.5740   55.8670   73.6450 C   0  0  0  0  0  0  0  0  0  0  0  0
   -0.8910   56.6500   74.8990 C   0  0  0  0  0  0  0  0  0  0  0  0
   -1.8790   57.5600   74.9310 C   0  0  0  0  0  0  0  0  0  0  0  0
   -0.1500   56.2680   76.0950 C   0  0  0  0  0  0  0  0  0  0  0  0
    0.6090   57.0960   76.8440 C   0  0  0  0  0  0  0  0  0  0  0  0
   -0.2240   54.7860   76.4340 C   0  0  0  0  0  0  0  0  0  0  0  0
   -1.9130   53.6230   75.1030 O   0  0  0  0  0  0  0  0  0  0  0  0
    1.6480   63.2890   72.7650 C   0  0  2  0  0  0  0  0  0  0  0  0
    0.1480   63.3930   72.4830 C   0  0  0  0  0  0  0  0  0  0  0  0
    2.3250   62.8520   71.4760 C   0  0  0  0  0  0  0  0  0  0  0  0
    3.6210   62.9940   71.1510 C   0  0  0  0  0  0  0  0  0  0  0  0
    4.2160   62.5290   69.8370 C   0  0  2  0  0  0  0  0  0  0  0  0
    3.1540   62.6370   68.7380 C   0  0  0  0  0  0  0  0  0  0  0  0
    4.8460   61.1150   69.9750 C   0  0  0  0  0  0  0  0  0  0  0  0
    5.6140   60.8910   71.2820 C   0  0  0  0  0  0  0  0  0  0  0  0
    3.7940   60.0130   69.8070 C   0  0  0  0  0  0  0  0  0  0  0  0
    0.3612   59.2260   77.2542 H   0  0  0  0  0  0  0  0  0  0  0  0
    2.9549   57.3352   75.2481 H   0  0  0  0  0  0  0  0  0  0  0  0
    1.7770   57.7475   73.9196 H   0  0  0  0  0  0  0  0  0  0  0  0
    4.3119   59.2538   74.6652 H   0  0  0  0  0  0  0  0  0  0  0  0
    3.9739   58.2567   73.1681 H   0  0  0  0  0  0  0  0  0  0  0  0
    3.8555   60.8959   73.1078 H   0  0  0  0  0  0  0  0  0  0  0  0
    2.6622   59.8290   72.2184 H   0  0  0  0  0  0  0  0  0  0  0  0
    2.8191   60.5903   75.9281 H   0  0  0  0  0  0  0  0  0  0  0  0
   -0.1479   61.1324   75.9678 H   0  0  0  0  0  0  0  0  0  0  0  0
    1.0898   61.6451   77.1126 H   0  0  0  0  0  0  0  0  0  0  0  0
    0.0997   63.1446   74.8772 H   0  0  0  0  0  0  0  0  0  0  0  0
    1.5353   63.5644   75.8417 H   0  0  0  0  0  0  0  0  0  0  0  0
    3.0435   62.6767   74.1255 H   0  0  0  0  0  0  0  0  0  0  0  0
   -0.2406   60.2334   73.9609 H   0  0  0  0  0  0  0  0  0  0  0  0
    0.1704   61.2980   72.5737 H   0  0  0  0  0  0  0  0  0  0  0  0
    0.6950   59.5801   72.5737 H   0  0  0  0  0  0  0  0  0  0  0  0
    0.0154   52.9275   75.4008 H   0  0  0  0  0  0  0  0  0  0  0  0
    1.1130   54.5687   73.9951 H   0  0  0  0  0  0  0  0  0  0  0  0
   -0.2748   53.8136   73.0988 H   0  0  0  0  0  0  0  0  0  0  0  0
    0.1503   56.4418   73.0492 H   0  0  0  0  0  0  0  0  0  0  0  0
   -1.5233   55.7122   73.1113 H   0  0  0  0  0  0  0  0  0  0  0  0
   -2.0863   58.1144   75.8582 H   0  0  0  0  0  0  0  0  0  0  0  0
   -2.4805   57.7506   74.0300 H   0  0  0  0  0  0  0  0  0  0  0  0
    1.0829   56.6584   77.7350 H   0  0  0  0  0  0  0  0  0  0  0  0
   -1.0256   54.6404   77.1731 H   0  0  0  0  0  0  0  0  0  0  0  0
    0.7659   54.4990   76.8183 H   0  0  0  0  0  0  0  0  0  0  0  0
   -2.3143   53.5503   76.0051 H   0  0  0  0  0  0  0  0  0  0  0  0
    2.0550   64.2691   73.0545 H   0  0  0  0  0  0  0  0  0  0  0  0
   -0.4022   63.4311   73.4347 H   0  0  0  0  0  0  0  0  0  0  0  0
   -0.0540   64.3073   71.9058 H   0  0  0  0  0  0  0  0  0  0  0  0
   -0.1783   62.5153   71.9058 H   0  0  0  0  0  0  0  0  0  0  0  0
    1.6831   62.3659   70.7266 H   0  0  0  0  0  0  0  0  0  0  0  0
    4.2886   63.4755   71.8807 H   0  0  0  0  0  0  0  0  0  0  0  0
    5.0510   63.1825   69.5443 H   0  0  0  0  0  0  0  0  0  0  0  0
    2.1597   62.7381   69.1976 H   0  0  0  0  0  0  0  0  0  0  0  0
    3.3608   63.5188   68.1137 H   0  0  0  0  0  0  0  0  0  0  0  0
    3.1790   61.7317   68.1137 H   0  0  0  0  0  0  0  0  0  0  0  0
    5.5819   61.0593   69.1593 H   0  0  0  0  0  0  0  0  0  0  0  0
    4.9486   61.0851   72.1362 H   0  0  0  0  0  0  0  0  0  0  0  0
    5.9709   59.8513   71.3240 H   0  0  0  0  0  0  0  0  0  0  0  0
    6.4738   61.5758   71.3240 H   0  0  0  0  0  0  0  0  0  0  0  0
    3.4639   59.6672   70.7977 H   0  0  0  0  0  0  0  0  0  0  0  0
    2.9319   60.4107   69.2514 H   0  0  0  0  0  0  0  0  0  0  0  0
    4.2312   59.1703   69.2514 H   0  0  0  0  0  0  0  0  0  0  0  0
  2  1  2  0
  3  2  1  0
  4  3  1  0
  5  4  1  0
  6  5  1  0
  7  2  1  0
  7  6  1  0
  8  7  1  0
  9  8  1  0
 10  9  1  0
 10  6  1  0
  6 11  1  6
 13 12  1  0
 14 13  1  0
 15 14  1  0
 16 15  2  0
 17 15  1  0
 18 17  2  0
 18  1  1  0
 19 12  1  0
 19 17  1  0
 20 12  1  0
 21 10  1  0
 22 21  1  0
 23 21  1  0
 24 23  2  0
 25 24  1  0
 26 25  1  0
 27 25  1  0
 28 27  1  0
 29 27  1  0
  1 30  1  0
  3 31  1  0
  3 32  1  0
  4 33  1  0
  4 34  1  0
  5 35  1  0
  5 36  1  0
  7 37  1  1
  8 38  1  0
  8 39  1  0
  9 40  1  0
  9 41  1  0
 10 42  1  1
 11 43  1  0
 11 44  1  0
 11 45  1  0
 12 46  1  1
 13 47  1  0
 13 48  1  0
 14 49  1  0
 14 50  1  0
 16 51  1  0
 16 52  1  0
 18 53  1  0
 19 54  1  0
 19 55  1  0
 20 56  1  0
 21 57  1  1
 22 58  1  0
 22 59  1  0
 22 60  1  0
 23 61  1  0
 24 62  1  0
 25 63  1  6
 26 64  1  0
 26 65  1  0
 26 66  1  0
 27 67  1  0
 28 68  1  0
 28 69  1  0
 28 70  1  0
 29 71  1  0
 29 72  1  0
 29 73  1  0
M  END
>  <score>  (5) 
-8.418

$$$$
=
     RDKit          3D

 73 75  0  0  0  0  0  0  0  0999 V2000
   -2.8370   63.2770   76.3800 C   0  0  0  0  0  0  0  0  0  0  0  0
   -2.3240   62.0520   76.1430 C   0  0  0  0  0  0  0  0  0  0  0  0
   -3.0740   60.7570   76.4010 C   0  0  0  0  0  0  0  0  0  0  0  0
   -2.1610   59.5260   76.3950 C   0  0  0  0  0  0  0  0  0  0  0  0
   -1.3090   59.3870   75.1230 C   0  0  0  0  0  0  0  0  0  0  0  0
   -0.8760   60.7390   74.5020 C   0  0  1  0  0  0  0  0  0  0  0  0
   -0.9250   61.8400   75.5970 C   0  0  1  0  0  0  0  0  0  0  0  0
   -0.1550   63.0030   74.9730 C   0  0  0  0  0  0  0  0  0  0  0  0
    0.9350   62.3380   74.1250 C   0  0  0  0  0  0  0  0  0  0  0  0
    0.6350   60.8130   74.1070 C   0  0  2  0  0  0  0  0  0  0  0  0
   -1.7930   61.0660   73.2950 C   0  0  0  0  0  0  0  0  0  0  0  0
   -7.1910   65.7700   76.3640 C   0  0  1  0  0  0  0  0  0  0  0  0
   -6.7120   65.9040   74.9200 C   0  0  0  0  0  0  0  0  0  0  0  0
   -5.2500   66.3620   74.8360 C   0  0  0  0  0  0  0  0  0  0  0  0
   -4.4000   65.8850   75.9910 C   0  0  0  0  0  0  0  0  0  0  0  0
   -3.3370   66.5840   76.4210 C   0  0  0  0  0  0  0  0  0  0  0  0
   -4.8780   64.6960   76.6870 C   0  0  0  0  0  0  0  0  0  0  0  0
   -4.1750   63.5570   76.8640 C   0  0  0  0  0  0  0  0  0  0  0  0
   -6.3190   64.7850   77.1670 C   0  0  0  0  0  0  0  0  0  0  0  0
   -7.2080   67.0560   76.9890 O   0  0  0  0  0  0  0  0  0  0  0  0
    1.0900   60.1420   72.7800 C   0  0  2  0  0  0  0  0  0  0  0  0
    1.4230   58.6560   72.9370 C   0  0  0  0  0  0  0  0  0  0  0  0
    2.2750   60.8030   72.0930 C   0  0  0  0  0  0  0  0  0  0  0  0
    3.1580   60.2240   71.2620 C   0  0  0  0  0  0  0  0  0  0  0  0
    4.3160   60.9600   70.6190 C   0  0  2  0  0  0  0  0  0  0  0  0
    5.5350   60.8830   71.5430 C   0  0  0  0  0  0  0  0  0  0  0  0
    3.9110   62.4060   70.2200 C   0  0  0  0  0  0  0  0  0  0  0  0
    4.9680   63.4680   70.5400 C   0  0  0  0  0  0  0  0  0  0  0  0
    3.5350   62.4940   68.7360 C   0  0  0  0  0  0  0  0  0  0  0  0
   -2.1822   64.1401   76.1892 H   0  0  0  0  0  0  0  0  0  0  0  0
   -3.5642   60.8253   77.3834 H   0  0  0  0  0  0  0  0  0  0  0  0
   -3.8029   60.6306   75.5869 H   0  0  0  0  0  0  0  0  0  0  0  0
   -1.4840   59.5930   77.2594 H   0  0  0  0  0  0  0  0  0  0  0  0
   -2.8159   58.6432   76.4380 H   0  0  0  0  0  0  0  0  0  0  0  0
   -0.4029   58.8162   75.3745 H   0  0  0  0  0  0  0  0  0  0  0  0
   -1.9358   58.8799   74.3747 H   0  0  0  0  0  0  0  0  0  0  0  0
   -0.4348   61.5965   76.5512 H   0  0  0  0  0  0  0  0  0  0  0  0
   -0.8183   63.6135   74.3427 H   0  0  0  0  0  0  0  0  0  0  0  0
    0.2636   63.6799   75.7323 H   0  0  0  0  0  0  0  0  0  0  0  0
    0.9130   62.7388   73.1008 H   0  0  0  0  0  0  0  0  0  0  0  0
    1.9322   62.5354   74.5452 H   0  0  0  0  0  0  0  0  0  0  0  0
    1.2153   60.2067   74.8181 H   0  0  0  0  0  0  0  0  0  0  0  0
   -2.7702   61.4145   73.6607 H   0  0  0  0  0  0  0  0  0  0  0  0
   -1.3280   61.8537   72.6840 H   0  0  0  0  0  0  0  0  0  0  0  0
   -1.9313   60.1618   72.6840 H   0  0  0  0  0  0  0  0  0  0  0  0
   -8.2118   65.3605   76.3492 H   0  0  0  0  0  0  0  0  0  0  0  0
   -6.8066   64.9272   74.4230 H   0  0  0  0  0  0  0  0  0  0  0  0
   -7.3339   66.6654   74.4265 H   0  0  0  0  0  0  0  0  0  0  0  0
   -4.8171   65.9743   73.9021 H   0  0  0  0  0  0  0  0  0  0  0  0
   -5.2536   67.4615   74.8702 H   0  0  0  0  0  0  0  0  0  0  0  0
   -2.7377   66.2105   77.2644 H   0  0  0  0  0  0  0  0  0  0  0  0
   -3.0656   67.5301   75.9298 H   0  0  0  0  0  0  0  0  0  0  0  0
   -4.6691   62.7574   77.4354 H   0  0  0  0  0  0  0  0  0  0  0  0
   -6.3133   65.1072   78.2187 H   0  0  0  0  0  0  0  0  0  0  0  0
   -6.7607   63.7869   77.0303 H   0  0  0  0  0  0  0  0  0  0  0  0
   -7.2065   66.9448   77.9727 H   0  0  0  0  0  0  0  0  0  0  0  0
    0.2021   60.2738   72.1442 H   0  0  0  0  0  0  0  0  0  0  0  0
    1.4795   58.4039   74.0062 H   0  0  0  0  0  0  0  0  0  0  0  0
    0.6380   58.0518   72.4588 H   0  0  0  0  0  0  0  0  0  0  0  0
    2.3908   58.4446   72.4588 H   0  0  0  0  0  0  0  0  0  0  0  0
    2.4258   61.8729   72.2991 H   0  0  0  0  0  0  0  0  0  0  0  0
    3.0331   59.1548   71.0356 H   0  0  0  0  0  0  0  0  0  0  0  0
    4.5971   60.4754   69.6724 H   0  0  0  0  0  0  0  0  0  0  0  0
    5.2024   60.9040   72.5913 H   0  0  0  0  0  0  0  0  0  0  0  0
    6.0824   59.9485   71.3507 H   0  0  0  0  0  0  0  0  0  0  0  0
    6.1957   61.7412   71.3507 H   0  0  0  0  0  0  0  0  0  0  0  0
    3.0337   62.6300   70.8446 H   0  0  0  0  0  0  0  0  0  0  0  0
    5.0682   63.5686   71.6308 H   0  0  0  0  0  0  0  0  0  0  0  0
    5.9339   63.1653   70.1095 H   0  0  0  0  0  0  0  0  0  0  0  0
    4.6608   64.4325   70.1095 H   0  0  0  0  0  0  0  0  0  0  0  0
    2.4678   62.7438   68.6423 H   0  0  0  0  0  0  0  0  0  0  0  0
    4.1384   63.2752   68.2506 H   0  0  0  0  0  0  0  0  0  0  0  0
    3.7290   61.5262   68.2506 H   0  0  0  0  0  0  0  0  0  0  0  0
  2  1  2  0
  3  2  1  0
  4  3  1  0
  5  4  1  0
  6  5  1  0
  7  2  1  0
  7  6  1  0
  8  7  1  0
  9  8  1  0
 10  9  1  0
 10  6  1  0
  6 11  1  6
 13 12  1  0
 14 13  1  0
 15 14  1  0
 16 15  2  0
 17 15  1  0
 18 17  2  0
 18  1  1  0
 19 12  1  0
 19 17  1  0
 20 12  1  0
 21 10  1  0
 22 21  1  0
 23 21  1  0
 24 23  2  0
 25 24  1  0
 26 25  1  0
 27 25  1  0
 28 27  1  0
 29 27  1  0
  1 30  1  0
  3 31  1  0
  3 32  1  0
  4 33  1  0
  4 34  1  0
  5 35  1  0
  5 36  1  0
  7 37  1  1
  8 38  1  0
  8 39  1  0
  9 40  1  0
  9 41  1  0
 10 42  1  1
 11 43  1  0
 11 44  1  0
 11 45  1  0
 12 46  1  6
 13 47  1  0
 13 48  1  0
 14 49  1  0
 14 50  1  0
 16 51  1  0
 16 52  1  0
 18 53  1  0
 19 54  1  0
 19 55  1  0
 20 56  1  0
 21 57  1  6
 22 58  1  0
 22 59  1  0
 22 60  1  0
 23 61  1  0
 24 62  1  0
 25 63  1  6
 26 64  1  0
 26 65  1  0
 26 66  1  0
 27 67  1  0
 28 68  1  0
 28 69  1  0
 28 70  1  0
 29 71  1  0
 29 72  1  0
 29 73  1  0
M  END
>  <score>  (6) 
-8.22

$$$$
=
     RDKit          3D

 73 75  0  0  0  0  0  0  0  0999 V2000
   -3.7600   62.2930   75.5910 C   0  0  0  0  0  0  0  0  0  0  0  0
   -2.9560   61.2440   75.3180 C   0  0  0  0  0  0  0  0  0  0  0  0
   -3.4640   59.8810   74.8820 C   0  0  0  0  0  0  0  0  0  0  0  0
   -2.3990   58.7840   74.9880 C   0  0  0  0  0  0  0  0  0  0  0  0
   -1.0910   59.1120   74.2470 C   0  0  0  0  0  0  0  0  0  0  0  0
   -0.7280   60.6180   74.2430 C   0  0  1  0  0  0  0  0  0  0  0  0
   -1.4450   61.3170   75.4310 C   0  0  1  0  0  0  0  0  0  0  0  0
   -0.7430   62.6710   75.5290 C   0  0  0  0  0  0  0  0  0  0  0  0
    0.7090   62.3850   75.1320 C   0  0  0  0  0  0  0  0  0  0  0  0
    0.7610   60.9240   74.6060 C   0  0  2  0  0  0  0  0  0  0  0  0
   -1.1150   61.2350   72.8740 C   0  0  0  0  0  0  0  0  0  0  0  0
   -8.1770   64.5250   74.7640 C   0  0  1  0  0  0  0  0  0  0  0  0
   -7.1990   65.3900   73.9700 C   0  0  0  0  0  0  0  0  0  0  0  0
   -5.9720   65.7870   74.8000 C   0  0  0  0  0  0  0  0  0  0  0  0
   -5.5760   64.7510   75.8270 C   0  0  0  0  0  0  0  0  0  0  0  0
   -4.9640   65.0910   76.9730 C   0  0  0  0  0  0  0  0  0  0  0  0
   -6.0130   63.3860   75.5580 C   0  0  0  0  0  0  0  0  0  0  0  0
   -5.2050   62.3080   75.4700 C   0  0  0  0  0  0  0  0  0  0  0  0
   -7.5050   63.2430   75.2950 C   0  0  0  0  0  0  0  0  0  0  0  0
   -8.7330   65.2870   75.8390 O   0  0  0  0  0  0  0  0  0  0  0  0
    1.8480   60.7340   73.5090 C   0  0  2  0  0  0  0  0  0  0  0  0
    3.0870   59.9880   74.0090 C   0  0  0  0  0  0  0  0  0  0  0  0
    2.3260   62.0150   72.8430 C   0  0  0  0  0  0  0  0  0  0  0  0
    1.9690   62.4820   71.6340 C   0  0  0  0  0  0  0  0  0  0  0  0
    2.4970   63.7730   71.0410 C   0  0  2  0  0  0  0  0  0  0  0  0
    1.3160   64.6430   70.6010 C   0  0  0  0  0  0  0  0  0  0  0  0
    3.5330   63.4920   69.9170 C   0  0  0  0  0  0  0  0  0  0  0  0
    4.9810   63.3820   70.4070 C   0  0  0  0  0  0  0  0  0  0  0  0
    3.1690   62.2340   69.1200 C   0  0  0  0  0  0  0  0  0  0  0  0
   -3.2763   63.2188   75.9359 H   0  0  0  0  0  0  0  0  0  0  0  0
   -4.3170   59.6044   75.5191 H   0  0  0  0  0  0  0  0  0  0  0  0
   -3.7515   59.9598   73.8232 H   0  0  0  0  0  0  0  0  0  0  0  0
   -2.1652   58.6297   76.0517 H   0  0  0  0  0  0  0  0  0  0  0  0
   -2.8183   57.8846   74.5133 H   0  0  0  0  0  0  0  0  0  0  0  0
   -0.2718   58.5603   74.7312 H   0  0  0  0  0  0  0  0  0  0  0  0
   -1.2383   58.8180   73.1973 H   0  0  0  0  0  0  0  0  0  0  0  0
   -1.3498   60.8265   76.4110 H   0  0  0  0  0  0  0  0  0  0  0  0
   -1.1988   63.3953   74.8379 H   0  0  0  0  0  0  0  0  0  0  0  0
   -0.8212   63.1089   76.5351 H   0  0  0  0  0  0  0  0  0  0  0  0
    1.0283   63.0815   74.3427 H   0  0  0  0  0  0  0  0  0  0  0  0
    1.3823   62.5151   75.9921 H   0  0  0  0  0  0  0  0  0  0  0  0
    1.1086   60.1718   75.3295 H   0  0  0  0  0  0  0  0  0  0  0  0
   -1.6930   62.1565   73.0374 H   0  0  0  0  0  0  0  0  0  0  0  0
   -0.2024   61.4703   72.3067 H   0  0  0  0  0  0  0  0  0  0  0  0
   -1.7241   60.5158   72.3067 H   0  0  0  0  0  0  0  0  0  0  0  0
   -8.9846   64.2108   74.0864 H   0  0  0  0  0  0  0  0  0  0  0  0
   -6.8625   64.8257   73.0877 H   0  0  0  0  0  0  0  0  0  0  0  0
   -7.7230   66.3124   73.6790 H   0  0  0  0  0  0  0  0  0  0  0  0
   -5.1243   65.9407   74.1161 H   0  0  0  0  0  0  0  0  0  0  0  0
   -6.2366   66.7022   75.3500 H   0  0  0  0  0  0  0  0  0  0  0  0
   -4.6882   64.3137   77.7009 H   0  0  0  0  0  0  0  0  0  0  0  0
   -4.7385   66.1468   77.1838 H   0  0  0  0  0  0  0  0  0  0  0  0
   -5.6939   61.3397   75.2874 H   0  0  0  0  0  0  0  0  0  0  0  0
   -7.9963   62.9607   76.2378 H   0  0  0  0  0  0  0  0  0  0  0  0
   -7.6169   62.4788   74.5117 H   0  0  0  0  0  0  0  0  0  0  0  0
   -8.4478   64.8961   76.7027 H   0  0  0  0  0  0  0  0  0  0  0  0
    1.3116   60.1327   72.7602 H   0  0  0  0  0  0  0  0  0  0  0  0
    3.0936   59.9840   75.1090 H   0  0  0  0  0  0  0  0  0  0  0  0
    3.0658   58.9524   73.6387 H   0  0  0  0  0  0  0  0  0  0  0  0
    3.9923   60.4913   73.6387 H   0  0  0  0  0  0  0  0  0  0  0  0
    3.0418   62.6259   73.4126 H   0  0  0  0  0  0  0  0  0  0  0  0
    1.2529   61.8937   71.0414 H   0  0  0  0  0  0  0  0  0  0  0  0
    3.0526   64.3427   71.8005 H   0  0  0  0  0  0  0  0  0  0  0  0
    0.7933   65.0280   71.4890 H   0  0  0  0  0  0  0  0  0  0  0  0
    1.6859   65.4861   69.9990 H   0  0  0  0  0  0  0  0  0  0  0  0
    0.6205   64.0398   69.9990 H   0  0  0  0  0  0  0  0  0  0  0  0
    3.4822   64.3774   69.2662 H   0  0  0  0  0  0  0  0  0  0  0  0
    4.9968   63.3808   71.5069 H   0  0  0  0  0  0  0  0  0  0  0  0
    5.4247   62.4476   70.0329 H   0  0  0  0  0  0  0  0  0  0  0  0
    5.5608   64.2387   70.0329 H   0  0  0  0  0  0  0  0  0  0  0  0
    2.9321   61.4152   69.8153 H   0  0  0  0  0  0  0  0  0  0  0  0
    2.2941   62.4417   68.4864 H   0  0  0  0  0  0  0  0  0  0  0  0
    4.0196   61.9424   68.4864 H   0  0  0  0  0  0  0  0  0  0  0  0
  2  1  2  0
  3  2  1  0
  4  3  1  0
  5  4  1  0
  6  5  1  0
  7  2  1  0
  7  6  1  0
  8  7  1  0
  9  8  1  0
 10  9  1  0
 10  6  1  0
  6 11  1  6
 13 12  1  0
 14 13  1  0
 15 14  1  0
 16 15  2  0
 17 15  1  0
 18 17  2  0
 18  1  1  0
 19 12  1  0
 19 17  1  0
 20 12  1  0
 21 10  1  0
 22 21  1  0
 23 21  1  0
 24 23  2  0
 25 24  1  0
 26 25  1  0
 27 25  1  0
 28 27  1  0
 29 27  1  0
  1 30  1  0
  3 31  1  0
  3 32  1  0
  4 33  1  0
  4 34  1  0
  5 35  1  0
  5 36  1  0
  7 37  1  1
  8 38  1  0
  8 39  1  0
  9 40  1  0
  9 41  1  0
 10 42  1  1
 11 43  1  0
 11 44  1  0
 11 45  1  0
 12 46  1  6
 13 47  1  0
 13 48  1  0
 14 49  1  0
 14 50  1  0
 16 51  1  0
 16 52  1  0
 18 53  1  0
 19 54  1  0
 19 55  1  0
 20 56  1  0
 21 57  1  6
 22 58  1  0
 22 59  1  0
 22 60  1  0
 23 61  1  0
 24 62  1  0
 25 63  1  1
 26 64  1  0
 26 65  1  0
 26 66  1  0
 27 67  1  0
 28 68  1  0
 28 69  1  0
 28 70  1  0
 29 71  1  0
 29 72  1  0
 29 73  1  0
M  END
>  <score>  (7) 
-8.197

$$$$
=
     RDKit          3D

 73 75  0  0  0  0  0  0  0  0999 V2000
    0.7960   61.2380   73.4800 C   0  0  0  0  0  0  0  0  0  0  0  0
    0.1810   60.1110   73.8940 C   0  0  0  0  0  0  0  0  0  0  0  0
    0.9160   58.8910   74.4190 C   0  0  0  0  0  0  0  0  0  0  0  0
    0.0330   57.6390   74.4780 C   0  0  0  0  0  0  0  0  0  0  0  0
   -1.2740   57.8350   75.2640 C   0  0  0  0  0  0  0  0  0  0  0  0
   -1.8690   59.2610   75.1550 C   0  0  1  0  0  0  0  0  0  0  0  0
   -1.3260   59.9420   73.8680 C   0  0  1  0  0  0  0  0  0  0  0  0
   -2.2370   61.1560   73.6910 C   0  0  0  0  0  0  0  0  0  0  0  0
   -3.6060   60.6930   74.2010 C   0  0  0  0  0  0  0  0  0  0  0  0
   -3.4030   59.3000   74.8580 C   0  0  2  0  0  0  0  0  0  0  0  0
   -1.5210   60.0620   76.4370 C   0  0  0  0  0  0  0  0  0  0  0  0
    5.3030   61.8100   71.3510 C   0  0  1  0  0  0  0  0  0  0  0  0
    4.3410   62.2300   70.2410 C   0  0  0  0  0  0  0  0  0  0  0  0
    3.2140   61.2090   70.0340 C   0  0  0  0  0  0  0  0  0  0  0  0
    2.8150   60.4860   71.3000 C   0  0  0  0  0  0  0  0  0  0  0  0
    2.3190   59.2380   71.2730 C   0  0  0  0  0  0  0  0  0  0  0  0
    3.1200   61.1710   72.5500 C   0  0  0  0  0  0  0  0  0  0  0  0
    2.2240   61.4850   73.5100 C   0  0  0  0  0  0  0  0  0  0  0  0
    4.5720   61.6040   72.6920 C   0  0  0  0  0  0  0  0  0  0  0  0
    5.9970   60.6210   70.9650 O   0  0  0  0  0  0  0  0  0  0  0  0
   -4.3940   59.0560   76.0310 C   0  0  2  0  0  0  0  0  0  0  0  0
   -5.0330   57.6650   76.0040 C   0  0  0  0  0  0  0  0  0  0  0  0
   -5.5200   60.0710   76.1500 C   0  0  0  0  0  0  0  0  0  0  0  0
   -6.8000   59.9120   75.7730 C   0  0  0  0  0  0  0  0  0  0  0  0
   -7.8630   60.9820   75.9260 C   0  0  2  0  0  0  0  0  0  0  0  0
   -9.1690   60.3290   76.3870 C   0  0  0  0  0  0  0  0  0  0  0  0
   -7.9970   61.8290   74.6310 C   0  0  0  0  0  0  0  0  0  0  0  0
   -7.2240   63.1520   74.6580 C   0  0  0  0  0  0  0  0  0  0  0  0
   -7.5880   61.0260   73.3900 C   0  0  0  0  0  0  0  0  0  0  0  0
    0.1569   62.0411   73.0844 H   0  0  0  0  0  0  0  0  0  0  0  0
    1.7713   58.6859   73.7584 H   0  0  0  0  0  0  0  0  0  0  0  0
    1.2359   59.1167   75.4470 H   0  0  0  0  0  0  0  0  0  0  0  0
   -0.2223   57.3464   73.4488 H   0  0  0  0  0  0  0  0  0  0  0  0
    0.6103   56.8657   75.0060 H   0  0  0  0  0  0  0  0  0  0  0  0
   -2.0176   57.1202   74.8818 H   0  0  0  0  0  0  0  0  0  0  0  0
   -1.0340   57.6714   76.3250 H   0  0  0  0  0  0  0  0  0  0  0  0
   -1.3869   59.3492   72.9434 H   0  0  0  0  0  0  0  0  0  0  0  0
   -1.8695   62.0065   74.2840 H   0  0  0  0  0  0  0  0  0  0  0  0
   -2.2761   61.4981   72.6463 H   0  0  0  0  0  0  0  0  0  0  0  0
   -3.9932   61.4070   74.9428 H   0  0  0  0  0  0  0  0  0  0  0  0
   -4.3311   60.6342   73.3759 H   0  0  0  0  0  0  0  0  0  0  0  0
   -3.6609   58.4361   74.2277 H   0  0  0  0  0  0  0  0  0  0  0  0
   -1.7803   59.4652   77.3239 H   0  0  0  0  0  0  0  0  0  0  0  0
   -0.4442   60.2865   76.4481 H   0  0  0  0  0  0  0  0  0  0  0  0
   -2.0917   61.0023   76.4481 H   0  0  0  0  0  0  0  0  0  0  0  0
    6.0304   62.6217   71.4996 H   0  0  0  0  0  0  0  0  0  0  0  0
    3.8958   63.2002   70.5063 H   0  0  0  0  0  0  0  0  0  0  0  0
    4.9139   62.2954   69.3042 H   0  0  0  0  0  0  0  0  0  0  0  0
    2.3325   61.7380   69.6427 H   0  0  0  0  0  0  0  0  0  0  0  0
    3.5903   60.4496   69.3328 H   0  0  0  0  0  0  0  0  0  0  0  0
    2.0375   58.7376   72.2113 H   0  0  0  0  0  0  0  0  0  0  0  0
    2.1944   58.7163   70.3126 H   0  0  0  0  0  0  0  0  0  0  0  0
    2.6192   61.9802   74.4092 H   0  0  0  0  0  0  0  0  0  0  0  0
    5.1084   60.8313   73.2623 H   0  0  0  0  0  0  0  0  0  0  0  0
    4.5631   62.5793   73.2006 H   0  0  0  0  0  0  0  0  0  0  0  0
    6.2842   60.1290   71.7746 H   0  0  0  0  0  0  0  0  0  0  0  0
   -3.7370   59.1622   76.9068 H   0  0  0  0  0  0  0  0  0  0  0  0
   -5.1937   57.3152   77.0345 H   0  0  0  0  0  0  0  0  0  0  0  0
   -5.9984   57.7151   75.4791 H   0  0  0  0  0  0  0  0  0  0  0  0
   -4.3661   56.9652   75.4791 H   0  0  0  0  0  0  0  0  0  0  0  0
   -5.2578   61.0428   76.5937 H   0  0  0  0  0  0  0  0  0  0  0  0
   -7.0934   58.9499   75.3277 H   0  0  0  0  0  0  0  0  0  0  0  0
   -7.5708   61.7027   76.7040 H   0  0  0  0  0  0  0  0  0  0  0  0
   -9.2025   60.3123   77.4864 H   0  0  0  0  0  0  0  0  0  0  0  0
  -10.0230   60.9061   76.0029 H   0  0  0  0  0  0  0  0  0  0  0  0
   -9.2197   59.2995   76.0029 H   0  0  0  0  0  0  0  0  0  0  0  0
   -9.0654   62.0852   74.5784 H   0  0  0  0  0  0  0  0  0  0  0  0
   -7.0483   63.4528   75.7014 H   0  0  0  0  0  0  0  0  0  0  0  0
   -6.2590   63.0233   74.1460 H   0  0  0  0  0  0  0  0  0  0  0  0
   -7.8099   63.9295   74.1460 H   0  0  0  0  0  0  0  0  0  0  0  0
   -7.1093   60.0863   73.7027 H   0  0  0  0  0  0  0  0  0  0  0  0
   -8.4810   60.8003   72.7886 H   0  0  0  0  0  0  0  0  0  0  0  0
   -6.8803   61.6155   72.7886 H   0  0  0  0  0  0  0  0  0  0  0  0
  2  1  2  0
  3  2  1  0
  4  3  1  0
  5  4  1  0
  6  5  1  0
  7  2  1  0
  7  6  1  0
  8  7  1  0
  9  8  1  0
 10  9  1  0
 10  6  1  0
  6 11  1  1
 13 12  1  0
 14 13  1  0
 15 14  1  0
 16 15  2  0
 17 15  1  0
 18 17  2  0
 18  1  1  0
 19 12  1  0
 19 17  1  0
 20 12  1  0
 21 10  1  0
 22 21  1  0
 23 21  1  0
 24 23  2  0
 25 24  1  0
 26 25  1  0
 27 25  1  0
 28 27  1  0
 29 27  1  0
  1 30  1  0
  3 31  1  0
  3 32  1  0
  4 33  1  0
  4 34  1  0
  5 35  1  0
  5 36  1  0
  7 37  1  6
  8 38  1  0
  8 39  1  0
  9 40  1  0
  9 41  1  0
 10 42  1  6
 11 43  1  0
 11 44  1  0
 11 45  1  0
 12 46  1  1
 13 47  1  0
 13 48  1  0
 14 49  1  0
 14 50  1  0
 16 51  1  0
 16 52  1  0
 18 53  1  0
 19 54  1  0
 19 55  1  0
 20 56  1  0
 21 57  1  1
 22 58  1  0
 22 59  1  0
 22 60  1  0
 23 61  1  0
 24 62  1  0
 25 63  1  1
 26 64  1  0
 26 65  1  0
 26 66  1  0
 27 67  1  0
 28 68  1  0
 28 69  1  0
 28 70  1  0
 29 71  1  0
 29 72  1  0
 29 73  1  0
M  END
>  <score>  (8) 
-8.032

$$$$
=
     RDKit          3D

 73 75  0  0  0  0  0  0  0  0999 V2000
   -3.6300   60.9400   74.2670 C   0  0  0  0  0  0  0  0  0  0  0  0
   -2.4900   60.6280   74.9180 C   0  0  0  0  0  0  0  0  0  0  0  0
   -2.4510   59.9680   76.2850 C   0  0  0  0  0  0  0  0  0  0  0  0
   -1.0720   60.0530   76.9500 C   0  0  0  0  0  0  0  0  0  0  0  0
    0.0740   59.5110   76.0790 C   0  0  0  0  0  0  0  0  0  0  0  0
   -0.1250   59.7390   74.5600 C   0  0  1  0  0  0  0  0  0  0  0  0
   -1.1150   60.9170   74.3480 C   0  0  1  0  0  0  0  0  0  0  0  0
   -0.9500   61.2650   72.8690 C   0  0  0  0  0  0  0  0  0  0  0  0
    0.5300   61.0000   72.5700 C   0  0  0  0  0  0  0  0  0  0  0  0
    1.1320   60.3020   73.8210 C   0  0  2  0  0  0  0  0  0  0  0  0
   -0.6240   58.4240   73.9050 C   0  0  0  0  0  0  0  0  0  0  0  0
   -8.2460   62.2630   75.7220 C   0  0  1  0  0  0  0  0  0  0  0  0
   -7.8330   63.4090   74.8010 C   0  0  0  0  0  0  0  0  0  0  0  0
   -6.4390   63.9520   75.1420 C   0  0  0  0  0  0  0  0  0  0  0  0
   -5.5020   62.9030   75.6960 C   0  0  0  0  0  0  0  0  0  0  0  0
   -4.5150   63.2180   76.5510 C   0  0  0  0  0  0  0  0  0  0  0  0
   -5.8130   61.5210   75.3490 C   0  0  0  0  0  0  0  0  0  0  0  0
   -4.9760   60.6610   74.7320 C   0  0  0  0  0  0  0  0  0  0  0  0
   -7.2390   61.0970   75.6710 C   0  0  0  0  0  0  0  0  0  0  0  0
   -8.3950   62.7460   77.0590 O   0  0  0  0  0  0  0  0  0  0  0  0
    2.2780   59.3190   73.4490 C   0  0  2  0  0  0  0  0  0  0  0  0
    2.9500   58.6840   74.6680 C   0  0  0  0  0  0  0  0  0  0  0  0
    3.3780   59.9070   72.5780 C   0  0  0  0  0  0  0  0  0  0  0  0
    3.3150   60.1780   71.2630 C   0  0  0  0  0  0  0  0  0  0  0  0
    4.4640   60.7640   70.4670 C   0  0  2  0  0  0  0  0  0  0  0  0
    5.6730   60.9420   71.3890 C   0  0  0  0  0  0  0  0  0  0  0  0
    4.0310   62.0600   69.7280 C   0  0  0  0  0  0  0  0  0  0  0  0
    2.5150   62.2100   69.5530 C   0  0  0  0  0  0  0  0  0  0  0  0
    4.5900   63.3110   70.4150 C   0  0  0  0  0  0  0  0  0  0  0  0
   -3.5302   61.4511   73.2981 H   0  0  0  0  0  0  0  0  0  0  0  0
   -3.1856   60.4650   76.9357 H   0  0  0  0  0  0  0  0  0  0  0  0
   -2.6839   58.9023   76.1436 H   0  0  0  0  0  0  0  0  0  0  0  0
   -0.8629   61.1081   77.1803 H   0  0  0  0  0  0  0  0  0  0  0  0
   -1.1128   59.4242   77.8516 H   0  0  0  0  0  0  0  0  0  0  0  0
    1.0057   60.0098   76.3842 H   0  0  0  0  0  0  0  0  0  0  0  0
    0.1043   58.4226   76.2354 H   0  0  0  0  0  0  0  0  0  0  0  0
   -0.9103   61.8309   74.9249 H   0  0  0  0  0  0  0  0  0  0  0  0
   -1.5923   60.6253   72.2459 H   0  0  0  0  0  0  0  0  0  0  0  0
   -1.2393   62.3036   72.6509 H   0  0  0  0  0  0  0  0  0  0  0  0
    0.6259   60.3462   71.6906 H   0  0  0  0  0  0  0  0  0  0  0  0
    1.0596   61.9395   72.3535 H   0  0  0  0  0  0  0  0  0  0  0  0
    1.6815   60.9585   74.5117 H   0  0  0  0  0  0  0  0  0  0  0  0
   -0.8973   57.7039   74.6904 H   0  0  0  0  0  0  0  0  0  0  0  0
   -1.5040   58.6365   73.2801 H   0  0  0  0  0  0  0  0  0  0  0  0
    0.1755   57.9993   73.2801 H   0  0  0  0  0  0  0  0  0  0  0  0
   -9.2117   61.8718   75.3694 H   0  0  0  0  0  0  0  0  0  0  0  0
   -7.8274   63.0450   73.7630 H   0  0  0  0  0  0  0  0  0  0  0  0
   -8.5563   64.2270   74.9341 H   0  0  0  0  0  0  0  0  0  0  0  0
   -5.9937   64.3678   74.2261 H   0  0  0  0  0  0  0  0  0  0  0  0
   -6.5710   64.7136   75.9247 H   0  0  0  0  0  0  0  0  0  0  0  0
   -3.8495   62.4316   76.9366 H   0  0  0  0  0  0  0  0  0  0  0  0
   -4.3723   64.2624   76.8656 H   0  0  0  0  0  0  0  0  0  0  0  0
   -5.3536   59.6416   74.5639 H   0  0  0  0  0  0  0  0  0  0  0  0
   -7.2380   60.5983   76.6514 H   0  0  0  0  0  0  0  0  0  0  0  0
   -7.5639   60.4327   74.8567 H   0  0  0  0  0  0  0  0  0  0  0  0
   -8.1720   62.0232   77.6977 H   0  0  0  0  0  0  0  0  0  0  0  0
    1.7414   58.5574   72.8642 H   0  0  0  0  0  0  0  0  0  0  0  0
    2.5105   59.0993   75.5869 H   0  0  0  0  0  0  0  0  0  0  0  0
    2.7945   57.5953   74.6468 H   0  0  0  0  0  0  0  0  0  0  0  0
    4.0282   58.9009   74.6468 H   0  0  0  0  0  0  0  0  0  0  0  0
    4.3299   60.1356   73.0797 H   0  0  0  0  0  0  0  0  0  0  0  0
    2.3751   59.9620   70.7339 H   0  0  0  0  0  0  0  0  0  0  0  0
    4.7671   60.0721   69.6674 H   0  0  0  0  0  0  0  0  0  0  0  0
    5.3446   60.8937   72.4377 H   0  0  0  0  0  0  0  0  0  0  0  0
    6.4024   60.1416   71.1959 H   0  0  0  0  0  0  0  0  0  0  0  0
    6.1407   61.9187   71.1959 H   0  0  0  0  0  0  0  0  0  0  0  0
    4.4606   61.9608   68.7202 H   0  0  0  0  0  0  0  0  0  0  0  0
    2.0347   62.2575   70.5415 H   0  0  0  0  0  0  0  0  0  0  0  0
    2.2998   63.1338   68.9960 H   0  0  0  0  0  0  0  0  0  0  0  0
    2.1230   61.3463   68.9960 H   0  0  0  0  0  0  0  0  0  0  0  0
    4.5341   63.1859   71.5064 H   0  0  0  0  0  0  0  0  0  0  0  0
    5.6385   63.4560   70.1158 H   0  0  0  0  0  0  0  0  0  0  0  0
    3.9985   64.1889   70.1158 H   0  0  0  0  0  0  0  0  0  0  0  0
  2  1  2  0
  3  2  1  0
  4  3  1  0
  5  4  1  0
  6  5  1  0
  7  2  1  0
  7  6  1  0
  8  7  1  0
  9  8  1  0
 10  9  1  0
 10  6  1  0
  6 11  1  6
 13 12  1  0
 14 13  1  0
 15 14  1  0
 16 15  2  0
 17 15  1  0
 18 17  2  0
 18  1  1  0
 19 12  1  0
 19 17  1  0
 20 12  1  0
 21 10  1  0
 22 21  1  0
 23 21  1  0
 24 23  2  0
 25 24  1  0
 26 25  1  0
 27 25  1  0
 28 27  1  0
 29 27  1  0
  1 30  1  0
  3 31  1  0
  3 32  1  0
  4 33  1  0
  4 34  1  0
  5 35  1  0
  5 36  1  0
  7 37  1  1
  8 38  1  0
  8 39  1  0
  9 40  1  0
  9 41  1  0
 10 42  1  1
 11 43  1  0
 11 44  1  0
 11 45  1  0
 12 46  1  6
 13 47  1  0
 13 48  1  0
 14 49  1  0
 14 50  1  0
 16 51  1  0
 16 52  1  0
 18 53  1  0
 19 54  1  0
 19 55  1  0
 20 56  1  0
 21 57  1  6
 22 58  1  0
 22 59  1  0
 22 60  1  0
 23 61  1  0
 24 62  1  0
 25 63  1  6
 26 64  1  0
 26 65  1  0
 26 66  1  0
 27 67  1  0
 28 68  1  0
 28 69  1  0
 28 70  1  0
 29 71  1  0
 29 72  1  0
 29 73  1  0
M  END
>  <score>  (9) 
-8.018

$$$$
