=
     RDKit          3D

  9  8  0  0  0  0  0  0  0  0999 V2000
   -2.2190   68.8590   67.0470 N   0  0  0  0  0  0  0  0  0  0  0  0
   -2.0430   68.7680   65.7040 C   0  0  0  0  0  0  0  0  0  0  0  0
   -0.9810   68.4270   65.1990 O   0  0  0  0  0  0  0  0  0  0  0  0
   -3.1610   69.1010   64.9840 N   0  0  0  0  0  0  0  0  0  0  0  0
   -2.9320   69.1590   63.5810 O   0  0  0  0  0  0  0  0  0  0  0  0
   -3.1304   69.1502   67.4284 H   0  0  0  0  0  0  0  0  0  0  0  0
   -1.4412   68.6368   67.6846 H   0  0  0  0  0  0  0  0  0  0  0  0
   -4.0766   69.2905   65.4161 H   0  0  0  0  0  0  0  0  0  0  0  0
   -1.9866   69.3984   63.4106 H   0  0  0  0  0  0  0  0  0  0  0  0
  2  1  1  0
  3  2  2  0
  4  2  1  0
  5  4  1  0
  1  6  1  0
  1  7  1  0
  4  8  1  0
  5  9  1  0
M  END
>  <score>  (1) 
-4.067

$$$$
=
     RDKit          3D

  9  8  0  0  0  0  0  0  0  0999 V2000
   -3.1330   69.1440   64.3790 N   0  0  0  0  0  0  0  0  0  0  0  0
   -2.6900   68.6760   65.5740 C   0  0  0  0  0  0  0  0  0  0  0  0
   -1.5140   68.4130   65.7840 O   0  0  0  0  0  0  0  0  0  0  0  0
   -3.6870   68.5260   66.5030 N   0  0  0  0  0  0  0  0  0  0  0  0
   -3.2520   67.8890   67.6980 O   0  0  0  0  0  0  0  0  0  0  0  0
   -4.1329   69.3525   64.2462 H   0  0  0  0  0  0  0  0  0  0  0  0
   -2.4692   69.2906   63.6052 H   0  0  0  0  0  0  0  0  0  0  0  0
   -4.6550   68.8431   66.3507 H   0  0  0  0  0  0  0  0  0  0  0  0
   -3.5933   68.3888   68.4814 H   0  0  0  0  0  0  0  0  0  0  0  0
  2  1  1  0
  3  2  2  0
  4  2  1  0
  5  4  1  0
  1  6  1  0
  1  7  1  0
  4  8  1  0
  5  9  1  0
M  END
>  <score>  (2) 
-4.023

$$$$
=
     RDKit          3D

  9  8  0  0  0  0  0  0  0  0999 V2000
    2.8570   59.6300   71.4270 N   0  0  0  0  0  0  0  0  0  0  0  0
    3.4160   58.6360   70.6900 C   0  0  0  0  0  0  0  0  0  0  0  0
    3.9390   58.8340   69.6020 O   0  0  0  0  0  0  0  0  0  0  0  0
    3.3280   57.4030   71.2830 N   0  0  0  0  0  0  0  0  0  0  0  0
    3.7690   56.3410   70.4470 O   0  0  0  0  0  0  0  0  0  0  0  0
    2.4276   59.4162   72.3385 H   0  0  0  0  0  0  0  0  0  0  0  0
    2.8624   60.5978   71.0746 H   0  0  0  0  0  0  0  0  0  0  0  0
    2.9767   57.2601   72.2406 H   0  0  0  0  0  0  0  0  0  0  0  0
    4.0819   55.5876   71.0079 H   0  0  0  0  0  0  0  0  0  0  0  0
  2  1  1  0
  3  2  2  0
  4  2  1  0
  5  4  1  0
  1  6  1  0
  1  7  1  0
  4  8  1  0
  5  9  1  0
M  END
>  <score>  (3) 
-3.728

$$$$
=
     RDKit          3D

  9  8  0  0  0  0  0  0  0  0999 V2000
    0.0030   66.9860   66.2520 N   0  0  0  0  0  0  0  0  0  0  0  0
   -1.0010   67.0910   67.1600 C   0  0  0  0  0  0  0  0  0  0  0  0
   -0.9810   66.5100   68.2370 O   0  0  0  0  0  0  0  0  0  0  0  0
   -2.0270   67.9010   66.7470 N   0  0  0  0  0  0  0  0  0  0  0  0
   -3.1460   67.8870   67.6240 O   0  0  0  0  0  0  0  0  0  0  0  0
   -0.0563   67.4934   65.3576 H   0  0  0  0  0  0  0  0  0  0  0  0
    0.8240   66.3990   66.4576 H   0  0  0  0  0  0  0  0  0  0  0  0
   -1.9908   68.4646   65.8856 H   0  0  0  0  0  0  0  0  0  0  0  0
   -2.8300   67.8910   68.5622 H   0  0  0  0  0  0  0  0  0  0  0  0
  2  1  1  0
  3  2  2  0
  4  2  1  0
  5  4  1  0
  1  6  1  0
  1  7  1  0
  4  8  1  0
  5  9  1  0
M  END
>  <score>  (4) 
-3.622

$$$$
=
     RDKit          3D

  9  8  0  0  0  0  0  0  0  0999 V2000
    3.7600   69.0870   60.5500 N   0  0  0  0  0  0  0  0  0  0  0  0
    2.7790   68.7150   61.4120 C   0  0  0  0  0  0  0  0  0  0  0  0
    2.9910   68.0100   62.3890 O   0  0  0  0  0  0  0  0  0  0  0  0
    1.5430   69.2010   61.0720 N   0  0  0  0  0  0  0  0  0  0  0  0
    0.4920   68.6850   61.8790 O   0  0  0  0  0  0  0  0  0  0  0  0
    3.5353   69.6821   59.7399 H   0  0  0  0  0  0  0  0  0  0  0  0
    4.7288   68.7741   60.7063 H   0  0  0  0  0  0  0  0  0  0  0  0
    1.3906   69.8738   60.3071 H   0  0  0  0  0  0  0  0  0  0  0  0
    0.7236   68.7987   62.8348 H   0  0  0  0  0  0  0  0  0  0  0  0
  2  1  1  0
  3  2  2  0
  4  2  1  0
  5  4  1  0
  1  6  1  0
  1  7  1  0
  4  8  1  0
  5  9  1  0
M  END
>  <score>  (5) 
-3.572

$$$$
=
     RDKit          3D

  9  8  0  0  0  0  0  0  0  0999 V2000
    1.0090   68.8830   63.8300 N   0  0  0  0  0  0  0  0  0  0  0  0
   -0.1920   69.0940   63.2330 C   0  0  0  0  0  0  0  0  0  0  0  0
   -0.2960   69.5480   62.1010 O   0  0  0  0  0  0  0  0  0  0  0  0
   -1.2600   68.7550   64.0220 N   0  0  0  0  0  0  0  0  0  0  0  0
   -2.5150   69.1220   63.4620 O   0  0  0  0  0  0  0  0  0  0  0  0
    1.0491   68.4989   64.7848 H   0  0  0  0  0  0  0  0  0  0  0  0
    1.8801   69.1071   63.3281 H   0  0  0  0  0  0  0  0  0  0  0  0
   -1.1634   68.2810   64.9313 H   0  0  0  0  0  0  0  0  0  0  0  0
   -3.1588   69.3103   64.1901 H   0  0  0  0  0  0  0  0  0  0  0  0
  2  1  1  0
  3  2  2  0
  4  2  1  0
  5  4  1  0
  1  6  1  0
  1  7  1  0
  4  8  1  0
  5  9  1  0
M  END
>  <score>  (6) 
-3.407

$$$$
=
     RDKit          3D

  9  8  0  0  0  0  0  0  0  0999 V2000
    1.1330   69.4160   60.8850 N   0  0  0  0  0  0  0  0  0  0  0  0
    2.2350   68.9530   61.5280 C   0  0  0  0  0  0  0  0  0  0  0  0
    2.2120   68.5830   62.6950 O   0  0  0  0  0  0  0  0  0  0  0  0
    3.3610   68.9490   60.7460 N   0  0  0  0  0  0  0  0  0  0  0  0
    4.5440   68.6150   61.4600 O   0  0  0  0  0  0  0  0  0  0  0  0
    1.1986   69.7169   59.9021 H   0  0  0  0  0  0  0  0  0  0  0  0
    0.2311   69.4665   61.3799 H   0  0  0  0  0  0  0  0  0  0  0  0
    3.3508   69.1668   59.7393 H   0  0  0  0  0  0  0  0  0  0  0  0
    4.3674   68.6648   62.4329 H   0  0  0  0  0  0  0  0  0  0  0  0
  2  1  1  0
  3  2  2  0
  4  2  1  0
  5  4  1  0
  1  6  1  0
  1  7  1  0
  4  8  1  0
  5  9  1  0
M  END
>  <score>  (7) 
-3.394

$$$$
=
     RDKit          3D

  9  8  0  0  0  0  0  0  0  0999 V2000
    1.8820   68.3760   63.0110 N   0  0  0  0  0  0  0  0  0  0  0  0
    0.8200   68.6940   62.2280 C   0  0  0  0  0  0  0  0  0  0  0  0
   -0.3200   68.3270   62.4800 O   0  0  0  0  0  0  0  0  0  0  0  0
    1.1560   69.4530   61.1370 N   0  0  0  0  0  0  0  0  0  0  0  0
    0.0760   69.6530   60.2340 O   0  0  0  0  0  0  0  0  0  0  0  0
    2.8244   68.7071   62.7599 H   0  0  0  0  0  0  0  0  0  0  0  0
    1.7455   67.8035   63.8563 H   0  0  0  0  0  0  0  0  0  0  0  0
    2.0984   69.8404   60.9862 H   0  0  0  0  0  0  0  0  0  0  0  0
   -0.7575   69.8074   60.7454 H   0  0  0  0  0  0  0  0  0  0  0  0
  2  1  1  0
  3  2  2  0
  4  2  1  0
  5  4  1  0
  1  6  1  0
  1  7  1  0
  4  8  1  0
  5  9  1  0
M  END
>  <score>  (8) 
-3.38

$$$$
=
     RDKit          3D

  9  8  0  0  0  0  0  0  0  0999 V2000
    5.2740   63.2940   63.4740 N   0  0  0  0  0  0  0  0  0  0  0  0
    4.4040   64.3110   63.7010 C   0  0  0  0  0  0  0  0  0  0  0  0
    4.3800   65.3250   63.0150 O   0  0  0  0  0  0  0  0  0  0  0  0
    3.5720   64.0890   64.7670 N   0  0  0  0  0  0  0  0  0  0  0  0
    2.7710   65.2150   65.1030 O   0  0  0  0  0  0  0  0  0  0  0  0
    5.2587   62.4590   64.0768 H   0  0  0  0  0  0  0  0  0  0  0  0
    5.9494   63.3574   62.6989 H   0  0  0  0  0  0  0  0  0  0  0  0
    3.5308   63.1941   65.2752 H   0  0  0  0  0  0  0  0  0  0  0  0
    2.7130   65.2966   66.0879 H   0  0  0  0  0  0  0  0  0  0  0  0
  2  1  1  0
  3  2  2  0
  4  2  1  0
  5  4  1  0
  1  6  1  0
  1  7  1  0
  4  8  1  0
  5  9  1  0
M  END
>  <score>  (9) 
-3.266

$$$$
