=
     RDKit          3D

 26 28  0  0  0  0  0  0  0  0999 V2000
    3.5280   68.7460   65.3960 S   0  0  0  0  0  0  0  0  0  0  0  0
    1.7660   68.6100   65.4910 C   0  0  0  0  0  0  0  0  0  0  0  0
    1.1430   68.3040   66.6620 N   0  0  0  0  0  0  0  0  0  0  0  0
   -0.2020   68.2070   66.6580 C   0  0  0  0  0  0  0  0  0  0  0  0
   -1.0440   68.3950   65.6240 N   0  0  0  0  0  0  0  0  0  0  0  0
   -0.3720   68.7050   64.5060 C   0  0  0  0  0  0  0  0  0  0  0  0
    0.9980   68.8380   64.3450 C   0  0  0  0  0  0  0  0  0  0  0  0
    1.2920   69.1820   63.0390 N   0  0  0  0  0  0  0  0  0  0  0  0
    0.1270   69.2370   62.4270 C   0  0  0  0  0  0  0  0  0  0  0  0
   -0.9070   68.9550   63.2760 N   0  0  0  0  0  0  0  0  0  0  0  0
    5.2530   69.2360   62.7690 C   0  0  0  0  0  0  0  0  0  0  0  0
    4.6510   67.9520   63.0500 N   0  0  0  0  0  0  0  0  0  0  0  0
    4.7750   66.8490   62.2470 C   0  0  0  0  0  0  0  0  0  0  0  0
    4.1310   65.8140   62.7380 N   0  0  0  0  0  0  0  0  0  0  0  0
    3.5690   66.2720   63.9180 C   0  0  0  0  0  0  0  0  0  0  0  0
    3.8870   67.6000   64.1380 C   0  0  0  0  0  0  0  0  0  0  0  0
    2.7600   65.3850   64.7200 N   0  0  0  0  0  4  0  0  0  0  0  0
    3.3520   64.5420   65.4100 O   0  0  0  0  0  0  0  0  0  0  0  0
    1.5290   65.5190   64.6550 O   0  0  0  0  0  1  0  0  0  0  0  0
   -0.6690   67.9415   67.6179 H   0  0  0  0  0  0  0  0  0  0  0  0
    0.0011   69.4804   61.3617 H   0  0  0  0  0  0  0  0  0  0  0  0
   -1.9074   68.9349   63.0316 H   0  0  0  0  0  0  0  0  0  0  0  0
    5.4913   69.7442   63.7150 H   0  0  0  0  0  0  0  0  0  0  0  0
    6.1761   69.0891   62.1891 H   0  0  0  0  0  0  0  0  0  0  0  0
    4.5497   69.8517   62.1891 H   0  0  0  0  0  0  0  0  0  0  0  0
    5.3443   66.8318   61.3059 H   0  0  0  0  0  0  0  0  0  0  0  0
  2  1  1  0
  3  2  2  0
  4  3  1  0
  5  4  2  0
  6  5  1  0
  7  6  2  0
  7  2  1  0
  8  7  1  0
  9  8  2  0
 10  9  1  0
 10  6  1  0
 12 11  1  0
 13 12  1  0
 14 13  2  0
 15 14  1  0
 16 15  2  0
 16 12  1  0
 16  1  1  0
 17 15  1  0
 18 17  2  0
 19 17  1  0
  4 20  1  0
  9 21  1  0
 10 22  1  0
 11 23  1  0
 11 24  1  0
 11 25  1  0
 13 26  1  0
M  CHG  2  17   1  19  -1
M  END
>  <score>  (1) 
-8.157

$$$$
=
     RDKit          3D

 26 28  0  0  0  0  0  0  0  0999 V2000
    2.2350   66.9770   65.1240 S   0  0  0  0  0  0  0  0  0  0  0  0
    1.5310   67.9180   63.8000 C   0  0  0  0  0  0  0  0  0  0  0  0
    0.2500   68.3760   63.8620 N   0  0  0  0  0  0  0  0  0  0  0  0
   -0.2230   69.0770   62.8110 C   0  0  0  0  0  0  0  0  0  0  0  0
    0.4240   69.4150   61.6800 N   0  0  0  0  0  0  0  0  0  0  0  0
    1.6810   68.9480   61.6860 C   0  0  0  0  0  0  0  0  0  0  0  0
    2.3120   68.2130   62.6770 C   0  0  0  0  0  0  0  0  0  0  0  0
    3.6140   67.9360   62.3090 N   0  0  0  0  0  0  0  0  0  0  0  0
    3.7570   68.4780   61.1170 C   0  0  0  0  0  0  0  0  0  0  0  0
    2.6120   69.1000   60.7010 N   0  0  0  0  0  0  0  0  0  0  0  0
    3.9400   69.4330   66.2080 C   0  0  0  0  0  0  0  0  0  0  0  0
    2.7080   69.0280   66.8450 N   0  0  0  0  0  0  0  0  0  0  0  0
    2.1610   69.6520   67.9350 C   0  0  0  0  0  0  0  0  0  0  0  0
    1.0380   69.0830   68.3120 N   0  0  0  0  0  0  0  0  0  0  0  0
    0.8510   68.0420   67.4160 C   0  0  0  0  0  0  0  0  0  0  0  0
    1.8750   67.9940   66.4880 C   0  0  0  0  0  0  0  0  0  0  0  0
   -0.2980   67.1770   67.5510 N   0  0  0  0  0  4  0  0  0  0  0  0
   -0.3610   66.4670   68.5650 O   0  0  0  0  0  0  0  0  0  0  0  0
   -1.1360   67.1960   66.6370 O   0  0  0  0  0  1  0  0  0  0  0  0
   -1.2672   69.4143   62.8877 H   0  0  0  0  0  0  0  0  0  0  0  0
    4.6848   68.4356   60.5276 H   0  0  0  0  0  0  0  0  0  0  0  0
    2.4774   69.5933   59.8069 H   0  0  0  0  0  0  0  0  0  0  0  0
    4.6870   69.6786   66.9772 H   0  0  0  0  0  0  0  0  0  0  0  0
    4.3160   68.6112   65.5809 H   0  0  0  0  0  0  0  0  0  0  0  0
    3.7550   70.3176   65.5809 H   0  0  0  0  0  0  0  0  0  0  0  0
    2.6079   70.5242   68.4345 H   0  0  0  0  0  0  0  0  0  0  0  0
  2  1  1  0
  3  2  2  0
  4  3  1  0
  5  4  2  0
  6  5  1  0
  7  6  2  0
  7  2  1  0
  8  7  1  0
  9  8  2  0
 10  9  1  0
 10  6  1  0
 12 11  1  0
 13 12  1  0
 14 13  2  0
 15 14  1  0
 16 15  2  0
 16 12  1  0
 16  1  1  0
 17 15  1  0
 18 17  2  0
 19 17  1  0
  4 20  1  0
  9 21  1  0
 10 22  1  0
 11 23  1  0
 11 24  1  0
 11 25  1  0
 13 26  1  0
M  CHG  2  17   1  19  -1
M  END
>  <score>  (2) 
-8.151

$$$$
=
     RDKit          3D

 26 28  0  0  0  0  0  0  0  0999 V2000
    2.7720   66.6540   64.4130 S   0  0  0  0  0  0  0  0  0  0  0  0
    2.3690   67.7910   65.7090 C   0  0  0  0  0  0  0  0  0  0  0  0
    3.2550   68.7410   66.1160 N   0  0  0  0  0  0  0  0  0  0  0  0
    2.8840   69.5660   67.1160 C   0  0  0  0  0  0  0  0  0  0  0  0
    1.7110   69.5940   67.7770 N   0  0  0  0  0  0  0  0  0  0  0  0
    0.8800   68.6460   67.3210 C   0  0  0  0  0  0  0  0  0  0  0  0
    1.1100   67.7240   66.3130 C   0  0  0  0  0  0  0  0  0  0  0  0
   -0.0050   66.9270   66.1340 N   0  0  0  0  0  0  0  0  0  0  0  0
   -0.8770   67.3500   67.0260 C   0  0  0  0  0  0  0  0  0  0  0  0
   -0.3840   68.3880   67.7660 N   0  0  0  0  0  0  0  0  0  0  0  0
    5.1290   67.2890   62.3740 C   0  0  0  0  0  0  0  0  0  0  0  0
    3.8180   67.8790   62.2230 N   0  0  0  0  0  0  0  0  0  0  0  0
    3.4670   68.7290   61.2070 C   0  0  0  0  0  0  0  0  0  0  0  0
    2.2160   69.1170   61.3060 N   0  0  0  0  0  0  0  0  0  0  0  0
    1.7350   68.4800   62.4390 C   0  0  0  0  0  0  0  0  0  0  0  0
    2.7140   67.6950   63.0220 C   0  0  0  0  0  0  0  0  0  0  0  0
    0.3730   68.7010   62.8630 N   0  0  0  0  0  4  0  0  0  0  0  0
    0.1550   69.6770   63.5940 O   0  0  0  0  0  0  0  0  0  0  0  0
   -0.4840   67.8920   62.4760 O   0  0  0  0  0  1  0  0  0  0  0  0
    3.6323   70.3082   67.4309 H   0  0  0  0  0  0  0  0  0  0  0  0
   -1.8806   66.9199   67.1592 H   0  0  0  0  0  0  0  0  0  0  0  0
   -0.8767   68.8849   68.5218 H   0  0  0  0  0  0  0  0  0  0  0  0
    5.3627   67.1838   63.4437 H   0  0  0  0  0  0  0  0  0  0  0  0
    5.1423   66.2981   61.8966 H   0  0  0  0  0  0  0  0  0  0  0  0
    5.8795   67.9361   61.8966 H   0  0  0  0  0  0  0  0  0  0  0  0
    4.1500   69.0477   60.4058 H   0  0  0  0  0  0  0  0  0  0  0  0
  2  1  1  0
  3  2  2  0
  4  3  1  0
  5  4  2  0
  6  5  1  0
  7  6  2  0
  7  2  1  0
  8  7  1  0
  9  8  2  0
 10  9  1  0
 10  6  1  0
 12 11  1  0
 13 12  1  0
 14 13  2  0
 15 14  1  0
 16 15  2  0
 16 12  1  0
 16  1  1  0
 17 15  1  0
 18 17  2  0
 19 17  1  0
  4 20  1  0
  9 21  1  0
 10 22  1  0
 11 23  1  0
 11 24  1  0
 11 25  1  0
 13 26  1  0
M  CHG  2  17   1  19  -1
M  END
>  <score>  (3) 
-8.098

$$$$
=
     RDKit          3D

 26 28  0  0  0  0  0  0  0  0999 V2000
    2.5300   67.0030   65.4030 S   0  0  0  0  0  0  0  0  0  0  0  0
    1.1140   67.7460   64.6420 C   0  0  0  0  0  0  0  0  0  0  0  0
    1.0210   67.8640   63.2890 N   0  0  0  0  0  0  0  0  0  0  0  0
   -0.0820   68.4500   62.7800 C   0  0  0  0  0  0  0  0  0  0  0  0
   -1.1480   68.9340   63.4450 N   0  0  0  0  0  0  0  0  0  0  0  0
   -1.0000   68.7750   64.7690 C   0  0  0  0  0  0  0  0  0  0  0  0
    0.0650   68.2030   65.4450 C   0  0  0  0  0  0  0  0  0  0  0  0
   -0.1730   68.2160   66.8060 N   0  0  0  0  0  0  0  0  0  0  0  0
   -1.3450   68.8000   66.9440 C   0  0  0  0  0  0  0  0  0  0  0  0
   -1.8830   69.1550   65.7380 N   0  0  0  0  0  0  0  0  0  0  0  0
    3.9150   69.6180   66.5670 C   0  0  0  0  0  0  0  0  0  0  0  0
    4.3250   69.0420   65.3070 N   0  0  0  0  0  0  0  0  0  0  0  0
    5.3310   69.5410   64.5210 C   0  0  0  0  0  0  0  0  0  0  0  0
    5.4990   68.8260   63.4320 N   0  0  0  0  0  0  0  0  0  0  0  0
    4.5560   67.8140   63.5220 C   0  0  0  0  0  0  0  0  0  0  0  0
    3.8190   67.9240   64.6870 C   0  0  0  0  0  0  0  0  0  0  0  0
    4.4460   66.8390   62.4630 N   0  0  0  0  0  4  0  0  0  0  0  0
    3.9780   67.2230   61.3810 O   0  0  0  0  0  0  0  0  0  0  0  0
    4.8170   65.6820   62.7100 O   0  0  0  0  0  1  0  0  0  0  0  0
   -0.1148   68.5443   61.6845 H   0  0  0  0  0  0  0  0  0  0  0  0
   -1.8328   68.9807   67.9132 H   0  0  0  0  0  0  0  0  0  0  0  0
   -2.7882   69.6231   65.5883 H   0  0  0  0  0  0  0  0  0  0  0  0
    4.3354   69.0273   67.3943 H   0  0  0  0  0  0  0  0  0  0  0  0
    4.2804   70.6534   66.6330 H   0  0  0  0  0  0  0  0  0  0  0  0
    2.8170   69.6118   66.6330 H   0  0  0  0  0  0  0  0  0  0  0  0
    5.9254   70.4320   64.7717 H   0  0  0  0  0  0  0  0  0  0  0  0
  2  1  1  0
  3  2  2  0
  4  3  1  0
  5  4  2  0
  6  5  1  0
  7  6  2  0
  7  2  1  0
  8  7  1  0
  9  8  2  0
 10  9  1  0
 10  6  1  0
 12 11  1  0
 13 12  1  0
 14 13  2  0
 15 14  1  0
 16 15  2  0
 16 12  1  0
 16  1  1  0
 17 15  1  0
 18 17  2  0
 19 17  1  0
  4 20  1  0
  9 21  1  0
 10 22  1  0
 11 23  1  0
 11 24  1  0
 11 25  1  0
 13 26  1  0
M  CHG  2  17   1  19  -1
M  END
>  <score>  (4) 
-8.081

$$$$
=
     RDKit          3D

 26 28  0  0  0  0  0  0  0  0999 V2000
    2.1570   67.3620   64.4380 S   0  0  0  0  0  0  0  0  0  0  0  0
    3.3250   68.4680   65.1800 C   0  0  0  0  0  0  0  0  0  0  0  0
    4.4760   68.8120   64.5390 N   0  0  0  0  0  0  0  0  0  0  0  0
    5.3240   69.6510   65.1690 C   0  0  0  0  0  0  0  0  0  0  0  0
    5.1760   70.2280   66.3770 N   0  0  0  0  0  0  0  0  0  0  0  0
    4.0200   69.8600   66.9480 C   0  0  0  0  0  0  0  0  0  0  0  0
    3.0510   69.0100   66.4390 C   0  0  0  0  0  0  0  0  0  0  0  0
    2.0010   68.8990   67.3300 N   0  0  0  0  0  0  0  0  0  0  0  0
    2.3400   69.6500   68.3570 C   0  0  0  0  0  0  0  0  0  0  0  0
    3.5540   70.2510   68.1690 N   0  0  0  0  0  0  0  0  0  0  0  0
   -0.6720   68.8140   64.4480 C   0  0  0  0  0  0  0  0  0  0  0  0
    0.2380   68.9390   63.3320 N   0  0  0  0  0  0  0  0  0  0  0  0
   -0.0130   69.6850   62.2110 C   0  0  0  0  0  0  0  0  0  0  0  0
    0.9800   69.6260   61.3530 N   0  0  0  0  0  0  0  0  0  0  0  0
    1.9200   68.8040   61.9550 C   0  0  0  0  0  0  0  0  0  0  0  0
    1.4830   68.3710   63.1930 C   0  0  0  0  0  0  0  0  0  0  0  0
    3.1530   68.5010   61.2670 N   0  0  0  0  0  4  0  0  0  0  0  0
    3.5800   69.3430   60.4640 O   0  0  0  0  0  0  0  0  0  0  0  0
    3.6960   67.4150   61.5200 O   0  0  0  0  0  1  0  0  0  0  0  0
    6.2512   69.8940   64.6293 H   0  0  0  0  0  0  0  0  0  0  0  0
    1.7214   69.7785   69.2575 H   0  0  0  0  0  0  0  0  0  0  0  0
    4.0295   70.8832   68.8287 H   0  0  0  0  0  0  0  0  0  0  0  0
   -0.1096   68.8913   65.3902 H   0  0  0  0  0  0  0  0  0  0  0  0
   -1.4217   69.6176   64.4016 H   0  0  0  0  0  0  0  0  0  0  0  0
   -1.1773   67.8380   64.4016 H   0  0  0  0  0  0  0  0  0  0  0  0
   -0.9345   70.2634   62.0488 H   0  0  0  0  0  0  0  0  0  0  0  0
  2  1  1  0
  3  2  2  0
  4  3  1  0
  5  4  2  0
  6  5  1  0
  7  6  2  0
  7  2  1  0
  8  7  1  0
  9  8  2  0
 10  9  1  0
 10  6  1  0
 12 11  1  0
 13 12  1  0
 14 13  2  0
 15 14  1  0
 16 15  2  0
 16 12  1  0
 16  1  1  0
 17 15  1  0
 18 17  2  0
 19 17  1  0
  4 20  1  0
  9 21  1  0
 10 22  1  0
 11 23  1  0
 11 24  1  0
 11 25  1  0
 13 26  1  0
M  CHG  2  17   1  19  -1
M  END
>  <score>  (5) 
-8.053

$$$$
=
     RDKit          3D

 26 28  0  0  0  0  0  0  0  0999 V2000
    2.4500   68.6990   65.9900 S   0  0  0  0  0  0  0  0  0  0  0  0
    2.9820   67.2990   65.0460 C   0  0  0  0  0  0  0  0  0  0  0  0
    2.6170   66.0340   65.3920 N   0  0  0  0  0  0  0  0  0  0  0  0
    3.0690   65.0150   64.6330 C   0  0  0  0  0  0  0  0  0  0  0  0
    3.8410   65.0790   63.5320 N   0  0  0  0  0  0  0  0  0  0  0  0
    4.1530   66.3490   63.2370 C   0  0  0  0  0  0  0  0  0  0  0  0
    3.7770   67.4980   63.9130 C   0  0  0  0  0  0  0  0  0  0  0  0
    4.2940   68.6130   63.2810 N   0  0  0  0  0  0  0  0  0  0  0  0
    4.9790   68.1420   62.2590 C   0  0  0  0  0  0  0  0  0  0  0  0
    4.9210   66.7770   62.1940 N   0  0  0  0  0  0  0  0  0  0  0  0
    1.0270   67.5420   68.5880 C   0  0  0  0  0  0  0  0  0  0  0  0
    0.2810   67.8410   67.3870 N   0  0  0  0  0  0  0  0  0  0  0  0
   -1.0740   67.6780   67.2580 C   0  0  0  0  0  0  0  0  0  0  0  0
   -1.4960   68.0270   66.0640 N   0  0  0  0  0  0  0  0  0  0  0  0
   -0.3570   68.4400   65.3920 C   0  0  0  0  0  0  0  0  0  0  0  0
    0.7610   68.3420   66.2000 C   0  0  0  0  0  0  0  0  0  0  0  0
   -0.4540   68.8810   64.0200 N   0  0  0  0  0  4  0  0  0  0  0  0
   -1.5500   68.7530   63.4560 O   0  0  0  0  0  0  0  0  0  0  0  0
    0.5700   69.3460   63.4960 O   0  0  0  0  0  1  0  0  0  0  0  0
    2.7697   64.0062   64.9534 H   0  0  0  0  0  0  0  0  0  0  0  0
    5.5308   68.7704   61.5444 H   0  0  0  0  0  0  0  0  0  0  0  0
    5.3744   66.1811   61.4867 H   0  0  0  0  0  0  0  0  0  0  0  0
    0.4162   67.7868   69.4695 H   0  0  0  0  0  0  0  0  0  0  0  0
    1.2822   66.4721   68.6043 H   0  0  0  0  0  0  0  0  0  0  0  0
    1.9504   68.1395   68.6043 H   0  0  0  0  0  0  0  0  0  0  0  0
   -1.7286   67.3007   68.0575 H   0  0  0  0  0  0  0  0  0  0  0  0
  2  1  1  0
  3  2  2  0
  4  3  1  0
  5  4  2  0
  6  5  1  0
  7  6  2  0
  7  2  1  0
  8  7  1  0
  9  8  2  0
 10  9  1  0
 10  6  1  0
 12 11  1  0
 13 12  1  0
 14 13  2  0
 15 14  1  0
 16 15  2  0
 16 12  1  0
 16  1  1  0
 17 15  1  0
 18 17  2  0
 19 17  1  0
  4 20  1  0
  9 21  1  0
 10 22  1  0
 11 23  1  0
 11 24  1  0
 11 25  1  0
 13 26  1  0
M  CHG  2  17   1  19  -1
M  END
>  <score>  (6) 
-8.046

$$$$
=
     RDKit          3D

 26 28  0  0  0  0  0  0  0  0999 V2000
    2.2630   67.1490   65.3670 S   0  0  0  0  0  0  0  0  0  0  0  0
    1.4170   68.0060   64.0690 C   0  0  0  0  0  0  0  0  0  0  0  0
    0.1240   68.4060   64.2130 N   0  0  0  0  0  0  0  0  0  0  0  0
   -0.4600   69.0440   63.1780 C   0  0  0  0  0  0  0  0  0  0  0  0
    0.0840   69.3690   61.9900 N   0  0  0  0  0  0  0  0  0  0  0  0
    1.3590   68.9610   61.9170 C   0  0  0  0  0  0  0  0  0  0  0  0
    2.0970   68.2940   62.8820 C   0  0  0  0  0  0  0  0  0  0  0  0
    3.3800   68.0650   62.4250 N   0  0  0  0  0  0  0  0  0  0  0  0
    3.4070   68.5670   61.2080 C   0  0  0  0  0  0  0  0  0  0  0  0
    2.2060   69.1200   60.8590 N   0  0  0  0  0  0  0  0  0  0  0  0
    0.1970   67.9350   67.6540 C   0  0  0  0  0  0  0  0  0  0  0  0
    1.4470   68.6400   67.4900 N   0  0  0  0  0  0  0  0  0  0  0  0
    1.8610   69.6740   68.2880 C   0  0  0  0  0  0  0  0  0  0  0  0
    3.0360   70.1340   67.9210 N   0  0  0  0  0  0  0  0  0  0  0  0
    3.3980   69.3540   66.8340 C   0  0  0  0  0  0  0  0  0  0  0  0
    2.4270   68.4110   66.5520 C   0  0  0  0  0  0  0  0  0  0  0  0
    4.6480   69.6050   66.1560 N   0  0  0  0  0  4  0  0  0  0  0  0
    4.6130   69.7370   64.9240 O   0  0  0  0  0  0  0  0  0  0  0  0
    5.6740   69.6600   66.8520 O   0  0  0  0  0  1  0  0  0  0  0  0
   -1.5110   69.3348   63.3224 H   0  0  0  0  0  0  0  0  0  0  0  0
    4.2892   68.5443   60.5513 H   0  0  0  0  0  0  0  0  0  0  0  0
    1.9818   69.5735   59.9618 H   0  0  0  0  0  0  0  0  0  0  0  0
   -0.0177   67.8139   68.7260 H   0  0  0  0  0  0  0  0  0  0  0  0
   -0.6128   68.5094   67.1804 H   0  0  0  0  0  0  0  0  0  0  0  0
    0.2696   66.9448   67.1804 H   0  0  0  0  0  0  0  0  0  0  0  0
    1.2801   70.0710   69.1335 H   0  0  0  0  0  0  0  0  0  0  0  0
  2  1  1  0
  3  2  2  0
  4  3  1  0
  5  4  2  0
  6  5  1  0
  7  6  2  0
  7  2  1  0
  8  7  1  0
  9  8  2  0
 10  9  1  0
 10  6  1  0
 12 11  1  0
 13 12  1  0
 14 13  2  0
 15 14  1  0
 16 15  2  0
 16 12  1  0
 16  1  1  0
 17 15  1  0
 18 17  2  0
 19 17  1  0
  4 20  1  0
  9 21  1  0
 10 22  1  0
 11 23  1  0
 11 24  1  0
 11 25  1  0
 13 26  1  0
M  CHG  2  17   1  19  -1
M  END
>  <score>  (7) 
-8.001

$$$$
=
     RDKit          3D

 26 28  0  0  0  0  0  0  0  0999 V2000
    1.7960   66.9910   65.2670 S   0  0  0  0  0  0  0  0  0  0  0  0
    3.0250   68.2280   65.5770 C   0  0  0  0  0  0  0  0  0  0  0  0
    3.0790   68.8870   66.7670 N   0  0  0  0  0  0  0  0  0  0  0  0
    4.0350   69.8240   66.9290 C   0  0  0  0  0  0  0  0  0  0  0  0
    4.9880   70.1980   66.0540 N   0  0  0  0  0  0  0  0  0  0  0  0
    4.8890   69.5040   64.9100 C   0  0  0  0  0  0  0  0  0  0  0  0
    3.9680   68.5210   64.5870 C   0  0  0  0  0  0  0  0  0  0  0  0
    4.2120   68.0400   63.3150 N   0  0  0  0  0  0  0  0  0  0  0  0
    5.2440   68.7320   62.8780 C   0  0  0  0  0  0  0  0  0  0  0  0
    5.6860   69.6290   63.8100 N   0  0  0  0  0  0  0  0  0  0  0  0
   -0.1810   68.9510   63.7290 C   0  0  0  0  0  0  0  0  0  0  0  0
   -0.3940   68.5950   65.1130 N   0  0  0  0  0  0  0  0  0  0  0  0
   -1.4460   69.0380   65.8710 C   0  0  0  0  0  0  0  0  0  0  0  0
   -1.4020   68.5600   67.0950 N   0  0  0  0  0  0  0  0  0  0  0  0
   -0.2660   67.7660   67.1240 C   0  0  0  0  0  0  0  0  0  0  0  0
    0.3730   67.7650   65.8980 C   0  0  0  0  0  0  0  0  0  0  0  0
    0.1050   67.0910   68.3450 N   0  0  0  0  0  4  0  0  0  0  0  0
   -0.6210   66.1610   68.7260 O   0  0  0  0  0  0  0  0  0  0  0  0
    1.1190   67.4940   68.9350 O   0  0  0  0  0  1  0  0  0  0  0  0
    4.0367   70.3481   67.8961 H   0  0  0  0  0  0  0  0  0  0  0  0
    5.6956   68.6036   61.8832 H   0  0  0  0  0  0  0  0  0  0  0  0
    6.4765   70.2803   63.7015 H   0  0  0  0  0  0  0  0  0  0  0  0
    0.3831   69.8938   63.6756 H   0  0  0  0  0  0  0  0  0  0  0  0
    0.3888   68.1540   63.2289 H   0  0  0  0  0  0  0  0  0  0  0  0
   -1.1527   69.0762   63.2289 H   0  0  0  0  0  0  0  0  0  0  0  0
   -2.2323   69.7120   65.5003 H   0  0  0  0  0  0  0  0  0  0  0  0
  2  1  1  0
  3  2  2  0
  4  3  1  0
  5  4  2  0
  6  5  1  0
  7  6  2  0
  7  2  1  0
  8  7  1  0
  9  8  2  0
 10  9  1  0
 10  6  1  0
 12 11  1  0
 13 12  1  0
 14 13  2  0
 15 14  1  0
 16 15  2  0
 16 12  1  0
 16  1  1  0
 17 15  1  0
 18 17  2  0
 19 17  1  0
  4 20  1  0
  9 21  1  0
 10 22  1  0
 11 23  1  0
 11 24  1  0
 11 25  1  0
 13 26  1  0
M  CHG  2  17   1  19  -1
M  END
>  <score>  (8) 
-7.936

$$$$
=
     RDKit          3D

 26 28  0  0  0  0  0  0  0  0999 V2000
    3.0010   66.6900   64.8680 S   0  0  0  0  0  0  0  0  0  0  0  0
    1.4440   67.5340   64.8560 C   0  0  0  0  0  0  0  0  0  0  0  0
    0.9780   68.1400   63.7300 N   0  0  0  0  0  0  0  0  0  0  0  0
   -0.2110   68.7730   63.7970 C   0  0  0  0  0  0  0  0  0  0  0  0
   -1.0380   68.8750   64.8550 N   0  0  0  0  0  0  0  0  0  0  0  0
   -0.5300   68.2470   65.9250 C   0  0  0  0  0  0  0  0  0  0  0  0
    0.6700   67.5610   66.0200 C   0  0  0  0  0  0  0  0  0  0  0  0
    0.8220   67.0430   67.2930 N   0  0  0  0  0  0  0  0  0  0  0  0
   -0.2530   67.4250   67.9500 C   0  0  0  0  0  0  0  0  0  0  0  0
   -1.0990   68.1550   67.1620 N   0  0  0  0  0  0  0  0  0  0  0  0
    4.2910   67.1080   61.9920 C   0  0  0  0  0  0  0  0  0  0  0  0
    4.5610   68.0190   63.0810 N   0  0  0  0  0  0  0  0  0  0  0  0
    5.3600   69.1270   62.9810 C   0  0  0  0  0  0  0  0  0  0  0  0
    5.4330   69.7800   64.1190 N   0  0  0  0  0  0  0  0  0  0  0  0
    4.6370   69.0590   64.9940 C   0  0  0  0  0  0  0  0  0  0  0  0
    4.0760   67.9610   64.3670 C   0  0  0  0  0  0  0  0  0  0  0  0
    4.5040   69.4910   66.3660 N   0  0  0  0  0  4  0  0  0  0  0  0
    3.3560   69.6360   66.8090 O   0  0  0  0  0  0  0  0  0  0  0  0
    5.5480   69.6970   67.0030 O   0  0  0  0  0  1  0  0  0  0  0  0
   -0.5468   69.2670   62.8733 H   0  0  0  0  0  0  0  0  0  0  0  0
   -0.4472   67.1857   69.0059 H   0  0  0  0  0  0  0  0  0  0  0  0
   -2.0008   68.5612   67.4495 H   0  0  0  0  0  0  0  0  0  0  0  0
    4.0004   66.1276   62.3975 H   0  0  0  0  0  0  0  0  0  0  0  0
    3.4724   67.5067   61.3748 H   0  0  0  0  0  0  0  0  0  0  0  0
    5.1946   66.9963   61.3748 H   0  0  0  0  0  0  0  0  0  0  0  0
    5.8777   69.4330   62.0599 H   0  0  0  0  0  0  0  0  0  0  0  0
  2  1  1  0
  3  2  2  0
  4  3  1  0
  5  4  2  0
  6  5  1  0
  7  6  2  0
  7  2  1  0
  8  7  1  0
  9  8  2  0
 10  9  1  0
 10  6  1  0
 12 11  1  0
 13 12  1  0
 14 13  2  0
 15 14  1  0
 16 15  2  0
 16 12  1  0
 16  1  1  0
 17 15  1  0
 18 17  2  0
 19 17  1  0
  4 20  1  0
  9 21  1  0
 10 22  1  0
 11 23  1  0
 11 24  1  0
 11 25  1  0
 13 26  1  0
M  CHG  2  17   1  19  -1
M  END
>  <score>  (9) 
-7.88

$$$$
