=
     RDKit          3D

 20 21  0  0  0  0  0  0  0  0999 V2000
    2.9140   69.4400   66.9540 C   0  0  0  0  0  0  0  0  0  0  0  0
    2.7970   69.0360   65.6140 C   0  0  0  0  0  0  0  0  0  0  0  0
    3.9040   69.0280   64.7730 C   0  0  0  0  0  0  0  0  0  0  0  0
    5.1440   69.4380   65.2560 C   0  0  0  0  0  0  0  0  0  0  0  0
    5.2920   69.8760   66.5820 C   0  0  0  0  0  0  0  0  0  0  0  0
    4.1690   69.8920   67.4470 C   0  0  0  0  0  0  0  0  0  0  0  0
    4.3560   70.3610   68.7670 C   0  0  0  0  0  0  0  0  0  0  0  0
    5.6070   70.7860   69.2210 C   0  0  0  0  0  0  0  0  0  0  0  0
    6.7010   70.7540   68.3640 C   0  0  0  0  0  0  0  0  0  0  0  0
    6.5440   70.3040   67.0540 C   0  0  0  0  0  0  0  0  0  0  0  0
   -0.2870   67.4940   66.8150 S   0  0  0  0  0  0  0  0  0  0  0  0
    0.9570   68.6650   67.3820 C   0  0  0  0  0  0  0  0  0  0  0  0
    1.7570   69.4350   67.7660 N   0  0  0  0  0  0  0  0  0  0  0  0
    1.8172   68.7220   65.2250 H   0  0  0  0  0  0  0  0  0  0  0  0
    3.8006   68.6986   63.7286 H   0  0  0  0  0  0  0  0  0  0  0  0
    6.0193   69.4185   64.5900 H   0  0  0  0  0  0  0  0  0  0  0  0
    3.4966   70.3921   69.4529 H   0  0  0  0  0  0  0  0  0  0  0  0
    5.7260   71.1450   70.2539 H   0  0  0  0  0  0  0  0  0  0  0  0
    7.6888   71.0832   68.7189 H   0  0  0  0  0  0  0  0  0  0  0  0
    7.4131   70.2837   66.3801 H   0  0  0  0  0  0  0  0  0  0  0  0
  2  1  2  0
  3  2  1  0
  4  3  2  0
  5  4  1  0
  6  5  2  0
  6  1  1  0
  7  6  1  0
  8  7  2  0
  9  8  1  0
 10  5  1  0
 10  9  2  0
 12 11  2  0
 13 12  2  0
 13  1  1  0
  2 14  1  0
  3 15  1  0
  4 16  1  0
  7 17  1  0
  8 18  1  0
  9 19  1  0
 10 20  1  0
M  END
>  <score>  (1) 
-8.749

$$$$
=
     RDKit          3D

 20 21  0  0  0  0  0  0  0  0999 V2000
    4.4280   69.4440   65.4740 C   0  0  0  0  0  0  0  0  0  0  0  0
    3.0930   69.0140   65.3980 C   0  0  0  0  0  0  0  0  0  0  0  0
    2.2540   69.0960   66.5040 C   0  0  0  0  0  0  0  0  0  0  0  0
    2.7430   69.5980   67.7080 C   0  0  0  0  0  0  0  0  0  0  0  0
    4.0790   70.0100   67.8280 C   0  0  0  0  0  0  0  0  0  0  0  0
    4.9450   69.9270   66.7080 C   0  0  0  0  0  0  0  0  0  0  0  0
    6.2880   70.3310   66.8760 C   0  0  0  0  0  0  0  0  0  0  0  0
    6.7570   70.8120   68.1000 C   0  0  0  0  0  0  0  0  0  0  0  0
    5.8950   70.8980   69.1860 C   0  0  0  0  0  0  0  0  0  0  0  0
    4.5670   70.4980   69.0510 C   0  0  0  0  0  0  0  0  0  0  0  0
    4.4710   67.0280   62.6070 S   0  0  0  0  0  0  0  0  0  0  0  0
    4.9280   68.4210   63.6520 C   0  0  0  0  0  0  0  0  0  0  0  0
    5.2400   69.3340   64.3220 N   0  0  0  0  0  0  0  0  0  0  0  0
    2.7064   68.6073   64.4519 H   0  0  0  0  0  0  0  0  0  0  0  0
    1.2075   68.7655   66.4284 H   0  0  0  0  0  0  0  0  0  0  0  0
    2.0724   69.6725   68.5768 H   0  0  0  0  0  0  0  0  0  0  0  0
    6.9799   70.2652   66.0234 H   0  0  0  0  0  0  0  0  0  0  0  0
    7.8072   71.1223   68.2042 H   0  0  0  0  0  0  0  0  0  0  0  0
    6.2600   71.2810   70.1504 H   0  0  0  0  0  0  0  0  0  0  0  0
    3.8905   70.5655   69.9158 H   0  0  0  0  0  0  0  0  0  0  0  0
  2  1  2  0
  3  2  1  0
  4  3  2  0
  5  4  1  0
  6  5  2  0
  6  1  1  0
  7  6  1  0
  8  7  2  0
  9  8  1  0
 10  5  1  0
 10  9  2  0
 12 11  2  0
 13 12  2  0
 13  1  1  0
  2 14  1  0
  3 15  1  0
  4 16  1  0
  7 17  1  0
  8 18  1  0
  9 19  1  0
 10 20  1  0
M  END
>  <score>  (2) 
-8.67

$$$$
=
     RDKit          3D

 20 21  0  0  0  0  0  0  0  0999 V2000
    3.0730   69.0490   65.6220 C   0  0  0  0  0  0  0  0  0  0  0  0
    3.8870   68.9990   64.4790 C   0  0  0  0  0  0  0  0  0  0  0  0
    5.2110   69.4250   64.5290 C   0  0  0  0  0  0  0  0  0  0  0  0
    5.7350   69.9190   65.7210 C   0  0  0  0  0  0  0  0  0  0  0  0
    4.9410   70.0100   66.8750 C   0  0  0  0  0  0  0  0  0  0  0  0
    3.5900   69.5830   66.8350 C   0  0  0  0  0  0  0  0  0  0  0  0
    2.8190   69.7120   68.0120 C   0  0  0  0  0  0  0  0  0  0  0  0
    3.3640   70.2300   69.1880 C   0  0  0  0  0  0  0  0  0  0  0  0
    4.6930   70.6340   69.2160 C   0  0  0  0  0  0  0  0  0  0  0  0
    5.4750   70.5270   68.0670 C   0  0  0  0  0  0  0  0  0  0  0  0
    0.7410   68.6510   62.7130 S   0  0  0  0  0  0  0  0  0  0  0  0
    1.3520   68.6290   64.4070 C   0  0  0  0  0  0  0  0  0  0  0  0
    1.7330   68.6090   65.5180 N   0  0  0  0  0  0  0  0  0  0  0  0
    3.4735   68.6188   63.5332 H   0  0  0  0  0  0  0  0  0  0  0  0
    5.8419   69.3717   63.6295 H   0  0  0  0  0  0  0  0  0  0  0  0
    6.7857   70.2424   65.7587 H   0  0  0  0  0  0  0  0  0  0  0  0
    1.7651   69.3970   68.0013 H   0  0  0  0  0  0  0  0  0  0  0  0
    2.7423   70.3182   70.0911 H   0  0  0  0  0  0  0  0  0  0  0  0
    5.1271   71.0374   70.1427 H   0  0  0  0  0  0  0  0  0  0  0  0
    6.5255   70.8521   68.0941 H   0  0  0  0  0  0  0  0  0  0  0  0
  2  1  2  0
  3  2  1  0
  4  3  2  0
  5  4  1  0
  6  5  2  0
  6  1  1  0
  7  6  1  0
  8  7  2  0
  9  8  1  0
 10  5  1  0
 10  9  2  0
 12 11  2  0
 13 12  2  0
 13  1  1  0
  2 14  1  0
  3 15  1  0
  4 16  1  0
  7 17  1  0
  8 18  1  0
  9 19  1  0
 10 20  1  0
M  END
>  <score>  (3) 
-8.548

$$$$
=
     RDKit          3D

 20 21  0  0  0  0  0  0  0  0999 V2000
    3.1630   69.0140   65.7960 C   0  0  0  0  0  0  0  0  0  0  0  0
    1.8970   68.7730   66.3570 C   0  0  0  0  0  0  0  0  0  0  0  0
    1.6080   69.1710   67.6580 C   0  0  0  0  0  0  0  0  0  0  0  0
    2.5840   69.8050   68.4220 C   0  0  0  0  0  0  0  0  0  0  0  0
    3.8680   70.0350   67.9040 C   0  0  0  0  0  0  0  0  0  0  0  0
    4.1770   69.6300   66.5810 C   0  0  0  0  0  0  0  0  0  0  0  0
    5.4870   69.8600   66.1050 C   0  0  0  0  0  0  0  0  0  0  0  0
    6.4540   70.4790   66.8990 C   0  0  0  0  0  0  0  0  0  0  0  0
    6.1340   70.8810   68.1910 C   0  0  0  0  0  0  0  0  0  0  0  0
    4.8520   70.6590   68.6890 C   0  0  0  0  0  0  0  0  0  0  0  0
    0.9960   68.7980   62.7450 S   0  0  0  0  0  0  0  0  0  0  0  0
    2.4500   68.6730   63.7990 C   0  0  0  0  0  0  0  0  0  0  0  0
    3.4080   68.5850   64.4720 N   0  0  0  0  0  0  0  0  0  0  0  0
    1.1259   68.2638   65.7603 H   0  0  0  0  0  0  0  0  0  0  0  0
    0.6103   68.9852   68.0824 H   0  0  0  0  0  0  0  0  0  0  0  0
    2.3456   70.1301   69.4455 H   0  0  0  0  0  0  0  0  0  0  0  0
    5.7512   69.5440   65.0850 H   0  0  0  0  0  0  0  0  0  0  0  0
    7.4664   70.6483   66.5036 H   0  0  0  0  0  0  0  0  0  0  0  0
    6.8915   71.3733   68.8186 H   0  0  0  0  0  0  0  0  0  0  0  0
    4.6063   70.9773   69.7129 H   0  0  0  0  0  0  0  0  0  0  0  0
  2  1  2  0
  3  2  1  0
  4  3  2  0
  5  4  1  0
  6  5  2  0
  6  1  1  0
  7  6  1  0
  8  7  2  0
  9  8  1  0
 10  5  1  0
 10  9  2  0
 12 11  2  0
 13 12  2  0
 13  1  1  0
  2 14  1  0
  3 15  1  0
  4 16  1  0
  7 17  1  0
  8 18  1  0
  9 19  1  0
 10 20  1  0
M  END
>  <score>  (4) 
-8.455

$$$$
=
     RDKit          3D

 20 21  0  0  0  0  0  0  0  0999 V2000
    2.9600   68.6630   64.1390 C   0  0  0  0  0  0  0  0  0  0  0  0
    3.6490   68.6480   62.9150 C   0  0  0  0  0  0  0  0  0  0  0  0
    4.9700   69.0780   62.8360 C   0  0  0  0  0  0  0  0  0  0  0  0
    5.6160   69.5440   63.9790 C   0  0  0  0  0  0  0  0  0  0  0  0
    4.9480   69.6010   65.2120 C   0  0  0  0  0  0  0  0  0  0  0  0
    3.6010   69.1680   65.3040 C   0  0  0  0  0  0  0  0  0  0  0  0
    2.9580   69.2620   66.5590 C   0  0  0  0  0  0  0  0  0  0  0  0
    3.6230   69.7520   67.6840 C   0  0  0  0  0  0  0  0  0  0  0  0
    4.9470   70.1620   67.5820 C   0  0  0  0  0  0  0  0  0  0  0  0
    5.6030   70.0880   66.3550 C   0  0  0  0  0  0  0  0  0  0  0  0
   -0.0490   69.5280   62.0760 S   0  0  0  0  0  0  0  0  0  0  0  0
    0.9690   68.7420   63.3360 C   0  0  0  0  0  0  0  0  0  0  0  0
    1.6180   68.2200   64.1640 N   0  0  0  0  0  0  0  0  0  0  0  0
    3.1382   68.2921   62.0081 H   0  0  0  0  0  0  0  0  0  0  0  0
    5.5026   69.0501   61.8740 H   0  0  0  0  0  0  0  0  0  0  0  0
    6.6640   69.8718   63.9142 H   0  0  0  0  0  0  0  0  0  0  0  0
    1.9097   68.9417   66.6512 H   0  0  0  0  0  0  0  0  0  0  0  0
    3.1000   69.8136   68.6498 H   0  0  0  0  0  0  0  0  0  0  0  0
    5.4757   70.5440   68.4677 H   0  0  0  0  0  0  0  0  0  0  0  0
    6.6503   70.4161   66.2803 H   0  0  0  0  0  0  0  0  0  0  0  0
  2  1  2  0
  3  2  1  0
  4  3  2  0
  5  4  1  0
  6  5  2  0
  6  1  1  0
  7  6  1  0
  8  7  2  0
  9  8  1  0
 10  5  1  0
 10  9  2  0
 12 11  2  0
 13 12  2  0
 13  1  1  0
  2 14  1  0
  3 15  1  0
  4 16  1  0
  7 17  1  0
  8 18  1  0
  9 19  1  0
 10 20  1  0
M  END
>  <score>  (5) 
-8.31

$$$$
=
     RDKit          3D

 20 21  0  0  0  0  0  0  0  0999 V2000
    5.1010   69.9710   66.6420 C   0  0  0  0  0  0  0  0  0  0  0  0
    4.3270   70.0270   67.8140 C   0  0  0  0  0  0  0  0  0  0  0  0
    3.0010   69.6100   67.8120 C   0  0  0  0  0  0  0  0  0  0  0  0
    2.4230   69.1410   66.6340 C   0  0  0  0  0  0  0  0  0  0  0  0
    3.1580   69.0990   65.4390 C   0  0  0  0  0  0  0  0  0  0  0  0
    4.5100   69.5260   65.4270 C   0  0  0  0  0  0  0  0  0  0  0  0
    5.2070   69.4880   64.1990 C   0  0  0  0  0  0  0  0  0  0  0  0
    4.5980   69.0330   63.0280 C   0  0  0  0  0  0  0  0  0  0  0  0
    3.2760   68.6070   63.0560 C   0  0  0  0  0  0  0  0  0  0  0  0
    2.5610   68.6410   64.2520 C   0  0  0  0  0  0  0  0  0  0  0  0
    7.3790   70.8590   69.4840 S   0  0  0  0  0  0  0  0  0  0  0  0
    6.8020   70.5860   67.8000 C   0  0  0  0  0  0  0  0  0  0  0  0
    6.4420   70.4130   66.6960 N   0  0  0  0  0  0  0  0  0  0  0  0
    4.7761   70.4054   68.7441 H   0  0  0  0  0  0  0  0  0  0  0  0
    2.4092   69.6502   68.7384 H   0  0  0  0  0  0  0  0  0  0  0  0
    1.3774   68.7993   66.6407 H   0  0  0  0  0  0  0  0  0  0  0  0
    6.2537   69.8246   64.1645 H   0  0  0  0  0  0  0  0  0  0  0  0
    5.1639   69.0119   62.0850 H   0  0  0  0  0  0  0  0  0  0  0  0
    2.7945   68.2436   62.1362 H   0  0  0  0  0  0  0  0  0  0  0  0
    1.5139   68.3044   64.2670 H   0  0  0  0  0  0  0  0  0  0  0  0
  2  1  2  0
  3  2  1  0
  4  3  2  0
  5  4  1  0
  6  5  2  0
  6  1  1  0
  7  6  1  0
  8  7  2  0
  9  8  1  0
 10  5  1  0
 10  9  2  0
 12 11  2  0
 13 12  2  0
 13  1  1  0
  2 14  1  0
  3 15  1  0
  4 16  1  0
  7 17  1  0
  8 18  1  0
  9 19  1  0
 10 20  1  0
M  END
>  <score>  (6) 
-8.198

$$$$
=
     RDKit          3D

 20 21  0  0  0  0  0  0  0  0999 V2000
    2.0200   68.5710   65.2200 C   0  0  0  0  0  0  0  0  0  0  0  0
    2.2320   68.9110   66.5660 C   0  0  0  0  0  0  0  0  0  0  0  0
    3.4410   69.4620   66.9790 C   0  0  0  0  0  0  0  0  0  0  0  0
    4.4600   69.6700   66.0530 C   0  0  0  0  0  0  0  0  0  0  0  0
    4.2920   69.3160   64.7050 C   0  0  0  0  0  0  0  0  0  0  0  0
    3.0660   68.7490   64.2740 C   0  0  0  0  0  0  0  0  0  0  0  0
    2.9460   68.3850   62.9130 C   0  0  0  0  0  0  0  0  0  0  0  0
    3.9910   68.5860   62.0100 C   0  0  0  0  0  0  0  0  0  0  0  0
    5.1830   69.1530   62.4440 C   0  0  0  0  0  0  0  0  0  0  0  0
    5.3330   69.5130   63.7820 C   0  0  0  0  0  0  0  0  0  0  0  0
   -1.4770   69.0850   66.4700 S   0  0  0  0  0  0  0  0  0  0  0  0
   -0.1060   68.4400   65.4970 C   0  0  0  0  0  0  0  0  0  0  0  0
    0.7760   68.0090   64.8530 N   0  0  0  0  0  0  0  0  0  0  0  0
    1.4329   68.7397   67.3023 H   0  0  0  0  0  0  0  0  0  0  0  0
    3.5915   69.7327   68.0345 H   0  0  0  0  0  0  0  0  0  0  0  0
    5.4093   70.1177   66.3822 H   0  0  0  0  0  0  0  0  0  0  0  0
    2.0080   67.9333   62.5579 H   0  0  0  0  0  0  0  0  0  0  0  0
    3.8711   68.2958   60.9558 H   0  0  0  0  0  0  0  0  0  0  0  0
    6.0063   69.3173   61.7332 H   0  0  0  0  0  0  0  0  0  0  0  0
    6.2803   69.9579   64.1205 H   0  0  0  0  0  0  0  0  0  0  0  0
  2  1  2  0
  3  2  1  0
  4  3  2  0
  5  4  1  0
  6  5  2  0
  6  1  1  0
  7  6  1  0
  8  7  2  0
  9  8  1  0
 10  5  1  0
 10  9  2  0
 12 11  2  0
 13 12  2  0
 13  1  1  0
  2 14  1  0
  3 15  1  0
  4 16  1  0
  7 17  1  0
  8 18  1  0
  9 19  1  0
 10 20  1  0
M  END
>  <score>  (7) 
-8.0

$$$$
=
     RDKit          3D

 20 21  0  0  0  0  0  0  0  0999 V2000
    3.7530   68.7410   64.9630 C   0  0  0  0  0  0  0  0  0  0  0  0
    5.0350   68.9310   64.4230 C   0  0  0  0  0  0  0  0  0  0  0  0
    6.0330   69.5570   65.1610 C   0  0  0  0  0  0  0  0  0  0  0  0
    5.7600   70.0150   66.4480 C   0  0  0  0  0  0  0  0  0  0  0  0
    4.4810   69.8680   67.0090 C   0  0  0  0  0  0  0  0  0  0  0  0
    3.4540   69.2350   66.2630 C   0  0  0  0  0  0  0  0  0  0  0  0
    2.1760   69.1270   66.8560 C   0  0  0  0  0  0  0  0  0  0  0  0
    1.9230   69.6120   68.1400 C   0  0  0  0  0  0  0  0  0  0  0  0
    2.9420   70.2200   68.8630 C   0  0  0  0  0  0  0  0  0  0  0  0
    4.2110   70.3490   68.3000 C   0  0  0  0  0  0  0  0  0  0  0  0
    3.0790   68.7200   61.2750 S   0  0  0  0  0  0  0  0  0  0  0  0
    2.9020   68.3530   63.0290 C   0  0  0  0  0  0  0  0  0  0  0  0
    2.7720   68.1040   64.1700 N   0  0  0  0  0  0  0  0  0  0  0  0
    5.2524   68.5802   63.4034 H   0  0  0  0  0  0  0  0  0  0  0  0
    7.0361   69.6904   64.7297 H   0  0  0  0  0  0  0  0  0  0  0  0
    6.5568   70.4982   67.0325 H   0  0  0  0  0  0  0  0  0  0  0  0
    1.3611   68.6493   66.2923 H   0  0  0  0  0  0  0  0  0  0  0  0
    0.9191   69.5132   68.5787 H   0  0  0  0  0  0  0  0  0  0  0  0
    2.7479   70.5987   69.8773 H   0  0  0  0  0  0  0  0  0  0  0  0
    5.0125   70.8348   68.8759 H   0  0  0  0  0  0  0  0  0  0  0  0
  2  1  2  0
  3  2  1  0
  4  3  2  0
  5  4  1  0
  6  5  2  0
  6  1  1  0
  7  6  1  0
  8  7  2  0
  9  8  1  0
 10  5  1  0
 10  9  2  0
 12 11  2  0
 13 12  2  0
 13  1  1  0
  2 14  1  0
  3 15  1  0
  4 16  1  0
  7 17  1  0
  8 18  1  0
  9 19  1  0
 10 20  1  0
M  END
>  <score>  (8) 
-7.706

$$$$
=
     RDKit          3D

 20 21  0  0  0  0  0  0  0  0999 V2000
    1.8360   67.5790   65.5390 C   0  0  0  0  0  0  0  0  0  0  0  0
    2.2530   67.2640   64.2350 C   0  0  0  0  0  0  0  0  0  0  0  0
    3.4350   67.7870   63.7200 C   0  0  0  0  0  0  0  0  0  0  0  0
    4.2100   68.6440   64.4970 C   0  0  0  0  0  0  0  0  0  0  0  0
    3.8090   69.0030   65.7930 C   0  0  0  0  0  0  0  0  0  0  0  0
    2.6040   68.4800   66.3280 C   0  0  0  0  0  0  0  0  0  0  0  0
    2.2250   68.8840   67.6270 C   0  0  0  0  0  0  0  0  0  0  0  0
    3.0110   69.7610   68.3780 C   0  0  0  0  0  0  0  0  0  0  0  0
    4.1940   70.2570   67.8460 C   0  0  0  0  0  0  0  0  0  0  0  0
    4.5890   69.8820   66.5620 C   0  0  0  0  0  0  0  0  0  0  0  0
   -1.5680   69.0340   66.1340 S   0  0  0  0  0  0  0  0  0  0  0  0
   -0.2340   67.8270   66.0560 C   0  0  0  0  0  0  0  0  0  0  0  0
    0.6250   67.0270   66.0130 N   0  0  0  0  0  0  0  0  0  0  0  0
    1.6379   66.5962   63.6139 H   0  0  0  0  0  0  0  0  0  0  0  0
    3.7565   67.5241   62.7014 H   0  0  0  0  0  0  0  0  0  0  0  0
    5.1496   69.0452   64.0893 H   0  0  0  0  0  0  0  0  0  0  0  0
    1.2888   68.4990   68.0575 H   0  0  0  0  0  0  0  0  0  0  0  0
    2.6937   70.0581   69.3885 H   0  0  0  0  0  0  0  0  0  0  0  0
    4.8182   70.9442   68.4360 H   0  0  0  0  0  0  0  0  0  0  0  0
    5.5257   70.2808   66.1453 H   0  0  0  0  0  0  0  0  0  0  0  0
  2  1  2  0
  3  2  1  0
  4  3  2  0
  5  4  1  0
  6  5  2  0
  6  1  1  0
  7  6  1  0
  8  7  2  0
  9  8  1  0
 10  5  1  0
 10  9  2  0
 12 11  2  0
 13 12  2  0
 13  1  1  0
  2 14  1  0
  3 15  1  0
  4 16  1  0
  7 17  1  0
  8 18  1  0
  9 19  1  0
 10 20  1  0
M  END
>  <score>  (9) 
-7.092

$$$$
