=
     RDKit          3D

 87 92  0  0  0  0  0  0  0  0999 V2000
   -1.0080   67.4130   68.2120 N   0  0  2  0  0  4  0  0  0  0  0  0
   -2.0550   66.8880   67.2490 C   0  0  0  0  0  0  0  0  0  0  0  0
   -2.9410   68.6810   65.7340 C   0  0  0  0  0  0  0  0  0  0  0  0
   -3.0240   67.9570   66.8590 C   0  0  0  0  0  0  0  0  0  0  0  0
    0.1620   68.0430   67.4640 C   0  0  0  0  0  0  0  0  0  0  0  0
    0.1470   69.5590   67.6230 C   0  0  0  0  0  0  0  0  0  0  0  0
    1.5510   70.0940   67.9060 C   0  0  0  0  0  0  0  0  0  0  0  0
    2.5000   69.0000   67.6900 N   0  0  0  0  0  0  0  0  0  0  0  0
    3.6460   69.4520   66.9590 C   0  0  0  0  0  0  0  0  0  0  0  0
    3.6860   69.2150   65.5700 C   0  0  0  0  0  0  0  0  0  0  0  0
    2.5210   68.5810   64.8500 C   0  0  0  0  0  0  0  0  0  0  0  0
    2.5760   68.7300   63.3300 C   0  0  0  0  0  0  0  0  0  0  0  0
    3.9680   68.4000   62.8130 C   0  0  0  0  0  0  0  0  0  0  0  0
    4.9820   69.3780   63.3960 C   0  0  0  0  0  0  0  0  0  0  0  0
    4.8530   69.5540   64.8880 C   0  0  0  0  0  0  0  0  0  0  0  0
    5.9260   70.1060   65.4970 N   0  0  0  0  0  0  0  0  0  0  0  0
    5.8860   70.3440   66.8140 C   0  0  0  0  0  0  0  0  0  0  0  0
    4.7690   70.0340   67.6150 C   0  0  0  0  0  0  0  0  0  0  0  0
    4.8370   70.3180   69.0040 C   0  0  0  0  0  0  0  0  0  0  0  0
    5.9740   70.8920   69.5750 C   0  0  0  0  0  0  0  0  0  0  0  0
    7.0630   71.1910   68.7710 C   0  0  0  0  0  0  0  0  0  0  0  0
    7.0070   70.9140   67.4040 C   0  0  0  0  0  0  0  0  0  0  0  0
   -0.5640   66.3560   69.2070 C   0  0  0  0  0  0  0  0  0  0  0  0
    0.8230   66.6360   69.7820 C   0  0  0  0  0  0  0  0  0  0  0  0
    1.6200   65.4250   70.2840 C   0  0  0  0  0  0  0  0  0  0  0  0
    0.8550   64.4290   71.1600 C   0  0  0  0  0  0  0  0  0  0  0  0
    0.8720   63.0840   70.5720 N   0  0  0  0  0  0  0  0  0  0  0  0
    1.4160   62.1280   71.5060 C   0  0  0  0  0  0  0  0  0  0  0  0
    0.5640   61.4110   72.3780 C   0  0  0  0  0  0  0  0  0  0  0  0
   -0.9250   61.6640   72.4420 C   0  0  0  0  0  0  0  0  0  0  0  0
   -1.6230   61.0350   73.6480 C   0  0  0  0  0  0  0  0  0  0  0  0
   -1.1630   59.5990   73.8380 C   0  0  0  0  0  0  0  0  0  0  0  0
    0.3340   59.5740   74.1210 C   0  0  0  0  0  0  0  0  0  0  0  0
    1.1390   60.3940   73.1460 C   0  0  0  0  0  0  0  0  0  0  0  0
    2.4570   60.0930   73.1070 N   0  0  0  0  0  0  0  0  0  0  0  0
    3.2670   60.7900   72.3010 C   0  0  0  0  0  0  0  0  0  0  0  0
    2.8050   61.8290   71.4710 C   0  0  0  0  0  0  0  0  0  0  0  0
    3.7460   62.5240   70.6750 C   0  0  0  0  0  0  0  0  0  0  0  0
    5.0990   62.1840   70.6800 C   0  0  0  0  0  0  0  0  0  0  0  0
    5.5350   61.1470   71.4890 C   0  0  0  0  0  0  0  0  0  0  0  0
    4.6180   60.4650   72.2910 C   0  0  0  0  0  0  0  0  0  0  0  0
   -1.4461   68.1598   68.7699 H   0  0  0  0  0  0  0  0  0  0  0  0
   -1.5532   66.5129   66.3448 H   0  0  0  0  0  0  0  0  0  0  0  0
   -2.6121   66.0824   67.7497 H   0  0  0  0  0  0  0  0  0  0  0  0
   -3.6960   69.4515   65.5188 H   0  0  0  0  0  0  0  0  0  0  0  0
   -2.1179   68.5047   65.0259 H   0  0  0  0  0  0  0  0  0  0  0  0
   -3.8618   68.1636   67.5412 H   0  0  0  0  0  0  0  0  0  0  0  0
    1.1051   67.6465   67.8683 H   0  0  0  0  0  0  0  0  0  0  0  0
    0.0729   67.7977   66.3954 H   0  0  0  0  0  0  0  0  0  0  0  0
   -0.2313   70.0142   66.6958 H   0  0  0  0  0  0  0  0  0  0  0  0
   -0.5037   69.8160   68.4718 H   0  0  0  0  0  0  0  0  0  0  0  0
    1.7785   70.9266   67.2240 H   0  0  0  0  0  0  0  0  0  0  0  0
    1.6198   70.4632   68.9399 H   0  0  0  0  0  0  0  0  0  0  0  0
    2.3619   68.0340   68.0198 H   0  0  0  0  0  0  0  0  0  0  0  0
    2.5066   67.5081   65.0924 H   0  0  0  0  0  0  0  0  0  0  0  0
    1.6142   69.1032   65.1890 H   0  0  0  0  0  0  0  0  0  0  0  0
    1.8478   68.0443   62.8724 H   0  0  0  0  0  0  0  0  0  0  0  0
    2.3352   69.7702   63.0653 H   0  0  0  0  0  0  0  0  0  0  0  0
    4.2351   67.3757   63.1122 H   0  0  0  0  0  0  0  0  0  0  0  0
    3.9759   68.4803   61.7160 H   0  0  0  0  0  0  0  0  0  0  0  0
    5.9931   69.0055   63.1747 H   0  0  0  0  0  0  0  0  0  0  0  0
    4.7906   70.3583   62.9351 H   0  0  0  0  0  0  0  0  0  0  0  0
    3.9748   70.0805   69.6445 H   0  0  0  0  0  0  0  0  0  0  0  0
    6.0056   71.1053   70.6537 H   0  0  0  0  0  0  0  0  0  0  0  0
    7.9655   71.6437   69.2075 H   0  0  0  0  0  0  0  0  0  0  0  0
    7.8768   71.1543   66.7750 H   0  0  0  0  0  0  0  0  0  0  0  0
   -1.2884   66.3244   70.0342 H   0  0  0  0  0  0  0  0  0  0  0  0
   -0.5155   65.3955   68.6731 H   0  0  0  0  0  0  0  0  0  0  0  0
    1.4176   67.1229   68.9950 H   0  0  0  0  0  0  0  0  0  0  0  0
    0.6457   67.2544   70.6743 H   0  0  0  0  0  0  0  0  0  0  0  0
    1.9932   64.8806   69.4041 H   0  0  0  0  0  0  0  0  0  0  0  0
    2.4095   65.8386   70.9287 H   0  0  0  0  0  0  0  0  0  0  0  0
    1.3236   64.3919   72.1545 H   0  0  0  0  0  0  0  0  0  0  0  0
   -0.1903   64.7630   71.2364 H   0  0  0  0  0  0  0  0  0  0  0  0
    0.5414   62.8544   69.6239 H   0  0  0  0  0  0  0  0  0  0  0  0
   -1.0876   62.7513   72.4793 H   0  0  0  0  0  0  0  0  0  0  0  0
   -1.3611   61.1946   71.5478 H   0  0  0  0  0  0  0  0  0  0  0  0
   -1.3805   61.6155   74.5504 H   0  0  0  0  0  0  0  0  0  0  0  0
   -2.7092   61.0413   73.4745 H   0  0  0  0  0  0  0  0  0  0  0  0
   -1.7031   59.1508   74.6850 H   0  0  0  0  0  0  0  0  0  0  0  0
   -1.3710   59.0251   72.9229 H   0  0  0  0  0  0  0  0  0  0  0  0
    0.5045   59.9688   75.1334 H   0  0  0  0  0  0  0  0  0  0  0  0
    0.6669   58.5303   74.0215 H   0  0  0  0  0  0  0  0  0  0  0  0
    3.4026   63.3519   70.0372 H   0  0  0  0  0  0  0  0  0  0  0  0
    5.8124   62.7335   70.0482 H   0  0  0  0  0  0  0  0  0  0  0  0
    6.5976   60.8627   71.4993 H   0  0  0  0  0  0  0  0  0  0  0  0
    4.9753   59.6468   72.9335 H   0  0  0  0  0  0  0  0  0  0  0  0
  2  1  1  0
  4  3  2  3
  4  2  1  0
  5  1  1  0
  6  5  1  0
  7  6  1  0
  8  7  1  0
  9  8  1  0
 10  9  1  0
 11 10  1  0
 12 11  1  0
 13 12  1  0
 14 13  1  0
 15 14  1  0
 15 10  2  0
 16 15  1  0
 17 16  2  0
 18  9  2  0
 18 17  1  0
 19 18  1  0
 20 19  2  0
 21 20  1  0
 22 17  1  0
 22 21  2  0
 23  1  1  0
 24 23  1  0
 25 24  1  0
 26 25  1  0
 27 26  1  0
 28 27  1  0
 29 28  1  0
 30 29  1  0
 31 30  1  0
 32 31  1  0
 33 32  1  0
 34 33  1  0
 34 29  2  0
 35 34  1  0
 36 35  2  0
 37 36  1  0
 37 28  2  0
 38 37  1  0
 39 38  2  0
 40 39  1  0
 41 36  1  0
 41 40  2  0
  1 42  1  1
  2 43  1  0
  2 44  1  0
  3 45  1  0
  3 46  1  0
  4 47  1  0
  5 48  1  0
  5 49  1  0
  6 50  1  0
  6 51  1  0
  7 52  1  0
  7 53  1  0
  8 54  1  0
 11 55  1  0
 11 56  1  0
 12 57  1  0
 12 58  1  0
 13 59  1  0
 13 60  1  0
 14 61  1  0
 14 62  1  0
 19 63  1  0
 20 64  1  0
 21 65  1  0
 22 66  1  0
 23 67  1  0
 23 68  1  0
 24 69  1  0
 24 70  1  0
 25 71  1  0
 25 72  1  0
 26 73  1  0
 26 74  1  0
 27 75  1  0
 30 76  1  0
 30 77  1  0
 31 78  1  0
 31 79  1  0
 32 80  1  0
 32 81  1  0
 33 82  1  0
 33 83  1  0
 38 84  1  0
 39 85  1  0
 40 86  1  0
 41 87  1  0
M  CHG  1   1   1
M  END
>  <score>  (1) 
-11.922

$$$$
=
     RDKit          3D

 87 92  0  0  0  0  0  0  0  0999 V2000
    1.2080   64.8870   71.0040 N   0  0  2  0  0  4  0  0  0  0  0  0
    2.2360   64.2430   70.0940 C   0  0  0  0  0  0  0  0  0  0  0  0
    4.5090   63.2010   70.3130 C   0  0  0  0  0  0  0  0  0  0  0  0
    3.4380   63.7930   70.8610 C   0  0  0  0  0  0  0  0  0  0  0  0
    0.3720   63.8340   71.7240 C   0  0  0  0  0  0  0  0  0  0  0  0
    0.5780   63.9240   73.2310 C   0  0  0  0  0  0  0  0  0  0  0  0
   -0.1810   62.8110   73.9540 C   0  0  0  0  0  0  0  0  0  0  0  0
   -0.7600   61.9290   72.9390 N   0  0  0  0  0  0  0  0  0  0  0  0
   -0.4450   60.5590   73.2090 C   0  0  0  0  0  0  0  0  0  0  0  0
   -1.3540   59.8060   73.9800 C   0  0  0  0  0  0  0  0  0  0  0  0
   -2.6670   60.3930   74.4380 C   0  0  0  0  0  0  0  0  0  0  0  0
   -3.6710   59.3530   74.9340 C   0  0  0  0  0  0  0  0  0  0  0  0
   -2.9940   58.3630   75.8700 C   0  0  0  0  0  0  0  0  0  0  0  0
   -1.9000   57.6080   75.1230 C   0  0  0  0  0  0  0  0  0  0  0  0
   -0.9830   58.5090   74.3360 C   0  0  0  0  0  0  0  0  0  0  0  0
    0.1900   57.9520   73.9630 N   0  0  0  0  0  0  0  0  0  0  0  0
    1.0500   58.6610   73.2210 C   0  0  0  0  0  0  0  0  0  0  0  0
    0.7960   59.9850   72.8090 C   0  0  0  0  0  0  0  0  0  0  0  0
    1.7820   60.6490   72.0330 C   0  0  0  0  0  0  0  0  0  0  0  0
    2.9750   60.0180   71.6770 C   0  0  0  0  0  0  0  0  0  0  0  0
    3.2070   58.7160   72.0910 C   0  0  0  0  0  0  0  0  0  0  0  0
    2.2450   58.0550   72.8560 C   0  0  0  0  0  0  0  0  0  0  0  0
    0.3560   65.9080   70.2710 C   0  0  0  0  0  0  0  0  0  0  0  0
    1.1920   66.8900   69.4520 C   0  0  0  0  0  0  0  0  0  0  0  0
    0.5000   67.5540   68.2540 C   0  0  0  0  0  0  0  0  0  0  0  0
    1.3240   67.6520   66.9670 C   0  0  0  0  0  0  0  0  0  0  0  0
    1.5850   69.0520   66.6110 N   0  0  0  0  0  0  0  0  0  0  0  0
    2.9670   69.2320   66.2390 C   0  0  0  0  0  0  0  0  0  0  0  0
    3.3930   68.9790   64.9140 C   0  0  0  0  0  0  0  0  0  0  0  0
    2.4620   68.4320   63.8560 C   0  0  0  0  0  0  0  0  0  0  0  0
    3.1630   67.9280   62.5950 C   0  0  0  0  0  0  0  0  0  0  0  0
    4.2120   68.9270   62.1350 C   0  0  0  0  0  0  0  0  0  0  0  0
    5.2790   69.0810   63.2110 C   0  0  0  0  0  0  0  0  0  0  0  0
    4.7090   69.3200   64.5860 C   0  0  0  0  0  0  0  0  0  0  0  0
    5.5800   69.8460   65.4760 N   0  0  0  0  0  0  0  0  0  0  0  0
    5.1840   70.0610   66.7370 C   0  0  0  0  0  0  0  0  0  0  0  0
    3.8820   69.7710   67.1850 C   0  0  0  0  0  0  0  0  0  0  0  0
    3.5680   70.0090   68.5430 C   0  0  0  0  0  0  0  0  0  0  0  0
    4.5080   70.5410   69.4260 C   0  0  0  0  0  0  0  0  0  0  0  0
    5.7800   70.8390   68.9660 C   0  0  0  0  0  0  0  0  0  0  0  0
    6.1050   70.5930   67.6300 C   0  0  0  0  0  0  0  0  0  0  0  0
    1.7193   65.4118   71.7279 H   0  0  0  0  0  0  0  0  0  0  0  0
    1.7806   63.3724   69.5993 H   0  0  0  0  0  0  0  0  0  0  0  0
    2.5578   64.9892   69.3527 H   0  0  0  0  0  0  0  0  0  0  0  0
    5.3552   62.8989   70.9475 H   0  0  0  0  0  0  0  0  0  0  0  0
    4.5414   63.0175   69.2289 H   0  0  0  0  0  0  0  0  0  0  0  0
    3.4441   63.9588   71.9484 H   0  0  0  0  0  0  0  0  0  0  0  0
   -0.6912   63.9973   71.4941 H   0  0  0  0  0  0  0  0  0  0  0  0
    0.6865   62.8369   71.3820 H   0  0  0  0  0  0  0  0  0  0  0  0
    1.6512   63.8313   73.4538 H   0  0  0  0  0  0  0  0  0  0  0  0
    0.1949   64.8942   73.5803 H   0  0  0  0  0  0  0  0  0  0  0  0
    0.5097   62.2420   74.5937 H   0  0  0  0  0  0  0  0  0  0  0  0
   -0.9723   63.2363   74.5888 H   0  0  0  0  0  0  0  0  0  0  0  0
   -1.3199   62.2516   72.1369 H   0  0  0  0  0  0  0  0  0  0  0  0
   -2.4641   61.0973   75.2583 H   0  0  0  0  0  0  0  0  0  0  0  0
   -3.1202   60.8825   73.5634 H   0  0  0  0  0  0  0  0  0  0  0  0
   -4.4838   59.8624   75.4723 H   0  0  0  0  0  0  0  0  0  0  0  0
   -4.0737   58.8062   74.0686 H   0  0  0  0  0  0  0  0  0  0  0  0
   -2.5492   58.9068   76.7164 H   0  0  0  0  0  0  0  0  0  0  0  0
   -3.7411   57.6456   76.2405 H   0  0  0  0  0  0  0  0  0  0  0  0
   -1.2975   57.0512   75.8558 H   0  0  0  0  0  0  0  0  0  0  0  0
   -2.3979   56.9418   74.4031 H   0  0  0  0  0  0  0  0  0  0  0  0
    1.6019   61.6834   71.7051 H   0  0  0  0  0  0  0  0  0  0  0  0
    3.7248   60.5498   71.0728 H   0  0  0  0  0  0  0  0  0  0  0  0
    4.1432   58.2069   71.8184 H   0  0  0  0  0  0  0  0  0  0  0  0
    2.4393   57.0219   73.1799 H   0  0  0  0  0  0  0  0  0  0  0  0
   -0.3269   65.3754   69.5928 H   0  0  0  0  0  0  0  0  0  0  0  0
   -0.1940   66.4877   71.0269 H   0  0  0  0  0  0  0  0  0  0  0  0
    1.5250   67.6899   70.1297 H   0  0  0  0  0  0  0  0  0  0  0  0
    2.0033   66.2867   69.0186 H   0  0  0  0  0  0  0  0  0  0  0  0
   -0.4081   66.9758   68.0280 H   0  0  0  0  0  0  0  0  0  0  0  0
    0.3101   68.5928   68.5621 H   0  0  0  0  0  0  0  0  0  0  0  0
    2.2832   67.1341   67.1144 H   0  0  0  0  0  0  0  0  0  0  0  0
    0.7534   67.1849   66.1508 H   0  0  0  0  0  0  0  0  0  0  0  0
    0.8791   69.8019   66.6249 H   0  0  0  0  0  0  0  0  0  0  0  0
    1.8983   67.5949   64.2937 H   0  0  0  0  0  0  0  0  0  0  0  0
    1.8179   69.2672   63.5436 H   0  0  0  0  0  0  0  0  0  0  0  0
    3.6497   66.9655   62.8113 H   0  0  0  0  0  0  0  0  0  0  0  0
    2.4156   67.8037   61.7975 H   0  0  0  0  0  0  0  0  0  0  0  0
    4.6783   68.5664   61.2063 H   0  0  0  0  0  0  0  0  0  0  0  0
    3.7337   69.9008   61.9535 H   0  0  0  0  0  0  0  0  0  0  0  0
    5.8827   68.1618   63.2382 H   0  0  0  0  0  0  0  0  0  0  0  0
    5.8803   69.9642   62.9495 H   0  0  0  0  0  0  0  0  0  0  0  0
    2.5597   69.7692   68.9116 H   0  0  0  0  0  0  0  0  0  0  0  0
    4.2414   70.7221   70.4777 H   0  0  0  0  0  0  0  0  0  0  0  0
    6.5294   71.2666   69.6483 H   0  0  0  0  0  0  0  0  0  0  0  0
    7.1194   70.8273   67.2750 H   0  0  0  0  0  0  0  0  0  0  0  0
  2  1  1  0
  4  3  2  3
  4  2  1  0
  5  1  1  0
  6  5  1  0
  7  6  1  0
  8  7  1  0
  9  8  1  0
 10  9  1  0
 11 10  1  0
 12 11  1  0
 13 12  1  0
 14 13  1  0
 15 14  1  0
 15 10  2  0
 16 15  1  0
 17 16  2  0
 18  9  2  0
 18 17  1  0
 19 18  1  0
 20 19  2  0
 21 20  1  0
 22 17  1  0
 22 21  2  0
 23  1  1  0
 24 23  1  0
 25 24  1  0
 26 25  1  0
 27 26  1  0
 28 27  1  0
 29 28  1  0
 30 29  1  0
 31 30  1  0
 32 31  1  0
 33 32  1  0
 34 33  1  0
 34 29  2  0
 35 34  1  0
 36 35  2  0
 37 36  1  0
 37 28  2  0
 38 37  1  0
 39 38  2  0
 40 39  1  0
 41 36  1  0
 41 40  2  0
  1 42  1  1
  2 43  1  0
  2 44  1  0
  3 45  1  0
  3 46  1  0
  4 47  1  0
  5 48  1  0
  5 49  1  0
  6 50  1  0
  6 51  1  0
  7 52  1  0
  7 53  1  0
  8 54  1  0
 11 55  1  0
 11 56  1  0
 12 57  1  0
 12 58  1  0
 13 59  1  0
 13 60  1  0
 14 61  1  0
 14 62  1  0
 19 63  1  0
 20 64  1  0
 21 65  1  0
 22 66  1  0
 23 67  1  0
 23 68  1  0
 24 69  1  0
 24 70  1  0
 25 71  1  0
 25 72  1  0
 26 73  1  0
 26 74  1  0
 27 75  1  0
 30 76  1  0
 30 77  1  0
 31 78  1  0
 31 79  1  0
 32 80  1  0
 32 81  1  0
 33 82  1  0
 33 83  1  0
 38 84  1  0
 39 85  1  0
 40 86  1  0
 41 87  1  0
M  CHG  1   1   1
M  END
>  <score>  (2) 
-11.845

$$$$
=
     RDKit          3D

 87 92  0  0  0  0  0  0  0  0999 V2000
    1.1860   64.6760   70.9630 N   0  0  2  0  0  4  0  0  0  0  0  0
    2.4940   64.3240   70.2820 C   0  0  0  0  0  0  0  0  0  0  0  0
    3.4080   62.4530   68.8810 C   0  0  0  0  0  0  0  0  0  0  0  0
    2.4070   63.0070   69.5780 C   0  0  0  0  0  0  0  0  0  0  0  0
    0.3030   63.4440   71.1320 C   0  0  0  0  0  0  0  0  0  0  0  0
   -0.0640   63.2430   72.5970 C   0  0  0  0  0  0  0  0  0  0  0  0
   -0.3790   61.7740   72.8860 C   0  0  0  0  0  0  0  0  0  0  0  0
    0.5180   61.3230   73.9520 N   0  0  0  0  0  0  0  0  0  0  0  0
    1.2200   60.1370   73.5650 C   0  0  0  0  0  0  0  0  0  0  0  0
    2.4860   60.2800   72.9610 C   0  0  0  0  0  0  0  0  0  0  0  0
    3.1300   61.6350   72.8030 C   0  0  0  0  0  0  0  0  0  0  0  0
    4.6210   61.5790   72.4750 C   0  0  0  0  0  0  0  0  0  0  0  0
    4.8870   60.5570   71.3800 C   0  0  0  0  0  0  0  0  0  0  0  0
    4.4810   59.1670   71.8580 C   0  0  0  0  0  0  0  0  0  0  0  0
    3.1090   59.1280   72.4820 C   0  0  0  0  0  0  0  0  0  0  0  0
    2.5600   57.8980   72.5860 N   0  0  0  0  0  0  0  0  0  0  0  0
    1.3620   57.7580   73.1700 C   0  0  0  0  0  0  0  0  0  0  0  0
    0.6270   58.8470   73.6820 C   0  0  0  0  0  0  0  0  0  0  0  0
   -0.6370   58.5870   74.2710 C   0  0  0  0  0  0  0  0  0  0  0  0
   -1.1510   57.2920   74.3520 C   0  0  0  0  0  0  0  0  0  0  0  0
   -0.4130   56.2340   73.8440 C   0  0  0  0  0  0  0  0  0  0  0  0
    0.8300   56.4780   73.2610 C   0  0  0  0  0  0  0  0  0  0  0  0
    0.4680   65.8180   70.2670 C   0  0  0  0  0  0  0  0  0  0  0  0
    1.4130   66.6890   69.4420 C   0  0  0  0  0  0  0  0  0  0  0  0
    0.7670   67.6130   68.4000 C   0  0  0  0  0  0  0  0  0  0  0  0
    1.4240   67.6370   67.0180 C   0  0  0  0  0  0  0  0  0  0  0  0
    1.6450   69.0140   66.5600 N   0  0  0  0  0  0  0  0  0  0  0  0
    3.0300   69.2170   66.2130 C   0  0  0  0  0  0  0  0  0  0  0  0
    3.4830   68.9790   64.8940 C   0  0  0  0  0  0  0  0  0  0  0  0
    2.5790   68.4250   63.8170 C   0  0  0  0  0  0  0  0  0  0  0  0
    3.3090   67.9400   62.5650 C   0  0  0  0  0  0  0  0  0  0  0  0
    4.3500   68.9580   62.1290 C   0  0  0  0  0  0  0  0  0  0  0  0
    5.3960   69.1220   63.2240 C   0  0  0  0  0  0  0  0  0  0  0  0
    4.7980   69.3430   64.5910 C   0  0  0  0  0  0  0  0  0  0  0  0
    5.6460   69.8770   65.4990 N   0  0  0  0  0  0  0  0  0  0  0  0
    5.2250   70.0770   66.7540 C   0  0  0  0  0  0  0  0  0  0  0  0
    3.9200   69.7640   67.1770 C   0  0  0  0  0  0  0  0  0  0  0  0
    3.5800   69.9880   68.5320 C   0  0  0  0  0  0  0  0  0  0  0  0
    4.4960   70.5290   69.4350 C   0  0  0  0  0  0  0  0  0  0  0  0
    5.7710   70.8500   68.9980 C   0  0  0  0  0  0  0  0  0  0  0  0
    6.1220   70.6180   67.6670 C   0  0  0  0  0  0  0  0  0  0  0  0
    1.4105   65.0173   71.9085 H   0  0  0  0  0  0  0  0  0  0  0  0
    2.7371   65.1065   69.5481 H   0  0  0  0  0  0  0  0  0  0  0  0
    3.2765   64.2534   71.0519 H   0  0  0  0  0  0  0  0  0  0  0  0
    3.2638   61.4787   68.3911 H   0  0  0  0  0  0  0  0  0  0  0  0
    4.3742   62.9724   68.7986 H   0  0  0  0  0  0  0  0  0  0  0  0
    1.4567   62.4561   69.6366 H   0  0  0  0  0  0  0  0  0  0  0  0
   -0.6171   63.5755   70.5437 H   0  0  0  0  0  0  0  0  0  0  0  0
    0.8566   62.5606   70.7811 H   0  0  0  0  0  0  0  0  0  0  0  0
    0.7805   63.5605   73.2263 H   0  0  0  0  0  0  0  0  0  0  0  0
   -0.9579   63.8439   72.8203 H   0  0  0  0  0  0  0  0  0  0  0  0
   -1.4253   61.6728   73.2101 H   0  0  0  0  0  0  0  0  0  0  0  0
   -0.2349   61.1658   71.9808 H   0  0  0  0  0  0  0  0  0  0  0  0
    0.6291   61.7964   74.8600 H   0  0  0  0  0  0  0  0  0  0  0  0
    2.6167   62.1694   71.9901 H   0  0  0  0  0  0  0  0  0  0  0  0
    3.0359   62.1474   73.7718 H   0  0  0  0  0  0  0  0  0  0  0  0
    4.9542   62.5703   72.1338 H   0  0  0  0  0  0  0  0  0  0  0  0
    5.1736   61.2840   73.3792 H   0  0  0  0  0  0  0  0  0  0  0  0
    4.3031   60.8202   70.4857 H   0  0  0  0  0  0  0  0  0  0  0  0
    5.9598   60.5575   71.1369 H   0  0  0  0  0  0  0  0  0  0  0  0
    4.4919   58.4842   70.9956 H   0  0  0  0  0  0  0  0  0  0  0  0
    5.2004   58.8663   72.6339 H   0  0  0  0  0  0  0  0  0  0  0  0
   -1.2253   59.4250   74.6730 H   0  0  0  0  0  0  0  0  0  0  0  0
   -2.1327   57.1124   74.8147 H   0  0  0  0  0  0  0  0  0  0  0  0
   -0.8057   55.2080   73.9005 H   0  0  0  0  0  0  0  0  0  0  0  0
    1.4068   55.6311   72.8610 H   0  0  0  0  0  0  0  0  0  0  0  0
   -0.2977   65.3976   69.5985 H   0  0  0  0  0  0  0  0  0  0  0  0
    0.0215   66.4547   71.0450 H   0  0  0  0  0  0  0  0  0  0  0  0
    1.9799   67.3208   70.1416 H   0  0  0  0  0  0  0  0  0  0  0  0
    2.0244   65.9823   68.8617 H   0  0  0  0  0  0  0  0  0  0  0  0
   -0.2774   67.2932   68.2695 H   0  0  0  0  0  0  0  0  0  0  0  0
    0.8824   68.6318   68.7984 H   0  0  0  0  0  0  0  0  0  0  0  0
    2.3918   67.1168   67.0715 H   0  0  0  0  0  0  0  0  0  0  0  0
    0.7536   67.1356   66.3045 H   0  0  0  0  0  0  0  0  0  0  0  0
    0.9125   69.7352   66.4954 H   0  0  0  0  0  0  0  0  0  0  0  0
    2.0208   67.5766   64.2397 H   0  0  0  0  0  0  0  0  0  0  0  0
    1.9277   69.2524   63.4988 H   0  0  0  0  0  0  0  0  0  0  0  0
    3.8069   66.9838   62.7836 H   0  0  0  0  0  0  0  0  0  0  0  0
    2.5772   67.8093   61.7542 H   0  0  0  0  0  0  0  0  0  0  0  0
    4.8377   68.6104   61.2063 H   0  0  0  0  0  0  0  0  0  0  0  0
    3.8596   69.9253   61.9451 H   0  0  0  0  0  0  0  0  0  0  0  0
    6.0138   68.2125   63.2559 H   0  0  0  0  0  0  0  0  0  0  0  0
    5.9878   70.0162   62.9785 H   0  0  0  0  0  0  0  0  0  0  0  0
    2.5697   69.7296   68.8819 H   0  0  0  0  0  0  0  0  0  0  0  0
    4.2087   70.6989   70.4831 H   0  0  0  0  0  0  0  0  0  0  0  0
    6.5020   71.2849   69.6955 H   0  0  0  0  0  0  0  0  0  0  0  0
    7.1385   70.8709   67.3311 H   0  0  0  0  0  0  0  0  0  0  0  0
  2  1  1  0
  4  3  2  3
  4  2  1  0
  5  1  1  0
  6  5  1  0
  7  6  1  0
  8  7  1  0
  9  8  1  0
 10  9  1  0
 11 10  1  0
 12 11  1  0
 13 12  1  0
 14 13  1  0
 15 14  1  0
 15 10  2  0
 16 15  1  0
 17 16  2  0
 18  9  2  0
 18 17  1  0
 19 18  1  0
 20 19  2  0
 21 20  1  0
 22 17  1  0
 22 21  2  0
 23  1  1  0
 24 23  1  0
 25 24  1  0
 26 25  1  0
 27 26  1  0
 28 27  1  0
 29 28  1  0
 30 29  1  0
 31 30  1  0
 32 31  1  0
 33 32  1  0
 34 33  1  0
 34 29  2  0
 35 34  1  0
 36 35  2  0
 37 36  1  0
 37 28  2  0
 38 37  1  0
 39 38  2  0
 40 39  1  0
 41 36  1  0
 41 40  2  0
  1 42  1  1
  2 43  1  0
  2 44  1  0
  3 45  1  0
  3 46  1  0
  4 47  1  0
  5 48  1  0
  5 49  1  0
  6 50  1  0
  6 51  1  0
  7 52  1  0
  7 53  1  0
  8 54  1  0
 11 55  1  0
 11 56  1  0
 12 57  1  0
 12 58  1  0
 13 59  1  0
 13 60  1  0
 14 61  1  0
 14 62  1  0
 19 63  1  0
 20 64  1  0
 21 65  1  0
 22 66  1  0
 23 67  1  0
 23 68  1  0
 24 69  1  0
 24 70  1  0
 25 71  1  0
 25 72  1  0
 26 73  1  0
 26 74  1  0
 27 75  1  0
 30 76  1  0
 30 77  1  0
 31 78  1  0
 31 79  1  0
 32 80  1  0
 32 81  1  0
 33 82  1  0
 33 83  1  0
 38 84  1  0
 39 85  1  0
 40 86  1  0
 41 87  1  0
M  CHG  1   1   1
M  END
>  <score>  (3) 
-11.834

$$$$
=
     RDKit          3D

 87 92  0  0  0  0  0  0  0  0999 V2000
    1.2290   64.5730   71.0100 N   0  0  2  0  0  4  0  0  0  0  0  0
    2.5180   64.3490   70.2440 C   0  0  0  0  0  0  0  0  0  0  0  0
    3.4700   62.6270   68.6860 C   0  0  0  0  0  0  0  0  0  0  0  0
    2.4960   63.0490   69.5050 C   0  0  0  0  0  0  0  0  0  0  0  0
    0.4460   63.2730   71.1630 C   0  0  0  0  0  0  0  0  0  0  0  0
    0.0920   63.0280   72.6250 C   0  0  0  0  0  0  0  0  0  0  0  0
    1.3100   63.2410   73.5260 C   0  0  0  0  0  0  0  0  0  0  0  0
    1.4570   62.0540   74.3700 N   0  0  0  0  0  0  0  0  0  0  0  0
    1.8560   60.9190   73.5940 C   0  0  0  0  0  0  0  0  0  0  0  0
    1.0740   59.7480   73.6750 C   0  0  0  0  0  0  0  0  0  0  0  0
   -0.1990   59.7110   74.4850 C   0  0  0  0  0  0  0  0  0  0  0  0
   -1.0970   58.5140   74.1750 C   0  0  0  0  0  0  0  0  0  0  0  0
   -0.2760   57.2340   74.1190 C   0  0  0  0  0  0  0  0  0  0  0  0
    0.7520   57.3250   72.9970 C   0  0  0  0  0  0  0  0  0  0  0  0
    1.5340   58.6140   73.0070 C   0  0  0  0  0  0  0  0  0  0  0  0
    2.6770   58.5990   72.2860 N   0  0  0  0  0  0  0  0  0  0  0  0
    3.4150   59.7120   72.1980 C   0  0  0  0  0  0  0  0  0  0  0  0
    3.0630   60.9180   72.8370 C   0  0  0  0  0  0  0  0  0  0  0  0
    3.9250   62.0360   72.6860 C   0  0  0  0  0  0  0  0  0  0  0  0
    5.0910   61.9590   71.9250 C   0  0  0  0  0  0  0  0  0  0  0  0
    5.4210   60.7650   71.3030 C   0  0  0  0  0  0  0  0  0  0  0  0
    4.5820   59.6590   71.4470 C   0  0  0  0  0  0  0  0  0  0  0  0
    0.3950   65.6910   70.4120 C   0  0  0  0  0  0  0  0  0  0  0  0
    1.2340   66.6870   69.6150 C   0  0  0  0  0  0  0  0  0  0  0  0
    0.5730   67.3150   68.3810 C   0  0  0  0  0  0  0  0  0  0  0  0
    1.4700   67.5010   67.1540 C   0  0  0  0  0  0  0  0  0  0  0  0
    1.4830   68.9020   66.7140 N   0  0  0  0  0  0  0  0  0  0  0  0
    2.8230   69.3130   66.3730 C   0  0  0  0  0  0  0  0  0  0  0  0
    3.6850   69.8470   67.3600 C   0  0  0  0  0  0  0  0  0  0  0  0
    3.2310   70.0940   68.7800 C   0  0  0  0  0  0  0  0  0  0  0  0
    4.1820   70.9580   69.6070 C   0  0  0  0  0  0  0  0  0  0  0  0
    5.6180   70.4990   69.4170 C   0  0  0  0  0  0  0  0  0  0  0  0
    6.0180   70.6610   67.9560 C   0  0  0  0  0  0  0  0  0  0  0  0
    5.0140   70.0800   66.9950 C   0  0  0  0  0  0  0  0  0  0  0  0
    5.4910   69.8450   65.7510 N   0  0  0  0  0  0  0  0  0  0  0  0
    4.6690   69.3650   64.8100 C   0  0  0  0  0  0  0  0  0  0  0  0
    3.3140   69.0780   65.0590 C   0  0  0  0  0  0  0  0  0  0  0  0
    2.5200   68.5990   63.9910 C   0  0  0  0  0  0  0  0  0  0  0  0
    3.0570   68.3860   62.7210 C   0  0  0  0  0  0  0  0  0  0  0  0
    4.3970   68.6550   62.4970 C   0  0  0  0  0  0  0  0  0  0  0  0
    5.1860   69.1440   63.5400 C   0  0  0  0  0  0  0  0  0  0  0  0
    1.4814   64.8856   71.9584 H   0  0  0  0  0  0  0  0  0  0  0  0
    2.6523   65.1684   69.5225 H   0  0  0  0  0  0  0  0  0  0  0  0
    3.3485   64.3229   70.9649 H   0  0  0  0  0  0  0  0  0  0  0  0
    3.3790   61.6557   68.1779 H   0  0  0  0  0  0  0  0  0  0  0  0
    4.3602   63.2521   68.5222 H   0  0  0  0  0  0  0  0  0  0  0  0
    1.6221   62.3952   69.6426 H   0  0  0  0  0  0  0  0  0  0  0  0
   -0.4801   63.3373   70.5728 H   0  0  0  0  0  0  0  0  0  0  0  0
    1.0688   62.4400   70.8049 H   0  0  0  0  0  0  0  0  0  0  0  0
   -0.7037   63.7260   72.9245 H   0  0  0  0  0  0  0  0  0  0  0  0
   -0.2476   61.9875   72.7342 H   0  0  0  0  0  0  0  0  0  0  0  0
    2.2115   63.3761   72.9103 H   0  0  0  0  0  0  0  0  0  0  0  0
    1.1756   64.1390   74.1469 H   0  0  0  0  0  0  0  0  0  0  0  0
    1.2949   62.0376   75.3870 H   0  0  0  0  0  0  0  0  0  0  0  0
    0.0700   59.6750   75.5510 H   0  0  0  0  0  0  0  0  0  0  0  0
   -0.7699   60.6141   74.2231 H   0  0  0  0  0  0  0  0  0  0  0  0
   -1.8604   58.4206   74.9614 H   0  0  0  0  0  0  0  0  0  0  0  0
   -1.5773   58.6723   73.1981 H   0  0  0  0  0  0  0  0  0  0  0  0
    0.2430   57.0914   75.0783 H   0  0  0  0  0  0  0  0  0  0  0  0
   -0.9457   56.3825   73.9281 H   0  0  0  0  0  0  0  0  0  0  0  0
    1.4578   56.4878   73.1015 H   0  0  0  0  0  0  0  0  0  0  0  0
    0.2004   57.2863   72.0461 H   0  0  0  0  0  0  0  0  0  0  0  0
    3.6673   62.9842   73.1804 H   0  0  0  0  0  0  0  0  0  0  0  0
    5.7434   62.8383   71.8192 H   0  0  0  0  0  0  0  0  0  0  0  0
    6.3379   60.6897   70.7000 H   0  0  0  0  0  0  0  0  0  0  0  0
    4.8535   58.7159   70.9502 H   0  0  0  0  0  0  0  0  0  0  0  0
   -0.3580   65.2495   69.7426 H   0  0  0  0  0  0  0  0  0  0  0  0
   -0.0728   66.2391   71.2431 H   0  0  0  0  0  0  0  0  0  0  0  0
    1.5149   67.5049   70.2948 H   0  0  0  0  0  0  0  0  0  0  0  0
    2.0799   66.1030   69.2233 H   0  0  0  0  0  0  0  0  0  0  0  0
   -0.2686   66.6707   68.0868 H   0  0  0  0  0  0  0  0  0  0  0  0
    0.2808   68.3300   68.6883 H   0  0  0  0  0  0  0  0  0  0  0  0
    2.4954   67.1954   67.4094 H   0  0  0  0  0  0  0  0  0  0  0  0
    1.0738   66.8822   66.3354 H   0  0  0  0  0  0  0  0  0  0  0  0
    0.6513   69.5068   66.6568 H   0  0  0  0  0  0  0  0  0  0  0  0
    2.2527   70.5957   68.7458 H   0  0  0  0  0  0  0  0  0  0  0  0
    3.1927   69.1110   69.2722 H   0  0  0  0  0  0  0  0  0  0  0  0
    4.0913   72.0061   69.2855 H   0  0  0  0  0  0  0  0  0  0  0  0
    3.9156   70.8634   70.6701 H   0  0  0  0  0  0  0  0  0  0  0  0
    6.2830   71.1069   70.0481 H   0  0  0  0  0  0  0  0  0  0  0  0
    5.7038   69.4405   69.7037 H   0  0  0  0  0  0  0  0  0  0  0  0
    6.1266   71.7343   67.7408 H   0  0  0  0  0  0  0  0  0  0  0  0
    6.9605   70.1120   67.8136 H   0  0  0  0  0  0  0  0  0  0  0  0
    1.4544   68.3895   64.1657 H   0  0  0  0  0  0  0  0  0  0  0  0
    2.4224   68.0082   61.9058 H   0  0  0  0  0  0  0  0  0  0  0  0
    4.8370   68.4844   61.5034 H   0  0  0  0  0  0  0  0  0  0  0  0
    6.2477   69.3605   63.3504 H   0  0  0  0  0  0  0  0  0  0  0  0
  2  1  1  0
  4  3  2  3
  4  2  1  0
  5  1  1  0
  6  5  1  0
  7  6  1  0
  8  7  1  0
  9  8  1  0
 10  9  1  0
 11 10  1  0
 12 11  1  0
 13 12  1  0
 14 13  1  0
 15 14  1  0
 15 10  2  0
 16 15  1  0
 17 16  2  0
 18  9  2  0
 18 17  1  0
 19 18  1  0
 20 19  2  0
 21 20  1  0
 22 17  1  0
 22 21  2  0
 23  1  1  0
 24 23  1  0
 25 24  1  0
 26 25  1  0
 27 26  1  0
 28 27  1  0
 29 28  1  0
 30 29  1  0
 31 30  1  0
 32 31  1  0
 33 32  1  0
 34 33  1  0
 34 29  2  0
 35 34  1  0
 36 35  2  0
 37 36  1  0
 37 28  2  0
 38 37  1  0
 39 38  2  0
 40 39  1  0
 41 36  1  0
 41 40  2  0
  1 42  1  1
  2 43  1  0
  2 44  1  0
  3 45  1  0
  3 46  1  0
  4 47  1  0
  5 48  1  0
  5 49  1  0
  6 50  1  0
  6 51  1  0
  7 52  1  0
  7 53  1  0
  8 54  1  0
 11 55  1  0
 11 56  1  0
 12 57  1  0
 12 58  1  0
 13 59  1  0
 13 60  1  0
 14 61  1  0
 14 62  1  0
 19 63  1  0
 20 64  1  0
 21 65  1  0
 22 66  1  0
 23 67  1  0
 23 68  1  0
 24 69  1  0
 24 70  1  0
 25 71  1  0
 25 72  1  0
 26 73  1  0
 26 74  1  0
 27 75  1  0
 30 76  1  0
 30 77  1  0
 31 78  1  0
 31 79  1  0
 32 80  1  0
 32 81  1  0
 33 82  1  0
 33 83  1  0
 38 84  1  0
 39 85  1  0
 40 86  1  0
 41 87  1  0
M  CHG  1   1   1
M  END
>  <score>  (4) 
-11.815

$$$$
=
     RDKit          3D

 87 92  0  0  0  0  0  0  0  0999 V2000
    1.2410   64.7010   70.9970 N   0  0  2  0  0  4  0  0  0  0  0  0
    2.5840   64.4110   70.3540 C   0  0  0  0  0  0  0  0  0  0  0  0
    3.4500   62.6670   68.7710 C   0  0  0  0  0  0  0  0  0  0  0  0
    2.6160   63.0430   69.7510 C   0  0  0  0  0  0  0  0  0  0  0  0
    0.5220   63.4110   71.3760 C   0  0  0  0  0  0  0  0  0  0  0  0
    0.1480   63.4180   72.8540 C   0  0  0  0  0  0  0  0  0  0  0  0
   -0.2470   62.0180   73.3250 C   0  0  0  0  0  0  0  0  0  0  0  0
    0.8010   61.5360   74.2270 N   0  0  0  0  0  0  0  0  0  0  0  0
    1.3790   60.3200   73.7370 C   0  0  0  0  0  0  0  0  0  0  0  0
    2.6170   60.3930   73.0670 C   0  0  0  0  0  0  0  0  0  0  0  0
    3.3630   61.6990   72.9400 C   0  0  0  0  0  0  0  0  0  0  0  0
    4.8240   61.5400   72.5210 C   0  0  0  0  0  0  0  0  0  0  0  0
    4.9410   60.5630   71.3600 C   0  0  0  0  0  0  0  0  0  0  0  0
    4.4470   59.1860   71.7900 C   0  0  0  0  0  0  0  0  0  0  0  0
    3.1140   59.2230   72.4930 C   0  0  0  0  0  0  0  0  0  0  0  0
    2.4690   58.0380   72.5670 N   0  0  0  0  0  0  0  0  0  0  0  0
    1.2990   57.9630   73.2140 C   0  0  0  0  0  0  0  0  0  0  0  0
    0.6870   59.0770   73.8240 C   0  0  0  0  0  0  0  0  0  0  0  0
   -0.5600   58.8880   74.4740 C   0  0  0  0  0  0  0  0  0  0  0  0
   -1.1750   57.6360   74.5190 C   0  0  0  0  0  0  0  0  0  0  0  0
   -0.5590   56.5520   73.9140 C   0  0  0  0  0  0  0  0  0  0  0  0
    0.6670   56.7270   73.2710 C   0  0  0  0  0  0  0  0  0  0  0  0
    0.3850   65.6190   70.1440 C   0  0  0  0  0  0  0  0  0  0  0  0
    1.1740   66.7970   69.5760 C   0  0  0  0  0  0  0  0  0  0  0  0
    0.6020   67.4690   68.3210 C   0  0  0  0  0  0  0  0  0  0  0  0
    1.5350   67.5460   67.1100 C   0  0  0  0  0  0  0  0  0  0  0  0
    1.5260   68.8900   66.5170 N   0  0  0  0  0  0  0  0  0  0  0  0
    2.8660   69.3110   66.1920 C   0  0  0  0  0  0  0  0  0  0  0  0
    3.7170   69.8370   67.1930 C   0  0  0  0  0  0  0  0  0  0  0  0
    3.2490   70.0670   68.6120 C   0  0  0  0  0  0  0  0  0  0  0  0
    4.1890   70.9260   69.4570 C   0  0  0  0  0  0  0  0  0  0  0  0
    5.6280   70.4750   69.2750 C   0  0  0  0  0  0  0  0  0  0  0  0
    6.0410   70.6550   67.8190 C   0  0  0  0  0  0  0  0  0  0  0  0
    5.0480   70.0800   66.8430 C   0  0  0  0  0  0  0  0  0  0  0  0
    5.5380   69.8600   65.6010 N   0  0  0  0  0  0  0  0  0  0  0  0
    4.7260   69.3870   64.6470 C   0  0  0  0  0  0  0  0  0  0  0  0
    3.3700   69.0920   64.8810 C   0  0  0  0  0  0  0  0  0  0  0  0
    2.5880   68.6200   63.8000 C   0  0  0  0  0  0  0  0  0  0  0  0
    3.1370   68.4240   62.5330 C   0  0  0  0  0  0  0  0  0  0  0  0
    4.4790   68.7010   62.3240 C   0  0  0  0  0  0  0  0  0  0  0  0
    5.2560   69.1820   63.3800 C   0  0  0  0  0  0  0  0  0  0  0  0
    1.4194   65.2141   71.8721 H   0  0  0  0  0  0  0  0  0  0  0  0
    2.7711   65.1544   69.5651 H   0  0  0  0  0  0  0  0  0  0  0  0
    3.3594   64.4645   71.1324 H   0  0  0  0  0  0  0  0  0  0  0  0
    3.4114   61.6396   68.3799 H   0  0  0  0  0  0  0  0  0  0  0  0
    4.1729   63.3859   68.3580 H   0  0  0  0  0  0  0  0  0  0  0  0
    1.9079   62.2952   70.1374 H   0  0  0  0  0  0  0  0  0  0  0  0
   -0.3927   63.3164   70.7723 H   0  0  0  0  0  0  0  0  0  0  0  0
    1.1943   62.5616   71.1849 H   0  0  0  0  0  0  0  0  0  0  0  0
    1.0104   63.7655   73.4418 H   0  0  0  0  0  0  0  0  0  0  0  0
   -0.7105   64.0910   72.9954 H   0  0  0  0  0  0  0  0  0  0  0  0
   -1.2086   62.0599   73.8575 H   0  0  0  0  0  0  0  0  0  0  0  0
   -0.3553   61.3402   72.4655 H   0  0  0  0  0  0  0  0  0  0  0  0
    1.0847   62.0080   75.0974 H   0  0  0  0  0  0  0  0  0  0  0  0
    2.8523   62.3177   72.1874 H   0  0  0  0  0  0  0  0  0  0  0  0
    3.3658   62.1631   73.9373 H   0  0  0  0  0  0  0  0  0  0  0  0
    5.2209   62.5184   72.2124 H   0  0  0  0  0  0  0  0  0  0  0  0
    5.3988   61.1502   73.3740 H   0  0  0  0  0  0  0  0  0  0  0  0
    4.3318   60.9226   70.5177 H   0  0  0  0  0  0  0  0  0  0  0  0
    5.9945   60.4904   71.0520 H   0  0  0  0  0  0  0  0  0  0  0  0
    4.3521   58.5540   70.8947 H   0  0  0  0  0  0  0  0  0  0  0  0
    5.1810   58.7853   72.5046 H   0  0  0  0  0  0  0  0  0  0  0  0
   -1.0528   59.7470   74.9529 H   0  0  0  0  0  0  0  0  0  0  0  0
   -2.1407   57.5106   75.0305 H   0  0  0  0  0  0  0  0  0  0  0  0
   -1.0335   55.5600   73.9405 H   0  0  0  0  0  0  0  0  0  0  0  0
    1.1478   55.8599   72.7947 H   0  0  0  0  0  0  0  0  0  0  0  0
   -0.0305   65.0373   69.3080 H   0  0  0  0  0  0  0  0  0  0  0  0
   -0.4082   66.0281   70.7871 H   0  0  0  0  0  0  0  0  0  0  0  0
    1.2417   67.5629   70.3626 H   0  0  0  0  0  0  0  0  0  0  0  0
    2.1395   66.3735   69.2623 H   0  0  0  0  0  0  0  0  0  0  0  0
   -0.2943   66.9075   68.0188 H   0  0  0  0  0  0  0  0  0  0  0  0
    0.4073   68.5126   68.6091 H   0  0  0  0  0  0  0  0  0  0  0  0
    2.5588   67.3017   67.4297 H   0  0  0  0  0  0  0  0  0  0  0  0
    1.1835   66.8291   66.3534 H   0  0  0  0  0  0  0  0  0  0  0  0
    0.6792   69.4538   66.3557 H   0  0  0  0  0  0  0  0  0  0  0  0
    2.2689   70.5651   68.5743 H   0  0  0  0  0  0  0  0  0  0  0  0
    3.2104   69.0786   69.0932 H   0  0  0  0  0  0  0  0  0  0  0  0
    4.0968   71.9771   69.1461 H   0  0  0  0  0  0  0  0  0  0  0  0
    3.9135   70.8189   70.5165 H   0  0  0  0  0  0  0  0  0  0  0  0
    6.2848   71.0784   69.9189 H   0  0  0  0  0  0  0  0  0  0  0  0
    5.7154   69.4137   69.5505 H   0  0  0  0  0  0  0  0  0  0  0  0
    6.1468   71.7310   67.6165 H   0  0  0  0  0  0  0  0  0  0  0  0
    6.9874   70.1121   67.6791 H   0  0  0  0  0  0  0  0  0  0  0  0
    1.5221   68.4026   63.9629 H   0  0  0  0  0  0  0  0  0  0  0  0
    2.5113   68.0533   61.7078 H   0  0  0  0  0  0  0  0  0  0  0  0
    4.9290   68.5430   61.3328 H   0  0  0  0  0  0  0  0  0  0  0  0
    6.3185   69.4049   63.2030 H   0  0  0  0  0  0  0  0  0  0  0  0
  2  1  1  0
  4  3  2  3
  4  2  1  0
  5  1  1  0
  6  5  1  0
  7  6  1  0
  8  7  1  0
  9  8  1  0
 10  9  1  0
 11 10  1  0
 12 11  1  0
 13 12  1  0
 14 13  1  0
 15 14  1  0
 15 10  2  0
 16 15  1  0
 17 16  2  0
 18  9  2  0
 18 17  1  0
 19 18  1  0
 20 19  2  0
 21 20  1  0
 22 17  1  0
 22 21  2  0
 23  1  1  0
 24 23  1  0
 25 24  1  0
 26 25  1  0
 27 26  1  0
 28 27  1  0
 29 28  1  0
 30 29  1  0
 31 30  1  0
 32 31  1  0
 33 32  1  0
 34 33  1  0
 34 29  2  0
 35 34  1  0
 36 35  2  0
 37 36  1  0
 37 28  2  0
 38 37  1  0
 39 38  2  0
 40 39  1  0
 41 36  1  0
 41 40  2  0
  1 42  1  1
  2 43  1  0
  2 44  1  0
  3 45  1  0
  3 46  1  0
  4 47  1  0
  5 48  1  0
  5 49  1  0
  6 50  1  0
  6 51  1  0
  7 52  1  0
  7 53  1  0
  8 54  1  0
 11 55  1  0
 11 56  1  0
 12 57  1  0
 12 58  1  0
 13 59  1  0
 13 60  1  0
 14 61  1  0
 14 62  1  0
 19 63  1  0
 20 64  1  0
 21 65  1  0
 22 66  1  0
 23 67  1  0
 23 68  1  0
 24 69  1  0
 24 70  1  0
 25 71  1  0
 25 72  1  0
 26 73  1  0
 26 74  1  0
 27 75  1  0
 30 76  1  0
 30 77  1  0
 31 78  1  0
 31 79  1  0
 32 80  1  0
 32 81  1  0
 33 82  1  0
 33 83  1  0
 38 84  1  0
 39 85  1  0
 40 86  1  0
 41 87  1  0
M  CHG  1   1   1
M  END
>  <score>  (5) 
-11.797

$$$$
=
     RDKit          3D

 87 92  0  0  0  0  0  0  0  0999 V2000
   -1.1680   67.4090   68.0580 N   0  0  2  0  0  4  0  0  0  0  0  0
   -2.3830   67.0660   67.2180 C   0  0  0  0  0  0  0  0  0  0  0  0
   -3.1450   68.8430   65.6180 C   0  0  0  0  0  0  0  0  0  0  0  0
   -3.1500   68.2930   66.8400 C   0  0  0  0  0  0  0  0  0  0  0  0
   -0.0940   68.0950   67.2200 C   0  0  0  0  0  0  0  0  0  0  0  0
    0.0630   69.5520   67.6370 C   0  0  0  0  0  0  0  0  0  0  0  0
    1.5400   69.9260   67.7700 C   0  0  0  0  0  0  0  0  0  0  0  0
    2.3340   68.8190   67.2320 N   0  0  0  0  0  0  0  0  0  0  0  0
    3.5210   69.3030   66.5930 C   0  0  0  0  0  0  0  0  0  0  0  0
    3.6680   69.0840   65.2080 C   0  0  0  0  0  0  0  0  0  0  0  0
    2.5730   68.4360   64.3970 C   0  0  0  0  0  0  0  0  0  0  0  0
    2.7370   68.6050   62.8870 C   0  0  0  0  0  0  0  0  0  0  0  0
    4.1710   68.3090   62.4710 C   0  0  0  0  0  0  0  0  0  0  0  0
    5.1190   69.3000   63.1380 C   0  0  0  0  0  0  0  0  0  0  0  0
    4.8760   69.4550   64.6180 C   0  0  0  0  0  0  0  0  0  0  0  0
    5.8890   70.0210   65.3110 N   0  0  0  0  0  0  0  0  0  0  0  0
    5.7470   70.2410   66.6240 C   0  0  0  0  0  0  0  0  0  0  0  0
    4.5800   69.8990   67.3370 C   0  0  0  0  0  0  0  0  0  0  0  0
    4.5400   70.1680   68.7300 C   0  0  0  0  0  0  0  0  0  0  0  0
    5.6190   70.7580   69.3890 C   0  0  0  0  0  0  0  0  0  0  0  0
    6.7580   71.0880   68.6710 C   0  0  0  0  0  0  0  0  0  0  0  0
    6.8080   70.8260   67.3020 C   0  0  0  0  0  0  0  0  0  0  0  0
   -0.6380   66.2050   68.8150 C   0  0  0  0  0  0  0  0  0  0  0  0
    0.5370   66.5550   69.7260 C   0  0  0  0  0  0  0  0  0  0  0  0
    1.3870   65.3840   70.2370 C   0  0  0  0  0  0  0  0  0  0  0  0
    0.6180   64.1600   70.7420 C   0  0  0  0  0  0  0  0  0  0  0  0
    1.0330   63.7990   72.1040 N   0  0  0  0  0  0  0  0  0  0  0  0
    1.3620   62.3970   72.1790 C   0  0  0  0  0  0  0  0  0  0  0  0
    2.6430   61.9380   71.7900 C   0  0  0  0  0  0  0  0  0  0  0  0
    3.6880   62.8600   71.2040 C   0  0  0  0  0  0  0  0  0  0  0  0
    4.8730   62.1430   70.5570 C   0  0  0  0  0  0  0  0  0  0  0  0
    5.3730   61.0260   71.4560 C   0  0  0  0  0  0  0  0  0  0  0  0
    4.2720   59.9900   71.6480 C   0  0  0  0  0  0  0  0  0  0  0  0
    2.9460   60.5950   72.0330 C   0  0  0  0  0  0  0  0  0  0  0  0
    2.0690   59.7280   72.5890 N   0  0  0  0  0  0  0  0  0  0  0  0
    0.8480   60.1560   72.9320 C   0  0  0  0  0  0  0  0  0  0  0  0
    0.4300   61.4880   72.7490 C   0  0  0  0  0  0  0  0  0  0  0  0
   -0.8910   61.8360   73.1190 C   0  0  0  0  0  0  0  0  0  0  0  0
   -1.7630   60.9010   73.6760 C   0  0  0  0  0  0  0  0  0  0  0  0
   -1.3300   59.5980   73.8670 C   0  0  0  0  0  0  0  0  0  0  0  0
   -0.0340   59.2400   73.4900 C   0  0  0  0  0  0  0  0  0  0  0  0
   -1.4671   68.0849   68.7753 H   0  0  0  0  0  0  0  0  0  0  0  0
   -2.0519   66.5547   66.3020 H   0  0  0  0  0  0  0  0  0  0  0  0
   -3.0418   66.4156   67.8121 H   0  0  0  0  0  0  0  0  0  0  0  0
   -3.7376   69.7483   65.4199 H   0  0  0  0  0  0  0  0  0  0  0  0
   -2.5482   68.3892   64.8130 H   0  0  0  0  0  0  0  0  0  0  0  0
   -3.7594   68.7767   67.6176 H   0  0  0  0  0  0  0  0  0  0  0  0
    0.8638   67.5731   67.3624 H   0  0  0  0  0  0  0  0  0  0  0  0
   -0.3934   68.0594   66.1621 H   0  0  0  0  0  0  0  0  0  0  0  0
   -0.4046   70.1962   66.8778 H   0  0  0  0  0  0  0  0  0  0  0  0
   -0.4242   69.6924   68.6132 H   0  0  0  0  0  0  0  0  0  0  0  0
    1.7458   70.8447   67.2012 H   0  0  0  0  0  0  0  0  0  0  0  0
    1.7968   70.1052   68.8245 H   0  0  0  0  0  0  0  0  0  0  0  0
    2.0735   67.8251   67.3036 H   0  0  0  0  0  0  0  0  0  0  0  0
    2.5631   67.3601   64.6259 H   0  0  0  0  0  0  0  0  0  0  0  0
    1.6329   68.9357   64.6736 H   0  0  0  0  0  0  0  0  0  0  0  0
    2.0590   67.9107   62.3691 H   0  0  0  0  0  0  0  0  0  0  0  0
    2.4948   69.6433   62.6164 H   0  0  0  0  0  0  0  0  0  0  0  0
    4.4365   67.2867   62.7783 H   0  0  0  0  0  0  0  0  0  0  0  0
    4.2583   68.4029   61.3785 H   0  0  0  0  0  0  0  0  0  0  0  0
    6.1512   68.9503   62.9885 H   0  0  0  0  0  0  0  0  0  0  0  0
    4.9424   70.2818   62.6745 H   0  0  0  0  0  0  0  0  0  0  0  0
    3.6383   69.9055   69.3028 H   0  0  0  0  0  0  0  0  0  0  0  0
    5.5664   70.9596   70.4691 H   0  0  0  0  0  0  0  0  0  0  0  0
    7.6165   71.5533   69.1775 H   0  0  0  0  0  0  0  0  0  0  0  0
    7.7167   71.0912   66.7418 H   0  0  0  0  0  0  0  0  0  0  0  0
   -1.4499   65.7905   69.4306 H   0  0  0  0  0  0  0  0  0  0  0  0
   -0.2791   65.4764   68.0732 H   0  0  0  0  0  0  0  0  0  0  0  0
    1.2018   67.2304   69.1675 H   0  0  0  0  0  0  0  0  0  0  0  0
    0.0832   66.9963   70.6256 H   0  0  0  0  0  0  0  0  0  0  0  0
    2.0362   65.0555   69.4120 H   0  0  0  0  0  0  0  0  0  0  0  0
    1.9283   65.7731   71.1120 H   0  0  0  0  0  0  0  0  0  0  0  0
   -0.4583   64.3872   70.7428 H   0  0  0  0  0  0  0  0  0  0  0  0
    0.8340   63.3124   70.0750 H   0  0  0  0  0  0  0  0  0  0  0  0
    1.0822   64.4561   72.8956 H   0  0  0  0  0  0  0  0  0  0  0  0
    3.2047   63.4850   70.4386 H   0  0  0  0  0  0  0  0  0  0  0  0
    4.0951   63.4450   72.0419 H   0  0  0  0  0  0  0  0  0  0  0  0
    4.5567   61.7179   69.5930 H   0  0  0  0  0  0  0  0  0  0  0  0
    5.6865   62.8672   70.4029 H   0  0  0  0  0  0  0  0  0  0  0  0
    6.2485   60.5477   70.9925 H   0  0  0  0  0  0  0  0  0  0  0  0
    5.6549   61.4437   72.4338 H   0  0  0  0  0  0  0  0  0  0  0  0
    4.1436   59.4379   70.7053 H   0  0  0  0  0  0  0  0  0  0  0  0
    4.5828   59.3328   72.4735 H   0  0  0  0  0  0  0  0  0  0  0  0
   -1.2381   62.8682   72.9636 H   0  0  0  0  0  0  0  0  0  0  0  0
   -2.7841   61.1945   73.9609 H   0  0  0  0  0  0  0  0  0  0  0  0
   -2.0031   58.8508   74.3127 H   0  0  0  0  0  0  0  0  0  0  0  0
    0.2980   58.2020   73.6394 H   0  0  0  0  0  0  0  0  0  0  0  0
  2  1  1  0
  4  3  2  3
  4  2  1  0
  5  1  1  0
  6  5  1  0
  7  6  1  0
  8  7  1  0
  9  8  1  0
 10  9  1  0
 11 10  1  0
 12 11  1  0
 13 12  1  0
 14 13  1  0
 15 14  1  0
 15 10  2  0
 16 15  1  0
 17 16  2  0
 18  9  2  0
 18 17  1  0
 19 18  1  0
 20 19  2  0
 21 20  1  0
 22 17  1  0
 22 21  2  0
 23  1  1  0
 24 23  1  0
 25 24  1  0
 26 25  1  0
 27 26  1  0
 28 27  1  0
 29 28  1  0
 30 29  1  0
 31 30  1  0
 32 31  1  0
 33 32  1  0
 34 33  1  0
 34 29  2  0
 35 34  1  0
 36 35  2  0
 37 36  1  0
 37 28  2  0
 38 37  1  0
 39 38  2  0
 40 39  1  0
 41 36  1  0
 41 40  2  0
  1 42  1  1
  2 43  1  0
  2 44  1  0
  3 45  1  0
  3 46  1  0
  4 47  1  0
  5 48  1  0
  5 49  1  0
  6 50  1  0
  6 51  1  0
  7 52  1  0
  7 53  1  0
  8 54  1  0
 11 55  1  0
 11 56  1  0
 12 57  1  0
 12 58  1  0
 13 59  1  0
 13 60  1  0
 14 61  1  0
 14 62  1  0
 19 63  1  0
 20 64  1  0
 21 65  1  0
 22 66  1  0
 23 67  1  0
 23 68  1  0
 24 69  1  0
 24 70  1  0
 25 71  1  0
 25 72  1  0
 26 73  1  0
 26 74  1  0
 27 75  1  0
 30 76  1  0
 30 77  1  0
 31 78  1  0
 31 79  1  0
 32 80  1  0
 32 81  1  0
 33 82  1  0
 33 83  1  0
 38 84  1  0
 39 85  1  0
 40 86  1  0
 41 87  1  0
M  CHG  1   1   1
M  END
>  <score>  (6) 
-11.768

$$$$
=
     RDKit          3D

 87 92  0  0  0  0  0  0  0  0999 V2000
    1.3250   65.0680   69.8710 N   0  0  2  0  0  4  0  0  0  0  0  0
    2.6040   64.4210   70.3660 C   0  0  0  0  0  0  0  0  0  0  0  0
    2.6960   62.1990   69.2040 C   0  0  0  0  0  0  0  0  0  0  0  0
    3.1470   63.4500   69.3670 C   0  0  0  0  0  0  0  0  0  0  0  0
    1.4310   66.5890   69.8950 C   0  0  0  0  0  0  0  0  0  0  0  0
    0.6400   67.2010   68.7450 C   0  0  0  0  0  0  0  0  0  0  0  0
    1.5450   67.4720   67.5420 C   0  0  0  0  0  0  0  0  0  0  0  0
    1.6120   68.9220   67.3490 N   0  0  0  0  0  0  0  0  0  0  0  0
    2.8440   69.3000   66.7250 C   0  0  0  0  0  0  0  0  0  0  0  0
    3.0020   69.0380   65.3490 C   0  0  0  0  0  0  0  0  0  0  0  0
    1.8760   68.4570   64.5280 C   0  0  0  0  0  0  0  0  0  0  0  0
    2.0820   68.5790   63.0190 C   0  0  0  0  0  0  0  0  0  0  0  0
    3.4970   68.1660   62.6410 C   0  0  0  0  0  0  0  0  0  0  0  0
    4.5040   69.0970   63.3060 C   0  0  0  0  0  0  0  0  0  0  0  0
    4.2460   69.3030   64.7770 C   0  0  0  0  0  0  0  0  0  0  0  0
    5.2850   69.8060   65.4790 N   0  0  0  0  0  0  0  0  0  0  0  0
    5.1340   70.0660   66.7840 C   0  0  0  0  0  0  0  0  0  0  0  0
    3.9310   69.8300   67.4790 C   0  0  0  0  0  0  0  0  0  0  0  0
    3.8840   70.1330   68.8650 C   0  0  0  0  0  0  0  0  0  0  0  0
    4.9920   70.6540   69.5340 C   0  0  0  0  0  0  0  0  0  0  0  0
    6.1670   70.8790   68.8340 C   0  0  0  0  0  0  0  0  0  0  0  0
    6.2240   70.5840   67.4720 C   0  0  0  0  0  0  0  0  0  0  0  0
    0.1020   64.5560   70.6110 C   0  0  0  0  0  0  0  0  0  0  0  0
    0.4580   63.8750   71.9310 C   0  0  0  0  0  0  0  0  0  0  0  0
    0.0920   62.3900   72.0610 C   0  0  0  0  0  0  0  0  0  0  0  0
   -0.2910   61.9080   73.4630 C   0  0  0  0  0  0  0  0  0  0  0  0
    0.9010   61.5860   74.2570 N   0  0  0  0  0  0  0  0  0  0  0  0
    1.5700   60.4270   73.7210 C   0  0  0  0  0  0  0  0  0  0  0  0
    0.9660   59.1490   73.7960 C   0  0  0  0  0  0  0  0  0  0  0  0
   -0.3480   58.9180   74.5060 C   0  0  0  0  0  0  0  0  0  0  0  0
   -0.6810   57.4480   74.7590 C   0  0  0  0  0  0  0  0  0  0  0  0
   -0.4230   56.6230   73.5090 C   0  0  0  0  0  0  0  0  0  0  0  0
    1.0550   56.6930   73.1450 C   0  0  0  0  0  0  0  0  0  0  0  0
    1.5960   58.1000   73.1220 C   0  0  0  0  0  0  0  0  0  0  0  0
    2.7530   58.2490   72.4380 N   0  0  0  0  0  0  0  0  0  0  0  0
    3.3390   59.4520   72.3900 C   0  0  0  0  0  0  0  0  0  0  0  0
    2.7950   60.5880   73.0160 C   0  0  0  0  0  0  0  0  0  0  0  0
    3.5030   61.8100   72.9300 C   0  0  0  0  0  0  0  0  0  0  0  0
    4.7010   61.9090   72.2230 C   0  0  0  0  0  0  0  0  0  0  0  0
    5.2150   60.7860   71.5950 C   0  0  0  0  0  0  0  0  0  0  0  0
    4.5320   59.5710   71.6880 C   0  0  0  0  0  0  0  0  0  0  0  0
    1.1975   64.7910   68.8872 H   0  0  0  0  0  0  0  0  0  0  0  0
    3.3543   65.2046   70.5476 H   0  0  0  0  0  0  0  0  0  0  0  0
    2.3784   63.8737   71.2931 H   0  0  0  0  0  0  0  0  0  0  0  0
    3.1501   61.5452   68.4449 H   0  0  0  0  0  0  0  0  0  0  0  0
    1.8716   61.8257   69.8293 H   0  0  0  0  0  0  0  0  0  0  0  0
    3.9727   63.7855   68.7222 H   0  0  0  0  0  0  0  0  0  0  0  0
    1.0310   66.9641   70.8486 H   0  0  0  0  0  0  0  0  0  0  0  0
    2.4885   66.8721   69.7877 H   0  0  0  0  0  0  0  0  0  0  0  0
   -0.1574   66.5048   68.4460 H   0  0  0  0  0  0  0  0  0  0  0  0
    0.2105   68.1555   69.0832 H   0  0  0  0  0  0  0  0  0  0  0  0
    2.5520   67.0733   67.7341 H   0  0  0  0  0  0  0  0  0  0  0  0
    1.1439   66.9830   66.6420 H   0  0  0  0  0  0  0  0  0  0  0  0
    0.8713   69.5822   67.6254 H   0  0  0  0  0  0  0  0  0  0  0  0
    1.7791   67.3904   64.7790 H   0  0  0  0  0  0  0  0  0  0  0  0
    0.9718   69.0331   64.7740 H   0  0  0  0  0  0  0  0  0  0  0  0
    1.3636   67.9264   62.5013 H   0  0  0  0  0  0  0  0  0  0  0  0
    1.9247   69.6262   62.7212 H   0  0  0  0  0  0  0  0  0  0  0  0
    3.6776   67.1340   62.9762 H   0  0  0  0  0  0  0  0  0  0  0  0
    3.6128   68.2277   61.5489 H   0  0  0  0  0  0  0  0  0  0  0  0
    5.5094   68.6674   63.1848 H   0  0  0  0  0  0  0  0  0  0  0  0
    4.4107   70.0787   62.8186 H   0  0  0  0  0  0  0  0  0  0  0  0
    2.9537   69.9531   69.4238 H   0  0  0  0  0  0  0  0  0  0  0  0
    4.9336   70.8843   70.6080 H   0  0  0  0  0  0  0  0  0  0  0  0
    7.0488   71.2876   69.3493 H   0  0  0  0  0  0  0  0  0  0  0  0
    7.1610   70.7672   66.9257 H   0  0  0  0  0  0  0  0  0  0  0  0
   -0.5642   65.4057   70.8211 H   0  0  0  0  0  0  0  0  0  0  0  0
   -0.3864   63.8071   69.9703 H   0  0  0  0  0  0  0  0  0  0  0  0
    1.5457   63.9636   72.0691 H   0  0  0  0  0  0  0  0  0  0  0  0
   -0.1452   64.3893   72.6936 H   0  0  0  0  0  0  0  0  0  0  0  0
   -0.7611   62.1951   71.3945 H   0  0  0  0  0  0  0  0  0  0  0  0
    1.0066   61.8376   71.7996 H   0  0  0  0  0  0  0  0  0  0  0  0
   -0.8583   62.7008   73.9726 H   0  0  0  0  0  0  0  0  0  0  0  0
   -0.9005   60.9976   73.3643 H   0  0  0  0  0  0  0  0  0  0  0  0
    1.2158   62.1150   75.0828 H   0  0  0  0  0  0  0  0  0  0  0  0
   -0.3094   59.4337   75.4769 H   0  0  0  0  0  0  0  0  0  0  0  0
   -1.1348   59.3078   73.8434 H   0  0  0  0  0  0  0  0  0  0  0  0
   -0.0524   57.0700   75.5788 H   0  0  0  0  0  0  0  0  0  0  0  0
   -1.7443   57.3645   75.0282 H   0  0  0  0  0  0  0  0  0  0  0  0
   -0.7044   55.5763   73.6969 H   0  0  0  0  0  0  0  0  0  0  0  0
   -1.0227   57.0226   72.6779 H   0  0  0  0  0  0  0  0  0  0  0  0
    1.6249   56.1115   73.8847 H   0  0  0  0  0  0  0  0  0  0  0  0
    1.1605   56.2860   72.1285 H   0  0  0  0  0  0  0  0  0  0  0  0
    3.0995   62.7018   73.4320 H   0  0  0  0  0  0  0  0  0  0  0  0
    5.2331   62.8700   72.1644 H   0  0  0  0  0  0  0  0  0  0  0  0
    6.1547   60.8508   71.0269 H   0  0  0  0  0  0  0  0  0  0  0  0
    4.9506   58.6833   71.1913 H   0  0  0  0  0  0  0  0  0  0  0  0
  2  1  1  0
  4  3  2  3
  4  2  1  0
  5  1  1  0
  6  5  1  0
  7  6  1  0
  8  7  1  0
  9  8  1  0
 10  9  1  0
 11 10  1  0
 12 11  1  0
 13 12  1  0
 14 13  1  0
 15 14  1  0
 15 10  2  0
 16 15  1  0
 17 16  2  0
 18  9  2  0
 18 17  1  0
 19 18  1  0
 20 19  2  0
 21 20  1  0
 22 17  1  0
 22 21  2  0
 23  1  1  0
 24 23  1  0
 25 24  1  0
 26 25  1  0
 27 26  1  0
 28 27  1  0
 29 28  1  0
 30 29  1  0
 31 30  1  0
 32 31  1  0
 33 32  1  0
 34 33  1  0
 34 29  2  0
 35 34  1  0
 36 35  2  0
 37 36  1  0
 37 28  2  0
 38 37  1  0
 39 38  2  0
 40 39  1  0
 41 36  1  0
 41 40  2  0
  1 42  1  6
  2 43  1  0
  2 44  1  0
  3 45  1  0
  3 46  1  0
  4 47  1  0
  5 48  1  0
  5 49  1  0
  6 50  1  0
  6 51  1  0
  7 52  1  0
  7 53  1  0
  8 54  1  0
 11 55  1  0
 11 56  1  0
 12 57  1  0
 12 58  1  0
 13 59  1  0
 13 60  1  0
 14 61  1  0
 14 62  1  0
 19 63  1  0
 20 64  1  0
 21 65  1  0
 22 66  1  0
 23 67  1  0
 23 68  1  0
 24 69  1  0
 24 70  1  0
 25 71  1  0
 25 72  1  0
 26 73  1  0
 26 74  1  0
 27 75  1  0
 30 76  1  0
 30 77  1  0
 31 78  1  0
 31 79  1  0
 32 80  1  0
 32 81  1  0
 33 82  1  0
 33 83  1  0
 38 84  1  0
 39 85  1  0
 40 86  1  0
 41 87  1  0
M  CHG  1   1   1
M  END
>  <score>  (7) 
-11.702

$$$$
=
     RDKit          3D

 87 92  0  0  0  0  0  0  0  0999 V2000
   -0.8600   67.3580   67.8900 N   0  0  2  0  0  4  0  0  0  0  0  0
   -2.2250   67.8420   67.4390 C   0  0  0  0  0  0  0  0  0  0  0  0
   -3.0840   68.9660   65.3660 C   0  0  0  0  0  0  0  0  0  0  0  0
   -2.1180   68.7740   66.2750 C   0  0  0  0  0  0  0  0  0  0  0  0
    0.0790   67.1740   66.7020 C   0  0  0  0  0  0  0  0  0  0  0  0
    1.5330   67.2070   67.1570 C   0  0  0  0  0  0  0  0  0  0  0  0
    1.8120   68.4480   68.0070 C   0  0  0  0  0  0  0  0  0  0  0  0
    1.9670   69.5870   67.1000 N   0  0  0  0  0  0  0  0  0  0  0  0
    3.2640   69.5880   66.4940 C   0  0  0  0  0  0  0  0  0  0  0  0
    4.3560   70.0480   67.2580 C   0  0  0  0  0  0  0  0  0  0  0  0
    4.1870   70.4480   68.7030 C   0  0  0  0  0  0  0  0  0  0  0  0
    5.5030   70.5670   69.4710 C   0  0  0  0  0  0  0  0  0  0  0  0
    6.5270   71.3420   68.6550 C   0  0  0  0  0  0  0  0  0  0  0  0
    6.8310   70.5950   67.3610 C   0  0  0  0  0  0  0  0  0  0  0  0
    5.5930   70.1530   66.6230 C   0  0  0  0  0  0  0  0  0  0  0  0
    5.7840   69.8230   65.3260 N   0  0  0  0  0  0  0  0  0  0  0  0
    4.7510   69.3740   64.6020 C   0  0  0  0  0  0  0  0  0  0  0  0
    3.4500   69.2350   65.1260 C   0  0  0  0  0  0  0  0  0  0  0  0
    2.4250   68.7600   64.2660 C   0  0  0  0  0  0  0  0  0  0  0  0
    2.6860   68.4320   62.9350 C   0  0  0  0  0  0  0  0  0  0  0  0
    3.9720   68.5750   62.4370 C   0  0  0  0  0  0  0  0  0  0  0  0
    4.9860   69.0430   63.2730 C   0  0  0  0  0  0  0  0  0  0  0  0
   -0.9520   66.1180   68.7590 C   0  0  0  0  0  0  0  0  0  0  0  0
   -0.1600   66.2520   70.0590 C   0  0  0  0  0  0  0  0  0  0  0  0
    0.9840   65.2530   70.2760 C   0  0  0  0  0  0  0  0  0  0  0  0
    0.5740   63.8270   70.6500 C   0  0  0  0  0  0  0  0  0  0  0  0
    0.9460   63.5140   72.0360 N   0  0  0  0  0  0  0  0  0  0  0  0
    1.3610   62.1380   72.1520 C   0  0  0  0  0  0  0  0  0  0  0  0
    2.6660   61.7450   71.7720 C   0  0  0  0  0  0  0  0  0  0  0  0
    3.6510   62.7100   71.1530 C   0  0  0  0  0  0  0  0  0  0  0  0
    4.8760   62.0470   70.5230 C   0  0  0  0  0  0  0  0  0  0  0  0
    5.4450   60.9900   71.4540 C   0  0  0  0  0  0  0  0  0  0  0  0
    4.4090   59.8960   71.6820 C   0  0  0  0  0  0  0  0  0  0  0  0
    3.0500   60.4320   72.0540 C   0  0  0  0  0  0  0  0  0  0  0  0
    2.2290   59.5300   72.6400 N   0  0  0  0  0  0  0  0  0  0  0  0
    0.9850   59.8940   72.9750 C   0  0  0  0  0  0  0  0  0  0  0  0
    0.4860   61.1920   72.7540 C   0  0  0  0  0  0  0  0  0  0  0  0
   -0.8520   61.4710   73.1190 C   0  0  0  0  0  0  0  0  0  0  0  0
   -1.6640   60.5020   73.7090 C   0  0  0  0  0  0  0  0  0  0  0  0
   -1.1530   59.2340   73.9370 C   0  0  0  0  0  0  0  0  0  0  0  0
    0.1620   58.9440   73.5660 C   0  0  0  0  0  0  0  0  0  0  0  0
   -0.4512   68.0915   68.4864 H   0  0  0  0  0  0  0  0  0  0  0  0
   -2.8338   66.9736   67.1470 H   0  0  0  0  0  0  0  0  0  0  0  0
   -2.6924   68.3844   68.2740 H   0  0  0  0  0  0  0  0  0  0  0  0
   -2.9266   69.6714   64.5368 H   0  0  0  0  0  0  0  0  0  0  0  0
   -4.0342   68.4182   65.4492 H   0  0  0  0  0  0  0  0  0  0  0  0
   -1.1827   69.3408   66.1565 H   0  0  0  0  0  0  0  0  0  0  0  0
   -0.1283   66.2052   66.2241 H   0  0  0  0  0  0  0  0  0  0  0  0
   -0.0877   67.9941   65.9881 H   0  0  0  0  0  0  0  0  0  0  0  0
    1.7440   66.3072   67.7535 H   0  0  0  0  0  0  0  0  0  0  0  0
    2.1787   67.2387   66.2670 H   0  0  0  0  0  0  0  0  0  0  0  0
    0.9714   68.6280   68.6933 H   0  0  0  0  0  0  0  0  0  0  0  0
    2.7243   68.3065   68.6051 H   0  0  0  0  0  0  0  0  0  0  0  0
    1.2393   70.2938   66.9216 H   0  0  0  0  0  0  0  0  0  0  0  0
    3.6779   71.4226   68.7353 H   0  0  0  0  0  0  0  0  0  0  0  0
    3.6050   69.6510   69.1888 H   0  0  0  0  0  0  0  0  0  0  0  0
    5.3223   71.0936   70.4197 H   0  0  0  0  0  0  0  0  0  0  0  0
    5.8937   69.5575   69.6666 H   0  0  0  0  0  0  0  0  0  0  0  0
    6.1251   72.3376   68.4158 H   0  0  0  0  0  0  0  0  0  0  0  0
    7.4529   71.4459   69.2397 H   0  0  0  0  0  0  0  0  0  0  0  0
    7.4116   71.2583   66.7030 H   0  0  0  0  0  0  0  0  0  0  0  0
    7.3902   69.6874   67.6323 H   0  0  0  0  0  0  0  0  0  0  0  0
    1.4031   68.6481   64.6574 H   0  0  0  0  0  0  0  0  0  0  0  0
    1.8780   68.0630   62.2862 H   0  0  0  0  0  0  0  0  0  0  0  0
    4.1913   68.3211   61.3894 H   0  0  0  0  0  0  0  0  0  0  0  0
    6.0027   69.1534   62.8678 H   0  0  0  0  0  0  0  0  0  0  0  0
   -2.0086   65.9390   69.0069 H   0  0  0  0  0  0  0  0  0  0  0  0
   -0.5213   65.2802   68.1911 H   0  0  0  0  0  0  0  0  0  0  0  0
    0.2718   67.2634   70.0833 H   0  0  0  0  0  0  0  0  0  0  0  0
   -0.8832   66.0413   70.8606 H   0  0  0  0  0  0  0  0  0  0  0  0
    1.5658   65.2014   69.3439 H   0  0  0  0  0  0  0  0  0  0  0  0
    1.5471   65.6337   71.1408 H   0  0  0  0  0  0  0  0  0  0  0  0
   -0.5158   63.7262   70.5394 H   0  0  0  0  0  0  0  0  0  0  0  0
    1.0978   63.1273   69.9821 H   0  0  0  0  0  0  0  0  0  0  0  0
    0.9147   64.1847   72.8171 H   0  0  0  0  0  0  0  0  0  0  0  0
    3.1284   63.2802   70.3709 H   0  0  0  0  0  0  0  0  0  0  0  0
    4.0239   63.3445   71.9706 H   0  0  0  0  0  0  0  0  0  0  0  0
    4.5840   61.5743   69.5737 H   0  0  0  0  0  0  0  0  0  0  0  0
    5.6436   62.8142   70.3435 H   0  0  0  0  0  0  0  0  0  0  0  0
    6.3467   60.5514   71.0017 H   0  0  0  0  0  0  0  0  0  0  0  0
    5.7036   61.4537   72.4174 H   0  0  0  0  0  0  0  0  0  0  0  0
    4.3118   59.3086   70.7571 H   0  0  0  0  0  0  0  0  0  0  0  0
    4.7607   59.2840   72.5257 H   0  0  0  0  0  0  0  0  0  0  0  0
   -1.2615   62.4749   72.9334 H   0  0  0  0  0  0  0  0  0  0  0  0
   -2.6999   60.7421   73.9905 H   0  0  0  0  0  0  0  0  0  0  0  0
   -1.7789   58.4611   74.4070 H   0  0  0  0  0  0  0  0  0  0  0  0
    0.5574   57.9336   73.7472 H   0  0  0  0  0  0  0  0  0  0  0  0
  2  1  1  0
  4  3  2  3
  4  2  1  0
  5  1  1  0
  6  5  1  0
  7  6  1  0
  8  7  1  0
  9  8  1  0
 10  9  1  0
 11 10  1  0
 12 11  1  0
 13 12  1  0
 14 13  1  0
 15 14  1  0
 15 10  2  0
 16 15  1  0
 17 16  2  0
 18  9  2  0
 18 17  1  0
 19 18  1  0
 20 19  2  0
 21 20  1  0
 22 17  1  0
 22 21  2  0
 23  1  1  0
 24 23  1  0
 25 24  1  0
 26 25  1  0
 27 26  1  0
 28 27  1  0
 29 28  1  0
 30 29  1  0
 31 30  1  0
 32 31  1  0
 33 32  1  0
 34 33  1  0
 34 29  2  0
 35 34  1  0
 36 35  2  0
 37 36  1  0
 37 28  2  0
 38 37  1  0
 39 38  2  0
 40 39  1  0
 41 36  1  0
 41 40  2  0
  1 42  1  1
  2 43  1  0
  2 44  1  0
  3 45  1  0
  3 46  1  0
  4 47  1  0
  5 48  1  0
  5 49  1  0
  6 50  1  0
  6 51  1  0
  7 52  1  0
  7 53  1  0
  8 54  1  0
 11 55  1  0
 11 56  1  0
 12 57  1  0
 12 58  1  0
 13 59  1  0
 13 60  1  0
 14 61  1  0
 14 62  1  0
 19 63  1  0
 20 64  1  0
 21 65  1  0
 22 66  1  0
 23 67  1  0
 23 68  1  0
 24 69  1  0
 24 70  1  0
 25 71  1  0
 25 72  1  0
 26 73  1  0
 26 74  1  0
 27 75  1  0
 30 76  1  0
 30 77  1  0
 31 78  1  0
 31 79  1  0
 32 80  1  0
 32 81  1  0
 33 82  1  0
 33 83  1  0
 38 84  1  0
 39 85  1  0
 40 86  1  0
 41 87  1  0
M  CHG  1   1   1
M  END
>  <score>  (8) 
-11.531

$$$$
=
     RDKit          3D

 87 92  0  0  0  0  0  0  0  0999 V2000
    1.2760   65.2330   69.8780 N   0  0  2  0  0  4  0  0  0  0  0  0
    2.5170   64.5010   70.3490 C   0  0  0  0  0  0  0  0  0  0  0  0
    2.6370   62.2650   69.2150 C   0  0  0  0  0  0  0  0  0  0  0  0
    3.0160   63.5470   69.3110 C   0  0  0  0  0  0  0  0  0  0  0  0
    1.5250   66.7340   69.7790 C   0  0  0  0  0  0  0  0  0  0  0  0
    0.6250   67.3600   68.7210 C   0  0  0  0  0  0  0  0  0  0  0  0
    1.3680   67.5140   67.3930 C   0  0  0  0  0  0  0  0  0  0  0  0
    1.5810   68.9440   67.1610 N   0  0  0  0  0  0  0  0  0  0  0  0
    2.8440   69.1780   66.5280 C   0  0  0  0  0  0  0  0  0  0  0  0
    3.8700   69.7760   67.2870 C   0  0  0  0  0  0  0  0  0  0  0  0
    3.6820   70.0840   68.7530 C   0  0  0  0  0  0  0  0  0  0  0  0
    4.9830   70.3810   69.4960 C   0  0  0  0  0  0  0  0  0  0  0  0
    5.8470   71.3430   68.6940 C   0  0  0  0  0  0  0  0  0  0  0  0
    6.2280   70.7090   67.3610 C   0  0  0  0  0  0  0  0  0  0  0  0
    5.0560   70.1050   66.6310 C   0  0  0  0  0  0  0  0  0  0  0  0
    5.2590   69.8630   65.3170 N   0  0  0  0  0  0  0  0  0  0  0  0
    4.2900   69.2840   64.5960 C   0  0  0  0  0  0  0  0  0  0  0  0
    3.0440   68.9160   65.1410 C   0  0  0  0  0  0  0  0  0  0  0  0
    2.0840   68.3190   64.2830 C   0  0  0  0  0  0  0  0  0  0  0  0
    2.3550   68.0920   62.9340 C   0  0  0  0  0  0  0  0  0  0  0  0
    3.5870   68.4600   62.4150 C   0  0  0  0  0  0  0  0  0  0  0  0
    4.5370   69.0490   63.2490 C   0  0  0  0  0  0  0  0  0  0  0  0
    0.0600   64.8970   70.7210 C   0  0  0  0  0  0  0  0  0  0  0  0
    0.3960   63.9840   71.8990 C   0  0  0  0  0  0  0  0  0  0  0  0
   -0.0790   62.5280   71.8000 C   0  0  0  0  0  0  0  0  0  0  0  0
   -0.5020   61.8640   73.1130 C   0  0  0  0  0  0  0  0  0  0  0  0
    0.6540   61.6360   73.9890 N   0  0  0  0  0  0  0  0  0  0  0  0
    1.3830   60.4630   73.5730 C   0  0  0  0  0  0  0  0  0  0  0  0
    0.8030   59.1780   73.6910 C   0  0  0  0  0  0  0  0  0  0  0  0
   -0.5490   58.9570   74.3280 C   0  0  0  0  0  0  0  0  0  0  0  0
   -0.8650   57.4970   74.6530 C   0  0  0  0  0  0  0  0  0  0  0  0
   -0.5070   56.6020   73.4780 C   0  0  0  0  0  0  0  0  0  0  0  0
    0.9900   56.6890   73.2070 C   0  0  0  0  0  0  0  0  0  0  0  0
    1.5000   58.1050   73.1290 C   0  0  0  0  0  0  0  0  0  0  0  0
    2.6970   58.2420   72.5120 N   0  0  0  0  0  0  0  0  0  0  0  0
    3.2570   59.4540   72.4240 C   0  0  0  0  0  0  0  0  0  0  0  0
    2.6470   60.6130   72.9400 C   0  0  0  0  0  0  0  0  0  0  0  0
    3.3320   61.8450   72.8210 C   0  0  0  0  0  0  0  0  0  0  0  0
    4.5720   61.9320   72.1880 C   0  0  0  0  0  0  0  0  0  0  0  0
    5.1510   60.7850   71.6680 C   0  0  0  0  0  0  0  0  0  0  0  0
    4.4910   59.5610   71.7950 C   0  0  0  0  0  0  0  0  0  0  0  0
    1.0617   64.9006   68.9270 H   0  0  0  0  0  0  0  0  0  0  0  0
    3.3051   65.2367   70.5670 H   0  0  0  0  0  0  0  0  0  0  0  0
    2.2582   63.9266   71.2507 H   0  0  0  0  0  0  0  0  0  0  0  0
    3.0516   61.6269   68.4207 H   0  0  0  0  0  0  0  0  0  0  0  0
    1.9113   61.8509   69.9305 H   0  0  0  0  0  0  0  0  0  0  0  0
    3.7434   63.9230   68.5765 H   0  0  0  0  0  0  0  0  0  0  0  0
    1.3154   67.1999   70.7531 H   0  0  0  0  0  0  0  0  0  0  0  0
    2.5744   66.9006   69.4945 H   0  0  0  0  0  0  0  0  0  0  0  0
   -0.2539   66.7161   68.5692 H   0  0  0  0  0  0  0  0  0  0  0  0
    0.3160   68.3570   69.0681 H   0  0  0  0  0  0  0  0  0  0  0  0
    2.3366   66.9951   67.4440 H   0  0  0  0  0  0  0  0  0  0  0  0
    0.7817   67.0753   66.5722 H   0  0  0  0  0  0  0  0  0  0  0  0
    0.9116   69.6831   67.4188 H   0  0  0  0  0  0  0  0  0  0  0  0
    3.0251   70.9620   68.8408 H   0  0  0  0  0  0  0  0  0  0  0  0
    3.2494   69.1842   69.2148 H   0  0  0  0  0  0  0  0  0  0  0  0
    4.7480   70.8325   70.4712 H   0  0  0  0  0  0  0  0  0  0  0  0
    5.5350   69.4400   69.6369 H   0  0  0  0  0  0  0  0  0  0  0  0
    5.2854   72.2707   68.5095 H   0  0  0  0  0  0  0  0  0  0  0  0
    6.7613   71.5690   69.2624 H   0  0  0  0  0  0  0  0  0  0  0  0
    6.6760   71.4837   66.7214 H   0  0  0  0  0  0  0  0  0  0  0  0
    6.9322   69.8924   67.5783 H   0  0  0  0  0  0  0  0  0  0  0  0
    1.1045   68.0289   64.6911 H   0  0  0  0  0  0  0  0  0  0  0  0
    1.5978   67.6249   62.2871 H   0  0  0  0  0  0  0  0  0  0  0  0
    3.8136   68.2885   61.3523 H   0  0  0  0  0  0  0  0  0  0  0  0
    5.5116   69.3363   62.8276 H   0  0  0  0  0  0  0  0  0  0  0  0
   -0.3677   65.8324   71.1110 H   0  0  0  0  0  0  0  0  0  0  0  0
   -0.6539   64.3618   70.0777 H   0  0  0  0  0  0  0  0  0  0  0  0
    1.4904   63.9708   72.0089 H   0  0  0  0  0  0  0  0  0  0  0  0
   -0.1469   64.4074   72.7569 H   0  0  0  0  0  0  0  0  0  0  0  0
   -0.9415   62.5021   71.1178 H   0  0  0  0  0  0  0  0  0  0  0  0
    0.7934   61.9571   71.4492 H   0  0  0  0  0  0  0  0  0  0  0  0
   -1.2208   62.5168   73.6300 H   0  0  0  0  0  0  0  0  0  0  0  0
   -0.9597   60.8913   72.8799 H   0  0  0  0  0  0  0  0  0  0  0  0
    0.9091   62.2314   74.7899 H   0  0  0  0  0  0  0  0  0  0  0  0
   -0.5861   59.5333   75.2642 H   0  0  0  0  0  0  0  0  0  0  0  0
   -1.2988   59.2834   73.5923 H   0  0  0  0  0  0  0  0  0  0  0  0
   -0.2835   57.1880   75.5341 H   0  0  0  0  0  0  0  0  0  0  0  0
   -1.9416   57.4025   74.8578 H   0  0  0  0  0  0  0  0  0  0  0  0
   -0.7764   55.5621   73.7145 H   0  0  0  0  0  0  0  0  0  0  0  0
   -1.0596   56.9317   72.5859 H   0  0  0  0  0  0  0  0  0  0  0  0
    1.5224   56.1702   74.0178 H   0  0  0  0  0  0  0  0  0  0  0  0
    1.1716   56.2227   72.2274 H   0  0  0  0  0  0  0  0  0  0  0  0
    2.8763   62.7555   73.2373 H   0  0  0  0  0  0  0  0  0  0  0  0
    5.0852   62.9012   72.1024 H   0  0  0  0  0  0  0  0  0  0  0  0
    6.1244   60.8386   71.1584 H   0  0  0  0  0  0  0  0  0  0  0  0
    4.9618   58.6553   71.3851 H   0  0  0  0  0  0  0  0  0  0  0  0
  2  1  1  0
  4  3  2  3
  4  2  1  0
  5  1  1  0
  6  5  1  0
  7  6  1  0
  8  7  1  0
  9  8  1  0
 10  9  1  0
 11 10  1  0
 12 11  1  0
 13 12  1  0
 14 13  1  0
 15 14  1  0
 15 10  2  0
 16 15  1  0
 17 16  2  0
 18  9  2  0
 18 17  1  0
 19 18  1  0
 20 19  2  0
 21 20  1  0
 22 17  1  0
 22 21  2  0
 23  1  1  0
 24 23  1  0
 25 24  1  0
 26 25  1  0
 27 26  1  0
 28 27  1  0
 29 28  1  0
 30 29  1  0
 31 30  1  0
 32 31  1  0
 33 32  1  0
 34 33  1  0
 34 29  2  0
 35 34  1  0
 36 35  2  0
 37 36  1  0
 37 28  2  0
 38 37  1  0
 39 38  2  0
 40 39  1  0
 41 36  1  0
 41 40  2  0
  1 42  1  6
  2 43  1  0
  2 44  1  0
  3 45  1  0
  3 46  1  0
  4 47  1  0
  5 48  1  0
  5 49  1  0
  6 50  1  0
  6 51  1  0
  7 52  1  0
  7 53  1  0
  8 54  1  0
 11 55  1  0
 11 56  1  0
 12 57  1  0
 12 58  1  0
 13 59  1  0
 13 60  1  0
 14 61  1  0
 14 62  1  0
 19 63  1  0
 20 64  1  0
 21 65  1  0
 22 66  1  0
 23 67  1  0
 23 68  1  0
 24 69  1  0
 24 70  1  0
 25 71  1  0
 25 72  1  0
 26 73  1  0
 26 74  1  0
 27 75  1  0
 30 76  1  0
 30 77  1  0
 31 78  1  0
 31 79  1  0
 32 80  1  0
 32 81  1  0
 33 82  1  0
 33 83  1  0
 38 84  1  0
 39 85  1  0
 40 86  1  0
 41 87  1  0
M  CHG  1   1   1
M  END
>  <score>  (9) 
-11.458

$$$$
