=
     RDKit          3D

 19 19  0  0  0  0  0  0  0  0999 V2000
    6.8690   70.8810   68.3830 C   0  0  0  0  0  0  0  0  0  0  0  0
    5.6360   70.3880   67.6670 C   0  0  0  0  0  0  0  0  0  0  0  0
    4.5700   70.2870   68.2620 O   0  0  0  0  0  0  0  0  0  0  0  0
    5.8660   70.1150   66.3390 N   0  0  0  0  0  0  0  0  0  0  0  0
    4.8750   69.6610   65.5120 C   0  0  0  0  0  0  0  0  0  0  0  0
    3.6140   69.3990   65.7560 N   0  0  0  0  0  0  0  0  0  0  0  0
    2.9520   68.9530   64.6230 N   0  0  0  0  0  0  0  0  0  0  0  0
    3.7650   68.9070   63.5880 C   0  0  0  0  0  0  0  0  0  0  0  0
    5.3730   69.3930   63.8990 S   0  0  0  0  0  0  0  0  0  0  0  0
    3.3460   68.4020   61.9600 S   0  0  0  0  0  6  0  0  0  0  0  0
    1.9350   68.6760   61.7920 O   0  0  0  0  0  0  0  0  0  0  0  0
    3.8920   67.0730   61.7870 O   0  0  0  0  0  0  0  0  0  0  0  0
    4.1360   69.3700   60.8320 N   0  0  0  0  0  0  0  0  0  0  0  0
    6.7116   70.8181   69.4699 H   0  0  0  0  0  0  0  0  0  0  0  0
    7.7306   70.2582   68.1006 H   0  0  0  0  0  0  0  0  0  0  0  0
    7.0637   71.9261   68.1006 H   0  0  0  0  0  0  0  0  0  0  0  0
    6.8116   70.2564   65.9558 H   0  0  0  0  0  0  0  0  0  0  0  0
    4.7086   70.0716   61.3227 H   0  0  0  0  0  0  0  0  0  0  0  0
    4.7430   68.7836   60.2415 H   0  0  0  0  0  0  0  0  0  0  0  0
  2  1  1  0
  3  2  2  0
  4  2  1  0
  5  4  1  0
  6  5  2  0
  7  6  1  0
  8  7  2  0
  9  8  1  0
  9  5  1  0
 10  8  1  0
 11 10  2  0
 12 10  2  0
 13 10  1  0
  1 14  1  0
  1 15  1  0
  1 16  1  0
  4 17  1  0
 13 18  1  0
 13 19  1  0
M  END
>  <score>  (1) 
-7.198

$$$$
=
     RDKit          3D

 19 19  0  0  0  0  0  0  0  0999 V2000
    6.7020   70.2520   67.3010 C   0  0  0  0  0  0  0  0  0  0  0  0
    5.2560   70.2470   67.7290 C   0  0  0  0  0  0  0  0  0  0  0  0
    4.9100   70.8170   68.7570 O   0  0  0  0  0  0  0  0  0  0  0  0
    4.4420   69.5780   66.8450 N   0  0  0  0  0  0  0  0  0  0  0  0
    3.0940   69.4630   67.0490 C   0  0  0  0  0  0  0  0  0  0  0  0
    2.3380   69.9030   68.0260 N   0  0  0  0  0  0  0  0  0  0  0  0
    1.0080   69.5620   67.8420 N   0  0  0  0  0  0  0  0  0  0  0  0
    0.8450   68.8800   66.7270 C   0  0  0  0  0  0  0  0  0  0  0  0
    2.2690   68.6000   65.8260 S   0  0  0  0  0  0  0  0  0  0  0  0
   -0.6720   68.2500   66.1070 S   0  0  0  0  0  6  0  0  0  0  0  0
   -0.7230   66.8530   66.4800 O   0  0  0  0  0  0  0  0  0  0  0  0
   -0.7640   68.6770   64.7280 O   0  0  0  0  0  0  0  0  0  0  0  0
   -1.9680   68.9800   66.8980 N   0  0  0  0  0  0  0  0  0  0  0  0
    7.3479   70.2542   68.1914 H   0  0  0  0  0  0  0  0  0  0  0  0
    6.9095   69.3546   66.6997 H   0  0  0  0  0  0  0  0  0  0  0  0
    6.9033   71.1508   66.6997 H   0  0  0  0  0  0  0  0  0  0  0  0
    4.8591   69.1514   66.0054 H   0  0  0  0  0  0  0  0  0  0  0  0
   -1.8349   68.9050   67.9166 H   0  0  0  0  0  0  0  0  0  0  0  0
   -2.0180   69.9734   66.6305 H   0  0  0  0  0  0  0  0  0  0  0  0
  2  1  1  0
  3  2  2  0
  4  2  1  0
  5  4  1  0
  6  5  2  0
  7  6  1  0
  8  7  2  0
  9  8  1  0
  9  5  1  0
 10  8  1  0
 11 10  2  0
 12 10  2  0
 13 10  1  0
  1 14  1  0
  1 15  1  0
  1 16  1  0
  4 17  1  0
 13 18  1  0
 13 19  1  0
M  END
>  <score>  (2) 
-6.814

$$$$
=
     RDKit          3D

 19 19  0  0  0  0  0  0  0  0999 V2000
    6.7490   71.0320   68.7350 C   0  0  0  0  0  0  0  0  0  0  0  0
    5.8870   70.5070   67.6140 C   0  0  0  0  0  0  0  0  0  0  0  0
    6.3460   70.3820   66.4850 O   0  0  0  0  0  0  0  0  0  0  0  0
    4.6140   70.1900   68.0250 N   0  0  0  0  0  0  0  0  0  0  0  0
    3.6780   69.6930   67.1610 C   0  0  0  0  0  0  0  0  0  0  0  0
    3.7540   69.4340   65.8770 N   0  0  0  0  0  0  0  0  0  0  0  0
    2.5600   68.9350   65.3810 N   0  0  0  0  0  0  0  0  0  0  0  0
    1.6520   68.8490   66.3310 C   0  0  0  0  0  0  0  0  0  0  0  0
    2.1640   69.3580   67.8800 S   0  0  0  0  0  0  0  0  0  0  0  0
    0.0050   68.2710   66.1450 S   0  0  0  0  0  6  0  0  0  0  0  0
   -0.8060   69.0260   67.0760 O   0  0  0  0  0  0  0  0  0  0  0  0
    0.0670   66.8260   66.1820 O   0  0  0  0  0  0  0  0  0  0  0  0
   -0.5750   68.6630   64.6130 N   0  0  0  0  0  0  0  0  0  0  0  0
    6.3003   70.7587   69.7014 H   0  0  0  0  0  0  0  0  0  0  0  0
    7.7548   70.5930   68.6605 H   0  0  0  0  0  0  0  0  0  0  0  0
    6.8205   72.1271   68.6605 H   0  0  0  0  0  0  0  0  0  0  0  0
    4.3578   70.3310   69.0126 H   0  0  0  0  0  0  0  0  0  0  0  0
   -1.4250   69.2375   64.7043 H   0  0  0  0  0  0  0  0  0  0  0  0
    0.1436   69.1924   64.0989 H   0  0  0  0  0  0  0  0  0  0  0  0
  2  1  1  0
  3  2  2  0
  4  2  1  0
  5  4  1  0
  6  5  2  0
  7  6  1  0
  8  7  2  0
  9  8  1  0
  9  5  1  0
 10  8  1  0
 11 10  2  0
 12 10  2  0
 13 10  1  0
  1 14  1  0
  1 15  1  0
  1 16  1  0
  4 17  1  0
 13 18  1  0
 13 19  1  0
M  END
>  <score>  (3) 
-6.811

$$$$
=
     RDKit          3D

 19 19  0  0  0  0  0  0  0  0999 V2000
   -0.8340   66.8390   68.0990 C   0  0  0  0  0  0  0  0  0  0  0  0
   -0.6160   67.3900   66.7120 C   0  0  0  0  0  0  0  0  0  0  0  0
   -1.5210   67.9710   66.1250 O   0  0  0  0  0  0  0  0  0  0  0  0
    0.6630   67.1810   66.2510 N   0  0  0  0  0  0  0  0  0  0  0  0
    1.0650   67.6090   65.0160 C   0  0  0  0  0  0  0  0  0  0  0  0
    0.4060   68.2430   64.0760 N   0  0  0  0  0  0  0  0  0  0  0  0
    1.1990   68.4880   62.9670 N   0  0  0  0  0  0  0  0  0  0  0  0
    2.4170   68.0190   63.1430 C   0  0  0  0  0  0  0  0  0  0  0  0
    2.6950   67.2540   64.6450 S   0  0  0  0  0  0  0  0  0  0  0  0
    3.7410   68.1110   61.9950 S   0  0  0  0  0  6  0  0  0  0  0  0
    4.1230   66.7480   61.6930 O   0  0  0  0  0  0  0  0  0  0  0  0
    4.6860   69.0680   62.5290 O   0  0  0  0  0  0  0  0  0  0  0  0
    3.2020   68.7670   60.5410 N   0  0  0  0  0  0  0  0  0  0  0  0
   -0.5361   67.5919   68.8436 H   0  0  0  0  0  0  0  0  0  0  0  0
   -1.8976   66.5921   68.2325 H   0  0  0  0  0  0  0  0  0  0  0  0
   -0.2273   65.9312   68.2325 H   0  0  0  0  0  0  0  0  0  0  0  0
    1.3374   66.6879   66.8534 H   0  0  0  0  0  0  0  0  0  0  0  0
    2.5597   69.5487   60.7342 H   0  0  0  0  0  0  0  0  0  0  0  0
    4.0081   69.1107   59.9997 H   0  0  0  0  0  0  0  0  0  0  0  0
  2  1  1  0
  3  2  2  0
  4  2  1  0
  5  4  1  0
  6  5  2  0
  7  6  1  0
  8  7  2  0
  9  8  1  0
  9  5  1  0
 10  8  1  0
 11 10  2  0
 12 10  2  0
 13 10  1  0
  1 14  1  0
  1 15  1  0
  1 16  1  0
  4 17  1  0
 13 18  1  0
 13 19  1  0
M  END
>  <score>  (4) 
-6.631

$$$$
=
     RDKit          3D

 19 19  0  0  0  0  0  0  0  0999 V2000
   -1.2950   67.7750   67.2620 C   0  0  0  0  0  0  0  0  0  0  0  0
    0.0720   68.1310   66.7350 C   0  0  0  0  0  0  0  0  0  0  0  0
    0.3660   67.9070   65.5670 O   0  0  0  0  0  0  0  0  0  0  0  0
    0.8700   68.7240   67.6850 N   0  0  0  0  0  0  0  0  0  0  0  0
    2.1480   69.1270   67.4070 C   0  0  0  0  0  0  0  0  0  0  0  0
    2.8450   69.0490   66.2990 N   0  0  0  0  0  0  0  0  0  0  0  0
    4.1150   69.5820   66.4510 N   0  0  0  0  0  0  0  0  0  0  0  0
    4.2960   70.0310   67.6760 C   0  0  0  0  0  0  0  0  0  0  0  0
    2.9610   69.8470   68.7270 S   0  0  0  0  0  0  0  0  0  0  0  0
    5.7530   70.7820   68.3020 S   0  0  0  0  0  6  0  0  0  0  0  0
    6.8430   70.3340   67.4620 O   0  0  0  0  0  0  0  0  0  0  0  0
    5.7500   70.5620   69.7320 O   0  0  0  0  0  0  0  0  0  0  0  0
    5.6770   72.4520   68.0980 N   0  0  0  0  0  0  0  0  0  0  0  0
   -1.2766   67.7798   68.3618 H   0  0  0  0  0  0  0  0  0  0  0  0
   -2.0292   68.5119   66.9043 H   0  0  0  0  0  0  0  0  0  0  0  0
   -1.5765   66.7736   66.9043 H   0  0  0  0  0  0  0  0  0  0  0  0
    0.4950   68.8691   68.6333 H   0  0  0  0  0  0  0  0  0  0  0  0
    5.6562   72.9100   69.0204 H   0  0  0  0  0  0  0  0  0  0  0  0
    6.5043   72.7719   67.5744 H   0  0  0  0  0  0  0  0  0  0  0  0
  2  1  1  0
  3  2  2  0
  4  2  1  0
  5  4  1  0
  6  5  2  0
  7  6  1  0
  8  7  2  0
  9  8  1  0
  9  5  1  0
 10  8  1  0
 11 10  2  0
 12 10  2  0
 13 10  1  0
  1 14  1  0
  1 15  1  0
  1 16  1  0
  4 17  1  0
 13 18  1  0
 13 19  1  0
M  END
>  <score>  (5) 
-6.558

$$$$
=
     RDKit          3D

 19 19  0  0  0  0  0  0  0  0999 V2000
   -2.0620   68.1670   66.8770 C   0  0  0  0  0  0  0  0  0  0  0  0
   -0.7010   67.5410   66.7060 C   0  0  0  0  0  0  0  0  0  0  0  0
   -0.2660   66.7600   67.5440 O   0  0  0  0  0  0  0  0  0  0  0  0
   -0.0780   67.9310   65.5430 N   0  0  0  0  0  0  0  0  0  0  0  0
    1.1630   67.4710   65.1990 C   0  0  0  0  0  0  0  0  0  0  0  0
    1.9730   66.6500   65.8230 N   0  0  0  0  0  0  0  0  0  0  0  0
    3.1490   66.4500   65.1180 N   0  0  0  0  0  0  0  0  0  0  0  0
    3.1500   67.1400   63.9960 C   0  0  0  0  0  0  0  0  0  0  0  0
    1.7480   68.0740   63.7100 S   0  0  0  0  0  0  0  0  0  0  0  0
    4.4380   67.1810   62.8040 S   0  0  0  0  0  6  0  0  0  0  0  0
    4.8610   65.8120   62.6050 O   0  0  0  0  0  0  0  0  0  0  0  0
    5.3610   68.2120   63.2270 O   0  0  0  0  0  0  0  0  0  0  0  0
    3.8340   67.6930   61.3180 N   0  0  0  0  0  0  0  0  0  0  0  0
   -2.2861   68.2701   67.9490 H   0  0  0  0  0  0  0  0  0  0  0  0
   -2.0711   69.1598   66.4034 H   0  0  0  0  0  0  0  0  0  0  0  0
   -2.8217   67.5278   66.4034 H   0  0  0  0  0  0  0  0  0  0  0  0
   -0.5601   68.5883   64.9134 H   0  0  0  0  0  0  0  0  0  0  0  0
    3.0571   68.3516   61.4717 H   0  0  0  0  0  0  0  0  0  0  0  0
    4.5815   68.1618   60.7867 H   0  0  0  0  0  0  0  0  0  0  0  0
  2  1  1  0
  3  2  2  0
  4  2  1  0
  5  4  1  0
  6  5  2  0
  7  6  1  0
  8  7  2  0
  9  8  1  0
  9  5  1  0
 10  8  1  0
 11 10  2  0
 12 10  2  0
 13 10  1  0
  1 14  1  0
  1 15  1  0
  1 16  1  0
  4 17  1  0
 13 18  1  0
 13 19  1  0
M  END
>  <score>  (6) 
-6.507

$$$$
=
     RDKit          3D

 19 19  0  0  0  0  0  0  0  0999 V2000
    5.2310   68.7720   62.3830 C   0  0  0  0  0  0  0  0  0  0  0  0
    3.7230   68.7520   62.4080 C   0  0  0  0  0  0  0  0  0  0  0  0
    3.0840   68.7300   61.3620 O   0  0  0  0  0  0  0  0  0  0  0  0
    3.2120   68.7370   63.6840 N   0  0  0  0  0  0  0  0  0  0  0  0
    1.8650   68.7130   63.9240 C   0  0  0  0  0  0  0  0  0  0  0  0
    0.8510   68.7070   63.0930 N   0  0  0  0  0  0  0  0  0  0  0  0
   -0.3630   68.6810   63.7620 N   0  0  0  0  0  0  0  0  0  0  0  0
   -0.1830   68.6700   65.0670 C   0  0  0  0  0  0  0  0  0  0  0  0
    1.4460   68.6890   65.5810 S   0  0  0  0  0  0  0  0  0  0  0  0
   -1.4440   68.6380   66.2880 S   0  0  0  0  0  6  0  0  0  0  0  0
   -1.1070   69.6580   67.2570 O   0  0  0  0  0  0  0  0  0  0  0  0
   -1.6170   67.2520   66.6670 O   0  0  0  0  0  0  0  0  0  0  0  0
   -2.9120   69.1130   65.6160 N   0  0  0  0  0  0  0  0  0  0  0  0
    5.6148   68.7771   63.4139 H   0  0  0  0  0  0  0  0  0  0  0  0
    5.6009   67.8787   61.8584 H   0  0  0  0  0  0  0  0  0  0  0  0
    5.5771   69.6748   61.8584 H   0  0  0  0  0  0  0  0  0  0  0  0
    3.8621   68.7440   64.4829 H   0  0  0  0  0  0  0  0  0  0  0  0
   -3.5804   69.3293   66.3692 H   0  0  0  0  0  0  0  0  0  0  0  0
   -2.7681   69.9504   65.0337 H   0  0  0  0  0  0  0  0  0  0  0  0
  2  1  1  0
  3  2  2  0
  4  2  1  0
  5  4  1  0
  6  5  2  0
  7  6  1  0
  8  7  2  0
  9  8  1  0
  9  5  1  0
 10  8  1  0
 11 10  2  0
 12 10  2  0
 13 10  1  0
  1 14  1  0
  1 15  1  0
  1 16  1  0
  4 17  1  0
 13 18  1  0
 13 19  1  0
M  END
>  <score>  (7) 
-6.438

$$$$
=
     RDKit          3D

 19 19  0  0  0  0  0  0  0  0999 V2000
    0.7790   66.8300   69.5510 C   0  0  0  0  0  0  0  0  0  0  0  0
    0.8910   65.5530   70.3450 C   0  0  0  0  0  0  0  0  0  0  0  0
    0.1540   65.3490   71.3020 O   0  0  0  0  0  0  0  0  0  0  0  0
    1.8550   64.7040   69.8530 N   0  0  0  0  0  0  0  0  0  0  0  0
    2.1110   63.4900   70.4290 C   0  0  0  0  0  0  0  0  0  0  0  0
    1.5700   62.9090   71.4730 N   0  0  0  0  0  0  0  0  0  0  0  0
    2.1310   61.6660   71.7190 N   0  0  0  0  0  0  0  0  0  0  0  0
    3.0680   61.3870   70.8370 C   0  0  0  0  0  0  0  0  0  0  0  0
    3.3420   62.5900   69.6560 S   0  0  0  0  0  0  0  0  0  0  0  0
    4.0340   59.9230   70.7770 S   0  0  0  0  0  6  0  0  0  0  0  0
    3.6310   59.1140   71.9070 O   0  0  0  0  0  0  0  0  0  0  0  0
    5.4060   60.3400   70.5860 O   0  0  0  0  0  0  0  0  0  0  0  0
    3.6370   59.0240   69.4090 N   0  0  0  0  0  0  0  0  0  0  0  0
    0.7041   67.6845   70.2396 H   0  0  0  0  0  0  0  0  0  0  0  0
    1.6703   66.9470   68.9171 H   0  0  0  0  0  0  0  0  0  0  0  0
   -0.1191   66.7900   68.9171 H   0  0  0  0  0  0  0  0  0  0  0  0
    2.3997   64.9906   69.0272 H   0  0  0  0  0  0  0  0  0  0  0  0
    3.2375   58.1193   69.6967 H   0  0  0  0  0  0  0  0  0  0  0  0
    2.9461   59.5412   68.8469 H   0  0  0  0  0  0  0  0  0  0  0  0
  2  1  1  0
  3  2  2  0
  4  2  1  0
  5  4  1  0
  6  5  2  0
  7  6  1  0
  8  7  2  0
  9  8  1  0
  9  5  1  0
 10  8  1  0
 11 10  2  0
 12 10  2  0
 13 10  1  0
  1 14  1  0
  1 15  1  0
  1 16  1  0
  4 17  1  0
 13 18  1  0
 13 19  1  0
M  END
>  <score>  (8) 
-6.052

$$$$
=
     RDKit          3D

 19 19  0  0  0  0  0  0  0  0999 V2000
   -2.0350   68.8430   65.9250 C   0  0  0  0  0  0  0  0  0  0  0  0
   -1.1410   68.7230   64.7170 C   0  0  0  0  0  0  0  0  0  0  0  0
   -1.6190   68.7070   63.5890 O   0  0  0  0  0  0  0  0  0  0  0  0
    0.1930   68.6640   65.0460 N   0  0  0  0  0  0  0  0  0  0  0  0
    1.1680   68.5590   64.0930 C   0  0  0  0  0  0  0  0  0  0  0  0
    1.0810   68.4880   62.7860 N   0  0  0  0  0  0  0  0  0  0  0  0
    2.3290   68.3870   62.1920 N   0  0  0  0  0  0  0  0  0  0  0  0
    3.2860   68.3890   63.0960 C   0  0  0  0  0  0  0  0  0  0  0  0
    2.7590   68.5100   64.7170 S   0  0  0  0  0  0  0  0  0  0  0  0
    5.0090   68.2790   62.7850 S   0  0  0  0  0  6  0  0  0  0  0  0
    5.3570   69.4250   61.9720 O   0  0  0  0  0  0  0  0  0  0  0  0
    5.2640   66.9250   62.3450 O   0  0  0  0  0  0  0  0  0  0  0  0
    5.8700   68.4610   64.2210 N   0  0  0  0  0  0  0  0  0  0  0  0
   -1.4288   68.7616   66.8393 H   0  0  0  0  0  0  0  0  0  0  0  0
   -2.5447   69.8176   65.9085 H   0  0  0  0  0  0  0  0  0  0  0  0
   -2.7837   68.0373   65.9085 H   0  0  0  0  0  0  0  0  0  0  0  0
    0.4655   68.6999   66.0386 H   0  0  0  0  0  0  0  0  0  0  0  0
    5.2354   68.3269   65.0211 H   0  0  0  0  0  0  0  0  0  0  0  0
    6.6245   67.7609   64.2600 H   0  0  0  0  0  0  0  0  0  0  0  0
  2  1  1  0
  3  2  2  0
  4  2  1  0
  5  4  1  0
  6  5  2  0
  7  6  1  0
  8  7  2  0
  9  8  1  0
  9  5  1  0
 10  8  1  0
 11 10  2  0
 12 10  2  0
 13 10  1  0
  1 14  1  0
  1 15  1  0
  1 16  1  0
  4 17  1  0
 13 18  1  0
 13 19  1  0
M  END
>  <score>  (9) 
-5.986

$$$$
