=
     RDKit          3D

 56 55  0  0  0  0  0  0  0  0999 V2000
    0.6230   66.8190   69.5950 C   0  0  0  0  0  0  0  0  0  0  0  0
    0.4910   65.8530   70.7760 C   0  0  0  0  0  0  0  0  0  0  0  0
    0.7340   64.3720   70.4670 C   0  0  0  0  0  0  0  0  0  0  0  0
    1.1570   63.5560   71.6900 C   0  0  0  0  0  0  0  0  0  0  0  0
    2.5670   62.9670   71.5740 C   0  0  0  0  0  0  0  0  0  0  0  0
    3.4770   63.5950   70.5120 C   0  0  0  0  0  0  0  0  0  0  0  0
    3.7530   62.6730   69.3220 C   0  0  0  0  0  0  0  0  0  0  0  0
    3.0460   61.3180   69.4260 C   0  0  0  0  0  0  0  0  0  0  0  0
    3.9610   60.0930   69.5440 C   0  0  0  0  0  0  0  0  0  0  0  0
    3.5080   59.0580   70.5660 C   0  0  0  0  0  0  0  0  0  0  0  0
    3.7600   57.7490   70.0790 O   0  0  0  0  0  0  0  0  0  0  0  0
   -0.4440   66.6130   68.5150 C   0  0  0  0  0  0  0  0  0  0  0  0
   -0.2950   67.6030   67.3610 C   0  0  0  0  0  0  0  0  0  0  0  0
    0.0490   66.9320   66.1390 O   0  0  0  0  0  0  0  0  0  0  0  0
    0.8760   67.6120   65.3090 C   0  0  0  0  0  0  0  0  0  0  0  0
    0.6220   67.9410   64.1610 O   0  0  0  0  0  0  0  0  0  0  0  0
    2.0360   67.8800   65.9700 N   0  0  0  0  0  0  0  0  0  0  0  0
    3.0900   68.6890   65.4040 C   0  0  0  0  0  0  0  0  0  0  0  0
    3.8220   69.4870   66.4820 C   0  0  0  0  0  0  0  0  0  0  0  0
    5.2590   69.8430   66.1010 C   0  0  0  0  0  0  0  0  0  0  0  0
    6.1110   70.2710   67.2850 C   0  0  0  0  0  0  0  0  0  0  0  0
    0.5392   67.8477   69.9755 H   0  0  0  0  0  0  0  0  0  0  0  0
    1.5993   66.6258   69.1264 H   0  0  0  0  0  0  0  0  0  0  0  0
    1.2170   66.1595   71.5435 H   0  0  0  0  0  0  0  0  0  0  0  0
   -0.5595   65.9193   71.0955 H   0  0  0  0  0  0  0  0  0  0  0  0
   -0.1961   63.9425   70.0663 H   0  0  0  0  0  0  0  0  0  0  0  0
    1.5609   64.3234   69.7432 H   0  0  0  0  0  0  0  0  0  0  0  0
    1.1247   64.2106   72.5735 H   0  0  0  0  0  0  0  0  0  0  0  0
    0.4587   62.7100   71.7718 H   0  0  0  0  0  0  0  0  0  0  0  0
    3.0606   63.0829   72.5502 H   0  0  0  0  0  0  0  0  0  0  0  0
    2.4250   61.9224   71.2599 H   0  0  0  0  0  0  0  0  0  0  0  0
    2.9957   64.5109   70.1385 H   0  0  0  0  0  0  0  0  0  0  0  0
    4.4443   63.7990   70.9944 H   0  0  0  0  0  0  0  0  0  0  0  0
    3.4112   63.1753   68.4050 H   0  0  0  0  0  0  0  0  0  0  0  0
    4.8349   62.4748   69.3086 H   0  0  0  0  0  0  0  0  0  0  0  0
    2.3992   61.3426   70.3154 H   0  0  0  0  0  0  0  0  0  0  0  0
    2.5012   61.1928   68.4786 H   0  0  0  0  0  0  0  0  0  0  0  0
    4.0089   59.6047   68.5595 H   0  0  0  0  0  0  0  0  0  0  0  0
    4.9367   60.4653   69.8895 H   0  0  0  0  0  0  0  0  0  0  0  0
    4.0595   59.2090   71.5057 H   0  0  0  0  0  0  0  0  0  0  0  0
    2.4286   59.1749   70.7426 H   0  0  0  0  0  0  0  0  0  0  0  0
    3.8791   57.1301   70.8425 H   0  0  0  0  0  0  0  0  0  0  0  0
   -0.3543   65.5908   68.1187 H   0  0  0  0  0  0  0  0  0  0  0  0
   -1.4286   66.7781   68.9769 H   0  0  0  0  0  0  0  0  0  0  0  0
   -1.2469   68.1363   67.2212 H   0  0  0  0  0  0  0  0  0  0  0  0
    0.5127   68.3071   67.6097 H   0  0  0  0  0  0  0  0  0  0  0  0
    2.1673   67.4891   66.9138 H   0  0  0  0  0  0  0  0  0  0  0  0
    3.8103   68.0323   64.8941 H   0  0  0  0  0  0  0  0  0  0  0  0
    2.6383   69.3988   64.6954 H   0  0  0  0  0  0  0  0  0  0  0  0
    3.2676   70.4197   66.6626 H   0  0  0  0  0  0  0  0  0  0  0  0
    3.8709   68.8529   67.3795 H   0  0  0  0  0  0  0  0  0  0  0  0
    5.7251   68.9612   65.6372 H   0  0  0  0  0  0  0  0  0  0  0  0
    5.2089   70.6988   65.4118 H   0  0  0  0  0  0  0  0  0  0  0  0
    5.5947   70.0116   68.2210 H   0  0  0  0  0  0  0  0  0  0  0  0
    7.0806   69.7530   67.2453 H   0  0  0  0  0  0  0  0  0  0  0  0
    6.2742   71.3581   67.2453 H   0  0  0  0  0  0  0  0  0  0  0  0
  2  1  1  0
  3  2  1  0
  4  3  1  0
  5  4  1  0
  6  5  1  0
  7  6  1  0
  8  7  1  0
  9  8  1  0
 10  9  1  0
 11 10  1  0
 12  1  1  0
 13 12  1  0
 14 13  1  0
 15 14  1  0
 16 15  2  0
 17 15  1  0
 18 17  1  0
 19 18  1  0
 20 19  1  0
 21 20  1  0
  1 22  1  0
  1 23  1  0
  2 24  1  0
  2 25  1  0
  3 26  1  0
  3 27  1  0
  4 28  1  0
  4 29  1  0
  5 30  1  0
  5 31  1  0
  6 32  1  0
  6 33  1  0
  7 34  1  0
  7 35  1  0
  8 36  1  0
  8 37  1  0
  9 38  1  0
  9 39  1  0
 10 40  1  0
 10 41  1  0
 11 42  1  0
 12 43  1  0
 12 44  1  0
 13 45  1  0
 13 46  1  0
 17 47  1  0
 18 48  1  0
 18 49  1  0
 19 50  1  0
 19 51  1  0
 20 52  1  0
 20 53  1  0
 21 54  1  0
 21 55  1  0
 21 56  1  0
M  END
>  <score>  (1) 
-6.939

$$$$
=
     RDKit          3D

 56 55  0  0  0  0  0  0  0  0999 V2000
    1.1580   66.5560   69.8830 C   0  0  0  0  0  0  0  0  0  0  0  0
    0.8010   67.2540   68.5670 C   0  0  0  0  0  0  0  0  0  0  0  0
    1.4740   68.6080   68.3180 C   0  0  0  0  0  0  0  0  0  0  0  0
    1.7470   68.8890   66.8390 C   0  0  0  0  0  0  0  0  0  0  0  0
    3.1690   69.3910   66.5660 C   0  0  0  0  0  0  0  0  0  0  0  0
    3.7140   69.1470   65.1530 C   0  0  0  0  0  0  0  0  0  0  0  0
    5.1770   69.5610   64.9840 C   0  0  0  0  0  0  0  0  0  0  0  0
    5.9620   69.5750   66.2990 C   0  0  0  0  0  0  0  0  0  0  0  0
    6.4600   70.9490   66.7650 C   0  0  0  0  0  0  0  0  0  0  0  0
    5.9530   71.3740   68.1380 C   0  0  0  0  0  0  0  0  0  0  0  0
    5.7420   72.7780   68.1650 O   0  0  0  0  0  0  0  0  0  0  0  0
    0.0030   65.7450   70.4770 C   0  0  0  0  0  0  0  0  0  0  0  0
    0.4960   64.5910   71.3490 C   0  0  0  0  0  0  0  0  0  0  0  0
    0.4260   63.3400   70.6490 O   0  0  0  0  0  0  0  0  0  0  0  0
    1.5780   62.6290   70.6000 C   0  0  0  0  0  0  0  0  0  0  0  0
    1.8160   61.6110   71.2300 O   0  0  0  0  0  0  0  0  0  0  0  0
    2.4270   63.2310   69.7210 N   0  0  0  0  0  0  0  0  0  0  0  0
    3.7030   62.6650   69.3530 C   0  0  0  0  0  0  0  0  0  0  0  0
    4.8400   63.2610   70.1820 C   0  0  0  0  0  0  0  0  0  0  0  0
    5.2450   62.3870   71.3690 C   0  0  0  0  0  0  0  0  0  0  0  0
    5.2940   60.9030   71.0380 C   0  0  0  0  0  0  0  0  0  0  0  0
    2.0024   65.8756   69.6984 H   0  0  0  0  0  0  0  0  0  0  0  0
    1.4078   67.3433   70.6095 H   0  0  0  0  0  0  0  0  0  0  0  0
    1.0827   66.5820   67.7429 H   0  0  0  0  0  0  0  0  0  0  0  0
   -0.2766   67.4664   68.6280 H   0  0  0  0  0  0  0  0  0  0  0  0
    0.8180   69.4002   68.7080 H   0  0  0  0  0  0  0  0  0  0  0  0
    2.4479   68.5850   68.8289 H   0  0  0  0  0  0  0  0  0  0  0  0
    1.5912   67.9587   66.2730 H   0  0  0  0  0  0  0  0  0  0  0  0
    1.0563   69.6865   66.5276 H   0  0  0  0  0  0  0  0  0  0  0  0
    3.1827   70.4757   66.7483 H   0  0  0  0  0  0  0  0  0  0  0  0
    3.8198   68.8107   67.2367 H   0  0  0  0  0  0  0  0  0  0  0  0
    3.6273   68.0740   64.9267 H   0  0  0  0  0  0  0  0  0  0  0  0
    3.1204   69.7673   64.4654 H   0  0  0  0  0  0  0  0  0  0  0  0
    5.6623   68.8531   64.2960 H   0  0  0  0  0  0  0  0  0  0  0  0
    5.1800   70.5894   64.5936 H   0  0  0  0  0  0  0  0  0  0  0  0
    5.3098   69.1679   67.0857 H   0  0  0  0  0  0  0  0  0  0  0  0
    6.8663   68.9769   66.1133 H   0  0  0  0  0  0  0  0  0  0  0  0
    7.5592   70.9228   66.7979 H   0  0  0  0  0  0  0  0  0  0  0  0
    6.0680   71.6836   66.0462 H   0  0  0  0  0  0  0  0  0  0  0  0
    5.0047   70.8590   68.3515 H   0  0  0  0  0  0  0  0  0  0  0  0
    6.7021   71.1069   68.8979 H   0  0  0  0  0  0  0  0  0  0  0  0
    5.6956   73.0867   69.1045 H   0  0  0  0  0  0  0  0  0  0  0  0
   -0.6192   66.4124   71.0914 H   0  0  0  0  0  0  0  0  0  0  0  0
   -0.5722   65.3162   69.6432 H   0  0  0  0  0  0  0  0  0  0  0  0
    1.5400   64.7815   71.6384 H   0  0  0  0  0  0  0  0  0  0  0  0
   -0.1494   64.5276   72.2375 H   0  0  0  0  0  0  0  0  0  0  0  0
    2.1464   64.1286   69.3009 H   0  0  0  0  0  0  0  0  0  0  0  0
    3.6726   61.5778   69.5175 H   0  0  0  0  0  0  0  0  0  0  0  0
    3.8904   62.8957   68.2939 H   0  0  0  0  0  0  0  0  0  0  0  0
    5.7161   63.3921   69.5299 H   0  0  0  0  0  0  0  0  0  0  0  0
    4.4798   64.2173   70.5893 H   0  0  0  0  0  0  0  0  0  0  0  0
    6.2427   62.7015   71.7091 H   0  0  0  0  0  0  0  0  0  0  0  0
    4.4790   62.5209   72.1470 H   0  0  0  0  0  0  0  0  0  0  0  0
    5.3133   60.3198   71.9705 H   0  0  0  0  0  0  0  0  0  0  0  0
    4.4044   60.6284   70.4521 H   0  0  0  0  0  0  0  0  0  0  0  0
    6.1997   60.6877   70.4521 H   0  0  0  0  0  0  0  0  0  0  0  0
  2  1  1  0
  3  2  1  0
  4  3  1  0
  5  4  1  0
  6  5  1  0
  7  6  1  0
  8  7  1  0
  9  8  1  0
 10  9  1  0
 11 10  1  0
 12  1  1  0
 13 12  1  0
 14 13  1  0
 15 14  1  0
 16 15  2  0
 17 15  1  0
 18 17  1  0
 19 18  1  0
 20 19  1  0
 21 20  1  0
  1 22  1  0
  1 23  1  0
  2 24  1  0
  2 25  1  0
  3 26  1  0
  3 27  1  0
  4 28  1  0
  4 29  1  0
  5 30  1  0
  5 31  1  0
  6 32  1  0
  6 33  1  0
  7 34  1  0
  7 35  1  0
  8 36  1  0
  8 37  1  0
  9 38  1  0
  9 39  1  0
 10 40  1  0
 10 41  1  0
 11 42  1  0
 12 43  1  0
 12 44  1  0
 13 45  1  0
 13 46  1  0
 17 47  1  0
 18 48  1  0
 18 49  1  0
 19 50  1  0
 19 51  1  0
 20 52  1  0
 20 53  1  0
 21 54  1  0
 21 55  1  0
 21 56  1  0
M  END
>  <score>  (2) 
-6.853

$$$$
=
     RDKit          3D

 56 55  0  0  0  0  0  0  0  0999 V2000
    2.0390   68.3480   62.5360 C   0  0  0  0  0  0  0  0  0  0  0  0
    3.2520   68.7000   61.6690 C   0  0  0  0  0  0  0  0  0  0  0  0
    4.5330   69.0730   62.4220 C   0  0  0  0  0  0  0  0  0  0  0  0
    4.6310   68.4390   63.8100 C   0  0  0  0  0  0  0  0  0  0  0  0
    4.5300   69.4550   64.9540 C   0  0  0  0  0  0  0  0  0  0  0  0
    5.8530   70.0550   65.4440 C   0  0  0  0  0  0  0  0  0  0  0  0
    6.1130   69.8230   66.9340 C   0  0  0  0  0  0  0  0  0  0  0  0
    5.8620   71.0630   67.7960 C   0  0  0  0  0  0  0  0  0  0  0  0
    4.8160   70.9050   68.9070 C   0  0  0  0  0  0  0  0  0  0  0  0
    3.5520   70.1660   68.4860 C   0  0  0  0  0  0  0  0  0  0  0  0
    2.7400   69.9040   69.6220 O   0  0  0  0  0  0  0  0  0  0  0  0
    0.8530   69.2970   62.3410 C   0  0  0  0  0  0  0  0  0  0  0  0
   -0.2220   69.1040   63.4110 C   0  0  0  0  0  0  0  0  0  0  0  0
    0.1580   68.0930   64.3570 O   0  0  0  0  0  0  0  0  0  0  0  0
   -0.3780   68.2170   65.5950 C   0  0  0  0  0  0  0  0  0  0  0  0
   -1.1710   69.0760   65.9450 O   0  0  0  0  0  0  0  0  0  0  0  0
    0.1050   67.2180   66.3840 N   0  0  0  0  0  0  0  0  0  0  0  0
   -0.3520   66.9970   67.7350 C   0  0  0  0  0  0  0  0  0  0  0  0
    0.7700   67.2180   68.7490 C   0  0  0  0  0  0  0  0  0  0  0  0
    0.5550   66.4680   70.0620 C   0  0  0  0  0  0  0  0  0  0  0  0
    1.5530   65.3420   70.2860 C   0  0  0  0  0  0  0  0  0  0  0  0
    1.7141   67.3280   62.2827 H   0  0  0  0  0  0  0  0  0  0  0  0
    2.3550   68.4364   63.5859 H   0  0  0  0  0  0  0  0  0  0  0  0
    3.4761   67.8293   61.0352 H   0  0  0  0  0  0  0  0  0  0  0  0
    2.9640   69.6028   61.1104 H   0  0  0  0  0  0  0  0  0  0  0  0
    5.3962   68.7416   61.8261 H   0  0  0  0  0  0  0  0  0  0  0  0
    4.5186   70.1636   62.5647 H   0  0  0  0  0  0  0  0  0  0  0  0
    3.8144   67.7100   63.9184 H   0  0  0  0  0  0  0  0  0  0  0  0
    5.6224   67.9679   63.8817 H   0  0  0  0  0  0  0  0  0  0  0  0
    3.8919   70.2832   64.6122 H   0  0  0  0  0  0  0  0  0  0  0  0
    4.1250   68.8956   65.8102 H   0  0  0  0  0  0  0  0  0  0  0  0
    6.6749   69.5997   64.8720 H   0  0  0  0  0  0  0  0  0  0  0  0
    5.7914   71.1426   65.2915 H   0  0  0  0  0  0  0  0  0  0  0  0
    5.4506   69.0167   67.2820 H   0  0  0  0  0  0  0  0  0  0  0  0
    7.1765   69.5633   67.0411 H   0  0  0  0  0  0  0  0  0  0  0  0
    6.8151   71.3443   68.2677 H   0  0  0  0  0  0  0  0  0  0  0  0
    5.4582   71.8244   67.1125 H   0  0  0  0  0  0  0  0  0  0  0  0
    5.2778   70.3501   69.7369 H   0  0  0  0  0  0  0  0  0  0  0  0
    4.5041   71.9214   69.1891 H   0  0  0  0  0  0  0  0  0  0  0  0
    2.9895   70.7847   67.7713 H   0  0  0  0  0  0  0  0  0  0  0  0
    3.8319   69.2121   68.0150 H   0  0  0  0  0  0  0  0  0  0  0  0
    3.2617   70.0723   70.4464 H   0  0  0  0  0  0  0  0  0  0  0  0
    1.2174   70.3339   62.3877 H   0  0  0  0  0  0  0  0  0  0  0  0
    0.4003   69.0758   61.3632 H   0  0  0  0  0  0  0  0  0  0  0  0
   -0.3719   70.0547   63.9436 H   0  0  0  0  0  0  0  0  0  0  0  0
   -1.1507   68.7842   62.9158 H   0  0  0  0  0  0  0  0  0  0  0  0
    0.8279   66.5928   66.0000 H   0  0  0  0  0  0  0  0  0  0  0  0
   -1.1736   67.6952   67.9531 H   0  0  0  0  0  0  0  0  0  0  0  0
   -0.6919   65.9541   67.8181 H   0  0  0  0  0  0  0  0  0  0  0  0
    1.7158   66.8767   68.3029 H   0  0  0  0  0  0  0  0  0  0  0  0
    0.7871   68.2919   68.9866 H   0  0  0  0  0  0  0  0  0  0  0  0
    0.6460   67.1846   70.8916 H   0  0  0  0  0  0  0  0  0  0  0  0
   -0.4444   66.0109   70.0145 H   0  0  0  0  0  0  0  0  0  0  0  0
    1.6923   65.1849   71.3658 H   0  0  0  0  0  0  0  0  0  0  0  0
    1.1721   64.4177   69.8271 H   0  0  0  0  0  0  0  0  0  0  0  0
    2.5163   65.6092   69.8271 H   0  0  0  0  0  0  0  0  0  0  0  0
  2  1  1  0
  3  2  1  0
  4  3  1  0
  5  4  1  0
  6  5  1  0
  7  6  1  0
  8  7  1  0
  9  8  1  0
 10  9  1  0
 11 10  1  0
 12  1  1  0
 13 12  1  0
 14 13  1  0
 15 14  1  0
 16 15  2  0
 17 15  1  0
 18 17  1  0
 19 18  1  0
 20 19  1  0
 21 20  1  0
  1 22  1  0
  1 23  1  0
  2 24  1  0
  2 25  1  0
  3 26  1  0
  3 27  1  0
  4 28  1  0
  4 29  1  0
  5 30  1  0
  5 31  1  0
  6 32  1  0
  6 33  1  0
  7 34  1  0
  7 35  1  0
  8 36  1  0
  8 37  1  0
  9 38  1  0
  9 39  1  0
 10 40  1  0
 10 41  1  0
 11 42  1  0
 12 43  1  0
 12 44  1  0
 13 45  1  0
 13 46  1  0
 17 47  1  0
 18 48  1  0
 18 49  1  0
 19 50  1  0
 19 51  1  0
 20 52  1  0
 20 53  1  0
 21 54  1  0
 21 55  1  0
 21 56  1  0
M  END
>  <score>  (3) 
-6.769

$$$$
=
     RDKit          3D

 56 55  0  0  0  0  0  0  0  0999 V2000
    5.0820   70.5870   69.1990 C   0  0  0  0  0  0  0  0  0  0  0  0
    5.8150   71.5640   68.2750 C   0  0  0  0  0  0  0  0  0  0  0  0
    6.5820   70.9400   67.1050 C   0  0  0  0  0  0  0  0  0  0  0  0
    5.9200   69.6800   66.5460 C   0  0  0  0  0  0  0  0  0  0  0  0
    5.3430   69.8660   65.1380 C   0  0  0  0  0  0  0  0  0  0  0  0
    4.2200   68.9050   64.7330 C   0  0  0  0  0  0  0  0  0  0  0  0
    4.3410   68.3960   63.2950 C   0  0  0  0  0  0  0  0  0  0  0  0
    4.5470   66.8810   63.2010 C   0  0  0  0  0  0  0  0  0  0  0  0
    3.5460   66.0210   63.9820 C   0  0  0  0  0  0  0  0  0  0  0  0
    4.0030   64.5890   64.2350 C   0  0  0  0  0  0  0  0  0  0  0  0
    5.1500   64.2980   63.4500 O   0  0  0  0  0  0  0  0  0  0  0  0
    3.5590   70.7490   69.1730 C   0  0  0  0  0  0  0  0  0  0  0  0
    2.8980   69.8200   68.1550 C   0  0  0  0  0  0  0  0  0  0  0  0
    1.9780   68.9190   68.7900 O   0  0  0  0  0  0  0  0  0  0  0  0
    1.4190   67.9850   67.9830 C   0  0  0  0  0  0  0  0  0  0  0  0
    1.0910   66.8580   68.3180 O   0  0  0  0  0  0  0  0  0  0  0  0
    1.2720   68.5140   66.7370 N   0  0  0  0  0  0  0  0  0  0  0  0
    0.6050   67.8150   65.6640 C   0  0  0  0  0  0  0  0  0  0  0  0
   -0.0230   68.7890   64.6680 C   0  0  0  0  0  0  0  0  0  0  0  0
    0.7560   68.9020   63.3590 C   0  0  0  0  0  0  0  0  0  0  0  0
   -0.0140   69.6110   62.2550 C   0  0  0  0  0  0  0  0  0  0  0  0
    5.3286   69.5613   68.8875 H   0  0  0  0  0  0  0  0  0  0  0  0
    5.4132   70.8016   70.2258 H   0  0  0  0  0  0  0  0  0  0  0  0
    5.0684   72.2551   67.8567 H   0  0  0  0  0  0  0  0  0  0  0  0
    6.5775   72.0482   68.9028 H   0  0  0  0  0  0  0  0  0  0  0  0
    6.6520   71.6841   66.2979 H   0  0  0  0  0  0  0  0  0  0  0  0
    7.5707   70.6447   67.4863 H   0  0  0  0  0  0  0  0  0  0  0  0
    6.6719   68.8779   66.5110 H   0  0  0  0  0  0  0  0  0  0  0  0
    5.0787   69.4343   67.2107 H   0  0  0  0  0  0  0  0  0  0  0  0
    4.9484   70.8905   65.0700 H   0  0  0  0  0  0  0  0  0  0  0  0
    6.1741   69.6533   64.4495 H   0  0  0  0  0  0  0  0  0  0  0  0
    4.2408   68.0395   65.4116 H   0  0  0  0  0  0  0  0  0  0  0  0
    3.2755   69.4648   64.7996 H   0  0  0  0  0  0  0  0  0  0  0  0
    3.4193   68.6567   62.7542 H   0  0  0  0  0  0  0  0  0  0  0  0
    5.2299   68.8724   62.8557 H   0  0  0  0  0  0  0  0  0  0  0  0
    4.4807   66.5967   62.1405 H   0  0  0  0  0  0  0  0  0  0  0  0
    5.5287   66.6844   63.6567 H   0  0  0  0  0  0  0  0  0  0  0  0
    3.3669   66.5012   64.9553 H   0  0  0  0  0  0  0  0  0  0  0  0
    2.6404   65.9546   63.3611 H   0  0  0  0  0  0  0  0  0  0  0  0
    4.2507   64.4687   65.3000 H   0  0  0  0  0  0  0  0  0  0  0  0
    3.1927   63.8980   63.9594 H   0  0  0  0  0  0  0  0  0  0  0  0
    5.9167   64.1035   64.0454 H   0  0  0  0  0  0  0  0  0  0  0  0
    3.1611   70.5200   70.1726 H   0  0  0  0  0  0  0  0  0  0  0  0
    3.3341   71.7854   68.8810 H   0  0  0  0  0  0  0  0  0  0  0  0
    2.3531   70.4271   67.4171 H   0  0  0  0  0  0  0  0  0  0  0  0
    3.6841   69.2256   67.6663 H   0  0  0  0  0  0  0  0  0  0  0  0
    1.6529   69.4529   66.5520 H   0  0  0  0  0  0  0  0  0  0  0  0
    1.3378   67.1868   65.1364 H   0  0  0  0  0  0  0  0  0  0  0  0
   -0.1968   67.1996   66.0981 H   0  0  0  0  0  0  0  0  0  0  0  0
   -1.0424   68.4449   64.4389 H   0  0  0  0  0  0  0  0  0  0  0  0
   -0.0165   69.7838   65.1375 H   0  0  0  0  0  0  0  0  0  0  0  0
    1.6828   69.4621   63.5524 H   0  0  0  0  0  0  0  0  0  0  0  0
    0.9534   67.8777   63.0100 H   0  0  0  0  0  0  0  0  0  0  0  0
   -0.7532   70.2917   62.7025 H   0  0  0  0  0  0  0  0  0  0  0  0
    0.6856   70.1877   61.6321 H   0  0  0  0  0  0  0  0  0  0  0  0
   -0.5311   68.8663   61.6321 H   0  0  0  0  0  0  0  0  0  0  0  0
  2  1  1  0
  3  2  1  0
  4  3  1  0
  5  4  1  0
  6  5  1  0
  7  6  1  0
  8  7  1  0
  9  8  1  0
 10  9  1  0
 11 10  1  0
 12  1  1  0
 13 12  1  0
 14 13  1  0
 15 14  1  0
 16 15  2  0
 17 15  1  0
 18 17  1  0
 19 18  1  0
 20 19  1  0
 21 20  1  0
  1 22  1  0
  1 23  1  0
  2 24  1  0
  2 25  1  0
  3 26  1  0
  3 27  1  0
  4 28  1  0
  4 29  1  0
  5 30  1  0
  5 31  1  0
  6 32  1  0
  6 33  1  0
  7 34  1  0
  7 35  1  0
  8 36  1  0
  8 37  1  0
  9 38  1  0
  9 39  1  0
 10 40  1  0
 10 41  1  0
 11 42  1  0
 12 43  1  0
 12 44  1  0
 13 45  1  0
 13 46  1  0
 17 47  1  0
 18 48  1  0
 18 49  1  0
 19 50  1  0
 19 51  1  0
 20 52  1  0
 20 53  1  0
 21 54  1  0
 21 55  1  0
 21 56  1  0
M  END
>  <score>  (4) 
-6.715

$$$$
=
     RDKit          3D

 56 55  0  0  0  0  0  0  0  0999 V2000
   -0.9720   68.6570   65.5890 C   0  0  0  0  0  0  0  0  0  0  0  0
    0.2260   68.7290   64.6380 C   0  0  0  0  0  0  0  0  0  0  0  0
   -0.0960   69.0070   63.1650 C   0  0  0  0  0  0  0  0  0  0  0  0
    1.1440   69.2660   62.3080 C   0  0  0  0  0  0  0  0  0  0  0  0
    2.2750   68.2610   62.5510 C   0  0  0  0  0  0  0  0  0  0  0  0
    3.4900   68.7840   63.3260 C   0  0  0  0  0  0  0  0  0  0  0  0
    4.1270   67.7360   64.2410 C   0  0  0  0  0  0  0  0  0  0  0  0
    4.2510   66.3550   63.5910 C   0  0  0  0  0  0  0  0  0  0  0  0
    3.5300   65.2100   64.3120 C   0  0  0  0  0  0  0  0  0  0  0  0
    4.3640   63.9470   64.4890 C   0  0  0  0  0  0  0  0  0  0  0  0
    4.6470   63.3690   63.2230 O   0  0  0  0  0  0  0  0  0  0  0  0
   -0.5830   68.7450   67.0680 C   0  0  0  0  0  0  0  0  0  0  0  0
    0.7160   67.9990   67.3680 C   0  0  0  0  0  0  0  0  0  0  0  0
    1.4130   68.5890   68.4760 O   0  0  0  0  0  0  0  0  0  0  0  0
    2.4310   69.4230   68.1530 C   0  0  0  0  0  0  0  0  0  0  0  0
    2.9200   69.5530   67.0420 O   0  0  0  0  0  0  0  0  0  0  0  0
    2.8120   70.1030   69.2690 N   0  0  0  0  0  0  0  0  0  0  0  0
    3.8020   71.1540   69.2450 C   0  0  0  0  0  0  0  0  0  0  0  0
    5.2190   70.5900   69.3540 C   0  0  0  0  0  0  0  0  0  0  0  0
    6.1850   71.1780   68.3260 C   0  0  0  0  0  0  0  0  0  0  0  0
    6.3330   70.3220   67.0770 C   0  0  0  0  0  0  0  0  0  0  0  0
   -1.6513   69.4906   65.3573 H   0  0  0  0  0  0  0  0  0  0  0  0
   -1.4479   67.6770   65.4369 H   0  0  0  0  0  0  0  0  0  0  0  0
    0.8895   69.5310   64.9938 H   0  0  0  0  0  0  0  0  0  0  0  0
    0.6780   67.7263   64.6568 H   0  0  0  0  0  0  0  0  0  0  0  0
   -0.6274   68.1358   62.7543 H   0  0  0  0  0  0  0  0  0  0  0  0
   -0.7073   69.9210   63.1343 H   0  0  0  0  0  0  0  0  0  0  0  0
    0.8525   69.2129   61.2486 H   0  0  0  0  0  0  0  0  0  0  0  0
    1.5278   70.2588   62.5855 H   0  0  0  0  0  0  0  0  0  0  0  0
    1.8563   67.4143   63.1148 H   0  0  0  0  0  0  0  0  0  0  0  0
    2.6539   67.9970   61.5526 H   0  0  0  0  0  0  0  0  0  0  0  0
    4.2467   69.1201   62.6018 H   0  0  0  0  0  0  0  0  0  0  0  0
    3.1357   69.6030   63.9692 H   0  0  0  0  0  0  0  0  0  0  0  0
    5.1334   68.0819   64.5194 H   0  0  0  0  0  0  0  0  0  0  0  0
    3.4685   67.6252   65.1151 H   0  0  0  0  0  0  0  0  0  0  0  0
    3.8410   66.4235   62.5725 H   0  0  0  0  0  0  0  0  0  0  0  0
    5.3212   66.1033   63.6271 H   0  0  0  0  0  0  0  0  0  0  0  0
    3.2312   65.5664   65.3089 H   0  0  0  0  0  0  0  0  0  0  0  0
    2.6744   64.9325   63.6788 H   0  0  0  0  0  0  0  0  0  0  0  0
    5.3084   64.2019   64.9921 H   0  0  0  0  0  0  0  0  0  0  0  0
    3.7998   63.2246   65.0971 H   0  0  0  0  0  0  0  0  0  0  0  0
    5.0786   62.4874   63.3518 H   0  0  0  0  0  0  0  0  0  0  0  0
   -0.4542   69.8035   67.3381 H   0  0  0  0  0  0  0  0  0  0  0  0
   -1.3854   68.2765   67.6568 H   0  0  0  0  0  0  0  0  0  0  0  0
    0.4803   66.9521   67.6095 H   0  0  0  0  0  0  0  0  0  0  0  0
    1.3628   68.0577   66.4802 H   0  0  0  0  0  0  0  0  0  0  0  0
    2.3755   69.8574   70.1690 H   0  0  0  0  0  0  0  0  0  0  0  0
    3.7102   71.7103   68.3005 H   0  0  0  0  0  0  0  0  0  0  0  0
    3.6257   71.8146   70.1067 H   0  0  0  0  0  0  0  0  0  0  0  0
    5.6051   70.8083   70.3606 H   0  0  0  0  0  0  0  0  0  0  0  0
    5.1551   69.5092   69.1597 H   0  0  0  0  0  0  0  0  0  0  0  0
    5.8148   72.1698   68.0271 H   0  0  0  0  0  0  0  0  0  0  0  0
    7.1748   71.2300   68.8031 H   0  0  0  0  0  0  0  0  0  0  0  0
    6.5137   69.2767   67.3682 H   0  0  0  0  0  0  0  0  0  0  0  0
    5.4111   70.3822   66.4799 H   0  0  0  0  0  0  0  0  0  0  0  0
    7.1812   70.6882   66.4799 H   0  0  0  0  0  0  0  0  0  0  0  0
  2  1  1  0
  3  2  1  0
  4  3  1  0
  5  4  1  0
  6  5  1  0
  7  6  1  0
  8  7  1  0
  9  8  1  0
 10  9  1  0
 11 10  1  0
 12  1  1  0
 13 12  1  0
 14 13  1  0
 15 14  1  0
 16 15  2  0
 17 15  1  0
 18 17  1  0
 19 18  1  0
 20 19  1  0
 21 20  1  0
  1 22  1  0
  1 23  1  0
  2 24  1  0
  2 25  1  0
  3 26  1  0
  3 27  1  0
  4 28  1  0
  4 29  1  0
  5 30  1  0
  5 31  1  0
  6 32  1  0
  6 33  1  0
  7 34  1  0
  7 35  1  0
  8 36  1  0
  8 37  1  0
  9 38  1  0
  9 39  1  0
 10 40  1  0
 10 41  1  0
 11 42  1  0
 12 43  1  0
 12 44  1  0
 13 45  1  0
 13 46  1  0
 17 47  1  0
 18 48  1  0
 18 49  1  0
 19 50  1  0
 19 51  1  0
 20 52  1  0
 20 53  1  0
 21 54  1  0
 21 55  1  0
 21 56  1  0
M  END
>  <score>  (5) 
-6.69

$$$$
=
     RDKit          3D

 56 55  0  0  0  0  0  0  0  0999 V2000
    0.9690   64.8050   70.9770 C   0  0  0  0  0  0  0  0  0  0  0  0
    0.6890   63.4530   70.3130 C   0  0  0  0  0  0  0  0  0  0  0  0
    1.8100   62.4130   70.4000 C   0  0  0  0  0  0  0  0  0  0  0  0
    2.6030   62.2610   69.1010 C   0  0  0  0  0  0  0  0  0  0  0  0
    4.0780   62.6540   69.2370 C   0  0  0  0  0  0  0  0  0  0  0  0
    4.5950   62.8640   70.6650 C   0  0  0  0  0  0  0  0  0  0  0  0
    5.3350   61.6500   71.2300 C   0  0  0  0  0  0  0  0  0  0  0  0
    4.5950   60.9680   72.3840 C   0  0  0  0  0  0  0  0  0  0  0  0
    4.1840   59.5090   72.1460 C   0  0  0  0  0  0  0  0  0  0  0  0
    3.8210   59.1800   70.7030 C   0  0  0  0  0  0  0  0  0  0  0  0
    3.1090   57.9530   70.6480 O   0  0  0  0  0  0  0  0  0  0  0  0
    0.2470   65.9770   70.3050 C   0  0  0  0  0  0  0  0  0  0  0  0
    1.2090   66.8840   69.5380 C   0  0  0  0  0  0  0  0  0  0  0  0
    0.9650   66.8290   68.1250 O   0  0  0  0  0  0  0  0  0  0  0  0
    1.1550   67.9890   67.4510 C   0  0  0  0  0  0  0  0  0  0  0  0
    0.7300   69.0840   67.7840 O   0  0  0  0  0  0  0  0  0  0  0  0
    1.9090   67.7350   66.3460 N   0  0  0  0  0  0  0  0  0  0  0  0
    2.3850   68.7780   65.4670 C   0  0  0  0  0  0  0  0  0  0  0  0
    3.9020   68.9350   65.5570 C   0  0  0  0  0  0  0  0  0  0  0  0
    4.3520   69.7980   66.7360 C   0  0  0  0  0  0  0  0  0  0  0  0
    5.8640   69.9260   66.8490 C   0  0  0  0  0  0  0  0  0  0  0  0
    0.6439   64.7514   72.0265 H   0  0  0  0  0  0  0  0  0  0  0  0
    2.0487   64.9938   70.8838 H   0  0  0  0  0  0  0  0  0  0  0  0
   -0.2049   63.0238   70.7891 H   0  0  0  0  0  0  0  0  0  0  0  0
    0.5705   63.6699   69.2411 H   0  0  0  0  0  0  0  0  0  0  0  0
    2.5039   62.7149   71.1983 H   0  0  0  0  0  0  0  0  0  0  0  0
    1.3355   61.4420   70.6050 H   0  0  0  0  0  0  0  0  0  0  0  0
    2.5506   61.2096   68.7818 H   0  0  0  0  0  0  0  0  0  0  0  0
    2.1525   62.9429   68.3647 H   0  0  0  0  0  0  0  0  0  0  0  0
    4.6810   61.8581   68.7757 H   0  0  0  0  0  0  0  0  0  0  0  0
    4.1675   63.6338   68.7451 H   0  0  0  0  0  0  0  0  0  0  0  0
    5.2834   63.7219   70.6636 H   0  0  0  0  0  0  0  0  0  0  0  0
    3.7172   63.0351   71.3054 H   0  0  0  0  0  0  0  0  0  0  0  0
    5.4702   60.9169   70.4211 H   0  0  0  0  0  0  0  0  0  0  0  0
    6.2942   62.0118   71.6288 H   0  0  0  0  0  0  0  0  0  0  0  0
    5.2504   60.9940   73.2671 H   0  0  0  0  0  0  0  0  0  0  0  0
    3.6552   61.5262   72.5068 H   0  0  0  0  0  0  0  0  0  0  0  0
    5.0228   58.8631   72.4447 H   0  0  0  0  0  0  0  0  0  0  0  0
    3.2755   59.3395   72.7426 H   0  0  0  0  0  0  0  0  0  0  0  0
    3.1924   59.9844   70.2933 H   0  0  0  0  0  0  0  0  0  0  0  0
    4.7436   59.0884   70.1110 H   0  0  0  0  0  0  0  0  0  0  0  0
    2.9254   57.6365   71.5679 H   0  0  0  0  0  0  0  0  0  0  0  0
   -0.4994   65.5776   69.6026 H   0  0  0  0  0  0  0  0  0  0  0  0
   -0.2278   66.5785   71.0941 H   0  0  0  0  0  0  0  0  0  0  0  0
    1.0772   67.9198   69.8840 H   0  0  0  0  0  0  0  0  0  0  0  0
    2.2360   66.5377   69.7261 H   0  0  0  0  0  0  0  0  0  0  0  0
    2.1502   66.7578   66.1276 H   0  0  0  0  0  0  0  0  0  0  0  0
    2.1123   68.5254   64.4317 H   0  0  0  0  0  0  0  0  0  0  0  0
    1.9204   69.7269   65.7731 H   0  0  0  0  0  0  0  0  0  0  0  0
    4.3506   67.9363   65.6641 H   0  0  0  0  0  0  0  0  0  0  0  0
    4.2321   69.4414   64.6380 H   0  0  0  0  0  0  0  0  0  0  0  0
    3.9250   70.8044   66.6144 H   0  0  0  0  0  0  0  0  0  0  0  0
    3.9985   69.3043   67.6533 H   0  0  0  0  0  0  0  0  0  0  0  0
    6.1516   69.9503   67.9105 H   0  0  0  0  0  0  0  0  0  0  0  0
    6.3425   69.0651   66.3591 H   0  0  0  0  0  0  0  0  0  0  0  0
    6.1910   70.8550   66.3591 H   0  0  0  0  0  0  0  0  0  0  0  0
  2  1  1  0
  3  2  1  0
  4  3  1  0
  5  4  1  0
  6  5  1  0
  7  6  1  0
  8  7  1  0
  9  8  1  0
 10  9  1  0
 11 10  1  0
 12  1  1  0
 13 12  1  0
 14 13  1  0
 15 14  1  0
 16 15  2  0
 17 15  1  0
 18 17  1  0
 19 18  1  0
 20 19  1  0
 21 20  1  0
  1 22  1  0
  1 23  1  0
  2 24  1  0
  2 25  1  0
  3 26  1  0
  3 27  1  0
  4 28  1  0
  4 29  1  0
  5 30  1  0
  5 31  1  0
  6 32  1  0
  6 33  1  0
  7 34  1  0
  7 35  1  0
  8 36  1  0
  8 37  1  0
  9 38  1  0
  9 39  1  0
 10 40  1  0
 10 41  1  0
 11 42  1  0
 12 43  1  0
 12 44  1  0
 13 45  1  0
 13 46  1  0
 17 47  1  0
 18 48  1  0
 18 49  1  0
 19 50  1  0
 19 51  1  0
 20 52  1  0
 20 53  1  0
 21 54  1  0
 21 55  1  0
 21 56  1  0
M  END
>  <score>  (6) 
-6.609

$$$$
=
     RDKit          3D

 56 55  0  0  0  0  0  0  0  0999 V2000
    5.2180   70.6720   69.3010 C   0  0  0  0  0  0  0  0  0  0  0  0
    6.0480   71.2180   68.1350 C   0  0  0  0  0  0  0  0  0  0  0  0
    6.4210   70.2110   67.0410 C   0  0  0  0  0  0  0  0  0  0  0  0
    5.3670   70.0900   65.9400 C   0  0  0  0  0  0  0  0  0  0  0  0
    5.6510   68.9600   64.9440 C   0  0  0  0  0  0  0  0  0  0  0  0
    4.9960   69.0920   63.5650 C   0  0  0  0  0  0  0  0  0  0  0  0
    3.6460   68.3800   63.4600 C   0  0  0  0  0  0  0  0  0  0  0  0
    3.3080   67.5310   64.6890 C   0  0  0  0  0  0  0  0  0  0  0  0
    3.0400   66.0440   64.4220 C   0  0  0  0  0  0  0  0  0  0  0  0
    4.2150   65.2880   63.8130 C   0  0  0  0  0  0  0  0  0  0  0  0
    3.9490   63.8930   63.8160 O   0  0  0  0  0  0  0  0  0  0  0  0
    3.7140   70.9190   69.1500 C   0  0  0  0  0  0  0  0  0  0  0  0
    3.0240   69.8110   68.3560 C   0  0  0  0  0  0  0  0  0  0  0  0
    1.6540   70.1400   68.0800 O   0  0  0  0  0  0  0  0  0  0  0  0
    0.8090   69.0880   67.9640 C   0  0  0  0  0  0  0  0  0  0  0  0
   -0.1160   69.0010   67.1720 O   0  0  0  0  0  0  0  0  0  0  0  0
    1.1680   68.1350   68.8680 N   0  0  0  0  0  0  0  0  0  0  0  0
    0.5370   66.8380   68.9300 C   0  0  0  0  0  0  0  0  0  0  0  0
    0.5040   66.3000   70.3600 C   0  0  0  0  0  0  0  0  0  0  0  0
    0.7940   64.8030   70.4500 C   0  0  0  0  0  0  0  0  0  0  0  0
    2.2790   64.4740   70.4550 C   0  0  0  0  0  0  0  0  0  0  0  0
    5.3872   69.5873   69.3707 H   0  0  0  0  0  0  0  0  0  0  0  0
    5.5436   71.2047   70.2067 H   0  0  0  0  0  0  0  0  0  0  0  0
    5.4724   72.0282   67.6635 H   0  0  0  0  0  0  0  0  0  0  0  0
    7.0024   71.5394   68.5776 H   0  0  0  0  0  0  0  0  0  0  0  0
    7.3687   70.5298   66.5825 H   0  0  0  0  0  0  0  0  0  0  0  0
    6.5018   69.2251   67.5220 H   0  0  0  0  0  0  0  0  0  0  0  0
    4.3911   69.9018   66.4113 H   0  0  0  0  0  0  0  0  0  0  0  0
    5.3813   71.0325   65.3731 H   0  0  0  0  0  0  0  0  0  0  0  0
    6.7397   68.9101   64.7949 H   0  0  0  0  0  0  0  0  0  0  0  0
    5.2129   68.0560   65.3922 H   0  0  0  0  0  0  0  0  0  0  0  0
    4.8435   70.1605   63.3528 H   0  0  0  0  0  0  0  0  0  0  0  0
    5.6709   68.6147   62.8392 H   0  0  0  0  0  0  0  0  0  0  0  0
    2.8603   69.1395   63.3343 H   0  0  0  0  0  0  0  0  0  0  0  0
    3.7057   67.6966   62.6001 H   0  0  0  0  0  0  0  0  0  0  0  0
    4.1530   67.6008   65.3898 H   0  0  0  0  0  0  0  0  0  0  0  0
    2.3647   67.9380   65.0822 H   0  0  0  0  0  0  0  0  0  0  0  0
    2.7817   65.5647   65.3778 H   0  0  0  0  0  0  0  0  0  0  0  0
    2.2251   66.0011   63.6844 H   0  0  0  0  0  0  0  0  0  0  0  0
    4.3693   65.6272   62.7780 H   0  0  0  0  0  0  0  0  0  0  0  0
    5.1186   65.4846   64.4087 H   0  0  0  0  0  0  0  0  0  0  0  0
    3.8876   63.5708   64.7501 H   0  0  0  0  0  0  0  0  0  0  0  0
    3.2614   70.9718   70.1512 H   0  0  0  0  0  0  0  0  0  0  0  0
    3.5802   71.8621   68.5999 H   0  0  0  0  0  0  0  0  0  0  0  0
    3.5565   69.6679   67.4042 H   0  0  0  0  0  0  0  0  0  0  0  0
    3.0447   68.8899   68.9570 H   0  0  0  0  0  0  0  0  0  0  0  0
    1.9221   68.3487   69.5362 H   0  0  0  0  0  0  0  0  0  0  0  0
   -0.4940   66.9237   68.5563 H   0  0  0  0  0  0  0  0  0  0  0  0
    1.1204   66.1400   68.3116 H   0  0  0  0  0  0  0  0  0  0  0  0
    1.2585   66.8379   70.9527 H   0  0  0  0  0  0  0  0  0  0  0  0
   -0.5148   66.4578   70.7437 H   0  0  0  0  0  0  0  0  0  0  0  0
    0.3483   64.4168   71.3786 H   0  0  0  0  0  0  0  0  0  0  0  0
    0.3608   64.3342   69.5542 H   0  0  0  0  0  0  0  0  0  0  0  0
    2.6337   64.3954   71.4933 H   0  0  0  0  0  0  0  0  0  0  0  0
    2.4444   63.5174   69.9377 H   0  0  0  0  0  0  0  0  0  0  0  0
    2.8329   65.2712   69.9377 H   0  0  0  0  0  0  0  0  0  0  0  0
  2  1  1  0
  3  2  1  0
  4  3  1  0
  5  4  1  0
  6  5  1  0
  7  6  1  0
  8  7  1  0
  9  8  1  0
 10  9  1  0
 11 10  1  0
 12  1  1  0
 13 12  1  0
 14 13  1  0
 15 14  1  0
 16 15  2  0
 17 15  1  0
 18 17  1  0
 19 18  1  0
 20 19  1  0
 21 20  1  0
  1 22  1  0
  1 23  1  0
  2 24  1  0
  2 25  1  0
  3 26  1  0
  3 27  1  0
  4 28  1  0
  4 29  1  0
  5 30  1  0
  5 31  1  0
  6 32  1  0
  6 33  1  0
  7 34  1  0
  7 35  1  0
  8 36  1  0
  8 37  1  0
  9 38  1  0
  9 39  1  0
 10 40  1  0
 10 41  1  0
 11 42  1  0
 12 43  1  0
 12 44  1  0
 13 45  1  0
 13 46  1  0
 17 47  1  0
 18 48  1  0
 18 49  1  0
 19 50  1  0
 19 51  1  0
 20 52  1  0
 20 53  1  0
 21 54  1  0
 21 55  1  0
 21 56  1  0
M  END
>  <score>  (7) 
-6.597

$$$$
=
     RDKit          3D

 56 55  0  0  0  0  0  0  0  0999 V2000
    5.7220   71.0500   68.8720 C   0  0  0  0  0  0  0  0  0  0  0  0
    6.0960   71.2180   67.3960 C   0  0  0  0  0  0  0  0  0  0  0  0
    6.3000   69.9250   66.6000 C   0  0  0  0  0  0  0  0  0  0  0  0
    5.1070   69.5580   65.7150 C   0  0  0  0  0  0  0  0  0  0  0  0
    5.3920   69.6980   64.2160 C   0  0  0  0  0  0  0  0  0  0  0  0
    4.3520   69.0880   63.2690 C   0  0  0  0  0  0  0  0  0  0  0  0
    3.1480   68.4840   63.9950 C   0  0  0  0  0  0  0  0  0  0  0  0
    3.1010   66.9550   63.9290 C   0  0  0  0  0  0  0  0  0  0  0  0
    4.4190   66.2600   63.5660 C   0  0  0  0  0  0  0  0  0  0  0  0
    4.5800   64.8610   64.1470 C   0  0  0  0  0  0  0  0  0  0  0  0
    4.3070   63.8860   63.1510 O   0  0  0  0  0  0  0  0  0  0  0  0
    4.2230   71.2120   69.1440 C   0  0  0  0  0  0  0  0  0  0  0  0
    3.4670   69.8900   69.0140 C   0  0  0  0  0  0  0  0  0  0  0  0
    2.1960   70.0760   68.3720 O   0  0  0  0  0  0  0  0  0  0  0  0
    1.5440   68.9420   68.0220 C   0  0  0  0  0  0  0  0  0  0  0  0
    1.4580   67.9310   68.7010 O   0  0  0  0  0  0  0  0  0  0  0  0
    0.9880   69.1170   66.7910 N   0  0  0  0  0  0  0  0  0  0  0  0
    0.1300   68.1350   66.1730 C   0  0  0  0  0  0  0  0  0  0  0  0
   -1.2850   68.6760   65.9700 C   0  0  0  0  0  0  0  0  0  0  0  0
   -2.3160   68.0360   66.8990 C   0  0  0  0  0  0  0  0  0  0  0  0
   -1.7800   66.8350   67.6620 C   0  0  0  0  0  0  0  0  0  0  0  0
    6.0283   70.0446   69.1967 H   0  0  0  0  0  0  0  0  0  0  0  0
    6.2401   71.8440   69.4298 H   0  0  0  0  0  0  0  0  0  0  0  0
    5.2920   71.7891   66.9087 H   0  0  0  0  0  0  0  0  0  0  0  0
    7.0735   71.7225   67.3949 H   0  0  0  0  0  0  0  0  0  0  0  0
    7.1850   70.0473   65.9582 H   0  0  0  0  0  0  0  0  0  0  0  0
    6.4232   69.1117   67.3303 H   0  0  0  0  0  0  0  0  0  0  0  0
    4.8292   68.5137   65.9205 H   0  0  0  0  0  0  0  0  0  0  0  0
    4.2962   70.2608   65.9572 H   0  0  0  0  0  0  0  0  0  0  0  0
    5.4653   70.7714   63.9872 H   0  0  0  0  0  0  0  0  0  0  0  0
    6.3188   69.1326   64.0387 H   0  0  0  0  0  0  0  0  0  0  0  0
    3.9913   69.8770   62.5927 H   0  0  0  0  0  0  0  0  0  0  0  0
    4.8478   68.2694   62.7267 H   0  0  0  0  0  0  0  0  0  0  0  0
    3.1909   68.7860   65.0519 H   0  0  0  0  0  0  0  0  0  0  0  0
    2.2445   68.8582   63.4914 H   0  0  0  0  0  0  0  0  0  0  0  0
    2.7850   66.5845   64.9154 H   0  0  0  0  0  0  0  0  0  0  0  0
    2.4025   66.7133   63.1143 H   0  0  0  0  0  0  0  0  0  0  0  0
    4.4767   66.1850   62.4701 H   0  0  0  0  0  0  0  0  0  0  0  0
    5.2236   66.8719   63.9999 H   0  0  0  0  0  0  0  0  0  0  0  0
    5.6110   64.7333   64.5086 H   0  0  0  0  0  0  0  0  0  0  0  0
    3.8734   64.7330   64.9803 H   0  0  0  0  0  0  0  0  0  0  0  0
    4.0671   63.0291   63.5850 H   0  0  0  0  0  0  0  0  0  0  0  0
    4.0879   71.5986   70.1649 H   0  0  0  0  0  0  0  0  0  0  0  0
    3.8171   71.9084   68.3955 H   0  0  0  0  0  0  0  0  0  0  0  0
    4.0703   69.1895   68.4179 H   0  0  0  0  0  0  0  0  0  0  0  0
    3.2905   69.4906   70.0236 H   0  0  0  0  0  0  0  0  0  0  0  0
    1.1886   69.9879   66.2790 H   0  0  0  0  0  0  0  0  0  0  0  0
    0.5504   67.8579   65.1950 H   0  0  0  0  0  0  0  0  0  0  0  0
    0.0730   67.2598   66.8369 H   0  0  0  0  0  0  0  0  0  0  0  0
   -1.2741   69.7603   66.1548 H   0  0  0  0  0  0  0  0  0  0  0  0
   -1.5814   68.4342   64.9386 H   0  0  0  0  0  0  0  0  0  0  0  0
   -2.6462   68.7920   67.6266 H   0  0  0  0  0  0  0  0  0  0  0  0
   -3.1422   67.6767   66.2678 H   0  0  0  0  0  0  0  0  0  0  0  0
   -1.8628   67.0206   68.7431 H   0  0  0  0  0  0  0  0  0  0  0  0
   -2.3649   65.9417   67.3975 H   0  0  0  0  0  0  0  0  0  0  0  0
   -0.7245   66.6738   67.3975 H   0  0  0  0  0  0  0  0  0  0  0  0
  2  1  1  0
  3  2  1  0
  4  3  1  0
  5  4  1  0
  6  5  1  0
  7  6  1  0
  8  7  1  0
  9  8  1  0
 10  9  1  0
 11 10  1  0
 12  1  1  0
 13 12  1  0
 14 13  1  0
 15 14  1  0
 16 15  2  0
 17 15  1  0
 18 17  1  0
 19 18  1  0
 20 19  1  0
 21 20  1  0
  1 22  1  0
  1 23  1  0
  2 24  1  0
  2 25  1  0
  3 26  1  0
  3 27  1  0
  4 28  1  0
  4 29  1  0
  5 30  1  0
  5 31  1  0
  6 32  1  0
  6 33  1  0
  7 34  1  0
  7 35  1  0
  8 36  1  0
  8 37  1  0
  9 38  1  0
  9 39  1  0
 10 40  1  0
 10 41  1  0
 11 42  1  0
 12 43  1  0
 12 44  1  0
 13 45  1  0
 13 46  1  0
 17 47  1  0
 18 48  1  0
 18 49  1  0
 19 50  1  0
 19 51  1  0
 20 52  1  0
 20 53  1  0
 21 54  1  0
 21 55  1  0
 21 56  1  0
M  END
>  <score>  (8) 
-6.594

$$$$
=
     RDKit          3D

 56 55  0  0  0  0  0  0  0  0999 V2000
    2.1740   64.5400   70.3630 C   0  0  0  0  0  0  0  0  0  0  0  0
    2.4280   63.0490   70.1180 C   0  0  0  0  0  0  0  0  0  0  0  0
    3.8090   62.6820   69.5650 C   0  0  0  0  0  0  0  0  0  0  0  0
    4.9220   62.7530   70.6110 C   0  0  0  0  0  0  0  0  0  0  0  0
    5.4230   61.3770   71.0650 C   0  0  0  0  0  0  0  0  0  0  0  0
    5.1740   61.0170   72.5350 C   0  0  0  0  0  0  0  0  0  0  0  0
    3.7400   60.5630   72.8170 C   0  0  0  0  0  0  0  0  0  0  0  0
    3.6010   59.0460   72.9710 C   0  0  0  0  0  0  0  0  0  0  0  0
    2.5370   58.3790   72.0910 C   0  0  0  0  0  0  0  0  0  0  0  0
    3.0940   57.5370   70.9500 C   0  0  0  0  0  0  0  0  0  0  0  0
    3.8150   58.3600   70.0440 O   0  0  0  0  0  0  0  0  0  0  0  0
    0.6960   64.9320   70.2660 C   0  0  0  0  0  0  0  0  0  0  0  0
    0.5040   66.4460   70.2020 C   0  0  0  0  0  0  0  0  0  0  0  0
    0.0750   66.8640   68.8980 O   0  0  0  0  0  0  0  0  0  0  0  0
    1.0380   67.3890   68.1030 C   0  0  0  0  0  0  0  0  0  0  0  0
    1.4550   66.8940   67.0680 O   0  0  0  0  0  0  0  0  0  0  0  0
    1.4570   68.5670   68.6410 N   0  0  0  0  0  0  0  0  0  0  0  0
    2.4020   69.4360   67.9810 C   0  0  0  0  0  0  0  0  0  0  0  0
    2.9140   70.5250   68.9240 C   0  0  0  0  0  0  0  0  0  0  0  0
    4.4370   70.5580   69.0400 C   0  0  0  0  0  0  0  0  0  0  0  0
    5.1500   70.2940   67.7230 C   0  0  0  0  0  0  0  0  0  0  0  0
    2.5363   64.7941   71.3701 H   0  0  0  0  0  0  0  0  0  0  0  0
    2.7078   65.0928   69.5760 H   0  0  0  0  0  0  0  0  0  0  0  0
    2.2995   62.5244   71.0763 H   0  0  0  0  0  0  0  0  0  0  0  0
    1.7097   62.7510   69.3400 H   0  0  0  0  0  0  0  0  0  0  0  0
    3.7654   61.6556   69.1718 H   0  0  0  0  0  0  0  0  0  0  0  0
    4.0512   63.4174   68.7836 H   0  0  0  0  0  0  0  0  0  0  0  0
    5.7691   63.3075   70.1810 H   0  0  0  0  0  0  0  0  0  0  0  0
    4.5025   63.2530   71.4965 H   0  0  0  0  0  0  0  0  0  0  0  0
    4.9255   60.6171   70.4444 H   0  0  0  0  0  0  0  0  0  0  0  0
    6.5166   61.4095   70.9510 H   0  0  0  0  0  0  0  0  0  0  0  0
    5.8586   60.2028   72.8150 H   0  0  0  0  0  0  0  0  0  0  0  0
    5.3472   61.9287   73.1256 H   0  0  0  0  0  0  0  0  0  0  0  0
    3.3999   61.0405   73.7478 H   0  0  0  0  0  0  0  0  0  0  0  0
    3.1298   60.8585   71.9507 H   0  0  0  0  0  0  0  0  0  0  0  0
    4.5729   58.5919   72.7276 H   0  0  0  0  0  0  0  0  0  0  0  0
    3.2761   58.8803   74.0088 H   0  0  0  0  0  0  0  0  0  0  0  0
    1.9226   57.7275   72.7299 H   0  0  0  0  0  0  0  0  0  0  0  0
    1.9624   59.1934   71.6256 H   0  0  0  0  0  0  0  0  0  0  0  0
    3.7672   56.7693   71.3591 H   0  0  0  0  0  0  0  0  0  0  0  0
    2.2606   57.0571   70.4160 H   0  0  0  0  0  0  0  0  0  0  0  0
    4.3748   58.9989   70.5524 H   0  0  0  0  0  0  0  0  0  0  0  0
    0.2690   64.4820   69.3576 H   0  0  0  0  0  0  0  0  0  0  0  0
    0.1891   64.5651   71.1707 H   0  0  0  0  0  0  0  0  0  0  0  0
   -0.2553   66.7421   70.9407 H   0  0  0  0  0  0  0  0  0  0  0  0
    1.4688   66.9272   70.4201 H   0  0  0  0  0  0  0  0  0  0  0  0
    1.0838   68.8505   69.5582 H   0  0  0  0  0  0  0  0  0  0  0  0
    3.2550   68.8363   67.6307 H   0  0  0  0  0  0  0  0  0  0  0  0
    1.8924   69.9223   67.1361 H   0  0  0  0  0  0  0  0  0  0  0  0
    2.5713   71.5007   68.5491 H   0  0  0  0  0  0  0  0  0  0  0  0
    2.5161   70.3021   69.9250 H   0  0  0  0  0  0  0  0  0  0  0  0
    4.7372   71.5510   69.4058 H   0  0  0  0  0  0  0  0  0  0  0  0
    4.7269   69.7540   69.7325 H   0  0  0  0  0  0  0  0  0  0  0  0
    6.1642   69.9185   67.9240 H   0  0  0  0  0  0  0  0  0  0  0  0
    4.5889   69.5440   67.1462 H   0  0  0  0  0  0  0  0  0  0  0  0
    5.2126   71.2285   67.1462 H   0  0  0  0  0  0  0  0  0  0  0  0
  2  1  1  0
  3  2  1  0
  4  3  1  0
  5  4  1  0
  6  5  1  0
  7  6  1  0
  8  7  1  0
  9  8  1  0
 10  9  1  0
 11 10  1  0
 12  1  1  0
 13 12  1  0
 14 13  1  0
 15 14  1  0
 16 15  2  0
 17 15  1  0
 18 17  1  0
 19 18  1  0
 20 19  1  0
 21 20  1  0
  1 22  1  0
  1 23  1  0
  2 24  1  0
  2 25  1  0
  3 26  1  0
  3 27  1  0
  4 28  1  0
  4 29  1  0
  5 30  1  0
  5 31  1  0
  6 32  1  0
  6 33  1  0
  7 34  1  0
  7 35  1  0
  8 36  1  0
  8 37  1  0
  9 38  1  0
  9 39  1  0
 10 40  1  0
 10 41  1  0
 11 42  1  0
 12 43  1  0
 12 44  1  0
 13 45  1  0
 13 46  1  0
 17 47  1  0
 18 48  1  0
 18 49  1  0
 19 50  1  0
 19 51  1  0
 20 52  1  0
 20 53  1  0
 21 54  1  0
 21 55  1  0
 21 56  1  0
M  END
>  <score>  (9) 
-6.551

$$$$
