=
     RDKit          3D

 39 41  0  0  0  0  0  0  0  0999 V2000
   -0.0360   66.4730   68.7560 C   0  0  0  0  0  0  0  0  0  0  0  0
   -1.2740   66.6840   68.1500 C   0  0  0  0  0  0  0  0  0  0  0  0
   -1.5300   67.8680   67.4510 C   0  0  0  0  0  0  0  0  0  0  0  0
   -0.5490   68.8530   67.3450 C   0  0  0  0  0  0  0  0  0  0  0  0
    0.6980   68.6510   67.9420 C   0  0  0  0  0  0  0  0  0  0  0  0
    0.9470   67.4640   68.6490 C   0  0  0  0  0  0  0  0  0  0  0  0
    0.2870   65.1390   70.8530 C   0  0  0  0  0  0  0  0  0  0  0  0
   -0.0610   65.9700   71.6860 O   0  0  0  0  0  0  0  0  0  0  0  0
    0.3020   65.3120   69.4830 N   0  0  0  0  0  0  0  0  0  0  0  0
    1.4850   59.6340   72.9590 Cl  0  0  0  0  0  0  0  0  0  0  0  0
    1.1740   61.2120   72.3520 C   0  0  0  0  0  0  0  0  0  0  0  0
   -0.1130   61.7370   72.4170 C   0  0  0  0  0  0  0  0  0  0  0  0
   -0.3610   63.0180   71.9220 C   0  0  0  0  0  0  0  0  0  0  0  0
    0.6720   63.7850   71.3510 C   0  0  0  0  0  0  0  0  0  0  0  0
    1.9680   63.2470   71.3070 C   0  0  0  0  0  0  0  0  0  0  0  0
    2.2130   61.9600   71.8030 C   0  0  0  0  0  0  0  0  0  0  0  0
    3.3350   64.1080   70.6920 Cl  0  0  0  0  0  0  0  0  0  0  0  0
    1.7840   69.6590   67.8570 C   0  0  0  0  0  0  0  0  0  0  0  0
    1.7370   70.7210   68.4700 O   0  0  0  0  0  0  0  0  0  0  0  0
    2.9840   69.3890   66.9850 C   0  0  0  0  0  0  0  0  0  0  0  0
    2.8440   68.7410   65.9560 O   0  0  0  0  0  0  0  0  0  0  0  0
    4.2890   69.9140   67.4380 C   0  0  0  0  0  0  0  0  0  0  0  0
    5.3620   69.9380   66.5540 C   0  0  0  0  0  0  0  0  0  0  0  0
    6.5840   70.4180   67.0140 C   0  0  0  0  0  0  0  0  0  0  0  0
    6.6950   70.8490   68.3320 C   0  0  0  0  0  0  0  0  0  0  0  0
    5.5730   70.7810   69.1440 C   0  0  0  0  0  0  0  0  0  0  0  0
    4.3730   70.3180   68.7310 N   0  0  0  0  0  0  0  0  0  0  0  0
   -2.0554   65.9132   68.2223 H   0  0  0  0  0  0  0  0  0  0  0  0
   -2.5125   68.0232   66.9814 H   0  0  0  0  0  0  0  0  0  0  0  0
   -0.7554   69.7830   66.7950 H   0  0  0  0  0  0  0  0  0  0  0  0
    1.9268   67.3107   69.1249 H   0  0  0  0  0  0  0  0  0  0  0  0
    0.5947   64.4967   68.9258 H   0  0  0  0  0  0  0  0  0  0  0  0
   -0.9301   61.1458   72.8560 H   0  0  0  0  0  0  0  0  0  0  0  0
   -1.3777   63.4341   71.9788 H   0  0  0  0  0  0  0  0  0  0  0  0
    3.2283   61.5391   71.7588 H   0  0  0  0  0  0  0  0  0  0  0  0
    5.2476   69.5866   65.5179 H   0  0  0  0  0  0  0  0  0  0  0  0
    7.4541   70.4564   66.3420 H   0  0  0  0  0  0  0  0  0  0  0  0
    7.6493   71.2342   68.7205 H   0  0  0  0  0  0  0  0  0  0  0  0
    5.6655   71.1240   70.1850 H   0  0  0  0  0  0  0  0  0  0  0  0
  2  1  2  0
  3  2  1  0
  4  3  2  0
  5  4  1  0
  6  5  2  0
  6  1  1  0
  8  7  2  0
  9  7  1  0
  9  1  1  0
 11 10  1  0
 12 11  2  0
 13 12  1  0
 14 13  2  0
 14  7  1  0
 15 14  1  0
 16 15  2  0
 16 11  1  0
 17 15  1  0
 18  5  1  0
 19 18  2  0
 20 18  1  0
 21 20  2  0
 22 20  1  0
 23 22  2  0
 24 23  1  0
 25 24  2  0
 26 25  1  0
 27 22  1  0
 27 26  2  0
  2 28  1  0
  3 29  1  0
  4 30  1  0
  6 31  1  0
  9 32  1  0
 12 33  1  0
 13 34  1  0
 16 35  1  0
 23 36  1  0
 24 37  1  0
 25 38  1  0
 26 39  1  0
M  END
>  <score>  (1) 
-10.863

$$$$
=
     RDKit          3D

 39 41  0  0  0  0  0  0  0  0999 V2000
   -0.7550   66.9790   67.7910 C   0  0  0  0  0  0  0  0  0  0  0  0
   -2.0500   67.4670   67.6170 C   0  0  0  0  0  0  0  0  0  0  0  0
   -2.3510   68.3170   66.5490 C   0  0  0  0  0  0  0  0  0  0  0  0
   -1.3620   68.6860   65.6370 C   0  0  0  0  0  0  0  0  0  0  0  0
   -0.0620   68.1980   65.7950 C   0  0  0  0  0  0  0  0  0  0  0  0
    0.2360   67.3510   66.8740 C   0  0  0  0  0  0  0  0  0  0  0  0
    0.7210   66.2590   69.6840 C   0  0  0  0  0  0  0  0  0  0  0  0
    1.5290   67.1810   69.6830 O   0  0  0  0  0  0  0  0  0  0  0  0
   -0.3650   66.1220   68.8420 N   0  0  0  0  0  0  0  0  0  0  0  0
    1.0780   62.1900   74.1000 Cl  0  0  0  0  0  0  0  0  0  0  0  0
    1.0020   63.3400   72.8250 C   0  0  0  0  0  0  0  0  0  0  0  0
    0.0790   64.3800   72.8850 C   0  0  0  0  0  0  0  0  0  0  0  0
    0.0200   65.3110   71.8460 C   0  0  0  0  0  0  0  0  0  0  0  0
    0.8770   65.2080   70.7340 C   0  0  0  0  0  0  0  0  0  0  0  0
    1.8130   64.1620   70.6960 C   0  0  0  0  0  0  0  0  0  0  0  0
    1.8680   63.2280   71.7390 C   0  0  0  0  0  0  0  0  0  0  0  0
    2.9630   63.9600   69.4210 Cl  0  0  0  0  0  0  0  0  0  0  0  0
    1.0310   68.5490   64.8540 C   0  0  0  0  0  0  0  0  0  0  0  0
    0.8520   69.2920   63.8960 O   0  0  0  0  0  0  0  0  0  0  0  0
    2.4060   67.9690   65.0640 C   0  0  0  0  0  0  0  0  0  0  0  0
    2.6430   66.8300   64.6820 O   0  0  0  0  0  0  0  0  0  0  0  0
    3.4070   68.8160   65.7480 C   0  0  0  0  0  0  0  0  0  0  0  0
    4.6010   69.1230   65.1030 C   0  0  0  0  0  0  0  0  0  0  0  0
    5.5320   69.9030   65.7790 C   0  0  0  0  0  0  0  0  0  0  0  0
    5.2460   70.3440   67.0670 C   0  0  0  0  0  0  0  0  0  0  0  0
    4.0330   69.9820   67.6340 C   0  0  0  0  0  0  0  0  0  0  0  0
    3.1080   69.2240   67.0070 N   0  0  0  0  0  0  0  0  0  0  0  0
   -2.8408   67.1806   68.3260 H   0  0  0  0  0  0  0  0  0  0  0  0
   -3.3757   68.6979   66.4267 H   0  0  0  0  0  0  0  0  0  0  0  0
   -1.6037   69.3565   64.7992 H   0  0  0  0  0  0  0  0  0  0  0  0
    1.2617   66.9744   67.0010 H   0  0  0  0  0  0  0  0  0  0  0  0
   -0.9607   65.2967   68.9998 H   0  0  0  0  0  0  0  0  0  0  0  0
   -0.6000   64.4680   73.7459 H   0  0  0  0  0  0  0  0  0  0  0  0
   -0.7059   66.1359   71.8971 H   0  0  0  0  0  0  0  0  0  0  0  0
    2.5963   62.4046   71.7005 H   0  0  0  0  0  0  0  0  0  0  0  0
    4.8029   68.7581   64.0851 H   0  0  0  0  0  0  0  0  0  0  0  0
    6.4859   70.1690   65.3000 H   0  0  0  0  0  0  0  0  0  0  0  0
    5.9645   70.9648   67.6224 H   0  0  0  0  0  0  0  0  0  0  0  0
    3.8119   70.3325   68.6529 H   0  0  0  0  0  0  0  0  0  0  0  0
  2  1  2  0
  3  2  1  0
  4  3  2  0
  5  4  1  0
  6  5  2  0
  6  1  1  0
  8  7  2  0
  9  7  1  0
  9  1  1  0
 11 10  1  0
 12 11  2  0
 13 12  1  0
 14 13  2  0
 14  7  1  0
 15 14  1  0
 16 15  2  0
 16 11  1  0
 17 15  1  0
 18  5  1  0
 19 18  2  0
 20 18  1  0
 21 20  2  0
 22 20  1  0
 23 22  2  0
 24 23  1  0
 25 24  2  0
 26 25  1  0
 27 22  1  0
 27 26  2  0
  2 28  1  0
  3 29  1  0
  4 30  1  0
  6 31  1  0
  9 32  1  0
 12 33  1  0
 13 34  1  0
 16 35  1  0
 23 36  1  0
 24 37  1  0
 25 38  1  0
 26 39  1  0
M  END
>  <score>  (2) 
-10.546

$$$$
=
     RDKit          3D

 39 41  0  0  0  0  0  0  0  0999 V2000
    0.7460   64.5290   70.8620 C   0  0  0  0  0  0  0  0  0  0  0  0
    0.2090   64.3690   72.1400 C   0  0  0  0  0  0  0  0  0  0  0  0
    0.8340   63.5370   73.0740 C   0  0  0  0  0  0  0  0  0  0  0  0
    2.0070   62.8580   72.7440 C   0  0  0  0  0  0  0  0  0  0  0  0
    2.5590   63.0150   71.4700 C   0  0  0  0  0  0  0  0  0  0  0  0
    1.9230   63.8460   70.5340 C   0  0  0  0  0  0  0  0  0  0  0  0
    0.5920   66.5960   69.4540 C   0  0  0  0  0  0  0  0  0  0  0  0
    1.5620   67.2130   69.8800 O   0  0  0  0  0  0  0  0  0  0  0  0
    0.1770   65.3430   69.8600 N   0  0  0  0  0  0  0  0  0  0  0  0
   -2.8410   68.9100   65.0900 Cl  0  0  0  0  0  0  0  0  0  0  0  0
   -1.8340   68.2640   66.3250 C   0  0  0  0  0  0  0  0  0  0  0  0
   -2.3470   67.3240   67.2140 C   0  0  0  0  0  0  0  0  0  0  0  0
   -1.5260   66.8020   68.2150 C   0  0  0  0  0  0  0  0  0  0  0  0
   -0.1880   67.2200   68.3440 C   0  0  0  0  0  0  0  0  0  0  0  0
    0.3180   68.1580   67.4300 C   0  0  0  0  0  0  0  0  0  0  0  0
   -0.5090   68.6800   66.4270 C   0  0  0  0  0  0  0  0  0  0  0  0
    1.9570   68.7060   67.4380 Cl  0  0  0  0  0  0  0  0  0  0  0  0
    3.8090   62.3250   71.0630 C   0  0  0  0  0  0  0  0  0  0  0  0
    4.4170   62.6280   70.0430 O   0  0  0  0  0  0  0  0  0  0  0  0
    4.3520   61.2060   71.9160 C   0  0  0  0  0  0  0  0  0  0  0  0
    5.2720   61.4340   72.6900 O   0  0  0  0  0  0  0  0  0  0  0  0
    3.7440   59.8680   71.7540 C   0  0  0  0  0  0  0  0  0  0  0  0
    2.9480   59.3500   72.7700 C   0  0  0  0  0  0  0  0  0  0  0  0
    2.4080   58.0800   72.5990 C   0  0  0  0  0  0  0  0  0  0  0  0
    2.6810   57.3730   71.4320 C   0  0  0  0  0  0  0  0  0  0  0  0
    3.4920   57.9670   70.4760 C   0  0  0  0  0  0  0  0  0  0  0  0
    4.0350   59.1960   70.6120 N   0  0  0  0  0  0  0  0  0  0  0  0
   -0.7134   64.9016   72.4149 H   0  0  0  0  0  0  0  0  0  0  0  0
    0.3974   63.4170   74.0765 H   0  0  0  0  0  0  0  0  0  0  0  0
    2.4941   62.2034   73.4817 H   0  0  0  0  0  0  0  0  0  0  0  0
    2.3555   63.9619   69.5293 H   0  0  0  0  0  0  0  0  0  0  0  0
   -0.6450   64.9572   69.3739 H   0  0  0  0  0  0  0  0  0  0  0  0
   -3.3930   66.9945   67.1283 H   0  0  0  0  0  0  0  0  0  0  0  0
   -1.9301   66.0537   68.9126 H   0  0  0  0  0  0  0  0  0  0  0  0
   -0.1106   69.4206   65.7180 H   0  0  0  0  0  0  0  0  0  0  0  0
    2.7509   59.9292   73.6841 H   0  0  0  0  0  0  0  0  0  0  0  0
    1.7708   57.6383   73.3792 H   0  0  0  0  0  0  0  0  0  0  0  0
    2.2640   56.3678   71.2715 H   0  0  0  0  0  0  0  0  0  0  0  0
    3.7049   57.4049   69.5547 H   0  0  0  0  0  0  0  0  0  0  0  0
  2  1  2  0
  3  2  1  0
  4  3  2  0
  5  4  1  0
  6  5  2  0
  6  1  1  0
  8  7  2  0
  9  7  1  0
  9  1  1  0
 11 10  1  0
 12 11  2  0
 13 12  1  0
 14 13  2  0
 14  7  1  0
 15 14  1  0
 16 15  2  0
 16 11  1  0
 17 15  1  0
 18  5  1  0
 19 18  2  0
 20 18  1  0
 21 20  2  0
 22 20  1  0
 23 22  2  0
 24 23  1  0
 25 24  2  0
 26 25  1  0
 27 22  1  0
 27 26  2  0
  2 28  1  0
  3 29  1  0
  4 30  1  0
  6 31  1  0
  9 32  1  0
 12 33  1  0
 13 34  1  0
 16 35  1  0
 23 36  1  0
 24 37  1  0
 25 38  1  0
 26 39  1  0
M  END
>  <score>  (3) 
-10.399

$$$$
=
     RDKit          3D

 39 41  0  0  0  0  0  0  0  0999 V2000
   -0.7720   66.9670   67.8130 C   0  0  0  0  0  0  0  0  0  0  0  0
   -2.0720   67.4530   67.6680 C   0  0  0  0  0  0  0  0  0  0  0  0
   -2.3960   68.3100   66.6120 C   0  0  0  0  0  0  0  0  0  0  0  0
   -1.4260   68.6870   65.6830 C   0  0  0  0  0  0  0  0  0  0  0  0
   -0.1220   68.2000   65.8120 C   0  0  0  0  0  0  0  0  0  0  0  0
    0.1990   67.3470   66.8800 C   0  0  0  0  0  0  0  0  0  0  0  0
    0.7240   66.2540   69.6930 C   0  0  0  0  0  0  0  0  0  0  0  0
    1.5110   67.1950   69.7030 O   0  0  0  0  0  0  0  0  0  0  0  0
   -0.3610   66.1050   68.8510 N   0  0  0  0  0  0  0  0  0  0  0  0
    1.1880   62.1320   74.0490 Cl  0  0  0  0  0  0  0  0  0  0  0  0
    1.0820   63.2980   72.7900 C   0  0  0  0  0  0  0  0  0  0  0  0
    0.1400   64.3190   72.8710 C   0  0  0  0  0  0  0  0  0  0  0  0
    0.0570   65.2630   71.8460 C   0  0  0  0  0  0  0  0  0  0  0  0
    0.9070   65.1920   70.7260 C   0  0  0  0  0  0  0  0  0  0  0  0
    1.8620   64.1640   70.6670 C   0  0  0  0  0  0  0  0  0  0  0  0
    1.9420   63.2170   71.6980 C   0  0  0  0  0  0  0  0  0  0  0  0
    3.0060   64.0010   69.3820 Cl  0  0  0  0  0  0  0  0  0  0  0  0
    0.9510   68.5590   64.8520 C   0  0  0  0  0  0  0  0  0  0  0  0
    0.7070   69.0530   63.7570 O   0  0  0  0  0  0  0  0  0  0  0  0
    2.3910   68.3010   65.2170 C   0  0  0  0  0  0  0  0  0  0  0  0
    2.9720   69.0830   65.9590 O   0  0  0  0  0  0  0  0  0  0  0  0
    3.0400   67.1080   64.6330 C   0  0  0  0  0  0  0  0  0  0  0  0
    2.7740   65.8520   65.1690 C   0  0  0  0  0  0  0  0  0  0  0  0
    3.4160   64.7500   64.6140 C   0  0  0  0  0  0  0  0  0  0  0  0
    4.2970   64.9370   63.5530 C   0  0  0  0  0  0  0  0  0  0  0  0
    4.5070   66.2270   63.0900 C   0  0  0  0  0  0  0  0  0  0  0  0
    3.9040   67.3180   63.6080 N   0  0  0  0  0  0  0  0  0  0  0  0
   -2.8480   67.1595   68.3903 H   0  0  0  0  0  0  0  0  0  0  0  0
   -3.4236   68.6899   66.5129 H   0  0  0  0  0  0  0  0  0  0  0  0
   -1.6854   69.3628   64.8547 H   0  0  0  0  0  0  0  0  0  0  0  0
    1.2279   66.9723   66.9847 H   0  0  0  0  0  0  0  0  0  0  0  0
   -0.9383   65.2648   68.9987 H   0  0  0  0  0  0  0  0  0  0  0  0
   -0.5350   64.3818   73.7373 H   0  0  0  0  0  0  0  0  0  0  0  0
   -0.6831   66.0739   71.9144 H   0  0  0  0  0  0  0  0  0  0  0  0
    2.6858   62.4084   71.6440 H   0  0  0  0  0  0  0  0  0  0  0  0
    2.0744   65.7336   66.0096 H   0  0  0  0  0  0  0  0  0  0  0  0
    3.2293   63.7408   65.0097 H   0  0  0  0  0  0  0  0  0  0  0  0
    4.8142   64.0821   63.0929 H   0  0  0  0  0  0  0  0  0  0  0  0
    5.2053   66.3696   62.2522 H   0  0  0  0  0  0  0  0  0  0  0  0
  2  1  2  0
  3  2  1  0
  4  3  2  0
  5  4  1  0
  6  5  2  0
  6  1  1  0
  8  7  2  0
  9  7  1  0
  9  1  1  0
 11 10  1  0
 12 11  2  0
 13 12  1  0
 14 13  2  0
 14  7  1  0
 15 14  1  0
 16 15  2  0
 16 11  1  0
 17 15  1  0
 18  5  1  0
 19 18  2  0
 20 18  1  0
 21 20  2  0
 22 20  1  0
 23 22  2  0
 24 23  1  0
 25 24  2  0
 26 25  1  0
 27 22  1  0
 27 26  2  0
  2 28  1  0
  3 29  1  0
  4 30  1  0
  6 31  1  0
  9 32  1  0
 12 33  1  0
 13 34  1  0
 16 35  1  0
 23 36  1  0
 24 37  1  0
 25 38  1  0
 26 39  1  0
M  END
>  <score>  (4) 
-10.216

$$$$
=
     RDKit          3D

 39 41  0  0  0  0  0  0  0  0999 V2000
    2.8400   69.1450   65.8900 C   0  0  0  0  0  0  0  0  0  0  0  0
    3.6570   69.7390   66.8510 C   0  0  0  0  0  0  0  0  0  0  0  0
    5.0380   69.8320   66.6500 C   0  0  0  0  0  0  0  0  0  0  0  0
    5.6180   69.3370   65.4820 C   0  0  0  0  0  0  0  0  0  0  0  0
    4.8090   68.7460   64.5070 C   0  0  0  0  0  0  0  0  0  0  0  0
    3.4240   68.6480   64.7190 C   0  0  0  0  0  0  0  0  0  0  0  0
    0.7360   67.8860   66.4120 C   0  0  0  0  0  0  0  0  0  0  0  0
    1.2160   66.8110   66.7580 O   0  0  0  0  0  0  0  0  0  0  0  0
    1.4410   69.0060   66.0170 N   0  0  0  0  0  0  0  0  0  0  0  0
   -5.2240   68.6970   66.3980 Cl  0  0  0  0  0  0  0  0  0  0  0  0
   -3.5230   68.4490   66.4300 C   0  0  0  0  0  0  0  0  0  0  0  0
   -2.7160   69.0670   65.4790 C   0  0  0  0  0  0  0  0  0  0  0  0
   -1.3350   68.8630   65.5080 C   0  0  0  0  0  0  0  0  0  0  0  0
   -0.7480   68.0320   66.4810 C   0  0  0  0  0  0  0  0  0  0  0  0
   -1.5740   67.4280   67.4430 C   0  0  0  0  0  0  0  0  0  0  0  0
   -2.9600   67.6350   67.4100 C   0  0  0  0  0  0  0  0  0  0  0  0
   -0.9750   66.4400   68.7280 Cl  0  0  0  0  0  0  0  0  0  0  0  0
    5.3660   68.2070   63.2420 C   0  0  0  0  0  0  0  0  0  0  0  0
    6.3950   68.6490   62.7430 O   0  0  0  0  0  0  0  0  0  0  0  0
    4.6470   67.0900   62.5290 C   0  0  0  0  0  0  0  0  0  0  0  0
    4.2980   67.2470   61.3660 O   0  0  0  0  0  0  0  0  0  0  0  0
    4.3820   65.8520   63.2930 C   0  0  0  0  0  0  0  0  0  0  0  0
    3.2420   65.7670   64.0850 C   0  0  0  0  0  0  0  0  0  0  0  0
    3.0300   64.5990   64.8100 C   0  0  0  0  0  0  0  0  0  0  0  0
    3.9580   63.5650   64.7240 C   0  0  0  0  0  0  0  0  0  0  0  0
    5.0700   63.7430   63.9150 C   0  0  0  0  0  0  0  0  0  0  0  0
    5.3070   64.8650   63.2010 N   0  0  0  0  0  0  0  0  0  0  0  0
    3.2120   70.1377   67.7746 H   0  0  0  0  0  0  0  0  0  0  0  0
    5.6714   70.2989   67.4186 H   0  0  0  0  0  0  0  0  0  0  0  0
    6.7048   69.4112   65.3291 H   0  0  0  0  0  0  0  0  0  0  0  0
    2.7900   68.1745   63.9549 H   0  0  0  0  0  0  0  0  0  0  0  0
    0.8794   69.8385   65.7879 H   0  0  0  0  0  0  0  0  0  0  0  0
   -3.1637   69.7125   64.7090 H   0  0  0  0  0  0  0  0  0  0  0  0
   -0.6974   69.3581   64.7608 H   0  0  0  0  0  0  0  0  0  0  0  0
   -3.6046   67.1534   68.1600 H   0  0  0  0  0  0  0  0  0  0  0  0
    2.5270   66.6013   64.1367 H   0  0  0  0  0  0  0  0  0  0  0  0
    2.1380   64.4935   65.4449 H   0  0  0  0  0  0  0  0  0  0  0  0
    3.8127   62.6295   65.2842 H   0  0  0  0  0  0  0  0  0  0  0  0
    5.8011   62.9236   63.8510 H   0  0  0  0  0  0  0  0  0  0  0  0
  2  1  2  0
  3  2  1  0
  4  3  2  0
  5  4  1  0
  6  5  2  0
  6  1  1  0
  8  7  2  0
  9  7  1  0
  9  1  1  0
 11 10  1  0
 12 11  2  0
 13 12  1  0
 14 13  2  0
 14  7  1  0
 15 14  1  0
 16 15  2  0
 16 11  1  0
 17 15  1  0
 18  5  1  0
 19 18  2  0
 20 18  1  0
 21 20  2  0
 22 20  1  0
 23 22  2  0
 24 23  1  0
 25 24  2  0
 26 25  1  0
 27 22  1  0
 27 26  2  0
  2 28  1  0
  3 29  1  0
  4 30  1  0
  6 31  1  0
  9 32  1  0
 12 33  1  0
 13 34  1  0
 16 35  1  0
 23 36  1  0
 24 37  1  0
 25 38  1  0
 26 39  1  0
M  END
>  <score>  (5) 
-10.033

$$$$
=
     RDKit          3D

 39 41  0  0  0  0  0  0  0  0999 V2000
    0.1440   66.6060   68.6910 C   0  0  0  0  0  0  0  0  0  0  0  0
   -1.0780   66.8230   68.0540 C   0  0  0  0  0  0  0  0  0  0  0  0
   -1.3210   68.0200   67.3720 C   0  0  0  0  0  0  0  0  0  0  0  0
   -0.3420   69.0120   67.3140 C   0  0  0  0  0  0  0  0  0  0  0  0
    0.8900   68.8030   67.9410 C   0  0  0  0  0  0  0  0  0  0  0  0
    1.1240   67.6030   68.6310 C   0  0  0  0  0  0  0  0  0  0  0  0
    0.3950   65.2240   70.7670 C   0  0  0  0  0  0  0  0  0  0  0  0
    0.0000   66.0300   71.6040 O   0  0  0  0  0  0  0  0  0  0  0  0
    0.4670   65.4320   69.4030 N   0  0  0  0  0  0  0  0  0  0  0  0
    1.5870   59.6930   72.8080 Cl  0  0  0  0  0  0  0  0  0  0  0  0
    1.2770   61.2780   72.2200 C   0  0  0  0  0  0  0  0  0  0  0  0
   -0.0060   61.8090   72.3030 C   0  0  0  0  0  0  0  0  0  0  0  0
   -0.2530   63.0970   71.8230 C   0  0  0  0  0  0  0  0  0  0  0  0
    0.7780   63.8640   71.2480 C   0  0  0  0  0  0  0  0  0  0  0  0
    2.0710   63.3200   71.1860 C   0  0  0  0  0  0  0  0  0  0  0  0
    2.3150   62.0260   71.6680 C   0  0  0  0  0  0  0  0  0  0  0  0
    3.4360   64.1790   70.5650 Cl  0  0  0  0  0  0  0  0  0  0  0  0
    1.9730   69.8170   67.9080 C   0  0  0  0  0  0  0  0  0  0  0  0
    1.8510   70.9180   68.4330 O   0  0  0  0  0  0  0  0  0  0  0  0
    3.2640   69.5030   67.1970 C   0  0  0  0  0  0  0  0  0  0  0  0
    4.3120   69.4930   67.8300 O   0  0  0  0  0  0  0  0  0  0  0  0
    3.1960   69.2350   65.7440 C   0  0  0  0  0  0  0  0  0  0  0  0
    2.0090   68.7690   65.1880 C   0  0  0  0  0  0  0  0  0  0  0  0
    1.9810   68.5050   63.8230 C   0  0  0  0  0  0  0  0  0  0  0  0
    3.1300   68.7090   63.0650 C   0  0  0  0  0  0  0  0  0  0  0  0
    4.2710   69.1680   63.7070 C   0  0  0  0  0  0  0  0  0  0  0  0
    4.3330   69.4300   65.0300 N   0  0  0  0  0  0  0  0  0  0  0  0
   -1.8566   66.0468   68.0883 H   0  0  0  0  0  0  0  0  0  0  0  0
   -2.2907   68.1801   66.8781 H   0  0  0  0  0  0  0  0  0  0  0  0
   -0.5381   69.9526   66.7784 H   0  0  0  0  0  0  0  0  0  0  0  0
    2.0908   67.4444   69.1312 H   0  0  0  0  0  0  0  0  0  0  0  0
    0.7956   64.6351   68.8391 H   0  0  0  0  0  0  0  0  0  0  0  0
   -0.8217   61.2175   72.7444 H   0  0  0  0  0  0  0  0  0  0  0  0
   -1.2667   63.5178   71.8952 H   0  0  0  0  0  0  0  0  0  0  0  0
    3.3278   61.6006   71.6102 H   0  0  0  0  0  0  0  0  0  0  0  0
    1.1163   68.6135   65.8116 H   0  0  0  0  0  0  0  0  0  0  0  0
    1.0595   68.1385   63.3470 H   0  0  0  0  0  0  0  0  0  0  0  0
    3.1335   68.5111   61.9830 H   0  0  0  0  0  0  0  0  0  0  0  0
    5.1769   69.3276   63.1037 H   0  0  0  0  0  0  0  0  0  0  0  0
  2  1  2  0
  3  2  1  0
  4  3  2  0
  5  4  1  0
  6  5  2  0
  6  1  1  0
  8  7  2  0
  9  7  1  0
  9  1  1  0
 11 10  1  0
 12 11  2  0
 13 12  1  0
 14 13  2  0
 14  7  1  0
 15 14  1  0
 16 15  2  0
 16 11  1  0
 17 15  1  0
 18  5  1  0
 19 18  2  0
 20 18  1  0
 21 20  2  0
 22 20  1  0
 23 22  2  0
 24 23  1  0
 25 24  2  0
 26 25  1  0
 27 22  1  0
 27 26  2  0
  2 28  1  0
  3 29  1  0
  4 30  1  0
  6 31  1  0
  9 32  1  0
 12 33  1  0
 13 34  1  0
 16 35  1  0
 23 36  1  0
 24 37  1  0
 25 38  1  0
 26 39  1  0
M  END
>  <score>  (6) 
-9.792

$$$$
=
     RDKit          3D

 39 41  0  0  0  0  0  0  0  0999 V2000
    1.1280   64.4570   70.4850 C   0  0  0  0  0  0  0  0  0  0  0  0
    2.4850   64.1570   70.3720 C   0  0  0  0  0  0  0  0  0  0  0  0
    3.1040   63.3050   71.2930 C   0  0  0  0  0  0  0  0  0  0  0  0
    2.3710   62.7390   72.3350 C   0  0  0  0  0  0  0  0  0  0  0  0
    1.0090   63.0250   72.4560 C   0  0  0  0  0  0  0  0  0  0  0  0
    0.3950   63.8870   71.5330 C   0  0  0  0  0  0  0  0  0  0  0  0
    0.6790   66.6420   69.3430 C   0  0  0  0  0  0  0  0  0  0  0  0
    1.5890   67.3170   69.8160 O   0  0  0  0  0  0  0  0  0  0  0  0
    0.4290   65.3100   69.6050 N   0  0  0  0  0  0  0  0  0  0  0  0
   -3.1700   69.0280   65.3840 Cl  0  0  0  0  0  0  0  0  0  0  0  0
   -2.0470   68.3650   66.5040 C   0  0  0  0  0  0  0  0  0  0  0  0
   -2.4140   67.2780   67.2920 C   0  0  0  0  0  0  0  0  0  0  0  0
   -1.4990   66.7440   68.2000 C   0  0  0  0  0  0  0  0  0  0  0  0
   -0.2110   67.2950   68.3380 C   0  0  0  0  0  0  0  0  0  0  0  0
    0.1490   68.3820   67.5250 C   0  0  0  0  0  0  0  0  0  0  0  0
   -0.7720   68.9170   66.6150 C   0  0  0  0  0  0  0  0  0  0  0  0
    1.7170   69.1090   67.5490 Cl  0  0  0  0  0  0  0  0  0  0  0  0
    0.1750   62.4470   73.5390 C   0  0  0  0  0  0  0  0  0  0  0  0
    0.2390   62.8480   74.6950 O   0  0  0  0  0  0  0  0  0  0  0  0
   -0.7760   61.3200   73.2240 C   0  0  0  0  0  0  0  0  0  0  0  0
   -1.9050   61.5800   72.8280 O   0  0  0  0  0  0  0  0  0  0  0  0
   -0.2900   59.9390   73.4300 C   0  0  0  0  0  0  0  0  0  0  0  0
    0.9850   59.5890   72.9990 C   0  0  0  0  0  0  0  0  0  0  0  0
    1.4070   58.2770   73.1860 C   0  0  0  0  0  0  0  0  0  0  0  0
    0.5470   57.3640   73.7900 C   0  0  0  0  0  0  0  0  0  0  0  0
   -0.7090   57.8010   74.1810 C   0  0  0  0  0  0  0  0  0  0  0  0
   -1.1510   59.0660   74.0100 N   0  0  0  0  0  0  0  0  0  0  0  0
    3.0737   64.5938   69.5519 H   0  0  0  0  0  0  0  0  0  0  0  0
    4.1763   63.0802   71.1943 H   0  0  0  0  0  0  0  0  0  0  0  0
    2.8623   62.0710   73.0578 H   0  0  0  0  0  0  0  0  0  0  0  0
   -0.6758   64.1174   71.6346 H   0  0  0  0  0  0  0  0  0  0  0  0
   -0.3621   64.8886   69.0976 H   0  0  0  0  0  0  0  0  0  0  0  0
   -3.4198   66.8423   67.1995 H   0  0  0  0  0  0  0  0  0  0  0  0
   -1.7882   65.8803   68.8167 H   0  0  0  0  0  0  0  0  0  0  0  0
   -0.4884   69.7743   65.9869 H   0  0  0  0  0  0  0  0  0  0  0  0
    1.6428   60.3307   72.5224 H   0  0  0  0  0  0  0  0  0  0  0  0
    2.4099   57.9640   72.8600 H   0  0  0  0  0  0  0  0  0  0  0  0
    0.8567   56.3211   73.9530 H   0  0  0  0  0  0  0  0  0  0  0  0
   -1.3848   57.0759   74.6580 H   0  0  0  0  0  0  0  0  0  0  0  0
  2  1  2  0
  3  2  1  0
  4  3  2  0
  5  4  1  0
  6  5  2  0
  6  1  1  0
  8  7  2  0
  9  7  1  0
  9  1  1  0
 11 10  1  0
 12 11  2  0
 13 12  1  0
 14 13  2  0
 14  7  1  0
 15 14  1  0
 16 15  2  0
 16 11  1  0
 17 15  1  0
 18  5  1  0
 19 18  2  0
 20 18  1  0
 21 20  2  0
 22 20  1  0
 23 22  2  0
 24 23  1  0
 25 24  2  0
 26 25  1  0
 27 22  1  0
 27 26  2  0
  2 28  1  0
  3 29  1  0
  4 30  1  0
  6 31  1  0
  9 32  1  0
 12 33  1  0
 13 34  1  0
 16 35  1  0
 23 36  1  0
 24 37  1  0
 25 38  1  0
 26 39  1  0
M  END
>  <score>  (7) 
-9.718

$$$$
=
     RDKit          3D

 39 41  0  0  0  0  0  0  0  0999 V2000
    1.2480   67.0440   68.9600 C   0  0  0  0  0  0  0  0  0  0  0  0
    2.0060   68.1460   69.3550 C   0  0  0  0  0  0  0  0  0  0  0  0
    1.9020   69.3620   68.6710 C   0  0  0  0  0  0  0  0  0  0  0  0
    1.0360   69.4900   67.5850 C   0  0  0  0  0  0  0  0  0  0  0  0
    0.2660   68.3950   67.1840 C   0  0  0  0  0  0  0  0  0  0  0  0
    0.3800   67.1760   67.8700 C   0  0  0  0  0  0  0  0  0  0  0  0
    0.6690   65.3990   70.7600 C   0  0  0  0  0  0  0  0  0  0  0  0
   -0.0780   66.0910   71.4450 O   0  0  0  0  0  0  0  0  0  0  0  0
    1.2970   65.7830   69.5920 N   0  0  0  0  0  0  0  0  0  0  0  0
    1.1610   59.6930   72.6000 Cl  0  0  0  0  0  0  0  0  0  0  0  0
    1.0520   61.3240   72.0670 C   0  0  0  0  0  0  0  0  0  0  0  0
   -0.1310   62.0340   72.2500 C   0  0  0  0  0  0  0  0  0  0  0  0
   -0.2150   63.3580   71.8150 C   0  0  0  0  0  0  0  0  0  0  0  0
    0.8770   63.9830   71.1850 C   0  0  0  0  0  0  0  0  0  0  0  0
    2.0690   63.2580   71.0220 C   0  0  0  0  0  0  0  0  0  0  0  0
    2.1500   61.9280   71.4590 C   0  0  0  0  0  0  0  0  0  0  0  0
    3.5020   63.9270   70.3240 Cl  0  0  0  0  0  0  0  0  0  0  0  0
   -0.6780   68.4730   66.0420 C   0  0  0  0  0  0  0  0  0  0  0  0
   -1.8900   68.5660   66.2040 O   0  0  0  0  0  0  0  0  0  0  0  0
   -0.1460   68.4240   64.6320 C   0  0  0  0  0  0  0  0  0  0  0  0
   -0.8880   68.7040   63.7000 O   0  0  0  0  0  0  0  0  0  0  0  0
    1.2640   68.0160   64.4490 C   0  0  0  0  0  0  0  0  0  0  0  0
    2.2170   68.9730   64.1200 C   0  0  0  0  0  0  0  0  0  0  0  0
    3.5310   68.5560   63.9320 C   0  0  0  0  0  0  0  0  0  0  0  0
    3.8450   67.2090   64.0730 C   0  0  0  0  0  0  0  0  0  0  0  0
    2.8270   66.3240   64.3960 C   0  0  0  0  0  0  0  0  0  0  0  0
    1.5420   66.6940   64.5810 N   0  0  0  0  0  0  0  0  0  0  0  0
    2.6911   68.0584   70.2112 H   0  0  0  0  0  0  0  0  0  0  0  0
    2.5071   70.2228   68.9917 H   0  0  0  0  0  0  0  0  0  0  0  0
    0.9597   70.4468   67.0477 H   0  0  0  0  0  0  0  0  0  0  0  0
   -0.2207   66.3130   67.5468 H   0  0  0  0  0  0  0  0  0  0  0  0
    1.8691   65.0640   69.1267 H   0  0  0  0  0  0  0  0  0  0  0  0
   -0.9946   61.5549   72.7344 H   0  0  0  0  0  0  0  0  0  0  0  0
   -1.1480   63.9205   71.9669 H   0  0  0  0  0  0  0  0  0  0  0  0
    3.0823   61.3607   71.3214 H   0  0  0  0  0  0  0  0  0  0  0  0
    1.9396   70.0319   64.0112 H   0  0  0  0  0  0  0  0  0  0  0  0
    4.3136   69.2848   63.6744 H   0  0  0  0  0  0  0  0  0  0  0  0
    4.8763   66.8535   63.9317 H   0  0  0  0  0  0  0  0  0  0  0  0
    3.0813   65.2597   64.5078 H   0  0  0  0  0  0  0  0  0  0  0  0
  2  1  2  0
  3  2  1  0
  4  3  2  0
  5  4  1  0
  6  5  2  0
  6  1  1  0
  8  7  2  0
  9  7  1  0
  9  1  1  0
 11 10  1  0
 12 11  2  0
 13 12  1  0
 14 13  2  0
 14  7  1  0
 15 14  1  0
 16 15  2  0
 16 11  1  0
 17 15  1  0
 18  5  1  0
 19 18  2  0
 20 18  1  0
 21 20  2  0
 22 20  1  0
 23 22  2  0
 24 23  1  0
 25 24  2  0
 26 25  1  0
 27 22  1  0
 27 26  2  0
  2 28  1  0
  3 29  1  0
  4 30  1  0
  6 31  1  0
  9 32  1  0
 12 33  1  0
 13 34  1  0
 16 35  1  0
 23 36  1  0
 24 37  1  0
 25 38  1  0
 26 39  1  0
M  END
>  <score>  (8) 
-9.697

$$$$
=
     RDKit          3D

 39 41  0  0  0  0  0  0  0  0999 V2000
   -0.0770   66.6070   69.0930 C   0  0  0  0  0  0  0  0  0  0  0  0
   -1.3400   66.7450   68.5180 C   0  0  0  0  0  0  0  0  0  0  0  0
   -1.4860   67.3370   67.2590 C   0  0  0  0  0  0  0  0  0  0  0  0
   -0.3690   67.7930   66.5580 C   0  0  0  0  0  0  0  0  0  0  0  0
    0.9020   67.6530   67.1200 C   0  0  0  0  0  0  0  0  0  0  0  0
    1.0410   67.0650   68.3880 C   0  0  0  0  0  0  0  0  0  0  0  0
    0.2200   64.6850   70.6740 C   0  0  0  0  0  0  0  0  0  0  0  0
    0.1140   63.7480   69.8890 O   0  0  0  0  0  0  0  0  0  0  0  0
    0.1570   66.0280   70.3590 N   0  0  0  0  0  0  0  0  0  0  0  0
    1.1540   63.6320   76.5220 Cl  0  0  0  0  0  0  0  0  0  0  0  0
    0.9100   63.9120   74.8440 C   0  0  0  0  0  0  0  0  0  0  0  0
    0.0450   64.9200   74.4290 C   0  0  0  0  0  0  0  0  0  0  0  0
   -0.1500   65.1430   73.0650 C   0  0  0  0  0  0  0  0  0  0  0  0
    0.5090   64.3560   72.1020 C   0  0  0  0  0  0  0  0  0  0  0  0
    1.3900   63.3530   72.5370 C   0  0  0  0  0  0  0  0  0  0  0  0
    1.5830   63.1310   73.9070 C   0  0  0  0  0  0  0  0  0  0  0  0
    2.3090   62.3610   71.4600 Cl  0  0  0  0  0  0  0  0  0  0  0  0
    2.1280   68.1120   66.4210 C   0  0  0  0  0  0  0  0  0  0  0  0
    2.6670   69.1810   66.6840 O   0  0  0  0  0  0  0  0  0  0  0  0
    2.7330   67.2510   65.3400 C   0  0  0  0  0  0  0  0  0  0  0  0
    2.5530   66.0410   65.3660 O   0  0  0  0  0  0  0  0  0  0  0  0
    3.5390   67.9270   64.3020 C   0  0  0  0  0  0  0  0  0  0  0  0
    2.9790   68.1760   63.0530 C   0  0  0  0  0  0  0  0  0  0  0  0
    3.7680   68.7930   62.0880 C   0  0  0  0  0  0  0  0  0  0  0  0
    5.0810   69.1340   62.3980 C   0  0  0  0  0  0  0  0  0  0  0  0
    5.5580   68.8390   63.6660 C   0  0  0  0  0  0  0  0  0  0  0  0
    4.8200   68.2390   64.6250 N   0  0  0  0  0  0  0  0  0  0  0  0
   -2.2281   66.3856   69.0585 H   0  0  0  0  0  0  0  0  0  0  0  0
   -2.4883   67.4438   66.8186 H   0  0  0  0  0  0  0  0  0  0  0  0
   -0.4886   68.2597   65.5691 H   0  0  0  0  0  0  0  0  0  0  0  0
    2.0421   66.9633   68.8324 H   0  0  0  0  0  0  0  0  0  0  0  0
    0.2973   66.6848   71.1399 H   0  0  0  0  0  0  0  0  0  0  0  0
   -0.4819   65.5373   75.1715 H   0  0  0  0  0  0  0  0  0  0  0  0
   -0.8282   65.9450   72.7381 H   0  0  0  0  0  0  0  0  0  0  0  0
    2.2674   62.3383   74.2434 H   0  0  0  0  0  0  0  0  0  0  0  0
    1.9390   67.8922   62.8343 H   0  0  0  0  0  0  0  0  0  0  0  0
    3.3584   69.0091   61.0902 H   0  0  0  0  0  0  0  0  0  0  0  0
    5.7253   69.6260   61.6545 H   0  0  0  0  0  0  0  0  0  0  0  0
    6.5973   69.1091   63.9047 H   0  0  0  0  0  0  0  0  0  0  0  0
  2  1  2  0
  3  2  1  0
  4  3  2  0
  5  4  1  0
  6  5  2  0
  6  1  1  0
  8  7  2  0
  9  7  1  0
  9  1  1  0
 11 10  1  0
 12 11  2  0
 13 12  1  0
 14 13  2  0
 14  7  1  0
 15 14  1  0
 16 15  2  0
 16 11  1  0
 17 15  1  0
 18  5  1  0
 19 18  2  0
 20 18  1  0
 21 20  2  0
 22 20  1  0
 23 22  2  0
 24 23  1  0
 25 24  2  0
 26 25  1  0
 27 22  1  0
 27 26  2  0
  2 28  1  0
  3 29  1  0
  4 30  1  0
  6 31  1  0
  9 32  1  0
 12 33  1  0
 13 34  1  0
 16 35  1  0
 23 36  1  0
 24 37  1  0
 25 38  1  0
 26 39  1  0
M  END
>  <score>  (9) 
-9.432

$$$$
