=
     RDKit          3D

 16 17  0  0  0  0  0  0  0  0999 V2000
    2.8510   68.2310   63.2780 O   0  0  0  0  0  0  0  0  0  0  0  0
    3.7470   68.7020   63.9380 C   0  0  0  0  0  0  0  0  0  0  0  0
    5.2050   68.9980   63.4940 C   0  0  0  0  0  0  0  0  0  0  0  0
    5.6770   68.8020   62.3980 O   0  0  0  0  0  0  0  0  0  0  0  0
    5.8220   69.5250   64.6100 N   0  0  0  0  0  0  0  0  0  0  0  0
    4.9400   69.5950   65.6940 C   0  0  0  0  0  0  0  0  0  0  0  0
    3.6810   69.1140   65.3430 C   0  0  0  0  0  0  0  0  0  0  0  0
    2.6230   69.0710   66.2290 C   0  0  0  0  0  0  0  0  0  0  0  0
    2.8600   69.5400   67.5240 C   0  0  0  0  0  0  0  0  0  0  0  0
    4.1320   70.0320   67.8970 C   0  0  0  0  0  0  0  0  0  0  0  0
    5.1910   70.0630   66.9750 C   0  0  0  0  0  0  0  0  0  0  0  0
    6.7630   70.6520   67.3710 Cl  0  0  0  0  0  0  0  0  0  0  0  0
    4.3190   70.5880   69.5240 Cl  0  0  0  0  0  0  0  0  0  0  0  0
    6.8059   69.8281   64.6411 H   0  0  0  0  0  0  0  0  0  0  0  0
    1.6376   68.6849   65.9290 H   0  0  0  0  0  0  0  0  0  0  0  0
    2.0457   69.5262   68.2634 H   0  0  0  0  0  0  0  0  0  0  0  0
  2  1  2  0
  3  2  1  0
  4  3  2  0
  5  3  1  0
  6  5  1  0
  7  2  1  0
  7  6  2  0
  8  7  1  0
  9  8  2  0
 10  9  1  0
 11 10  2  0
 11  6  1  0
 12 11  1  0
 13 10  1  0
  5 14  1  0
  8 15  1  0
  9 16  1  0
M  END
>  <score>  (1) 
-8.073

$$$$
=
     RDKit          3D

 16 17  0  0  0  0  0  0  0  0999 V2000
    0.3950   67.9730   64.8810 O   0  0  0  0  0  0  0  0  0  0  0  0
    0.9080   68.4570   65.8620 C   0  0  0  0  0  0  0  0  0  0  0  0
    0.2470   68.7540   67.2350 C   0  0  0  0  0  0  0  0  0  0  0  0
   -0.9040   68.5430   67.5400 O   0  0  0  0  0  0  0  0  0  0  0  0
    1.2520   69.3010   68.0070 N   0  0  0  0  0  0  0  0  0  0  0  0
    2.4530   69.3840   67.2960 C   0  0  0  0  0  0  0  0  0  0  0  0
    2.3010   68.8900   66.0030 C   0  0  0  0  0  0  0  0  0  0  0  0
    3.3350   68.8570   65.0890 C   0  0  0  0  0  0  0  0  0  0  0  0
    4.5740   69.3470   65.5130 C   0  0  0  0  0  0  0  0  0  0  0  0
    4.7450   69.8520   66.8220 C   0  0  0  0  0  0  0  0  0  0  0  0
    3.6750   69.8740   67.7310 C   0  0  0  0  0  0  0  0  0  0  0  0
    3.8240   70.4770   69.3400 Cl  0  0  0  0  0  0  0  0  0  0  0  0
    6.3170   70.4340   67.2450 Cl  0  0  0  0  0  0  0  0  0  0  0  0
    1.1324   69.6088   68.9826 H   0  0  0  0  0  0  0  0  0  0  0  0
    3.1906   68.4627   64.0723 H   0  0  0  0  0  0  0  0  0  0  0  0
    5.4271   69.3394   64.8186 H   0  0  0  0  0  0  0  0  0  0  0  0
  2  1  2  0
  3  2  1  0
  4  3  2  0
  5  3  1  0
  6  5  1  0
  7  2  1  0
  7  6  2  0
  8  7  1  0
  9  8  2  0
 10  9  1  0
 11 10  2  0
 11  6  1  0
 12 11  1  0
 13 10  1  0
  5 14  1  0
  8 15  1  0
  9 16  1  0
M  END
>  <score>  (2) 
-7.891

$$$$
=
     RDKit          3D

 16 17  0  0  0  0  0  0  0  0999 V2000
    2.8990   68.4340   61.8680 O   0  0  0  0  0  0  0  0  0  0  0  0
    2.5950   68.5660   63.0300 C   0  0  0  0  0  0  0  0  0  0  0  0
    1.2080   68.3230   63.6850 C   0  0  0  0  0  0  0  0  0  0  0  0
    0.2010   67.9560   63.1240 O   0  0  0  0  0  0  0  0  0  0  0  0
    1.3860   68.6140   65.0230 N   0  0  0  0  0  0  0  0  0  0  0  0
    2.7020   69.0080   65.2870 C   0  0  0  0  0  0  0  0  0  0  0  0
    3.4690   68.9950   64.1250 C   0  0  0  0  0  0  0  0  0  0  0  0
    4.8040   69.3430   64.1070 C   0  0  0  0  0  0  0  0  0  0  0  0
    5.3800   69.7160   65.3250 C   0  0  0  0  0  0  0  0  0  0  0  0
    4.6160   69.7350   66.5140 C   0  0  0  0  0  0  0  0  0  0  0  0
    3.2580   69.3770   66.5030 C   0  0  0  0  0  0  0  0  0  0  0  0
    2.2750   69.3790   67.9210 Cl  0  0  0  0  0  0  0  0  0  0  0  0
    5.4240   70.2130   67.9660 Cl  0  0  0  0  0  0  0  0  0  0  0  0
    0.6448   68.5493   65.7353 H   0  0  0  0  0  0  0  0  0  0  0  0
    5.3891   69.3276   63.1757 H   0  0  0  0  0  0  0  0  0  0  0  0
    6.4425   69.9986   65.3585 H   0  0  0  0  0  0  0  0  0  0  0  0
  2  1  2  0
  3  2  1  0
  4  3  2  0
  5  3  1  0
  6  5  1  0
  7  2  1  0
  7  6  2  0
  8  7  1  0
  9  8  2  0
 10  9  1  0
 11 10  2  0
 11  6  1  0
 12 11  1  0
 13 10  1  0
  5 14  1  0
  8 15  1  0
  9 16  1  0
M  END
>  <score>  (3) 
-7.827

$$$$
=
     RDKit          3D

 16 17  0  0  0  0  0  0  0  0999 V2000
    5.5140   69.1300   62.9770 O   0  0  0  0  0  0  0  0  0  0  0  0
    4.5880   69.0880   63.7530 C   0  0  0  0  0  0  0  0  0  0  0  0
    3.1290   68.6360   63.4730 C   0  0  0  0  0  0  0  0  0  0  0  0
    2.6870   68.2460   62.4160 O   0  0  0  0  0  0  0  0  0  0  0  0
    2.4710   68.7750   64.6780 N   0  0  0  0  0  0  0  0  0  0  0  0
    3.3290   69.2570   65.6730 C   0  0  0  0  0  0  0  0  0  0  0  0
    4.6110   69.4610   65.1700 C   0  0  0  0  0  0  0  0  0  0  0  0
    5.6520   69.9330   65.9440 C   0  0  0  0  0  0  0  0  0  0  0  0
    5.3720   70.2070   67.2860 C   0  0  0  0  0  0  0  0  0  0  0  0
    4.0750   70.0060   67.8130 C   0  0  0  0  0  0  0  0  0  0  0  0
    3.0350   69.5240   67.0010 C   0  0  0  0  0  0  0  0  0  0  0  0
    1.4350   69.2590   67.5880 Cl  0  0  0  0  0  0  0  0  0  0  0  0
    3.8360   70.3750   69.4850 Cl  0  0  0  0  0  0  0  0  0  0  0  0
    1.4763   68.5526   64.8261 H   0  0  0  0  0  0  0  0  0  0  0  0
    6.6568   70.0866   65.5237 H   0  0  0  0  0  0  0  0  0  0  0  0
    6.1713   70.5840   67.9410 H   0  0  0  0  0  0  0  0  0  0  0  0
  2  1  2  0
  3  2  1  0
  4  3  2  0
  5  3  1  0
  6  5  1  0
  7  2  1  0
  7  6  2  0
  8  7  1  0
  9  8  2  0
 10  9  1  0
 11 10  2  0
 11  6  1  0
 12 11  1  0
 13 10  1  0
  5 14  1  0
  8 15  1  0
  9 16  1  0
M  END
>  <score>  (4) 
-7.817

$$$$
=
     RDKit          3D

 16 17  0  0  0  0  0  0  0  0999 V2000
    6.2350   70.7710   68.1520 O   0  0  0  0  0  0  0  0  0  0  0  0
    5.1420   70.3690   67.8330 C   0  0  0  0  0  0  0  0  0  0  0  0
    3.8660   70.2760   68.7130 C   0  0  0  0  0  0  0  0  0  0  0  0
    3.7680   70.5980   69.8750 O   0  0  0  0  0  0  0  0  0  0  0  0
    2.8930   69.7550   67.8840 N   0  0  0  0  0  0  0  0  0  0  0  0
    3.3950   69.5100   66.6020 C   0  0  0  0  0  0  0  0  0  0  0  0
    4.7400   69.8620   66.5180 C   0  0  0  0  0  0  0  0  0  0  0  0
    5.4790   69.7210   65.3610 C   0  0  0  0  0  0  0  0  0  0  0  0
    4.8180   69.2010   64.2440 C   0  0  0  0  0  0  0  0  0  0  0  0
    3.4530   68.8380   64.3120 C   0  0  0  0  0  0  0  0  0  0  0  0
    2.7260   68.9920   65.5040 C   0  0  0  0  0  0  0  0  0  0  0  0
    1.0600   68.5690   65.6470 Cl  0  0  0  0  0  0  0  0  0  0  0  0
    2.7310   68.2040   62.8750 Cl  0  0  0  0  0  0  0  0  0  0  0  0
    1.9217   69.5704   68.1727 H   0  0  0  0  0  0  0  0  0  0  0  0
    6.5409   70.0051   65.3194 H   0  0  0  0  0  0  0  0  0  0  0  0
    5.3672   69.0726   63.2996 H   0  0  0  0  0  0  0  0  0  0  0  0
  2  1  2  0
  3  2  1  0
  4  3  2  0
  5  3  1  0
  6  5  1  0
  7  2  1  0
  7  6  2  0
  8  7  1  0
  9  8  2  0
 10  9  1  0
 11 10  2  0
 11  6  1  0
 12 11  1  0
 13 10  1  0
  5 14  1  0
  8 15  1  0
  9 16  1  0
M  END
>  <score>  (5) 
-7.698

$$$$
=
     RDKit          3D

 16 17  0  0  0  0  0  0  0  0999 V2000
    0.0340   68.9320   67.7670 O   0  0  0  0  0  0  0  0  0  0  0  0
    0.9880   68.9350   67.0270 C   0  0  0  0  0  0  0  0  0  0  0  0
    1.0510   68.4530   65.5520 C   0  0  0  0  0  0  0  0  0  0  0  0
    0.1380   67.9950   64.9040 O   0  0  0  0  0  0  0  0  0  0  0  0
    2.3570   68.6650   65.1590 N   0  0  0  0  0  0  0  0  0  0  0  0
    3.1180   69.2150   66.1960 C   0  0  0  0  0  0  0  0  0  0  0  0
    2.3430   69.3970   67.3390 C   0  0  0  0  0  0  0  0  0  0  0  0
    2.8500   69.9250   68.5100 C   0  0  0  0  0  0  0  0  0  0  0  0
    4.2010   70.2820   68.5120 C   0  0  0  0  0  0  0  0  0  0  0  0
    5.0020   70.1030   67.3610 C   0  0  0  0  0  0  0  0  0  0  0  0
    4.4600   69.5640   66.1830 C   0  0  0  0  0  0  0  0  0  0  0  0
    5.3860   69.3230   64.7480 Cl  0  0  0  0  0  0  0  0  0  0  0  0
    6.6610   70.5770   67.4710 Cl  0  0  0  0  0  0  0  0  0  0  0  0
    2.7244   68.4462   64.2219 H   0  0  0  0  0  0  0  0  0  0  0  0
    2.2188   70.0585   69.4010 H   0  0  0  0  0  0  0  0  0  0  0  0
    4.6477   70.7085   69.4223 H   0  0  0  0  0  0  0  0  0  0  0  0
  2  1  2  0
  3  2  1  0
  4  3  2  0
  5  3  1  0
  6  5  1  0
  7  2  1  0
  7  6  2  0
  8  7  1  0
  9  8  2  0
 10  9  1  0
 11 10  2  0
 11  6  1  0
 12 11  1  0
 13 10  1  0
  5 14  1  0
  8 15  1  0
  9 16  1  0
M  END
>  <score>  (6) 
-7.674

$$$$
=
     RDKit          3D

 16 17  0  0  0  0  0  0  0  0999 V2000
    0.8130   68.8660   67.9890 O   0  0  0  0  0  0  0  0  0  0  0  0
    0.9900   68.7220   66.8030 C   0  0  0  0  0  0  0  0  0  0  0  0
   -0.0400   68.2630   65.7350 C   0  0  0  0  0  0  0  0  0  0  0  0
   -1.1980   67.9750   65.9290 O   0  0  0  0  0  0  0  0  0  0  0  0
    0.6550   68.2610   64.5420 N   0  0  0  0  0  0  0  0  0  0  0  0
    1.9830   68.6590   64.7260 C   0  0  0  0  0  0  0  0  0  0  0  0
    2.2360   68.9470   66.0650 C   0  0  0  0  0  0  0  0  0  0  0  0
    3.4710   69.3630   66.5210 C   0  0  0  0  0  0  0  0  0  0  0  0
    4.4880   69.4900   65.5700 C   0  0  0  0  0  0  0  0  0  0  0  0
    4.2490   69.2010   64.2070 C   0  0  0  0  0  0  0  0  0  0  0  0
    2.9820   68.7790   63.7720 C   0  0  0  0  0  0  0  0  0  0  0  0
    2.6300   68.4130   62.1230 Cl  0  0  0  0  0  0  0  0  0  0  0  0
    5.5760   69.3900   63.1140 Cl  0  0  0  0  0  0  0  0  0  0  0  0
    0.2475   67.9998   63.6328 H   0  0  0  0  0  0  0  0  0  0  0  0
    3.6468   69.5844   67.5840 H   0  0  0  0  0  0  0  0  0  0  0  0
    5.4885   69.8195   65.8869 H   0  0  0  0  0  0  0  0  0  0  0  0
  2  1  2  0
  3  2  1  0
  4  3  2  0
  5  3  1  0
  6  5  1  0
  7  2  1  0
  7  6  2  0
  8  7  1  0
  9  8  2  0
 10  9  1  0
 11 10  2  0
 11  6  1  0
 12 11  1  0
 13 10  1  0
  5 14  1  0
  8 15  1  0
  9 16  1  0
M  END
>  <score>  (7) 
-7.508

$$$$
=
     RDKit          3D

 16 17  0  0  0  0  0  0  0  0999 V2000
    0.6720   67.0820   67.3400 O   0  0  0  0  0  0  0  0  0  0  0  0
    0.3570   67.6810   66.3400 C   0  0  0  0  0  0  0  0  0  0  0  0
   -0.9820   68.4110   66.0480 C   0  0  0  0  0  0  0  0  0  0  0  0
   -1.9330   68.4960   66.7920 O   0  0  0  0  0  0  0  0  0  0  0  0
   -0.8400   68.9300   64.7770 N   0  0  0  0  0  0  0  0  0  0  0  0
    0.4120   68.6180   64.2370 C   0  0  0  0  0  0  0  0  0  0  0  0
    1.1690   67.8700   65.1350 C   0  0  0  0  0  0  0  0  0  0  0  0
    2.4460   67.4290   64.8510 C   0  0  0  0  0  0  0  0  0  0  0  0
    2.9700   67.7680   63.5990 C   0  0  0  0  0  0  0  0  0  0  0  0
    2.2150   68.5260   62.6760 C   0  0  0  0  0  0  0  0  0  0  0  0
    0.9180   68.9610   62.9920 C   0  0  0  0  0  0  0  0  0  0  0  0
   -0.0510   69.8890   61.9080 Cl  0  0  0  0  0  0  0  0  0  0  0  0
    2.9570   68.8900   61.1570 Cl  0  0  0  0  0  0  0  0  0  0  0  0
   -1.5633   69.4770   64.2887 H   0  0  0  0  0  0  0  0  0  0  0  0
    3.0250   66.8381   65.5760 H   0  0  0  0  0  0  0  0  0  0  0  0
    3.9846   67.4397   63.3291 H   0  0  0  0  0  0  0  0  0  0  0  0
  2  1  2  0
  3  2  1  0
  4  3  2  0
  5  3  1  0
  6  5  1  0
  7  2  1  0
  7  6  2  0
  8  7  1  0
  9  8  2  0
 10  9  1  0
 11 10  2  0
 11  6  1  0
 12 11  1  0
 13 10  1  0
  5 14  1  0
  8 15  1  0
  9 16  1  0
M  END
>  <score>  (8) 
-6.982

$$$$
=
     RDKit          3D

 16 17  0  0  0  0  0  0  0  0999 V2000
   -0.3040   67.9850   65.6900 O   0  0  0  0  0  0  0  0  0  0  0  0
    0.8230   68.3740   65.8880 C   0  0  0  0  0  0  0  0  0  0  0  0
    1.4640   68.7890   67.2400 C   0  0  0  0  0  0  0  0  0  0  0  0
    0.9250   68.7850   68.3230 O   0  0  0  0  0  0  0  0  0  0  0  0
    2.7580   69.1530   66.9280 N   0  0  0  0  0  0  0  0  0  0  0  0
    3.0080   69.0200   65.5580 C   0  0  0  0  0  0  0  0  0  0  0  0
    1.8790   68.5560   64.8890 C   0  0  0  0  0  0  0  0  0  0  0  0
    1.8550   68.3370   63.5260 C   0  0  0  0  0  0  0  0  0  0  0  0
    3.0320   68.6020   62.8190 C   0  0  0  0  0  0  0  0  0  0  0  0
    4.1870   69.0740   63.4830 C   0  0  0  0  0  0  0  0  0  0  0  0
    4.1830   69.2880   64.8720 C   0  0  0  0  0  0  0  0  0  0  0  0
    5.5610   69.8610   65.7360 Cl  0  0  0  0  0  0  0  0  0  0  0  0
    5.5890   69.3700   62.5160 Cl  0  0  0  0  0  0  0  0  0  0  0  0
    3.4511   69.4807   67.6158 H   0  0  0  0  0  0  0  0  0  0  0  0
    0.9503   67.9704   63.0189 H   0  0  0  0  0  0  0  0  0  0  0  0
    3.0594   68.4409   61.7312 H   0  0  0  0  0  0  0  0  0  0  0  0
  2  1  2  0
  3  2  1  0
  4  3  2  0
  5  3  1  0
  6  5  1  0
  7  2  1  0
  7  6  2  0
  8  7  1  0
  9  8  2  0
 10  9  1  0
 11 10  2  0
 11  6  1  0
 12 11  1  0
 13 10  1  0
  5 14  1  0
  8 15  1  0
  9 16  1  0
M  END
>  <score>  (9) 
-6.946

$$$$
