=
     RDKit          3D

 34 35  0  0  0  0  0  0  0  0999 V2000
    1.8910   66.9400   64.9220 C   0  0  0  0  0  0  0  0  0  0  0  0
    0.7770   66.6080   65.3210 O   0  0  0  0  0  0  0  0  0  0  0  0
    3.7400   66.0250   63.4290 C   0  0  0  0  0  0  0  0  0  0  0  0
    4.6730   65.0160   63.1570 C   0  0  0  0  0  0  0  0  0  0  0  0
    4.8210   63.9360   64.0280 C   0  0  0  0  0  0  0  0  0  0  0  0
    4.0240   63.8470   65.1650 C   0  0  0  0  0  0  0  0  0  0  0  0
    3.0750   64.8370   65.4290 C   0  0  0  0  0  0  0  0  0  0  0  0
    2.9230   65.9340   64.5630 C   0  0  0  0  0  0  0  0  0  0  0  0
    4.8000   67.6000   62.0850 C   0  0  0  0  0  0  0  0  0  0  0  0
    3.5610   67.0430   62.5290 O   0  0  0  0  0  0  0  0  0  0  0  0
    2.1980   68.4130   64.8660 C   0  0  0  0  0  0  0  0  0  0  0  0
    1.6750   69.0680   63.9670 O   0  0  0  0  0  0  0  0  0  0  0  0
    3.1500   69.0280   65.8250 C   0  0  0  0  0  0  0  0  0  0  0  0
    4.4650   69.2400   65.3770 C   0  0  0  0  0  0  0  0  0  0  0  0
    5.4210   69.8130   66.2180 C   0  0  0  0  0  0  0  0  0  0  0  0
    5.0690   70.1920   67.5100 C   0  0  0  0  0  0  0  0  0  0  0  0
    3.7640   69.9960   67.9640 C   0  0  0  0  0  0  0  0  0  0  0  0
    2.8060   69.4000   67.1330 C   0  0  0  0  0  0  0  0  0  0  0  0
    1.5140   69.2760   67.5690 O   0  0  0  0  0  0  0  0  0  0  0  0
    1.3280   68.1280   68.3990 C   0  0  0  0  0  0  0  0  0  0  0  0
    5.2932   65.0756   62.2505 H   0  0  0  0  0  0  0  0  0  0  0  0
    5.5669   63.1558   63.8160 H   0  0  0  0  0  0  0  0  0  0  0  0
    4.1412   62.9982   65.8548 H   0  0  0  0  0  0  0  0  0  0  0  0
    2.4400   64.7576   66.3237 H   0  0  0  0  0  0  0  0  0  0  0  0
    5.4117   67.8750   62.9569 H   0  0  0  0  0  0  0  0  0  0  0  0
    5.3392   66.8577   61.4782 H   0  0  0  0  0  0  0  0  0  0  0  0
    4.6027   68.4960   61.4782 H   0  0  0  0  0  0  0  0  0  0  0  0
    4.7441   68.9515   64.3529 H   0  0  0  0  0  0  0  0  0  0  0  0
    6.4501   69.9645   65.8602 H   0  0  0  0  0  0  0  0  0  0  0  0
    5.8196   70.6462   68.1735 H   0  0  0  0  0  0  0  0  0  0  0  0
    3.4857   70.3113   68.9804 H   0  0  0  0  0  0  0  0  0  0  0  0
    1.3766   68.4281   69.4562 H   0  0  0  0  0  0  0  0  0  0  0  0
    0.3455   67.6797   68.1899 H   0  0  0  0  0  0  0  0  0  0  0  0
    2.1187   67.3924   68.1899 H   0  0  0  0  0  0  0  0  0  0  0  0
  2  1  2  0
  4  3  2  0
  5  4  1  0
  6  5  2  0
  7  6  1  0
  8  7  2  0
  8  3  1  0
  8  1  1  0
 10  9  1  0
 10  3  1  0
 11  1  1  0
 12 11  2  0
 13 11  1  0
 14 13  2  0
 15 14  1  0
 16 15  2  0
 17 16  1  0
 18 17  2  0
 18 13  1  0
 19 18  1  0
 20 19  1  0
  4 21  1  0
  5 22  1  0
  6 23  1  0
  7 24  1  0
  9 25  1  0
  9 26  1  0
  9 27  1  0
 14 28  1  0
 15 29  1  0
 16 30  1  0
 17 31  1  0
 20 32  1  0
 20 33  1  0
 20 34  1  0
M  END
>  <score>  (1) 
-8.861

$$$$
=
     RDKit          3D

 34 35  0  0  0  0  0  0  0  0999 V2000
    2.0760   68.4330   65.0250 C   0  0  0  0  0  0  0  0  0  0  0  0
    1.5030   69.1040   64.1700 O   0  0  0  0  0  0  0  0  0  0  0  0
    2.7210   69.3750   67.3020 C   0  0  0  0  0  0  0  0  0  0  0  0
    3.6880   69.9680   68.1250 C   0  0  0  0  0  0  0  0  0  0  0  0
    4.9770   70.2000   67.6470 C   0  0  0  0  0  0  0  0  0  0  0  0
    5.3050   69.8580   66.3380 C   0  0  0  0  0  0  0  0  0  0  0  0
    4.3390   69.2890   65.5050 C   0  0  0  0  0  0  0  0  0  0  0  0
    3.0390   69.0430   65.9790 C   0  0  0  0  0  0  0  0  0  0  0  0
    1.2870   68.0230   68.5380 C   0  0  0  0  0  0  0  0  0  0  0  0
    1.4410   69.2160   67.7660 O   0  0  0  0  0  0  0  0  0  0  0  0
    1.8160   66.9500   65.0360 C   0  0  0  0  0  0  0  0  0  0  0  0
    0.7140   66.5700   65.4250 O   0  0  0  0  0  0  0  0  0  0  0  0
    2.8800   65.9880   64.6510 C   0  0  0  0  0  0  0  0  0  0  0  0
    3.0260   64.8410   65.4490 C   0  0  0  0  0  0  0  0  0  0  0  0
    4.0020   63.8870   65.1550 C   0  0  0  0  0  0  0  0  0  0  0  0
    4.8350   64.0650   64.0540 C   0  0  0  0  0  0  0  0  0  0  0  0
    4.6940   65.1960   63.2480 C   0  0  0  0  0  0  0  0  0  0  0  0
    3.7310   66.1680   63.5520 C   0  0  0  0  0  0  0  0  0  0  0  0
    3.5610   67.2370   62.7140 O   0  0  0  0  0  0  0  0  0  0  0  0
    4.7550   67.5630   61.9990 C   0  0  0  0  0  0  0  0  0  0  0  0
    3.4282   70.2524   69.1553 H   0  0  0  0  0  0  0  0  0  0  0  0
    5.7343   70.6530   68.3037 H   0  0  0  0  0  0  0  0  0  0  0  0
    6.3228   70.0355   65.9605 H   0  0  0  0  0  0  0  0  0  0  0  0
    4.5983   69.0308   64.4676 H   0  0  0  0  0  0  0  0  0  0  0  0
    1.3192   68.2725   69.6088 H   0  0  0  0  0  0  0  0  0  0  0  0
    0.3209   67.5542   68.2996 H   0  0  0  0  0  0  0  0  0  0  0  0
    2.1024   67.3242   68.2996 H   0  0  0  0  0  0  0  0  0  0  0  0
    2.3641   64.6930   66.3150 H   0  0  0  0  0  0  0  0  0  0  0  0
    4.1125   62.9969   65.7918 H   0  0  0  0  0  0  0  0  0  0  0  0
    5.6042   63.3146   63.8191 H   0  0  0  0  0  0  0  0  0  0  0  0
    5.3426   65.3252   62.3690 H   0  0  0  0  0  0  0  0  0  0  0  0
    5.5617   67.7833   62.7136 H   0  0  0  0  0  0  0  0  0  0  0  0
    5.0476   66.7119   61.3666 H   0  0  0  0  0  0  0  0  0  0  0  0
    4.5745   68.4447   61.3666 H   0  0  0  0  0  0  0  0  0  0  0  0
  2  1  2  0
  4  3  2  0
  5  4  1  0
  6  5  2  0
  7  6  1  0
  8  7  2  0
  8  3  1  0
  8  1  1  0
 10  9  1  0
 10  3  1  0
 11  1  1  0
 12 11  2  0
 13 11  1  0
 14 13  2  0
 15 14  1  0
 16 15  2  0
 17 16  1  0
 18 17  2  0
 18 13  1  0
 19 18  1  0
 20 19  1  0
  4 21  1  0
  5 22  1  0
  6 23  1  0
  7 24  1  0
  9 25  1  0
  9 26  1  0
  9 27  1  0
 14 28  1  0
 15 29  1  0
 16 30  1  0
 17 31  1  0
 20 32  1  0
 20 33  1  0
 20 34  1  0
M  END
>  <score>  (2) 
-8.744

$$$$
=
     RDKit          3D

 34 35  0  0  0  0  0  0  0  0999 V2000
    2.2700   68.8530   66.6170 C   0  0  0  0  0  0  0  0  0  0  0  0
    2.0070   69.6450   67.5190 O   0  0  0  0  0  0  0  0  0  0  0  0
    4.6590   69.5300   66.0500 C   0  0  0  0  0  0  0  0  0  0  0  0
    5.6430   69.7570   65.0790 C   0  0  0  0  0  0  0  0  0  0  0  0
    5.3740   69.5210   63.7310 C   0  0  0  0  0  0  0  0  0  0  0  0
    4.1140   69.0750   63.3410 C   0  0  0  0  0  0  0  0  0  0  0  0
    3.1210   68.8710   64.3020 C   0  0  0  0  0  0  0  0  0  0  0  0
    3.3840   69.0980   65.6640 C   0  0  0  0  0  0  0  0  0  0  0  0
    6.2220   70.3880   67.5440 C   0  0  0  0  0  0  0  0  0  0  0  0
    4.9180   69.8310   67.3610 O   0  0  0  0  0  0  0  0  0  0  0  0
    1.3800   67.6480   66.4680 C   0  0  0  0  0  0  0  0  0  0  0  0
    1.9140   66.5810   66.1750 O   0  0  0  0  0  0  0  0  0  0  0  0
   -0.0940   67.7680   66.6100 C   0  0  0  0  0  0  0  0  0  0  0  0
   -0.7560   68.6210   65.7100 C   0  0  0  0  0  0  0  0  0  0  0  0
   -2.1400   68.7890   65.7760 C   0  0  0  0  0  0  0  0  0  0  0  0
   -2.8780   68.0990   66.7340 C   0  0  0  0  0  0  0  0  0  0  0  0
   -2.2330   67.2420   67.6260 C   0  0  0  0  0  0  0  0  0  0  0  0
   -0.8410   67.0860   67.5810 C   0  0  0  0  0  0  0  0  0  0  0  0
   -0.2310   66.1920   68.4190 O   0  0  0  0  0  0  0  0  0  0  0  0
    0.4160   66.8330   69.5200 C   0  0  0  0  0  0  0  0  0  0  0  0
    6.6348   70.1240   65.3819 H   0  0  0  0  0  0  0  0  0  0  0  0
    6.1569   69.6871   62.9763 H   0  0  0  0  0  0  0  0  0  0  0  0
    3.9011   68.8838   62.2789 H   0  0  0  0  0  0  0  0  0  0  0  0
    2.1231   68.5293   63.9898 H   0  0  0  0  0  0  0  0  0  0  0  0
    6.4343   70.4787   68.6195 H   0  0  0  0  0  0  0  0  0  0  0  0
    6.9703   69.7310   67.0767 H   0  0  0  0  0  0  0  0  0  0  0  0
    6.2647   71.3829   67.0767 H   0  0  0  0  0  0  0  0  0  0  0  0
   -0.1776   69.1614   64.9462 H   0  0  0  0  0  0  0  0  0  0  0  0
   -2.6469   69.4655   65.0722 H   0  0  0  0  0  0  0  0  0  0  0  0
   -3.9689   68.2295   66.7875 H   0  0  0  0  0  0  0  0  0  0  0  0
   -2.8212   66.6847   68.3700 H   0  0  0  0  0  0  0  0  0  0  0  0
    0.0143   66.4351   70.4636 H   0  0  0  0  0  0  0  0  0  0  0  0
    1.4980   66.6407   69.4720 H   0  0  0  0  0  0  0  0  0  0  0  0
    0.2338   67.9167   69.4720 H   0  0  0  0  0  0  0  0  0  0  0  0
  2  1  2  0
  4  3  2  0
  5  4  1  0
  6  5  2  0
  7  6  1  0
  8  7  2  0
  8  3  1  0
  8  1  1  0
 10  9  1  0
 10  3  1  0
 11  1  1  0
 12 11  2  0
 13 11  1  0
 14 13  2  0
 15 14  1  0
 16 15  2  0
 17 16  1  0
 18 17  2  0
 18 13  1  0
 19 18  1  0
 20 19  1  0
  4 21  1  0
  5 22  1  0
  6 23  1  0
  7 24  1  0
  9 25  1  0
  9 26  1  0
  9 27  1  0
 14 28  1  0
 15 29  1  0
 16 30  1  0
 17 31  1  0
 20 32  1  0
 20 33  1  0
 20 34  1  0
M  END
>  <score>  (3) 
-8.709

$$$$
=
     RDKit          3D

 34 35  0  0  0  0  0  0  0  0999 V2000
    2.2320   68.8590   66.6450 C   0  0  0  0  0  0  0  0  0  0  0  0
    1.9810   69.6560   67.5460 O   0  0  0  0  0  0  0  0  0  0  0  0
    4.6270   69.5250   66.0900 C   0  0  0  0  0  0  0  0  0  0  0  0
    5.6230   69.7280   65.1260 C   0  0  0  0  0  0  0  0  0  0  0  0
    5.3700   69.4580   63.7810 C   0  0  0  0  0  0  0  0  0  0  0  0
    4.1150   69.0010   63.3870 C   0  0  0  0  0  0  0  0  0  0  0  0
    3.1110   68.8200   64.3410 C   0  0  0  0  0  0  0  0  0  0  0  0
    3.3570   69.0810   65.7000 C   0  0  0  0  0  0  0  0  0  0  0  0
    6.1630   70.4440   67.5760 C   0  0  0  0  0  0  0  0  0  0  0  0
    4.8700   69.8590   67.3960 O   0  0  0  0  0  0  0  0  0  0  0  0
    1.3180   67.6740   66.4890 C   0  0  0  0  0  0  0  0  0  0  0  0
    1.8380   66.5800   66.2800 O   0  0  0  0  0  0  0  0  0  0  0  0
   -0.1570   67.8410   66.5250 C   0  0  0  0  0  0  0  0  0  0  0  0
   -0.8530   67.1750   67.5490 C   0  0  0  0  0  0  0  0  0  0  0  0
   -2.2410   67.2800   67.6520 C   0  0  0  0  0  0  0  0  0  0  0  0
   -2.9470   68.0610   66.7410 C   0  0  0  0  0  0  0  0  0  0  0  0
   -2.2670   68.7340   65.7260 C   0  0  0  0  0  0  0  0  0  0  0  0
   -0.8760   68.6140   65.6020 C   0  0  0  0  0  0  0  0  0  0  0  0
   -0.2170   69.3340   64.6420 O   0  0  0  0  0  0  0  0  0  0  0  0
   -0.4550   68.8310   63.3260 C   0  0  0  0  0  0  0  0  0  0  0  0
    6.6110   70.1027   65.4316 H   0  0  0  0  0  0  0  0  0  0  0  0
    6.1617   69.6061   63.0318 H   0  0  0  0  0  0  0  0  0  0  0  0
    3.9149   68.7832   62.3275 H   0  0  0  0  0  0  0  0  0  0  0  0
    2.1173   68.4695   64.0254 H   0  0  0  0  0  0  0  0  0  0  0  0
    6.3755   70.5402   68.6510 H   0  0  0  0  0  0  0  0  0  0  0  0
    6.9241   69.8025   67.1077 H   0  0  0  0  0  0  0  0  0  0  0  0
    6.1836   71.4391   67.1077 H   0  0  0  0  0  0  0  0  0  0  0  0
   -0.2979   66.5648   68.2766 H   0  0  0  0  0  0  0  0  0  0  0  0
   -2.7761   66.7467   68.4515 H   0  0  0  0  0  0  0  0  0  0  0  0
   -4.0406   68.1473   66.8216 H   0  0  0  0  0  0  0  0  0  0  0  0
   -2.8262   69.3633   65.0180 H   0  0  0  0  0  0  0  0  0  0  0  0
   -0.9246   67.8385   63.3922 H   0  0  0  0  0  0  0  0  0  0  0  0
   -1.1237   69.5178   62.7863 H   0  0  0  0  0  0  0  0  0  0  0  0
    0.5000   68.7495   62.7863 H   0  0  0  0  0  0  0  0  0  0  0  0
  2  1  2  0
  4  3  2  0
  5  4  1  0
  6  5  2  0
  7  6  1  0
  8  7  2  0
  8  3  1  0
  8  1  1  0
 10  9  1  0
 10  3  1  0
 11  1  1  0
 12 11  2  0
 13 11  1  0
 14 13  2  0
 15 14  1  0
 16 15  2  0
 17 16  1  0
 18 17  2  0
 18 13  1  0
 19 18  1  0
 20 19  1  0
  4 21  1  0
  5 22  1  0
  6 23  1  0
  7 24  1  0
  9 25  1  0
  9 26  1  0
  9 27  1  0
 14 28  1  0
 15 29  1  0
 16 30  1  0
 17 31  1  0
 20 32  1  0
 20 33  1  0
 20 34  1  0
M  END
>  <score>  (4) 
-8.593

$$$$
=
     RDKit          3D

 34 35  0  0  0  0  0  0  0  0999 V2000
    2.5240   67.3960   65.4010 C   0  0  0  0  0  0  0  0  0  0  0  0
    2.4720   66.1810   65.5800 O   0  0  0  0  0  0  0  0  0  0  0  0
    2.7990   68.3890   63.0720 C   0  0  0  0  0  0  0  0  0  0  0  0
    3.6410   68.9190   62.0860 C   0  0  0  0  0  0  0  0  0  0  0  0
    5.0040   69.0840   62.3350 C   0  0  0  0  0  0  0  0  0  0  0  0
    5.5380   68.7040   63.5620 C   0  0  0  0  0  0  0  0  0  0  0  0
    4.7080   68.1520   64.5400 C   0  0  0  0  0  0  0  0  0  0  0  0
    3.3320   67.9890   64.3050 C   0  0  0  0  0  0  0  0  0  0  0  0
    0.9390   69.1610   61.9080 C   0  0  0  0  0  0  0  0  0  0  0  0
    1.4770   68.1710   62.7890 O   0  0  0  0  0  0  0  0  0  0  0  0
    1.7860   68.2740   66.3760 C   0  0  0  0  0  0  0  0  0  0  0  0
    2.4250   69.1620   66.9360 O   0  0  0  0  0  0  0  0  0  0  0  0
    0.3560   68.0280   66.6900 C   0  0  0  0  0  0  0  0  0  0  0  0
   -0.5980   68.6850   65.8940 C   0  0  0  0  0  0  0  0  0  0  0  0
   -1.9630   68.5080   66.1240 C   0  0  0  0  0  0  0  0  0  0  0  0
   -2.3900   67.6610   67.1440 C   0  0  0  0  0  0  0  0  0  0  0  0
   -1.4530   66.9950   67.9350 C   0  0  0  0  0  0  0  0  0  0  0  0
   -0.0810   67.1880   67.7250 C   0  0  0  0  0  0  0  0  0  0  0  0
    0.8240   66.4760   68.4650 O   0  0  0  0  0  0  0  0  0  0  0  0
    0.5050   66.4720   69.8580 C   0  0  0  0  0  0  0  0  0  0  0  0
    3.2251   69.2070   61.1092 H   0  0  0  0  0  0  0  0  0  0  0  0
    5.6563   69.5146   61.5610 H   0  0  0  0  0  0  0  0  0  0  0  0
    6.6114   68.8380   63.7614 H   0  0  0  0  0  0  0  0  0  0  0  0
    5.1358   67.8414   65.5047 H   0  0  0  0  0  0  0  0  0  0  0  0
    0.4961   69.9761   62.4991 H   0  0  0  0  0  0  0  0  0  0  0  0
    1.7427   69.5630   61.2736 H   0  0  0  0  0  0  0  0  0  0  0  0
    0.1644   68.7053   61.2736 H   0  0  0  0  0  0  0  0  0  0  0  0
   -0.2649   69.3462   65.0805 H   0  0  0  0  0  0  0  0  0  0  0  0
   -2.7000   69.0362   65.5012 H   0  0  0  0  0  0  0  0  0  0  0  0
   -3.4653   67.5172   67.3259 H   0  0  0  0  0  0  0  0  0  0  0  0
   -1.7937   66.3139   68.7288 H   0  0  0  0  0  0  0  0  0  0  0  0
    1.4340   66.4836   70.4469 H   0  0  0  0  0  0  0  0  0  0  0  0
   -0.0935   67.3627   70.0997 H   0  0  0  0  0  0  0  0  0  0  0  0
   -0.0710   65.5666   70.0997 H   0  0  0  0  0  0  0  0  0  0  0  0
  2  1  2  0
  4  3  2  0
  5  4  1  0
  6  5  2  0
  7  6  1  0
  8  7  2  0
  8  3  1  0
  8  1  1  0
 10  9  1  0
 10  3  1  0
 11  1  1  0
 12 11  2  0
 13 11  1  0
 14 13  2  0
 15 14  1  0
 16 15  2  0
 17 16  1  0
 18 17  2  0
 18 13  1  0
 19 18  1  0
 20 19  1  0
  4 21  1  0
  5 22  1  0
  6 23  1  0
  7 24  1  0
  9 25  1  0
  9 26  1  0
  9 27  1  0
 14 28  1  0
 15 29  1  0
 16 30  1  0
 17 31  1  0
 20 32  1  0
 20 33  1  0
 20 34  1  0
M  END
>  <score>  (5) 
-8.207

$$$$
=
     RDKit          3D

 34 35  0  0  0  0  0  0  0  0999 V2000
    1.3300   69.2310   67.3050 C   0  0  0  0  0  0  0  0  0  0  0  0
    1.5360   70.2170   68.0080 O   0  0  0  0  0  0  0  0  0  0  0  0
   -0.1850   67.3610   68.1370 C   0  0  0  0  0  0  0  0  0  0  0  0
   -1.4300   66.7200   68.1000 C   0  0  0  0  0  0  0  0  0  0  0  0
   -2.4630   67.2250   67.3100 C   0  0  0  0  0  0  0  0  0  0  0  0
   -2.2530   68.3640   66.5370 C   0  0  0  0  0  0  0  0  0  0  0  0
   -1.0070   68.9940   66.5520 C   0  0  0  0  0  0  0  0  0  0  0  0
    0.0380   68.4980   67.3500 C   0  0  0  0  0  0  0  0  0  0  0  0
    0.3660   66.0750   69.9950 C   0  0  0  0  0  0  0  0  0  0  0  0
    0.8380   66.8130   68.8650 O   0  0  0  0  0  0  0  0  0  0  0  0
    2.4600   68.7490   66.4350 C   0  0  0  0  0  0  0  0  0  0  0  0
    2.2460   67.7760   65.7150 O   0  0  0  0  0  0  0  0  0  0  0  0
    3.7970   69.3910   66.4980 C   0  0  0  0  0  0  0  0  0  0  0  0
    4.2330   69.8400   67.7570 C   0  0  0  0  0  0  0  0  0  0  0  0
    5.4780   70.4550   67.9030 C   0  0  0  0  0  0  0  0  0  0  0  0
    6.3050   70.6160   66.7940 C   0  0  0  0  0  0  0  0  0  0  0  0
    5.8870   70.1660   65.5410 C   0  0  0  0  0  0  0  0  0  0  0  0
    4.6290   69.5690   65.3840 C   0  0  0  0  0  0  0  0  0  0  0  0
    4.2620   69.0740   64.1620 O   0  0  0  0  0  0  0  0  0  0  0  0
    5.3470   69.0590   63.2330 C   0  0  0  0  0  0  0  0  0  0  0  0
   -1.5944   65.8117   68.6983 H   0  0  0  0  0  0  0  0  0  0  0  0
   -3.4422   66.7240   67.2978 H   0  0  0  0  0  0  0  0  0  0  0  0
   -3.0668   68.7665   65.9160 H   0  0  0  0  0  0  0  0  0  0  0  0
   -0.8416   69.8879   65.9327 H   0  0  0  0  0  0  0  0  0  0  0  0
    0.6866   66.5762   70.9202 H   0  0  0  0  0  0  0  0  0  0  0  0
   -0.7325   66.0244   69.9671 H   0  0  0  0  0  0  0  0  0  0  0  0
    0.7808   65.0566   69.9671 H   0  0  0  0  0  0  0  0  0  0  0  0
    3.5863   69.7053   68.6365 H   0  0  0  0  0  0  0  0  0  0  0  0
    5.8047   70.8113   68.8911 H   0  0  0  0  0  0  0  0  0  0  0  0
    7.2875   71.0978   66.9058 H   0  0  0  0  0  0  0  0  0  0  0  0
    6.5496   70.2807   64.6705 H   0  0  0  0  0  0  0  0  0  0  0  0
    6.2999   69.0458   63.7823 H   0  0  0  0  0  0  0  0  0  0  0  0
    5.2759   68.1618   62.6006 H   0  0  0  0  0  0  0  0  0  0  0  0
    5.3007   69.9579   62.6006 H   0  0  0  0  0  0  0  0  0  0  0  0
  2  1  2  0
  4  3  2  0
  5  4  1  0
  6  5  2  0
  7  6  1  0
  8  7  2  0
  8  3  1  0
  8  1  1  0
 10  9  1  0
 10  3  1  0
 11  1  1  0
 12 11  2  0
 13 11  1  0
 14 13  2  0
 15 14  1  0
 16 15  2  0
 17 16  1  0
 18 17  2  0
 18 13  1  0
 19 18  1  0
 20 19  1  0
  4 21  1  0
  5 22  1  0
  6 23  1  0
  7 24  1  0
  9 25  1  0
  9 26  1  0
  9 27  1  0
 14 28  1  0
 15 29  1  0
 16 30  1  0
 17 31  1  0
 20 32  1  0
 20 33  1  0
 20 34  1  0
M  END
>  <score>  (6) 
-8.207

$$$$
=
     RDKit          3D

 34 35  0  0  0  0  0  0  0  0999 V2000
    1.5470   69.2650   67.6870 C   0  0  0  0  0  0  0  0  0  0  0  0
    1.2230   70.4130   67.9830 O   0  0  0  0  0  0  0  0  0  0  0  0
   -0.3320   67.5520   67.8370 C   0  0  0  0  0  0  0  0  0  0  0  0
   -0.9000   66.4490   68.4870 C   0  0  0  0  0  0  0  0  0  0  0  0
   -0.2500   65.8540   69.5690 C   0  0  0  0  0  0  0  0  0  0  0  0
    0.9620   66.3690   70.0210 C   0  0  0  0  0  0  0  0  0  0  0  0
    1.5210   67.4840   69.3920 C   0  0  0  0  0  0  0  0  0  0  0  0
    0.8800   68.0860   68.2960 C   0  0  0  0  0  0  0  0  0  0  0  0
   -2.4280   67.9690   66.9180 C   0  0  0  0  0  0  0  0  0  0  0  0
   -1.0150   68.1650   66.8200 O   0  0  0  0  0  0  0  0  0  0  0  0
    2.6920   69.0910   66.7250 C   0  0  0  0  0  0  0  0  0  0  0  0
    2.5040   68.3780   65.7420 O   0  0  0  0  0  0  0  0  0  0  0  0
    4.0140   69.7110   66.9960 C   0  0  0  0  0  0  0  0  0  0  0  0
    4.2850   70.0880   68.3230 C   0  0  0  0  0  0  0  0  0  0  0  0
    5.5050   70.6770   68.6610 C   0  0  0  0  0  0  0  0  0  0  0  0
    6.4700   70.8850   67.6800 C   0  0  0  0  0  0  0  0  0  0  0  0
    6.2160   70.5080   66.3610 C   0  0  0  0  0  0  0  0  0  0  0  0
    4.9850   69.9370   66.0100 C   0  0  0  0  0  0  0  0  0  0  0  0
    4.7770   69.5110   64.7260 O   0  0  0  0  0  0  0  0  0  0  0  0
    5.6080   68.4020   64.3790 C   0  0  0  0  0  0  0  0  0  0  0  0
   -1.8650   66.0491   68.1422 H   0  0  0  0  0  0  0  0  0  0  0  0
   -0.6949   64.9785   70.0646 H   0  0  0  0  0  0  0  0  0  0  0  0
    1.4780   65.8991   70.8712 H   0  0  0  0  0  0  0  0  0  0  0  0
    2.4731   67.8951   69.7586 H   0  0  0  0  0  0  0  0  0  0  0  0
   -2.7199   67.9285   67.9778 H   0  0  0  0  0  0  0  0  0  0  0  0
   -2.9489   68.8035   66.4258 H   0  0  0  0  0  0  0  0  0  0  0  0
   -2.7021   67.0242   66.4258 H   0  0  0  0  0  0  0  0  0  0  0  0
    3.5283   69.9172   69.1029 H   0  0  0  0  0  0  0  0  0  0  0  0
    5.7031   70.9761   69.7009 H   0  0  0  0  0  0  0  0  0  0  0  0
    7.4328   71.3466   67.9445 H   0  0  0  0  0  0  0  0  0  0  0  0
    6.9870   70.6599   65.5913 H   0  0  0  0  0  0  0  0  0  0  0  0
    5.9723   67.9158   65.2960 H   0  0  0  0  0  0  0  0  0  0  0  0
    5.0270   67.6796   63.7869 H   0  0  0  0  0  0  0  0  0  0  0  0
    6.4645   68.7567   63.7869 H   0  0  0  0  0  0  0  0  0  0  0  0
  2  1  2  0
  4  3  2  0
  5  4  1  0
  6  5  2  0
  7  6  1  0
  8  7  2  0
  8  3  1  0
  8  1  1  0
 10  9  1  0
 10  3  1  0
 11  1  1  0
 12 11  2  0
 13 11  1  0
 14 13  2  0
 15 14  1  0
 16 15  2  0
 17 16  1  0
 18 17  2  0
 18 13  1  0
 19 18  1  0
 20 19  1  0
  4 21  1  0
  5 22  1  0
  6 23  1  0
  7 24  1  0
  9 25  1  0
  9 26  1  0
  9 27  1  0
 14 28  1  0
 15 29  1  0
 16 30  1  0
 17 31  1  0
 20 32  1  0
 20 33  1  0
 20 34  1  0
M  END
>  <score>  (7) 
-8.151

$$$$
=
     RDKit          3D

 34 35  0  0  0  0  0  0  0  0999 V2000
    2.4660   68.8920   66.3060 C   0  0  0  0  0  0  0  0  0  0  0  0
    1.5080   69.1990   67.0110 O   0  0  0  0  0  0  0  0  0  0  0  0
    4.2500   69.9900   67.7550 C   0  0  0  0  0  0  0  0  0  0  0  0
    5.5320   70.5420   67.8660 C   0  0  0  0  0  0  0  0  0  0  0  0
    6.3950   70.5510   66.7700 C   0  0  0  0  0  0  0  0  0  0  0  0
    5.9760   70.0270   65.5510 C   0  0  0  0  0  0  0  0  0  0  0  0
    4.6900   69.4970   65.4280 C   0  0  0  0  0  0  0  0  0  0  0  0
    3.8150   69.4750   66.5270 C   0  0  0  0  0  0  0  0  0  0  0  0
    3.7830   71.0350   69.7800 C   0  0  0  0  0  0  0  0  0  0  0  0
    3.3910   70.0500   68.8220 O   0  0  0  0  0  0  0  0  0  0  0  0
    2.2150   67.9440   65.1640 C   0  0  0  0  0  0  0  0  0  0  0  0
    2.5010   66.7610   65.3340 O   0  0  0  0  0  0  0  0  0  0  0  0
    1.7010   68.4420   63.8620 C   0  0  0  0  0  0  0  0  0  0  0  0
    0.3450   68.8090   63.8070 C   0  0  0  0  0  0  0  0  0  0  0  0
   -0.2160   69.2860   62.6210 C   0  0  0  0  0  0  0  0  0  0  0  0
    0.5740   69.4120   61.4820 C   0  0  0  0  0  0  0  0  0  0  0  0
    1.9230   69.0600   61.5260 C   0  0  0  0  0  0  0  0  0  0  0  0
    2.4870   68.5580   62.7070 C   0  0  0  0  0  0  0  0  0  0  0  0
    3.8270   68.2800   62.7530 O   0  0  0  0  0  0  0  0  0  0  0  0
    4.1570   67.0800   62.0510 C   0  0  0  0  0  0  0  0  0  0  0  0
    5.8609   70.9714   68.8238 H   0  0  0  0  0  0  0  0  0  0  0  0
    7.4063   70.9722   66.8694 H   0  0  0  0  0  0  0  0  0  0  0  0
    6.6561   70.0303   64.6864 H   0  0  0  0  0  0  0  0  0  0  0  0
    4.3585   69.0924   64.4603 H   0  0  0  0  0  0  0  0  0  0  0  0
    3.6265   70.6417   70.7953 H   0  0  0  0  0  0  0  0  0  0  0  0
    4.8466   71.2787   69.6411 H   0  0  0  0  0  0  0  0  0  0  0  0
    3.1777   71.9429   69.6411 H   0  0  0  0  0  0  0  0  0  0  0  0
   -0.2802   68.7194   64.7076 H   0  0  0  0  0  0  0  0  0  0  0  0
   -1.2803   69.5617   62.5867 H   0  0  0  0  0  0  0  0  0  0  0  0
    0.1344   69.7893   60.5469 H   0  0  0  0  0  0  0  0  0  0  0  0
    2.5481   69.1771   60.6284 H   0  0  0  0  0  0  0  0  0  0  0  0
    4.3768   66.2808   62.7742 H   0  0  0  0  0  0  0  0  0  0  0  0
    3.3081   66.7796   61.4192 H   0  0  0  0  0  0  0  0  0  0  0  0
    5.0401   67.2559   61.4192 H   0  0  0  0  0  0  0  0  0  0  0  0
  2  1  2  0
  4  3  2  0
  5  4  1  0
  6  5  2  0
  7  6  1  0
  8  7  2  0
  8  3  1  0
  8  1  1  0
 10  9  1  0
 10  3  1  0
 11  1  1  0
 12 11  2  0
 13 11  1  0
 14 13  2  0
 15 14  1  0
 16 15  2  0
 17 16  1  0
 18 17  2  0
 18 13  1  0
 19 18  1  0
 20 19  1  0
  4 21  1  0
  5 22  1  0
  6 23  1  0
  7 24  1  0
  9 25  1  0
  9 26  1  0
  9 27  1  0
 14 28  1  0
 15 29  1  0
 16 30  1  0
 17 31  1  0
 20 32  1  0
 20 33  1  0
 20 34  1  0
M  END
>  <score>  (8) 
-8.132

$$$$
=
     RDKit          3D

 34 35  0  0  0  0  0  0  0  0999 V2000
    1.7380   68.4050   64.5170 C   0  0  0  0  0  0  0  0  0  0  0  0
    1.2430   69.0980   63.6310 O   0  0  0  0  0  0  0  0  0  0  0  0
    3.7140   67.3380   63.3160 C   0  0  0  0  0  0  0  0  0  0  0  0
    4.4930   66.2010   63.0640 C   0  0  0  0  0  0  0  0  0  0  0  0
    4.2220   64.9990   63.7190 C   0  0  0  0  0  0  0  0  0  0  0  0
    3.1600   64.9190   64.6150 C   0  0  0  0  0  0  0  0  0  0  0  0
    2.3650   66.0430   64.8520 C   0  0  0  0  0  0  0  0  0  0  0  0
    2.6340   67.2610   64.2050 C   0  0  0  0  0  0  0  0  0  0  0  0
    5.2400   69.0420   62.8960 C   0  0  0  0  0  0  0  0  0  0  0  0
    3.9510   68.4910   62.6150 O   0  0  0  0  0  0  0  0  0  0  0  0
    1.3540   68.7160   65.9400 C   0  0  0  0  0  0  0  0  0  0  0  0
    2.1700   69.3270   66.6270 O   0  0  0  0  0  0  0  0  0  0  0  0
    0.0630   68.2420   66.5000 C   0  0  0  0  0  0  0  0  0  0  0  0
   -1.1120   68.7560   65.9270 C   0  0  0  0  0  0  0  0  0  0  0  0
   -2.3660   68.3620   66.3960 C   0  0  0  0  0  0  0  0  0  0  0  0
   -2.4590   67.4400   67.4350 C   0  0  0  0  0  0  0  0  0  0  0  0
   -1.2990   66.9150   68.0070 C   0  0  0  0  0  0  0  0  0  0  0  0
   -0.0370   67.3240   67.5560 C   0  0  0  0  0  0  0  0  0  0  0  0
    1.0890   66.7500   68.0820 O   0  0  0  0  0  0  0  0  0  0  0  0
    1.1280   66.8350   69.5070 C   0  0  0  0  0  0  0  0  0  0  0  0
    5.3237   66.2562   62.3451 H   0  0  0  0  0  0  0  0  0  0  0  0
    4.8477   64.1148   63.5272 H   0  0  0  0  0  0  0  0  0  0  0  0
    2.9472   63.9734   65.1351 H   0  0  0  0  0  0  0  0  0  0  0  0
    1.5196   65.9738   65.5524 H   0  0  0  0  0  0  0  0  0  0  0  0
    5.3831   69.1032   63.9849 H   0  0  0  0  0  0  0  0  0  0  0  0
    6.0173   68.3975   62.4596 H   0  0  0  0  0  0  0  0  0  0  0  0
    5.3113   70.0492   62.4596 H   0  0  0  0  0  0  0  0  0  0  0  0
   -1.0430   69.4772   65.0993 H   0  0  0  0  0  0  0  0  0  0  0  0
   -3.2789   68.7790   65.9457 H   0  0  0  0  0  0  0  0  0  0  0  0
   -3.4460   67.1254   67.8049 H   0  0  0  0  0  0  0  0  0  0  0  0
   -1.3761   66.1751   68.8173 H   0  0  0  0  0  0  0  0  0  0  0  0
    0.7065   65.9162   69.9408 H   0  0  0  0  0  0  0  0  0  0  0  0
    2.1701   66.9526   69.8389 H   0  0  0  0  0  0  0  0  0  0  0  0
    0.5375   67.7017   69.8389 H   0  0  0  0  0  0  0  0  0  0  0  0
  2  1  2  0
  4  3  2  0
  5  4  1  0
  6  5  2  0
  7  6  1  0
  8  7  2  0
  8  3  1  0
  8  1  1  0
 10  9  1  0
 10  3  1  0
 11  1  1  0
 12 11  2  0
 13 11  1  0
 14 13  2  0
 15 14  1  0
 16 15  2  0
 17 16  1  0
 18 17  2  0
 18 13  1  0
 19 18  1  0
 20 19  1  0
  4 21  1  0
  5 22  1  0
  6 23  1  0
  7 24  1  0
  9 25  1  0
  9 26  1  0
  9 27  1  0
 14 28  1  0
 15 29  1  0
 16 30  1  0
 17 31  1  0
 20 32  1  0
 20 33  1  0
 20 34  1  0
M  END
>  <score>  (9) 
-8.102

$$$$
