=
     RDKit          3D

 13 13  0  0  0  0  0  0  0  0999 V2000
    2.2830   66.5380   64.7790 C   0  0  0  0  0  0  0  0  0  0  0  0
    3.2810   65.5920   64.3460 N   0  0  0  0  0  0  0  0  0  0  0  0
    3.4630   64.3360   64.8650 C   0  0  0  0  0  0  0  0  0  0  0  0
    4.5140   63.8050   64.1520 C   0  0  0  0  0  0  0  0  0  0  0  0
    4.9730   64.6980   63.2200 N   0  0  0  0  0  0  0  0  0  0  0  0
    4.2150   65.7590   63.3600 C   0  0  0  0  0  0  0  0  0  0  0  0
    4.3680   67.1970   62.4190 S   0  0  0  0  0  0  0  0  0  0  0  0
    2.2552   66.5643   65.8783 H   0  0  0  0  0  0  0  0  0  0  0  0
    2.5340   67.5376   64.3945 H   0  0  0  0  0  0  0  0  0  0  0  0
    1.2983   66.2339   64.3945 H   0  0  0  0  0  0  0  0  0  0  0  0
    2.8932   63.8570   65.6748 H   0  0  0  0  0  0  0  0  0  0  0  0
    4.9295   62.7987   64.3095 H   0  0  0  0  0  0  0  0  0  0  0  0
    4.4830   68.2781   63.2526 H   0  0  0  0  0  0  0  0  0  0  0  0
  2  1  1  0
  3  2  1  0
  4  3  2  0
  5  4  1  0
  6  5  2  0
  6  2  1  0
  7  6  1  0
  1  8  1  0
  1  9  1  0
  1 10  1  0
  3 11  1  0
  4 12  1  0
  7 13  1  0
M  END
>  <score>  (1) 
-3.991

$$$$
=
     RDKit          3D

 13 13  0  0  0  0  0  0  0  0999 V2000
    3.6770   70.5640   69.1770 C   0  0  0  0  0  0  0  0  0  0  0  0
    4.3070   70.1880   67.9370 N   0  0  0  0  0  0  0  0  0  0  0  0
    3.6720   69.6170   66.8650 C   0  0  0  0  0  0  0  0  0  0  0  0
    4.6580   69.4370   65.9210 C   0  0  0  0  0  0  0  0  0  0  0  0
    5.8680   69.8800   66.3870 N   0  0  0  0  0  0  0  0  0  0  0  0
    5.6260   70.3240   67.5980 C   0  0  0  0  0  0  0  0  0  0  0  0
    6.8200   71.0020   68.6430 S   0  0  0  0  0  0  0  0  0  0  0  0
    4.2831   70.2023   70.0207 H   0  0  0  0  0  0  0  0  0  0  0  0
    3.5937   71.6596   69.2285 H   0  0  0  0  0  0  0  0  0  0  0  0
    2.6732   70.1172   69.2285 H   0  0  0  0  0  0  0  0  0  0  0  0
    2.6063   69.3587   66.7778 H   0  0  0  0  0  0  0  0  0  0  0  0
    4.4961   68.9966   64.9261 H   0  0  0  0  0  0  0  0  0  0  0  0
    6.4558   70.7952   69.9474 H   0  0  0  0  0  0  0  0  0  0  0  0
  2  1  1  0
  3  2  1  0
  4  3  2  0
  5  4  1  0
  6  5  2  0
  6  2  1  0
  7  6  1  0
  1  8  1  0
  1  9  1  0
  1 10  1  0
  3 11  1  0
  4 12  1  0
  7 13  1  0
M  END
>  <score>  (2) 
-3.912

$$$$
=
     RDKit          3D

 13 13  0  0  0  0  0  0  0  0999 V2000
    3.1790   70.2370   68.8520 C   0  0  0  0  0  0  0  0  0  0  0  0
    4.4160   70.2560   68.1120 N   0  0  0  0  0  0  0  0  0  0  0  0
    5.6100   70.7470   68.5730 C   0  0  0  0  0  0  0  0  0  0  0  0
    6.4970   70.5580   67.5370 C   0  0  0  0  0  0  0  0  0  0  0  0
    5.8790   69.9690   66.4650 N   0  0  0  0  0  0  0  0  0  0  0  0
    4.6320   69.8010   66.8390 C   0  0  0  0  0  0  0  0  0  0  0  0
    3.4070   69.0910   65.8540 S   0  0  0  0  0  0  0  0  0  0  0  0
    3.3967   70.2403   69.9302 H   0  0  0  0  0  0  0  0  0  0  0  0
    2.5844   71.1261   68.5952 H   0  0  0  0  0  0  0  0  0  0  0  0
    2.6120   69.3300   68.5952 H   0  0  0  0  0  0  0  0  0  0  0  0
    5.8149   71.1946   69.5567 H   0  0  0  0  0  0  0  0  0  0  0  0
    7.5594   70.8418   67.5659 H   0  0  0  0  0  0  0  0  0  0  0  0
    2.4445   68.5331   66.6535 H   0  0  0  0  0  0  0  0  0  0  0  0
  2  1  1  0
  3  2  1  0
  4  3  2  0
  5  4  1  0
  6  5  2  0
  6  2  1  0
  7  6  1  0
  1  8  1  0
  1  9  1  0
  1 10  1  0
  3 11  1  0
  4 12  1  0
  7 13  1  0
M  END
>  <score>  (3) 
-3.908

$$$$
=
     RDKit          3D

 13 13  0  0  0  0  0  0  0  0999 V2000
    6.6130   70.5050   67.3490 C   0  0  0  0  0  0  0  0  0  0  0  0
    5.3390   70.0190   66.8830 N   0  0  0  0  0  0  0  0  0  0  0  0
    5.1020   69.4650   65.6510 C   0  0  0  0  0  0  0  0  0  0  0  0
    3.7620   69.1530   65.6520 C   0  0  0  0  0  0  0  0  0  0  0  0
    3.1800   69.5000   66.8440 N   0  0  0  0  0  0  0  0  0  0  0  0
    4.1500   70.0160   67.5600 C   0  0  0  0  0  0  0  0  0  0  0  0
    3.9600   70.6210   69.1650 S   0  0  0  0  0  0  0  0  0  0  0  0
    6.6238   70.5091   68.4489 H   0  0  0  0  0  0  0  0  0  0  0  0
    7.4140   69.8493   66.9769 H   0  0  0  0  0  0  0  0  0  0  0  0
    6.7737   71.5276   66.9769 H   0  0  0  0  0  0  0  0  0  0  0  0
    5.8260   69.3049   64.8385 H   0  0  0  0  0  0  0  0  0  0  0  0
    3.2291   68.6877   64.8097 H   0  0  0  0  0  0  0  0  0  0  0  0
    4.2697   69.6350   70.0643 H   0  0  0  0  0  0  0  0  0  0  0  0
  2  1  1  0
  3  2  1  0
  4  3  2  0
  5  4  1  0
  6  5  2  0
  6  2  1  0
  7  6  1  0
  1  8  1  0
  1  9  1  0
  1 10  1  0
  3 11  1  0
  4 12  1  0
  7 13  1  0
M  END
>  <score>  (4) 
-3.88

$$$$
=
     RDKit          3D

 13 13  0  0  0  0  0  0  0  0999 V2000
    4.1930   69.4610   65.8780 C   0  0  0  0  0  0  0  0  0  0  0  0
    5.0430   69.9800   66.9200 N   0  0  0  0  0  0  0  0  0  0  0  0
    6.3920   70.1980   66.8090 C   0  0  0  0  0  0  0  0  0  0  0  0
    6.7750   70.6910   68.0360 C   0  0  0  0  0  0  0  0  0  0  0  0
    5.7030   70.7780   68.8850 N   0  0  0  0  0  0  0  0  0  0  0  0
    4.6790   70.3440   68.1880 C   0  0  0  0  0  0  0  0  0  0  0  0
    3.0650   70.2440   68.7880 S   0  0  0  0  0  0  0  0  0  0  0  0
    3.3369   68.9383   66.3295 H   0  0  0  0  0  0  0  0  0  0  0  0
    3.8287   70.2909   65.2546 H   0  0  0  0  0  0  0  0  0  0  0  0
    4.7648   68.7578   65.2546 H   0  0  0  0  0  0  0  0  0  0  0  0
    7.0295   70.0182   65.9308 H   0  0  0  0  0  0  0  0  0  0  0  0
    7.8040   70.9768   68.2996 H   0  0  0  0  0  0  0  0  0  0  0  0
    3.0861   70.2453   70.1578 H   0  0  0  0  0  0  0  0  0  0  0  0
  2  1  1  0
  3  2  1  0
  4  3  2  0
  5  4  1  0
  6  5  2  0
  6  2  1  0
  7  6  1  0
  1  8  1  0
  1  9  1  0
  1 10  1  0
  3 11  1  0
  4 12  1  0
  7 13  1  0
M  END
>  <score>  (5) 
-3.811

$$$$
=
     RDKit          3D

 13 13  0  0  0  0  0  0  0  0999 V2000
    5.2640   69.4570   64.4340 C   0  0  0  0  0  0  0  0  0  0  0  0
    4.9980   69.7480   65.8210 N   0  0  0  0  0  0  0  0  0  0  0  0
    5.8840   70.3180   66.6970 C   0  0  0  0  0  0  0  0  0  0  0  0
    5.2030   70.4020   67.8900 C   0  0  0  0  0  0  0  0  0  0  0  0
    3.9330   69.9000   67.7640 N   0  0  0  0  0  0  0  0  0  0  0  0
    3.8410   69.5160   66.5130 C   0  0  0  0  0  0  0  0  0  0  0  0
    2.4330   68.8040   65.8150 S   0  0  0  0  0  0  0  0  0  0  0  0
    6.0047   68.6467   64.3649 H   0  0  0  0  0  0  0  0  0  0  0  0
    4.3322   69.1452   63.9395 H   0  0  0  0  0  0  0  0  0  0  0  0
    5.6580   70.3571   63.9395 H   0  0  0  0  0  0  0  0  0  0  0  0
    6.9159   70.6389   66.4914 H   0  0  0  0  0  0  0  0  0  0  0  0
    5.6210   70.8160   68.8194 H   0  0  0  0  0  0  0  0  0  0  0  0
    1.5940   68.3797   66.8115 H   0  0  0  0  0  0  0  0  0  0  0  0
  2  1  1  0
  3  2  1  0
  4  3  2  0
  5  4  1  0
  6  5  2  0
  6  2  1  0
  7  6  1  0
  1  8  1  0
  1  9  1  0
  1 10  1  0
  3 11  1  0
  4 12  1  0
  7 13  1  0
M  END
>  <score>  (6) 
-3.678

$$$$
=
     RDKit          3D

 13 13  0  0  0  0  0  0  0  0999 V2000
    3.6000   69.0950   65.8260 C   0  0  0  0  0  0  0  0  0  0  0  0
    3.7350   69.6810   67.1360 N   0  0  0  0  0  0  0  0  0  0  0  0
    2.7250   69.8180   68.0530 C   0  0  0  0  0  0  0  0  0  0  0  0
    3.3110   70.4230   69.1420 C   0  0  0  0  0  0  0  0  0  0  0  0
    4.6420   70.6560   68.9140 N   0  0  0  0  0  0  0  0  0  0  0  0
    4.8660   70.2010   67.7040 C   0  0  0  0  0  0  0  0  0  0  0  0
    6.4000   70.2480   66.9150 S   0  0  0  0  0  0  0  0  0  0  0  0
    3.3541   68.0275   65.9254 H   0  0  0  0  0  0  0  0  0  0  0  0
    2.7962   69.6068   65.2764 H   0  0  0  0  0  0  0  0  0  0  0  0
    4.5467   69.2035   65.2764 H   0  0  0  0  0  0  0  0  0  0  0  0
    1.6745   69.5111   67.9426 H   0  0  0  0  0  0  0  0  0  0  0  0
    2.7819   70.6842   70.0703 H   0  0  0  0  0  0  0  0  0  0  0  0
    7.3962   70.2785   67.8549 H   0  0  0  0  0  0  0  0  0  0  0  0
  2  1  1  0
  3  2  1  0
  4  3  2  0
  5  4  1  0
  6  5  2  0
  6  2  1  0
  7  6  1  0
  1  8  1  0
  1  9  1  0
  1 10  1  0
  3 11  1  0
  4 12  1  0
  7 13  1  0
M  END
>  <score>  (7) 
-3.675

$$$$
=
     RDKit          3D

 13 13  0  0  0  0  0  0  0  0999 V2000
    2.4450   68.7700   66.0150 C   0  0  0  0  0  0  0  0  0  0  0  0
    3.4450   68.9830   64.9990 N   0  0  0  0  0  0  0  0  0  0  0  0
    3.2880   68.7190   63.6630 C   0  0  0  0  0  0  0  0  0  0  0  0
    4.4870   69.0740   63.0860 C   0  0  0  0  0  0  0  0  0  0  0  0
    5.3630   69.5440   64.0290 N   0  0  0  0  0  0  0  0  0  0  0  0
    4.7100   69.4770   65.1650 C   0  0  0  0  0  0  0  0  0  0  0  0
    5.3600   69.9540   66.6910 S   0  0  0  0  0  0  0  0  0  0  0  0
    2.9056   68.8681   67.0091 H   0  0  0  0  0  0  0  0  0  0  0  0
    1.6460   69.5181   65.9056 H   0  0  0  0  0  0  0  0  0  0  0  0
    2.0202   67.7612   65.9056 H   0  0  0  0  0  0  0  0  0  0  0  0
    2.3978   68.3121   63.1610 H   0  0  0  0  0  0  0  0  0  0  0  0
    4.7113   68.9913   62.0123 H   0  0  0  0  0  0  0  0  0  0  0  0
    4.6113   69.4045   67.6982 H   0  0  0  0  0  0  0  0  0  0  0  0
  2  1  1  0
  3  2  1  0
  4  3  2  0
  5  4  1  0
  6  5  2  0
  6  2  1  0
  7  6  1  0
  1  8  1  0
  1  9  1  0
  1 10  1  0
  3 11  1  0
  4 12  1  0
  7 13  1  0
M  END
>  <score>  (8) 
-3.551

$$$$
=
     RDKit          3D

 13 13  0  0  0  0  0  0  0  0999 V2000
    2.6530   68.0220   64.8380 C   0  0  0  0  0  0  0  0  0  0  0  0
    3.6770   68.8300   65.4520 N   0  0  0  0  0  0  0  0  0  0  0  0
    4.9130   69.0860   64.9170 C   0  0  0  0  0  0  0  0  0  0  0  0
    5.5420   69.8900   65.8410 C   0  0  0  0  0  0  0  0  0  0  0  0
    4.7270   70.1280   66.9170 N   0  0  0  0  0  0  0  0  0  0  0  0
    3.6170   69.4790   66.6550 C   0  0  0  0  0  0  0  0  0  0  0  0
    2.2400   69.4450   67.6950 S   0  0  0  0  0  0  0  0  0  0  0  0
    2.0458   67.5429   65.6202 H   0  0  0  0  0  0  0  0  0  0  0  0
    2.0096   68.6584   64.2127 H   0  0  0  0  0  0  0  0  0  0  0  0
    3.1223   67.2482   64.2127 H   0  0  0  0  0  0  0  0  0  0  0  0
    5.3149   68.7271   63.9580 H   0  0  0  0  0  0  0  0  0  0  0  0
    6.5616   70.2878   65.7305 H   0  0  0  0  0  0  0  0  0  0  0  0
    2.6537   69.4552   69.0010 H   0  0  0  0  0  0  0  0  0  0  0  0
  2  1  1  0
  3  2  1  0
  4  3  2  0
  5  4  1  0
  6  5  2  0
  6  2  1  0
  7  6  1  0
  1  8  1  0
  1  9  1  0
  1 10  1  0
  3 11  1  0
  4 12  1  0
  7 13  1  0
M  END
>  <score>  (9) 
-3.419

$$$$
