=
     RDKit          3D

 23 25  0  0  0  0  0  0  0  0999 V2000
    5.4260   70.6990   69.3110 C   0  0  0  0  0  0  0  0  0  0  0  0
    6.6430   70.9110   68.6710 C   0  0  0  0  0  0  0  0  0  0  0  0
    6.7690   70.6360   67.3090 C   0  0  0  0  0  0  0  0  0  0  0  0
    5.6800   70.1580   66.5620 C   0  0  0  0  0  0  0  0  0  0  0  0
    4.4590   69.9260   67.2170 C   0  0  0  0  0  0  0  0  0  0  0  0
    4.3400   70.2060   68.5880 C   0  0  0  0  0  0  0  0  0  0  0  0
    3.0180   69.2860   66.3810 S   0  0  0  0  0  0  0  0  0  0  0  0
    3.5810   69.1070   64.6970 C   0  0  0  0  0  0  0  0  0  0  0  0
    4.8890   69.4210   64.2930 C   0  0  0  0  0  0  0  0  0  0  0  0
    5.8710   69.8550   65.2020 N   0  0  0  0  0  0  0  0  0  0  0  0
    5.2520   69.2200   62.9520 C   0  0  0  0  0  0  0  0  0  0  0  0
    4.3250   68.7490   62.0180 C   0  0  0  0  0  0  0  0  0  0  0  0
    3.0250   68.4590   62.4180 C   0  0  0  0  0  0  0  0  0  0  0  0
    2.6550   68.6350   63.7530 C   0  0  0  0  0  0  0  0  0  0  0  0
    5.3207   70.9194   70.3835 H   0  0  0  0  0  0  0  0  0  0  0  0
    7.5042   71.2947   69.2377 H   0  0  0  0  0  0  0  0  0  0  0  0
    7.7372   70.7962   66.8121 H   0  0  0  0  0  0  0  0  0  0  0  0
    3.3800   70.0347   69.0971 H   0  0  0  0  0  0  0  0  0  0  0  0
    6.8271   69.9617   64.8341 H   0  0  0  0  0  0  0  0  0  0  0  0
    6.2817   69.4365   62.6313 H   0  0  0  0  0  0  0  0  0  0  0  0
    4.6231   68.6080   60.9686 H   0  0  0  0  0  0  0  0  0  0  0  0
    2.2909   68.0923   61.6855 H   0  0  0  0  0  0  0  0  0  0  0  0
    1.6274   68.4014   64.0683 H   0  0  0  0  0  0  0  0  0  0  0  0
  2  1  2  0
  3  2  1  0
  4  3  2  0
  5  4  1  0
  6  5  2  0
  6  1  1  0
  7  5  1  0
  8  7  1  0
  9  8  2  0
 10  9  1  0
 10  4  1  0
 11  9  1  0
 12 11  2  0
 13 12  1  0
 14 13  2  0
 14  8  1  0
  1 15  1  0
  2 16  1  0
  3 17  1  0
  6 18  1  0
 10 19  1  0
 11 20  1  0
 12 21  1  0
 13 22  1  0
 14 23  1  0
M  END
>  <score>  (1) 
-9.163

$$$$
=
     RDKit          3D

 23 25  0  0  0  0  0  0  0  0999 V2000
    2.8290   68.3040   62.5010 C   0  0  0  0  0  0  0  0  0  0  0  0
    4.1060   68.6100   62.0440 C   0  0  0  0  0  0  0  0  0  0  0  0
    5.0570   69.1230   62.9270 C   0  0  0  0  0  0  0  0  0  0  0  0
    4.7510   69.3250   64.2830 C   0  0  0  0  0  0  0  0  0  0  0  0
    3.4530   69.0340   64.7360 C   0  0  0  0  0  0  0  0  0  0  0  0
    2.5030   68.5180   63.8410 C   0  0  0  0  0  0  0  0  0  0  0  0
    2.9390   69.2860   66.4260 S   0  0  0  0  0  0  0  0  0  0  0  0
    4.4200   69.9040   67.2060 C   0  0  0  0  0  0  0  0  0  0  0  0
    5.6210   70.1080   66.5070 C   0  0  0  0  0  0  0  0  0  0  0  0
    5.7310   69.8850   65.1220 N   0  0  0  0  0  0  0  0  0  0  0  0
    6.7290   70.6270   67.1980 C   0  0  0  0  0  0  0  0  0  0  0  0
    6.6580   70.9050   68.5640 C   0  0  0  0  0  0  0  0  0  0  0  0
    5.4730   70.6830   69.2570 C   0  0  0  0  0  0  0  0  0  0  0  0
    4.3580   70.1870   68.5800 C   0  0  0  0  0  0  0  0  0  0  0  0
    2.0784   67.8947   61.8089 H   0  0  0  0  0  0  0  0  0  0  0  0
    4.3663   68.4479   60.9876 H   0  0  0  0  0  0  0  0  0  0  0  0
    6.0617   69.3730   62.5555 H   0  0  0  0  0  0  0  0  0  0  0  0
    1.4907   68.2797   64.1995 H   0  0  0  0  0  0  0  0  0  0  0  0
    6.6188   70.1596   64.6779 H   0  0  0  0  0  0  0  0  0  0  0  0
    7.6662   70.8170   66.6544 H   0  0  0  0  0  0  0  0  0  0  0  0
    7.5388   71.2994   69.0919 H   0  0  0  0  0  0  0  0  0  0  0  0
    5.4147   70.8975   70.3343 H   0  0  0  0  0  0  0  0  0  0  0  0
    3.4202   70.0158   69.1288 H   0  0  0  0  0  0  0  0  0  0  0  0
  2  1  2  0
  3  2  1  0
  4  3  2  0
  5  4  1  0
  6  5  2  0
  6  1  1  0
  7  5  1  0
  8  7  1  0
  9  8  2  0
 10  9  1  0
 10  4  1  0
 11  9  1  0
 12 11  2  0
 13 12  1  0
 14 13  2  0
 14  8  1  0
  1 15  1  0
  2 16  1  0
  3 17  1  0
  6 18  1  0
 10 19  1  0
 11 20  1  0
 12 21  1  0
 13 22  1  0
 14 23  1  0
M  END
>  <score>  (2) 
-9.077

$$$$
=
     RDKit          3D

 23 25  0  0  0  0  0  0  0  0999 V2000
   -0.0590   68.2530   65.4740 C   0  0  0  0  0  0  0  0  0  0  0  0
   -0.4690   68.6090   66.7540 C   0  0  0  0  0  0  0  0  0  0  0  0
    0.4540   69.1350   67.6580 C   0  0  0  0  0  0  0  0  0  0  0  0
    1.7970   69.3270   67.2940 C   0  0  0  0  0  0  0  0  0  0  0  0
    2.2100   68.9460   66.0070 C   0  0  0  0  0  0  0  0  0  0  0  0
    1.2760   68.4170   65.1030 C   0  0  0  0  0  0  0  0  0  0  0  0
    3.8970   69.1070   65.4450 S   0  0  0  0  0  0  0  0  0  0  0  0
    4.7190   69.8310   66.8540 C   0  0  0  0  0  0  0  0  0  0  0  0
    4.0550   70.1230   68.0560 C   0  0  0  0  0  0  0  0  0  0  0  0
    2.6960   69.8210   68.2560 N   0  0  0  0  0  0  0  0  0  0  0  0
    4.7910   70.6650   69.1230 C   0  0  0  0  0  0  0  0  0  0  0  0
    6.1530   70.9440   68.9900 C   0  0  0  0  0  0  0  0  0  0  0  0
    6.8020   70.6710   67.7900 C   0  0  0  0  0  0  0  0  0  0  0  0
    6.0880   70.1150   66.7280 C   0  0  0  0  0  0  0  0  0  0  0  0
   -0.7848   67.8434   64.7561 H   0  0  0  0  0  0  0  0  0  0  0  0
   -1.5192   68.4761   67.0532 H   0  0  0  0  0  0  0  0  0  0  0  0
    0.1247   69.4038   68.6725 H   0  0  0  0  0  0  0  0  0  0  0  0
    1.5996   68.1288   64.0919 H   0  0  0  0  0  0  0  0  0  0  0  0
    2.3214   69.9774   69.2026 H   0  0  0  0  0  0  0  0  0  0  0  0
    4.2866   70.8729   70.0782 H   0  0  0  0  0  0  0  0  0  0  0  0
    6.7114   71.3786   69.8322 H   0  0  0  0  0  0  0  0  0  0  0  0
    7.8737   70.8926   67.6790 H   0  0  0  0  0  0  0  0  0  0  0  0
    6.6037   69.8967   65.7812 H   0  0  0  0  0  0  0  0  0  0  0  0
  2  1  2  0
  3  2  1  0
  4  3  2  0
  5  4  1  0
  6  5  2  0
  6  1  1  0
  7  5  1  0
  8  7  1  0
  9  8  2  0
 10  9  1  0
 10  4  1  0
 11  9  1  0
 12 11  2  0
 13 12  1  0
 14 13  2  0
 14  8  1  0
  1 15  1  0
  2 16  1  0
  3 17  1  0
  6 18  1  0
 10 19  1  0
 11 20  1  0
 12 21  1  0
 13 22  1  0
 14 23  1  0
M  END
>  <score>  (3) 
-8.584

$$$$
=
     RDKit          3D

 23 25  0  0  0  0  0  0  0  0999 V2000
    6.7670   70.6120   67.7060 C   0  0  0  0  0  0  0  0  0  0  0  0
    6.1530   70.9240   68.9150 C   0  0  0  0  0  0  0  0  0  0  0  0
    4.7890   70.6830   69.0850 C   0  0  0  0  0  0  0  0  0  0  0  0
    4.0210   70.1130   68.0570 C   0  0  0  0  0  0  0  0  0  0  0  0
    4.6410   69.8180   66.8310 C   0  0  0  0  0  0  0  0  0  0  0  0
    6.0130   70.0640   66.6680 C   0  0  0  0  0  0  0  0  0  0  0  0
    3.7580   69.1270   65.4420 S   0  0  0  0  0  0  0  0  0  0  0  0
    2.0990   68.9480   66.0730 C   0  0  0  0  0  0  0  0  0  0  0  0
    1.7330   69.3290   67.3740 C   0  0  0  0  0  0  0  0  0  0  0  0
    2.6420   69.9290   68.2640 N   0  0  0  0  0  0  0  0  0  0  0  0
    0.3950   69.1780   67.7740 C   0  0  0  0  0  0  0  0  0  0  0  0
   -0.5560   68.6270   66.9120 C   0  0  0  0  0  0  0  0  0  0  0  0
   -0.1850   68.2320   65.6310 C   0  0  0  0  0  0  0  0  0  0  0  0
    1.1370   68.3940   65.2130 C   0  0  0  0  0  0  0  0  0  0  0  0
    7.8427   70.7967   67.5692 H   0  0  0  0  0  0  0  0  0  0  0  0
    6.7418   71.3599   69.7355 H   0  0  0  0  0  0  0  0  0  0  0  0
    4.3080   70.9437   70.0393 H   0  0  0  0  0  0  0  0  0  0  0  0
    6.4992   69.8221   65.7114 H   0  0  0  0  0  0  0  0  0  0  0  0
    2.2590   70.2680   69.1580 H   0  0  0  0  0  0  0  0  0  0  0  0
    0.0915   69.4986   68.7815 H   0  0  0  0  0  0  0  0  0  0  0  0
   -1.5971   68.5056   67.2458 H   0  0  0  0  0  0  0  0  0  0  0  0
   -0.9299   67.7940   64.9504 H   0  0  0  0  0  0  0  0  0  0  0  0
    1.4284   68.0842   64.1986 H   0  0  0  0  0  0  0  0  0  0  0  0
  2  1  2  0
  3  2  1  0
  4  3  2  0
  5  4  1  0
  6  5  2  0
  6  1  1  0
  7  5  1  0
  8  7  1  0
  9  8  2  0
 10  9  1  0
 10  4  1  0
 11  9  1  0
 12 11  2  0
 13 12  1  0
 14 13  2  0
 14  8  1  0
  1 15  1  0
  2 16  1  0
  3 17  1  0
  6 18  1  0
 10 19  1  0
 11 20  1  0
 12 21  1  0
 13 22  1  0
 14 23  1  0
M  END
>  <score>  (4) 
-8.58

$$$$
=
     RDKit          3D

 23 25  0  0  0  0  0  0  0  0999 V2000
    2.4030   68.3060   62.5170 C   0  0  0  0  0  0  0  0  0  0  0  0
    1.3130   68.2790   63.3820 C   0  0  0  0  0  0  0  0  0  0  0  0
    1.4780   68.6470   64.7180 C   0  0  0  0  0  0  0  0  0  0  0  0
    2.7270   69.0600   65.2080 C   0  0  0  0  0  0  0  0  0  0  0  0
    3.8290   69.0650   64.3350 C   0  0  0  0  0  0  0  0  0  0  0  0
    3.6550   68.6940   62.9930 C   0  0  0  0  0  0  0  0  0  0  0  0
    5.4710   69.5330   64.8530 S   0  0  0  0  0  0  0  0  0  0  0  0
    5.2440   69.9510   66.5730 C   0  0  0  0  0  0  0  0  0  0  0  0
    4.0020   69.8570   67.2220 C   0  0  0  0  0  0  0  0  0  0  0  0
    2.8490   69.3780   66.5720 N   0  0  0  0  0  0  0  0  0  0  0  0
    3.9230   70.1790   68.5870 C   0  0  0  0  0  0  0  0  0  0  0  0
    5.0480   70.6180   69.2880 C   0  0  0  0  0  0  0  0  0  0  0  0
    6.2720   70.7290   68.6370 C   0  0  0  0  0  0  0  0  0  0  0  0
    6.3700   70.3940   67.2850 C   0  0  0  0  0  0  0  0  0  0  0  0
    2.2773   68.0223   61.4617 H   0  0  0  0  0  0  0  0  0  0  0  0
    0.3241   67.9684   63.0136 H   0  0  0  0  0  0  0  0  0  0  0  0
    0.6146   68.6129   65.3987 H   0  0  0  0  0  0  0  0  0  0  0  0
    4.5160   68.7094   62.3086 H   0  0  0  0  0  0  0  0  0  0  0  0
    2.0098   69.2472   67.1546 H   0  0  0  0  0  0  0  0  0  0  0  0
    2.9607   70.0839   69.1114 H   0  0  0  0  0  0  0  0  0  0  0  0
    4.9662   70.8758   70.3542 H   0  0  0  0  0  0  0  0  0  0  0  0
    7.1592   71.0792   69.1849 H   0  0  0  0  0  0  0  0  0  0  0  0
    7.3396   70.4781   66.7724 H   0  0  0  0  0  0  0  0  0  0  0  0
  2  1  2  0
  3  2  1  0
  4  3  2  0
  5  4  1  0
  6  5  2  0
  6  1  1  0
  7  5  1  0
  8  7  1  0
  9  8  2  0
 10  9  1  0
 10  4  1  0
 11  9  1  0
 12 11  2  0
 13 12  1  0
 14 13  2  0
 14  8  1  0
  1 15  1  0
  2 16  1  0
  3 17  1  0
  6 18  1  0
 10 19  1  0
 11 20  1  0
 12 21  1  0
 13 22  1  0
 14 23  1  0
M  END
>  <score>  (5) 
-8.552

$$$$
=
     RDKit          3D

 23 25  0  0  0  0  0  0  0  0999 V2000
    6.4970   70.6860   68.4930 C   0  0  0  0  0  0  0  0  0  0  0  0
    5.3040   70.6220   69.2050 C   0  0  0  0  0  0  0  0  0  0  0  0
    4.1320   70.2220   68.5630 C   0  0  0  0  0  0  0  0  0  0  0  0
    4.1350   69.8670   67.2040 C   0  0  0  0  0  0  0  0  0  0  0  0
    5.3380   69.9540   66.4840 C   0  0  0  0  0  0  0  0  0  0  0  0
    6.5130   70.3570   67.1380 C   0  0  0  0  0  0  0  0  0  0  0  0
    5.4560   69.5650   64.7460 S   0  0  0  0  0  0  0  0  0  0  0  0
    3.7900   69.0800   64.3310 C   0  0  0  0  0  0  0  0  0  0  0  0
    2.7410   69.0800   65.2660 C   0  0  0  0  0  0  0  0  0  0  0  0
    2.9190   69.5120   66.5930 N   0  0  0  0  0  0  0  0  0  0  0  0
    1.4540   68.7120   64.8420 C   0  0  0  0  0  0  0  0  0  0  0  0
    1.2170   68.3160   63.5240 C   0  0  0  0  0  0  0  0  0  0  0  0
    2.2630   68.2980   62.6060 C   0  0  0  0  0  0  0  0  0  0  0  0
    3.5430   68.6810   63.0080 C   0  0  0  0  0  0  0  0  0  0  0  0
    7.4246   70.9950   68.9969 H   0  0  0  0  0  0  0  0  0  0  0  0
    5.2847   70.8864   70.2726 H   0  0  0  0  0  0  0  0  0  0  0  0
    3.1903   70.1840   69.1302 H   0  0  0  0  0  0  0  0  0  0  0  0
    7.4566   70.4139   66.5755 H   0  0  0  0  0  0  0  0  0  0  0  0
    2.0725   69.5747   67.1765 H   0  0  0  0  0  0  0  0  0  0  0  0
    0.6199   68.7360   65.5588 H   0  0  0  0  0  0  0  0  0  0  0  0
    0.2050   68.0187   63.2118 H   0  0  0  0  0  0  0  0  0  0  0  0
    2.0813   67.9831   61.5678 H   0  0  0  0  0  0  0  0  0  0  0  0
    4.3677   68.6702   62.2802 H   0  0  0  0  0  0  0  0  0  0  0  0
  2  1  2  0
  3  2  1  0
  4  3  2  0
  5  4  1  0
  6  5  2  0
  6  1  1  0
  7  5  1  0
  8  7  1  0
  9  8  2  0
 10  9  1  0
 10  4  1  0
 11  9  1  0
 12 11  2  0
 13 12  1  0
 14 13  2  0
 14  8  1  0
  1 15  1  0
  2 16  1  0
  3 17  1  0
  6 18  1  0
 10 19  1  0
 11 20  1  0
 12 21  1  0
 13 22  1  0
 14 23  1  0
M  END
>  <score>  (6) 
-8.467

$$$$
=
     RDKit          3D

 23 25  0  0  0  0  0  0  0  0999 V2000
   -0.9680   68.8510   67.2200 C   0  0  0  0  0  0  0  0  0  0  0  0
   -1.5370   68.6980   65.9600 C   0  0  0  0  0  0  0  0  0  0  0  0
   -0.7200   68.6640   64.8290 C   0  0  0  0  0  0  0  0  0  0  0  0
    0.6760   68.7670   64.9390 C   0  0  0  0  0  0  0  0  0  0  0  0
    1.2430   68.9420   66.2130 C   0  0  0  0  0  0  0  0  0  0  0  0
    0.4150   68.9750   67.3450 C   0  0  0  0  0  0  0  0  0  0  0  0
    3.0000   69.1230   66.4730 S   0  0  0  0  0  0  0  0  0  0  0  0
    3.6630   68.9920   64.8210 C   0  0  0  0  0  0  0  0  0  0  0  0
    2.8550   68.8120   63.6880 C   0  0  0  0  0  0  0  0  0  0  0  0
    1.4500   68.7700   63.7660 N   0  0  0  0  0  0  0  0  0  0  0  0
    3.4630   68.7500   62.4230 C   0  0  0  0  0  0  0  0  0  0  0  0
    4.8510   68.8300   62.2880 C   0  0  0  0  0  0  0  0  0  0  0  0
    5.6490   68.9880   63.4160 C   0  0  0  0  0  0  0  0  0  0  0  0
    5.0570   69.0710   64.6770 C   0  0  0  0  0  0  0  0  0  0  0  0
   -1.6072   68.8741   68.1149 H   0  0  0  0  0  0  0  0  0  0  0  0
   -2.6280   68.6041   65.8553 H   0  0  0  0  0  0  0  0  0  0  0  0
   -1.1774   68.5547   63.8346 H   0  0  0  0  0  0  0  0  0  0  0  0
    0.8619   69.1001   68.3423 H   0  0  0  0  0  0  0  0  0  0  0  0
    0.9375   68.7383   62.8731 H   0  0  0  0  0  0  0  0  0  0  0  0
    2.8368   68.6368   61.5257 H   0  0  0  0  0  0  0  0  0  0  0  0
    5.3121   68.7681   61.2912 H   0  0  0  0  0  0  0  0  0  0  0  0
    6.7427   69.0473   63.3146 H   0  0  0  0  0  0  0  0  0  0  0  0
    5.6896   69.1997   65.5677 H   0  0  0  0  0  0  0  0  0  0  0  0
  2  1  2  0
  3  2  1  0
  4  3  2  0
  5  4  1  0
  6  5  2  0
  6  1  1  0
  7  5  1  0
  8  7  1  0
  9  8  2  0
 10  9  1  0
 10  4  1  0
 11  9  1  0
 12 11  2  0
 13 12  1  0
 14 13  2  0
 14  8  1  0
  1 15  1  0
  2 16  1  0
  3 17  1  0
  6 18  1  0
 10 19  1  0
 11 20  1  0
 12 21  1  0
 13 22  1  0
 14 23  1  0
M  END
>  <score>  (7) 
-7.181

$$$$
=
     RDKit          3D

 23 25  0  0  0  0  0  0  0  0999 V2000
    5.6610   69.0250   63.5290 C   0  0  0  0  0  0  0  0  0  0  0  0
    4.8860   68.8360   62.3900 C   0  0  0  0  0  0  0  0  0  0  0  0
    3.4990   68.7260   62.5030 C   0  0  0  0  0  0  0  0  0  0  0  0
    2.8650   68.8170   63.7530 C   0  0  0  0  0  0  0  0  0  0  0  0
    3.6550   68.9870   64.9030 C   0  0  0  0  0  0  0  0  0  0  0  0
    5.0490   69.0970   64.7800 C   0  0  0  0  0  0  0  0  0  0  0  0
    2.9640   69.0780   66.5460 S   0  0  0  0  0  0  0  0  0  0  0  0
    1.2100   68.9320   66.2510 C   0  0  0  0  0  0  0  0  0  0  0  0
    0.6650   68.7680   64.9670 C   0  0  0  0  0  0  0  0  0  0  0  0
    1.4690   68.6570   63.8180 N   0  0  0  0  0  0  0  0  0  0  0  0
   -0.7260   68.6320   64.8330 C   0  0  0  0  0  0  0  0  0  0  0  0
   -1.5660   68.6920   65.9480 C   0  0  0  0  0  0  0  0  0  0  0  0
   -1.0230   68.8760   67.2150 C   0  0  0  0  0  0  0  0  0  0  0  0
    0.3600   68.9930   67.3660 C   0  0  0  0  0  0  0  0  0  0  0  0
    6.7538   69.1175   63.4435 H   0  0  0  0  0  0  0  0  0  0  0  0
    5.3650   68.7733   61.4018 H   0  0  0  0  0  0  0  0  0  0  0  0
    2.8931   68.5656   61.5990 H   0  0  0  0  0  0  0  0  0  0  0  0
    5.6651   69.2415   65.6798 H   0  0  0  0  0  0  0  0  0  0  0  0
    0.9867   68.4363   62.9351 H   0  0  0  0  0  0  0  0  0  0  0  0
   -1.1612   68.4758   63.8349 H   0  0  0  0  0  0  0  0  0  0  0  0
   -2.6546   68.5939   65.8239 H   0  0  0  0  0  0  0  0  0  0  0  0
   -1.6808   68.9292   68.0950 H   0  0  0  0  0  0  0  0  0  0  0  0
    0.7879   69.1345   68.3694 H   0  0  0  0  0  0  0  0  0  0  0  0
  2  1  2  0
  3  2  1  0
  4  3  2  0
  5  4  1  0
  6  5  2  0
  6  1  1  0
  7  5  1  0
  8  7  1  0
  9  8  2  0
 10  9  1  0
 10  4  1  0
 11  9  1  0
 12 11  2  0
 13 12  1  0
 14 13  2  0
 14  8  1  0
  1 15  1  0
  2 16  1  0
  3 17  1  0
  6 18  1  0
 10 19  1  0
 11 20  1  0
 12 21  1  0
 13 22  1  0
 14 23  1  0
M  END
>  <score>  (8) 
-7.146

$$$$
=
     RDKit          3D

 23 25  0  0  0  0  0  0  0  0999 V2000
   -1.5500   68.7230   66.1890 C   0  0  0  0  0  0  0  0  0  0  0  0
   -0.7430   68.7580   67.3220 C   0  0  0  0  0  0  0  0  0  0  0  0
    0.6450   68.7860   67.1860 C   0  0  0  0  0  0  0  0  0  0  0  0
    1.2490   68.7940   65.9180 C   0  0  0  0  0  0  0  0  0  0  0  0
    0.4310   68.7380   64.7780 C   0  0  0  0  0  0  0  0  0  0  0  0
   -0.9650   68.7100   64.9230 C   0  0  0  0  0  0  0  0  0  0  0  0
    1.0860   68.7060   63.1170 S   0  0  0  0  0  0  0  0  0  0  0  0
    2.8490   68.7870   63.3820 C   0  0  0  0  0  0  0  0  0  0  0  0
    3.4250   68.8390   64.6610 C   0  0  0  0  0  0  0  0  0  0  0  0
    2.6530   68.7800   65.8360 N   0  0  0  0  0  0  0  0  0  0  0  0
    4.8250   68.8710   64.7740 C   0  0  0  0  0  0  0  0  0  0  0  0
    5.6380   68.8880   63.6380 C   0  0  0  0  0  0  0  0  0  0  0  0
    5.0610   68.8570   62.3730 C   0  0  0  0  0  0  0  0  0  0  0  0
    3.6720   68.8050   62.2460 C   0  0  0  0  0  0  0  0  0  0  0  0
   -2.6451   68.7057   66.2914 H   0  0  0  0  0  0  0  0  0  0  0  0
   -1.1988   68.7636   68.3231 H   0  0  0  0  0  0  0  0  0  0  0  0
    1.2767   68.8021   68.0864 H   0  0  0  0  0  0  0  0  0  0  0  0
   -1.6044   68.6775   64.0285 H   0  0  0  0  0  0  0  0  0  0  0  0
    3.1682   68.7206   66.7259 H   0  0  0  0  0  0  0  0  0  0  0  0
    5.2879   68.8828   65.7718 H   0  0  0  0  0  0  0  0  0  0  0  0
    6.7322   68.9258   63.7439 H   0  0  0  0  0  0  0  0  0  0  0  0
    5.6971   68.8734   61.4757 H   0  0  0  0  0  0  0  0  0  0  0  0
    3.2178   68.7778   61.2445 H   0  0  0  0  0  0  0  0  0  0  0  0
  2  1  2  0
  3  2  1  0
  4  3  2  0
  5  4  1  0
  6  5  2  0
  6  1  1  0
  7  5  1  0
  8  7  1  0
  9  8  2  0
 10  9  1  0
 10  4  1  0
 11  9  1  0
 12 11  2  0
 13 12  1  0
 14 13  2  0
 14  8  1  0
  1 15  1  0
  2 16  1  0
  3 17  1  0
  6 18  1  0
 10 19  1  0
 11 20  1  0
 12 21  1  0
 13 22  1  0
 14 23  1  0
M  END
>  <score>  (9) 
-7.122

$$$$
