=
     RDKit          3D

 63 65  0  0  0  0  0  0  0  0999 V2000
    0.8590   67.7010   68.5440 C   0  0  0  0  0  0  0  0  0  0  0  0
   -0.1400   66.8260   68.7850 C   0  0  0  0  0  0  0  0  0  0  0  0
   -1.4780   66.8320   68.0970 C   0  0  0  0  0  0  0  0  0  0  0  0
    0.9010   68.8500   67.5670 C   0  0  0  0  0  0  0  0  0  0  0  0
    2.7770   69.1150   65.8440 C   0  0  0  0  0  0  0  0  0  0  0  0
    2.3110   69.2500   67.1800 C   0  0  0  0  0  0  0  0  0  0  0  0
    3.1960   69.7510   68.1430 C   0  0  0  0  0  0  0  0  0  0  0  0
    4.4870   70.0600   67.7580 C   0  0  0  0  0  0  0  0  0  0  0  0
    4.9540   69.8810   66.4730 C   0  0  0  0  0  0  0  0  0  0  0  0
    4.1180   69.3800   65.4830 C   0  0  0  0  0  0  0  0  0  0  0  0
    4.6280   69.1660   64.0880 C   0  0  0  0  0  0  0  0  0  0  0  0
    6.3760   70.2870   66.4260 C   0  0  0  0  0  0  0  0  0  0  0  0
    6.6480   70.7320   67.7730 O   0  0  0  0  0  0  0  0  0  0  0  0
    5.5570   70.5970   68.5760 C   0  0  0  0  0  0  0  0  0  0  0  0
    5.4540   70.8730   69.7560 O   0  0  0  0  0  0  0  0  0  0  0  0
    2.0200   67.2160   64.7830 C   0  0  0  0  0  0  0  0  0  0  0  0
    1.9090   68.6360   64.8910 O   0  0  0  0  0  0  0  0  0  0  0  0
    2.7770   69.9240   69.4340 O   0  0  0  0  0  0  0  0  0  0  0  0
    0.0740   65.7040   69.7820 C   0  0  0  0  0  0  0  0  0  0  0  0
    1.5440   65.5300   70.1580 C   0  0  0  0  0  0  0  0  0  0  0  0
    1.8930   64.0730   70.3050 C   0  0  0  0  0  0  0  0  0  0  0  0
    1.2380   63.1210   69.9000 O   0  0  0  0  0  0  0  0  0  0  0  0
    3.0490   63.9260   71.0080 O   0  0  0  0  0  0  0  0  0  0  0  0
    4.2010   63.4560   70.2760 C   0  0  0  0  0  0  0  0  0  0  0  0
    5.0930   62.5010   71.0910 C   0  0  0  0  0  0  0  0  0  0  0  0
    4.7050   61.0500   70.9230 N   0  0  0  0  0  4  0  0  0  0  0  0
    4.1630   60.7320   69.5360 C   0  0  0  0  0  0  0  0  0  0  0  0
    3.3700   59.4160   69.5410 C   0  0  0  0  0  0  0  0  0  0  0  0
    3.9120   58.5050   70.4960 O   0  0  0  0  0  0  0  0  0  0  0  0
    3.7340   58.9560   71.8470 C   0  0  0  0  0  0  0  0  0  0  0  0
    3.8050   60.4860   72.0010 C   0  0  0  0  0  0  0  0  0  0  0  0
    1.7698   67.5562   69.1436 H   0  0  0  0  0  0  0  0  0  0  0  0
   -2.2783   66.8356   68.8516 H   0  0  0  0  0  0  0  0  0  0  0  0
   -1.5629   67.7305   67.4682 H   0  0  0  0  0  0  0  0  0  0  0  0
   -1.5710   65.9343   67.4682 H   0  0  0  0  0  0  0  0  0  0  0  0
    0.3583   68.5555   66.6567 H   0  0  0  0  0  0  0  0  0  0  0  0
    0.4377   69.7172   68.0603 H   0  0  0  0  0  0  0  0  0  0  0  0
    5.6416   68.7407   64.1294 H   0  0  0  0  0  0  0  0  0  0  0  0
    3.9606   68.4720   63.5560 H   0  0  0  0  0  0  0  0  0  0  0  0
    4.6556   70.1284   63.5560 H   0  0  0  0  0  0  0  0  0  0  0  0
    7.0186   69.4358   66.1565 H   0  0  0  0  0  0  0  0  0  0  0  0
    6.5738   71.0630   65.6718 H   0  0  0  0  0  0  0  0  0  0  0  0
    2.0546   66.7733   65.7894 H   0  0  0  0  0  0  0  0  0  0  0  0
    1.1500   66.8206   64.2382 H   0  0  0  0  0  0  0  0  0  0  0  0
    2.9409   66.9606   64.2382 H   0  0  0  0  0  0  0  0  0  0  0  0
    3.4030   70.2782   70.1143 H   0  0  0  0  0  0  0  0  0  0  0  0
   -0.4995   65.9277   70.6936 H   0  0  0  0  0  0  0  0  0  0  0  0
   -0.2642   64.7690   69.3115 H   0  0  0  0  0  0  0  0  0  0  0  0
    2.1718   65.9729   69.3708 H   0  0  0  0  0  0  0  0  0  0  0  0
    1.7221   66.0325   71.1202 H   0  0  0  0  0  0  0  0  0  0  0  0
    3.8514   62.9259   69.3778 H   0  0  0  0  0  0  0  0  0  0  0  0
    4.8102   64.3373   70.0266 H   0  0  0  0  0  0  0  0  0  0  0  0
    6.1350   62.6265   70.7616 H   0  0  0  0  0  0  0  0  0  0  0  0
    4.9671   62.7564   72.1535 H   0  0  0  0  0  0  0  0  0  0  0  0
    5.6037   60.5597   71.0362 H   0  0  0  0  0  0  0  0  0  0  0  0
    3.5013   61.5491   69.2127 H   0  0  0  0  0  0  0  0  0  0  0  0
    5.0120   60.6260   68.8447 H   0  0  0  0  0  0  0  0  0  0  0  0
    2.3214   59.6271   69.7978 H   0  0  0  0  0  0  0  0  0  0  0  0
    3.4336   58.9606   68.5417 H   0  0  0  0  0  0  0  0  0  0  0  0
    2.7491   58.6164   72.1999 H   0  0  0  0  0  0  0  0  0  0  0  0
    4.5593   58.5338   72.4391 H   0  0  0  0  0  0  0  0  0  0  0  0
    2.7966   60.9137   71.9002 H   0  0  0  0  0  0  0  0  0  0  0  0
    4.2086   60.7408   72.9921 H   0  0  0  0  0  0  0  0  0  0  0  0
  2  1  2  0
  3  2  1  0
  4  1  1  0
  6  5  2  0
  6  4  1  0
  7  6  1  0
  8  7  2  0
  9  8  1  0
 10  9  2  0
 10  5  1  0
 11 10  1  0
 12  9  1  0
 13 12  1  0
 14  8  1  0
 14 13  1  0
 15 14  2  0
 17 16  1  0
 17  5  1  0
 18  7  1  0
 19  2  1  0
 20 19  1  0
 21 20  1  0
 22 21  2  0
 23 21  1  0
 24 23  1  0
 25 24  1  0
 26 25  1  0
 27 26  1  0
 28 27  1  0
 29 28  1  0
 30 29  1  0
 31 30  1  0
 31 26  1  0
  1 32  1  0
  3 33  1  0
  3 34  1  0
  3 35  1  0
  4 36  1  0
  4 37  1  0
 11 38  1  0
 11 39  1  0
 11 40  1  0
 12 41  1  0
 12 42  1  0
 16 43  1  0
 16 44  1  0
 16 45  1  0
 18 46  1  0
 19 47  1  0
 19 48  1  0
 20 49  1  0
 20 50  1  0
 24 51  1  0
 24 52  1  0
 25 53  1  0
 25 54  1  0
 26 55  1  0
 27 56  1  0
 27 57  1  0
 28 58  1  0
 28 59  1  0
 30 60  1  0
 30 61  1  0
 31 62  1  0
 31 63  1  0
M  CHG  1  26   1
M  END
>  <score>  (1) 
-10.363

$$$$
=
     RDKit          3D

 63 65  0  0  0  0  0  0  0  0999 V2000
    0.6210   67.5740   67.3610 C   0  0  0  0  0  0  0  0  0  0  0  0
   -0.6000   67.2220   67.8140 C   0  0  0  0  0  0  0  0  0  0  0  0
   -1.9040   67.7380   67.2700 C   0  0  0  0  0  0  0  0  0  0  0  0
    0.9840   68.5220   66.2440 C   0  0  0  0  0  0  0  0  0  0  0  0
    3.2800   69.0690   65.2480 C   0  0  0  0  0  0  0  0  0  0  0  0
    2.3940   69.0660   66.3600 C   0  0  0  0  0  0  0  0  0  0  0  0
    2.8610   69.5680   67.5810 C   0  0  0  0  0  0  0  0  0  0  0  0
    4.1690   70.0130   67.6560 C   0  0  0  0  0  0  0  0  0  0  0  0
    5.0430   69.9680   66.5920 C   0  0  0  0  0  0  0  0  0  0  0  0
    4.6300   69.4710   65.3610 C   0  0  0  0  0  0  0  0  0  0  0  0
    5.5850   69.4030   64.2050 C   0  0  0  0  0  0  0  0  0  0  0  0
    6.3530   70.4950   67.0340 C   0  0  0  0  0  0  0  0  0  0  0  0
    6.1260   70.8620   68.4120 O   0  0  0  0  0  0  0  0  0  0  0  0
    4.8530   70.5770   68.8030 C   0  0  0  0  0  0  0  0  0  0  0  0
    4.3450   70.7560   69.8940 O   0  0  0  0  0  0  0  0  0  0  0  0
    3.1040   67.1930   63.9220 C   0  0  0  0  0  0  0  0  0  0  0  0
    2.8220   68.5890   64.0440 O   0  0  0  0  0  0  0  0  0  0  0  0
    2.0310   69.6110   68.6670 O   0  0  0  0  0  0  0  0  0  0  0  0
   -0.7190   66.1930   68.9210 C   0  0  0  0  0  0  0  0  0  0  0  0
    0.3670   66.3520   69.9830 C   0  0  0  0  0  0  0  0  0  0  0  0
    0.4730   65.1130   70.8340 C   0  0  0  0  0  0  0  0  0  0  0  0
   -0.0040   64.9520   71.9500 O   0  0  0  0  0  0  0  0  0  0  0  0
    1.2290   64.1680   70.2110 O   0  0  0  0  0  0  0  0  0  0  0  0
    2.5590   63.9540   70.7300 C   0  0  0  0  0  0  0  0  0  0  0  0
    2.8840   62.4700   70.9790 C   0  0  0  0  0  0  0  0  0  0  0  0
    2.1740   61.9100   72.1900 N   0  0  0  0  0  4  0  0  0  0  0  0
    0.7420   61.4810   71.8990 C   0  0  0  0  0  0  0  0  0  0  0  0
   -0.0730   61.3610   73.1950 C   0  0  0  0  0  0  0  0  0  0  0  0
    0.7590   60.9440   74.2760 O   0  0  0  0  0  0  0  0  0  0  0  0
    1.7310   61.9380   74.6360 C   0  0  0  0  0  0  0  0  0  0  0  0
    2.2440   62.7590   73.4400 C   0  0  0  0  0  0  0  0  0  0  0  0
    1.4709   67.1045   67.8780 H   0  0  0  0  0  0  0  0  0  0  0  0
   -2.5706   68.0018   68.1043 H   0  0  0  0  0  0  0  0  0  0  0  0
   -1.7170   68.6299   66.6539 H   0  0  0  0  0  0  0  0  0  0  0  0
   -2.3780   66.9596   66.6539 H   0  0  0  0  0  0  0  0  0  0  0  0
    0.8929   67.9869   65.2873 H   0  0  0  0  0  0  0  0  0  0  0  0
    0.2962   69.3783   66.3043 H   0  0  0  0  0  0  0  0  0  0  0  0
    6.6150   69.3297   64.5841 H   0  0  0  0  0  0  0  0  0  0  0  0
    5.3561   68.5189   63.5919 H   0  0  0  0  0  0  0  0  0  0  0  0
    5.4837   70.3106   63.5919 H   0  0  0  0  0  0  0  0  0  0  0  0
    7.1328   69.7230   66.9569 H   0  0  0  0  0  0  0  0  0  0  0  0
    6.7029   71.3380   66.4200 H   0  0  0  0  0  0  0  0  0  0  0  0
    3.1939   66.7481   64.9240 H   0  0  0  0  0  0  0  0  0  0  0  0
    2.2872   66.7004   63.3741 H   0  0  0  0  0  0  0  0  0  0  0  0
    4.0479   67.0561   63.3741 H   0  0  0  0  0  0  0  0  0  0  0  0
    2.3625   69.9662   69.5296 H   0  0  0  0  0  0  0  0  0  0  0  0
   -1.7022   66.3035   69.4018 H   0  0  0  0  0  0  0  0  0  0  0  0
   -0.6016   65.1977   68.4677 H   0  0  0  0  0  0  0  0  0  0  0  0
    1.3322   66.5317   69.4869 H   0  0  0  0  0  0  0  0  0  0  0  0
    0.1035   67.2013   70.6304 H   0  0  0  0  0  0  0  0  0  0  0  0
    3.2847   64.3537   70.0064 H   0  0  0  0  0  0  0  0  0  0  0  0
    2.6163   64.4675   71.7011 H   0  0  0  0  0  0  0  0  0  0  0  0
    2.5806   61.8906   70.0946 H   0  0  0  0  0  0  0  0  0  0  0  0
    3.9655   62.3946   71.1650 H   0  0  0  0  0  0  0  0  0  0  0  0
    2.7245   61.0665   72.4054 H   0  0  0  0  0  0  0  0  0  0  0  0
    0.2689   62.2282   71.2449 H   0  0  0  0  0  0  0  0  0  0  0  0
    0.7649   60.4969   71.4081 H   0  0  0  0  0  0  0  0  0  0  0  0
   -0.5149   62.3391   73.4357 H   0  0  0  0  0  0  0  0  0  0  0  0
   -0.8642   60.6112   73.0475 H   0  0  0  0  0  0  0  0  0  0  0  0
    1.2718   62.6274   75.3598 H   0  0  0  0  0  0  0  0  0  0  0  0
    2.5966   61.4054   75.0569 H   0  0  0  0  0  0  0  0  0  0  0  0
    1.6181   63.6546   73.3125 H   0  0  0  0  0  0  0  0  0  0  0  0
    3.2844   63.0668   73.6210 H   0  0  0  0  0  0  0  0  0  0  0  0
  2  1  2  0
  3  2  1  0
  4  1  1  0
  6  5  2  0
  6  4  1  0
  7  6  1  0
  8  7  2  0
  9  8  1  0
 10  9  2  0
 10  5  1  0
 11 10  1  0
 12  9  1  0
 13 12  1  0
 14  8  1  0
 14 13  1  0
 15 14  2  0
 17 16  1  0
 17  5  1  0
 18  7  1  0
 19  2  1  0
 20 19  1  0
 21 20  1  0
 22 21  2  0
 23 21  1  0
 24 23  1  0
 25 24  1  0
 26 25  1  0
 27 26  1  0
 28 27  1  0
 29 28  1  0
 30 29  1  0
 31 30  1  0
 31 26  1  0
  1 32  1  0
  3 33  1  0
  3 34  1  0
  3 35  1  0
  4 36  1  0
  4 37  1  0
 11 38  1  0
 11 39  1  0
 11 40  1  0
 12 41  1  0
 12 42  1  0
 16 43  1  0
 16 44  1  0
 16 45  1  0
 18 46  1  0
 19 47  1  0
 19 48  1  0
 20 49  1  0
 20 50  1  0
 24 51  1  0
 24 52  1  0
 25 53  1  0
 25 54  1  0
 26 55  1  0
 27 56  1  0
 27 57  1  0
 28 58  1  0
 28 59  1  0
 30 60  1  0
 30 61  1  0
 31 62  1  0
 31 63  1  0
M  CHG  1  26   1
M  END
>  <score>  (2) 
-9.424

$$$$
=
     RDKit          3D

 63 65  0  0  0  0  0  0  0  0999 V2000
    1.1360   68.1130   68.3910 C   0  0  0  0  0  0  0  0  0  0  0  0
    0.0580   67.3050   68.3120 C   0  0  0  0  0  0  0  0  0  0  0  0
   -1.1590   67.5680   67.4680 C   0  0  0  0  0  0  0  0  0  0  0  0
    1.3960   69.4210   67.6850 C   0  0  0  0  0  0  0  0  0  0  0  0
    3.9000   69.6360   67.1910 C   0  0  0  0  0  0  0  0  0  0  0  0
    2.5810   69.3620   66.7410 C   0  0  0  0  0  0  0  0  0  0  0  0
    2.3930   69.0490   65.3880 C   0  0  0  0  0  0  0  0  0  0  0  0
    3.4940   69.0520   64.5510 C   0  0  0  0  0  0  0  0  0  0  0  0
    4.7660   69.3670   64.9780 C   0  0  0  0  0  0  0  0  0  0  0  0
    5.0020   69.6930   66.3080 C   0  0  0  0  0  0  0  0  0  0  0  0
    6.3830   70.0550   66.7730 C   0  0  0  0  0  0  0  0  0  0  0  0
    5.6840   69.2960   63.8200 C   0  0  0  0  0  0  0  0  0  0  0  0
    4.8280   68.8860   62.7300 O   0  0  0  0  0  0  0  0  0  0  0  0
    3.5350   68.7490   63.1340 C   0  0  0  0  0  0  0  0  0  0  0  0
    2.5710   68.4240   62.4660 O   0  0  0  0  0  0  0  0  0  0  0  0
    3.5660   71.2250   68.8260 C   0  0  0  0  0  0  0  0  0  0  0  0
    4.0910   69.9320   68.5210 O   0  0  0  0  0  0  0  0  0  0  0  0
    1.1430   68.7500   64.9210 O   0  0  0  0  0  0  0  0  0  0  0  0
    0.0480   65.9950   69.0750 C   0  0  0  0  0  0  0  0  0  0  0  0
    0.8490   66.0720   70.3740 C   0  0  0  0  0  0  0  0  0  0  0  0
    0.1670   65.3000   71.4730 C   0  0  0  0  0  0  0  0  0  0  0  0
   -0.4150   65.7710   72.4430 O   0  0  0  0  0  0  0  0  0  0  0  0
    0.3140   63.9610   71.2800 O   0  0  0  0  0  0  0  0  0  0  0  0
    1.3560   63.3050   72.0340 C   0  0  0  0  0  0  0  0  0  0  0  0
    1.2100   61.7740   72.0720 C   0  0  0  0  0  0  0  0  0  0  0  0
    2.4700   61.0540   71.6500 N   0  0  0  0  0  4  0  0  0  0  0  0
    2.8410   61.2990   70.1950 C   0  0  0  0  0  0  0  0  0  0  0  0
    3.8170   60.2290   69.6850 C   0  0  0  0  0  0  0  0  0  0  0  0
    4.6700   59.7820   70.7390 O   0  0  0  0  0  0  0  0  0  0  0  0
    3.9550   59.0620   71.7550 C   0  0  0  0  0  0  0  0  0  0  0  0
    2.5240   59.5790   71.9840 C   0  0  0  0  0  0  0  0  0  0  0  0
    1.9363   67.7705   69.0635 H   0  0  0  0  0  0  0  0  0  0  0  0
   -2.0244   67.7550   68.1207 H   0  0  0  0  0  0  0  0  0  0  0  0
   -0.9816   68.4485   66.8330 H   0  0  0  0  0  0  0  0  0  0  0  0
   -1.3610   66.6928   66.8330 H   0  0  0  0  0  0  0  0  0  0  0  0
    0.5003   69.6905   67.1061 H   0  0  0  0  0  0  0  0  0  0  0  0
    1.6283   70.1697   68.4566 H   0  0  0  0  0  0  0  0  0  0  0  0
    6.4096   70.0620   67.8727 H   0  0  0  0  0  0  0  0  0  0  0  0
    7.1033   69.3153   66.3935 H   0  0  0  0  0  0  0  0  0  0  0  0
    6.6479   71.0529   66.3935 H   0  0  0  0  0  0  0  0  0  0  0  0
    6.1355   70.2782   63.6163 H   0  0  0  0  0  0  0  0  0  0  0  0
    6.5254   68.6068   63.9842 H   0  0  0  0  0  0  0  0  0  0  0  0
    3.5145   71.3517   69.9175 H   0  0  0  0  0  0  0  0  0  0  0  0
    4.2218   71.9974   68.3977 H   0  0  0  0  0  0  0  0  0  0  0  0
    2.5574   71.3216   68.3977 H   0  0  0  0  0  0  0  0  0  0  0  0
    1.0115   68.5291   63.9650 H   0  0  0  0  0  0  0  0  0  0  0  0
   -0.9931   65.7348   69.3167 H   0  0  0  0  0  0  0  0  0  0  0  0
    0.5163   65.2312   68.4367 H   0  0  0  0  0  0  0  0  0  0  0  0
    1.8504   65.6494   70.2051 H   0  0  0  0  0  0  0  0  0  0  0  0
    0.9231   67.1263   70.6791 H   0  0  0  0  0  0  0  0  0  0  0  0
    2.3256   63.5517   71.5768 H   0  0  0  0  0  0  0  0  0  0  0  0
    1.2824   63.6644   73.0710 H   0  0  0  0  0  0  0  0  0  0  0  0
    0.9592   61.4704   73.0991 H   0  0  0  0  0  0  0  0  0  0  0  0
    0.4178   61.4995   71.3599 H   0  0  0  0  0  0  0  0  0  0  0  0
    3.1896   61.4919   72.2427 H   0  0  0  0  0  0  0  0  0  0  0  0
    1.9278   61.2734   69.5823 H   0  0  0  0  0  0  0  0  0  0  0  0
    3.3298   62.2816   70.1201 H   0  0  0  0  0  0  0  0  0  0  0  0
    3.2447   59.3739   69.2961 H   0  0  0  0  0  0  0  0  0  0  0  0
    4.4373   60.6662   68.8887 H   0  0  0  0  0  0  0  0  0  0  0  0
    3.8994   58.0043   71.4580 H   0  0  0  0  0  0  0  0  0  0  0  0
    4.5040   59.2032   72.6977 H   0  0  0  0  0  0  0  0  0  0  0  0
    1.8257   59.0290   71.3360 H   0  0  0  0  0  0  0  0  0  0  0  0
    2.2393   59.4269   73.0356 H   0  0  0  0  0  0  0  0  0  0  0  0
  2  1  2  0
  3  2  1  0
  4  1  1  0
  6  5  2  0
  6  4  1  0
  7  6  1  0
  8  7  2  0
  9  8  1  0
 10  9  2  0
 10  5  1  0
 11 10  1  0
 12  9  1  0
 13 12  1  0
 14  8  1  0
 14 13  1  0
 15 14  2  0
 17 16  1  0
 17  5  1  0
 18  7  1  0
 19  2  1  0
 20 19  1  0
 21 20  1  0
 22 21  2  0
 23 21  1  0
 24 23  1  0
 25 24  1  0
 26 25  1  0
 27 26  1  0
 28 27  1  0
 29 28  1  0
 30 29  1  0
 31 30  1  0
 31 26  1  0
  1 32  1  0
  3 33  1  0
  3 34  1  0
  3 35  1  0
  4 36  1  0
  4 37  1  0
 11 38  1  0
 11 39  1  0
 11 40  1  0
 12 41  1  0
 12 42  1  0
 16 43  1  0
 16 44  1  0
 16 45  1  0
 18 46  1  0
 19 47  1  0
 19 48  1  0
 20 49  1  0
 20 50  1  0
 24 51  1  0
 24 52  1  0
 25 53  1  0
 25 54  1  0
 26 55  1  0
 27 56  1  0
 27 57  1  0
 28 58  1  0
 28 59  1  0
 30 60  1  0
 30 61  1  0
 31 62  1  0
 31 63  1  0
M  CHG  1  26   1
M  END
>  <score>  (3) 
-9.391

$$$$
=
     RDKit          3D

 63 65  0  0  0  0  0  0  0  0999 V2000
    0.1990   67.6540   67.4550 C   0  0  0  0  0  0  0  0  0  0  0  0
   -0.8660   67.0650   68.0380 C   0  0  0  0  0  0  0  0  0  0  0  0
   -2.2750   67.1180   67.5150 C   0  0  0  0  0  0  0  0  0  0  0  0
    0.2580   68.4720   66.1880 C   0  0  0  0  0  0  0  0  0  0  0  0
    2.7090   69.0880   66.6020 C   0  0  0  0  0  0  0  0  0  0  0  0
    1.6730   68.7160   65.7030 C   0  0  0  0  0  0  0  0  0  0  0  0
    1.9870   68.5960   64.3430 C   0  0  0  0  0  0  0  0  0  0  0  0
    3.2790   68.8740   63.9370 C   0  0  0  0  0  0  0  0  0  0  0  0
    4.2710   69.2830   64.8020 C   0  0  0  0  0  0  0  0  0  0  0  0
    4.0080   69.4250   66.1580 C   0  0  0  0  0  0  0  0  0  0  0  0
    5.0810   69.8890   67.1010 C   0  0  0  0  0  0  0  0  0  0  0  0
    5.5100   69.5140   64.0250 C   0  0  0  0  0  0  0  0  0  0  0  0
    5.1340   69.1710   62.6730 O   0  0  0  0  0  0  0  0  0  0  0  0
    3.8250   68.8040   62.5950 C   0  0  0  0  0  0  0  0  0  0  0  0
    3.1990   68.4640   61.6090 O   0  0  0  0  0  0  0  0  0  0  0  0
    2.3590   70.5680   68.3330 C   0  0  0  0  0  0  0  0  0  0  0  0
    2.4090   69.1950   67.9400 O   0  0  0  0  0  0  0  0  0  0  0  0
    1.0260   68.2120   63.4490 O   0  0  0  0  0  0  0  0  0  0  0  0
   -0.6680   66.2330   69.2900 C   0  0  0  0  0  0  0  0  0  0  0  0
    0.7730   66.2740   69.7940 C   0  0  0  0  0  0  0  0  0  0  0  0
    1.1320   64.9930   70.5010 C   0  0  0  0  0  0  0  0  0  0  0  0
    0.6240   64.5570   71.5260 O   0  0  0  0  0  0  0  0  0  0  0  0
    2.1610   64.3680   69.8660 O   0  0  0  0  0  0  0  0  0  0  0  0
    3.2050   63.8220   70.7000 C   0  0  0  0  0  0  0  0  0  0  0  0
    3.0570   62.3110   70.9510 C   0  0  0  0  0  0  0  0  0  0  0  0
    2.4580   61.9980   72.3030 N   0  0  0  0  0  4  0  0  0  0  0  0
    3.4770   61.4650   73.3010 C   0  0  0  0  0  0  0  0  0  0  0  0
    2.7850   60.7420   74.4650 C   0  0  0  0  0  0  0  0  0  0  0  0
    1.5190   61.3380   74.7460 O   0  0  0  0  0  0  0  0  0  0  0  0
    0.5730   61.1460   73.6830 C   0  0  0  0  0  0  0  0  0  0  0  0
    1.2140   61.1370   72.2840 C   0  0  0  0  0  0  0  0  0  0  0  0
    1.1583   67.5191   67.9761 H   0  0  0  0  0  0  0  0  0  0  0  0
   -2.9789   67.1445   68.3598 H   0  0  0  0  0  0  0  0  0  0  0  0
   -2.4046   68.0217   66.9013 H   0  0  0  0  0  0  0  0  0  0  0  0
   -2.4721   66.2266   66.9013 H   0  0  0  0  0  0  0  0  0  0  0  0
   -0.2947   67.9384   65.4008 H   0  0  0  0  0  0  0  0  0  0  0  0
   -0.1863   69.4534   66.4103 H   0  0  0  0  0  0  0  0  0  0  0  0
    4.7453   69.7438   68.1384 H   0  0  0  0  0  0  0  0  0  0  0  0
    5.9983   69.3071   66.9276 H   0  0  0  0  0  0  0  0  0  0  0  0
    5.2853   70.9559   66.9276 H   0  0  0  0  0  0  0  0  0  0  0  0
    5.8236   70.5663   64.0901 H   0  0  0  0  0  0  0  0  0  0  0  0
    6.3615   68.9234   64.3940 H   0  0  0  0  0  0  0  0  0  0  0  0
    2.3566   70.6353   69.4309 H   0  0  0  0  0  0  0  0  0  0  0  0
    3.2385   71.0955   67.9353 H   0  0  0  0  0  0  0  0  0  0  0  0
    1.4434   71.0301   67.9353 H   0  0  0  0  0  0  0  0  0  0  0  0
    1.2492   68.1276   62.4882 H   0  0  0  0  0  0  0  0  0  0  0  0
   -1.3295   66.6195   70.0793 H   0  0  0  0  0  0  0  0  0  0  0  0
   -0.9064   65.1887   69.0400 H   0  0  0  0  0  0  0  0  0  0  0  0
    1.4499   66.4150   68.9385 H   0  0  0  0  0  0  0  0  0  0  0  0
    0.8731   67.1076   70.5047 H   0  0  0  0  0  0  0  0  0  0  0  0
    4.1731   64.0011   70.2094 H   0  0  0  0  0  0  0  0  0  0  0  0
    3.1361   64.3225   71.6771 H   0  0  0  0  0  0  0  0  0  0  0  0
    2.4065   61.8873   70.1717 H   0  0  0  0  0  0  0  0  0  0  0  0
    4.0647   61.8706   70.9251 H   0  0  0  0  0  0  0  0  0  0  0  0
    2.1421   62.9224   72.6296 H   0  0  0  0  0  0  0  0  0  0  0  0
    4.1475   60.7599   72.7879 H   0  0  0  0  0  0  0  0  0  0  0  0
    4.0462   62.3145   73.7064 H   0  0  0  0  0  0  0  0  0  0  0  0
    2.6356   59.6858   74.1967 H   0  0  0  0  0  0  0  0  0  0  0  0
    3.4204   60.8216   75.3594 H   0  0  0  0  0  0  0  0  0  0  0  0
    0.0647   60.1830   73.8391 H   0  0  0  0  0  0  0  0  0  0  0  0
   -0.1244   61.9961   73.7135 H   0  0  0  0  0  0  0  0  0  0  0  0
    1.4835   60.1066   72.0091 H   0  0  0  0  0  0  0  0  0  0  0  0
    0.5002   61.5339   71.5471 H   0  0  0  0  0  0  0  0  0  0  0  0
  2  1  2  0
  3  2  1  0
  4  1  1  0
  6  5  2  0
  6  4  1  0
  7  6  1  0
  8  7  2  0
  9  8  1  0
 10  9  2  0
 10  5  1  0
 11 10  1  0
 12  9  1  0
 13 12  1  0
 14  8  1  0
 14 13  1  0
 15 14  2  0
 17 16  1  0
 17  5  1  0
 18  7  1  0
 19  2  1  0
 20 19  1  0
 21 20  1  0
 22 21  2  0
 23 21  1  0
 24 23  1  0
 25 24  1  0
 26 25  1  0
 27 26  1  0
 28 27  1  0
 29 28  1  0
 30 29  1  0
 31 30  1  0
 31 26  1  0
  1 32  1  0
  3 33  1  0
  3 34  1  0
  3 35  1  0
  4 36  1  0
  4 37  1  0
 11 38  1  0
 11 39  1  0
 11 40  1  0
 12 41  1  0
 12 42  1  0
 16 43  1  0
 16 44  1  0
 16 45  1  0
 18 46  1  0
 19 47  1  0
 19 48  1  0
 20 49  1  0
 20 50  1  0
 24 51  1  0
 24 52  1  0
 25 53  1  0
 25 54  1  0
 26 55  1  0
 27 56  1  0
 27 57  1  0
 28 58  1  0
 28 59  1  0
 30 60  1  0
 30 61  1  0
 31 62  1  0
 31 63  1  0
M  CHG  1  26   1
M  END
>  <score>  (4) 
-9.149

$$$$
=
     RDKit          3D

 63 65  0  0  0  0  0  0  0  0999 V2000
    4.6620   67.4750   64.0960 C   0  0  0  0  0  0  0  0  0  0  0  0
    4.3850   66.7880   62.9680 C   0  0  0  0  0  0  0  0  0  0  0  0
    4.0110   67.4070   61.6490 C   0  0  0  0  0  0  0  0  0  0  0  0
    4.6780   68.9680   64.3200 C   0  0  0  0  0  0  0  0  0  0  0  0
    3.0110   69.2960   66.2360 C   0  0  0  0  0  0  0  0  0  0  0  0
    4.3430   69.3590   65.7460 C   0  0  0  0  0  0  0  0  0  0  0  0
    5.3480   69.8090   66.6120 C   0  0  0  0  0  0  0  0  0  0  0  0
    4.9920   70.2000   67.8900 C   0  0  0  0  0  0  0  0  0  0  0  0
    3.6920   70.1870   68.3480 C   0  0  0  0  0  0  0  0  0  0  0  0
    2.6590   69.7570   67.5250 C   0  0  0  0  0  0  0  0  0  0  0  0
    1.2400   69.7600   68.0140 C   0  0  0  0  0  0  0  0  0  0  0  0
    3.6770   70.6920   69.7390 C   0  0  0  0  0  0  0  0  0  0  0  0
    5.0690   70.9530   70.0230 O   0  0  0  0  0  0  0  0  0  0  0  0
    5.8590   70.6830   68.9470 C   0  0  0  0  0  0  0  0  0  0  0  0
    7.0660   70.8000   68.8540 O   0  0  0  0  0  0  0  0  0  0  0  0
    1.6600   67.5010   65.7260 C   0  0  0  0  0  0  0  0  0  0  0  0
    2.0230   68.8430   65.3940 O   0  0  0  0  0  0  0  0  0  0  0  0
    6.6470   69.8560   66.1890 O   0  0  0  0  0  0  0  0  0  0  0  0
    4.4940   65.2760   62.9680 C   0  0  0  0  0  0  0  0  0  0  0  0
    4.8590   64.7180   64.3430 C   0  0  0  0  0  0  0  0  0  0  0  0
    3.7330   63.8890   64.9030 C   0  0  0  0  0  0  0  0  0  0  0  0
    2.9700   63.1720   64.2690 O   0  0  0  0  0  0  0  0  0  0  0  0
    3.6290   64.0700   66.2480 O   0  0  0  0  0  0  0  0  0  0  0  0
    4.1130   63.0000   67.0880 C   0  0  0  0  0  0  0  0  0  0  0  0
    3.4410   62.9610   68.4730 C   0  0  0  0  0  0  0  0  0  0  0  0
    4.0500   61.9250   69.3890 N   0  0  0  0  0  4  0  0  0  0  0  0
    3.1460   60.7200   69.6130 C   0  0  0  0  0  0  0  0  0  0  0  0
    3.5690   59.9380   70.8660 C   0  0  0  0  0  0  0  0  0  0  0  0
    4.9810   60.0160   71.0560 O   0  0  0  0  0  0  0  0  0  0  0  0
    5.4180   61.3440   71.3830 C   0  0  0  0  0  0  0  0  0  0  0  0
    4.5920   62.4490   70.7010 C   0  0  0  0  0  0  0  0  0  0  0  0
    4.9108   66.8618   64.9747 H   0  0  0  0  0  0  0  0  0  0  0  0
    3.4496   68.3362   61.8261 H   0  0  0  0  0  0  0  0  0  0  0  0
    4.9237   67.6332   61.0782 H   0  0  0  0  0  0  0  0  0  0  0  0
    3.3862   66.7043   61.0782 H   0  0  0  0  0  0  0  0  0  0  0  0
    5.6822   69.3473   64.0797 H   0  0  0  0  0  0  0  0  0  0  0  0
    3.9060   69.4055   63.6699 H   0  0  0  0  0  0  0  0  0  0  0  0
    1.2312   69.7600   69.1140 H   0  0  0  0  0  0  0  0  0  0  0  0
    0.7263   70.6592   67.6432 H   0  0  0  0  0  0  0  0  0  0  0  0
    0.7225   68.8629   67.6432 H   0  0  0  0  0  0  0  0  0  0  0  0
    3.0815   71.6137   69.8154 H   0  0  0  0  0  0  0  0  0  0  0  0
    3.2234   69.9816   70.4458 H   0  0  0  0  0  0  0  0  0  0  0  0
    1.6298   67.3893   66.8199 H   0  0  0  0  0  0  0  0  0  0  0  0
    0.6684   67.2750   65.3068 H   0  0  0  0  0  0  0  0  0  0  0  0
    2.4024   66.8060   65.3068 H   0  0  0  0  0  0  0  0  0  0  0  0
    7.3561   70.1743   66.8022 H   0  0  0  0  0  0  0  0  0  0  0  0
    3.5267   64.8521   62.6602 H   0  0  0  0  0  0  0  0  0  0  0  0
    5.2968   64.9977   62.2694 H   0  0  0  0  0  0  0  0  0  0  0  0
    5.7570   64.0896   64.2498 H   0  0  0  0  0  0  0  0  0  0  0  0
    5.0483   65.5601   65.0250 H   0  0  0  0  0  0  0  0  0  0  0  0
    3.9213   62.0434   66.5799 H   0  0  0  0  0  0  0  0  0  0  0  0
    5.1866   63.1747   67.2517 H   0  0  0  0  0  0  0  0  0  0  0  0
    3.5453   63.9503   68.9425 H   0  0  0  0  0  0  0  0  0  0  0  0
    2.3854   62.6909   68.3221 H   0  0  0  0  0  0  0  0  0  0  0  0
    4.8772   61.6131   68.8604 H   0  0  0  0  0  0  0  0  0  0  0  0
    2.1096   61.0665   69.7384 H   0  0  0  0  0  0  0  0  0  0  0  0
    3.2277   60.0544   68.7410 H   0  0  0  0  0  0  0  0  0  0  0  0
    3.0623   60.3629   71.7451 H   0  0  0  0  0  0  0  0  0  0  0  0
    3.2872   58.8826   70.7363 H   0  0  0  0  0  0  0  0  0  0  0  0
    5.3437   61.4763   72.4725 H   0  0  0  0  0  0  0  0  0  0  0  0
    6.4515   61.4425   71.0196 H   0  0  0  0  0  0  0  0  0  0  0  0
    3.7565   62.7405   71.3544 H   0  0  0  0  0  0  0  0  0  0  0  0
    5.2294   63.3259   70.5144 H   0  0  0  0  0  0  0  0  0  0  0  0
  2  1  2  0
  3  2  1  0
  4  1  1  0
  6  5  2  0
  6  4  1  0
  7  6  1  0
  8  7  2  0
  9  8  1  0
 10  9  2  0
 10  5  1  0
 11 10  1  0
 12  9  1  0
 13 12  1  0
 14  8  1  0
 14 13  1  0
 15 14  2  0
 17 16  1  0
 17  5  1  0
 18  7  1  0
 19  2  1  0
 20 19  1  0
 21 20  1  0
 22 21  2  0
 23 21  1  0
 24 23  1  0
 25 24  1  0
 26 25  1  0
 27 26  1  0
 28 27  1  0
 29 28  1  0
 30 29  1  0
 31 30  1  0
 31 26  1  0
  1 32  1  0
  3 33  1  0
  3 34  1  0
  3 35  1  0
  4 36  1  0
  4 37  1  0
 11 38  1  0
 11 39  1  0
 11 40  1  0
 12 41  1  0
 12 42  1  0
 16 43  1  0
 16 44  1  0
 16 45  1  0
 18 46  1  0
 19 47  1  0
 19 48  1  0
 20 49  1  0
 20 50  1  0
 24 51  1  0
 24 52  1  0
 25 53  1  0
 25 54  1  0
 26 55  1  0
 27 56  1  0
 27 57  1  0
 28 58  1  0
 28 59  1  0
 30 60  1  0
 30 61  1  0
 31 62  1  0
 31 63  1  0
M  CHG  1  26   1
M  END
>  <score>  (5) 
-8.944

$$$$
=
     RDKit          3D

 63 65  0  0  0  0  0  0  0  0999 V2000
    1.0150   67.6000   68.6850 C   0  0  0  0  0  0  0  0  0  0  0  0
    0.0670   66.7690   69.1650 C   0  0  0  0  0  0  0  0  0  0  0  0
   -1.2630   66.5070   68.5130 C   0  0  0  0  0  0  0  0  0  0  0  0
    0.9980   68.4370   67.4290 C   0  0  0  0  0  0  0  0  0  0  0  0
    2.9290   68.7680   65.7790 C   0  0  0  0  0  0  0  0  0  0  0  0
    2.3620   68.9880   67.0630 C   0  0  0  0  0  0  0  0  0  0  0  0
    3.1040   69.7200   67.9990 C   0  0  0  0  0  0  0  0  0  0  0  0
    4.3630   70.1660   67.6410 C   0  0  0  0  0  0  0  0  0  0  0  0
    4.9340   69.9080   66.4130 C   0  0  0  0  0  0  0  0  0  0  0  0
    4.2420   69.1800   65.4540 C   0  0  0  0  0  0  0  0  0  0  0  0
    4.8670   68.8810   64.1220 C   0  0  0  0  0  0  0  0  0  0  0  0
    6.2870   70.5080   66.3860 C   0  0  0  0  0  0  0  0  0  0  0  0
    6.4050   71.1420   67.6780 O   0  0  0  0  0  0  0  0  0  0  0  0
    5.2930   70.9440   68.4370 C   0  0  0  0  0  0  0  0  0  0  0  0
    5.0750   71.3370   69.5680 O   0  0  0  0  0  0  0  0  0  0  0  0
    1.4440   68.9490   64.0280 C   0  0  0  0  0  0  0  0  0  0  0  0
    2.2000   68.0600   64.8530 O   0  0  0  0  0  0  0  0  0  0  0  0
    2.5820   69.9800   69.2360 O   0  0  0  0  0  0  0  0  0  0  0  0
    0.3370   65.9790   70.4300 C   0  0  0  0  0  0  0  0  0  0  0  0
    0.4740   64.4810   70.1630 C   0  0  0  0  0  0  0  0  0  0  0  0
    0.6700   63.7210   71.4490 C   0  0  0  0  0  0  0  0  0  0  0  0
   -0.1510   63.5810   72.3470 O   0  0  0  0  0  0  0  0  0  0  0  0
    1.9340   63.2220   71.5230 O   0  0  0  0  0  0  0  0  0  0  0  0
    2.0660   61.7850   71.5700 C   0  0  0  0  0  0  0  0  0  0  0  0
    2.5570   61.2630   72.9320 C   0  0  0  0  0  0  0  0  0  0  0  0
    2.2610   59.7950   73.1380 N   0  0  0  0  0  4  0  0  0  0  0  0
    2.9310   58.8990   72.1060 C   0  0  0  0  0  0  0  0  0  0  0  0
    2.2620   57.5180   72.0560 C   0  0  0  0  0  0  0  0  0  0  0  0
    1.7730   57.1480   73.3450 O   0  0  0  0  0  0  0  0  0  0  0  0
    0.6860   57.9810   73.7780 C   0  0  0  0  0  0  0  0  0  0  0  0
    0.8000   59.4390   73.3000 C   0  0  0  0  0  0  0  0  0  0  0  0
    1.9278   67.6786   69.2938 H   0  0  0  0  0  0  0  0  0  0  0  0
   -2.0282   66.3563   69.2887 H   0  0  0  0  0  0  0  0  0  0  0  0
   -1.5403   67.3678   67.8868 H   0  0  0  0  0  0  0  0  0  0  0  0
   -1.1931   65.6054   67.8868 H   0  0  0  0  0  0  0  0  0  0  0  0
    0.6378   67.8133   66.5976 H   0  0  0  0  0  0  0  0  0  0  0  0
    0.3368   69.2959   67.6162 H   0  0  0  0  0  0  0  0  0  0  0  0
    5.8496   68.4109   64.2753 H   0  0  0  0  0  0  0  0  0  0  0  0
    4.2170   68.1963   63.5574 H   0  0  0  0  0  0  0  0  0  0  0  0
    4.9922   69.8167   63.5574 H   0  0  0  0  0  0  0  0  0  0  0  0
    7.0573   69.7334   66.2572 H   0  0  0  0  0  0  0  0  0  0  0  0
    6.4254   71.2111   65.5514 H   0  0  0  0  0  0  0  0  0  0  0  0
    0.8622   69.6331   64.6632 H   0  0  0  0  0  0  0  0  0  0  0  0
    2.1282   69.5309   63.3929 H   0  0  0  0  0  0  0  0  0  0  0  0
    0.7598   68.3672   63.3929 H   0  0  0  0  0  0  0  0  0  0  0  0
    3.1077   70.4974   69.8963 H   0  0  0  0  0  0  0  0  0  0  0  0
    1.2710   66.3442   70.8819 H   0  0  0  0  0  0  0  0  0  0  0  0
   -0.5201   66.1225   71.1044 H   0  0  0  0  0  0  0  0  0  0  0  0
   -0.4382   64.1189   69.6662 H   0  0  0  0  0  0  0  0  0  0  0  0
    1.3521   64.3175   69.5210 H   0  0  0  0  0  0  0  0  0  0  0  0
    1.0840   61.3371   71.3578 H   0  0  0  0  0  0  0  0  0  0  0  0
    2.8209   61.5025   70.8214 H   0  0  0  0  0  0  0  0  0  0  0  0
    3.6447   61.4144   72.9951 H   0  0  0  0  0  0  0  0  0  0  0  0
    2.0212   61.8217   73.7135 H   0  0  0  0  0  0  0  0  0  0  0  0
    2.6890   59.6042   74.0552 H   0  0  0  0  0  0  0  0  0  0  0  0
    2.8540   59.3716   71.1157 H   0  0  0  0  0  0  0  0  0  0  0  0
    3.9854   58.7665   72.3900 H   0  0  0  0  0  0  0  0  0  0  0  0
    1.4222   57.5490   71.3463 H   0  0  0  0  0  0  0  0  0  0  0  0
    3.0067   56.7754   71.7334 H   0  0  0  0  0  0  0  0  0  0  0  0
   -0.2521   57.5594   73.3880 H   0  0  0  0  0  0  0  0  0  0  0  0
    0.7110   57.9988   74.8776 H   0  0  0  0  0  0  0  0  0  0  0  0
    0.2845   59.5514   72.3348 H   0  0  0  0  0  0  0  0  0  0  0  0
    0.3357   60.1083   74.0393 H   0  0  0  0  0  0  0  0  0  0  0  0
  2  1  2  0
  3  2  1  0
  4  1  1  0
  6  5  2  0
  6  4  1  0
  7  6  1  0
  8  7  2  0
  9  8  1  0
 10  9  2  0
 10  5  1  0
 11 10  1  0
 12  9  1  0
 13 12  1  0
 14  8  1  0
 14 13  1  0
 15 14  2  0
 17 16  1  0
 17  5  1  0
 18  7  1  0
 19  2  1  0
 20 19  1  0
 21 20  1  0
 22 21  2  0
 23 21  1  0
 24 23  1  0
 25 24  1  0
 26 25  1  0
 27 26  1  0
 28 27  1  0
 29 28  1  0
 30 29  1  0
 31 30  1  0
 31 26  1  0
  1 32  1  0
  3 33  1  0
  3 34  1  0
  3 35  1  0
  4 36  1  0
  4 37  1  0
 11 38  1  0
 11 39  1  0
 11 40  1  0
 12 41  1  0
 12 42  1  0
 16 43  1  0
 16 44  1  0
 16 45  1  0
 18 46  1  0
 19 47  1  0
 19 48  1  0
 20 49  1  0
 20 50  1  0
 24 51  1  0
 24 52  1  0
 25 53  1  0
 25 54  1  0
 26 55  1  0
 27 56  1  0
 27 57  1  0
 28 58  1  0
 28 59  1  0
 30 60  1  0
 30 61  1  0
 31 62  1  0
 31 63  1  0
M  CHG  1  26   1
M  END
>  <score>  (6) 
-8.848

$$$$
=
     RDKit          3D

 63 65  0  0  0  0  0  0  0  0999 V2000
    0.2510   67.5520   66.8060 C   0  0  0  0  0  0  0  0  0  0  0  0
   -1.0090   67.6300   67.2840 C   0  0  0  0  0  0  0  0  0  0  0  0
   -2.1160   68.4430   66.6720 C   0  0  0  0  0  0  0  0  0  0  0  0
    0.8490   68.2180   65.5910 C   0  0  0  0  0  0  0  0  0  0  0  0
    3.2890   68.5090   64.8710 C   0  0  0  0  0  0  0  0  0  0  0  0
    2.2580   68.7270   65.8240 C   0  0  0  0  0  0  0  0  0  0  0  0
    2.5780   69.4130   67.0030 C   0  0  0  0  0  0  0  0  0  0  0  0
    3.8850   69.8190   67.1970 C   0  0  0  0  0  0  0  0  0  0  0  0
    4.8960   69.5640   66.2960 C   0  0  0  0  0  0  0  0  0  0  0  0
    4.6320   68.8790   65.1160 C   0  0  0  0  0  0  0  0  0  0  0  0
    5.7340   68.5830   64.1410 C   0  0  0  0  0  0  0  0  0  0  0  0
    6.1600   70.1130   66.8350 C   0  0  0  0  0  0  0  0  0  0  0  0
    5.7630   70.7180   68.0860 O   0  0  0  0  0  0  0  0  0  0  0  0
    4.4330   70.5460   68.3250 C   0  0  0  0  0  0  0  0  0  0  0  0
    3.7880   70.9260   69.2840 O   0  0  0  0  0  0  0  0  0  0  0  0
    2.4960   68.7650   62.7240 C   0  0  0  0  0  0  0  0  0  0  0  0
    2.9790   67.8470   63.7070 O   0  0  0  0  0  0  0  0  0  0  0  0
    1.6070   69.6680   67.9320 O   0  0  0  0  0  0  0  0  0  0  0  0
   -1.3980   66.8130   68.5000 C   0  0  0  0  0  0  0  0  0  0  0  0
   -0.3370   65.7790   68.8710 C   0  0  0  0  0  0  0  0  0  0  0  0
    0.5650   66.3000   69.9590 C   0  0  0  0  0  0  0  0  0  0  0  0
    1.3130   67.2670   69.8860 O   0  0  0  0  0  0  0  0  0  0  0  0
    0.4830   65.5130   71.0670 O   0  0  0  0  0  0  0  0  0  0  0  0
    1.0040   64.1720   70.9530 C   0  0  0  0  0  0  0  0  0  0  0  0
    2.5140   64.1270   70.6610 C   0  0  0  0  0  0  0  0  0  0  0  0
    3.0940   62.7370   70.7860 N   0  0  0  0  0  4  0  0  0  0  0  0
    3.5500   62.1570   69.4540 C   0  0  0  0  0  0  0  0  0  0  0  0
    3.6930   60.6300   69.5360 C   0  0  0  0  0  0  0  0  0  0  0  0
    4.0980   60.2320   70.8450 O   0  0  0  0  0  0  0  0  0  0  0  0
    3.0860   60.4820   71.8330 C   0  0  0  0  0  0  0  0  0  0  0  0
    2.2500   61.7430   71.5510 C   0  0  0  0  0  0  0  0  0  0  0  0
    0.9374   66.9142   67.3823 H   0  0  0  0  0  0  0  0  0  0  0  0
   -2.7262   68.8911   67.4701 H   0  0  0  0  0  0  0  0  0  0  0  0
   -1.6842   69.2402   66.0491 H   0  0  0  0  0  0  0  0  0  0  0  0
   -2.7475   67.7924   66.0491 H   0  0  0  0  0  0  0  0  0  0  0  0
    0.8720   67.4887   64.7679 H   0  0  0  0  0  0  0  0  0  0  0  0
    0.2211   69.0891   65.3524 H   0  0  0  0  0  0  0  0  0  0  0  0
    6.6539   68.3359   64.6913 H   0  0  0  0  0  0  0  0  0  0  0  0
    5.4449   67.7307   63.5086 H   0  0  0  0  0  0  0  0  0  0  0  0
    5.9109   69.4655   63.5086 H   0  0  0  0  0  0  0  0  0  0  0  0
    6.8959   69.3127   67.0021 H   0  0  0  0  0  0  0  0  0  0  0  0
    6.6422   70.8259   66.1500 H   0  0  0  0  0  0  0  0  0  0  0  0
    2.0399   69.6318   63.2246 H   0  0  0  0  0  0  0  0  0  0  0  0
    3.3330   69.1031   62.0954 H   0  0  0  0  0  0  0  0  0  0  0  0
    1.7433   68.2667   62.0954 H   0  0  0  0  0  0  0  0  0  0  0  0
    1.8338   70.1528   68.7648 H   0  0  0  0  0  0  0  0  0  0  0  0
   -1.5407   67.4939   69.3521 H   0  0  0  0  0  0  0  0  0  0  0  0
   -2.3239   66.2709   68.2574 H   0  0  0  0  0  0  0  0  0  0  0  0
   -0.8344   64.8633   69.2234 H   0  0  0  0  0  0  0  0  0  0  0  0
    0.2731   65.5669   67.9806 H   0  0  0  0  0  0  0  0  0  0  0  0
    0.8157   63.6430   71.8989 H   0  0  0  0  0  0  0  0  0  0  0  0
    0.4940   63.6962   70.1024 H   0  0  0  0  0  0  0  0  0  0  0  0
    2.6846   64.4880   69.6360 H   0  0  0  0  0  0  0  0  0  0  0  0
    3.0143   64.7627   71.4064 H   0  0  0  0  0  0  0  0  0  0  0  0
    3.9273   62.8909   71.3715 H   0  0  0  0  0  0  0  0  0  0  0  0
    2.8090   62.4075   68.6805 H   0  0  0  0  0  0  0  0  0  0  0  0
    4.5310   62.5869   69.2032 H   0  0  0  0  0  0  0  0  0  0  0  0
    2.7254   60.1633   69.2997 H   0  0  0  0  0  0  0  0  0  0  0  0
    4.4582   60.3068   68.8149 H   0  0  0  0  0  0  0  0  0  0  0  0
    2.4091   59.6155   71.8648 H   0  0  0  0  0  0  0  0  0  0  0  0
    3.6023   60.6439   72.7907 H   0  0  0  0  0  0  0  0  0  0  0  0
    1.3669   61.4731   70.9533 H   0  0  0  0  0  0  0  0  0  0  0  0
    1.9224   62.1898   72.5013 H   0  0  0  0  0  0  0  0  0  0  0  0
  2  1  2  0
  3  2  1  0
  4  1  1  0
  6  5  2  0
  6  4  1  0
  7  6  1  0
  8  7  2  0
  9  8  1  0
 10  9  2  0
 10  5  1  0
 11 10  1  0
 12  9  1  0
 13 12  1  0
 14  8  1  0
 14 13  1  0
 15 14  2  0
 17 16  1  0
 17  5  1  0
 18  7  1  0
 19  2  1  0
 20 19  1  0
 21 20  1  0
 22 21  2  0
 23 21  1  0
 24 23  1  0
 25 24  1  0
 26 25  1  0
 27 26  1  0
 28 27  1  0
 29 28  1  0
 30 29  1  0
 31 30  1  0
 31 26  1  0
  1 32  1  0
  3 33  1  0
  3 34  1  0
  3 35  1  0
  4 36  1  0
  4 37  1  0
 11 38  1  0
 11 39  1  0
 11 40  1  0
 12 41  1  0
 12 42  1  0
 16 43  1  0
 16 44  1  0
 16 45  1  0
 18 46  1  0
 19 47  1  0
 19 48  1  0
 20 49  1  0
 20 50  1  0
 24 51  1  0
 24 52  1  0
 25 53  1  0
 25 54  1  0
 26 55  1  0
 27 56  1  0
 27 57  1  0
 28 58  1  0
 28 59  1  0
 30 60  1  0
 30 61  1  0
 31 62  1  0
 31 63  1  0
M  CHG  1  26   1
M  END
>  <score>  (7) 
-8.836

$$$$
=
     RDKit          3D

 63 65  0  0  0  0  0  0  0  0999 V2000
    4.3410   69.0490   63.2710 C   0  0  0  0  0  0  0  0  0  0  0  0
    3.9660   68.2390   62.2600 C   0  0  0  0  0  0  0  0  0  0  0  0
    4.5200   66.8640   62.0050 C   0  0  0  0  0  0  0  0  0  0  0  0
    5.3540   68.8030   64.3620 C   0  0  0  0  0  0  0  0  0  0  0  0
    3.5180   69.0380   66.1310 C   0  0  0  0  0  0  0  0  0  0  0  0
    4.8680   69.2290   65.7330 C   0  0  0  0  0  0  0  0  0  0  0  0
    5.7460   69.8410   66.6370 C   0  0  0  0  0  0  0  0  0  0  0  0
    5.2520   70.2570   67.8600 C   0  0  0  0  0  0  0  0  0  0  0  0
    3.9300   70.1170   68.2260 C   0  0  0  0  0  0  0  0  0  0  0  0
    3.0180   69.5240   67.3610 C   0  0  0  0  0  0  0  0  0  0  0  0
    1.5750   69.3870   67.7490 C   0  0  0  0  0  0  0  0  0  0  0  0
    3.7510   70.6910   69.5780 C   0  0  0  0  0  0  0  0  0  0  0  0
    5.0790   71.1290   69.9410 O   0  0  0  0  0  0  0  0  0  0  0  0
    5.9740   70.8950   68.9420 C   0  0  0  0  0  0  0  0  0  0  0  0
    7.1650   71.1480   68.9270 O   0  0  0  0  0  0  0  0  0  0  0  0
    2.6150   67.0180   65.4890 C   0  0  0  0  0  0  0  0  0  0  0  0
    2.6550   68.4260   65.2530 O   0  0  0  0  0  0  0  0  0  0  0  0
    7.0610   70.0170   66.3040 O   0  0  0  0  0  0  0  0  0  0  0  0
    2.8710   68.6840   61.3110 C   0  0  0  0  0  0  0  0  0  0  0  0
    1.8130   69.5420   62.0040 C   0  0  0  0  0  0  0  0  0  0  0  0
    0.4500   69.2970   61.4130 C   0  0  0  0  0  0  0  0  0  0  0  0
   -0.0160   69.8230   60.4100 O   0  0  0  0  0  0  0  0  0  0  0  0
   -0.2530   68.4180   62.1790 O   0  0  0  0  0  0  0  0  0  0  0  0
   -1.0540   68.9770   63.2420 C   0  0  0  0  0  0  0  0  0  0  0  0
   -0.3690   68.9140   64.6190 C   0  0  0  0  0  0  0  0  0  0  0  0
   -1.3330   68.5930   65.7380 N   0  0  0  0  0  4  0  0  0  0  0  0
   -0.9560   67.3380   66.5120 C   0  0  0  0  0  0  0  0  0  0  0  0
   -2.1550   66.7950   67.3040 C   0  0  0  0  0  0  0  0  0  0  0  0
   -2.9990   67.8620   67.7320 O   0  0  0  0  0  0  0  0  0  0  0  0
   -3.6510   68.5210   66.6360 C   0  0  0  0  0  0  0  0  0  0  0  0
   -2.7960   68.5780   65.3560 C   0  0  0  0  0  0  0  0  0  0  0  0
    3.8376   70.0265   63.3051 H   0  0  0  0  0  0  0  0  0  0  0  0
    4.7207   66.3658   62.9649 H   0  0  0  0  0  0  0  0  0  0  0  0
    3.7891   66.2747   61.4318 H   0  0  0  0  0  0  0  0  0  0  0  0
    5.4553   66.9460   61.4318 H   0  0  0  0  0  0  0  0  0  0  0  0
    5.5832   67.7275   64.3906 H   0  0  0  0  0  0  0  0  0  0  0  0
    6.2422   69.4078   64.1268 H   0  0  0  0  0  0  0  0  0  0  0  0
    1.4894   69.3789   68.8456 H   0  0  0  0  0  0  0  0  0  0  0  0
    1.0040   70.2350   67.3429 H   0  0  0  0  0  0  0  0  0  0  0  0
    1.1738   68.4467   67.3429 H   0  0  0  0  0  0  0  0  0  0  0  0
    3.0506   71.5389   69.5549 H   0  0  0  0  0  0  0  0  0  0  0  0
    3.3279   69.9716   70.2946 H   0  0  0  0  0  0  0  0  0  0  0  0
    2.6096   66.8278   66.5724 H   0  0  0  0  0  0  0  0  0  0  0  0
    1.7045   66.5964   65.0382 H   0  0  0  0  0  0  0  0  0  0  0  0
    3.5001   66.5454   65.0382 H   0  0  0  0  0  0  0  0  0  0  0  0
    7.6801   70.4497   66.9440 H   0  0  0  0  0  0  0  0  0  0  0  0
    3.3245   69.2703   60.4983 H   0  0  0  0  0  0  0  0  0  0  0  0
    2.3725   67.7817   60.9272 H   0  0  0  0  0  0  0  0  0  0  0  0
    1.7914   69.2916   63.0749 H   0  0  0  0  0  0  0  0  0  0  0  0
    2.0720   70.6016   61.8619 H   0  0  0  0  0  0  0  0  0  0  0  0
   -1.2634   70.0304   63.0042 H   0  0  0  0  0  0  0  0  0  0  0  0
   -1.9729   68.3759   63.3077 H   0  0  0  0  0  0  0  0  0  0  0  0
    0.4077   68.1356   64.5900 H   0  0  0  0  0  0  0  0  0  0  0  0
    0.0568   69.9075   64.8231 H   0  0  0  0  0  0  0  0  0  0  0  0
   -1.2265   69.4014   66.3674 H   0  0  0  0  0  0  0  0  0  0  0  0
   -0.6149   66.5683   65.8040 H   0  0  0  0  0  0  0  0  0  0  0  0
   -0.1552   67.5929   67.2218 H   0  0  0  0  0  0  0  0  0  0  0  0
   -2.7323   66.1123   66.6631 H   0  0  0  0  0  0  0  0  0  0  0  0
   -1.7818   66.2608   68.1902 H   0  0  0  0  0  0  0  0  0  0  0  0
   -4.5818   67.9806   66.4090 H   0  0  0  0  0  0  0  0  0  0  0  0
   -3.8364   69.5596   66.9474 H   0  0  0  0  0  0  0  0  0  0  0  0
   -3.0051   67.6953   64.7338 H   0  0  0  0  0  0  0  0  0  0  0  0
   -3.0398   69.4878   64.7879 H   0  0  0  0  0  0  0  0  0  0  0  0
  2  1  2  0
  3  2  1  0
  4  1  1  0
  6  5  2  0
  6  4  1  0
  7  6  1  0
  8  7  2  0
  9  8  1  0
 10  9  2  0
 10  5  1  0
 11 10  1  0
 12  9  1  0
 13 12  1  0
 14  8  1  0
 14 13  1  0
 15 14  2  0
 17 16  1  0
 17  5  1  0
 18  7  1  0
 19  2  1  0
 20 19  1  0
 21 20  1  0
 22 21  2  0
 23 21  1  0
 24 23  1  0
 25 24  1  0
 26 25  1  0
 27 26  1  0
 28 27  1  0
 29 28  1  0
 30 29  1  0
 31 30  1  0
 31 26  1  0
  1 32  1  0
  3 33  1  0
  3 34  1  0
  3 35  1  0
  4 36  1  0
  4 37  1  0
 11 38  1  0
 11 39  1  0
 11 40  1  0
 12 41  1  0
 12 42  1  0
 16 43  1  0
 16 44  1  0
 16 45  1  0
 18 46  1  0
 19 47  1  0
 19 48  1  0
 20 49  1  0
 20 50  1  0
 24 51  1  0
 24 52  1  0
 25 53  1  0
 25 54  1  0
 26 55  1  0
 27 56  1  0
 27 57  1  0
 28 58  1  0
 28 59  1  0
 30 60  1  0
 30 61  1  0
 31 62  1  0
 31 63  1  0
M  CHG  1  26   1
M  END
>  <score>  (8) 
-8.748

$$$$
=
     RDKit          3D

 63 65  0  0  0  0  0  0  0  0999 V2000
    1.1620   65.1520   70.2770 C   0  0  0  0  0  0  0  0  0  0  0  0
    0.6950   66.2390   69.6290 C   0  0  0  0  0  0  0  0  0  0  0  0
   -0.6740   66.3570   69.0160 C   0  0  0  0  0  0  0  0  0  0  0  0
    0.4720   63.8380   70.5510 C   0  0  0  0  0  0  0  0  0  0  0  0
    1.3660   62.4720   72.5240 C   0  0  0  0  0  0  0  0  0  0  0  0
    1.3960   62.7910   71.1400 C   0  0  0  0  0  0  0  0  0  0  0  0
    2.3190   62.1230   70.3250 C   0  0  0  0  0  0  0  0  0  0  0  0
    3.1760   61.2080   70.9100 C   0  0  0  0  0  0  0  0  0  0  0  0
    3.1800   60.9360   72.2610 C   0  0  0  0  0  0  0  0  0  0  0  0
    2.2900   61.5790   73.1120 C   0  0  0  0  0  0  0  0  0  0  0  0
    2.3050   61.2990   74.5870 C   0  0  0  0  0  0  0  0  0  0  0  0
    4.2360   59.9370   72.5380 C   0  0  0  0  0  0  0  0  0  0  0  0
    4.7910   59.6560   71.2340 O   0  0  0  0  0  0  0  0  0  0  0  0
    4.1920   60.4000   70.2640 C   0  0  0  0  0  0  0  0  0  0  0  0
    4.4270   60.4070   69.0710 O   0  0  0  0  0  0  0  0  0  0  0  0
   -0.7180   62.3150   73.4940 C   0  0  0  0  0  0  0  0  0  0  0  0
    0.4530   63.1160   73.3260 O   0  0  0  0  0  0  0  0  0  0  0  0
    2.3600   62.3790   68.9820 O   0  0  0  0  0  0  0  0  0  0  0  0
    1.5600   67.4800   69.5300 C   0  0  0  0  0  0  0  0  0  0  0  0
    1.1100   68.4160   68.4100 C   0  0  0  0  0  0  0  0  0  0  0  0
    2.2440   69.3000   67.9600 C   0  0  0  0  0  0  0  0  0  0  0  0
    2.6360   70.3220   68.5100 O   0  0  0  0  0  0  0  0  0  0  0  0
    2.7790   68.8380   66.7970 O   0  0  0  0  0  0  0  0  0  0  0  0
    1.8530   68.5190   65.7360 C   0  0  0  0  0  0  0  0  0  0  0  0
    2.1090   67.1430   65.0960 C   0  0  0  0  0  0  0  0  0  0  0  0
    2.7070   67.2440   63.7110 N   0  0  0  0  0  4  0  0  0  0  0  0
    4.0880   66.6130   63.6070 C   0  0  0  0  0  0  0  0  0  0  0  0
    4.8370   67.1230   62.3670 C   0  0  0  0  0  0  0  0  0  0  0  0
    3.9240   67.4010   61.3070 O   0  0  0  0  0  0  0  0  0  0  0  0
    3.0620   68.5110   61.6010 C   0  0  0  0  0  0  0  0  0  0  0  0
    2.6910   68.6240   63.0910 C   0  0  0  0  0  0  0  0  0  0  0  0
    2.1901   65.2349   70.6594 H   0  0  0  0  0  0  0  0  0  0  0  0
   -1.4286   66.4220   69.8137 H   0  0  0  0  0  0  0  0  0  0  0  0
   -0.7200   67.2624   68.3931 H   0  0  0  0  0  0  0  0  0  0  0  0
   -0.8743   65.4728   68.3931 H   0  0  0  0  0  0  0  0  0  0  0  0
   -0.3511   64.0160   71.2587 H   0  0  0  0  0  0  0  0  0  0  0  0
    0.1108   63.4507   69.5869 H   0  0  0  0  0  0  0  0  0  0  0  0
    2.2542   62.2480   75.1409 H   0  0  0  0  0  0  0  0  0  0  0  0
    1.4391   60.6739   74.8504 H   0  0  0  0  0  0  0  0  0  0  0  0
    3.2328   60.7700   74.8504 H   0  0  0  0  0  0  0  0  0  0  0  0
    5.0022   60.3518   73.2095 H   0  0  0  0  0  0  0  0  0  0  0  0
    3.8510   59.0375   73.0407 H   0  0  0  0  0  0  0  0  0  0  0  0
   -0.9179   62.1783   74.5670 H   0  0  0  0  0  0  0  0  0  0  0  0
   -1.5759   62.8163   73.0222 H   0  0  0  0  0  0  0  0  0  0  0  0
   -0.5618   61.3337   73.0222 H   0  0  0  0  0  0  0  0  0  0  0  0
    3.0130   61.9059   68.4076 H   0  0  0  0  0  0  0  0  0  0  0  0
    1.5097   68.0227   70.4855 H   0  0  0  0  0  0  0  0  0  0  0  0
    2.5866   67.1559   69.3039 H   0  0  0  0  0  0  0  0  0  0  0  0
    0.7612   67.8154   67.5570 H   0  0  0  0  0  0  0  0  0  0  0  0
    0.2972   69.0528   68.7894 H   0  0  0  0  0  0  0  0  0  0  0  0
    0.8333   68.5276   66.1485 H   0  0  0  0  0  0  0  0  0  0  0  0
    1.9885   69.2745   64.9480 H   0  0  0  0  0  0  0  0  0  0  0  0
    2.8024   66.5801   65.7382 H   0  0  0  0  0  0  0  0  0  0  0  0
    1.1377   66.6354   65.0015 H   0  0  0  0  0  0  0  0  0  0  0  0
    2.0557   66.6845   63.1421 H   0  0  0  0  0  0  0  0  0  0  0  0
    4.6677   66.8671   64.5066 H   0  0  0  0  0  0  0  0  0  0  0  0
    3.9684   65.5231   63.5192 H   0  0  0  0  0  0  0  0  0  0  0  0
    5.3806   68.0434   62.6264 H   0  0  0  0  0  0  0  0  0  0  0  0
    5.5407   66.3460   62.0338 H   0  0  0  0  0  0  0  0  0  0  0  0
    3.5720   69.4374   61.2982 H   0  0  0  0  0  0  0  0  0  0  0  0
    2.1260   68.3490   61.0464 H   0  0  0  0  0  0  0  0  0  0  0  0
    3.4208   69.2671   63.6046 H   0  0  0  0  0  0  0  0  0  0  0  0
    1.6876   69.0636   63.1908 H   0  0  0  0  0  0  0  0  0  0  0  0
  2  1  2  0
  3  2  1  0
  4  1  1  0
  6  5  2  0
  6  4  1  0
  7  6  1  0
  8  7  2  0
  9  8  1  0
 10  9  2  0
 10  5  1  0
 11 10  1  0
 12  9  1  0
 13 12  1  0
 14  8  1  0
 14 13  1  0
 15 14  2  0
 17 16  1  0
 17  5  1  0
 18  7  1  0
 19  2  1  0
 20 19  1  0
 21 20  1  0
 22 21  2  0
 23 21  1  0
 24 23  1  0
 25 24  1  0
 26 25  1  0
 27 26  1  0
 28 27  1  0
 29 28  1  0
 30 29  1  0
 31 30  1  0
 31 26  1  0
  1 32  1  0
  3 33  1  0
  3 34  1  0
  3 35  1  0
  4 36  1  0
  4 37  1  0
 11 38  1  0
 11 39  1  0
 11 40  1  0
 12 41  1  0
 12 42  1  0
 16 43  1  0
 16 44  1  0
 16 45  1  0
 18 46  1  0
 19 47  1  0
 19 48  1  0
 20 49  1  0
 20 50  1  0
 24 51  1  0
 24 52  1  0
 25 53  1  0
 25 54  1  0
 26 55  1  0
 27 56  1  0
 27 57  1  0
 28 58  1  0
 28 59  1  0
 30 60  1  0
 30 61  1  0
 31 62  1  0
 31 63  1  0
M  CHG  1  26   1
M  END
>  <score>  (9) 
-8.654

$$$$
