=
     RDKit          3D

 63 66  0  0  0  0  0  0  0  0999 V2000
    1.5100   62.7050   72.0990 C   0  0  0  0  0  0  0  0  0  0  0  0
    0.4080   63.5590   71.9920 C   0  0  0  0  0  0  0  0  0  0  0  0
    0.4450   64.6390   71.1030 C   0  0  0  0  0  0  0  0  0  0  0  0
    1.5790   64.8870   70.3230 C   0  0  0  0  0  0  0  0  0  0  0  0
    2.6840   64.0460   70.4410 C   0  0  0  0  0  0  0  0  0  0  0  0
    2.6500   62.9620   71.3280 C   0  0  0  0  0  0  0  0  0  0  0  0
    2.0170   61.7120   74.1520 O   0  0  0  0  0  0  0  0  0  0  0  0
    1.5390   61.5410   73.0370 C   0  0  0  0  0  0  0  0  0  0  0  0
    1.0450   60.3570   72.5280 N   0  0  0  0  0  0  0  0  0  0  0  0
    0.8990   59.1040   73.1760 C   0  0  0  0  0  0  0  0  0  0  0  0
   -0.2590   58.7680   73.8870 C   0  0  0  0  0  0  0  0  0  0  0  0
   -0.3850   57.5270   74.5140 C   0  0  0  0  0  0  0  0  0  0  0  0
    0.6440   56.5960   74.4360 C   0  0  0  0  0  0  0  0  0  0  0  0
    1.8050   56.9060   73.7300 C   0  0  0  0  0  0  0  0  0  0  0  0
    1.9490   58.1520   73.0960 C   0  0  0  0  0  0  0  0  0  0  0  0
    3.2130   58.4580   72.3390 C   0  0  0  0  0  0  0  0  0  0  0  0
    4.1120   59.1160   72.8680 O   0  0  0  0  0  0  0  0  0  0  0  0
    3.3680   57.9560   70.9260 C   0  0  0  0  0  0  0  0  0  0  0  0
    1.4800   65.9750   69.5020 O   0  0  0  0  0  0  0  0  0  0  0  0
    0.3200   66.7920   69.6440 C   0  0  0  0  0  0  0  0  0  0  0  0
   -0.5120   66.6700   68.3640 C   0  0  0  0  0  0  0  0  0  0  0  0
   -0.3300   67.8790   67.4380 C   0  0  0  0  0  0  0  0  0  0  0  0
    1.0980   68.0260   66.9070 C   0  0  0  0  0  0  0  0  0  0  0  0
    1.7770   69.3180   67.3480 C   0  0  0  0  0  0  0  0  0  0  0  0
    3.0950   69.4440   66.6660 N   0  0  0  0  0  4  0  0  0  0  0  0
    3.1490   69.0840   65.3590 C   0  0  0  0  0  0  0  0  0  0  0  0
    4.3280   69.1390   64.6360 C   0  0  0  0  0  0  0  0  0  0  0  0
    5.4830   69.5740   65.2610 C   0  0  0  0  0  0  0  0  0  0  0  0
    5.4420   69.9550   66.6020 C   0  0  0  0  0  0  0  0  0  0  0  0
    4.2150   69.8920   67.3200 C   0  0  0  0  0  0  0  0  0  0  0  0
    4.2150   70.3010   68.6670 C   0  0  0  0  0  0  0  0  0  0  0  0
    5.3870   70.7480   69.2870 C   0  0  0  0  0  0  0  0  0  0  0  0
    6.5790   70.7970   68.5750 C   0  0  0  0  0  0  0  0  0  0  0  0
    6.6080   70.4040   67.2390 C   0  0  0  0  0  0  0  0  0  0  0  0
   -0.4873   63.3820   72.6061 H   0  0  0  0  0  0  0  0  0  0  0  0
   -0.4290   65.3013   71.0166 H   0  0  0  0  0  0  0  0  0  0  0  0
    3.5840   64.2335   69.8370 H   0  0  0  0  0  0  0  0  0  0  0  0
    3.5282   62.3060   71.4196 H   0  0  0  0  0  0  0  0  0  0  0  0
    0.7412   60.3876   71.5443 H   0  0  0  0  0  0  0  0  0  0  0  0
   -1.0831   59.4936   73.9528 H   0  0  0  0  0  0  0  0  0  0  0  0
   -1.3018   57.2852   75.0717 H   0  0  0  0  0  0  0  0  0  0  0  0
    0.5425   55.6182   74.9296 H   0  0  0  0  0  0  0  0  0  0  0  0
    2.6177   56.1672   73.6683 H   0  0  0  0  0  0  0  0  0  0  0  0
    3.6925   56.9051   70.9438 H   0  0  0  0  0  0  0  0  0  0  0  0
    2.4041   58.0333   70.4016 H   0  0  0  0  0  0  0  0  0  0  0  0
    4.1205   58.5633   70.4016 H   0  0  0  0  0  0  0  0  0  0  0  0
   -0.2718   66.4515   70.5065 H   0  0  0  0  0  0  0  0  0  0  0  0
    0.6116   67.8398   69.8088 H   0  0  0  0  0  0  0  0  0  0  0  0
   -0.2031   65.7617   67.8258 H   0  0  0  0  0  0  0  0  0  0  0  0
   -1.5722   66.6225   68.6533 H   0  0  0  0  0  0  0  0  0  0  0  0
   -1.0112   67.7683   66.5815 H   0  0  0  0  0  0  0  0  0  0  0  0
   -0.5514   68.7791   68.0304 H   0  0  0  0  0  0  0  0  0  0  0  0
    1.6947   67.1765   67.2709 H   0  0  0  0  0  0  0  0  0  0  0  0
    1.0358   68.0498   65.8090 H   0  0  0  0  0  0  0  0  0  0  0  0
    1.1422   70.1756   67.0805 H   0  0  0  0  0  0  0  0  0  0  0  0
    1.9282   69.2994   68.4374 H   0  0  0  0  0  0  0  0  0  0  0  0
    2.2311   68.7391   64.8605 H   0  0  0  0  0  0  0  0  0  0  0  0
    4.3464   68.8405   63.5774 H   0  0  0  0  0  0  0  0  0  0  0  0
    6.4297   69.6192   64.7027 H   0  0  0  0  0  0  0  0  0  0  0  0
    3.2777   70.2686   69.2419 H   0  0  0  0  0  0  0  0  0  0  0  0
    5.3645   71.0615   70.3411 H   0  0  0  0  0  0  0  0  0  0  0  0
    7.4994   71.1460   69.0661 H   0  0  0  0  0  0  0  0  0  0  0  0
    7.5537   70.4462   66.6787 H   0  0  0  0  0  0  0  0  0  0  0  0
  2  1  2  0
  3  2  1  0
  4  3  2  0
  5  4  1  0
  6  5  2  0
  6  1  1  0
  8  7  2  0
  8  1  1  0
  9  8  1  0
 10  9  1  0
 11 10  2  0
 12 11  1  0
 13 12  2  0
 14 13  1  0
 15 14  2  0
 15 10  1  0
 16 15  1  0
 17 16  2  0
 18 16  1  0
 19  4  1  0
 20 19  1  0
 21 20  1  0
 22 21  1  0
 23 22  1  0
 24 23  1  0
 25 24  1  0
 26 25  2  0
 27 26  1  0
 28 27  2  0
 29 28  1  0
 30 29  2  0
 30 25  1  0
 31 30  1  0
 32 31  2  0
 33 32  1  0
 34 29  1  0
 34 33  2  0
  2 35  1  0
  3 36  1  0
  5 37  1  0
  6 38  1  0
  9 39  1  0
 11 40  1  0
 12 41  1  0
 13 42  1  0
 14 43  1  0
 18 44  1  0
 18 45  1  0
 18 46  1  0
 20 47  1  0
 20 48  1  0
 21 49  1  0
 21 50  1  0
 22 51  1  0
 22 52  1  0
 23 53  1  0
 23 54  1  0
 24 55  1  0
 24 56  1  0
 26 57  1  0
 27 58  1  0
 28 59  1  0
 31 60  1  0
 32 61  1  0
 33 62  1  0
 34 63  1  0
M  CHG  1  25   1
M  END
>  <score>  (1) 
-11.185

$$$$
=
     RDKit          3D

 63 66  0  0  0  0  0  0  0  0999 V2000
    2.4950   60.5430   71.2900 C   0  0  0  0  0  0  0  0  0  0  0  0
    3.1380   60.9560   70.1190 C   0  0  0  0  0  0  0  0  0  0  0  0
    3.0160   62.2810   69.6860 C   0  0  0  0  0  0  0  0  0  0  0  0
    2.2480   63.2030   70.4030 C   0  0  0  0  0  0  0  0  0  0  0  0
    1.5940   62.7880   71.5630 C   0  0  0  0  0  0  0  0  0  0  0  0
    1.7150   61.4640   72.0010 C   0  0  0  0  0  0  0  0  0  0  0  0
    3.2950   58.3500   71.2040 O   0  0  0  0  0  0  0  0  0  0  0  0
    2.5750   59.1410   71.8020 C   0  0  0  0  0  0  0  0  0  0  0  0
    1.7870   58.8660   72.9010 N   0  0  0  0  0  0  0  0  0  0  0  0
    1.6780   57.6570   73.6350 C   0  0  0  0  0  0  0  0  0  0  0  0
    0.8090   56.6300   73.2480 C   0  0  0  0  0  0  0  0  0  0  0  0
    0.7200   55.4460   73.9820 C   0  0  0  0  0  0  0  0  0  0  0  0
    1.5040   55.2650   75.1150 C   0  0  0  0  0  0  0  0  0  0  0  0
    2.3800   56.2710   75.5190 C   0  0  0  0  0  0  0  0  0  0  0  0
    2.4790   57.4710   74.7920 C   0  0  0  0  0  0  0  0  0  0  0  0
    3.4350   58.5390   75.2500 C   0  0  0  0  0  0  0  0  0  0  0  0
    4.2360   59.0390   74.4560 O   0  0  0  0  0  0  0  0  0  0  0  0
    3.4060   58.9890   76.6880 C   0  0  0  0  0  0  0  0  0  0  0  0
    2.2130   64.4590   69.8650 O   0  0  0  0  0  0  0  0  0  0  0  0
    1.1560   65.3180   70.2880 C   0  0  0  0  0  0  0  0  0  0  0  0
    1.4360   66.7230   69.7480 C   0  0  0  0  0  0  0  0  0  0  0  0
    0.3820   67.1710   68.7280 C   0  0  0  0  0  0  0  0  0  0  0  0
    0.9840   67.8330   67.4860 C   0  0  0  0  0  0  0  0  0  0  0  0
    1.6020   69.1990   67.7690 C   0  0  0  0  0  0  0  0  0  0  0  0
    2.8430   69.3570   66.9620 N   0  0  0  0  0  4  0  0  0  0  0  0
    2.7840   68.9840   65.6590 C   0  0  0  0  0  0  0  0  0  0  0  0
    3.8850   69.0670   64.8250 C   0  0  0  0  0  0  0  0  0  0  0  0
    5.0800   69.5450   65.3320 C   0  0  0  0  0  0  0  0  0  0  0  0
    5.1560   69.9410   66.6670 C   0  0  0  0  0  0  0  0  0  0  0  0
    4.0060   69.8480   67.5010 C   0  0  0  0  0  0  0  0  0  0  0  0
    4.1230   70.2720   68.8380 C   0  0  0  0  0  0  0  0  0  0  0  0
    5.3340   70.7620   69.3380 C   0  0  0  0  0  0  0  0  0  0  0  0
    6.4500   70.8400   68.5140 C   0  0  0  0  0  0  0  0  0  0  0  0
    6.3630   70.4330   67.1840 C   0  0  0  0  0  0  0  0  0  0  0  0
    3.7390   60.2402   69.5389 H   0  0  0  0  0  0  0  0  0  0  0  0
    3.5316   62.6015   68.7687 H   0  0  0  0  0  0  0  0  0  0  0  0
    0.9825   63.5019   72.1343 H   0  0  0  0  0  0  0  0  0  0  0  0
    1.1917   61.1432   72.9138 H   0  0  0  0  0  0  0  0  0  0  0  0
    1.1986   59.6434   73.2331 H   0  0  0  0  0  0  0  0  0  0  0  0
    0.1859   56.7582   72.3506 H   0  0  0  0  0  0  0  0  0  0  0  0
    0.0270   54.6537   73.6625 H   0  0  0  0  0  0  0  0  0  0  0  0
    1.4335   54.3307   75.6912 H   0  0  0  0  0  0  0  0  0  0  0  0
    3.0003   56.1250   76.4156 H   0  0  0  0  0  0  0  0  0  0  0  0
    3.4626   58.1110   77.3482 H   0  0  0  0  0  0  0  0  0  0  0  0
    4.2634   59.6500   76.8827 H   0  0  0  0  0  0  0  0  0  0  0  0
    2.4708   59.5345   76.8827 H   0  0  0  0  0  0  0  0  0  0  0  0
    0.1973   64.9513   69.8925 H   0  0  0  0  0  0  0  0  0  0  0  0
    1.0989   65.3376   71.3863 H   0  0  0  0  0  0  0  0  0  0  0  0
    1.4391   67.4319   70.5891 H   0  0  0  0  0  0  0  0  0  0  0  0
    2.4112   66.7018   69.2395 H   0  0  0  0  0  0  0  0  0  0  0  0
   -0.1927   66.2888   68.4095 H   0  0  0  0  0  0  0  0  0  0  0  0
   -0.2514   67.9220   69.2227 H   0  0  0  0  0  0  0  0  0  0  0  0
    1.7661   67.1728   67.0831 H   0  0  0  0  0  0  0  0  0  0  0  0
    0.1634   67.9889   66.7702 H   0  0  0  0  0  0  0  0  0  0  0  0
    0.8857   69.9889   67.4991 H   0  0  0  0  0  0  0  0  0  0  0  0
    1.8468   69.2771   68.8386 H   0  0  0  0  0  0  0  0  0  0  0  0
    1.8341   68.6049   65.2541 H   0  0  0  0  0  0  0  0  0  0  0  0
    3.8109   68.7568   63.7722 H   0  0  0  0  0  0  0  0  0  0  0  0
    5.9668   69.6125   64.6847 H   0  0  0  0  0  0  0  0  0  0  0  0
    3.2471   70.2171   69.5011 H   0  0  0  0  0  0  0  0  0  0  0  0
    5.4030   71.0866   70.3868 H   0  0  0  0  0  0  0  0  0  0  0  0
    7.4017   71.2228   68.9112 H   0  0  0  0  0  0  0  0  0  0  0  0
    7.2484   70.4982   66.5345 H   0  0  0  0  0  0  0  0  0  0  0  0
  2  1  2  0
  3  2  1  0
  4  3  2  0
  5  4  1  0
  6  5  2  0
  6  1  1  0
  8  7  2  0
  8  1  1  0
  9  8  1  0
 10  9  1  0
 11 10  2  0
 12 11  1  0
 13 12  2  0
 14 13  1  0
 15 14  2  0
 15 10  1  0
 16 15  1  0
 17 16  2  0
 18 16  1  0
 19  4  1  0
 20 19  1  0
 21 20  1  0
 22 21  1  0
 23 22  1  0
 24 23  1  0
 25 24  1  0
 26 25  2  0
 27 26  1  0
 28 27  2  0
 29 28  1  0
 30 29  2  0
 30 25  1  0
 31 30  1  0
 32 31  2  0
 33 32  1  0
 34 29  1  0
 34 33  2  0
  2 35  1  0
  3 36  1  0
  5 37  1  0
  6 38  1  0
  9 39  1  0
 11 40  1  0
 12 41  1  0
 13 42  1  0
 14 43  1  0
 18 44  1  0
 18 45  1  0
 18 46  1  0
 20 47  1  0
 20 48  1  0
 21 49  1  0
 21 50  1  0
 22 51  1  0
 22 52  1  0
 23 53  1  0
 23 54  1  0
 24 55  1  0
 24 56  1  0
 26 57  1  0
 27 58  1  0
 28 59  1  0
 31 60  1  0
 32 61  1  0
 33 62  1  0
 34 63  1  0
M  CHG  1  25   1
M  END
>  <score>  (2) 
-10.963

$$$$
=
     RDKit          3D

 63 66  0  0  0  0  0  0  0  0999 V2000
    3.3070   61.5900   72.2740 C   0  0  0  0  0  0  0  0  0  0  0  0
    2.0860   62.2520   72.4290 C   0  0  0  0  0  0  0  0  0  0  0  0
    1.7300   63.2780   71.5460 C   0  0  0  0  0  0  0  0  0  0  0  0
    2.5870   63.6610   70.5100 C   0  0  0  0  0  0  0  0  0  0  0  0
    3.8120   63.0120   70.3640 C   0  0  0  0  0  0  0  0  0  0  0  0
    4.1710   61.9840   71.2440 C   0  0  0  0  0  0  0  0  0  0  0  0
    4.9440   60.2080   73.2060 O   0  0  0  0  0  0  0  0  0  0  0  0
    3.7520   60.4950   73.1890 C   0  0  0  0  0  0  0  0  0  0  0  0
    2.7500   59.8830   73.9130 N   0  0  0  0  0  0  0  0  0  0  0  0
    2.8570   58.8560   74.8850 C   0  0  0  0  0  0  0  0  0  0  0  0
    3.4770   59.0670   76.1220 C   0  0  0  0  0  0  0  0  0  0  0  0
    3.5670   58.0430   77.0680 C   0  0  0  0  0  0  0  0  0  0  0  0
    3.0340   56.7900   76.7940 C   0  0  0  0  0  0  0  0  0  0  0  0
    2.4080   56.5560   75.5710 C   0  0  0  0  0  0  0  0  0  0  0  0
    2.3110   57.5750   74.6070 C   0  0  0  0  0  0  0  0  0  0  0  0
    1.6280   57.2950   73.2960 C   0  0  0  0  0  0  0  0  0  0  0  0
    2.2190   57.4880   72.2310 O   0  0  0  0  0  0  0  0  0  0  0  0
    0.2120   56.7780   73.2970 C   0  0  0  0  0  0  0  0  0  0  0  0
    2.1160   64.6770   69.7260 O   0  0  0  0  0  0  0  0  0  0  0  0
    1.1150   65.5220   70.2900 C   0  0  0  0  0  0  0  0  0  0  0  0
    1.2230   66.8990   69.6280 C   0  0  0  0  0  0  0  0  0  0  0  0
    0.1300   67.1220   68.5760 C   0  0  0  0  0  0  0  0  0  0  0  0
    0.6210   67.8920   67.3470 C   0  0  0  0  0  0  0  0  0  0  0  0
    1.2640   69.2320   67.6910 C   0  0  0  0  0  0  0  0  0  0  0  0
    2.5590   69.3600   66.9660 N   0  0  0  0  0  4  0  0  0  0  0  0
    2.5810   68.9650   65.6680 C   0  0  0  0  0  0  0  0  0  0  0  0
    3.7370   69.0200   64.9090 C   0  0  0  0  0  0  0  0  0  0  0  0
    4.9020   69.4900   65.4870 C   0  0  0  0  0  0  0  0  0  0  0  0
    4.8940   69.9070   66.8180 C   0  0  0  0  0  0  0  0  0  0  0  0
    3.6900   69.8440   67.5740 C   0  0  0  0  0  0  0  0  0  0  0  0
    3.7230   70.2890   68.9090 C   0  0  0  0  0  0  0  0  0  0  0  0
    4.9050   70.7720   69.4820 C   0  0  0  0  0  0  0  0  0  0  0  0
    6.0740   70.8200   68.7340 C   0  0  0  0  0  0  0  0  0  0  0  0
    6.0700   70.3920   67.4080 C   0  0  0  0  0  0  0  0  0  0  0  0
    1.4051   61.9669   73.2445 H   0  0  0  0  0  0  0  0  0  0  0  0
    0.7638   63.7894   71.6687 H   0  0  0  0  0  0  0  0  0  0  0  0
    4.4975   63.3080   69.5563 H   0  0  0  0  0  0  0  0  0  0  0  0
    5.1417   61.4803   71.1254 H   0  0  0  0  0  0  0  0  0  0  0  0
    1.7947   60.2172   73.7217 H   0  0  0  0  0  0  0  0  0  0  0  0
    3.9004   60.0556   76.3531 H   0  0  0  0  0  0  0  0  0  0  0  0
    4.0614   58.2296   78.0327 H   0  0  0  0  0  0  0  0  0  0  0  0
    3.1057   55.9848   77.5400 H   0  0  0  0  0  0  0  0  0  0  0  0
    1.9851   55.5632   75.3575 H   0  0  0  0  0  0  0  0  0  0  0  0
   -0.1318   56.6525   74.3343 H   0  0  0  0  0  0  0  0  0  0  0  0
   -0.4408   57.4958   72.7787 H   0  0  0  0  0  0  0  0  0  0  0  0
    0.1753   55.8085   72.7787 H   0  0  0  0  0  0  0  0  0  0  0  0
    0.1186   65.0956   70.1021 H   0  0  0  0  0  0  0  0  0  0  0  0
    1.2603   65.6103   71.3768 H   0  0  0  0  0  0  0  0  0  0  0  0
    1.1315   67.6734   70.4038 H   0  0  0  0  0  0  0  0  0  0  0  0
    2.1973   66.9547   69.1204 H   0  0  0  0  0  0  0  0  0  0  0  0
   -0.2436   66.1410   68.2472 H   0  0  0  0  0  0  0  0  0  0  0  0
   -0.6574   67.7284   69.0475 H   0  0  0  0  0  0  0  0  0  0  0  0
    1.3632   67.2735   66.8211 H   0  0  0  0  0  0  0  0  0  0  0  0
   -0.2594   68.1041   66.7225 H   0  0  0  0  0  0  0  0  0  0  0  0
    0.5924   70.0494   67.3897 H   0  0  0  0  0  0  0  0  0  0  0  0
    1.4429   69.2862   68.7750 H   0  0  0  0  0  0  0  0  0  0  0  0
    1.6551   68.5910   65.2066 H   0  0  0  0  0  0  0  0  0  0  0  0
    3.7292   68.6937   63.8585 H   0  0  0  0  0  0  0  0  0  0  0  0
    5.8310   69.5348   64.8997 H   0  0  0  0  0  0  0  0  0  0  0  0
    2.8038   70.2566   69.5124 H   0  0  0  0  0  0  0  0  0  0  0  0
    4.9080   71.1144   70.5273 H   0  0  0  0  0  0  0  0  0  0  0  0
    7.0028   71.1957   69.1881 H   0  0  0  0  0  0  0  0  0  0  0  0
    6.9978   70.4350   66.8186 H   0  0  0  0  0  0  0  0  0  0  0  0
  2  1  2  0
  3  2  1  0
  4  3  2  0
  5  4  1  0
  6  5  2  0
  6  1  1  0
  8  7  2  0
  8  1  1  0
  9  8  1  0
 10  9  1  0
 11 10  2  0
 12 11  1  0
 13 12  2  0
 14 13  1  0
 15 14  2  0
 15 10  1  0
 16 15  1  0
 17 16  2  0
 18 16  1  0
 19  4  1  0
 20 19  1  0
 21 20  1  0
 22 21  1  0
 23 22  1  0
 24 23  1  0
 25 24  1  0
 26 25  2  0
 27 26  1  0
 28 27  2  0
 29 28  1  0
 30 29  2  0
 30 25  1  0
 31 30  1  0
 32 31  2  0
 33 32  1  0
 34 29  1  0
 34 33  2  0
  2 35  1  0
  3 36  1  0
  5 37  1  0
  6 38  1  0
  9 39  1  0
 11 40  1  0
 12 41  1  0
 13 42  1  0
 14 43  1  0
 18 44  1  0
 18 45  1  0
 18 46  1  0
 20 47  1  0
 20 48  1  0
 21 49  1  0
 21 50  1  0
 22 51  1  0
 22 52  1  0
 23 53  1  0
 23 54  1  0
 24 55  1  0
 24 56  1  0
 26 57  1  0
 27 58  1  0
 28 59  1  0
 31 60  1  0
 32 61  1  0
 33 62  1  0
 34 63  1  0
M  CHG  1  25   1
M  END
>  <score>  (3) 
-10.777

$$$$
=
     RDKit          3D

 63 66  0  0  0  0  0  0  0  0999 V2000
    1.4850   61.2480   72.1730 C   0  0  0  0  0  0  0  0  0  0  0  0
    2.2120   61.5990   71.0310 C   0  0  0  0  0  0  0  0  0  0  0  0
    1.8520   62.7330   70.2950 C   0  0  0  0  0  0  0  0  0  0  0  0
    0.7630   63.5210   70.6790 C   0  0  0  0  0  0  0  0  0  0  0  0
    0.0270   63.1630   71.8070 C   0  0  0  0  0  0  0  0  0  0  0  0
    0.3850   62.0300   72.5480 C   0  0  0  0  0  0  0  0  0  0  0  0
    2.8190   60.0750   73.6900 O   0  0  0  0  0  0  0  0  0  0  0  0
    1.8090   60.0430   72.9970 C   0  0  0  0  0  0  0  0  0  0  0  0
    0.9360   58.9830   72.8650 N   0  0  0  0  0  0  0  0  0  0  0  0
    0.9470   57.7340   73.5380 C   0  0  0  0  0  0  0  0  0  0  0  0
    1.8050   56.6960   73.1580 C   0  0  0  0  0  0  0  0  0  0  0  0
    1.8040   55.4750   73.8370 C   0  0  0  0  0  0  0  0  0  0  0  0
    0.9480   55.2740   74.9120 C   0  0  0  0  0  0  0  0  0  0  0  0
    0.0860   56.2940   75.3120 C   0  0  0  0  0  0  0  0  0  0  0  0
    0.0730   57.5280   74.6370 C   0  0  0  0  0  0  0  0  0  0  0  0
   -0.8660   58.6120   75.0920 C   0  0  0  0  0  0  0  0  0  0  0  0
   -1.7660   59.0100   74.3480 O   0  0  0  0  0  0  0  0  0  0  0  0
   -0.6930   59.2110   76.4650 C   0  0  0  0  0  0  0  0  0  0  0  0
    0.5220   64.5950   69.8690 O   0  0  0  0  0  0  0  0  0  0  0  0
    0.4500   65.8760   70.4930 C   0  0  0  0  0  0  0  0  0  0  0  0
    1.2760   66.8610   69.6610 C   0  0  0  0  0  0  0  0  0  0  0  0
    0.4720   67.4540   68.4980 C   0  0  0  0  0  0  0  0  0  0  0  0
    1.2430   67.4760   67.1770 C   0  0  0  0  0  0  0  0  0  0  0  0
    1.3430   68.8680   66.5590 C   0  0  0  0  0  0  0  0  0  0  0  0
    2.7640   69.1590   66.2210 N   0  0  0  0  0  4  0  0  0  0  0  0
    3.1690   68.8680   64.9590 C   0  0  0  0  0  0  0  0  0  0  0  0
    4.4730   69.0770   64.5460 C   0  0  0  0  0  0  0  0  0  0  0  0
    5.3900   69.5980   65.4410 C   0  0  0  0  0  0  0  0  0  0  0  0
    4.9870   69.9100   66.7390 C   0  0  0  0  0  0  0  0  0  0  0  0
    3.6380   69.6880   67.1360 C   0  0  0  0  0  0  0  0  0  0  0  0
    3.2710   70.0320   68.4510 C   0  0  0  0  0  0  0  0  0  0  0  0
    4.2030   70.5670   69.3470 C   0  0  0  0  0  0  0  0  0  0  0  0
    5.5180   70.7710   68.9470 C   0  0  0  0  0  0  0  0  0  0  0  0
    5.9090   70.4460   67.6500 C   0  0  0  0  0  0  0  0  0  0  0  0
    3.0662   60.9839   70.7117 H   0  0  0  0  0  0  0  0  0  0  0  0
    2.4333   63.0081   69.4026 H   0  0  0  0  0  0  0  0  0  0  0  0
   -0.8361   63.7711   72.1156 H   0  0  0  0  0  0  0  0  0  0  0  0
   -0.2040   61.7511   73.4342 H   0  0  0  0  0  0  0  0  0  0  0  0
    0.1730   59.1163   72.1860 H   0  0  0  0  0  0  0  0  0  0  0  0
    2.4913   56.8437   72.3111 H   0  0  0  0  0  0  0  0  0  0  0  0
    2.4833   54.6703   73.5192 H   0  0  0  0  0  0  0  0  0  0  0  0
    0.9502   54.3125   75.4464 H   0  0  0  0  0  0  0  0  0  0  0  0
   -0.5907   56.1322   76.1640 H   0  0  0  0  0  0  0  0  0  0  0  0
   -0.9130   58.4494   77.2277 H   0  0  0  0  0  0  0  0  0  0  0  0
    0.3430   59.5610   76.5845 H   0  0  0  0  0  0  0  0  0  0  0  0
   -1.3828   60.0595   76.5845 H   0  0  0  0  0  0  0  0  0  0  0  0
   -0.5969   66.2111   70.5356 H   0  0  0  0  0  0  0  0  0  0  0  0
    0.8439   65.8216   71.5186 H   0  0  0  0  0  0  0  0  0  0  0  0
    1.6123   67.6805   70.3132 H   0  0  0  0  0  0  0  0  0  0  0  0
    2.1289   66.3115   69.2361 H   0  0  0  0  0  0  0  0  0  0  0  0
   -0.4385   66.8522   68.3606 H   0  0  0  0  0  0  0  0  0  0  0  0
    0.2441   68.4980   68.7590 H   0  0  0  0  0  0  0  0  0  0  0  0
    2.2609   67.1017   67.3607 H   0  0  0  0  0  0  0  0  0  0  0  0
    0.6903   66.8434   66.4668 H   0  0  0  0  0  0  0  0  0  0  0  0
    0.7328   68.9082   65.6447 H   0  0  0  0  0  0  0  0  0  0  0  0
    0.9759   69.6158   67.2773 H   0  0  0  0  0  0  0  0  0  0  0  0
    2.4412   68.4549   64.2452 H   0  0  0  0  0  0  0  0  0  0  0  0
    4.7769   68.8316   63.5177 H   0  0  0  0  0  0  0  0  0  0  0  0
    6.4319   69.7654   65.1304 H   0  0  0  0  0  0  0  0  0  0  0  0
    2.2328   69.8774   68.7799 H   0  0  0  0  0  0  0  0  0  0  0  0
    3.8941   70.8267   70.3703 H   0  0  0  0  0  0  0  0  0  0  0  0
    6.2498   71.1889   69.6540 H   0  0  0  0  0  0  0  0  0  0  0  0
    6.9506   70.6113   67.3374 H   0  0  0  0  0  0  0  0  0  0  0  0
  2  1  2  0
  3  2  1  0
  4  3  2  0
  5  4  1  0
  6  5  2  0
  6  1  1  0
  8  7  2  0
  8  1  1  0
  9  8  1  0
 10  9  1  0
 11 10  2  0
 12 11  1  0
 13 12  2  0
 14 13  1  0
 15 14  2  0
 15 10  1  0
 16 15  1  0
 17 16  2  0
 18 16  1  0
 19  4  1  0
 20 19  1  0
 21 20  1  0
 22 21  1  0
 23 22  1  0
 24 23  1  0
 25 24  1  0
 26 25  2  0
 27 26  1  0
 28 27  2  0
 29 28  1  0
 30 29  2  0
 30 25  1  0
 31 30  1  0
 32 31  2  0
 33 32  1  0
 34 29  1  0
 34 33  2  0
  2 35  1  0
  3 36  1  0
  5 37  1  0
  6 38  1  0
  9 39  1  0
 11 40  1  0
 12 41  1  0
 13 42  1  0
 14 43  1  0
 18 44  1  0
 18 45  1  0
 18 46  1  0
 20 47  1  0
 20 48  1  0
 21 49  1  0
 21 50  1  0
 22 51  1  0
 22 52  1  0
 23 53  1  0
 23 54  1  0
 24 55  1  0
 24 56  1  0
 26 57  1  0
 27 58  1  0
 28 59  1  0
 31 60  1  0
 32 61  1  0
 33 62  1  0
 34 63  1  0
M  CHG  1  25   1
M  END
>  <score>  (4) 
-10.562

$$$$
=
     RDKit          3D

 63 66  0  0  0  0  0  0  0  0999 V2000
    0.1780   67.5500   67.9100 C   0  0  0  0  0  0  0  0  0  0  0  0
   -0.9230   66.7920   68.3210 C   0  0  0  0  0  0  0  0  0  0  0  0
   -0.8600   66.0570   69.5100 C   0  0  0  0  0  0  0  0  0  0  0  0
    0.2980   66.0580   70.2930 C   0  0  0  0  0  0  0  0  0  0  0  0
    1.4020   66.8000   69.8760 C   0  0  0  0  0  0  0  0  0  0  0  0
    1.3420   67.5390   68.6880 C   0  0  0  0  0  0  0  0  0  0  0  0
   -0.3190   69.4670   66.6710 O   0  0  0  0  0  0  0  0  0  0  0  0
    0.1810   68.3480   66.6460 C   0  0  0  0  0  0  0  0  0  0  0  0
    0.7280   67.7170   65.5480 N   0  0  0  0  0  0  0  0  0  0  0  0
    0.9140   68.2210   64.2350 C   0  0  0  0  0  0  0  0  0  0  0  0
   -0.1490   68.7330   63.4810 C   0  0  0  0  0  0  0  0  0  0  0  0
    0.0560   69.2300   62.1910 C   0  0  0  0  0  0  0  0  0  0  0  0
    1.3290   69.2270   61.6360 C   0  0  0  0  0  0  0  0  0  0  0  0
    2.4040   68.7260   62.3680 C   0  0  0  0  0  0  0  0  0  0  0  0
    2.2140   68.2200   63.6660 C   0  0  0  0  0  0  0  0  0  0  0  0
    3.3930   67.6880   64.4350 C   0  0  0  0  0  0  0  0  0  0  0  0
    3.5530   66.4730   64.5680 O   0  0  0  0  0  0  0  0  0  0  0  0
    4.3760   68.6560   65.0430 C   0  0  0  0  0  0  0  0  0  0  0  0
    0.2230   65.2940   71.4250 O   0  0  0  0  0  0  0  0  0  0  0  0
    0.4460   63.8930   71.2790 C   0  0  0  0  0  0  0  0  0  0  0  0
   -0.0180   63.1980   72.5620 C   0  0  0  0  0  0  0  0  0  0  0  0
    1.0730   63.1830   73.6390 C   0  0  0  0  0  0  0  0  0  0  0  0
    1.6000   61.7800   73.9480 C   0  0  0  0  0  0  0  0  0  0  0  0
    3.0760   61.6010   73.6100 C   0  0  0  0  0  0  0  0  0  0  0  0
    3.2040   60.8660   72.3200 N   0  0  0  0  0  4  0  0  0  0  0  0
    3.1040   59.5140   72.3680 C   0  0  0  0  0  0  0  0  0  0  0  0
    3.2310   58.7330   71.2340 C   0  0  0  0  0  0  0  0  0  0  0  0
    3.4640   59.3450   70.0150 C   0  0  0  0  0  0  0  0  0  0  0  0
    3.5610   60.7350   69.9470 C   0  0  0  0  0  0  0  0  0  0  0  0
    3.4230   61.5140   71.1300 C   0  0  0  0  0  0  0  0  0  0  0  0
    3.5120   62.9140   71.0140 C   0  0  0  0  0  0  0  0  0  0  0  0
    3.7400   63.5240   69.7760 C   0  0  0  0  0  0  0  0  0  0  0  0
    3.8800   62.7500   68.6310 C   0  0  0  0  0  0  0  0  0  0  0  0
    3.7900   61.3620   68.7140 C   0  0  0  0  0  0  0  0  0  0  0  0
   -1.8376   66.7736   67.7102 H   0  0  0  0  0  0  0  0  0  0  0  0
   -1.7330   65.4708   69.8327 H   0  0  0  0  0  0  0  0  0  0  0  0
    2.3210   66.8050   70.4806 H   0  0  0  0  0  0  0  0  0  0  0  0
    2.2192   68.1173   68.3624 H   0  0  0  0  0  0  0  0  0  0  0  0
    1.0442   66.7489   65.7023 H   0  0  0  0  0  0  0  0  0  0  0  0
   -1.1615   68.7442   63.9108 H   0  0  0  0  0  0  0  0  0  0  0  0
   -0.7932   69.6246   61.6138 H   0  0  0  0  0  0  0  0  0  0  0  0
    1.4886   69.6192   60.6208 H   0  0  0  0  0  0  0  0  0  0  0  0
    3.4112   68.7265   61.9258 H   0  0  0  0  0  0  0  0  0  0  0  0
    4.3171   68.5980   66.1399 H   0  0  0  0  0  0  0  0  0  0  0  0
    5.3943   68.3982   64.7164 H   0  0  0  0  0  0  0  0  0  0  0  0
    4.1339   69.6781   64.7164 H   0  0  0  0  0  0  0  0  0  0  0  0
   -0.1274   63.5122   70.4210 H   0  0  0  0  0  0  0  0  0  0  0  0
    1.5138   63.6946   71.1044 H   0  0  0  0  0  0  0  0  0  0  0  0
   -0.8968   63.7300   72.9552 H   0  0  0  0  0  0  0  0  0  0  0  0
   -0.2606   62.1546   72.3123 H   0  0  0  0  0  0  0  0  0  0  0  0
    1.9132   63.8032   73.2934 H   0  0  0  0  0  0  0  0  0  0  0  0
    0.6228   63.5727   74.5639 H   0  0  0  0  0  0  0  0  0  0  0  0
    1.4616   61.5839   75.0215 H   0  0  0  0  0  0  0  0  0  0  0  0
    1.0348   61.0748   73.3209 H   0  0  0  0  0  0  0  0  0  0  0  0
    3.5537   62.5877   73.5189 H   0  0  0  0  0  0  0  0  0  0  0  0
    3.5686   61.0278   74.4093 H   0  0  0  0  0  0  0  0  0  0  0  0
    2.9167   59.0255   73.3356 H   0  0  0  0  0  0  0  0  0  0  0  0
    3.1478   57.6381   71.3001 H   0  0  0  0  0  0  0  0  0  0  0  0
    3.5722   58.7383   69.1038 H   0  0  0  0  0  0  0  0  0  0  0  0
    3.4003   63.5391   71.9122 H   0  0  0  0  0  0  0  0  0  0  0  0
    3.8086   64.6198   69.7090 H   0  0  0  0  0  0  0  0  0  0  0  0
    4.0618   63.2326   67.6594 H   0  0  0  0  0  0  0  0  0  0  0  0
    3.8995   60.7530   67.8045 H   0  0  0  0  0  0  0  0  0  0  0  0
  2  1  2  0
  3  2  1  0
  4  3  2  0
  5  4  1  0
  6  5  2  0
  6  1  1  0
  8  7  2  0
  8  1  1  0
  9  8  1  0
 10  9  1  0
 11 10  2  0
 12 11  1  0
 13 12  2  0
 14 13  1  0
 15 14  2  0
 15 10  1  0
 16 15  1  0
 17 16  2  0
 18 16  1  0
 19  4  1  0
 20 19  1  0
 21 20  1  0
 22 21  1  0
 23 22  1  0
 24 23  1  0
 25 24  1  0
 26 25  2  0
 27 26  1  0
 28 27  2  0
 29 28  1  0
 30 29  2  0
 30 25  1  0
 31 30  1  0
 32 31  2  0
 33 32  1  0
 34 29  1  0
 34 33  2  0
  2 35  1  0
  3 36  1  0
  5 37  1  0
  6 38  1  0
  9 39  1  0
 11 40  1  0
 12 41  1  0
 13 42  1  0
 14 43  1  0
 18 44  1  0
 18 45  1  0
 18 46  1  0
 20 47  1  0
 20 48  1  0
 21 49  1  0
 21 50  1  0
 22 51  1  0
 22 52  1  0
 23 53  1  0
 23 54  1  0
 24 55  1  0
 24 56  1  0
 26 57  1  0
 27 58  1  0
 28 59  1  0
 31 60  1  0
 32 61  1  0
 33 62  1  0
 34 63  1  0
M  CHG  1  25   1
M  END
>  <score>  (5) 
-10.268

$$$$
=
     RDKit          3D

 63 66  0  0  0  0  0  0  0  0999 V2000
    1.3330   62.0520   71.7590 C   0  0  0  0  0  0  0  0  0  0  0  0
    0.3430   62.7650   72.4420 C   0  0  0  0  0  0  0  0  0  0  0  0
    0.0790   64.0960   72.1010 C   0  0  0  0  0  0  0  0  0  0  0  0
    0.8020   64.7340   71.0880 C   0  0  0  0  0  0  0  0  0  0  0  0
    1.8010   64.0290   70.4170 C   0  0  0  0  0  0  0  0  0  0  0  0
    2.0660   62.6960   70.7540 C   0  0  0  0  0  0  0  0  0  0  0  0
    2.5370   60.0810   71.4100 O   0  0  0  0  0  0  0  0  0  0  0  0
    1.6720   60.6330   72.0810 C   0  0  0  0  0  0  0  0  0  0  0  0
    0.9390   60.0650   73.1020 N   0  0  0  0  0  0  0  0  0  0  0  0
    1.0540   58.7670   73.6630 C   0  0  0  0  0  0  0  0  0  0  0  0
    0.2730   57.6950   73.2160 C   0  0  0  0  0  0  0  0  0  0  0  0
    0.4050   56.4230   73.7790 C   0  0  0  0  0  0  0  0  0  0  0  0
    1.3240   56.2010   74.7960 C   0  0  0  0  0  0  0  0  0  0  0  0
    2.1150   57.2520   75.2570 C   0  0  0  0  0  0  0  0  0  0  0  0
    1.9930   58.5390   74.7030 C   0  0  0  0  0  0  0  0  0  0  0  0
    2.8620   59.6540   75.2170 C   0  0  0  0  0  0  0  0  0  0  0  0
    3.7860   60.0930   74.5280 O   0  0  0  0  0  0  0  0  0  0  0  0
    2.5930   60.2290   76.5850 C   0  0  0  0  0  0  0  0  0  0  0  0
    0.4440   66.0330   70.8620 O   0  0  0  0  0  0  0  0  0  0  0  0
    0.5810   66.5220   69.5290 C   0  0  0  0  0  0  0  0  0  0  0  0
   -0.7870   66.4360   68.8450 C   0  0  0  0  0  0  0  0  0  0  0  0
   -0.8420   67.2660   67.5560 C   0  0  0  0  0  0  0  0  0  0  0  0
    0.5210   67.4210   66.8770 C   0  0  0  0  0  0  0  0  0  0  0  0
    0.7630   68.8210   66.3220 C   0  0  0  0  0  0  0  0  0  0  0  0
    2.1840   69.2050   66.5470 N   0  0  0  0  0  4  0  0  0  0  0  0
    2.5330   69.5670   67.8070 C   0  0  0  0  0  0  0  0  0  0  0  0
    3.8200   69.9640   68.1210 C   0  0  0  0  0  0  0  0  0  0  0  0
    4.7800   69.9910   67.1260 C   0  0  0  0  0  0  0  0  0  0  0  0
    4.4400   69.6130   65.8270 C   0  0  0  0  0  0  0  0  0  0  0  0
    3.1090   69.2060   65.5330 C   0  0  0  0  0  0  0  0  0  0  0  0
    2.8130   68.8190   64.2120 C   0  0  0  0  0  0  0  0  0  0  0  0
    3.7930   68.8410   63.2140 C   0  0  0  0  0  0  0  0  0  0  0  0
    5.0870   69.2480   63.5150 C   0  0  0  0  0  0  0  0  0  0  0  0
    5.4110   69.6310   64.8150 C   0  0  0  0  0  0  0  0  0  0  0  0
   -0.2281   62.2797   73.2472 H   0  0  0  0  0  0  0  0  0  0  0  0
   -0.7075   64.6478   72.6366 H   0  0  0  0  0  0  0  0  0  0  0  0
    2.3813   64.5206   69.6223 H   0  0  0  0  0  0  0  0  0  0  0  0
    2.8588   62.1483   70.2235 H   0  0  0  0  0  0  0  0  0  0  0  0
    0.2091   60.6645   73.5129 H   0  0  0  0  0  0  0  0  0  0  0  0
   -0.4564   57.8564   72.4086 H   0  0  0  0  0  0  0  0  0  0  0  0
   -0.2211   55.5949   73.4154 H   0  0  0  0  0  0  0  0  0  0  0  0
    1.4275   55.1984   75.2366 H   0  0  0  0  0  0  0  0  0  0  0  0
    2.8423   57.0730   76.0626 H   0  0  0  0  0  0  0  0  0  0  0  0
    2.9262   59.5167   77.3541 H   0  0  0  0  0  0  0  0  0  0  0  0
    3.1418   61.1754   76.6993 H   0  0  0  0  0  0  0  0  0  0  0  0
    1.5148   60.4143   76.6993 H   0  0  0  0  0  0  0  0  0  0  0  0
    0.9223   67.5675   69.5491 H   0  0  0  0  0  0  0  0  0  0  0  0
    1.3199   65.9217   68.9780 H   0  0  0  0  0  0  0  0  0  0  0  0
   -0.9946   65.3843   68.5986 H   0  0  0  0  0  0  0  0  0  0  0  0
   -1.5385   66.8396   69.5396 H   0  0  0  0  0  0  0  0  0  0  0  0
   -1.5286   66.7728   66.8522 H   0  0  0  0  0  0  0  0  0  0  0  0
   -1.1850   68.2741   67.8320 H   0  0  0  0  0  0  0  0  0  0  0  0
    1.3059   67.1973   67.6145 H   0  0  0  0  0  0  0  0  0  0  0  0
    0.5418   66.7249   66.0255 H   0  0  0  0  0  0  0  0  0  0  0  0
    0.5470   68.8303   65.2435 H   0  0  0  0  0  0  0  0  0  0  0  0
    0.1039   69.5375   66.8340 H   0  0  0  0  0  0  0  0  0  0  0  0
    1.7716   69.5441   68.6005 H   0  0  0  0  0  0  0  0  0  0  0  0
    4.0771   70.2549   69.1502 H   0  0  0  0  0  0  0  0  0  0  0  0
    5.8072   70.3091   67.3578 H   0  0  0  0  0  0  0  0  0  0  0  0
    1.7929   68.4935   63.9602 H   0  0  0  0  0  0  0  0  0  0  0  0
    3.5386   68.5353   62.1884 H   0  0  0  0  0  0  0  0  0  0  0  0
    5.8550   69.2678   62.7277 H   0  0  0  0  0  0  0  0  0  0  0  0
    6.4372   69.9502   65.0496 H   0  0  0  0  0  0  0  0  0  0  0  0
  2  1  2  0
  3  2  1  0
  4  3  2  0
  5  4  1  0
  6  5  2  0
  6  1  1  0
  8  7  2  0
  8  1  1  0
  9  8  1  0
 10  9  1  0
 11 10  2  0
 12 11  1  0
 13 12  2  0
 14 13  1  0
 15 14  2  0
 15 10  1  0
 16 15  1  0
 17 16  2  0
 18 16  1  0
 19  4  1  0
 20 19  1  0
 21 20  1  0
 22 21  1  0
 23 22  1  0
 24 23  1  0
 25 24  1  0
 26 25  2  0
 27 26  1  0
 28 27  2  0
 29 28  1  0
 30 29  2  0
 30 25  1  0
 31 30  1  0
 32 31  2  0
 33 32  1  0
 34 29  1  0
 34 33  2  0
  2 35  1  0
  3 36  1  0
  5 37  1  0
  6 38  1  0
  9 39  1  0
 11 40  1  0
 12 41  1  0
 13 42  1  0
 14 43  1  0
 18 44  1  0
 18 45  1  0
 18 46  1  0
 20 47  1  0
 20 48  1  0
 21 49  1  0
 21 50  1  0
 22 51  1  0
 22 52  1  0
 23 53  1  0
 23 54  1  0
 24 55  1  0
 24 56  1  0
 26 57  1  0
 27 58  1  0
 28 59  1  0
 31 60  1  0
 32 61  1  0
 33 62  1  0
 34 63  1  0
M  CHG  1  25   1
M  END
>  <score>  (6) 
-10.022

$$$$
=
     RDKit          3D

 63 66  0  0  0  0  0  0  0  0999 V2000
    2.7430   61.4090   71.7290 C   0  0  0  0  0  0  0  0  0  0  0  0
    2.1640   62.4580   72.4490 C   0  0  0  0  0  0  0  0  0  0  0  0
    1.8220   63.6480   71.7970 C   0  0  0  0  0  0  0  0  0  0  0  0
    2.0630   63.8110   70.4300 C   0  0  0  0  0  0  0  0  0  0  0  0
    2.6550   62.7720   69.7130 C   0  0  0  0  0  0  0  0  0  0  0  0
    2.9960   61.5780   70.3620 C   0  0  0  0  0  0  0  0  0  0  0  0
    3.8170   59.3340   71.7070 O   0  0  0  0  0  0  0  0  0  0  0  0
    3.1420   60.1170   72.3660 C   0  0  0  0  0  0  0  0  0  0  0  0
    2.6720   59.9180   73.6480 N   0  0  0  0  0  0  0  0  0  0  0  0
    2.9110   58.8270   74.5220 C   0  0  0  0  0  0  0  0  0  0  0  0
    4.1580   58.6190   75.1230 C   0  0  0  0  0  0  0  0  0  0  0  0
    4.3710   57.5410   75.9860 C   0  0  0  0  0  0  0  0  0  0  0  0
    3.3390   56.6550   76.2660 C   0  0  0  0  0  0  0  0  0  0  0  0
    2.0870   56.8430   75.6830 C   0  0  0  0  0  0  0  0  0  0  0  0
    1.8560   57.9210   74.8100 C   0  0  0  0  0  0  0  0  0  0  0  0
    0.4950   58.1010   74.1970 C   0  0  0  0  0  0  0  0  0  0  0  0
    0.1520   57.4180   73.2280 O   0  0  0  0  0  0  0  0  0  0  0  0
   -0.4470   59.1260   74.7750 C   0  0  0  0  0  0  0  0  0  0  0  0
    1.6840   65.0230   69.9240 O   0  0  0  0  0  0  0  0  0  0  0  0
    0.4200   65.5350   70.3440 C   0  0  0  0  0  0  0  0  0  0  0  0
   -0.0460   66.5640   69.3100 C   0  0  0  0  0  0  0  0  0  0  0  0
    1.0930   67.0180   68.3900 C   0  0  0  0  0  0  0  0  0  0  0  0
    1.2660   68.5380   68.3450 C   0  0  0  0  0  0  0  0  0  0  0  0
    1.4480   69.0840   66.9320 C   0  0  0  0  0  0  0  0  0  0  0  0
    2.8850   69.4000   66.7040 N   0  0  0  0  0  4  0  0  0  0  0  0
    3.5990   69.8340   67.7730 C   0  0  0  0  0  0  0  0  0  0  0  0
    4.9350   70.1770   67.6680 C   0  0  0  0  0  0  0  0  0  0  0  0
    5.5630   70.0740   66.4400 C   0  0  0  0  0  0  0  0  0  0  0  0
    4.8460   69.6220   65.3320 C   0  0  0  0  0  0  0  0  0  0  0  0
    3.4730   69.2720   65.4700 C   0  0  0  0  0  0  0  0  0  0  0  0
    2.7920   68.8060   64.3300 C   0  0  0  0  0  0  0  0  0  0  0  0
    3.4390   68.6970   63.0940 C   0  0  0  0  0  0  0  0  0  0  0  0
    4.7770   69.0490   62.9740 C   0  0  0  0  0  0  0  0  0  0  0  0
    5.4790   69.5080   64.0860 C   0  0  0  0  0  0  0  0  0  0  0  0
    1.9773   62.3481   73.5275 H   0  0  0  0  0  0  0  0  0  0  0  0
    1.3575   64.4656   72.3677 H   0  0  0  0  0  0  0  0  0  0  0  0
    2.8544   62.8897   68.6376 H   0  0  0  0  0  0  0  0  0  0  0  0
    3.4677   60.7643   69.7915 H   0  0  0  0  0  0  0  0  0  0  0  0
    2.0656   60.6625   74.0206 H   0  0  0  0  0  0  0  0  0  0  0  0
    4.9832   59.3152   74.9125 H   0  0  0  0  0  0  0  0  0  0  0  0
    5.3596   57.3936   76.4452 H   0  0  0  0  0  0  0  0  0  0  0  0
    3.5091   55.8072   76.9460 H   0  0  0  0  0  0  0  0  0  0  0  0
    1.2709   56.1406   75.9082 H   0  0  0  0  0  0  0  0  0  0  0  0
   -0.4070   59.0825   75.8734 H   0  0  0  0  0  0  0  0  0  0  0  0
   -0.1494   60.1295   74.4367 H   0  0  0  0  0  0  0  0  0  0  0  0
   -1.4720   58.9140   74.4367 H   0  0  0  0  0  0  0  0  0  0  0  0
   -0.3108   64.7154   70.4094 H   0  0  0  0  0  0  0  0  0  0  0  0
    0.5102   66.0051   71.3344 H   0  0  0  0  0  0  0  0  0  0  0  0
   -0.8397   66.1141   68.6954 H   0  0  0  0  0  0  0  0  0  0  0  0
   -0.4126   67.4469   69.8541 H   0  0  0  0  0  0  0  0  0  0  0  0
    2.0314   66.5704   68.7492 H   0  0  0  0  0  0  0  0  0  0  0  0
    0.8398   66.6888   67.3714 H   0  0  0  0  0  0  0  0  0  0  0  0
    0.3730   69.0041   68.7869 H   0  0  0  0  0  0  0  0  0  0  0  0
    2.1806   68.7782   68.9070 H   0  0  0  0  0  0  0  0  0  0  0  0
    1.1179   68.3301   66.2021 H   0  0  0  0  0  0  0  0  0  0  0  0
    0.8477   69.9979   66.8116 H   0  0  0  0  0  0  0  0  0  0  0  0
    3.1015   69.9154   68.7507 H   0  0  0  0  0  0  0  0  0  0  0  0
    5.4910   70.5273   68.5501 H   0  0  0  0  0  0  0  0  0  0  0  0
    6.6235   70.3474   66.3375 H   0  0  0  0  0  0  0  0  0  0  0  0
    1.7323   68.5224   64.4120 H   0  0  0  0  0  0  0  0  0  0  0  0
    2.8866   68.3318   62.2157 H   0  0  0  0  0  0  0  0  0  0  0  0
    5.2825   68.9653   62.0006 H   0  0  0  0  0  0  0  0  0  0  0  0
    6.5392   69.7835   63.9859 H   0  0  0  0  0  0  0  0  0  0  0  0
  2  1  2  0
  3  2  1  0
  4  3  2  0
  5  4  1  0
  6  5  2  0
  6  1  1  0
  8  7  2  0
  8  1  1  0
  9  8  1  0
 10  9  1  0
 11 10  2  0
 12 11  1  0
 13 12  2  0
 14 13  1  0
 15 14  2  0
 15 10  1  0
 16 15  1  0
 17 16  2  0
 18 16  1  0
 19  4  1  0
 20 19  1  0
 21 20  1  0
 22 21  1  0
 23 22  1  0
 24 23  1  0
 25 24  1  0
 26 25  2  0
 27 26  1  0
 28 27  2  0
 29 28  1  0
 30 29  2  0
 30 25  1  0
 31 30  1  0
 32 31  2  0
 33 32  1  0
 34 29  1  0
 34 33  2  0
  2 35  1  0
  3 36  1  0
  5 37  1  0
  6 38  1  0
  9 39  1  0
 11 40  1  0
 12 41  1  0
 13 42  1  0
 14 43  1  0
 18 44  1  0
 18 45  1  0
 18 46  1  0
 20 47  1  0
 20 48  1  0
 21 49  1  0
 21 50  1  0
 22 51  1  0
 22 52  1  0
 23 53  1  0
 23 54  1  0
 24 55  1  0
 24 56  1  0
 26 57  1  0
 27 58  1  0
 28 59  1  0
 31 60  1  0
 32 61  1  0
 33 62  1  0
 34 63  1  0
M  CHG  1  25   1
M  END
>  <score>  (7) 
-9.839

$$$$
=
     RDKit          3D

 63 66  0  0  0  0  0  0  0  0999 V2000
    0.9660   61.9600   72.9360 C   0  0  0  0  0  0  0  0  0  0  0  0
    0.2280   63.1370   73.0980 C   0  0  0  0  0  0  0  0  0  0  0  0
    0.1410   64.0570   72.0480 C   0  0  0  0  0  0  0  0  0  0  0  0
    0.7940   63.8240   70.8340 C   0  0  0  0  0  0  0  0  0  0  0  0
    1.5430   62.6580   70.6770 C   0  0  0  0  0  0  0  0  0  0  0  0
    1.6310   61.7340   71.7250 C   0  0  0  0  0  0  0  0  0  0  0  0
    0.4260   59.9250   73.9490 O   0  0  0  0  0  0  0  0  0  0  0  0
    1.1080   60.9410   74.0210 C   0  0  0  0  0  0  0  0  0  0  0  0
    1.9880   61.2700   75.0320 N   0  0  0  0  0  0  0  0  0  0  0  0
    2.3680   60.5040   76.1630 C   0  0  0  0  0  0  0  0  0  0  0  0
    3.1870   59.3740   76.0500 C   0  0  0  0  0  0  0  0  0  0  0  0
    3.5540   58.6350   77.1780 C   0  0  0  0  0  0  0  0  0  0  0  0
    3.1130   59.0170   78.4380 C   0  0  0  0  0  0  0  0  0  0  0  0
    2.2990   60.1410   78.5760 C   0  0  0  0  0  0  0  0  0  0  0  0
    1.9180   60.8940   77.4510 C   0  0  0  0  0  0  0  0  0  0  0  0
    1.0420   62.1030   77.6300 C   0  0  0  0  0  0  0  0  0  0  0  0
   -0.1160   62.1030   77.2040 O   0  0  0  0  0  0  0  0  0  0  0  0
    1.5930   63.3170   78.3340 C   0  0  0  0  0  0  0  0  0  0  0  0
    0.6280   64.8060   69.8980 O   0  0  0  0  0  0  0  0  0  0  0  0
    0.5140   66.1450   70.3760 C   0  0  0  0  0  0  0  0  0  0  0  0
    1.1670   67.0760   69.3500 C   0  0  0  0  0  0  0  0  0  0  0  0
    0.2460   67.3590   68.1570 C   0  0  0  0  0  0  0  0  0  0  0  0
    0.9130   68.1940   67.0610 C   0  0  0  0  0  0  0  0  0  0  0  0
    1.7450   69.3500   67.6050 C   0  0  0  0  0  0  0  0  0  0  0  0
    3.0060   69.4660   66.8200 N   0  0  0  0  0  4  0  0  0  0  0  0
    2.9550   69.0960   65.5150 C   0  0  0  0  0  0  0  0  0  0  0  0
    4.0730   69.1410   64.7010 C   0  0  0  0  0  0  0  0  0  0  0  0
    5.2750   69.5760   65.2290 C   0  0  0  0  0  0  0  0  0  0  0  0
    5.3420   69.9680   66.5660 C   0  0  0  0  0  0  0  0  0  0  0  0
    4.1750   69.9150   67.3800 C   0  0  0  0  0  0  0  0  0  0  0  0
    4.2840   70.3330   68.7190 C   0  0  0  0  0  0  0  0  0  0  0  0
    5.5030   70.7810   69.2410 C   0  0  0  0  0  0  0  0  0  0  0  0
    6.6340   70.8200   68.4370 C   0  0  0  0  0  0  0  0  0  0  0  0
    6.5560   70.4170   67.1050 C   0  0  0  0  0  0  0  0  0  0  0  0
   -0.2837   63.3390   74.0506 H   0  0  0  0  0  0  0  0  0  0  0  0
   -0.4490   64.9760   72.1792 H   0  0  0  0  0  0  0  0  0  0  0  0
    2.0653   62.4642   69.7285 H   0  0  0  0  0  0  0  0  0  0  0  0
    2.2294   60.8201   71.5955 H   0  0  0  0  0  0  0  0  0  0  0  0
    2.4284   62.1978   74.9544 H   0  0  0  0  0  0  0  0  0  0  0  0
    3.5471   59.0631   75.0582 H   0  0  0  0  0  0  0  0  0  0  0  0
    4.1945   57.7476   77.0673 H   0  0  0  0  0  0  0  0  0  0  0  0
    3.4048   58.4349   79.3246 H   0  0  0  0  0  0  0  0  0  0  0  0
    1.9513   60.4417   79.5753 H   0  0  0  0  0  0  0  0  0  0  0  0
    1.5269   63.1713   79.4223 H   0  0  0  0  0  0  0  0  0  0  0  0
    2.6449   63.4615   78.0467 H   0  0  0  0  0  0  0  0  0  0  0  0
    1.0092   64.2039   78.0467 H   0  0  0  0  0  0  0  0  0  0  0  0
   -0.5472   66.4086   70.4958 H   0  0  0  0  0  0  0  0  0  0  0  0
    1.0130   66.2443   71.3513 H   0  0  0  0  0  0  0  0  0  0  0  0
    1.4127   68.0287   69.8419 H   0  0  0  0  0  0  0  0  0  0  0  0
    2.0707   66.5780   68.9687 H   0  0  0  0  0  0  0  0  0  0  0  0
   -0.0670   66.3983   67.7221 H   0  0  0  0  0  0  0  0  0  0  0  0
   -0.6075   67.9407   68.5354 H   0  0  0  0  0  0  0  0  0  0  0  0
    1.5708   67.5369   66.4732 H   0  0  0  0  0  0  0  0  0  0  0  0
    0.1094   68.6306   66.4498 H   0  0  0  0  0  0  0  0  0  0  0  0
    1.1727   70.2856   67.5201 H   0  0  0  0  0  0  0  0  0  0  0  0
    1.9865   69.1629   68.6617 H   0  0  0  0  0  0  0  0  0  0  0  0
    1.9993   68.7512   65.0933 H   0  0  0  0  0  0  0  0  0  0  0  0
    4.0066   68.8345   63.6467 H   0  0  0  0  0  0  0  0  0  0  0  0
    6.1746   69.6127   64.5971 H   0  0  0  0  0  0  0  0  0  0  0  0
    3.3956   70.3073   69.3671 H   0  0  0  0  0  0  0  0  0  0  0  0
    5.5650   71.1030   70.2910 H   0  0  0  0  0  0  0  0  0  0  0  0
    7.5915   71.1689   68.8510 H   0  0  0  0  0  0  0  0  0  0  0  0
    7.4545   70.4515   66.4713 H   0  0  0  0  0  0  0  0  0  0  0  0
  2  1  2  0
  3  2  1  0
  4  3  2  0
  5  4  1  0
  6  5  2  0
  6  1  1  0
  8  7  2  0
  8  1  1  0
  9  8  1  0
 10  9  1  0
 11 10  2  0
 12 11  1  0
 13 12  2  0
 14 13  1  0
 15 14  2  0
 15 10  1  0
 16 15  1  0
 17 16  2  0
 18 16  1  0
 19  4  1  0
 20 19  1  0
 21 20  1  0
 22 21  1  0
 23 22  1  0
 24 23  1  0
 25 24  1  0
 26 25  2  0
 27 26  1  0
 28 27  2  0
 29 28  1  0
 30 29  2  0
 30 25  1  0
 31 30  1  0
 32 31  2  0
 33 32  1  0
 34 29  1  0
 34 33  2  0
  2 35  1  0
  3 36  1  0
  5 37  1  0
  6 38  1  0
  9 39  1  0
 11 40  1  0
 12 41  1  0
 13 42  1  0
 14 43  1  0
 18 44  1  0
 18 45  1  0
 18 46  1  0
 20 47  1  0
 20 48  1  0
 21 49  1  0
 21 50  1  0
 22 51  1  0
 22 52  1  0
 23 53  1  0
 23 54  1  0
 24 55  1  0
 24 56  1  0
 26 57  1  0
 27 58  1  0
 28 59  1  0
 31 60  1  0
 32 61  1  0
 33 62  1  0
 34 63  1  0
M  CHG  1  25   1
M  END
>  <score>  (8) 
-9.824

$$$$
=
     RDKit          3D

 63 66  0  0  0  0  0  0  0  0999 V2000
    1.1420   62.1940   73.0490 C   0  0  0  0  0  0  0  0  0  0  0  0
    0.4820   63.4110   73.2420 C   0  0  0  0  0  0  0  0  0  0  0  0
    0.2770   64.2740   72.1590 C   0  0  0  0  0  0  0  0  0  0  0  0
    0.7350   63.9420   70.8810 C   0  0  0  0  0  0  0  0  0  0  0  0
    1.4070   62.7360   70.6900 C   0  0  0  0  0  0  0  0  0  0  0  0
    1.6120   61.8680   71.7700 C   0  0  0  0  0  0  0  0  0  0  0  0
    2.3980   60.5200   74.0870 O   0  0  0  0  0  0  0  0  0  0  0  0
    1.4030   61.2320   74.1630 C   0  0  0  0  0  0  0  0  0  0  0  0
    0.4600   61.2210   75.1700 N   0  0  0  0  0  0  0  0  0  0  0  0
    0.4480   60.4630   76.3680 C   0  0  0  0  0  0  0  0  0  0  0  0
    1.2420   60.8060   77.4700 C   0  0  0  0  0  0  0  0  0  0  0  0
    1.2120   60.0480   78.6430 C   0  0  0  0  0  0  0  0  0  0  0  0
    0.3840   58.9360   78.7360 C   0  0  0  0  0  0  0  0  0  0  0  0
   -0.4180   58.5770   77.6540 C   0  0  0  0  0  0  0  0  0  0  0  0
   -0.3980   59.3270   76.4650 C   0  0  0  0  0  0  0  0  0  0  0  0
   -1.2760   58.9170   75.3140 C   0  0  0  0  0  0  0  0  0  0  0  0
   -0.7790   58.4430   74.2900 O   0  0  0  0  0  0  0  0  0  0  0  0
   -2.7680   59.0950   75.4240 C   0  0  0  0  0  0  0  0  0  0  0  0
    0.4700   64.8770   69.9190 O   0  0  0  0  0  0  0  0  0  0  0  0
    0.6460   66.2460   70.2790 C   0  0  0  0  0  0  0  0  0  0  0  0
    1.1460   67.0040   69.0450 C   0  0  0  0  0  0  0  0  0  0  0  0
    0.0390   67.2090   68.0040 C   0  0  0  0  0  0  0  0  0  0  0  0
    0.3860   68.2620   66.9500 C   0  0  0  0  0  0  0  0  0  0  0  0
    1.1910   69.4320   67.5070 C   0  0  0  0  0  0  0  0  0  0  0  0
    2.5310   69.4660   66.8580 N   0  0  0  0  0  4  0  0  0  0  0  0
    2.5960   69.0840   65.5570 C   0  0  0  0  0  0  0  0  0  0  0  0
    3.7930   69.0550   64.8650 C   0  0  0  0  0  0  0  0  0  0  0  0
    4.9570   69.4280   65.5130 C   0  0  0  0  0  0  0  0  0  0  0  0
    4.9060   69.8310   66.8470 C   0  0  0  0  0  0  0  0  0  0  0  0
    3.6600   69.8540   67.5350 C   0  0  0  0  0  0  0  0  0  0  0  0
    3.6520   70.2820   68.8750 C   0  0  0  0  0  0  0  0  0  0  0  0
    4.8340   70.6650   69.5200 C   0  0  0  0  0  0  0  0  0  0  0  0
    6.0440   70.6300   68.8380 C   0  0  0  0  0  0  0  0  0  0  0  0
    6.0820   70.2160   67.5080 C   0  0  0  0  0  0  0  0  0  0  0  0
    0.1240   63.6903   74.2439 H   0  0  0  0  0  0  0  0  0  0  0  0
   -0.2515   65.2259   72.3159 H   0  0  0  0  0  0  0  0  0  0  0  0
    1.7768   62.4655   69.6899 H   0  0  0  0  0  0  0  0  0  0  0  0
    2.1477   60.9203   71.6123 H   0  0  0  0  0  0  0  0  0  0  0  0
   -0.3448   61.8489   75.0327 H   0  0  0  0  0  0  0  0  0  0  0  0
    1.8994   61.6860   77.4107 H   0  0  0  0  0  0  0  0  0  0  0  0
    1.8459   60.3323   79.4958 H   0  0  0  0  0  0  0  0  0  0  0  0
    0.3615   58.3408   79.6608 H   0  0  0  0  0  0  0  0  0  0  0  0
   -1.0738   57.6972   77.7312 H   0  0  0  0  0  0  0  0  0  0  0  0
   -3.0559   59.1293   76.4851 H   0  0  0  0  0  0  0  0  0  0  0  0
   -3.0623   60.0346   74.9336 H   0  0  0  0  0  0  0  0  0  0  0  0
   -3.2751   58.2510   74.9336 H   0  0  0  0  0  0  0  0  0  0  0  0
   -0.3126   66.6695   70.6133 H   0  0  0  0  0  0  0  0  0  0  0  0
    1.3735   66.3330   71.0995 H   0  0  0  0  0  0  0  0  0  0  0  0
    1.5213   67.9883   69.3617 H   0  0  0  0  0  0  0  0  0  0  0  0
    1.9413   66.4037   68.5789 H   0  0  0  0  0  0  0  0  0  0  0  0
   -0.1423   66.2513   67.4941 H   0  0  0  0  0  0  0  0  0  0  0  0
   -0.8511   67.5677   68.5417 H   0  0  0  0  0  0  0  0  0  0  0  0
    0.9749   67.7799   66.1557 H   0  0  0  0  0  0  0  0  0  0  0  0
   -0.5633   68.6703   66.5730 H   0  0  0  0  0  0  0  0  0  0  0  0
    0.6601   70.3732   67.3016 H   0  0  0  0  0  0  0  0  0  0  0  0
    1.3126   69.3093   68.5933 H   0  0  0  0  0  0  0  0  0  0  0  0
    1.6713   68.7895   65.0391 H   0  0  0  0  0  0  0  0  0  0  0  0
    3.8193   68.7391   63.8117 H   0  0  0  0  0  0  0  0  0  0  0  0
    5.9182   69.4068   64.9785 H   0  0  0  0  0  0  0  0  0  0  0  0
    2.7004   70.3163   69.4256 H   0  0  0  0  0  0  0  0  0  0  0  0
    4.8047   70.9944   70.5691 H   0  0  0  0  0  0  0  0  0  0  0  0
    6.9717   70.9290   69.3478 H   0  0  0  0  0  0  0  0  0  0  0  0
    7.0422   70.1909   66.9719 H   0  0  0  0  0  0  0  0  0  0  0  0
  2  1  2  0
  3  2  1  0
  4  3  2  0
  5  4  1  0
  6  5  2  0
  6  1  1  0
  8  7  2  0
  8  1  1  0
  9  8  1  0
 10  9  1  0
 11 10  2  0
 12 11  1  0
 13 12  2  0
 14 13  1  0
 15 14  2  0
 15 10  1  0
 16 15  1  0
 17 16  2  0
 18 16  1  0
 19  4  1  0
 20 19  1  0
 21 20  1  0
 22 21  1  0
 23 22  1  0
 24 23  1  0
 25 24  1  0
 26 25  2  0
 27 26  1  0
 28 27  2  0
 29 28  1  0
 30 29  2  0
 30 25  1  0
 31 30  1  0
 32 31  2  0
 33 32  1  0
 34 29  1  0
 34 33  2  0
  2 35  1  0
  3 36  1  0
  5 37  1  0
  6 38  1  0
  9 39  1  0
 11 40  1  0
 12 41  1  0
 13 42  1  0
 14 43  1  0
 18 44  1  0
 18 45  1  0
 18 46  1  0
 20 47  1  0
 20 48  1  0
 21 49  1  0
 21 50  1  0
 22 51  1  0
 22 52  1  0
 23 53  1  0
 23 54  1  0
 24 55  1  0
 24 56  1  0
 26 57  1  0
 27 58  1  0
 28 59  1  0
 31 60  1  0
 32 61  1  0
 33 62  1  0
 34 63  1  0
M  CHG  1  25   1
M  END
>  <score>  (9) 
-9.376

$$$$
