=
     RDKit          3D

 51 53  0  0  0  0  0  0  0  0999 V2000
    0.9290   63.0290   70.7350 C   0  0  1  0  0  0  0  0  0  0  0  0
    2.1040   62.4860   69.9190 C   0  0  0  0  0  0  0  0  0  0  0  0
    2.2830   62.2930   68.7390 O   0  0  0  0  0  0  0  0  0  0  0  0
    2.8360   62.2320   71.0500 N   0  0  0  0  0  0  0  0  0  0  0  0
    1.7370   62.5670   71.9910 C   0  0  2  0  0  0  0  0  0  0  0  0
    1.5140   61.2900   72.8200 C   0  0  1  0  0  0  0  0  0  0  0  0
    0.1020   60.7440   72.6540 C   0  0  0  0  0  0  0  0  0  0  0  0
    2.6150   60.3760   72.3210 C   0  0  0  0  0  0  0  0  0  0  0  0
    3.2940   60.9470   71.3090 C   0  0  0  0  0  0  0  0  0  0  0  0
    4.4790   60.3490   70.4810 C   0  0  0  0  0  0  0  0  0  0  0  0
    5.6240   60.5200   70.9830 O   0  0  0  0  0  0  0  0  0  0  0  0
    4.1560   59.5220   69.5710 O   0  0  0  0  0  1  0  0  0  0  0  0
    0.1840   65.2160   71.8460 C   0  0  0  0  0  0  0  0  0  0  0  0
    0.6120   64.5110   70.5670 C   0  0  1  0  0  0  0  0  0  0  0  0
    1.7620   65.1760   70.0390 O   0  0  0  0  0  0  0  0  0  0  0  0
    2.7810   58.7840   72.9560 S   0  0  0  0  0  0  0  0  0  0  0  0
    2.7970   58.9890   74.7750 C   0  0  2  0  0  0  0  0  0  0  0  0
    3.9410   58.3560   75.5590 C   0  0  0  0  0  0  0  0  0  0  0  0
    3.6510   56.9070   75.4430 N   0  0  0  0  0  4  0  0  0  0  0  0
    2.1600   56.7440   75.5670 C   0  0  1  0  0  0  0  0  0  0  0  0
    1.6130   58.1650   75.3120 C   0  0  0  0  0  0  0  0  0  0  0  0
    1.5920   55.6370   74.6630 C   0  0  0  0  0  0  0  0  0  0  0  0
    2.1840   55.3380   73.6240 O   0  0  0  0  0  0  0  0  0  0  0  0
    0.4460   54.9600   75.0670 N   0  0  0  0  0  0  0  0  0  0  0  0
   -0.0610   54.9070   76.4310 C   0  0  0  0  0  0  0  0  0  0  0  0
   -0.1300   53.9900   74.1460 C   0  0  0  0  0  0  0  0  0  0  0  0
   -0.1145   62.7174   70.5800 H   0  0  0  0  0  0  0  0  0  0  0  0
    1.6640   63.2759   72.8290 H   0  0  0  0  0  0  0  0  0  0  0  0
    1.5760   61.4367   73.9084 H   0  0  0  0  0  0  0  0  0  0  0  0
   -0.3434   60.5718   73.6449 H   0  0  0  0  0  0  0  0  0  0  0  0
   -0.5092   61.4706   72.0986 H   0  0  0  0  0  0  0  0  0  0  0  0
    0.1387   59.7952   72.0986 H   0  0  0  0  0  0  0  0  0  0  0  0
    0.5332   64.6408   72.7162 H   0  0  0  0  0  0  0  0  0  0  0  0
    0.6225   66.2245   71.8731 H   0  0  0  0  0  0  0  0  0  0  0  0
   -0.9130   65.2923   71.8731 H   0  0  0  0  0  0  0  0  0  0  0  0
   -0.2481   64.5622   69.8832 H   0  0  0  0  0  0  0  0  0  0  0  0
    2.3259   65.5021   70.7845 H   0  0  0  0  0  0  0  0  0  0  0  0
    2.8253   60.0804   74.9091 H   0  0  0  0  0  0  0  0  0  0  0  0
    4.9143   58.6032   75.1101 H   0  0  0  0  0  0  0  0  0  0  0  0
    4.0046   58.7071   76.5995 H   0  0  0  0  0  0  0  0  0  0  0  0
    3.9704   56.5546   74.5294 H   0  0  0  0  0  0  0  0  0  0  0  0
    4.1407   56.3748   76.1764 H   0  0  0  0  0  0  0  0  0  0  0  0
    1.8441   56.3785   76.5552 H   0  0  0  0  0  0  0  0  0  0  0  0
    0.8017   58.1341   74.5698 H   0  0  0  0  0  0  0  0  0  0  0  0
    1.1999   58.6071   76.2306 H   0  0  0  0  0  0  0  0  0  0  0  0
    0.7775   54.9947   77.1375 H   0  0  0  0  0  0  0  0  0  0  0  0
   -0.7651   55.7364   76.5929 H   0  0  0  0  0  0  0  0  0  0  0  0
   -0.5784   53.9499   76.5929 H   0  0  0  0  0  0  0  0  0  0  0  0
   -0.6099   53.1818   74.7175 H   0  0  0  0  0  0  0  0  0  0  0  0
   -0.8798   54.4863   73.5124 H   0  0  0  0  0  0  0  0  0  0  0  0
    0.6647   53.5692   73.5124 H   0  0  0  0  0  0  0  0  0  0  0  0
  2  1  1  0
  3  2  2  0
  4  2  1  0
  5  1  1  0
  5  4  1  0
  6  5  1  0
  7  6  1  0
  8  6  1  0
  9  8  2  0
  9  4  1  0
 10  9  1  0
 11 10  2  0
 12 10  1  0
 14  1  1  0
 14 13  1  0
 15 14  1  0
 16  8  1  0
 17 16  1  0
 18 17  1  0
 19 18  1  0
 20 19  1  0
 21 20  1  0
 21 17  1  0
 22 20  1  0
 23 22  2  0
 24 22  1  0
 25 24  1  0
 26 24  1  0
  1 27  1  6
  5 28  1  1
  6 29  1  1
  7 30  1  0
  7 31  1  0
  7 32  1  0
 13 33  1  0
 13 34  1  0
 13 35  1  0
 14 36  1  6
 15 37  1  0
 17 38  1  6
 18 39  1  0
 18 40  1  0
 19 41  1  0
 19 42  1  0
 20 43  1  1
 21 44  1  0
 21 45  1  0
 25 46  1  0
 25 47  1  0
 25 48  1  0
 26 49  1  0
 26 50  1  0
 26 51  1  0
M  CHG  2  12  -1  19   1
M  END
>  <score>  (1) 
-7.714

$$$$
=
     RDKit          3D

 51 53  0  0  0  0  0  0  0  0999 V2000
    3.3120   62.4750   71.5150 C   0  0  1  0  0  0  0  0  0  0  0  0
    2.0720   62.6460   72.3950 C   0  0  0  0  0  0  0  0  0  0  0  0
    1.7760   63.4130   73.2830 O   0  0  0  0  0  0  0  0  0  0  0  0
    1.4660   61.5480   71.8410 N   0  0  0  0  0  0  0  0  0  0  0  0
    2.6490   61.1420   71.0390 C   0  0  2  0  0  0  0  0  0  0  0  0
    2.9840   59.7170   71.5120 C   0  0  1  0  0  0  0  0  0  0  0  0
    4.3850   59.6310   72.1070 C   0  0  0  0  0  0  0  0  0  0  0  0
    1.8590   59.4170   72.4810 C   0  0  0  0  0  0  0  0  0  0  0  0
    1.0670   60.4920   72.6480 C   0  0  0  0  0  0  0  0  0  0  0  0
   -0.1830   60.6370   73.5770 C   0  0  0  0  0  0  0  0  0  0  0  0
    0.0750   60.8360   74.7960 O   0  0  0  0  0  0  0  0  0  0  0  0
   -1.2920   60.8310   72.9860 O   0  0  0  0  0  1  0  0  0  0  0  0
    3.7070   63.0830   69.0570 C   0  0  0  0  0  0  0  0  0  0  0  0
    3.5760   63.5730   70.4920 C   0  0  1  0  0  0  0  0  0  0  0  0
    2.5180   64.5320   70.5540 O   0  0  0  0  0  0  0  0  0  0  0  0
    1.7960   57.9040   73.3020 S   0  0  0  0  0  0  0  0  0  0  0  0
    2.2050   58.2840   75.0460 C   0  0  2  0  0  0  0  0  0  0  0  0
    3.6450   58.0870   75.5040 C   0  0  0  0  0  0  0  0  0  0  0  0
    3.7900   56.6130   75.4970 N   0  0  0  0  0  4  0  0  0  0  0  0
    2.5010   56.0400   76.0210 C   0  0  1  0  0  0  0  0  0  0  0  0
    1.5020   57.2110   75.8960 C   0  0  0  0  0  0  0  0  0  0  0  0
    2.0880   54.7320   75.3240 C   0  0  0  0  0  0  0  0  0  0  0  0
    2.5580   54.4600   74.2170 O   0  0  0  0  0  0  0  0  0  0  0  0
    1.2300   53.8590   75.9840 N   0  0  0  0  0  0  0  0  0  0  0  0
    0.9830   53.8500   77.4190 C   0  0  0  0  0  0  0  0  0  0  0  0
    0.7740   52.6800   75.2610 C   0  0  0  0  0  0  0  0  0  0  0  0
    4.3409   62.4949   71.9035 H   0  0  0  0  0  0  0  0  0  0  0  0
    2.7929   60.9556   69.9645 H   0  0  0  0  0  0  0  0  0  0  0  0
    3.0302   58.9686   70.7072 H   0  0  0  0  0  0  0  0  0  0  0  0
    4.3180   59.6351   73.2049 H   0  0  0  0  0  0  0  0  0  0  0  0
    4.8689   58.7015   71.7727 H   0  0  0  0  0  0  0  0  0  0  0  0
    4.9790   60.4944   71.7727 H   0  0  0  0  0  0  0  0  0  0  0  0
    3.9911   62.0203   69.0569 H   0  0  0  0  0  0  0  0  0  0  0  0
    2.7446   63.2053   68.5385 H   0  0  0  0  0  0  0  0  0  0  0  0
    4.4800   63.6692   68.5385 H   0  0  0  0  0  0  0  0  0  0  0  0
    4.5492   64.0100   70.7603 H   0  0  0  0  0  0  0  0  0  0  0  0
    2.3037   64.7262   71.5008 H   0  0  0  0  0  0  0  0  0  0  0  0
    1.9333   59.3450   75.1481 H   0  0  0  0  0  0  0  0  0  0  0  0
    4.3516   58.5584   74.8051 H   0  0  0  0  0  0  0  0  0  0  0  0
    3.8580   58.5420   76.4826 H   0  0  0  0  0  0  0  0  0  0  0  0
    3.9610   56.2792   74.5377 H   0  0  0  0  0  0  0  0  0  0  0  0
    4.5861   56.3198   76.0811 H   0  0  0  0  0  0  0  0  0  0  0  0
    2.5705   55.6983   77.0643 H   0  0  0  0  0  0  0  0  0  0  0  0
    0.5799   56.8746   75.3995 H   0  0  0  0  0  0  0  0  0  0  0  0
    1.2179   57.6036   76.8835 H   0  0  0  0  0  0  0  0  0  0  0  0
    1.9422   53.8849   77.9564 H   0  0  0  0  0  0  0  0  0  0  0  0
    0.3774   54.7267   77.6923 H   0  0  0  0  0  0  0  0  0  0  0  0
    0.4428   52.9316   77.6923 H   0  0  0  0  0  0  0  0  0  0  0  0
    0.4735   51.9029   75.9792 H   0  0  0  0  0  0  0  0  0  0  0  0
   -0.0856   52.9472   74.6288 H   0  0  0  0  0  0  0  0  0  0  0  0
    1.5897   52.2993   74.6288 H   0  0  0  0  0  0  0  0  0  0  0  0
  2  1  1  0
  3  2  2  0
  4  2  1  0
  5  1  1  0
  5  4  1  0
  6  5  1  0
  7  6  1  0
  8  6  1  0
  9  8  2  0
  9  4  1  0
 10  9  1  0
 11 10  2  0
 12 10  1  0
 14  1  1  0
 14 13  1  0
 15 14  1  0
 16  8  1  0
 17 16  1  0
 18 17  1  0
 19 18  1  0
 20 19  1  0
 21 20  1  0
 21 17  1  0
 22 20  1  0
 23 22  2  0
 24 22  1  0
 25 24  1  0
 26 24  1  0
  1 27  1  1
  5 28  1  6
  6 29  1  6
  7 30  1  0
  7 31  1  0
  7 32  1  0
 13 33  1  0
 13 34  1  0
 13 35  1  0
 14 36  1  1
 15 37  1  0
 17 38  1  1
 18 39  1  0
 18 40  1  0
 19 41  1  0
 19 42  1  0
 20 43  1  1
 21 44  1  0
 21 45  1  0
 25 46  1  0
 25 47  1  0
 25 48  1  0
 26 49  1  0
 26 50  1  0
 26 51  1  0
M  CHG  2  12  -1  19   1
M  END
>  <score>  (2) 
-6.964

$$$$
=
     RDKit          3D

 51 53  0  0  0  0  0  0  0  0999 V2000
    0.9120   65.2840   70.7410 C   0  0  1  0  0  0  0  0  0  0  0  0
    0.0410   64.8220   71.9110 C   0  0  0  0  0  0  0  0  0  0  0  0
   -0.2640   65.3170   72.9720 O   0  0  0  0  0  0  0  0  0  0  0  0
   -0.1880   63.6050   71.3240 N   0  0  0  0  0  0  0  0  0  0  0  0
    0.7540   63.8270   70.1980 C   0  0  2  0  0  0  0  0  0  0  0  0
    1.7770   62.6820   70.2990 C   0  0  1  0  0  0  0  0  0  0  0  0
    3.1930   63.2020   70.5090 C   0  0  0  0  0  0  0  0  0  0  0  0
    1.2270   61.8470   71.4380 C   0  0  0  0  0  0  0  0  0  0  0  0
    0.1500   62.4360   71.9910 C   0  0  0  0  0  0  0  0  0  0  0  0
   -0.7030   61.9430   73.2050 C   0  0  0  0  0  0  0  0  0  0  0  0
   -0.2640   62.2760   74.3410 O   0  0  0  0  0  0  0  0  0  0  0  0
   -1.8730   61.5290   72.9270 O   0  0  0  0  0  1  0  0  0  0  0  0
    1.4440   67.2690   69.2090 C   0  0  0  0  0  0  0  0  0  0  0  0
    0.3750   66.4430   69.9090 C   0  0  1  0  0  0  0  0  0  0  0  0
   -0.5270   65.9310   68.9250 O   0  0  0  0  0  0  0  0  0  0  0  0
    2.0480   60.4240   71.9500 S   0  0  0  0  0  0  0  0  0  0  0  0
    3.2210   60.9800   73.2420 C   0  0  2  0  0  0  0  0  0  0  0  0
    4.6150   60.3650   73.2580 C   0  0  0  0  0  0  0  0  0  0  0  0
    4.3520   58.9760   73.7000 N   0  0  0  0  0  4  0  0  0  0  0  0
    3.2900   59.0450   74.7650 C   0  0  1  0  0  0  0  0  0  0  0  0
    2.6740   60.4480   74.5780 C   0  0  0  0  0  0  0  0  0  0  0  0
    2.3010   57.8680   74.7140 C   0  0  0  0  0  0  0  0  0  0  0  0
    2.2320   57.1750   73.6970 O   0  0  0  0  0  0  0  0  0  0  0  0
    1.5390   57.5800   75.8420 N   0  0  0  0  0  0  0  0  0  0  0  0
    1.8470   58.0160   77.1970 C   0  0  0  0  0  0  0  0  0  0  0  0
    0.5370   56.5290   75.7340 C   0  0  0  0  0  0  0  0  0  0  0  0
    1.9036   65.7435   70.8656 H   0  0  0  0  0  0  0  0  0  0  0  0
    0.6314   63.7910   69.1054 H   0  0  0  0  0  0  0  0  0  0  0  0
    1.8862   62.0861   69.3808 H   0  0  0  0  0  0  0  0  0  0  0  0
    3.3997   63.2779   71.5867 H   0  0  0  0  0  0  0  0  0  0  0  0
    3.9106   62.5087   70.0460 H   0  0  0  0  0  0  0  0  0  0  0  0
    3.2914   64.1949   70.0460 H   0  0  0  0  0  0  0  0  0  0  0  0
    2.0792   67.7598   69.9611 H   0  0  0  0  0  0  0  0  0  0  0  0
    2.0620   66.6115   68.5799 H   0  0  0  0  0  0  0  0  0  0  0  0
    0.9637   68.0329   68.5799 H   0  0  0  0  0  0  0  0  0  0  0  0
   -0.1238   67.1202   70.6180 H   0  0  0  0  0  0  0  0  0  0  0  0
   -1.2939   65.4957   69.3750 H   0  0  0  0  0  0  0  0  0  0  0  0
    3.3044   62.0623   73.0638 H   0  0  0  0  0  0  0  0  0  0  0  0
    5.0684   60.3834   72.2559 H   0  0  0  0  0  0  0  0  0  0  0  0
    5.3225   60.9031   73.9060 H   0  0  0  0  0  0  0  0  0  0  0  0
    4.0204   58.4093   72.9064 H   0  0  0  0  0  0  0  0  0  0  0  0
    5.2100   58.5384   74.0651 H   0  0  0  0  0  0  0  0  0  0  0  0
    3.6881   58.9293   75.7839 H   0  0  0  0  0  0  0  0  0  0  0  0
    1.5766   60.3813   74.5417 H   0  0  0  0  0  0  0  0  0  0  0  0
    2.9340   61.1154   75.4128 H   0  0  0  0  0  0  0  0  0  0  0  0
    1.3678   57.3377   77.9183 H   0  0  0  0  0  0  0  0  0  0  0  0
    2.9365   58.0016   77.3481 H   0  0  0  0  0  0  0  0  0  0  0  0
    1.4693   59.0380   77.3481 H   0  0  0  0  0  0  0  0  0  0  0  0
    0.2316   56.2087   76.7410 H   0  0  0  0  0  0  0  0  0  0  0  0
   -0.3388   56.9119   75.1897 H   0  0  0  0  0  0  0  0  0  0  0  0
    0.9613   55.6724   75.1897 H   0  0  0  0  0  0  0  0  0  0  0  0
  2  1  1  0
  3  2  2  0
  4  2  1  0
  5  1  1  0
  5  4  1  0
  6  5  1  0
  7  6  1  0
  8  6  1  0
  9  8  2  0
  9  4  1  0
 10  9  1  0
 11 10  2  0
 12 10  1  0
 14  1  1  0
 14 13  1  0
 15 14  1  0
 16  8  1  0
 17 16  1  0
 18 17  1  0
 19 18  1  0
 20 19  1  0
 21 20  1  0
 21 17  1  0
 22 20  1  0
 23 22  2  0
 24 22  1  0
 25 24  1  0
 26 24  1  0
  1 27  1  1
  5 28  1  6
  6 29  1  6
  7 30  1  0
  7 31  1  0
  7 32  1  0
 13 33  1  0
 13 34  1  0
 13 35  1  0
 14 36  1  1
 15 37  1  0
 17 38  1  1
 18 39  1  0
 18 40  1  0
 19 41  1  0
 19 42  1  0
 20 43  1  1
 21 44  1  0
 21 45  1  0
 25 46  1  0
 25 47  1  0
 25 48  1  0
 26 49  1  0
 26 50  1  0
 26 51  1  0
M  CHG  2  12  -1  19   1
M  END
>  <score>  (3) 
-6.946

$$$$
=
     RDKit          3D

 51 53  0  0  0  0  0  0  0  0999 V2000
    2.4650   62.3110   70.2280 C   0  0  1  0  0  0  0  0  0  0  0  0
    2.9930   60.8790   70.3380 C   0  0  0  0  0  0  0  0  0  0  0  0
    3.2540   60.0200   69.5280 O   0  0  0  0  0  0  0  0  0  0  0  0
    2.9770   60.9260   71.7080 N   0  0  0  0  0  0  0  0  0  0  0  0
    2.3100   62.2510   71.7820 C   0  0  2  0  0  0  0  0  0  0  0  0
    1.0160   62.0060   72.5780 C   0  0  1  0  0  0  0  0  0  0  0  0
   -0.2250   62.3430   71.7610 C   0  0  0  0  0  0  0  0  0  0  0  0
    1.1440   60.5490   72.9750 C   0  0  0  0  0  0  0  0  0  0  0  0
    2.2410   59.9940   72.4280 C   0  0  0  0  0  0  0  0  0  0  0  0
    2.7380   58.5160   72.5450 C   0  0  0  0  0  0  0  0  0  0  0  0
    3.3210   58.2300   73.6270 O   0  0  0  0  0  0  0  0  0  0  0  0
    2.2570   57.7020   71.6940 O   0  0  0  0  0  1  0  0  0  0  0  0
    4.7620   63.4440   70.3140 C   0  0  0  0  0  0  0  0  0  0  0  0
    3.4120   63.3400   69.6210 C   0  0  1  0  0  0  0  0  0  0  0  0
    3.6270   63.0190   68.2440 O   0  0  0  0  0  0  0  0  0  0  0  0
   -0.0950   59.7850   73.8950 S   0  0  0  0  0  0  0  0  0  0  0  0
    0.5780   59.6470   75.5920 C   0  0  2  0  0  0  0  0  0  0  0  0
   -0.4080   59.4920   76.7440 C   0  0  0  0  0  0  0  0  0  0  0  0
   -1.0470   60.8270   76.8060 N   0  0  0  0  0  4  0  0  0  0  0  0
    0.0330   61.8460   76.5600 C   0  0  1  0  0  0  0  0  0  0  0  0
    1.1770   61.0230   75.9310 C   0  0  0  0  0  0  0  0  0  0  0  0
   -0.4480   63.0560   75.7420 C   0  0  0  0  0  0  0  0  0  0  0  0
   -1.5730   63.0400   75.2360 O   0  0  0  0  0  0  0  0  0  0  0  0
    0.3820   64.1670   75.6330 N   0  0  0  0  0  0  0  0  0  0  0  0
    1.4900   64.4780   76.5250 C   0  0  0  0  0  0  0  0  0  0  0  0
   -0.0520   65.2560   74.7680 C   0  0  0  0  0  0  0  0  0  0  0  0
    1.6245   62.6011   69.5804 H   0  0  0  0  0  0  0  0  0  0  0  0
    2.5831   63.1963   72.2737 H   0  0  0  0  0  0  0  0  0  0  0  0
    0.8927   62.6528   73.4592 H   0  0  0  0  0  0  0  0  0  0  0  0
   -1.0604   62.5699   72.4397 H   0  0  0  0  0  0  0  0  0  0  0  0
   -0.0199   63.2180   71.1267 H   0  0  0  0  0  0  0  0  0  0  0  0
   -0.4907   61.4845   71.1267 H   0  0  0  0  0  0  0  0  0  0  0  0
    4.6163   63.4328   71.4043 H   0  0  0  0  0  0  0  0  0  0  0  0
    5.3920   62.5917   70.0195 H   0  0  0  0  0  0  0  0  0  0  0  0
    5.2540   64.3827   70.0195 H   0  0  0  0  0  0  0  0  0  0  0  0
    2.9223   64.3166   69.7491 H   0  0  0  0  0  0  0  0  0  0  0  0
    4.1767   62.1983   68.1784 H   0  0  0  0  0  0  0  0  0  0  0  0
    1.2202   58.7553   75.5415 H   0  0  0  0  0  0  0  0  0  0  0  0
   -1.1484   58.7072   76.5298 H   0  0  0  0  0  0  0  0  0  0  0  0
    0.0679   59.1910   77.6890 H   0  0  0  0  0  0  0  0  0  0  0  0
   -1.7764   60.9036   76.0828 H   0  0  0  0  0  0  0  0  0  0  0  0
   -1.4921   60.9783   77.7224 H   0  0  0  0  0  0  0  0  0  0  0  0
    0.3749   62.3468   77.4778 H   0  0  0  0  0  0  0  0  0  0  0  0
    1.5436   61.5149   75.0180 H   0  0  0  0  0  0  0  0  0  0  0  0
    2.0304   60.9308   76.6189 H   0  0  0  0  0  0  0  0  0  0  0  0
    1.1573   64.3846   77.5693 H   0  0  0  0  0  0  0  0  0  0  0  0
    2.3176   63.7774   76.3398 H   0  0  0  0  0  0  0  0  0  0  0  0
    1.8322   65.5069   76.3398 H   0  0  0  0  0  0  0  0  0  0  0  0
   -0.3892   66.1021   75.3848 H   0  0  0  0  0  0  0  0  0  0  0  0
    0.7871   65.5766   74.1330 H   0  0  0  0  0  0  0  0  0  0  0  0
   -0.8816   64.9116   74.1330 H   0  0  0  0  0  0  0  0  0  0  0  0
  2  1  1  0
  3  2  2  0
  4  2  1  0
  5  1  1  0
  5  4  1  0
  6  5  1  0
  7  6  1  0
  8  6  1  0
  9  8  2  0
  9  4  1  0
 10  9  1  0
 11 10  2  0
 12 10  1  0
 14  1  1  0
 14 13  1  0
 15 14  1  0
 16  8  1  0
 17 16  1  0
 18 17  1  0
 19 18  1  0
 20 19  1  0
 21 20  1  0
 21 17  1  0
 22 20  1  0
 23 22  2  0
 24 22  1  0
 25 24  1  0
 26 24  1  0
  1 27  1  6
  5 28  1  1
  6 29  1  1
  7 30  1  0
  7 31  1  0
  7 32  1  0
 13 33  1  0
 13 34  1  0
 13 35  1  0
 14 36  1  6
 15 37  1  0
 17 38  1  6
 18 39  1  0
 18 40  1  0
 19 41  1  0
 19 42  1  0
 20 43  1  1
 21 44  1  0
 21 45  1  0
 25 46  1  0
 25 47  1  0
 25 48  1  0
 26 49  1  0
 26 50  1  0
 26 51  1  0
M  CHG  2  12  -1  19   1
M  END
>  <score>  (4) 
-6.709

$$$$
=
     RDKit          3D

 51 53  0  0  0  0  0  0  0  0999 V2000
    2.5070   62.3640   70.2020 C   0  0  1  0  0  0  0  0  0  0  0  0
    3.0180   60.9270   70.3160 C   0  0  0  0  0  0  0  0  0  0  0  0
    3.2580   60.0590   69.5080 O   0  0  0  0  0  0  0  0  0  0  0  0
    3.0180   60.9820   71.6860 N   0  0  0  0  0  0  0  0  0  0  0  0
    2.3690   62.3160   71.7580 C   0  0  2  0  0  0  0  0  0  0  0  0
    1.0810   62.0920   72.5710 C   0  0  1  0  0  0  0  0  0  0  0  0
   -0.1650   62.4400   71.7660 C   0  0  0  0  0  0  0  0  0  0  0  0
    1.1950   60.6370   72.9760 C   0  0  0  0  0  0  0  0  0  0  0  0
    2.2790   60.0650   72.4200 C   0  0  0  0  0  0  0  0  0  0  0  0
    2.7580   58.5810   72.5400 C   0  0  0  0  0  0  0  0  0  0  0  0
    3.4760   58.3290   73.5470 O   0  0  0  0  0  0  0  0  0  0  0  0
    2.1520   57.7420   71.8020 O   0  0  0  0  0  1  0  0  0  0  0  0
    4.8200   63.4660   70.2530 C   0  0  0  0  0  0  0  0  0  0  0  0
    3.4590   63.3770   69.5780 C   0  0  1  0  0  0  0  0  0  0  0  0
    3.6520   63.0470   68.2000 O   0  0  0  0  0  0  0  0  0  0  0  0
   -0.0420   59.8950   73.9140 S   0  0  0  0  0  0  0  0  0  0  0  0
    0.3680   60.2890   75.6550 C   0  0  2  0  0  0  0  0  0  0  0  0
    1.8250   60.1780   76.0910 C   0  0  0  0  0  0  0  0  0  0  0  0
    2.0570   58.7140   76.0740 N   0  0  0  0  0  4  0  0  0  0  0  0
    0.8120   58.0630   76.6130 C   0  0  1  0  0  0  0  0  0  0  0  0
   -0.2570   59.1720   76.5080 C   0  0  0  0  0  0  0  0  0  0  0  0
    0.4690   56.7360   75.9140 C   0  0  0  0  0  0  0  0  0  0  0  0
    0.9470   56.4930   74.8040 O   0  0  0  0  0  0  0  0  0  0  0  0
   -0.3370   55.8160   76.5760 N   0  0  0  0  0  0  0  0  0  0  0  0
   -0.5760   55.7890   78.0120 C   0  0  0  0  0  0  0  0  0  0  0  0
   -0.7310   54.6150   75.8520 C   0  0  0  0  0  0  0  0  0  0  0  0
    1.6631   62.6601   69.5616 H   0  0  0  0  0  0  0  0  0  0  0  0
    2.6596   63.2613   72.2396 H   0  0  0  0  0  0  0  0  0  0  0  0
    0.9762   62.7454   73.4497 H   0  0  0  0  0  0  0  0  0  0  0  0
   -0.9926   62.6711   72.4528 H   0  0  0  0  0  0  0  0  0  0  0  0
    0.0406   63.3151   71.1320 H   0  0  0  0  0  0  0  0  0  0  0  0
   -0.4426   61.5850   71.1320 H   0  0  0  0  0  0  0  0  0  0  0  0
    4.6889   63.4574   71.3451 H   0  0  0  0  0  0  0  0  0  0  0  0
    5.4360   62.6062   69.9509 H   0  0  0  0  0  0  0  0  0  0  0  0
    5.3188   64.3987   69.9509 H   0  0  0  0  0  0  0  0  0  0  0  0
    2.9837   64.3605   69.7079 H   0  0  0  0  0  0  0  0  0  0  0  0
    4.1506   62.1945   68.1315 H   0  0  0  0  0  0  0  0  0  0  0  0
    0.0338   61.3309   75.7681 H   0  0  0  0  0  0  0  0  0  0  0  0
    2.4914   60.6939   75.3841 H   0  0  0  0  0  0  0  0  0  0  0  0
    2.0258   60.6415   77.0682 H   0  0  0  0  0  0  0  0  0  0  0  0
    2.2337   58.3953   75.1106 H   0  0  0  0  0  0  0  0  0  0  0  0
    2.8774   58.4660   76.6453 H   0  0  0  0  0  0  0  0  0  0  0  0
    0.9160   57.7221   77.6537 H   0  0  0  0  0  0  0  0  0  0  0  0
   -1.1640   58.7830   76.0221 H   0  0  0  0  0  0  0  0  0  0  0  0
   -0.5505   59.5420   77.5014 H   0  0  0  0  0  0  0  0  0  0  0  0
    0.3802   55.8970   78.5449 H   0  0  0  0  0  0  0  0  0  0  0  0
   -1.2452   56.6173   78.2880 H   0  0  0  0  0  0  0  0  0  0  0  0
   -1.0436   54.8323   78.2880 H   0  0  0  0  0  0  0  0  0  0  0  0
   -0.9909   53.8229   76.5697 H   0  0  0  0  0  0  0  0  0  0  0  0
   -1.6032   54.8375   75.2198 H   0  0  0  0  0  0  0  0  0  0  0  0
    0.1036   54.2776   75.2198 H   0  0  0  0  0  0  0  0  0  0  0  0
  2  1  1  0
  3  2  2  0
  4  2  1  0
  5  1  1  0
  5  4  1  0
  6  5  1  0
  7  6  1  0
  8  6  1  0
  9  8  2  0
  9  4  1  0
 10  9  1  0
 11 10  2  0
 12 10  1  0
 14  1  1  0
 14 13  1  0
 15 14  1  0
 16  8  1  0
 17 16  1  0
 18 17  1  0
 19 18  1  0
 20 19  1  0
 21 20  1  0
 21 17  1  0
 22 20  1  0
 23 22  2  0
 24 22  1  0
 25 24  1  0
 26 24  1  0
  1 27  1  6
  5 28  1  1
  6 29  1  1
  7 30  1  0
  7 31  1  0
  7 32  1  0
 13 33  1  0
 13 34  1  0
 13 35  1  0
 14 36  1  6
 15 37  1  0
 17 38  1  1
 18 39  1  0
 18 40  1  0
 19 41  1  0
 19 42  1  0
 20 43  1  1
 21 44  1  0
 21 45  1  0
 25 46  1  0
 25 47  1  0
 25 48  1  0
 26 49  1  0
 26 50  1  0
 26 51  1  0
M  CHG  2  12  -1  19   1
M  END
>  <score>  (5) 
-6.512

$$$$
=
     RDKit          3D

 51 53  0  0  0  0  0  0  0  0999 V2000
    2.4580   62.4350   70.2790 C   0  0  1  0  0  0  0  0  0  0  0  0
    2.9410   60.9980   70.4870 C   0  0  0  0  0  0  0  0  0  0  0  0
    3.1750   60.0780   69.7360 O   0  0  0  0  0  0  0  0  0  0  0  0
    2.9280   61.1380   71.8500 N   0  0  0  0  0  0  0  0  0  0  0  0
    2.3030   62.4850   71.8330 C   0  0  2  0  0  0  0  0  0  0  0  0
    1.0020   62.3340   72.6420 C   0  0  1  0  0  0  0  0  0  0  0  0
   -0.2290   62.6530   71.8030 C   0  0  0  0  0  0  0  0  0  0  0  0
    1.0850   60.9040   73.1370 C   0  0  0  0  0  0  0  0  0  0  0  0
    2.1640   60.2800   72.6300 C   0  0  0  0  0  0  0  0  0  0  0  0
    2.6150   58.7990   72.8480 C   0  0  0  0  0  0  0  0  0  0  0  0
    3.2840   58.5900   73.8970 O   0  0  0  0  0  0  0  0  0  0  0  0
    2.0290   57.9310   72.1260 O   0  0  0  0  0  1  0  0  0  0  0  0
    4.8160   63.4380   70.2430 C   0  0  0  0  0  0  0  0  0  0  0  0
    3.4360   63.3900   69.6050 C   0  0  1  0  0  0  0  0  0  0  0  0
    3.5780   63.0180   68.2320 O   0  0  0  0  0  0  0  0  0  0  0  0
   -0.1760   60.2430   74.1050 S   0  0  0  0  0  0  0  0  0  0  0  0
   -0.3110   61.3580   75.5510 C   0  0  2  0  0  0  0  0  0  0  0  0
   -0.4540   60.7270   76.9320 C   0  0  0  0  0  0  0  0  0  0  0  0
   -1.8210   60.1590   76.8890 N   0  0  0  0  0  4  0  0  0  0  0  0
   -2.6890   61.1500   76.1610 C   0  0  1  0  0  0  0  0  0  0  0  0
   -1.6760   62.0570   75.4300 C   0  0  0  0  0  0  0  0  0  0  0  0
   -3.7560   60.4870   75.2730 C   0  0  0  0  0  0  0  0  0  0  0  0
   -3.5590   59.3530   74.8310 O   0  0  0  0  0  0  0  0  0  0  0  0
   -4.9450   61.1660   75.0290 N   0  0  0  0  0  0  0  0  0  0  0  0
   -5.4650   62.2630   75.8320 C   0  0  0  0  0  0  0  0  0  0  0  0
   -5.8930   60.5620   74.1020 C   0  0  0  0  0  0  0  0  0  0  0  0
    1.6265   62.7068   69.6121 H   0  0  0  0  0  0  0  0  0  0  0  0
    2.6062   63.4524   72.2598 H   0  0  0  0  0  0  0  0  0  0  0  0
    0.8997   63.0426   73.4771 H   0  0  0  0  0  0  0  0  0  0  0  0
   -1.0781   62.8730   72.4667 H   0  0  0  0  0  0  0  0  0  0  0  0
   -0.0235   63.5276   71.1682 H   0  0  0  0  0  0  0  0  0  0  0  0
   -0.4741   61.7887   71.1682 H   0  0  0  0  0  0  0  0  0  0  0  0
    4.7139   63.4344   71.3382 H   0  0  0  0  0  0  0  0  0  0  0  0
    5.3972   62.5595   69.9261 H   0  0  0  0  0  0  0  0  0  0  0  0
    5.3348   64.3547   69.9261 H   0  0  0  0  0  0  0  0  0  0  0  0
    3.0068   64.3961   69.7212 H   0  0  0  0  0  0  0  0  0  0  0  0
    3.9305   62.0946   68.1750 H   0  0  0  0  0  0  0  0  0  0  0  0
    0.6207   61.9416   75.5129 H   0  0  0  0  0  0  0  0  0  0  0  0
    0.2982   59.9397   77.0884 H   0  0  0  0  0  0  0  0  0  0  0  0
   -0.3027   61.4398   77.7560 H   0  0  0  0  0  0  0  0  0  0  0  0
   -1.8143   59.2595   76.3872 H   0  0  0  0  0  0  0  0  0  0  0  0
   -2.1774   59.9886   77.8402 H   0  0  0  0  0  0  0  0  0  0  0  0
   -3.3271   61.7438   76.8320 H   0  0  0  0  0  0  0  0  0  0  0  0
   -1.9561   62.1666   74.3719 H   0  0  0  0  0  0  0  0  0  0  0  0
   -1.6508   63.0655   75.8685 H   0  0  0  0  0  0  0  0  0  0  0  0
   -5.3509   62.0223   76.8993 H   0  0  0  0  0  0  0  0  0  0  0  0
   -4.9069   63.1826   75.6018 H   0  0  0  0  0  0  0  0  0  0  0  0
   -6.5301   62.4131   75.6018 H   0  0  0  0  0  0  0  0  0  0  0  0
   -6.6881   60.0554   74.6688 H   0  0  0  0  0  0  0  0  0  0  0  0
   -6.3359   61.3447   73.4687 H   0  0  0  0  0  0  0  0  0  0  0  0
   -5.3707   59.8298   73.4687 H   0  0  0  0  0  0  0  0  0  0  0  0
  2  1  1  0
  3  2  2  0
  4  2  1  0
  5  1  1  0
  5  4  1  0
  6  5  1  0
  7  6  1  0
  8  6  1  0
  9  8  2  0
  9  4  1  0
 10  9  1  0
 11 10  2  0
 12 10  1  0
 14  1  1  0
 14 13  1  0
 15 14  1  0
 16  8  1  0
 17 16  1  0
 18 17  1  0
 19 18  1  0
 20 19  1  0
 21 20  1  0
 21 17  1  0
 22 20  1  0
 23 22  2  0
 24 22  1  0
 25 24  1  0
 26 24  1  0
  1 27  1  6
  5 28  1  1
  6 29  1  1
  7 30  1  0
  7 31  1  0
  7 32  1  0
 13 33  1  0
 13 34  1  0
 13 35  1  0
 14 36  1  6
 15 37  1  0
 17 38  1  1
 18 39  1  0
 18 40  1  0
 19 41  1  0
 19 42  1  0
 20 43  1  1
 21 44  1  0
 21 45  1  0
 25 46  1  0
 25 47  1  0
 25 48  1  0
 26 49  1  0
 26 50  1  0
 26 51  1  0
M  CHG  2  12  -1  19   1
M  END
>  <score>  (6) 
-6.294

$$$$
=
     RDKit          3D

 51 53  0  0  0  0  0  0  0  0999 V2000
    3.3250   61.2490   71.6610 C   0  0  1  0  0  0  0  0  0  0  0  0
    2.1160   62.1820   71.7390 C   0  0  0  0  0  0  0  0  0  0  0  0
    1.9820   63.3830   71.6820 O   0  0  0  0  0  0  0  0  0  0  0  0
    1.2620   61.1370   71.9780 N   0  0  0  0  0  0  0  0  0  0  0  0
    2.3370   60.1200   72.0990 C   0  0  2  0  0  0  0  0  0  0  0  0
    2.1720   59.5260   73.5090 C   0  0  1  0  0  0  0  0  0  0  0  0
    3.4120   59.7450   74.3660 C   0  0  0  0  0  0  0  0  0  0  0  0
    0.9170   60.2110   74.0110 C   0  0  0  0  0  0  0  0  0  0  0  0
    0.4800   61.1250   73.1250 C   0  0  0  0  0  0  0  0  0  0  0  0
   -0.7520   62.0810   73.2500 C   0  0  0  0  0  0  0  0  0  0  0  0
   -1.8460   61.6030   72.8400 O   0  0  0  0  0  0  0  0  0  0  0  0
   -0.5920   63.0950   74.0000 O   0  0  0  0  0  1  0  0  0  0  0  0
    3.6850   59.8750   69.5270 C   0  0  0  0  0  0  0  0  0  0  0  0
    4.0140   61.1410   70.3050 C   0  0  1  0  0  0  0  0  0  0  0  0
    3.6570   62.2740   69.5100 O   0  0  0  0  0  0  0  0  0  0  0  0
    0.3130   59.8760   75.5870 S   0  0  0  0  0  0  0  0  0  0  0  0
   -1.3360   59.1250   75.3230 C   0  0  2  0  0  0  0  0  0  0  0  0
   -1.9880   58.3950   76.4920 C   0  0  0  0  0  0  0  0  0  0  0  0
   -1.1470   57.1830   76.6270 N   0  0  0  0  0  4  0  0  0  0  0  0
   -0.8150   56.7180   75.2350 C   0  0  1  0  0  0  0  0  0  0  0  0
   -1.1230   57.9480   74.3540 C   0  0  0  0  0  0  0  0  0  0  0  0
    0.6070   56.1450   75.1080 C   0  0  0  0  0  0  0  0  0  0  0  0
    1.5520   56.7460   75.6240 O   0  0  0  0  0  0  0  0  0  0  0  0
    0.7870   54.9300   74.4540 N   0  0  0  0  0  0  0  0  0  0  0  0
   -0.2560   53.9420   74.2160 C   0  0  0  0  0  0  0  0  0  0  0  0
    2.1520   54.4620   74.2570 C   0  0  0  0  0  0  0  0  0  0  0  0
    4.2662   61.4265   72.2019 H   0  0  0  0  0  0  0  0  0  0  0  0
    2.5227   59.1672   71.5817 H   0  0  0  0  0  0  0  0  0  0  0  0
    2.0682   58.4312   73.5339 H   0  0  0  0  0  0  0  0  0  0  0  0
    3.1359   59.6962   75.4297 H   0  0  0  0  0  0  0  0  0  0  0  0
    4.1540   58.9640   74.1436 H   0  0  0  0  0  0  0  0  0  0  0  0
    3.8416   60.7329   74.1436 H   0  0  0  0  0  0  0  0  0  0  0  0
    3.4724   59.0569   70.2309 H   0  0  0  0  0  0  0  0  0  0  0  0
    2.8031   60.0524   68.8939 H   0  0  0  0  0  0  0  0  0  0  0  0
    4.5417   59.6006   68.8939 H   0  0  0  0  0  0  0  0  0  0  0  0
    5.0932   61.1038   70.5144 H   0  0  0  0  0  0  0  0  0  0  0  0
    3.4186   63.0307   70.1022 H   0  0  0  0  0  0  0  0  0  0  0  0
   -1.9638   59.9808   75.0340 H   0  0  0  0  0  0  0  0  0  0  0  0
   -1.9565   59.0040   77.4075 H   0  0  0  0  0  0  0  0  0  0  0  0
   -3.0528   58.1722   76.3291 H   0  0  0  0  0  0  0  0  0  0  0  0
   -0.2826   57.4080   77.1400 H   0  0  0  0  0  0  0  0  0  0  0  0
   -1.6440   56.4482   77.1504 H   0  0  0  0  0  0  0  0  0  0  0  0
   -1.4111   55.8512   74.9135 H   0  0  0  0  0  0  0  0  0  0  0  0
   -0.2786   58.1561   73.6804 H   0  0  0  0  0  0  0  0  0  0  0  0
   -2.0097   57.7798   73.7251 H   0  0  0  0  0  0  0  0  0  0  0  0
   -0.6417   53.5767   75.1792 H   0  0  0  0  0  0  0  0  0  0  0  0
   -1.0748   54.4036   73.6445 H   0  0  0  0  0  0  0  0  0  0  0  0
    0.1606   53.0995   73.6445 H   0  0  0  0  0  0  0  0  0  0  0  0
    2.6284   54.2987   75.2350 H   0  0  0  0  0  0  0  0  0  0  0  0
    2.1380   53.5173   73.6936 H   0  0  0  0  0  0  0  0  0  0  0  0
    2.7206   55.2165   73.6936 H   0  0  0  0  0  0  0  0  0  0  0  0
  2  1  1  0
  3  2  2  0
  4  2  1  0
  5  1  1  0
  5  4  1  0
  6  5  1  0
  7  6  1  0
  8  6  1  0
  9  8  2  0
  9  4  1  0
 10  9  1  0
 11 10  2  0
 12 10  1  0
 14  1  1  0
 14 13  1  0
 15 14  1  0
 16  8  1  0
 17 16  1  0
 18 17  1  0
 19 18  1  0
 20 19  1  0
 21 20  1  0
 21 17  1  0
 22 20  1  0
 23 22  2  0
 24 22  1  0
 25 24  1  0
 26 24  1  0
  1 27  1  1
  5 28  1  6
  6 29  1  6
  7 30  1  0
  7 31  1  0
  7 32  1  0
 13 33  1  0
 13 34  1  0
 13 35  1  0
 14 36  1  1
 15 37  1  0
 17 38  1  6
 18 39  1  0
 18 40  1  0
 19 41  1  0
 19 42  1  0
 20 43  1  6
 21 44  1  0
 21 45  1  0
 25 46  1  0
 25 47  1  0
 25 48  1  0
 26 49  1  0
 26 50  1  0
 26 51  1  0
M  CHG  2  12  -1  19   1
M  END
>  <score>  (7) 
-6.276

$$$$
=
     RDKit          3D

 51 53  0  0  0  0  0  0  0  0999 V2000
    0.6910   63.6160   70.8370 C   0  0  1  0  0  0  0  0  0  0  0  0
    1.9710   62.9390   70.3430 C   0  0  0  0  0  0  0  0  0  0  0  0
    2.3040   62.4500   69.2880 O   0  0  0  0  0  0  0  0  0  0  0  0
    2.5570   63.0330   71.5790 N   0  0  0  0  0  0  0  0  0  0  0  0
    1.3400   63.5460   72.2570 C   0  0  2  0  0  0  0  0  0  0  0  0
    1.0390   62.5250   73.3680 C   0  0  1  0  0  0  0  0  0  0  0  0
   -0.3300   61.8800   73.1900 C   0  0  0  0  0  0  0  0  0  0  0  0
    2.2130   61.5720   73.2680 C   0  0  0  0  0  0  0  0  0  0  0  0
    3.0040   61.8890   72.2260 C   0  0  0  0  0  0  0  0  0  0  0  0
    4.2970   61.1580   71.7360 C   0  0  0  0  0  0  0  0  0  0  0  0
    4.1060   60.0280   71.2080 O   0  0  0  0  0  0  0  0  0  0  0  0
    5.3410   61.8790   71.6500 O   0  0  0  0  0  1  0  0  0  0  0  0
   -0.0590   66.0300   71.2540 C   0  0  0  0  0  0  0  0  0  0  0  0
    0.3690   64.9800   70.2400 C   0  0  1  0  0  0  0  0  0  0  0  0
    1.5150   65.4620   69.5360 O   0  0  0  0  0  0  0  0  0  0  0  0
    2.3270   60.2170   74.3230 S   0  0  0  0  0  0  0  0  0  0  0  0
    1.5890   58.8200   73.3980 C   0  0  2  0  0  0  0  0  0  0  0  0
    0.1480   58.4340   73.7110 C   0  0  0  0  0  0  0  0  0  0  0  0
    0.2570   57.8450   75.0660 N   0  0  0  0  0  4  0  0  0  0  0  0
    1.5240   57.0340   75.0950 C   0  0  1  0  0  0  0  0  0  0  0  0
    2.3190   57.5530   73.8770 C   0  0  0  0  0  0  0  0  0  0  0  0
    2.2570   57.0990   76.4460 C   0  0  0  0  0  0  0  0  0  0  0  0
    3.0740   57.9990   76.6520 O   0  0  0  0  0  0  0  0  0  0  0  0
    1.9410   56.1640   77.4270 N   0  0  0  0  0  0  0  0  0  0  0  0
    0.7210   55.3720   77.4700 C   0  0  0  0  0  0  0  0  0  0  0  0
    2.7210   56.1830   78.6570 C   0  0  0  0  0  0  0  0  0  0  0  0
   -0.3180   63.2203   70.6491 H   0  0  0  0  0  0  0  0  0  0  0  0
    1.1449   64.4466   72.8577 H   0  0  0  0  0  0  0  0  0  0  0  0
    0.9589   62.9579   74.3761 H   0  0  0  0  0  0  0  0  0  0  0  0
   -0.7690   61.6732   74.1772 H   0  0  0  0  0  0  0  0  0  0  0  0
   -0.9874   62.5631   72.6322 H   0  0  0  0  0  0  0  0  0  0  0  0
   -0.2218   60.9381   72.6322 H   0  0  0  0  0  0  0  0  0  0  0  0
    0.0988   65.6429   72.2715 H   0  0  0  0  0  0  0  0  0  0  0  0
    0.5391   66.9422   71.1119 H   0  0  0  0  0  0  0  0  0  0  0  0
   -1.1243   66.2642   71.1119 H   0  0  0  0  0  0  0  0  0  0  0  0
   -0.4926   64.8244   69.5742 H   0  0  0  0  0  0  0  0  0  0  0  0
    2.2036   65.7516   70.1856 H   0  0  0  0  0  0  0  0  0  0  0  0
    1.6587   59.1421   72.3485 H   0  0  0  0  0  0  0  0  0  0  0  0
   -0.5078   59.3171   73.7137 H   0  0  0  0  0  0  0  0  0  0  0  0
   -0.2916   57.7492   72.9709 H   0  0  0  0  0  0  0  0  0  0  0  0
    0.2994   58.5922   75.7737 H   0  0  0  0  0  0  0  0  0  0  0  0
   -0.5608   57.2552   75.2763 H   0  0  0  0  0  0  0  0  0  0  0  0
    1.3479   55.9513   75.0121 H   0  0  0  0  0  0  0  0  0  0  0  0
    3.3512   57.7951   74.1701 H   0  0  0  0  0  0  0  0  0  0  0  0
    2.3734   56.7959   73.0809 H   0  0  0  0  0  0  0  0  0  0  0  0
    0.4393   55.1891   78.5175 H   0  0  0  0  0  0  0  0  0  0  0  0
   -0.0883   55.9174   76.9625 H   0  0  0  0  0  0  0  0  0  0  0  0
    0.8898   54.4108   76.9625 H   0  0  0  0  0  0  0  0  0  0  0  0
    2.0418   56.1665   79.5221 H   0  0  0  0  0  0  0  0  0  0  0  0
    3.3770   55.3006   78.6889 H   0  0  0  0  0  0  0  0  0  0  0  0
    3.3332   57.0963   78.6889 H   0  0  0  0  0  0  0  0  0  0  0  0
  2  1  1  0
  3  2  2  0
  4  2  1  0
  5  1  1  0
  5  4  1  0
  6  5  1  0
  7  6  1  0
  8  6  1  0
  9  8  2  0
  9  4  1  0
 10  9  1  0
 11 10  2  0
 12 10  1  0
 14  1  1  0
 14 13  1  0
 15 14  1  0
 16  8  1  0
 17 16  1  0
 18 17  1  0
 19 18  1  0
 20 19  1  0
 21 20  1  0
 21 17  1  0
 22 20  1  0
 23 22  2  0
 24 22  1  0
 25 24  1  0
 26 24  1  0
  1 27  1  1
  5 28  1  1
  6 29  1  1
  7 30  1  0
  7 31  1  0
  7 32  1  0
 13 33  1  0
 13 34  1  0
 13 35  1  0
 14 36  1  6
 15 37  1  0
 17 38  1  6
 18 39  1  0
 18 40  1  0
 19 41  1  0
 19 42  1  0
 20 43  1  6
 21 44  1  0
 21 45  1  0
 25 46  1  0
 25 47  1  0
 25 48  1  0
 26 49  1  0
 26 50  1  0
 26 51  1  0
M  CHG  2  12  -1  19   1
M  END
>  <score>  (8) 
-6.232

$$$$
=
     RDKit          3D

 51 53  0  0  0  0  0  0  0  0999 V2000
    0.3810   55.2630   75.4410 C   0  0  1  0  0  0  0  0  0  0  0  0
    1.5200   55.5380   76.4240 C   0  0  0  0  0  0  0  0  0  0  0  0
    1.6040   55.5230   77.6310 O   0  0  0  0  0  0  0  0  0  0  0  0
    2.3760   55.8840   75.4120 N   0  0  0  0  0  0  0  0  0  0  0  0
    1.3440   55.8240   74.3460 C   0  0  2  0  0  0  0  0  0  0  0  0
    1.3250   57.2320   73.7250 C   0  0  1  0  0  0  0  0  0  0  0  0
   -0.0380   57.8980   73.8690 C   0  0  0  0  0  0  0  0  0  0  0  0
    2.4570   57.9290   74.4520 C   0  0  0  0  0  0  0  0  0  0  0  0
    2.9790   57.1350   75.4060 C   0  0  0  0  0  0  0  0  0  0  0  0
    4.1320   57.4610   76.4110 C   0  0  0  0  0  0  0  0  0  0  0  0
    3.8050   58.1970   77.3830 O   0  0  0  0  0  0  0  0  0  0  0  0
    5.1710   56.7340   76.3150 O   0  0  0  0  0  1  0  0  0  0  0  0
    0.2150   53.1460   74.0060 C   0  0  0  0  0  0  0  0  0  0  0  0
   -0.0920   53.8180   75.3360 C   0  0  1  0  0  0  0  0  0  0  0  0
    0.5080   53.0540   76.3850 O   0  0  0  0  0  0  0  0  0  0  0  0
    2.8350   59.5720   74.1050 S   0  0  0  0  0  0  0  0  0  0  0  0
    3.6970   59.5390   72.4900 C   0  0  2  0  0  0  0  0  0  0  0  0
    4.8940   60.4630   72.2970 C   0  0  0  0  0  0  0  0  0  0  0  0
    4.2640   61.8040   72.2490 N   0  0  0  0  0  4  0  0  0  0  0  0
    2.9870   61.6650   71.4660 C   0  0  1  0  0  0  0  0  0  0  0  0
    2.7190   60.1440   71.4680 C   0  0  0  0  0  0  0  0  0  0  0  0
    1.8450   62.5450   72.0030 C   0  0  0  0  0  0  0  0  0  0  0  0
    1.2660   62.2210   73.0420 O   0  0  0  0  0  0  0  0  0  0  0  0
    1.5250   63.7180   71.3270 N   0  0  0  0  0  0  0  0  0  0  0  0
    2.3990   64.4140   70.3930 C   0  0  0  0  0  0  0  0  0  0  0  0
    0.3750   64.4780   71.7950 C   0  0  0  0  0  0  0  0  0  0  0  0
   -0.6375   55.6597   75.5641 H   0  0  0  0  0  0  0  0  0  0  0  0
    1.2822   55.2678   73.3990 H   0  0  0  0  0  0  0  0  0  0  0  0
    1.4754   57.2519   72.6355 H   0  0  0  0  0  0  0  0  0  0  0  0
   -0.2779   58.0152   74.9361 H   0  0  0  0  0  0  0  0  0  0  0  0
   -0.0157   58.8867   73.3874 H   0  0  0  0  0  0  0  0  0  0  0  0
   -0.8043   57.2728   73.3874 H   0  0  0  0  0  0  0  0  0  0  0  0
    0.6657   52.1594   74.1891 H   0  0  0  0  0  0  0  0  0  0  0  0
   -0.7163   53.0231   73.4337 H   0  0  0  0  0  0  0  0  0  0  0  0
    0.9176   53.7696   73.4337 H   0  0  0  0  0  0  0  0  0  0  0  0
   -1.1883   53.8509   75.4202 H   0  0  0  0  0  0  0  0  0  0  0  0
    0.2235   53.4163   77.2613 H   0  0  0  0  0  0  0  0  0  0  0  0
    4.0270   58.4939   72.3963 H   0  0  0  0  0  0  0  0  0  0  0  0
    5.5962   60.3843   73.1400 H   0  0  0  0  0  0  0  0  0  0  0  0
    5.4886   60.2270   71.4021 H   0  0  0  0  0  0  0  0  0  0  0  0
    4.0592   62.1325   73.2035 H   0  0  0  0  0  0  0  0  0  0  0  0
    4.8930   62.4889   71.8060 H   0  0  0  0  0  0  0  0  0  0  0  0
    3.0662   62.0439   70.4363 H   0  0  0  0  0  0  0  0  0  0  0  0
    1.6802   59.9399   71.7668 H   0  0  0  0  0  0  0  0  0  0  0  0
    2.8636   59.7095   70.4679 H   0  0  0  0  0  0  0  0  0  0  0  0
    3.1394   65.0036   70.9535 H   0  0  0  0  0  0  0  0  0  0  0  0
    2.9184   63.6795   69.7600 H   0  0  0  0  0  0  0  0  0  0  0  0
    1.7994   65.0847   69.7600 H   0  0  0  0  0  0  0  0  0  0  0  0
    0.3635   64.4856   72.8949 H   0  0  0  0  0  0  0  0  0  0  0  0
    0.4414   65.5106   71.4219 H   0  0  0  0  0  0  0  0  0  0  0  0
   -0.5489   64.0120   71.4219 H   0  0  0  0  0  0  0  0  0  0  0  0
  2  1  1  0
  3  2  2  0
  4  2  1  0
  5  1  1  0
  5  4  1  0
  6  5  1  0
  7  6  1  0
  8  6  1  0
  9  8  2  0
  9  4  1  0
 10  9  1  0
 11 10  2  0
 12 10  1  0
 14  1  1  0
 14 13  1  0
 15 14  1  0
 16  8  1  0
 17 16  1  0
 18 17  1  0
 19 18  1  0
 20 19  1  0
 21 20  1  0
 21 17  1  0
 22 20  1  0
 23 22  2  0
 24 22  1  0
 25 24  1  0
 26 24  1  0
  1 27  1  1
  5 28  1  6
  6 29  1  6
  7 30  1  0
  7 31  1  0
  7 32  1  0
 13 33  1  0
 13 34  1  0
 13 35  1  0
 14 36  1  1
 15 37  1  0
 17 38  1  6
 18 39  1  0
 18 40  1  0
 19 41  1  0
 19 42  1  0
 20 43  1  6
 21 44  1  0
 21 45  1  0
 25 46  1  0
 25 47  1  0
 25 48  1  0
 26 49  1  0
 26 50  1  0
 26 51  1  0
M  CHG  2  12  -1  19   1
M  END
>  <score>  (9) 
-6.159

$$$$
