=
     RDKit          3D

 47 52  0  0  0  0  0  0  0  0999 V2000
    1.8880   57.2100   72.1480 O   0  0  0  0  0  0  0  0  0  0  0  0
    1.8210   57.9220   73.1510 C   0  0  0  0  0  0  0  0  0  0  0  0
    1.7750   57.4680   74.4940 N   0  0  0  0  0  0  0  0  0  0  0  0
    1.5340   56.0700   74.7790 C   0  0  0  0  0  0  0  0  0  0  0  0
    2.0500   55.0650   73.9400 C   0  0  0  0  0  0  0  0  0  0  0  0
    1.8280   53.7080   74.1950 C   0  0  0  0  0  0  0  0  0  0  0  0
    1.0820   53.3210   75.2990 C   0  0  0  0  0  0  0  0  0  0  0  0
    0.5600   54.2940   76.1470 C   0  0  0  0  0  0  0  0  0  0  0  0
    0.7860   55.6570   75.8970 C   0  0  0  0  0  0  0  0  0  0  0  0
    0.0160   56.8220   76.9980 S   0  0  0  0  0  0  0  0  0  0  0  0
    1.1800   58.1480   76.8200 C   0  0  0  0  0  0  0  0  0  0  0  0
    1.9170   58.3360   75.6390 C   0  0  0  0  0  0  0  0  0  0  0  0
    2.8570   59.3820   75.6210 C   0  0  0  0  0  0  0  0  0  0  0  0
    3.0070   60.2550   76.7030 C   0  0  0  0  0  0  0  0  0  0  0  0
    2.2310   60.0870   77.8410 C   0  0  0  0  0  0  0  0  0  0  0  0
    1.3260   59.0310   77.9030 C   0  0  0  0  0  0  0  0  0  0  0  0
    1.6350   59.3740   72.8630 C   0  0  0  0  0  0  0  0  0  0  0  0
    2.7320   60.1260   72.3460 C   0  0  0  0  0  0  0  0  0  0  0  0
    4.0400   59.6170   72.1400 C   0  0  0  0  0  0  0  0  0  0  0  0
    5.0620   60.4030   71.6060 C   0  0  0  0  0  0  0  0  0  0  0  0
    4.8130   61.7270   71.2740 C   0  0  0  0  0  0  0  0  0  0  0  0
    3.5450   62.2630   71.4890 C   0  0  0  0  0  0  0  0  0  0  0  0
    2.5080   61.4830   72.0280 C   0  0  0  0  0  0  0  0  0  0  0  0
    1.2480   62.0550   72.2600 C   0  0  0  0  0  0  0  0  0  0  0  0
    0.1900   61.3280   72.8230 C   0  0  0  0  0  0  0  0  0  0  0  0
    0.3690   59.9670   73.1500 C   0  0  0  0  0  0  0  0  0  0  0  0
   -0.7330   59.2820   73.7230 C   0  0  0  0  0  0  0  0  0  0  0  0
   -1.9560   59.9150   73.9550 C   0  0  0  0  0  0  0  0  0  0  0  0
   -2.1140   61.2510   73.6190 C   0  0  0  0  0  0  0  0  0  0  0  0
   -1.0480   61.9520   73.0590 C   0  0  0  0  0  0  0  0  0  0  0  0
    2.6437   55.3544   73.0603 H   0  0  0  0  0  0  0  0  0  0  0  0
    2.2453   52.9466   73.5196 H   0  0  0  0  0  0  0  0  0  0  0  0
    0.9045   52.2547   75.5025 H   0  0  0  0  0  0  0  0  0  0  0  0
   -0.0353   53.9920   77.0213 H   0  0  0  0  0  0  0  0  0  0  0  0
    3.4910   59.5169   74.7323 H   0  0  0  0  0  0  0  0  0  0  0  0
    3.7394   61.0741   76.6521 H   0  0  0  0  0  0  0  0  0  0  0  0
    2.3301   60.7826   78.6873 H   0  0  0  0  0  0  0  0  0  0  0  0
    0.7191   58.8865   78.8090 H   0  0  0  0  0  0  0  0  0  0  0  0
    4.2549   58.5723   72.4090 H   0  0  0  0  0  0  0  0  0  0  0  0
    6.0626   59.9739   71.4487 H   0  0  0  0  0  0  0  0  0  0  0  0
    5.6115   62.3494   70.8439 H   0  0  0  0  0  0  0  0  0  0  0  0
    3.3524   63.3151   71.2323 H   0  0  0  0  0  0  0  0  0  0  0  0
    1.0850   63.1091   71.9911 H   0  0  0  0  0  0  0  0  0  0  0  0
   -0.6210   58.2214   73.9924 H   0  0  0  0  0  0  0  0  0  0  0  0
   -2.7909   59.3559   74.4026 H   0  0  0  0  0  0  0  0  0  0  0  0
   -3.0761   61.7549   73.7937 H   0  0  0  0  0  0  0  0  0  0  0  0
   -1.1771   63.0125   72.7968 H   0  0  0  0  0  0  0  0  0  0  0  0
  2  1  2  0
  3  2  1  0
  4  3  1  0
  5  4  2  0
  6  5  1  0
  7  6  2  0
  8  7  1  0
  9  8  2  0
  9  4  1  0
 10  9  1  0
 11 10  1  0
 12  3  1  0
 12 11  2  0
 13 12  1  0
 14 13  2  0
 15 14  1  0
 16 11  1  0
 16 15  2  0
 17  2  1  0
 18 17  1  0
 19 18  2  0
 20 19  1  0
 21 20  2  0
 22 21  1  0
 23 22  2  0
 23 18  1  0
 24 23  1  0
 25 24  2  0
 26 17  2  0
 26 25  1  0
 27 26  1  0
 28 27  2  0
 29 28  1  0
 30 29  2  0
 30 25  1  0
  5 31  1  0
  6 32  1  0
  7 33  1  0
  8 34  1  0
 13 35  1  0
 14 36  1  0
 15 37  1  0
 16 38  1  0
 19 39  1  0
 20 40  1  0
 21 41  1  0
 22 42  1  0
 24 43  1  0
 27 44  1  0
 28 45  1  0
 29 46  1  0
 30 47  1  0
M  END
>  <score>  (1) 
-9.701

$$$$
=
     RDKit          3D

 47 52  0  0  0  0  0  0  0  0999 V2000
    0.9990   56.4040   72.9270 O   0  0  0  0  0  0  0  0  0  0  0  0
    1.1320   57.2630   73.8010 C   0  0  0  0  0  0  0  0  0  0  0  0
    1.3880   57.0200   75.1750 N   0  0  0  0  0  0  0  0  0  0  0  0
    1.2500   55.6840   75.7130 C   0  0  0  0  0  0  0  0  0  0  0  0
    1.5970   54.5580   74.9440 C   0  0  0  0  0  0  0  0  0  0  0  0
    1.4700   53.2580   75.4430 C   0  0  0  0  0  0  0  0  0  0  0  0
    0.9890   53.0500   76.7290 C   0  0  0  0  0  0  0  0  0  0  0  0
    0.6380   54.1460   77.5120 C   0  0  0  0  0  0  0  0  0  0  0  0
    0.7710   55.4530   77.0160 C   0  0  0  0  0  0  0  0  0  0  0  0
    0.2260   56.7790   78.0680 S   0  0  0  0  0  0  0  0  0  0  0  0
    1.2910   58.0520   77.4440 C   0  0  0  0  0  0  0  0  0  0  0  0
    1.7520   58.0520   76.1170 C   0  0  0  0  0  0  0  0  0  0  0  0
    2.6390   59.0740   75.7380 C   0  0  0  0  0  0  0  0  0  0  0  0
    2.9970   60.1010   76.6170 C   0  0  0  0  0  0  0  0  0  0  0  0
    2.4890   60.1160   77.9080 C   0  0  0  0  0  0  0  0  0  0  0  0
    1.6450   59.0900   78.3240 C   0  0  0  0  0  0  0  0  0  0  0  0
    0.8520   58.6540   73.3440 C   0  0  0  0  0  0  0  0  0  0  0  0
   -0.3940   59.2610   73.6860 C   0  0  0  0  0  0  0  0  0  0  0  0
   -1.4470   58.6150   74.3830 C   0  0  0  0  0  0  0  0  0  0  0  0
   -2.6320   59.2760   74.7080 C   0  0  0  0  0  0  0  0  0  0  0  0
   -2.8070   60.6010   74.3340 C   0  0  0  0  0  0  0  0  0  0  0  0
   -1.8020   61.2550   73.6250 C   0  0  0  0  0  0  0  0  0  0  0  0
   -0.6050   60.5990   73.2900 C   0  0  0  0  0  0  0  0  0  0  0  0
    0.3800   61.2720   72.5510 C   0  0  0  0  0  0  0  0  0  0  0  0
    1.5780   60.6530   72.1660 C   0  0  0  0  0  0  0  0  0  0  0  0
    1.8320   59.3190   72.5470 C   0  0  0  0  0  0  0  0  0  0  0  0
    3.0570   58.7400   72.1240 C   0  0  0  0  0  0  0  0  0  0  0  0
    3.9870   59.4540   71.3670 C   0  0  0  0  0  0  0  0  0  0  0  0
    3.7210   60.7680   71.0100 C   0  0  0  0  0  0  0  0  0  0  0  0
    2.5250   61.3620   71.4060 C   0  0  0  0  0  0  0  0  0  0  0  0
    1.9785   54.7043   73.9227 H   0  0  0  0  0  0  0  0  0  0  0  0
    1.7514   52.3990   74.8161 H   0  0  0  0  0  0  0  0  0  0  0  0
    0.8864   52.0289   77.1251 H   0  0  0  0  0  0  0  0  0  0  0  0
    0.2525   53.9867   78.5298 H   0  0  0  0  0  0  0  0  0  0  0  0
    3.0629   59.0659   74.7230 H   0  0  0  0  0  0  0  0  0  0  0  0
    3.6807   60.8962   76.2852 H   0  0  0  0  0  0  0  0  0  0  0  0
    2.7511   60.9321   78.5974 H   0  0  0  0  0  0  0  0  0  0  0  0
    1.2512   59.0913   79.3511 H   0  0  0  0  0  0  0  0  0  0  0  0
   -1.3258   57.5617   74.6760 H   0  0  0  0  0  0  0  0  0  0  0  0
   -3.4248   58.7487   75.2588 H   0  0  0  0  0  0  0  0  0  0  0  0
   -3.7342   61.1318   74.5960 H   0  0  0  0  0  0  0  0  0  0  0  0
   -1.9477   62.3024   73.3222 H   0  0  0  0  0  0  0  0  0  0  0  0
    0.2067   62.3197   72.2642 H   0  0  0  0  0  0  0  0  0  0  0  0
    3.2796   57.6989   72.4007 H   0  0  0  0  0  0  0  0  0  0  0  0
    4.9275   58.9767   71.0545 H   0  0  0  0  0  0  0  0  0  0  0  0
    4.4513   61.3381   70.4169 H   0  0  0  0  0  0  0  0  0  0  0  0
    2.3178   62.4036   71.1193 H   0  0  0  0  0  0  0  0  0  0  0  0
  2  1  2  0
  3  2  1  0
  4  3  1  0
  5  4  2  0
  6  5  1  0
  7  6  2  0
  8  7  1  0
  9  8  2  0
  9  4  1  0
 10  9  1  0
 11 10  1  0
 12  3  1  0
 12 11  2  0
 13 12  1  0
 14 13  2  0
 15 14  1  0
 16 11  1  0
 16 15  2  0
 17  2  1  0
 18 17  1  0
 19 18  2  0
 20 19  1  0
 21 20  2  0
 22 21  1  0
 23 22  2  0
 23 18  1  0
 24 23  1  0
 25 24  2  0
 26 17  2  0
 26 25  1  0
 27 26  1  0
 28 27  2  0
 29 28  1  0
 30 29  2  0
 30 25  1  0
  5 31  1  0
  6 32  1  0
  7 33  1  0
  8 34  1  0
 13 35  1  0
 14 36  1  0
 15 37  1  0
 16 38  1  0
 19 39  1  0
 20 40  1  0
 21 41  1  0
 22 42  1  0
 24 43  1  0
 27 44  1  0
 28 45  1  0
 29 46  1  0
 30 47  1  0
M  END
>  <score>  (2) 
-9.263

$$$$
=
     RDKit          3D

 47 52  0  0  0  0  0  0  0  0999 V2000
   -2.3230   60.8600   73.2270 O   0  0  0  0  0  0  0  0  0  0  0  0
   -1.3280   60.9620   73.9470 C   0  0  0  0  0  0  0  0  0  0  0  0
   -1.3000   61.5070   75.2570 N   0  0  0  0  0  0  0  0  0  0  0  0
   -2.4380   62.2470   75.7580 C   0  0  0  0  0  0  0  0  0  0  0  0
   -3.7490   61.8740   75.4120 C   0  0  0  0  0  0  0  0  0  0  0  0
   -4.8630   62.5750   75.8840 C   0  0  0  0  0  0  0  0  0  0  0  0
   -4.6930   63.6730   76.7170 C   0  0  0  0  0  0  0  0  0  0  0  0
   -3.4070   64.0640   77.0770 C   0  0  0  0  0  0  0  0  0  0  0  0
   -2.2860   63.3580   76.6090 C   0  0  0  0  0  0  0  0  0  0  0  0
   -0.6850   63.9820   77.0670 S   0  0  0  0  0  0  0  0  0  0  0  0
    0.2120   62.4540   77.0020 C   0  0  0  0  0  0  0  0  0  0  0  0
   -0.1640   61.4080   76.1430 C   0  0  0  0  0  0  0  0  0  0  0  0
    0.5780   60.2150   76.2090 C   0  0  0  0  0  0  0  0  0  0  0  0
    1.6960   60.0900   77.0400 C   0  0  0  0  0  0  0  0  0  0  0  0
    2.0850   61.1530   77.8410 C   0  0  0  0  0  0  0  0  0  0  0  0
    1.3410   62.3300   77.8290 C   0  0  0  0  0  0  0  0  0  0  0  0
   -0.0460   60.5930   73.2820 C   0  0  0  0  0  0  0  0  0  0  0  0
    0.7120   61.6060   72.6210 C   0  0  0  0  0  0  0  0  0  0  0  0
    0.3090   62.9590   72.4800 C   0  0  0  0  0  0  0  0  0  0  0  0
    1.1120   63.9060   71.8430 C   0  0  0  0  0  0  0  0  0  0  0  0
    2.3380   63.5270   71.3150 C   0  0  0  0  0  0  0  0  0  0  0  0
    2.7510   62.2000   71.4150 C   0  0  0  0  0  0  0  0  0  0  0  0
    1.9490   61.2370   72.0520 C   0  0  0  0  0  0  0  0  0  0  0  0
    2.3760   59.9010   72.1150 C   0  0  0  0  0  0  0  0  0  0  0  0
    1.6010   58.8970   72.7130 C   0  0  0  0  0  0  0  0  0  0  0  0
    0.3600   59.2250   73.2990 C   0  0  0  0  0  0  0  0  0  0  0  0
   -0.3860   58.1680   73.8840 C   0  0  0  0  0  0  0  0  0  0  0  0
    0.0810   56.8530   73.8920 C   0  0  0  0  0  0  0  0  0  0  0  0
    1.3070   56.5530   73.3160 C   0  0  0  0  0  0  0  0  0  0  0  0
    2.0600   57.5680   72.7300 C   0  0  0  0  0  0  0  0  0  0  0  0
   -3.9023   61.0073   74.7522 H   0  0  0  0  0  0  0  0  0  0  0  0
   -5.8754   62.2563   75.5951 H   0  0  0  0  0  0  0  0  0  0  0  0
   -5.5667   64.2284   77.0887 H   0  0  0  0  0  0  0  0  0  0  0  0
   -3.2666   64.9346   77.7346 H   0  0  0  0  0  0  0  0  0  0  0  0
    0.2711   59.3582   75.5911 H   0  0  0  0  0  0  0  0  0  0  0  0
    2.2661   59.1495   77.0582 H   0  0  0  0  0  0  0  0  0  0  0  0
    2.9752   61.0670   78.4815 H   0  0  0  0  0  0  0  0  0  0  0  0
    1.6399   63.1703   78.4728 H   0  0  0  0  0  0  0  0  0  0  0  0
   -0.6652   63.2707   72.8847 H   0  0  0  0  0  0  0  0  0  0  0  0
    0.7742   64.9495   71.7597 H   0  0  0  0  0  0  0  0  0  0  0  0
    2.9804   64.2702   70.8201 H   0  0  0  0  0  0  0  0  0  0  0  0
    3.7200   61.9011   70.9887 H   0  0  0  0  0  0  0  0  0  0  0  0
    3.3506   59.6331   71.6810 H   0  0  0  0  0  0  0  0  0  0  0  0
   -1.3598   58.3920   74.3440 H   0  0  0  0  0  0  0  0  0  0  0  0
   -0.5212   56.0566   74.3537 H   0  0  0  0  0  0  0  0  0  0  0  0
    1.6825   55.5191   73.3220 H   0  0  0  0  0  0  0  0  0  0  0  0
    3.0306   57.3256   72.2726 H   0  0  0  0  0  0  0  0  0  0  0  0
  2  1  2  0
  3  2  1  0
  4  3  1  0
  5  4  2  0
  6  5  1  0
  7  6  2  0
  8  7  1  0
  9  8  2  0
  9  4  1  0
 10  9  1  0
 11 10  1  0
 12  3  1  0
 12 11  2  0
 13 12  1  0
 14 13  2  0
 15 14  1  0
 16 11  1  0
 16 15  2  0
 17  2  1  0
 18 17  1  0
 19 18  2  0
 20 19  1  0
 21 20  2  0
 22 21  1  0
 23 22  2  0
 23 18  1  0
 24 23  1  0
 25 24  2  0
 26 17  2  0
 26 25  1  0
 27 26  1  0
 28 27  2  0
 29 28  1  0
 30 29  2  0
 30 25  1  0
  5 31  1  0
  6 32  1  0
  7 33  1  0
  8 34  1  0
 13 35  1  0
 14 36  1  0
 15 37  1  0
 16 38  1  0
 19 39  1  0
 20 40  1  0
 21 41  1  0
 22 42  1  0
 24 43  1  0
 27 44  1  0
 28 45  1  0
 29 46  1  0
 30 47  1  0
M  END
>  <score>  (3) 
-8.651

$$$$
=
     RDKit          3D

 47 52  0  0  0  0  0  0  0  0999 V2000
   -2.3740   60.7960   73.2290 O   0  0  0  0  0  0  0  0  0  0  0  0
   -1.3730   60.9270   73.9360 C   0  0  0  0  0  0  0  0  0  0  0  0
   -1.3410   61.4950   75.2360 N   0  0  0  0  0  0  0  0  0  0  0  0
   -2.4850   62.2230   75.7380 C   0  0  0  0  0  0  0  0  0  0  0  0
   -3.7940   61.8220   75.4120 C   0  0  0  0  0  0  0  0  0  0  0  0
   -4.9150   62.5110   75.8840 C   0  0  0  0  0  0  0  0  0  0  0  0
   -4.7550   63.6260   76.6970 C   0  0  0  0  0  0  0  0  0  0  0  0
   -3.4720   64.0450   77.0360 C   0  0  0  0  0  0  0  0  0  0  0  0
   -2.3440   63.3510   76.5680 C   0  0  0  0  0  0  0  0  0  0  0  0
   -0.7490   64.0100   76.9980 S   0  0  0  0  0  0  0  0  0  0  0  0
    0.1730   62.4970   76.9480 C   0  0  0  0  0  0  0  0  0  0  0  0
   -0.1940   61.4300   76.1110 C   0  0  0  0  0  0  0  0  0  0  0  0
    0.5700   60.2520   76.1890 C   0  0  0  0  0  0  0  0  0  0  0  0
    1.6990   60.1600   77.0090 C   0  0  0  0  0  0  0  0  0  0  0  0
    2.0790   61.2430   77.7880 C   0  0  0  0  0  0  0  0  0  0  0  0
    1.3130   62.4060   77.7650 C   0  0  0  0  0  0  0  0  0  0  0  0
   -0.0920   60.5690   73.2620 C   0  0  0  0  0  0  0  0  0  0  0  0
    0.3610   59.2160   73.3050 C   0  0  0  0  0  0  0  0  0  0  0  0
   -0.2830   58.1660   74.0090 C   0  0  0  0  0  0  0  0  0  0  0  0
    0.2010   56.8570   73.9870 C   0  0  0  0  0  0  0  0  0  0  0  0
    1.3530   56.5600   73.2720 C   0  0  0  0  0  0  0  0  0  0  0  0
    2.0230   57.5740   72.5920 C   0  0  0  0  0  0  0  0  0  0  0  0
    1.5460   58.8970   72.6080 C   0  0  0  0  0  0  0  0  0  0  0  0
    2.2550   59.9050   71.9370 C   0  0  0  0  0  0  0  0  0  0  0  0
    1.8380   61.2440   71.9480 C   0  0  0  0  0  0  0  0  0  0  0  0
    0.6560   61.6050   72.6270 C   0  0  0  0  0  0  0  0  0  0  0  0
    0.2850   62.9750   72.6100 C   0  0  0  0  0  0  0  0  0  0  0  0
    1.0470   63.9370   71.9460 C   0  0  0  0  0  0  0  0  0  0  0  0
    2.2030   63.5600   71.2780 C   0  0  0  0  0  0  0  0  0  0  0  0
    2.5950   62.2230   71.2810 C   0  0  0  0  0  0  0  0  0  0  0  0
   -3.9390   60.9421   74.7680 H   0  0  0  0  0  0  0  0  0  0  0  0
   -5.9247   62.1700   75.6114 H   0  0  0  0  0  0  0  0  0  0  0  0
   -5.6341   64.1725   77.0693 H   0  0  0  0  0  0  0  0  0  0  0  0
   -3.3398   64.9290   77.6772 H   0  0  0  0  0  0  0  0  0  0  0  0
    0.2716   59.3797   75.5890 H   0  0  0  0  0  0  0  0  0  0  0  0
    2.2852   59.2296   77.0363 H   0  0  0  0  0  0  0  0  0  0  0  0
    2.9782   61.1838   78.4189 H   0  0  0  0  0  0  0  0  0  0  0  0
    1.6031   63.2617   78.3924 H   0  0  0  0  0  0  0  0  0  0  0  0
   -1.1903   58.3901   74.5892 H   0  0  0  0  0  0  0  0  0  0  0  0
   -0.3287   56.0635   74.5344 H   0  0  0  0  0  0  0  0  0  0  0  0
    1.7349   55.5288   73.2426 H   0  0  0  0  0  0  0  0  0  0  0  0
    2.9402   57.3363   72.0333 H   0  0  0  0  0  0  0  0  0  0  0  0
    3.1674   59.6363   71.3845 H   0  0  0  0  0  0  0  0  0  0  0  0
   -0.6296   63.2873   73.1354 H   0  0  0  0  0  0  0  0  0  0  0  0
    0.7321   64.9910   71.9522 H   0  0  0  0  0  0  0  0  0  0  0  0
    2.8066   64.3123   70.7491 H   0  0  0  0  0  0  0  0  0  0  0  0
    3.5133   61.9282   70.7520 H   0  0  0  0  0  0  0  0  0  0  0  0
  2  1  2  0
  3  2  1  0
  4  3  1  0
  5  4  2  0
  6  5  1  0
  7  6  2  0
  8  7  1  0
  9  8  2  0
  9  4  1  0
 10  9  1  0
 11 10  1  0
 12  3  1  0
 12 11  2  0
 13 12  1  0
 14 13  2  0
 15 14  1  0
 16 11  1  0
 16 15  2  0
 17  2  1  0
 18 17  1  0
 19 18  2  0
 20 19  1  0
 21 20  2  0
 22 21  1  0
 23 22  2  0
 23 18  1  0
 24 23  1  0
 25 24  2  0
 26 17  2  0
 26 25  1  0
 27 26  1  0
 28 27  2  0
 29 28  1  0
 30 29  2  0
 30 25  1  0
  5 31  1  0
  6 32  1  0
  7 33  1  0
  8 34  1  0
 13 35  1  0
 14 36  1  0
 15 37  1  0
 16 38  1  0
 19 39  1  0
 20 40  1  0
 21 41  1  0
 22 42  1  0
 24 43  1  0
 27 44  1  0
 28 45  1  0
 29 46  1  0
 30 47  1  0
M  END
>  <score>  (4) 
-8.389

$$$$
=
     RDKit          3D

 47 52  0  0  0  0  0  0  0  0999 V2000
   -0.5040   61.1050   72.4840 O   0  0  0  0  0  0  0  0  0  0  0  0
   -0.0480   60.5650   73.4930 C   0  0  0  0  0  0  0  0  0  0  0  0
    1.2870   60.6690   73.9620 N   0  0  0  0  0  0  0  0  0  0  0  0
    2.3130   61.2300   73.1100 C   0  0  0  0  0  0  0  0  0  0  0  0
    2.0200   62.2890   72.2320 C   0  0  0  0  0  0  0  0  0  0  0  0
    2.9950   62.8470   71.3990 C   0  0  0  0  0  0  0  0  0  0  0  0
    4.2930   62.3560   71.4230 C   0  0  0  0  0  0  0  0  0  0  0  0
    4.6120   61.3090   72.2830 C   0  0  0  0  0  0  0  0  0  0  0  0
    3.6360   60.7510   73.1250 C   0  0  0  0  0  0  0  0  0  0  0  0
    4.1270   59.3700   74.1320 S   0  0  0  0  0  0  0  0  0  0  0  0
    2.9740   59.6010   75.4590 C   0  0  0  0  0  0  0  0  0  0  0  0
    1.7200   60.2020   75.2580 C   0  0  0  0  0  0  0  0  0  0  0  0
    0.9030   60.3920   76.3870 C   0  0  0  0  0  0  0  0  0  0  0  0
    1.2810   59.9340   77.6530 C   0  0  0  0  0  0  0  0  0  0  0  0
    2.4990   59.2930   77.8230 C   0  0  0  0  0  0  0  0  0  0  0  0
    3.3480   59.1340   76.7310 C   0  0  0  0  0  0  0  0  0  0  0  0
   -0.9880   59.6230   74.1650 C   0  0  0  0  0  0  0  0  0  0  0  0
   -0.7280   58.2200   74.1050 C   0  0  0  0  0  0  0  0  0  0  0  0
    0.3390   57.6230   73.3850 C   0  0  0  0  0  0  0  0  0  0  0  0
    0.5510   56.2430   73.3900 C   0  0  0  0  0  0  0  0  0  0  0  0
   -0.3040   55.4170   74.1040 C   0  0  0  0  0  0  0  0  0  0  0  0
   -1.3770   55.9710   74.8000 C   0  0  0  0  0  0  0  0  0  0  0  0
   -1.6020   57.3580   74.8000 C   0  0  0  0  0  0  0  0  0  0  0  0
   -2.7050   57.8890   75.4870 C   0  0  0  0  0  0  0  0  0  0  0  0
   -2.9910   59.2610   75.4940 C   0  0  0  0  0  0  0  0  0  0  0  0
   -2.1390   60.1590   74.8170 C   0  0  0  0  0  0  0  0  0  0  0  0
   -2.4790   61.5360   74.8520 C   0  0  0  0  0  0  0  0  0  0  0  0
   -3.6070   62.0000   75.5310 C   0  0  0  0  0  0  0  0  0  0  0  0
   -4.4280   61.1010   76.1970 C   0  0  0  0  0  0  0  0  0  0  0  0
   -4.1220   59.7420   76.1770 C   0  0  0  0  0  0  0  0  0  0  0  0
    0.9959   62.6893   72.1996 H   0  0  0  0  0  0  0  0  0  0  0  0
    2.7330   63.6755   70.7244 H   0  0  0  0  0  0  0  0  0  0  0  0
    5.0628   62.7904   70.7682 H   0  0  0  0  0  0  0  0  0  0  0  0
    5.6387   60.9147   72.3034 H   0  0  0  0  0  0  0  0  0  0  0  0
   -0.0581   60.9143   76.2711 H   0  0  0  0  0  0  0  0  0  0  0  0
    0.6124   60.0821   78.5138 H   0  0  0  0  0  0  0  0  0  0  0  0
    2.7921   58.9132   78.8129 H   0  0  0  0  0  0  0  0  0  0  0  0
    4.3207   58.6382   76.8649 H   0  0  0  0  0  0  0  0  0  0  0  0
    1.0186   58.2658   72.8063 H   0  0  0  0  0  0  0  0  0  0  0  0
    1.3937   55.8123   72.8293 H   0  0  0  0  0  0  0  0  0  0  0  0
   -0.1362   54.3300   74.1210 H   0  0  0  0  0  0  0  0  0  0  0  0
   -2.0584   55.3120   75.3581 H   0  0  0  0  0  0  0  0  0  0  0  0
   -3.3671   57.2052   76.0384 H   0  0  0  0  0  0  0  0  0  0  0  0
   -1.8353   62.2587   74.3291 H   0  0  0  0  0  0  0  0  0  0  0  0
   -3.8442   63.0741   75.5381 H   0  0  0  0  0  0  0  0  0  0  0  0
   -5.3160   61.4597   76.7381 H   0  0  0  0  0  0  0  0  0  0  0  0
   -4.7767   59.0329   76.7048 H   0  0  0  0  0  0  0  0  0  0  0  0
  2  1  2  0
  3  2  1  0
  4  3  1  0
  5  4  2  0
  6  5  1  0
  7  6  2  0
  8  7  1  0
  9  8  2  0
  9  4  1  0
 10  9  1  0
 11 10  1  0
 12  3  1  0
 12 11  2  0
 13 12  1  0
 14 13  2  0
 15 14  1  0
 16 11  1  0
 16 15  2  0
 17  2  1  0
 18 17  1  0
 19 18  2  0
 20 19  1  0
 21 20  2  0
 22 21  1  0
 23 22  2  0
 23 18  1  0
 24 23  1  0
 25 24  2  0
 26 17  2  0
 26 25  1  0
 27 26  1  0
 28 27  2  0
 29 28  1  0
 30 29  2  0
 30 25  1  0
  5 31  1  0
  6 32  1  0
  7 33  1  0
  8 34  1  0
 13 35  1  0
 14 36  1  0
 15 37  1  0
 16 38  1  0
 19 39  1  0
 20 40  1  0
 21 41  1  0
 22 42  1  0
 24 43  1  0
 27 44  1  0
 28 45  1  0
 29 46  1  0
 30 47  1  0
M  END
>  <score>  (5) 
-8.202

$$$$
=
     RDKit          3D

 47 52  0  0  0  0  0  0  0  0999 V2000
    3.5560   58.5010   73.2210 O   0  0  0  0  0  0  0  0  0  0  0  0
    2.4440   58.6710   73.7240 C   0  0  0  0  0  0  0  0  0  0  0  0
    1.4320   59.5380   73.2360 N   0  0  0  0  0  0  0  0  0  0  0  0
    1.7450   60.5150   72.2170 C   0  0  0  0  0  0  0  0  0  0  0  0
    2.6710   60.2230   71.1990 C   0  0  0  0  0  0  0  0  0  0  0  0
    2.9900   61.1520   70.2040 C   0  0  0  0  0  0  0  0  0  0  0  0
    2.3880   62.4030   70.2030 C   0  0  0  0  0  0  0  0  0  0  0  0
    1.4670   62.7190   71.1970 C   0  0  0  0  0  0  0  0  0  0  0  0
    1.1400   61.7860   72.1940 C   0  0  0  0  0  0  0  0  0  0  0  0
    0.0080   62.3130   73.4600 S   0  0  0  0  0  0  0  0  0  0  0  0
   -0.6670   60.7260   73.8740 C   0  0  0  0  0  0  0  0  0  0  0  0
    0.0750   59.5420   73.7290 C   0  0  0  0  0  0  0  0  0  0  0  0
   -0.5720   58.3300   74.0290 C   0  0  0  0  0  0  0  0  0  0  0  0
   -1.8790   58.2980   74.5270 C   0  0  0  0  0  0  0  0  0  0  0  0
   -2.5770   59.4820   74.7160 C   0  0  0  0  0  0  0  0  0  0  0  0
   -1.9770   60.6930   74.3830 C   0  0  0  0  0  0  0  0  0  0  0  0
    2.2510   57.9870   75.0350 C   0  0  0  0  0  0  0  0  0  0  0  0
    2.3360   58.7510   76.2380 C   0  0  0  0  0  0  0  0  0  0  0  0
    2.6650   60.1300   76.3020 C   0  0  0  0  0  0  0  0  0  0  0  0
    2.7060   60.8230   77.5120 C   0  0  0  0  0  0  0  0  0  0  0  0
    2.4330   60.1570   78.6980 C   0  0  0  0  0  0  0  0  0  0  0  0
    2.1320   58.7970   78.6710 C   0  0  0  0  0  0  0  0  0  0  0  0
    2.0910   58.0870   77.4580 C   0  0  0  0  0  0  0  0  0  0  0  0
    1.8120   56.7110   77.4610 C   0  0  0  0  0  0  0  0  0  0  0  0
    1.7880   55.9520   76.2830 C   0  0  0  0  0  0  0  0  0  0  0  0
    2.0220   56.5780   75.0400 C   0  0  0  0  0  0  0  0  0  0  0  0
    1.9920   55.7600   73.8800 C   0  0  0  0  0  0  0  0  0  0  0  0
    1.7360   54.3900   73.9510 C   0  0  0  0  0  0  0  0  0  0  0  0
    1.5010   53.7960   75.1820 C   0  0  0  0  0  0  0  0  0  0  0  0
    1.5290   54.5720   76.3390 C   0  0  0  0  0  0  0  0  0  0  0  0
    3.1575   59.2365   71.1854 H   0  0  0  0  0  0  0  0  0  0  0  0
    3.7182   60.8916   69.4217 H   0  0  0  0  0  0  0  0  0  0  0  0
    2.6369   63.1379   69.4233 H   0  0  0  0  0  0  0  0  0  0  0  0
    0.9901   63.7102   71.2018 H   0  0  0  0  0  0  0  0  0  0  0  0
   -0.0366   57.3827   73.8680 H   0  0  0  0  0  0  0  0  0  0  0  0
   -2.3527   57.3351   74.7685 H   0  0  0  0  0  0  0  0  0  0  0  0
   -3.5975   59.4639   75.1262 H   0  0  0  0  0  0  0  0  0  0  0  0
   -2.5327   61.6324   74.5193 H   0  0  0  0  0  0  0  0  0  0  0  0
    2.8944   60.6681   75.3704 H   0  0  0  0  0  0  0  0  0  0  0  0
    2.9541   61.8946   77.5257 H   0  0  0  0  0  0  0  0  0  0  0  0
    2.4541   60.6998   79.6545 H   0  0  0  0  0  0  0  0  0  0  0  0
    1.9231   58.2702   79.6138 H   0  0  0  0  0  0  0  0  0  0  0  0
    1.6055   56.2122   78.4194 H   0  0  0  0  0  0  0  0  0  0  0  0
    2.1758   56.2191   72.8974 H   0  0  0  0  0  0  0  0  0  0  0  0
    1.7207   53.7832   73.0336 H   0  0  0  0  0  0  0  0  0  0  0  0
    1.2935   52.7176   75.2447 H   0  0  0  0  0  0  0  0  0  0  0  0
    1.3451   54.0959   77.3134 H   0  0  0  0  0  0  0  0  0  0  0  0
  2  1  2  0
  3  2  1  0
  4  3  1  0
  5  4  2  0
  6  5  1  0
  7  6  2  0
  8  7  1  0
  9  8  2  0
  9  4  1  0
 10  9  1  0
 11 10  1  0
 12  3  1  0
 12 11  2  0
 13 12  1  0
 14 13  2  0
 15 14  1  0
 16 11  1  0
 16 15  2  0
 17  2  1  0
 18 17  1  0
 19 18  2  0
 20 19  1  0
 21 20  2  0
 22 21  1  0
 23 22  2  0
 23 18  1  0
 24 23  1  0
 25 24  2  0
 26 17  2  0
 26 25  1  0
 27 26  1  0
 28 27  2  0
 29 28  1  0
 30 29  2  0
 30 25  1  0
  5 31  1  0
  6 32  1  0
  7 33  1  0
  8 34  1  0
 13 35  1  0
 14 36  1  0
 15 37  1  0
 16 38  1  0
 19 39  1  0
 20 40  1  0
 21 41  1  0
 22 42  1  0
 24 43  1  0
 27 44  1  0
 28 45  1  0
 29 46  1  0
 30 47  1  0
M  END
>  <score>  (6) 
-8.163

$$$$
=
     RDKit          3D

 47 52  0  0  0  0  0  0  0  0999 V2000
   -2.3480   59.7010   74.0700 O   0  0  0  0  0  0  0  0  0  0  0  0
   -1.2600   59.6430   74.6470 C   0  0  0  0  0  0  0  0  0  0  0  0
   -0.8440   60.4650   75.7260 N   0  0  0  0  0  0  0  0  0  0  0  0
   -1.6020   61.6480   76.0700 C   0  0  0  0  0  0  0  0  0  0  0  0
   -3.0040   61.6640   75.9550 C   0  0  0  0  0  0  0  0  0  0  0  0
   -3.7570   62.7970   76.2810 C   0  0  0  0  0  0  0  0  0  0  0  0
   -3.1230   63.9470   76.7300 C   0  0  0  0  0  0  0  0  0  0  0  0
   -1.7370   63.9600   76.8550 C   0  0  0  0  0  0  0  0  0  0  0  0
   -0.9790   62.8210   76.5340 C   0  0  0  0  0  0  0  0  0  0  0  0
    0.7890   62.9640   76.6570 S   0  0  0  0  0  0  0  0  0  0  0  0
    1.1590   61.2600   76.9830 C   0  0  0  0  0  0  0  0  0  0  0  0
    0.3440   60.2190   76.5090 C   0  0  0  0  0  0  0  0  0  0  0  0
    0.6920   58.9060   76.8720 C   0  0  0  0  0  0  0  0  0  0  0  0
    1.8460   58.6290   77.6120 C   0  0  0  0  0  0  0  0  0  0  0  0
    2.6700   59.6660   78.0240 C   0  0  0  0  0  0  0  0  0  0  0  0
    2.3230   60.9790   77.7190 C   0  0  0  0  0  0  0  0  0  0  0  0
   -0.2840   58.7040   74.0240 C   0  0  0  0  0  0  0  0  0  0  0  0
    0.7510   59.2270   73.1910 C   0  0  0  0  0  0  0  0  0  0  0  0
    0.8960   60.5940   72.8380 C   0  0  0  0  0  0  0  0  0  0  0  0
    1.9480   61.0420   72.0390 C   0  0  0  0  0  0  0  0  0  0  0  0
    2.8810   60.1370   71.5550 C   0  0  0  0  0  0  0  0  0  0  0  0
    2.7510   58.7840   71.8630 C   0  0  0  0  0  0  0  0  0  0  0  0
    1.6950   58.3200   72.6650 C   0  0  0  0  0  0  0  0  0  0  0  0
    1.5710   56.9480   72.9370 C   0  0  0  0  0  0  0  0  0  0  0  0
    0.5200   56.4320   73.7070 C   0  0  0  0  0  0  0  0  0  0  0  0
   -0.4420   57.3050   74.2570 C   0  0  0  0  0  0  0  0  0  0  0  0
   -1.4880   56.7270   75.0230 C   0  0  0  0  0  0  0  0  0  0  0  0
   -1.5710   55.3500   75.2360 C   0  0  0  0  0  0  0  0  0  0  0  0
   -0.6110   54.5090   74.6920 C   0  0  0  0  0  0  0  0  0  0  0  0
    0.4250   55.0470   73.9320 C   0  0  0  0  0  0  0  0  0  0  0  0
   -3.5221   60.7613   75.5991 H   0  0  0  0  0  0  0  0  0  0  0  0
   -4.8523   62.7764   76.1814 H   0  0  0  0  0  0  0  0  0  0  0  0
   -3.7112   64.8409   76.9850 H   0  0  0  0  0  0  0  0  0  0  0  0
   -1.2302   64.8701   77.2083 H   0  0  0  0  0  0  0  0  0  0  0  0
    0.0396   58.0749   76.5660 H   0  0  0  0  0  0  0  0  0  0  0  0
    2.1000   57.5896   77.8671 H   0  0  0  0  0  0  0  0  0  0  0  0
    3.5904   59.4524   78.5873 H   0  0  0  0  0  0  0  0  0  0  0  0
    2.9661   61.8048   78.0573 H   0  0  0  0  0  0  0  0  0  0  0  0
    0.1572   61.3215   73.2052 H   0  0  0  0  0  0  0  0  0  0  0  0
    2.0374   62.1105   71.7934 H   0  0  0  0  0  0  0  0  0  0  0  0
    3.7182   60.4849   70.9320 H   0  0  0  0  0  0  0  0  0  0  0  0
    3.4878   58.0672   71.4715 H   0  0  0  0  0  0  0  0  0  0  0  0
    2.3237   56.2554   72.5323 H   0  0  0  0  0  0  0  0  0  0  0  0
   -2.2548   57.3828   75.4611 H   0  0  0  0  0  0  0  0  0  0  0  0
   -2.3951   54.9329   75.8334 H   0  0  0  0  0  0  0  0  0  0  0  0
   -0.6677   53.4234   74.8599 H   0  0  0  0  0  0  0  0  0  0  0  0
    1.1825   54.3765   73.5000 H   0  0  0  0  0  0  0  0  0  0  0  0
  2  1  2  0
  3  2  1  0
  4  3  1  0
  5  4  2  0
  6  5  1  0
  7  6  2  0
  8  7  1  0
  9  8  2  0
  9  4  1  0
 10  9  1  0
 11 10  1  0
 12  3  1  0
 12 11  2  0
 13 12  1  0
 14 13  2  0
 15 14  1  0
 16 11  1  0
 16 15  2  0
 17  2  1  0
 18 17  1  0
 19 18  2  0
 20 19  1  0
 21 20  2  0
 22 21  1  0
 23 22  2  0
 23 18  1  0
 24 23  1  0
 25 24  2  0
 26 17  2  0
 26 25  1  0
 27 26  1  0
 28 27  2  0
 29 28  1  0
 30 29  2  0
 30 25  1  0
  5 31  1  0
  6 32  1  0
  7 33  1  0
  8 34  1  0
 13 35  1  0
 14 36  1  0
 15 37  1  0
 16 38  1  0
 19 39  1  0
 20 40  1  0
 21 41  1  0
 22 42  1  0
 24 43  1  0
 27 44  1  0
 28 45  1  0
 29 46  1  0
 30 47  1  0
M  END
>  <score>  (7) 
-8.148

$$$$
=
     RDKit          3D

 47 52  0  0  0  0  0  0  0  0999 V2000
   -0.3950   60.9050   72.4990 O   0  0  0  0  0  0  0  0  0  0  0  0
    0.0180   60.3950   73.5420 C   0  0  0  0  0  0  0  0  0  0  0  0
    1.3370   60.4980   74.0540 N   0  0  0  0  0  0  0  0  0  0  0  0
    2.4000   61.0170   73.2210 C   0  0  0  0  0  0  0  0  0  0  0  0
    2.1520   62.0480   72.2980 C   0  0  0  0  0  0  0  0  0  0  0  0
    3.1640   62.5650   71.4810 C   0  0  0  0  0  0  0  0  0  0  0  0
    4.4540   62.0580   71.5690 C   0  0  0  0  0  0  0  0  0  0  0  0
    4.7270   61.0380   72.4740 C   0  0  0  0  0  0  0  0  0  0  0  0
    3.7150   60.5220   73.3000 C   0  0  0  0  0  0  0  0  0  0  0  0
    4.1510   59.1700   74.3700 S   0  0  0  0  0  0  0  0  0  0  0  0
    2.9550   59.4600   75.6460 C   0  0  0  0  0  0  0  0  0  0  0  0
    1.7170   60.0700   75.3800 C   0  0  0  0  0  0  0  0  0  0  0  0
    0.8630   60.3090   76.4710 C   0  0  0  0  0  0  0  0  0  0  0  0
    1.1900   59.8900   77.7650 C   0  0  0  0  0  0  0  0  0  0  0  0
    2.3930   59.2400   78.0000 C   0  0  0  0  0  0  0  0  0  0  0  0
    3.2770   59.0330   76.9450 C   0  0  0  0  0  0  0  0  0  0  0  0
   -0.9580   59.4880   74.2110 C   0  0  0  0  0  0  0  0  0  0  0  0
   -2.0900   60.0510   74.8740 C   0  0  0  0  0  0  0  0  0  0  0  0
   -2.3390   61.4410   75.0160 C   0  0  0  0  0  0  0  0  0  0  0  0
   -3.4810   61.9240   75.6560 C   0  0  0  0  0  0  0  0  0  0  0  0
   -4.4030   61.0340   76.1870 C   0  0  0  0  0  0  0  0  0  0  0  0
   -4.1730   59.6640   76.0870 C   0  0  0  0  0  0  0  0  0  0  0  0
   -3.0260   59.1640   75.4470 C   0  0  0  0  0  0  0  0  0  0  0  0
   -2.8050   57.7800   75.3840 C   0  0  0  0  0  0  0  0  0  0  0  0
   -1.6620   57.2330   74.7840 C   0  0  0  0  0  0  0  0  0  0  0  0
   -0.7040   58.0830   74.1930 C   0  0  0  0  0  0  0  0  0  0  0  0
    0.4360   57.4760   73.6050 C   0  0  0  0  0  0  0  0  0  0  0  0
    0.6120   56.0910   73.5980 C   0  0  0  0  0  0  0  0  0  0  0  0
   -0.3450   55.2720   74.1780 C   0  0  0  0  0  0  0  0  0  0  0  0
   -1.4730   55.8390   74.7670 C   0  0  0  0  0  0  0  0  0  0  0  0
    1.1352   62.4595   72.2157 H   0  0  0  0  0  0  0  0  0  0  0  0
    2.9377   63.3727   70.7694 H   0  0  0  0  0  0  0  0  0  0  0  0
    5.2529   62.4598   70.9284 H   0  0  0  0  0  0  0  0  0  0  0  0
    5.7465   60.6309   72.5437 H   0  0  0  0  0  0  0  0  0  0  0  0
   -0.0862   60.8388   76.3028 H   0  0  0  0  0  0  0  0  0  0  0  0
    0.4936   60.0758   78.5959 H   0  0  0  0  0  0  0  0  0  0  0  0
    2.6461   58.8910   79.0120 H   0  0  0  0  0  0  0  0  0  0  0  0
    4.2375   58.5299   77.1303 H   0  0  0  0  0  0  0  0  0  0  0  0
   -1.6107   62.1583   74.6098 H   0  0  0  0  0  0  0  0  0  0  0  0
   -3.6497   63.0078   75.7392 H   0  0  0  0  0  0  0  0  0  0  0  0
   -5.3103   61.4080   76.6840 H   0  0  0  0  0  0  0  0  0  0  0  0
   -4.9019   58.9610   76.5165 H   0  0  0  0  0  0  0  0  0  0  0  0
   -3.5532   57.1016   75.8198 H   0  0  0  0  0  0  0  0  0  0  0  0
    1.2025   58.1146   73.1417 H   0  0  0  0  0  0  0  0  0  0  0  0
    1.5069   55.6509   73.1339 H   0  0  0  0  0  0  0  0  0  0  0  0
   -0.2141   54.1798   74.1730 H   0  0  0  0  0  0  0  0  0  0  0  0
   -2.2290   55.1854   75.2267 H   0  0  0  0  0  0  0  0  0  0  0  0
  2  1  2  0
  3  2  1  0
  4  3  1  0
  5  4  2  0
  6  5  1  0
  7  6  2  0
  8  7  1  0
  9  8  2  0
  9  4  1  0
 10  9  1  0
 11 10  1  0
 12  3  1  0
 12 11  2  0
 13 12  1  0
 14 13  2  0
 15 14  1  0
 16 11  1  0
 16 15  2  0
 17  2  1  0
 18 17  1  0
 19 18  2  0
 20 19  1  0
 21 20  2  0
 22 21  1  0
 23 22  2  0
 23 18  1  0
 24 23  1  0
 25 24  2  0
 26 17  2  0
 26 25  1  0
 27 26  1  0
 28 27  2  0
 29 28  1  0
 30 29  2  0
 30 25  1  0
  5 31  1  0
  6 32  1  0
  7 33  1  0
  8 34  1  0
 13 35  1  0
 14 36  1  0
 15 37  1  0
 16 38  1  0
 19 39  1  0
 20 40  1  0
 21 41  1  0
 22 42  1  0
 24 43  1  0
 27 44  1  0
 28 45  1  0
 29 46  1  0
 30 47  1  0
M  END
>  <score>  (8) 
-8.114

$$$$
=
     RDKit          3D

 47 52  0  0  0  0  0  0  0  0999 V2000
    3.3810   59.7280   76.3470 O   0  0  0  0  0  0  0  0  0  0  0  0
    2.3360   59.8010   75.6990 C   0  0  0  0  0  0  0  0  0  0  0  0
    1.1630   60.5010   76.0850 N   0  0  0  0  0  0  0  0  0  0  0  0
    1.0200   60.9820   77.4410 C   0  0  0  0  0  0  0  0  0  0  0  0
    2.1330   61.4610   78.1560 C   0  0  0  0  0  0  0  0  0  0  0  0
    2.0180   61.9300   79.4690 C   0  0  0  0  0  0  0  0  0  0  0  0
    0.7830   61.9320   80.1020 C   0  0  0  0  0  0  0  0  0  0  0  0
   -0.3360   61.4640   79.4180 C   0  0  0  0  0  0  0  0  0  0  0  0
   -0.2250   60.9980   78.0970 C   0  0  0  0  0  0  0  0  0  0  0  0
   -1.6980   60.3550   77.3380 S   0  0  0  0  0  0  0  0  0  0  0  0
   -1.2860   60.7010   75.6490 C   0  0  0  0  0  0  0  0  0  0  0  0
    0.0460   60.7410   75.2020 C   0  0  0  0  0  0  0  0  0  0  0  0
    0.2690   61.0820   73.8560 C   0  0  0  0  0  0  0  0  0  0  0  0
   -0.7890   61.3010   72.9680 C   0  0  0  0  0  0  0  0  0  0  0  0
   -2.0990   61.2030   73.4140 C   0  0  0  0  0  0  0  0  0  0  0  0
   -2.3470   60.9130   74.7530 C   0  0  0  0  0  0  0  0  0  0  0  0
    2.3090   58.9480   74.4760 C   0  0  0  0  0  0  0  0  0  0  0  0
    1.5760   57.7230   74.4990 C   0  0  0  0  0  0  0  0  0  0  0  0
    0.9070   57.1980   75.6350 C   0  0  0  0  0  0  0  0  0  0  0  0
    0.1860   56.0050   75.5810 C   0  0  0  0  0  0  0  0  0  0  0  0
    0.1210   55.2920   74.3930 C   0  0  0  0  0  0  0  0  0  0  0  0
    0.7890   55.7680   73.2660 C   0  0  0  0  0  0  0  0  0  0  0  0
    1.5210   56.9670   73.3090 C   0  0  0  0  0  0  0  0  0  0  0  0
    2.2070   57.4100   72.1680 C   0  0  0  0  0  0  0  0  0  0  0  0
    2.9750   58.5830   72.1670 C   0  0  0  0  0  0  0  0  0  0  0  0
    3.0520   59.3720   73.3340 C   0  0  0  0  0  0  0  0  0  0  0  0
    3.8480   60.5460   73.2780 C   0  0  0  0  0  0  0  0  0  0  0  0
    4.5300   60.9200   72.1190 C   0  0  0  0  0  0  0  0  0  0  0  0
    4.4350   60.1340   70.9800 C   0  0  0  0  0  0  0  0  0  0  0  0
    3.6640   58.9740   71.0050 C   0  0  0  0  0  0  0  0  0  0  0  0
    3.1197   61.4669   77.6698 H   0  0  0  0  0  0  0  0  0  0  0  0
    2.9080   62.2978   80.0006 H   0  0  0  0  0  0  0  0  0  0  0  0
    0.6889   62.2998   81.1344 H   0  0  0  0  0  0  0  0  0  0  0  0
   -1.3165   61.4590   79.9167 H   0  0  0  0  0  0  0  0  0  0  0  0
    1.3025   61.1790   73.4921 H   0  0  0  0  0  0  0  0  0  0  0  0
   -0.5826   61.5507   71.9168 H   0  0  0  0  0  0  0  0  0  0  0  0
   -2.9352   61.3532   72.7153 H   0  0  0  0  0  0  0  0  0  0  0  0
   -3.3845   60.8492   75.1130 H   0  0  0  0  0  0  0  0  0  0  0  0
    0.9585   57.7480   76.5862 H   0  0  0  0  0  0  0  0  0  0  0  0
   -0.3294   55.6308   76.4779 H   0  0  0  0  0  0  0  0  0  0  0  0
   -0.4545   54.3561   74.3405 H   0  0  0  0  0  0  0  0  0  0  0  0
    0.7425   55.1959   72.3276 H   0  0  0  0  0  0  0  0  0  0  0  0
    2.1400   56.8174   71.2437 H   0  0  0  0  0  0  0  0  0  0  0  0
    3.9297   61.1792   74.1737 H   0  0  0  0  0  0  0  0  0  0  0  0
    5.1407   61.8349   72.1089 H   0  0  0  0  0  0  0  0  0  0  0  0
    4.9658   60.4252   70.0616 H   0  0  0  0  0  0  0  0  0  0  0  0
    3.5929   58.3529   70.0999 H   0  0  0  0  0  0  0  0  0  0  0  0
  2  1  2  0
  3  2  1  0
  4  3  1  0
  5  4  2  0
  6  5  1  0
  7  6  2  0
  8  7  1  0
  9  8  2  0
  9  4  1  0
 10  9  1  0
 11 10  1  0
 12  3  1  0
 12 11  2  0
 13 12  1  0
 14 13  2  0
 15 14  1  0
 16 11  1  0
 16 15  2  0
 17  2  1  0
 18 17  1  0
 19 18  2  0
 20 19  1  0
 21 20  2  0
 22 21  1  0
 23 22  2  0
 23 18  1  0
 24 23  1  0
 25 24  2  0
 26 17  2  0
 26 25  1  0
 27 26  1  0
 28 27  2  0
 29 28  1  0
 30 29  2  0
 30 25  1  0
  5 31  1  0
  6 32  1  0
  7 33  1  0
  8 34  1  0
 13 35  1  0
 14 36  1  0
 15 37  1  0
 16 38  1  0
 19 39  1  0
 20 40  1  0
 21 41  1  0
 22 42  1  0
 24 43  1  0
 27 44  1  0
 28 45  1  0
 29 46  1  0
 30 47  1  0
M  END
>  <score>  (9) 
-8.051

$$$$
