=
     RDKit          3D

 62 66  0  0  0  0  0  0  0  0999 V2000
    2.4480   62.5640   71.3190 C   0  0  2  0  0  0  0  0  0  0  0  0
    2.3520   61.7610   70.1390 O   0  0  0  0  0  0  0  0  0  0  0  0
    3.6660   61.6810   69.5750 C   0  0  0  0  0  0  0  0  0  0  0  0
    4.6400   62.0600   70.5420 O   0  0  0  0  0  0  0  0  0  0  0  0
    3.9390   62.5080   71.7000 C   0  0  2  0  0  0  0  0  0  0  0  0
    4.0810   61.4670   72.8300 C   0  0  0  0  0  0  0  0  0  0  0  0
    2.7310   60.7550   72.8400 C   0  0  2  0  0  0  0  0  0  0  0  0
    1.7250   61.8880   72.5320 C   0  0  1  0  0  0  0  0  0  0  0  0
    1.5880   62.9140   73.6880 C   0  0  0  0  0  0  0  0  0  0  0  0
    0.3680   61.2240   72.2220 C   0  0  0  0  0  0  0  0  0  0  0  0
   -0.1110   60.2200   73.2970 C   0  0  1  0  0  0  0  0  0  0  0  0
    0.9740   59.1950   73.7440 C   0  0  1  0  0  0  0  0  0  0  0  0
    2.3470   59.8890   74.0500 C   0  0  1  0  0  0  0  0  0  0  0  0
    3.4410   58.8440   74.3320 C   0  0  0  0  0  0  0  0  0  0  0  0
    3.0400   57.8490   75.4120 C   0  0  1  0  0  0  0  0  0  0  0  0
    1.7220   57.2050   75.0680 C   0  0  0  0  0  0  0  0  0  0  0  0
    1.6250   55.8720   74.9120 C   0  0  0  0  0  0  0  0  0  0  0  0
    0.3590   55.2230   74.5180 C   0  0  0  0  0  0  0  0  0  0  0  0
    0.2790   54.0090   74.3810 O   0  0  0  0  0  0  0  0  0  0  0  0
   -0.8050   56.0990   74.2890 C   0  0  0  0  0  0  0  0  0  0  0  0
   -0.7110   57.4250   74.4460 C   0  0  0  0  0  0  0  0  0  0  0  0
    0.5480   58.1730   74.8680 C   0  0  2  0  0  0  0  0  0  0  0  0
    0.2250   58.8250   76.2310 C   0  0  0  0  0  0  0  0  0  0  0  0
    4.0380   56.9230   75.5090 F   0  0  0  0  0  0  0  0  0  0  0  0
    3.9270   60.2460   69.1370 C   0  0  0  0  0  0  0  0  0  0  0  0
    3.7680   62.6290   68.3830 C   0  0  0  0  0  0  0  0  0  0  0  0
    1.9650   63.9920   71.0190 C   0  0  0  0  0  0  0  0  0  0  0  0
    2.7430   64.9300   70.8170 O   0  0  0  0  0  0  0  0  0  0  0  0
    0.4600   64.2290   70.9920 C   0  0  0  0  0  0  0  0  0  0  0  0
   -0.1300   63.6770   69.8230 O   0  0  0  0  0  0  0  0  0  0  0  0
   -0.6960   60.9310   74.3770 O   0  0  0  0  0  0  0  0  0  0  0  0
    4.3314   63.4799   72.0339 H   0  0  0  0  0  0  0  0  0  0  0  0
    4.8953   60.7603   72.6119 H   0  0  0  0  0  0  0  0  0  0  0  0
    4.3290   61.9228   73.7999 H   0  0  0  0  0  0  0  0  0  0  0  0
    2.7515   59.9436   72.0976 H   0  0  0  0  0  0  0  0  0  0  0  0
    1.6579   62.3906   74.6530 H   0  0  0  0  0  0  0  0  0  0  0  0
    2.3947   63.6582   73.6153 H   0  0  0  0  0  0  0  0  0  0  0  0
    0.6143   63.4205   73.6153 H   0  0  0  0  0  0  0  0  0  0  0  0
   -0.3896   62.0161   72.1288 H   0  0  0  0  0  0  0  0  0  0  0  0
    0.5036   60.6499   71.2936 H   0  0  0  0  0  0  0  0  0  0  0  0
   -0.8811   59.5817   72.8392 H   0  0  0  0  0  0  0  0  0  0  0  0
    1.1035   58.5514   72.8614 H   0  0  0  0  0  0  0  0  0  0  0  0
    2.2510   60.5162   74.9485 H   0  0  0  0  0  0  0  0  0  0  0  0
    3.6471   58.2913   73.4036 H   0  0  0  0  0  0  0  0  0  0  0  0
    4.3301   59.3830   74.6911 H   0  0  0  0  0  0  0  0  0  0  0  0
    2.9061   58.3541   76.3800 H   0  0  0  0  0  0  0  0  0  0  0  0
    2.5146   55.2480   75.0830 H   0  0  0  0  0  0  0  0  0  0  0  0
   -1.7648   55.6561   73.9846 H   0  0  0  0  0  0  0  0  0  0  0  0
   -1.6146   58.0225   74.2552 H   0  0  0  0  0  0  0  0  0  0  0  0
    0.5545   58.1599   77.0429 H   0  0  0  0  0  0  0  0  0  0  0  0
    0.7501   59.7883   76.3103 H   0  0  0  0  0  0  0  0  0  0  0  0
   -0.8595   58.9909   76.3103 H   0  0  0  0  0  0  0  0  0  0  0  0
    4.0432   59.6070   70.0248 H   0  0  0  0  0  0  0  0  0  0  0  0
    3.0795   59.8865   68.5349 H   0  0  0  0  0  0  0  0  0  0  0  0
    4.8468   60.2079   68.5349 H   0  0  0  0  0  0  0  0  0  0  0  0
    3.8791   63.6619   68.7445 H   0  0  0  0  0  0  0  0  0  0  0  0
    4.6422   62.3580   67.7728 H   0  0  0  0  0  0  0  0  0  0  0  0
    2.8562   62.5502   67.7728 H   0  0  0  0  0  0  0  0  0  0  0  0
    0.0075   63.7589   71.8776 H   0  0  0  0  0  0  0  0  0  0  0  0
    0.2800   65.3142   70.9918 H   0  0  0  0  0  0  0  0  0  0  0  0
   -0.8277   63.0242   70.0822 H   0  0  0  0  0  0  0  0  0  0  0  0
   -0.3807   60.5478   75.2337 H   0  0  0  0  0  0  0  0  0  0  0  0
  2  1  1  0
  3  2  1  0
  4  3  1  0
  5  4  1  0
  5  1  1  0
  6  5  1  0
  7  6  1  0
  8  7  1  0
  8  1  1  0
  8  9  1  1
 10  8  1  0
 11 10  1  0
 12 11  1  0
 13 12  1  0
 13  7  1  0
 14 13  1  0
 15 14  1  0
 16 15  1  0
 17 16  2  0
 18 17  1  0
 19 18  2  0
 20 18  1  0
 21 20  2  0
 22 21  1  0
 22 16  1  0
 22 12  1  0
 22 23  1  1
 24 15  1  0
 25  3  1  0
 26  3  1  0
  1 27  1  6
 28 27  2  0
 29 27  1  0
 30 29  1  0
 31 11  1  0
  5 32  1  1
  6 33  1  0
  6 34  1  0
  7 35  1  6
  9 36  1  0
  9 37  1  0
  9 38  1  0
 10 39  1  0
 10 40  1  0
 11 41  1  6
 12 42  1  6
 13 43  1  1
 14 44  1  0
 14 45  1  0
 15 46  1  1
 17 47  1  0
 20 48  1  0
 21 49  1  0
 23 50  1  0
 23 51  1  0
 23 52  1  0
 25 53  1  0
 25 54  1  0
 25 55  1  0
 26 56  1  0
 26 57  1  0
 26 58  1  0
 29 59  1  0
 29 60  1  0
 30 61  1  0
 31 62  1  0
M  END
>  <score>  (1) 
-9.107

$$$$
=
     RDKit          3D

 62 66  0  0  0  0  0  0  0  0999 V2000
    0.8520   56.5520   75.0690 C   0  0  2  0  0  0  0  0  0  0  0  0
   -0.3960   56.5040   74.3720 O   0  0  0  0  0  0  0  0  0  0  0  0
   -1.4330   56.6160   75.3530 C   0  0  0  0  0  0  0  0  0  0  0  0
   -0.9020   57.1220   76.5730 O   0  0  0  0  0  0  0  0  0  0  0  0
    0.5120   57.2160   76.4160 C   0  0  2  0  0  0  0  0  0  0  0  0
    0.9260   58.7000   76.3080 C   0  0  0  0  0  0  0  0  0  0  0  0
    1.1980   58.8930   74.8190 C   0  0  2  0  0  0  0  0  0  0  0  0
    1.8470   57.5550   74.3960 C   0  0  1  0  0  0  0  0  0  0  0  0
    3.2660   57.3500   74.9870 C   0  0  0  0  0  0  0  0  0  0  0  0
    1.8850   57.5320   72.8530 C   0  0  0  0  0  0  0  0  0  0  0  0
    2.5280   58.7840   72.2120 C   0  0  1  0  0  0  0  0  0  0  0  0
    2.0040   60.1350   72.7830 C   0  0  1  0  0  0  0  0  0  0  0  0
    1.9690   60.1380   74.3510 C   0  0  1  0  0  0  0  0  0  0  0  0
    1.2990   61.4160   74.8850 C   0  0  0  0  0  0  0  0  0  0  0  0
    1.9180   62.6860   74.3170 C   0  0  1  0  0  0  0  0  0  0  0  0
    1.9220   62.6390   72.8110 C   0  0  0  0  0  0  0  0  0  0  0  0
    1.2760   63.5740   72.0900 C   0  0  0  0  0  0  0  0  0  0  0  0
    1.2150   63.5180   70.6160 C   0  0  0  0  0  0  0  0  0  0  0  0
    0.6280   64.3740   69.9670 O   0  0  0  0  0  0  0  0  0  0  0  0
    1.8850   62.3810   69.9560 C   0  0  0  0  0  0  0  0  0  0  0  0
    2.5300   61.4510   70.6720 C   0  0  0  0  0  0  0  0  0  0  0  0
    2.6580   61.4440   72.1900 C   0  0  2  0  0  0  0  0  0  0  0  0
    4.1650   61.5970   72.4960 C   0  0  0  0  0  0  0  0  0  0  0  0
    1.1910   63.7420   74.7820 F   0  0  0  0  0  0  0  0  0  0  0  0
   -2.4980   57.5730   74.8360 C   0  0  0  0  0  0  0  0  0  0  0  0
   -2.0370   55.2400   75.6180 C   0  0  0  0  0  0  0  0  0  0  0  0
    1.4130   55.1300   75.2340 C   0  0  0  0  0  0  0  0  0  0  0  0
    1.8650   54.7110   76.3050 O   0  0  0  0  0  0  0  0  0  0  0  0
    1.4090   54.2300   74.0050 C   0  0  0  0  0  0  0  0  0  0  0  0
    2.6990   54.1550   73.4130 O   0  0  0  0  0  0  0  0  0  0  0  0
    3.9420   58.6610   72.2580 O   0  0  0  0  0  0  0  0  0  0  0  0
    1.0246   56.7433   77.2668 H   0  0  0  0  0  0  0  0  0  0  0  0
    0.1134   59.3594   76.6469 H   0  0  0  0  0  0  0  0  0  0  0  0
    1.7953   58.9465   76.9353 H   0  0  0  0  0  0  0  0  0  0  0  0
    0.2501   59.1253   74.3115 H   0  0  0  0  0  0  0  0  0  0  0  0
    3.2103   57.3580   76.0856 H   0  0  0  0  0  0  0  0  0  0  0  0
    3.6687   56.3844   74.6473 H   0  0  0  0  0  0  0  0  0  0  0  0
    3.9255   58.1622   74.6473 H   0  0  0  0  0  0  0  0  0  0  0  0
    2.4597   56.6493   72.5360 H   0  0  0  0  0  0  0  0  0  0  0  0
    0.8391   57.5068   72.5131 H   0  0  0  0  0  0  0  0  0  0  0  0
    2.2127   58.8212   71.1588 H   0  0  0  0  0  0  0  0  0  0  0  0
    0.9681   60.1868   72.4167 H   0  0  0  0  0  0  0  0  0  0  0  0
    2.9968   60.1168   74.7424 H   0  0  0  0  0  0  0  0  0  0  0  0
    0.2328   61.3933   74.6154 H   0  0  0  0  0  0  0  0  0  0  0  0
    1.4428   61.4355   75.9754 H   0  0  0  0  0  0  0  0  0  0  0  0
    2.9657   62.7877   74.6363 H   0  0  0  0  0  0  0  0  0  0  0  0
    0.7792   64.4038   72.6141 H   0  0  0  0  0  0  0  0  0  0  0  0
    1.8542   62.2960   68.8597 H   0  0  0  0  0  0  0  0  0  0  0  0
    3.0052   60.6266   70.1201 H   0  0  0  0  0  0  0  0  0  0  0  0
    4.3183   61.6126   73.5852 H   0  0  0  0  0  0  0  0  0  0  0  0
    4.7154   60.7501   72.0603 H   0  0  0  0  0  0  0  0  0  0  0  0
    4.5340   62.5372   72.0603 H   0  0  0  0  0  0  0  0  0  0  0  0
   -3.0165   58.0389   75.6869 H   0  0  0  0  0  0  0  0  0  0  0  0
   -2.0232   58.3539   74.2237 H   0  0  0  0  0  0  0  0  0  0  0  0
   -3.2238   57.0177   74.2237 H   0  0  0  0  0  0  0  0  0  0  0  0
   -2.1097   55.0743   76.7030 H   0  0  0  0  0  0  0  0  0  0  0  0
   -3.0407   55.1879   75.1710 H   0  0  0  0  0  0  0  0  0  0  0  0
   -1.3959   54.4659   75.1710 H   0  0  0  0  0  0  0  0  0  0  0  0
    1.0924   53.2194   74.3025 H   0  0  0  0  0  0  0  0  0  0  0  0
    0.7134   54.6554   73.2666 H   0  0  0  0  0  0  0  0  0  0  0  0
    3.3866   54.1150   74.1241 H   0  0  0  0  0  0  0  0  0  0  0  0
    4.2405   58.6350   73.2016 H   0  0  0  0  0  0  0  0  0  0  0  0
  2  1  1  0
  3  2  1  0
  4  3  1  0
  5  4  1  0
  5  1  1  0
  6  5  1  0
  7  6  1  0
  8  7  1  0
  8  1  1  0
  8  9  1  1
 10  8  1  0
 11 10  1  0
 12 11  1  0
 13 12  1  0
 13  7  1  0
 14 13  1  0
 15 14  1  0
 16 15  1  0
 17 16  2  0
 18 17  1  0
 19 18  2  0
 20 18  1  0
 21 20  2  0
 22 21  1  0
 22 16  1  0
 22 12  1  0
 22 23  1  6
 24 15  1  0
 25  3  1  0
 26  3  1  0
  1 27  1  1
 28 27  2  0
 29 27  1  0
 30 29  1  0
 31 11  1  0
  5 32  1  1
  6 33  1  0
  6 34  1  0
  7 35  1  6
  9 36  1  0
  9 37  1  0
  9 38  1  0
 10 39  1  0
 10 40  1  0
 11 41  1  6
 12 42  1  6
 13 43  1  1
 14 44  1  0
 14 45  1  0
 15 46  1  1
 17 47  1  0
 20 48  1  0
 21 49  1  0
 23 50  1  0
 23 51  1  0
 23 52  1  0
 25 53  1  0
 25 54  1  0
 25 55  1  0
 26 56  1  0
 26 57  1  0
 26 58  1  0
 29 59  1  0
 29 60  1  0
 30 61  1  0
 31 62  1  0
M  END
>  <score>  (2) 
-8.888

$$$$
=
     RDKit          3D

 62 66  0  0  0  0  0  0  0  0999 V2000
   -1.3560   57.5160   75.8680 C   0  0  2  0  0  0  0  0  0  0  0  0
   -2.3980   57.7650   74.9200 O   0  0  0  0  0  0  0  0  0  0  0  0
   -3.3740   58.5860   75.5720 C   0  0  0  0  0  0  0  0  0  0  0  0
   -2.8140   59.1850   76.7360 O   0  0  0  0  0  0  0  0  0  0  0  0
   -1.5060   58.6440   76.9060 C   0  0  2  0  0  0  0  0  0  0  0  0
   -0.4500   59.7180   76.5660 C   0  0  0  0  0  0  0  0  0  0  0  0
    0.0490   59.3110   75.1820 C   0  0  2  0  0  0  0  0  0  0  0  0
    0.0570   57.7660   75.2440 C   0  0  1  0  0  0  0  0  0  0  0  0
    1.1480   57.1980   76.1900 C   0  0  0  0  0  0  0  0  0  0  0  0
    0.2570   57.2520   73.8030 C   0  0  0  0  0  0  0  0  0  0  0  0
    1.4710   57.8670   73.0680 C   0  0  1  0  0  0  0  0  0  0  0  0
    1.5620   59.4190   73.1730 C   0  0  1  0  0  0  0  0  0  0  0  0
    1.3520   59.9230   74.6440 C   0  0  1  0  0  0  0  0  0  0  0  0
    1.2850   61.4590   74.6950 C   0  0  0  0  0  0  0  0  0  0  0  0
    2.4770   62.1230   74.0190 C   0  0  1  0  0  0  0  0  0  0  0  0
    2.6310   61.6140   72.6100 C   0  0  0  0  0  0  0  0  0  0  0  0
    2.5720   62.4550   71.5610 C   0  0  0  0  0  0  0  0  0  0  0  0
    2.6610   61.9740   70.1690 C   0  0  0  0  0  0  0  0  0  0  0  0
    2.6100   62.7460   69.2200 O   0  0  0  0  0  0  0  0  0  0  0  0
    2.8080   60.5200   69.9660 C   0  0  0  0  0  0  0  0  0  0  0  0
    2.8690   59.6810   71.0080 C   0  0  0  0  0  0  0  0  0  0  0  0
    2.8050   60.0940   72.4730 C   0  0  2  0  0  0  0  0  0  0  0  0
    4.1680   59.7100   73.0900 C   0  0  0  0  0  0  0  0  0  0  0  0
    2.2660   63.4700   74.0420 F   0  0  0  0  0  0  0  0  0  0  0  0
   -3.8160   59.6810   74.6090 C   0  0  0  0  0  0  0  0  0  0  0  0
   -4.5660   57.7310   75.9890 C   0  0  0  0  0  0  0  0  0  0  0  0
   -1.5310   56.1180   76.4830 C   0  0  0  0  0  0  0  0  0  0  0  0
   -1.5130   55.9180   77.7020 O   0  0  0  0  0  0  0  0  0  0  0  0
   -1.7180   54.9520   75.5210 C   0  0  0  0  0  0  0  0  0  0  0  0
   -3.0830   54.7970   75.1530 O   0  0  0  0  0  0  0  0  0  0  0  0
    2.6570   57.2030   73.4790 O   0  0  0  0  0  0  0  0  0  0  0  0
   -1.3671   58.2944   77.9397 H   0  0  0  0  0  0  0  0  0  0  0  0
   -0.9038   60.7197   76.5402 H   0  0  0  0  0  0  0  0  0  0  0  0
    0.3575   59.7721   77.3110 H   0  0  0  0  0  0  0  0  0  0  0  0
   -0.6217   59.7372   74.4214 H   0  0  0  0  0  0  0  0  0  0  0  0
    0.8450   57.3558   77.2356 H   0  0  0  0  0  0  0  0  0  0  0  0
    1.2715   56.1212   76.0025 H   0  0  0  0  0  0  0  0  0  0  0  0
    2.1010   57.7144   76.0025 H   0  0  0  0  0  0  0  0  0  0  0  0
    0.3952   56.1614   73.8428 H   0  0  0  0  0  0  0  0  0  0  0  0
   -0.6373   57.5505   73.2363 H   0  0  0  0  0  0  0  0  0  0  0  0
    1.3302   57.6976   71.9903 H   0  0  0  0  0  0  0  0  0  0  0  0
    0.7147   59.7706   72.5660 H   0  0  0  0  0  0  0  0  0  0  0  0
    2.2030   59.6095   75.2666 H   0  0  0  0  0  0  0  0  0  0  0  0
    0.3654   61.7879   74.1889 H   0  0  0  0  0  0  0  0  0  0  0  0
    1.2959   61.7566   75.7539 H   0  0  0  0  0  0  0  0  0  0  0  0
    3.4105   61.8841   74.5496 H   0  0  0  0  0  0  0  0  0  0  0  0
    2.4539   63.5327   71.7468 H   0  0  0  0  0  0  0  0  0  0  0  0
    2.8684   60.1191   68.9434 H   0  0  0  0  0  0  0  0  0  0  0  0
    2.9737   58.6082   70.7886 H   0  0  0  0  0  0  0  0  0  0  0  0
    4.0928   59.7312   74.1872 H   0  0  0  0  0  0  0  0  0  0  0  0
    4.4474   58.6982   72.7611 H   0  0  0  0  0  0  0  0  0  0  0  0
    4.9345   60.4272   72.7611 H   0  0  0  0  0  0  0  0  0  0  0  0
   -4.1677   60.5523   75.1810 H   0  0  0  0  0  0  0  0  0  0  0  0
   -2.9668   59.9768   73.9754 H   0  0  0  0  0  0  0  0  0  0  0  0
   -4.6325   59.3044   73.9754 H   0  0  0  0  0  0  0  0  0  0  0  0
   -4.6222   57.6907   77.0868 H   0  0  0  0  0  0  0  0  0  0  0  0
   -5.4913   58.1726   75.5905 H   0  0  0  0  0  0  0  0  0  0  0  0
   -4.4443   56.7130   75.5905 H   0  0  0  0  0  0  0  0  0  0  0  0
   -1.1218   55.1362   74.6151 H   0  0  0  0  0  0  0  0  0  0  0  0
   -1.3884   54.0313   76.0246 H   0  0  0  0  0  0  0  0  0  0  0  0
   -3.6397   54.7338   75.9692 H   0  0  0  0  0  0  0  0  0  0  0  0
    2.6969   57.1807   74.4679 H   0  0  0  0  0  0  0  0  0  0  0  0
  2  1  1  0
  3  2  1  0
  4  3  1  0
  5  4  1  0
  5  1  1  0
  6  5  1  0
  7  6  1  0
  8  7  1  0
  8  1  1  0
  8  9  1  1
 10  8  1  0
 11 10  1  0
 12 11  1  0
 13 12  1  0
 13  7  1  0
 14 13  1  0
 15 14  1  0
 16 15  1  0
 17 16  2  0
 18 17  1  0
 19 18  2  0
 20 18  1  0
 21 20  2  0
 22 21  1  0
 22 16  1  0
 22 12  1  0
 22 23  1  1
 24 15  1  0
 25  3  1  0
 26  3  1  0
  1 27  1  1
 28 27  2  0
 29 27  1  0
 30 29  1  0
 31 11  1  0
  5 32  1  1
  6 33  1  0
  6 34  1  0
  7 35  1  6
  9 36  1  0
  9 37  1  0
  9 38  1  0
 10 39  1  0
 10 40  1  0
 11 41  1  6
 12 42  1  6
 13 43  1  1
 14 44  1  0
 14 45  1  0
 15 46  1  1
 17 47  1  0
 20 48  1  0
 21 49  1  0
 23 50  1  0
 23 51  1  0
 23 52  1  0
 25 53  1  0
 25 54  1  0
 25 55  1  0
 26 56  1  0
 26 57  1  0
 26 58  1  0
 29 59  1  0
 29 60  1  0
 30 61  1  0
 31 62  1  0
M  END
>  <score>  (3) 
-8.149

$$$$
=
     RDKit          3D

 62 66  0  0  0  0  0  0  0  0999 V2000
    2.8740   61.5320   71.7760 C   0  0  2  0  0  0  0  0  0  0  0  0
    2.5830   60.4560   70.8790 O   0  0  0  0  0  0  0  0  0  0  0  0
    3.7540   59.6350   70.8110 C   0  0  0  0  0  0  0  0  0  0  0  0
    4.6160   59.9170   71.9080 O   0  0  0  0  0  0  0  0  0  0  0  0
    4.0550   61.0180   72.6190 C   0  0  2  0  0  0  0  0  0  0  0  0
    3.4760   60.5290   73.9640 C   0  0  0  0  0  0  0  0  0  0  0  0
    1.9690   60.4980   73.7200 C   0  0  2  0  0  0  0  0  0  0  0  0
    1.7260   61.7320   72.8210 C   0  0  1  0  0  0  0  0  0  0  0  0
    1.9330   63.0790   73.5630 C   0  0  0  0  0  0  0  0  0  0  0  0
    0.2880   61.6220   72.2710 C   0  0  0  0  0  0  0  0  0  0  0  0
   -0.7930   61.3980   73.3540 C   0  0  1  0  0  0  0  0  0  0  0  0
   -0.4500   60.2750   74.3780 C   0  0  1  0  0  0  0  0  0  0  0  0
    1.0160   60.4010   74.9210 C   0  0  1  0  0  0  0  0  0  0  0  0
    1.3830   59.1940   75.8020 C   0  0  0  0  0  0  0  0  0  0  0  0
    0.3710   58.9470   76.9130 C   0  0  1  0  0  0  0  0  0  0  0  0
   -1.0170   58.8250   76.3400 C   0  0  0  0  0  0  0  0  0  0  0  0
   -1.7380   57.7020   76.5120 C   0  0  0  0  0  0  0  0  0  0  0  0
   -3.0760   57.5340   75.9120 C   0  0  0  0  0  0  0  0  0  0  0  0
   -3.7270   56.5100   76.0750 O   0  0  0  0  0  0  0  0  0  0  0  0
   -3.5950   58.6510   75.0990 C   0  0  0  0  0  0  0  0  0  0  0  0
   -2.8800   59.7700   74.9290 C   0  0  0  0  0  0  0  0  0  0  0  0
   -1.5030   60.0330   75.5270 C   0  0  2  0  0  0  0  0  0  0  0  0
   -1.6740   61.2250   76.4950 C   0  0  0  0  0  0  0  0  0  0  0  0
    0.7450   57.8080   77.5640 F   0  0  0  0  0  0  0  0  0  0  0  0
    3.3330   58.1720   70.8680 C   0  0  0  0  0  0  0  0  0  0  0  0
    4.5050   59.9230   69.5140 C   0  0  0  0  0  0  0  0  0  0  0  0
    3.2210   62.7980   70.9770 C   0  0  0  0  0  0  0  0  0  0  0  0
    4.2560   63.4450   71.1690 O   0  0  0  0  0  0  0  0  0  0  0  0
    2.2210   63.2560   69.9230 C   0  0  0  0  0  0  0  0  0  0  0  0
    2.2340   62.3980   68.7900 O   0  0  0  0  0  0  0  0  0  0  0  0
   -1.1120   62.6400   73.9640 O   0  0  0  0  0  0  0  0  0  0  0  0
    4.8192   61.7887   72.7978 H   0  0  0  0  0  0  0  0  0  0  0  0
    3.8538   59.5262   74.2122 H   0  0  0  0  0  0  0  0  0  0  0  0
    3.7576   61.1745   74.8090 H   0  0  0  0  0  0  0  0  0  0  0  0
    1.7020   59.5347   73.2608 H   0  0  0  0  0  0  0  0  0  0  0  0
    1.9066   62.9071   74.6492 H   0  0  0  0  0  0  0  0  0  0  0  0
    2.9073   63.5060   73.2829 H   0  0  0  0  0  0  0  0  0  0  0  0
    1.1319   63.7788   73.2829 H   0  0  0  0  0  0  0  0  0  0  0  0
    0.0517   62.5537   71.7361 H   0  0  0  0  0  0  0  0  0  0  0  0
    0.2676   60.7369   71.6182 H   0  0  0  0  0  0  0  0  0  0  0  0
   -1.6927   61.0111   72.8533 H   0  0  0  0  0  0  0  0  0  0  0  0
   -0.5169   59.3521   73.7832 H   0  0  0  0  0  0  0  0  0  0  0  0
    1.1013   61.3024   75.5456 H   0  0  0  0  0  0  0  0  0  0  0  0
    1.4339   58.2974   75.1668 H   0  0  0  0  0  0  0  0  0  0  0  0
    2.3509   59.4119   76.2771 H   0  0  0  0  0  0  0  0  0  0  0  0
    0.3516   59.7894   77.6201 H   0  0  0  0  0  0  0  0  0  0  0  0
   -1.3180   56.8853   77.1175 H   0  0  0  0  0  0  0  0  0  0  0  0
   -4.5840   58.5628   74.6257 H   0  0  0  0  0  0  0  0  0  0  0  0
   -3.3218   60.5632   74.3079 H   0  0  0  0  0  0  0  0  0  0  0  0
   -1.6223   60.8647   77.5330 H   0  0  0  0  0  0  0  0  0  0  0  0
   -0.8717   61.9570   76.3206 H   0  0  0  0  0  0  0  0  0  0  0  0
   -2.6498   61.7019   76.3206 H   0  0  0  0  0  0  0  0  0  0  0  0
    3.2424   57.8572   71.9181 H   0  0  0  0  0  0  0  0  0  0  0  0
    2.3632   58.0496   70.3635 H   0  0  0  0  0  0  0  0  0  0  0  0
    4.0894   57.5529   70.3635 H   0  0  0  0  0  0  0  0  0  0  0  0
    5.5084   60.3078   69.7490 H   0  0  0  0  0  0  0  0  0  0  0  0
    4.5956   58.9958   68.9291 H   0  0  0  0  0  0  0  0  0  0  0  0
    3.9524   60.6730   68.9291 H   0  0  0  0  0  0  0  0  0  0  0  0
    1.2123   63.2545   70.3618 H   0  0  0  0  0  0  0  0  0  0  0  0
    2.5019   64.2677   69.5950 H   0  0  0  0  0  0  0  0  0  0  0  0
    2.2483   61.4548   69.0905 H   0  0  0  0  0  0  0  0  0  0  0  0
   -1.0864   62.5403   74.9486 H   0  0  0  0  0  0  0  0  0  0  0  0
  2  1  1  0
  3  2  1  0
  4  3  1  0
  5  4  1  0
  5  1  1  0
  6  5  1  0
  7  6  1  0
  8  7  1  0
  8  1  1  0
  8  9  1  1
 10  8  1  0
 11 10  1  0
 12 11  1  0
 13 12  1  0
 13  7  1  0
 14 13  1  0
 15 14  1  0
 16 15  1  0
 17 16  2  0
 18 17  1  0
 19 18  2  0
 20 18  1  0
 21 20  2  0
 22 21  1  0
 22 16  1  0
 22 12  1  0
 22 23  1  1
 24 15  1  0
 25  3  1  0
 26  3  1  0
  1 27  1  6
 28 27  2  0
 29 27  1  0
 30 29  1  0
 31 11  1  0
  5 32  1  1
  6 33  1  0
  6 34  1  0
  7 35  1  6
  9 36  1  0
  9 37  1  0
  9 38  1  0
 10 39  1  0
 10 40  1  0
 11 41  1  6
 12 42  1  6
 13 43  1  1
 14 44  1  0
 14 45  1  0
 15 46  1  1
 17 47  1  0
 20 48  1  0
 21 49  1  0
 23 50  1  0
 23 51  1  0
 23 52  1  0
 25 53  1  0
 25 54  1  0
 25 55  1  0
 26 56  1  0
 26 57  1  0
 26 58  1  0
 29 59  1  0
 29 60  1  0
 30 61  1  0
 31 62  1  0
M  END
>  <score>  (4) 
-8.02

$$$$
=
     RDKit          3D

 62 66  0  0  0  0  0  0  0  0999 V2000
    2.3990   60.7870   72.4660 C   0  0  2  0  0  0  0  0  0  0  0  0
    2.2480   59.9310   71.3290 O   0  0  0  0  0  0  0  0  0  0  0  0
    3.5590   59.4930   70.9540 C   0  0  0  0  0  0  0  0  0  0  0  0
    4.4740   59.7100   72.0230 O   0  0  0  0  0  0  0  0  0  0  0  0
    3.7740   60.4100   73.0480 C   0  0  2  0  0  0  0  0  0  0  0  0
    3.5180   59.4660   74.2430 C   0  0  0  0  0  0  0  0  0  0  0  0
    2.0430   59.1000   74.1060 C   0  0  2  0  0  0  0  0  0  0  0  0
    1.3930   60.4090   73.6030 C   0  0  1  0  0  0  0  0  0  0  0  0
    1.3770   61.5340   74.6730 C   0  0  0  0  0  0  0  0  0  0  0  0
   -0.0400   60.0640   73.1480 C   0  0  0  0  0  0  0  0  0  0  0  0
   -0.8770   59.2990   74.2000 C   0  0  1  0  0  0  0  0  0  0  0  0
   -0.1400   58.0870   74.8460 C   0  0  1  0  0  0  0  0  0  0  0  0
    1.3160   58.4570   75.2980 C   0  0  1  0  0  0  0  0  0  0  0  0
    2.0760   57.2100   75.7820 C   0  0  0  0  0  0  0  0  0  0  0  0
    1.3150   56.4360   76.8500 C   0  0  1  0  0  0  0  0  0  0  0  0
   -0.0710   56.0970   76.3660 C   0  0  0  0  0  0  0  0  0  0  0  0
   -0.4760   54.8180   76.2700 C   0  0  0  0  0  0  0  0  0  0  0  0
   -1.8060   54.4570   75.7430 C   0  0  0  0  0  0  0  0  0  0  0  0
   -2.1680   53.2910   75.6620 O   0  0  0  0  0  0  0  0  0  0  0  0
   -2.6820   55.5630   75.3100 C   0  0  0  0  0  0  0  0  0  0  0  0
   -2.2820   56.8370   75.4060 C   0  0  0  0  0  0  0  0  0  0  0  0
   -0.9360   57.2970   75.9550 C   0  0  2  0  0  0  0  0  0  0  0  0
   -1.2470   58.1210   77.2240 C   0  0  0  0  0  0  0  0  0  0  0  0
    2.0340   55.3110   77.1320 F   0  0  0  0  0  0  0  0  0  0  0  0
    3.5070   58.0050   70.6340 C   0  0  0  0  0  0  0  0  0  0  0  0
    4.0340   60.2830   69.7380 C   0  0  0  0  0  0  0  0  0  0  0  0
    2.3240   62.2580   72.0260 C   0  0  0  0  0  0  0  0  0  0  0  0
    3.1730   63.0950   72.3490 O   0  0  0  0  0  0  0  0  0  0  0  0
    1.1340   62.6710   71.1690 C   0  0  0  0  0  0  0  0  0  0  0  0
    1.5300   62.9510   69.8330 O   0  0  0  0  0  0  0  0  0  0  0  0
   -1.3920   60.2190   75.1510 O   0  0  0  0  0  0  0  0  0  0  0  0
    4.3530   61.2852   73.3780 H   0  0  0  0  0  0  0  0  0  0  0  0
    4.1522   58.5696   74.1775 H   0  0  0  0  0  0  0  0  0  0  0  0
    3.7534   59.9313   75.2116 H   0  0  0  0  0  0  0  0  0  0  0  0
    1.9497   58.2473   73.4174 H   0  0  0  0  0  0  0  0  0  0  0  0
    1.3834   61.0850   75.6772 H   0  0  0  0  0  0  0  0  0  0  0  0
    2.2662   62.1698   74.5499 H   0  0  0  0  0  0  0  0  0  0  0  0
    0.4701   62.1442   74.5499 H   0  0  0  0  0  0  0  0  0  0  0  0
   -0.5611   61.0031   72.9103 H   0  0  0  0  0  0  0  0  0  0  0  0
    0.0583   59.3967   72.2790 H   0  0  0  0  0  0  0  0  0  0  0  0
   -1.7209   58.8261   73.6764 H   0  0  0  0  0  0  0  0  0  0  0  0
   -0.0697   57.3578   74.0254 H   0  0  0  0  0  0  0  0  0  0  0  0
    1.2723   59.1633   76.1402 H   0  0  0  0  0  0  0  0  0  0  0  0
    2.2477   56.5465   74.9216 H   0  0  0  0  0  0  0  0  0  0  0  0
    3.0221   57.5499   76.2286 H   0  0  0  0  0  0  0  0  0  0  0  0
    1.1958   57.0404   77.7613 H   0  0  0  0  0  0  0  0  0  0  0  0
    0.2048   54.0171   76.5941 H   0  0  0  0  0  0  0  0  0  0  0  0
   -3.6784   55.3372   74.9023 H   0  0  0  0  0  0  0  0  0  0  0  0
   -2.9802   57.6140   75.0613 H   0  0  0  0  0  0  0  0  0  0  0  0
   -1.0200   57.5195   78.1165 H   0  0  0  0  0  0  0  0  0  0  0  0
   -0.6310   59.0323   77.2296 H   0  0  0  0  0  0  0  0  0  0  0  0
   -2.3115   58.3980   77.2296 H   0  0  0  0  0  0  0  0  0  0  0  0
    3.4869   57.4290   71.5709 H   0  0  0  0  0  0  0  0  0  0  0  0
    2.6007   57.7870   70.0500 H   0  0  0  0  0  0  0  0  0  0  0  0
    4.3959   57.7243   70.0500 H   0  0  0  0  0  0  0  0  0  0  0  0
    4.5740   61.1811   70.0723 H   0  0  0  0  0  0  0  0  0  0  0  0
    4.7049   59.6559   69.1325 H   0  0  0  0  0  0  0  0  0  0  0  0
    3.1655   60.5815   69.1325 H   0  0  0  0  0  0  0  0  0  0  0  0
    0.3981   61.8534   71.1604 H   0  0  0  0  0  0  0  0  0  0  0  0
    0.6974   63.5843   71.5995 H   0  0  0  0  0  0  0  0  0  0  0  0
    2.3383   63.5225   69.8413 H   0  0  0  0  0  0  0  0  0  0  0  0
   -1.2063   59.8873   76.0651 H   0  0  0  0  0  0  0  0  0  0  0  0
  2  1  1  0
  3  2  1  0
  4  3  1  0
  5  4  1  0
  5  1  1  0
  6  5  1  0
  7  6  1  0
  8  7  1  0
  8  1  1  0
  8  9  1  1
 10  8  1  0
 11 10  1  0
 12 11  1  0
 13 12  1  0
 13  7  1  0
 14 13  1  0
 15 14  1  0
 16 15  1  0
 17 16  2  0
 18 17  1  0
 19 18  2  0
 20 18  1  0
 21 20  2  0
 22 21  1  0
 22 16  1  0
 22 12  1  0
 22 23  1  1
 24 15  1  0
 25  3  1  0
 26  3  1  0
  1 27  1  6
 28 27  2  0
 29 27  1  0
 30 29  1  0
 31 11  1  0
  5 32  1  1
  6 33  1  0
  6 34  1  0
  7 35  1  6
  9 36  1  0
  9 37  1  0
  9 38  1  0
 10 39  1  0
 10 40  1  0
 11 41  1  6
 12 42  1  6
 13 43  1  1
 14 44  1  0
 14 45  1  0
 15 46  1  1
 17 47  1  0
 20 48  1  0
 21 49  1  0
 23 50  1  0
 23 51  1  0
 23 52  1  0
 25 53  1  0
 25 54  1  0
 25 55  1  0
 26 56  1  0
 26 57  1  0
 26 58  1  0
 29 59  1  0
 29 60  1  0
 30 61  1  0
 31 62  1  0
M  END
>  <score>  (5) 
-7.715

$$$$
=
     RDKit          3D

 62 66  0  0  0  0  0  0  0  0999 V2000
    1.2000   61.8710   73.0000 C   0  0  2  0  0  0  0  0  0  0  0  0
    1.2610   61.3750   71.6590 O   0  0  0  0  0  0  0  0  0  0  0  0
    2.5700   61.6710   71.1590 C   0  0  0  0  0  0  0  0  0  0  0  0
    3.4520   61.9710   72.2360 O   0  0  0  0  0  0  0  0  0  0  0  0
    2.6730   61.9920   73.4300 C   0  0  2  0  0  0  0  0  0  0  0  0
    3.0000   60.7500   74.2870 C   0  0  0  0  0  0  0  0  0  0  0  0
    1.8050   59.8280   74.0590 C   0  0  2  0  0  0  0  0  0  0  0  0
    0.6090   60.8030   73.9790 C   0  0  1  0  0  0  0  0  0  0  0  0
    0.2770   61.4760   75.3370 C   0  0  0  0  0  0  0  0  0  0  0  0
   -0.6000   60.0030   73.4520 C   0  0  0  0  0  0  0  0  0  0  0  0
   -0.8910   58.6990   74.2320 C   0  0  1  0  0  0  0  0  0  0  0  0
    0.3630   57.8070   74.4760 C   0  0  1  0  0  0  0  0  0  0  0  0
    1.5820   58.6390   75.0070 C   0  0  1  0  0  0  0  0  0  0  0  0
    2.8490   57.7700   75.0870 C   0  0  0  0  0  0  0  0  0  0  0  0
    2.6340   56.4870   75.8780 C   0  0  1  0  0  0  0  0  0  0  0  0
    1.4600   55.7220   75.3250 C   0  0  0  0  0  0  0  0  0  0  0  0
    1.6120   54.4710   74.8520 C   0  0  0  0  0  0  0  0  0  0  0  0
    0.4910   53.7220   74.2520 C   0  0  0  0  0  0  0  0  0  0  0  0
    0.6370   52.5830   73.8260 O   0  0  0  0  0  0  0  0  0  0  0  0
   -0.8140   54.4050   74.1790 C   0  0  0  0  0  0  0  0  0  0  0  0
   -0.9690   55.6480   74.6520 C   0  0  0  0  0  0  0  0  0  0  0  0
    0.1280   56.4840   75.3020 C   0  0  2  0  0  0  0  0  0  0  0  0
   -0.3180   56.7160   76.7640 C   0  0  0  0  0  0  0  0  0  0  0  0
    3.7850   55.7590   75.8020 F   0  0  0  0  0  0  0  0  0  0  0  0
    3.0950   60.4560   70.4060 C   0  0  0  0  0  0  0  0  0  0  0  0
    2.5020   62.8830   70.2330 C   0  0  0  0  0  0  0  0  0  0  0  0
    0.4630   63.2200   73.0240 C   0  0  0  0  0  0  0  0  0  0  0  0
   -0.3630   63.5440   72.1640 O   0  0  0  0  0  0  0  0  0  0  0  0
    0.7970   64.1780   74.1600 C   0  0  0  0  0  0  0  0  0  0  0  0
   -0.3070   65.0170   74.4730 O   0  0  0  0  0  0  0  0  0  0  0  0
   -1.6040   59.0100   75.4200 O   0  0  0  0  0  0  0  0  0  0  0  0
    2.8760   62.9085   74.0035 H   0  0  0  0  0  0  0  0  0  0  0  0
    3.9324   60.2745   73.9487 H   0  0  0  0  0  0  0  0  0  0  0  0
    3.1542   60.9933   75.3486 H   0  0  0  0  0  0  0  0  0  0  0  0
    1.9791   59.2387   73.1466 H   0  0  0  0  0  0  0  0  0  0  0  0
    0.6001   60.8210   76.1595 H   0  0  0  0  0  0  0  0  0  0  0  0
    0.8032   62.4394   75.4071 H   0  0  0  0  0  0  0  0  0  0  0  0
   -0.8077   61.6447   75.4071 H   0  0  0  0  0  0  0  0  0  0  0  0
   -1.4906   60.6459   73.5116 H   0  0  0  0  0  0  0  0  0  0  0  0
   -0.3551   59.7052   72.4218 H   0  0  0  0  0  0  0  0  0  0  0  0
   -1.5275   58.0644   73.5978 H   0  0  0  0  0  0  0  0  0  0  0  0
    0.6141   57.4315   73.4730 H   0  0  0  0  0  0  0  0  0  0  0  0
    1.3666   59.0009   76.0232 H   0  0  0  0  0  0  0  0  0  0  0  0
    3.1591   57.5055   74.0653 H   0  0  0  0  0  0  0  0  0  0  0  0
    3.6206   58.3557   75.6082 H   0  0  0  0  0  0  0  0  0  0  0  0
    2.4042   56.7091   76.9306 H   0  0  0  0  0  0  0  0  0  0  0  0
    2.6007   53.9930   74.9145 H   0  0  0  0  0  0  0  0  0  0  0  0
   -1.6729   53.8855   73.7292 H   0  0  0  0  0  0  0  0  0  0  0  0
   -1.9671   56.1021   74.5647 H   0  0  0  0  0  0  0  0  0  0  0  0
    0.4463   56.3184   77.4480 H   0  0  0  0  0  0  0  0  0  0  0  0
   -0.4443   57.7941   76.9421 H   0  0  0  0  0  0  0  0  0  0  0  0
   -1.2733   56.2005   76.9421 H   0  0  0  0  0  0  0  0  0  0  0  0
    3.4248   59.6927   71.1261 H   0  0  0  0  0  0  0  0  0  0  0  0
    2.2952   60.0426   69.7740 H   0  0  0  0  0  0  0  0  0  0  0  0
    3.9442   60.7551   69.7740 H   0  0  0  0  0  0  0  0  0  0  0  0
    2.4504   63.8021   70.8352 H   0  0  0  0  0  0  0  0  0  0  0  0
    3.4000   62.9104   69.5983 H   0  0  0  0  0  0  0  0  0  0  0  0
    1.6066   62.8098   69.5983 H   0  0  0  0  0  0  0  0  0  0  0  0
    1.0672   63.5944   75.0524 H   0  0  0  0  0  0  0  0  0  0  0  0
    1.6356   64.8143   73.8408 H   0  0  0  0  0  0  0  0  0  0  0  0
   -0.3997   65.0874   75.4561 H   0  0  0  0  0  0  0  0  0  0  0  0
   -1.0539   58.7701   76.2074 H   0  0  0  0  0  0  0  0  0  0  0  0
  2  1  1  0
  3  2  1  0
  4  3  1  0
  5  4  1  0
  5  1  1  0
  6  5  1  0
  7  6  1  0
  8  7  1  0
  8  1  1  0
  8  9  1  1
 10  8  1  0
 11 10  1  0
 12 11  1  0
 13 12  1  0
 13  7  1  0
 14 13  1  0
 15 14  1  0
 16 15  1  0
 17 16  2  0
 18 17  1  0
 19 18  2  0
 20 18  1  0
 21 20  2  0
 22 21  1  0
 22 16  1  0
 22 12  1  0
 22 23  1  1
 24 15  1  0
 25  3  1  0
 26  3  1  0
  1 27  1  6
 28 27  2  0
 29 27  1  0
 30 29  1  0
 31 11  1  0
  5 32  1  1
  6 33  1  0
  6 34  1  0
  7 35  1  6
  9 36  1  0
  9 37  1  0
  9 38  1  0
 10 39  1  0
 10 40  1  0
 11 41  1  6
 12 42  1  6
 13 43  1  1
 14 44  1  0
 14 45  1  0
 15 46  1  1
 17 47  1  0
 20 48  1  0
 21 49  1  0
 23 50  1  0
 23 51  1  0
 23 52  1  0
 25 53  1  0
 25 54  1  0
 25 55  1  0
 26 56  1  0
 26 57  1  0
 26 58  1  0
 29 59  1  0
 29 60  1  0
 30 61  1  0
 31 62  1  0
M  END
>  <score>  (6) 
-7.645

$$$$
=
     RDKit          3D

 62 66  0  0  0  0  0  0  0  0999 V2000
    1.3540   62.1470   73.1070 C   0  0  2  0  0  0  0  0  0  0  0  0
    1.3190   62.7400   74.4090 O   0  0  0  0  0  0  0  0  0  0  0  0
    0.0980   63.4830   74.5020 C   0  0  0  0  0  0  0  0  0  0  0  0
   -0.8080   63.0690   73.4840 O   0  0  0  0  0  0  0  0  0  0  0  0
   -0.1170   62.1410   72.6500 C   0  0  2  0  0  0  0  0  0  0  0  0
   -0.6620   60.7170   72.8920 C   0  0  0  0  0  0  0  0  0  0  0  0
    0.4120   60.0580   73.7520 C   0  0  2  0  0  0  0  0  0  0  0  0
    1.7300   60.6300   73.1800 C   0  0  1  0  0  0  0  0  0  0  0  0
    2.0540   60.1100   71.7540 C   0  0  0  0  0  0  0  0  0  0  0  0
    2.8560   60.2620   74.1690 C   0  0  0  0  0  0  0  0  0  0  0  0
    2.9180   58.7600   74.5350 C   0  0  1  0  0  0  0  0  0  0  0  0
    1.5430   58.1410   74.9280 C   0  0  1  0  0  0  0  0  0  0  0  0
    0.4110   58.5300   73.9140 C   0  0  1  0  0  0  0  0  0  0  0  0
   -0.9620   58.0430   74.4080 C   0  0  0  0  0  0  0  0  0  0  0  0
   -0.9730   56.5590   74.7490 C   0  0  1  0  0  0  0  0  0  0  0  0
    0.1240   56.2380   75.7300 C   0  0  0  0  0  0  0  0  0  0  0  0
   -0.1590   55.7100   76.9350 C   0  0  0  0  0  0  0  0  0  0  0  0
    0.8910   55.4420   77.9360 C   0  0  0  0  0  0  0  0  0  0  0  0
    0.6250   54.9590   79.0290 O   0  0  0  0  0  0  0  0  0  0  0  0
    2.2770   55.7880   77.5680 C   0  0  0  0  0  0  0  0  0  0  0  0
    2.5620   56.3110   76.3700 C   0  0  0  0  0  0  0  0  0  0  0  0
    1.5440   56.6010   75.2730 C   0  0  2  0  0  0  0  0  0  0  0  0
    1.9160   55.6840   74.0860 C   0  0  0  0  0  0  0  0  0  0  0  0
   -2.2020   56.2630   75.2600 F   0  0  0  0  0  0  0  0  0  0  0  0
   -0.5310   63.2270   75.8650 C   0  0  0  0  0  0  0  0  0  0  0  0
    0.3890   64.9700   74.3190 C   0  0  0  0  0  0  0  0  0  0  0  0
    2.2600   62.9730   72.1810 C   0  0  0  0  0  0  0  0  0  0  0  0
    3.4840   63.0390   72.3300 O   0  0  0  0  0  0  0  0  0  0  0  0
    1.5870   63.7430   71.0510 C   0  0  0  0  0  0  0  0  0  0  0  0
    1.7780   63.0970   69.7990 O   0  0  0  0  0  0  0  0  0  0  0  0
    3.5820   58.0500   73.5010 O   0  0  0  0  0  0  0  0  0  0  0  0
   -0.2368   62.4142   71.5912 H   0  0  0  0  0  0  0  0  0  0  0  0
   -1.6241   60.7508   73.4241 H   0  0  0  0  0  0  0  0  0  0  0  0
   -0.8534   60.1700   71.9570 H   0  0  0  0  0  0  0  0  0  0  0  0
    0.2238   60.3035   74.8076 H   0  0  0  0  0  0  0  0  0  0  0  0
    2.6344   59.1784   71.8265 H   0  0  0  0  0  0  0  0  0  0  0  0
    1.1163   59.9166   71.2124 H   0  0  0  0  0  0  0  0  0  0  0  0
    2.6409   60.8665   71.2124 H   0  0  0  0  0  0  0  0  0  0  0  0
    3.8177   60.5462   73.7169 H   0  0  0  0  0  0  0  0  0  0  0  0
    2.6446   60.8046   75.1022 H   0  0  0  0  0  0  0  0  0  0  0  0
    3.5072   58.6650   75.4590 H   0  0  0  0  0  0  0  0  0  0  0  0
    1.3133   58.6114   75.8955 H   0  0  0  0  0  0  0  0  0  0  0  0
    0.6025   58.0466   72.9446 H   0  0  0  0  0  0  0  0  0  0  0  0
   -1.2340   58.6128   75.3088 H   0  0  0  0  0  0  0  0  0  0  0  0
   -1.6830   58.2012   73.5925 H   0  0  0  0  0  0  0  0  0  0  0  0
   -0.7875   55.9501   73.8519 H   0  0  0  0  0  0  0  0  0  0  0  0
   -1.2042   55.4712   77.1809 H   0  0  0  0  0  0  0  0  0  0  0  0
    3.0886   55.6133   78.2896 H   0  0  0  0  0  0  0  0  0  0  0  0
    3.6148   56.5508   76.1599 H   0  0  0  0  0  0  0  0  0  0  0  0
    2.3037   54.7283   74.4685 H   0  0  0  0  0  0  0  0  0  0  0  0
    1.0223   55.4979   73.4723 H   0  0  0  0  0  0  0  0  0  0  0  0
    2.6868   56.1731   73.4723 H   0  0  0  0  0  0  0  0  0  0  0  0
    0.1773   63.5153   76.6557 H   0  0  0  0  0  0  0  0  0  0  0  0
   -1.4509   63.8223   75.9619 H   0  0  0  0  0  0  0  0  0  0  0  0
   -0.7738   62.1585   75.9619 H   0  0  0  0  0  0  0  0  0  0  0  0
    0.4828   65.4493   75.3046 H   0  0  0  0  0  0  0  0  0  0  0  0
    1.3284   65.0937   73.7602 H   0  0  0  0  0  0  0  0  0  0  0  0
   -0.4345   65.4387   73.7602 H   0  0  0  0  0  0  0  0  0  0  0  0
    0.5088   63.8123   71.2574 H   0  0  0  0  0  0  0  0  0  0  0  0
    2.0386   64.7446   70.9969 H   0  0  0  0  0  0  0  0  0  0  0  0
    2.0554   62.1588   69.9507 H   0  0  0  0  0  0  0  0  0  0  0  0
    4.2009   57.3882   73.8999 H   0  0  0  0  0  0  0  0  0  0  0  0
  2  1  1  0
  3  2  1  0
  4  3  1  0
  5  4  1  0
  5  1  1  0
  6  5  1  0
  7  6  1  0
  8  7  1  0
  8  1  1  0
  8  9  1  6
 10  8  1  0
 11 10  1  0
 12 11  1  0
 13 12  1  0
 13  7  1  0
 14 13  1  0
 15 14  1  0
 16 15  1  0
 17 16  2  0
 18 17  1  0
 19 18  2  0
 20 18  1  0
 21 20  2  0
 22 21  1  0
 22 16  1  0
 22 12  1  0
 22 23  1  6
 24 15  1  0
 25  3  1  0
 26  3  1  0
  1 27  1  6
 28 27  2  0
 29 27  1  0
 30 29  1  0
 31 11  1  0
  5 32  1  6
  6 33  1  0
  6 34  1  0
  7 35  1  1
  9 36  1  0
  9 37  1  0
  9 38  1  0
 10 39  1  0
 10 40  1  0
 11 41  1  1
 12 42  1  1
 13 43  1  6
 14 44  1  0
 14 45  1  0
 15 46  1  6
 17 47  1  0
 20 48  1  0
 21 49  1  0
 23 50  1  0
 23 51  1  0
 23 52  1  0
 25 53  1  0
 25 54  1  0
 25 55  1  0
 26 56  1  0
 26 57  1  0
 26 58  1  0
 29 59  1  0
 29 60  1  0
 30 61  1  0
 31 62  1  0
M  END
>  <score>  (7) 
-7.376

$$$$
=
     RDKit          3D

 62 66  0  0  0  0  0  0  0  0999 V2000
   -0.6190   62.0090   75.6680 C   0  0  2  0  0  0  0  0  0  0  0  0
   -0.4850   62.8720   74.5340 O   0  0  0  0  0  0  0  0  0  0  0  0
    0.2210   62.1380   73.5270 C   0  0  0  0  0  0  0  0  0  0  0  0
    0.1900   60.7450   73.8210 O   0  0  0  0  0  0  0  0  0  0  0  0
   -0.4320   60.5920   75.0950 C   0  0  2  0  0  0  0  0  0  0  0  0
   -1.8400   59.9840   74.9170 C   0  0  0  0  0  0  0  0  0  0  0  0
   -2.7760   61.1760   75.1040 C   0  0  2  0  0  0  0  0  0  0  0  0
   -2.0870   62.0040   76.2120 C   0  0  1  0  0  0  0  0  0  0  0  0
   -2.1190   61.3120   77.6010 C   0  0  0  0  0  0  0  0  0  0  0  0
   -2.7910   63.3760   76.2640 C   0  0  0  0  0  0  0  0  0  0  0  0
   -4.3300   63.2980   76.3900 C   0  0  1  0  0  0  0  0  0  0  0  0
   -5.0050   62.3110   75.3900 C   0  0  1  0  0  0  0  0  0  0  0  0
   -4.2720   60.9240   75.3490 C   0  0  1  0  0  0  0  0  0  0  0  0
   -4.8540   60.0270   74.2430 C   0  0  0  0  0  0  0  0  0  0  0  0
   -6.3670   59.8820   74.3390 C   0  0  1  0  0  0  0  0  0  0  0  0
   -7.0230   61.2370   74.3670 C   0  0  0  0  0  0  0  0  0  0  0  0
   -7.9090   61.5960   73.4190 C   0  0  0  0  0  0  0  0  0  0  0  0
   -8.5210   62.9390   73.3910 C   0  0  0  0  0  0  0  0  0  0  0  0
   -9.3290   63.2560   72.5270 O   0  0  0  0  0  0  0  0  0  0  0  0
   -8.1140   63.8870   74.4450 C   0  0  0  0  0  0  0  0  0  0  0  0
   -7.2350   63.5320   75.3900 C   0  0  0  0  0  0  0  0  0  0  0  0
   -6.5720   62.1650   75.5040 C   0  0  2  0  0  0  0  0  0  0  0  0
   -7.0590   61.5590   76.8390 C   0  0  0  0  0  0  0  0  0  0  0  0
   -6.7790   59.1500   73.2630 F   0  0  0  0  0  0  0  0  0  0  0  0
   -0.4500   62.3800   72.1810 C   0  0  0  0  0  0  0  0  0  0  0  0
    1.6760   62.5950   73.4870 C   0  0  0  0  0  0  0  0  0  0  0  0
    0.4390   62.3660   76.7240 C   0  0  0  0  0  0  0  0  0  0  0  0
    1.1840   61.5230   77.2340 O   0  0  0  0  0  0  0  0  0  0  0  0
    0.5390   63.8270   77.1470 C   0  0  0  0  0  0  0  0  0  0  0  0
    1.4190   64.5530   76.2990 O   0  0  0  0  0  0  0  0  0  0  0  0
   -4.6800   63.0570   77.7450 O   0  0  0  0  0  0  0  0  0  0  0  0
    0.1770   59.9457   75.7442 H   0  0  0  0  0  0  0  0  0  0  0  0
   -1.9551   59.5486   73.9134 H   0  0  0  0  0  0  0  0  0  0  0  0
   -2.0439   59.1671   75.6248 H   0  0  0  0  0  0  0  0  0  0  0  0
   -2.8849   61.6977   74.1417 H   0  0  0  0  0  0  0  0  0  0  0  0
   -2.0837   62.0756   78.3920 H   0  0  0  0  0  0  0  0  0  0  0  0
   -3.0452   60.7265   77.6977 H   0  0  0  0  0  0  0  0  0  0  0  0
   -1.2508   60.6435   77.6977 H   0  0  0  0  0  0  0  0  0  0  0  0
   -2.4021   63.9299   77.1312 H   0  0  0  0  0  0  0  0  0  0  0  0
   -2.5786   63.8751   75.3071 H   0  0  0  0  0  0  0  0  0  0  0  0
   -4.7397   64.2739   76.0902 H   0  0  0  0  0  0  0  0  0  0  0  0
   -4.8729   62.7986   74.4129 H   0  0  0  0  0  0  0  0  0  0  0  0
   -4.4159   60.4019   76.3065 H   0  0  0  0  0  0  0  0  0  0  0  0
   -4.6039   60.4660   73.2659 H   0  0  0  0  0  0  0  0  0  0  0  0
   -4.4160   59.0251   74.3631 H   0  0  0  0  0  0  0  0  0  0  0  0
   -6.6530   59.3693   75.2693 H   0  0  0  0  0  0  0  0  0  0  0  0
   -8.1849   60.8672   72.6426 H   0  0  0  0  0  0  0  0  0  0  0  0
   -8.5393   64.9014   74.4547 H   0  0  0  0  0  0  0  0  0  0  0  0
   -6.9702   64.2875   76.1444 H   0  0  0  0  0  0  0  0  0  0  0  0
   -6.6132   62.1137   77.6778 H   0  0  0  0  0  0  0  0  0  0  0  0
   -8.1554   61.6285   76.8949 H   0  0  0  0  0  0  0  0  0  0  0  0
   -6.7552   60.5033   76.8949 H   0  0  0  0  0  0  0  0  0  0  0  0
   -1.4735   62.7491   72.3426 H   0  0  0  0  0  0  0  0  0  0  0  0
    0.1242   63.1277   71.6142 H   0  0  0  0  0  0  0  0  0  0  0  0
   -0.4852   61.4379   71.6142 H   0  0  0  0  0  0  0  0  0  0  0  0
    2.0516   62.7130   74.5141 H   0  0  0  0  0  0  0  0  0  0  0  0
    2.2819   61.8439   72.9590 H   0  0  0  0  0  0  0  0  0  0  0  0
    1.7436   63.5576   72.9590 H   0  0  0  0  0  0  0  0  0  0  0  0
   -0.4610   64.2827   77.0994 H   0  0  0  0  0  0  0  0  0  0  0  0
    0.9364   63.8644   78.1720 H   0  0  0  0  0  0  0  0  0  0  0  0
    2.0528   65.0759   76.8512 H   0  0  0  0  0  0  0  0  0  0  0  0
   -4.0278   63.5061   78.3392 H   0  0  0  0  0  0  0  0  0  0  0  0
  2  1  1  0
  3  2  1  0
  4  3  1  0
  5  4  1  0
  5  1  1  0
  6  5  1  0
  7  6  1  0
  8  7  1  0
  8  1  1  0
  8  9  1  1
 10  8  1  0
 11 10  1  0
 12 11  1  0
 13 12  1  0
 13  7  1  0
 14 13  1  0
 15 14  1  0
 16 15  1  0
 17 16  2  0
 18 17  1  0
 19 18  2  0
 20 18  1  0
 21 20  2  0
 22 21  1  0
 22 16  1  0
 22 12  1  0
 22 23  1  1
 24 15  1  0
 25  3  1  0
 26  3  1  0
  1 27  1  1
 28 27  2  0
 29 27  1  0
 30 29  1  0
 31 11  1  0
  5 32  1  1
  6 33  1  0
  6 34  1  0
  7 35  1  6
  9 36  1  0
  9 37  1  0
  9 38  1  0
 10 39  1  0
 10 40  1  0
 11 41  1  6
 12 42  1  6
 13 43  1  1
 14 44  1  0
 14 45  1  0
 15 46  1  1
 17 47  1  0
 20 48  1  0
 21 49  1  0
 23 50  1  0
 23 51  1  0
 23 52  1  0
 25 53  1  0
 25 54  1  0
 25 55  1  0
 26 56  1  0
 26 57  1  0
 26 58  1  0
 29 59  1  0
 29 60  1  0
 30 61  1  0
 31 62  1  0
M  END
>  <score>  (8) 
-7.031

$$$$
=
     RDKit          3D

 62 66  0  0  0  0  0  0  0  0999 V2000
   -0.1990   62.7100   77.6110 C   0  0  2  0  0  0  0  0  0  0  0  0
    0.5940   63.8570   77.9340 O   0  0  0  0  0  0  0  0  0  0  0  0
    1.3970   63.5090   79.0670 C   0  0  0  0  0  0  0  0  0  0  0  0
    1.4370   62.0940   79.2250 O   0  0  0  0  0  0  0  0  0  0  0  0
    0.5490   61.5320   78.2610 C   0  0  2  0  0  0  0  0  0  0  0  0
    1.3610   60.8380   77.1470 C   0  0  0  0  0  0  0  0  0  0  0  0
    1.2880   61.8200   75.9800 C   0  0  2  0  0  0  0  0  0  0  0  0
   -0.1460   62.3900   76.0800 C   0  0  1  0  0  0  0  0  0  0  0  0
   -1.2430   61.3490   75.7320 C   0  0  0  0  0  0  0  0  0  0  0  0
   -0.2210   63.6070   75.1340 C   0  0  0  0  0  0  0  0  0  0  0  0
    0.2530   63.3220   73.6900 C   0  0  1  0  0  0  0  0  0  0  0  0
    1.6160   62.5720   73.6000 C   0  0  1  0  0  0  0  0  0  0  0  0
    1.6750   61.3420   74.5720 C   0  0  1  0  0  0  0  0  0  0  0  0
    3.0810   60.7160   74.5840 C   0  0  0  0  0  0  0  0  0  0  0  0
    3.5870   60.3790   73.1880 C   0  0  1  0  0  0  0  0  0  0  0  0
    3.5180   61.5920   72.2980 C   0  0  0  0  0  0  0  0  0  0  0  0
    4.6280   62.0900   71.7220 C   0  0  0  0  0  0  0  0  0  0  0  0
    4.5970   63.3100   70.8930 C   0  0  0  0  0  0  0  0  0  0  0  0
    5.6110   63.7550   70.3710 O   0  0  0  0  0  0  0  0  0  0  0  0
    3.2920   63.9790   70.7270 C   0  0  0  0  0  0  0  0  0  0  0  0
    2.1860   63.4850   71.2970 C   0  0  0  0  0  0  0  0  0  0  0  0
    2.1260   62.2220   72.1490 C   0  0  2  0  0  0  0  0  0  0  0  0
    1.2280   61.2260   71.3810 C   0  0  0  0  0  0  0  0  0  0  0  0
    4.8670   59.9230   73.3130 F   0  0  0  0  0  0  0  0  0  0  0  0
    2.8110   64.0280   78.8440 C   0  0  0  0  0  0  0  0  0  0  0  0
    0.7960   64.1230   80.3280 C   0  0  0  0  0  0  0  0  0  0  0  0
   -1.6230   62.8870   78.1640 C   0  0  0  0  0  0  0  0  0  0  0  0
   -2.1780   62.0320   78.8610 O   0  0  0  0  0  0  0  0  0  0  0  0
   -2.3550   64.1750   77.8080 C   0  0  0  0  0  0  0  0  0  0  0  0
   -2.2140   65.1510   78.8310 O   0  0  0  0  0  0  0  0  0  0  0  0
   -0.7910   62.6850   72.9680 O   0  0  0  0  0  0  0  0  0  0  0  0
   -0.1274   60.8079   78.7386 H   0  0  0  0  0  0  0  0  0  0  0  0
    2.4030   60.6797   77.4618 H   0  0  0  0  0  0  0  0  0  0  0  0
    0.9693   59.8424   76.8913 H   0  0  0  0  0  0  0  0  0  0  0  0
    2.0881   62.5666   76.0915 H   0  0  0  0  0  0  0  0  0  0  0  0
   -1.6709   60.9429   76.6605 H   0  0  0  0  0  0  0  0  0  0  0  0
   -2.0361   61.8346   75.1444 H   0  0  0  0  0  0  0  0  0  0  0  0
   -0.7996   60.5316   75.1444 H   0  0  0  0  0  0  0  0  0  0  0  0
   -1.2663   63.9469   75.0925 H   0  0  0  0  0  0  0  0  0  0  0  0
    0.4602   64.3669   75.5445 H   0  0  0  0  0  0  0  0  0  0  0  0
    0.4696   64.2892   73.2129 H   0  0  0  0  0  0  0  0  0  0  0  0
    2.3468   63.3183   73.9450 H   0  0  0  0  0  0  0  0  0  0  0  0
    0.9730   60.5676   74.2293 H   0  0  0  0  0  0  0  0  0  0  0  0
    3.7790   61.4278   75.0488 H   0  0  0  0  0  0  0  0  0  0  0  0
    3.0207   59.7754   75.1512 H   0  0  0  0  0  0  0  0  0  0  0  0
    2.9608   59.6045   72.7211 H   0  0  0  0  0  0  0  0  0  0  0  0
    5.5865   61.5721   71.8739 H   0  0  0  0  0  0  0  0  0  0  0  0
    3.2271   64.8978   70.1256 H   0  0  0  0  0  0  0  0  0  0  0  0
    1.2460   64.0338   71.1381 H   0  0  0  0  0  0  0  0  0  0  0  0
    0.6698   60.6069   72.0987 H   0  0  0  0  0  0  0  0  0  0  0  0
    0.5204   61.7825   70.7488 H   0  0  0  0  0  0  0  0  0  0  0  0
    1.8545   60.5797   70.7488 H   0  0  0  0  0  0  0  0  0  0  0  0
    3.2941   64.2053   79.8162 H   0  0  0  0  0  0  0  0  0  0  0  0
    3.3897   63.2837   78.2773 H   0  0  0  0  0  0  0  0  0  0  0  0
    2.7707   64.9700   78.2773 H   0  0  0  0  0  0  0  0  0  0  0  0
    1.2511   63.6581   81.2150 H   0  0  0  0  0  0  0  0  0  0  0  0
    0.9937   65.2050   80.3390 H   0  0  0  0  0  0  0  0  0  0  0  0
   -0.2900   63.9485   80.3390 H   0  0  0  0  0  0  0  0  0  0  0  0
   -1.9397   64.5756   76.8715 H   0  0  0  0  0  0  0  0  0  0  0  0
   -3.4246   63.9451   77.6938 H   0  0  0  0  0  0  0  0  0  0  0  0
   -2.2773   64.7126   79.7164 H   0  0  0  0  0  0  0  0  0  0  0  0
   -1.4386   62.2898   73.6040 H   0  0  0  0  0  0  0  0  0  0  0  0
  2  1  1  0
  3  2  1  0
  4  3  1  0
  5  4  1  0
  5  1  1  0
  6  5  1  0
  7  6  1  0
  8  7  1  0
  8  1  1  0
  8  9  1  6
 10  8  1  0
 11 10  1  0
 12 11  1  0
 13 12  1  0
 13  7  1  0
 14 13  1  0
 15 14  1  0
 16 15  1  0
 17 16  2  0
 18 17  1  0
 19 18  2  0
 20 18  1  0
 21 20  2  0
 22 21  1  0
 22 16  1  0
 22 12  1  0
 22 23  1  6
 24 15  1  0
 25  3  1  0
 26  3  1  0
  1 27  1  1
 28 27  2  0
 29 27  1  0
 30 29  1  0
 31 11  1  0
  5 32  1  1
  6 33  1  0
  6 34  1  0
  7 35  1  1
  9 36  1  0
  9 37  1  0
  9 38  1  0
 10 39  1  0
 10 40  1  0
 11 41  1  6
 12 42  1  1
 13 43  1  6
 14 44  1  0
 14 45  1  0
 15 46  1  6
 17 47  1  0
 20 48  1  0
 21 49  1  0
 23 50  1  0
 23 51  1  0
 23 52  1  0
 25 53  1  0
 25 54  1  0
 25 55  1  0
 26 56  1  0
 26 57  1  0
 26 58  1  0
 29 59  1  0
 29 60  1  0
 30 61  1  0
 31 62  1  0
M  END
>  <score>  (9) 
-6.906

$$$$
