=
     RDKit          3D

 58 62  0  0  0  0  0  0  0  0999 V2000
    2.6630   62.0410   71.4940 C   0  0  0  0  0  0  0  0  0  0  0  0
    1.4610   62.0600   72.2130 C   0  0  0  0  0  0  0  0  0  0  0  0
    0.9070   60.9050   72.7530 C   0  0  0  0  0  0  0  0  0  0  0  0
   -0.2490   60.9930   73.4200 N   0  0  0  0  0  0  0  0  0  0  0  0
   -0.7900   59.8780   73.9320 C   0  0  0  0  0  0  0  0  0  0  0  0
   -0.2070   58.6770   73.8230 N   0  0  0  0  0  0  0  0  0  0  0  0
    0.9570   58.5990   73.1670 C   0  0  0  0  0  0  0  0  0  0  0  0
    1.5790   59.6990   72.5770 C   0  0  0  0  0  0  0  0  0  0  0  0
    2.7900   59.6570   71.8420 C   0  0  0  0  0  0  0  0  0  0  0  0
    3.3320   60.8210   71.2990 C   0  0  0  0  0  0  0  0  0  0  0  0
   -1.9800   59.9760   74.6210 N   0  0  0  0  0  0  0  0  0  0  0  0
   -2.6240   58.7410   75.0670 C   0  0  0  0  0  0  0  0  0  0  0  0
   -3.8290   59.0460   75.9740 C   0  0  0  0  0  0  0  0  0  0  0  0
   -4.8070   59.9420   75.3470 N   0  0  0  0  0  0  0  0  0  0  0  0
   -4.2890   60.8410   74.3050 C   0  0  0  0  0  0  0  0  0  0  0  0
   -2.7950   61.1810   74.4740 C   0  0  0  0  0  0  0  0  0  0  0  0
   -6.1420   59.8440   75.7230 C   0  0  0  0  0  0  0  0  0  0  0  0
   -6.4920   59.0830   76.6300 O   0  0  0  0  0  0  0  0  0  0  0  0
   -7.1610   60.7420   75.0050 C   0  0  2  0  0  0  0  0  0  0  0  0
   -7.1500   60.4680   73.5040 C   0  0  0  0  0  0  0  0  0  0  0  0
   -8.1960   61.2060   72.8520 O   0  0  0  0  0  0  0  0  0  0  0  0
   -8.2270   62.5080   73.2790 C   0  0  0  0  0  0  0  0  0  0  0  0
   -7.5680   62.9520   74.4300 C   0  0  0  0  0  0  0  0  0  0  0  0
   -6.8530   62.1190   75.2510 O   0  0  0  0  0  0  0  0  0  0  0  0
   -7.6120   64.2980   74.7850 C   0  0  0  0  0  0  0  0  0  0  0  0
   -8.3420   65.1980   74.0070 C   0  0  0  0  0  0  0  0  0  0  0  0
   -9.0230   64.7500   72.8740 C   0  0  0  0  0  0  0  0  0  0  0  0
   -8.9660   63.4040   72.5090 C   0  0  0  0  0  0  0  0  0  0  0  0
    1.5130   57.3140   73.1010 N   0  0  0  0  0  0  0  0  0  0  0  0
    2.4130   64.2350   70.5770 C   0  0  0  0  0  0  0  0  0  0  0  0
    3.2530   63.1490   70.9410 O   0  0  0  0  0  0  0  0  0  0  0  0
    4.4980   60.8750   70.5780 O   0  0  0  0  0  0  0  0  0  0  0  0
    5.7200   60.9090   71.3000 C   0  0  0  0  0  0  0  0  0  0  0  0
    0.9395   63.0181   72.3547 H   0  0  0  0  0  0  0  0  0  0  0  0
    3.3072   58.6968   71.6986 H   0  0  0  0  0  0  0  0  0  0  0  0
   -2.9688   58.1769   74.1878 H   0  0  0  0  0  0  0  0  0  0  0  0
   -1.8935   58.1511   75.6401 H   0  0  0  0  0  0  0  0  0  0  0  0
   -4.3300   58.0985   76.2214 H   0  0  0  0  0  0  0  0  0  0  0  0
   -3.4451   59.5543   76.8708 H   0  0  0  0  0  0  0  0  0  0  0  0
   -4.4275   60.3569   73.3270 H   0  0  0  0  0  0  0  0  0  0  0  0
   -4.8471   61.7855   74.3855 H   0  0  0  0  0  0  0  0  0  0  0  0
   -2.4534   61.7367   73.5883 H   0  0  0  0  0  0  0  0  0  0  0  0
   -2.6816   61.7853   75.3861 H   0  0  0  0  0  0  0  0  0  0  0  0
   -8.1647   60.5184   75.3956 H   0  0  0  0  0  0  0  0  0  0  0  0
   -6.1783   60.7717   73.0873 H   0  0  0  0  0  0  0  0  0  0  0  0
   -7.3141   59.3933   73.3365 H   0  0  0  0  0  0  0  0  0  0  0  0
   -7.0727   64.6510   75.6764 H   0  0  0  0  0  0  0  0  0  0  0  0
   -8.3806   66.2611   74.2870 H   0  0  0  0  0  0  0  0  0  0  0  0
   -9.6057   65.4590   72.2676 H   0  0  0  0  0  0  0  0  0  0  0  0
   -9.5029   63.0515   71.6160 H   0  0  0  0  0  0  0  0  0  0  0  0
    2.4083   57.1646   72.6142 H   0  0  0  0  0  0  0  0  0  0  0  0
    1.0263   56.5191   73.5394 H   0  0  0  0  0  0  0  0  0  0  0  0
    2.0336   64.7256   71.4855 H   0  0  0  0  0  0  0  0  0  0  0  0
    2.9879   64.9597   69.9818 H   0  0  0  0  0  0  0  0  0  0  0  0
    1.5670   63.8607   69.9818 H   0  0  0  0  0  0  0  0  0  0  0  0
    5.5084   60.9031   72.3794 H   0  0  0  0  0  0  0  0  0  0  0  0
    6.3242   60.0273   71.0400 H   0  0  0  0  0  0  0  0  0  0  0  0
    6.2742   61.8229   71.0400 H   0  0  0  0  0  0  0  0  0  0  0  0
  2  1  2  0
  3  2  1  0
  4  3  2  0
  5  4  1  0
  6  5  2  0
  7  6  1  0
  8  7  2  0
  8  3  1  0
  9  8  1  0
 10  9  2  0
 10  1  1  0
 11  5  1  0
 12 11  1  0
 13 12  1  0
 14 13  1  0
 15 14  1  0
 16 15  1  0
 16 11  1  0
 17 14  1  0
 18 17  2  0
 19 17  1  0
 20 19  1  0
 21 20  1  0
 22 21  1  0
 23 22  2  0
 24 23  1  0
 24 19  1  0
 25 23  1  0
 26 25  2  0
 27 26  1  0
 28 27  2  0
 28 22  1  0
 29  7  1  0
 31 30  1  0
 31  1  1  0
 32 10  1  0
 33 32  1  0
  2 34  1  0
  9 35  1  0
 12 36  1  0
 12 37  1  0
 13 38  1  0
 13 39  1  0
 15 40  1  0
 15 41  1  0
 16 42  1  0
 16 43  1  0
 19 44  1  1
 20 45  1  0
 20 46  1  0
 25 47  1  0
 26 48  1  0
 27 49  1  0
 28 50  1  0
 29 51  1  0
 29 52  1  0
 30 53  1  0
 30 54  1  0
 30 55  1  0
 33 56  1  0
 33 57  1  0
 33 58  1  0
M  END
>  <score>  (1) 
-8.52

$$$$
=
     RDKit          3D

 58 62  0  0  0  0  0  0  0  0999 V2000
    1.9810   60.2370   72.5180 C   0  0  0  0  0  0  0  0  0  0  0  0
    0.7480   60.6210   73.0620 C   0  0  0  0  0  0  0  0  0  0  0  0
   -0.1340   59.6980   73.6120 C   0  0  0  0  0  0  0  0  0  0  0  0
   -1.2990   60.1320   74.1050 N   0  0  0  0  0  0  0  0  0  0  0  0
   -2.1550   59.2420   74.6270 C   0  0  0  0  0  0  0  0  0  0  0  0
   -1.8820   57.9320   74.6960 N   0  0  0  0  0  0  0  0  0  0  0  0
   -0.7080   57.5080   74.2130 C   0  0  0  0  0  0  0  0  0  0  0  0
    0.2310   58.3560   73.6280 C   0  0  0  0  0  0  0  0  0  0  0  0
    1.4680   57.9450   73.0710 C   0  0  0  0  0  0  0  0  0  0  0  0
    2.3420   58.8800   72.5160 C   0  0  0  0  0  0  0  0  0  0  0  0
   -3.3530   59.6960   75.1360 N   0  0  0  0  0  0  0  0  0  0  0  0
   -4.3320   58.7070   75.5870 C   0  0  0  0  0  0  0  0  0  0  0  0
   -5.5160   59.3880   76.2930 C   0  0  0  0  0  0  0  0  0  0  0  0
   -6.1630   60.4150   75.4680 N   0  0  0  0  0  0  0  0  0  0  0  0
   -5.3220   61.0430   74.4380 C   0  0  0  0  0  0  0  0  0  0  0  0
   -3.8200   61.0360   74.7820 C   0  0  0  0  0  0  0  0  0  0  0  0
   -7.5130   60.6790   75.6650 C   0  0  0  0  0  0  0  0  0  0  0  0
   -8.1430   60.1290   76.5740 O   0  0  0  0  0  0  0  0  0  0  0  0
   -8.1880   61.7070   74.7440 C   0  0  2  0  0  0  0  0  0  0  0  0
   -8.0150   61.3090   73.2810 C   0  0  0  0  0  0  0  0  0  0  0  0
   -8.7620   62.1930   72.4290 O   0  0  0  0  0  0  0  0  0  0  0  0
   -8.5640   63.5040   72.7770 C   0  0  0  0  0  0  0  0  0  0  0  0
   -8.0020   63.8950   73.9960 C   0  0  0  0  0  0  0  0  0  0  0  0
   -7.6220   63.0040   74.9660 O   0  0  0  0  0  0  0  0  0  0  0  0
   -7.7970   65.2450   74.2700 C   0  0  0  0  0  0  0  0  0  0  0  0
   -8.1840   66.2100   73.3370 C   0  0  0  0  0  0  0  0  0  0  0  0
   -8.7710   65.8200   72.1320 C   0  0  0  0  0  0  0  0  0  0  0  0
   -8.9630   64.4660   71.8520 C   0  0  0  0  0  0  0  0  0  0  0  0
   -0.4870   56.1280   74.3280 N   0  0  0  0  0  0  0  0  0  0  0  0
    2.5670   61.6840   70.7070 C   0  0  0  0  0  0  0  0  0  0  0  0
    2.8880   61.1050   71.9640 O   0  0  0  0  0  0  0  0  0  0  0  0
    3.5580   58.5750   71.9590 O   0  0  0  0  0  0  0  0  0  0  0  0
    3.5620   57.8740   70.7250 C   0  0  0  0  0  0  0  0  0  0  0  0
    0.4696   61.6852   73.0535 H   0  0  0  0  0  0  0  0  0  0  0  0
    1.7412   56.8795   73.0764 H   0  0  0  0  0  0  0  0  0  0  0  0
   -4.7054   58.1473   74.7167 H   0  0  0  0  0  0  0  0  0  0  0  0
   -3.8418   58.0276   76.2999 H   0  0  0  0  0  0  0  0  0  0  0  0
   -6.2621   58.6201   76.5455 H   0  0  0  0  0  0  0  0  0  0  0  0
   -5.1207   59.8877   77.1897 H   0  0  0  0  0  0  0  0  0  0  0  0
   -5.4651   60.4992   73.4926 H   0  0  0  0  0  0  0  0  0  0  0  0
   -5.6321   62.0958   74.3650 H   0  0  0  0  0  0  0  0  0  0  0  0
   -3.2527   61.3924   73.9096 H   0  0  0  0  0  0  0  0  0  0  0  0
   -3.6635   61.6942   75.6493 H   0  0  0  0  0  0  0  0  0  0  0  0
   -9.2630   61.7347   74.9757 H   0  0  0  0  0  0  0  0  0  0  0  0
   -6.9492   61.3635   73.0143 H   0  0  0  0  0  0  0  0  0  0  0  0
   -8.3872   60.2830   73.1442 H   0  0  0  0  0  0  0  0  0  0  0  0
   -7.3315   65.5506   75.2187 H   0  0  0  0  0  0  0  0  0  0  0  0
   -8.0262   67.2772   73.5519 H   0  0  0  0  0  0  0  0  0  0  0  0
   -9.0829   66.5812   71.4017 H   0  0  0  0  0  0  0  0  0  0  0  0
   -9.4281   64.1595   70.9035 H   0  0  0  0  0  0  0  0  0  0  0  0
    0.3914   55.7165   73.9816 H   0  0  0  0  0  0  0  0  0  0  0  0
   -1.2030   55.5259   74.7589 H   0  0  0  0  0  0  0  0  0  0  0  0
    2.0392   62.6360   70.8659 H   0  0  0  0  0  0  0  0  0  0  0  0
    3.4921   61.8677   70.1409 H   0  0  0  0  0  0  0  0  0  0  0  0
    1.9211   60.9967   70.1409 H   0  0  0  0  0  0  0  0  0  0  0  0
    3.5682   56.7912   70.9185 H   0  0  0  0  0  0  0  0  0  0  0  0
    2.6623   58.1386   70.1501 H   0  0  0  0  0  0  0  0  0  0  0  0
    4.4586   58.1489   70.1501 H   0  0  0  0  0  0  0  0  0  0  0  0
  2  1  2  0
  3  2  1  0
  4  3  2  0
  5  4  1  0
  6  5  2  0
  7  6  1  0
  8  7  2  0
  8  3  1  0
  9  8  1  0
 10  9  2  0
 10  1  1  0
 11  5  1  0
 12 11  1  0
 13 12  1  0
 14 13  1  0
 15 14  1  0
 16 15  1  0
 16 11  1  0
 17 14  1  0
 18 17  2  0
 19 17  1  0
 20 19  1  0
 21 20  1  0
 22 21  1  0
 23 22  2  0
 24 23  1  0
 24 19  1  0
 25 23  1  0
 26 25  2  0
 27 26  1  0
 28 27  2  0
 28 22  1  0
 29  7  1  0
 31 30  1  0
 31  1  1  0
 32 10  1  0
 33 32  1  0
  2 34  1  0
  9 35  1  0
 12 36  1  0
 12 37  1  0
 13 38  1  0
 13 39  1  0
 15 40  1  0
 15 41  1  0
 16 42  1  0
 16 43  1  0
 19 44  1  1
 20 45  1  0
 20 46  1  0
 25 47  1  0
 26 48  1  0
 27 49  1  0
 28 50  1  0
 29 51  1  0
 29 52  1  0
 30 53  1  0
 30 54  1  0
 30 55  1  0
 33 56  1  0
 33 57  1  0
 33 58  1  0
M  END
>  <score>  (2) 
-8.35

$$$$
=
     RDKit          3D

 58 62  0  0  0  0  0  0  0  0999 V2000
    0.0280   64.9630   72.3840 C   0  0  0  0  0  0  0  0  0  0  0  0
    0.2660   63.7560   73.0540 C   0  0  0  0  0  0  0  0  0  0  0  0
    0.9460   62.7030   72.4540 C   0  0  0  0  0  0  0  0  0  0  0  0
    1.1310   61.5740   73.1480 N   0  0  0  0  0  0  0  0  0  0  0  0
    1.7780   60.5530   72.5670 C   0  0  0  0  0  0  0  0  0  0  0  0
    2.2700   60.6250   71.3230 N   0  0  0  0  0  0  0  0  0  0  0  0
    2.0930   61.7630   70.6410 C   0  0  0  0  0  0  0  0  0  0  0  0
    1.4100   62.8640   71.1520 C   0  0  0  0  0  0  0  0  0  0  0  0
    1.1670   64.0730   70.4530 C   0  0  0  0  0  0  0  0  0  0  0  0
    0.4780   65.1210   71.0620 C   0  0  0  0  0  0  0  0  0  0  0  0
    1.9680   59.3940   73.2890 N   0  0  0  0  0  0  0  0  0  0  0  0
    2.5620   58.2450   72.6060 C   0  0  0  0  0  0  0  0  0  0  0  0
    2.8710   57.1140   73.6020 C   0  0  0  0  0  0  0  0  0  0  0  0
    1.7000   56.7020   74.3840 N   0  0  0  0  0  0  0  0  0  0  0  0
    0.6490   57.7140   74.5610 C   0  0  0  0  0  0  0  0  0  0  0  0
    1.1720   59.1620   74.4940 C   0  0  0  0  0  0  0  0  0  0  0  0
    1.6310   55.3920   74.8460 C   0  0  0  0  0  0  0  0  0  0  0  0
    2.5720   54.6100   74.6820 O   0  0  0  0  0  0  0  0  0  0  0  0
    0.3650   54.9610   75.6020 C   0  0  2  0  0  0  0  0  0  0  0  0
    0.7110   54.5490   77.0310 C   0  0  0  0  0  0  0  0  0  0  0  0
   -0.4870   54.2790   77.7780 O   0  0  0  0  0  0  0  0  0  0  0  0
   -1.3530   53.4930   77.0620 C   0  0  0  0  0  0  0  0  0  0  0  0
   -1.2370   53.2850   75.6850 C   0  0  0  0  0  0  0  0  0  0  0  0
   -0.2610   53.8690   74.9190 O   0  0  0  0  0  0  0  0  0  0  0  0
   -2.1320   52.4450   75.0270 C   0  0  0  0  0  0  0  0  0  0  0  0
   -3.1660   51.8360   75.7420 C   0  0  0  0  0  0  0  0  0  0  0  0
   -3.2990   52.0660   77.1110 C   0  0  0  0  0  0  0  0  0  0  0  0
   -2.3920   52.8970   77.7730 C   0  0  0  0  0  0  0  0  0  0  0  0
    2.6430   61.7680   69.3510 N   0  0  0  0  0  0  0  0  0  0  0  0
   -0.7340   66.1030   74.3430 C   0  0  0  0  0  0  0  0  0  0  0  0
   -0.6370   66.0340   72.9270 O   0  0  0  0  0  0  0  0  0  0  0  0
    0.2010   66.3240   70.4650 O   0  0  0  0  0  0  0  0  0  0  0  0
    1.1690   66.8560   69.5720 C   0  0  0  0  0  0  0  0  0  0  0  0
   -0.0962   63.6382   74.0859 H   0  0  0  0  0  0  0  0  0  0  0  0
    1.5258   64.1855   69.4193 H   0  0  0  0  0  0  0  0  0  0  0  0
    1.8579   57.8739   71.8467 H   0  0  0  0  0  0  0  0  0  0  0  0
    3.5028   58.5645   72.1340 H   0  0  0  0  0  0  0  0  0  0  0  0
    3.2410   56.2437   73.0401 H   0  0  0  0  0  0  0  0  0  0  0  0
    3.6215   57.4954   74.3100 H   0  0  0  0  0  0  0  0  0  0  0  0
   -0.1020   57.5781   73.7689 H   0  0  0  0  0  0  0  0  0  0  0  0
    0.2263   57.5690   75.5662 H   0  0  0  0  0  0  0  0  0  0  0  0
    0.3146   59.8511   74.4931 H   0  0  0  0  0  0  0  0  0  0  0  0
    1.8157   59.3351   75.3690 H   0  0  0  0  0  0  0  0  0  0  0  0
   -0.3301   55.8127   75.6396 H   0  0  0  0  0  0  0  0  0  0  0  0
    1.3347   53.6433   77.0063 H   0  0  0  0  0  0  0  0  0  0  0  0
    1.2574   55.3707   77.5172 H   0  0  0  0  0  0  0  0  0  0  0  0
   -2.0250   52.2617   73.9477 H   0  0  0  0  0  0  0  0  0  0  0  0
   -3.8762   51.1742   75.2246 H   0  0  0  0  0  0  0  0  0  0  0  0
   -4.1193   51.5924   77.6704 H   0  0  0  0  0  0  0  0  0  0  0  0
   -2.4980   53.0801   78.8525 H   0  0  0  0  0  0  0  0  0  0  0  0
    2.5532   62.6040   68.7561 H   0  0  0  0  0  0  0  0  0  0  0  0
    3.1368   60.9357   68.9985 H   0  0  0  0  0  0  0  0  0  0  0  0
    0.0831   65.5218   74.7953 H   0  0  0  0  0  0  0  0  0  0  0  0
   -0.6595   67.1522   74.6649 H   0  0  0  0  0  0  0  0  0  0  0  0
   -1.7007   65.6885   74.6649 H   0  0  0  0  0  0  0  0  0  0  0  0
    1.9903   67.3074   70.1480 H   0  0  0  0  0  0  0  0  0  0  0  0
    1.5658   66.0492   68.9382 H   0  0  0  0  0  0  0  0  0  0  0  0
    0.7006   67.6234   68.9382 H   0  0  0  0  0  0  0  0  0  0  0  0
  2  1  2  0
  3  2  1  0
  4  3  2  0
  5  4  1  0
  6  5  2  0
  7  6  1  0
  8  7  2  0
  8  3  1  0
  9  8  1  0
 10  9  2  0
 10  1  1  0
 11  5  1  0
 12 11  1  0
 13 12  1  0
 14 13  1  0
 15 14  1  0
 16 15  1  0
 16 11  1  0
 17 14  1  0
 18 17  2  0
 19 17  1  0
 20 19  1  0
 21 20  1  0
 22 21  1  0
 23 22  2  0
 24 23  1  0
 24 19  1  0
 25 23  1  0
 26 25  2  0
 27 26  1  0
 28 27  2  0
 28 22  1  0
 29  7  1  0
 31 30  1  0
 31  1  1  0
 32 10  1  0
 33 32  1  0
  2 34  1  0
  9 35  1  0
 12 36  1  0
 12 37  1  0
 13 38  1  0
 13 39  1  0
 15 40  1  0
 15 41  1  0
 16 42  1  0
 16 43  1  0
 19 44  1  1
 20 45  1  0
 20 46  1  0
 25 47  1  0
 26 48  1  0
 27 49  1  0
 28 50  1  0
 29 51  1  0
 29 52  1  0
 30 53  1  0
 30 54  1  0
 30 55  1  0
 33 56  1  0
 33 57  1  0
 33 58  1  0
M  END
>  <score>  (3) 
-8.139

$$$$
=
     RDKit          3D

 58 62  0  0  0  0  0  0  0  0999 V2000
    0.8060   63.6250   70.5950 C   0  0  0  0  0  0  0  0  0  0  0  0
    0.0080   63.1770   71.6560 C   0  0  0  0  0  0  0  0  0  0  0  0
    0.2830   61.9970   72.3380 C   0  0  0  0  0  0  0  0  0  0  0  0
   -0.5250   61.6230   73.3350 N   0  0  0  0  0  0  0  0  0  0  0  0
   -0.2660   60.4800   73.9870 C   0  0  0  0  0  0  0  0  0  0  0  0
    0.7860   59.7050   73.6950 N   0  0  0  0  0  0  0  0  0  0  0  0
    1.5990   60.0940   72.7050 C   0  0  0  0  0  0  0  0  0  0  0  0
    1.3930   61.2500   71.9550 C   0  0  0  0  0  0  0  0  0  0  0  0
    2.2050   61.6800   70.8750 C   0  0  0  0  0  0  0  0  0  0  0  0
    1.9150   62.8610   70.1950 C   0  0  0  0  0  0  0  0  0  0  0  0
   -1.1020   60.1020   75.0170 N   0  0  0  0  0  0  0  0  0  0  0  0
   -0.8860   58.7950   75.6370 C   0  0  0  0  0  0  0  0  0  0  0  0
   -1.7780   58.6220   76.8780 C   0  0  0  0  0  0  0  0  0  0  0  0
   -3.2030   58.8300   76.5950 N   0  0  0  0  0  0  0  0  0  0  0  0
   -3.5160   59.6940   75.4470 C   0  0  0  0  0  0  0  0  0  0  0  0
   -2.4170   60.7290   75.1390 C   0  0  0  0  0  0  0  0  0  0  0  0
   -4.1440   58.1640   77.3720 C   0  0  0  0  0  0  0  0  0  0  0  0
   -3.7990   57.4800   78.3400 O   0  0  0  0  0  0  0  0  0  0  0  0
   -5.6280   58.3410   77.0150 C   0  0  2  0  0  0  0  0  0  0  0  0
   -6.2170   59.5370   77.7560 C   0  0  0  0  0  0  0  0  0  0  0  0
   -7.5640   59.7840   77.3180 O   0  0  0  0  0  0  0  0  0  0  0  0
   -8.2910   58.6240   77.2660 C   0  0  0  0  0  0  0  0  0  0  0  0
   -7.7080   57.3540   77.2960 C   0  0  0  0  0  0  0  0  0  0  0  0
   -6.3530   57.1530   77.3520 O   0  0  0  0  0  0  0  0  0  0  0  0
   -8.5110   56.2150   77.2760 C   0  0  0  0  0  0  0  0  0  0  0  0
   -9.8990   56.3460   77.1940 C   0  0  0  0  0  0  0  0  0  0  0  0
  -10.4790   57.6140   77.1360 C   0  0  0  0  0  0  0  0  0  0  0  0
   -9.6750   58.7550   77.1710 C   0  0  0  0  0  0  0  0  0  0  0  0
    2.6840   59.2390   72.4630 N   0  0  0  0  0  0  0  0  0  0  0  0
    0.4160   65.9840   70.6250 C   0  0  0  0  0  0  0  0  0  0  0  0
    0.5800   64.7790   69.8890 O   0  0  0  0  0  0  0  0  0  0  0  0
    2.6450   63.3550   69.1430 O   0  0  0  0  0  0  0  0  0  0  0  0
    3.8370   62.6700   68.7880 C   0  0  0  0  0  0  0  0  0  0  0  0
   -0.8627   63.7772   71.9587 H   0  0  0  0  0  0  0  0  0  0  0  0
    3.0722   61.0754   70.5711 H   0  0  0  0  0  0  0  0  0  0  0  0
   -1.1259   58.0067   74.9083 H   0  0  0  0  0  0  0  0  0  0  0  0
    0.1667   58.7233   75.9481 H   0  0  0  0  0  0  0  0  0  0  0  0
   -1.6433   57.6018   77.2667 H   0  0  0  0  0  0  0  0  0  0  0  0
   -1.4738   59.3846   77.6101 H   0  0  0  0  0  0  0  0  0  0  0  0
   -3.6538   59.0581   74.5601 H   0  0  0  0  0  0  0  0  0  0  0  0
   -4.4265   60.2555   75.7034 H   0  0  0  0  0  0  0  0  0  0  0  0
   -2.6595   61.2355   74.1931 H   0  0  0  0  0  0  0  0  0  0  0  0
   -2.3787   61.4463   75.9720 H   0  0  0  0  0  0  0  0  0  0  0  0
   -5.7112   58.5233   75.9334 H   0  0  0  0  0  0  0  0  0  0  0  0
   -6.2195   59.3288   78.8361 H   0  0  0  0  0  0  0  0  0  0  0  0
   -5.6041   60.4255   77.5438 H   0  0  0  0  0  0  0  0  0  0  0  0
   -8.0530   55.2161   77.3246 H   0  0  0  0  0  0  0  0  0  0  0  0
  -10.5355   55.4491   77.1751 H   0  0  0  0  0  0  0  0  0  0  0  0
  -11.5719   57.7148   77.0626 H   0  0  0  0  0  0  0  0  0  0  0  0
  -10.1327   59.7541   77.1237 H   0  0  0  0  0  0  0  0  0  0  0  0
    3.3598   59.4625   71.7185 H   0  0  0  0  0  0  0  0  0  0  0  0
    2.8051   58.3875   73.0298 H   0  0  0  0  0  0  0  0  0  0  0  0
    0.4461   65.7628   71.7021 H   0  0  0  0  0  0  0  0  0  0  0  0
    1.2274   66.6820   70.3712 H   0  0  0  0  0  0  0  0  0  0  0  0
   -0.5525   66.4397   70.3712 H   0  0  0  0  0  0  0  0  0  0  0  0
    4.3696   62.3639   69.7005 H   0  0  0  0  0  0  0  0  0  0  0  0
    3.5849   61.7790   68.1942 H   0  0  0  0  0  0  0  0  0  0  0  0
    4.4799   63.3364   68.1942 H   0  0  0  0  0  0  0  0  0  0  0  0
  2  1  2  0
  3  2  1  0
  4  3  2  0
  5  4  1  0
  6  5  2  0
  7  6  1  0
  8  7  2  0
  8  3  1  0
  9  8  1  0
 10  9  2  0
 10  1  1  0
 11  5  1  0
 12 11  1  0
 13 12  1  0
 14 13  1  0
 15 14  1  0
 16 15  1  0
 16 11  1  0
 17 14  1  0
 18 17  2  0
 19 17  1  0
 20 19  1  0
 21 20  1  0
 22 21  1  0
 23 22  2  0
 24 23  1  0
 24 19  1  0
 25 23  1  0
 26 25  2  0
 27 26  1  0
 28 27  2  0
 28 22  1  0
 29  7  1  0
 31 30  1  0
 31  1  1  0
 32 10  1  0
 33 32  1  0
  2 34  1  0
  9 35  1  0
 12 36  1  0
 12 37  1  0
 13 38  1  0
 13 39  1  0
 15 40  1  0
 15 41  1  0
 16 42  1  0
 16 43  1  0
 19 44  1  6
 20 45  1  0
 20 46  1  0
 25 47  1  0
 26 48  1  0
 27 49  1  0
 28 50  1  0
 29 51  1  0
 29 52  1  0
 30 53  1  0
 30 54  1  0
 30 55  1  0
 33 56  1  0
 33 57  1  0
 33 58  1  0
M  END
>  <score>  (4) 
-7.677

$$$$
=
     RDKit          3D

 58 62  0  0  0  0  0  0  0  0999 V2000
    3.0650   67.3680   64.3680 C   0  0  0  0  0  0  0  0  0  0  0  0
    2.5270   66.5830   65.3970 C   0  0  0  0  0  0  0  0  0  0  0  0
    2.1670   67.1260   66.6250 C   0  0  0  0  0  0  0  0  0  0  0  0
    1.6690   66.3180   67.5670 N   0  0  0  0  0  0  0  0  0  0  0  0
    1.3300   66.8380   68.7560 C   0  0  0  0  0  0  0  0  0  0  0  0
    1.4490   68.1440   69.0330 N   0  0  0  0  0  0  0  0  0  0  0  0
    1.9360   68.9480   68.0790 C   0  0  0  0  0  0  0  0  0  0  0  0
    2.3400   68.4920   66.8250 C   0  0  0  0  0  0  0  0  0  0  0  0
    2.8940   69.3000   65.8020 C   0  0  0  0  0  0  0  0  0  0  0  0
    3.2580   68.7430   64.5760 C   0  0  0  0  0  0  0  0  0  0  0  0
    0.8140   66.0010   69.7220 N   0  0  0  0  0  0  0  0  0  0  0  0
    0.5660   66.5520   71.0530 C   0  0  0  0  0  0  0  0  0  0  0  0
   -0.1800   65.5380   71.9380 C   0  0  0  0  0  0  0  0  0  0  0  0
    0.5090   64.2460   72.0340 N   0  0  0  0  0  0  0  0  0  0  0  0
    1.3890   63.8950   70.9100 C   0  0  0  0  0  0  0  0  0  0  0  0
    0.9810   64.5550   69.5790 C   0  0  0  0  0  0  0  0  0  0  0  0
    0.3370   63.4800   73.1810 C   0  0  0  0  0  0  0  0  0  0  0  0
   -0.4460   63.8310   74.0680 O   0  0  0  0  0  0  0  0  0  0  0  0
    1.1210   62.1630   73.2930 C   0  0  2  0  0  0  0  0  0  0  0  0
    0.3010   61.0050   72.7330 C   0  0  0  0  0  0  0  0  0  0  0  0
    1.0850   59.8000   72.7100 O   0  0  0  0  0  0  0  0  0  0  0  0
    1.7510   59.6180   73.8940 C   0  0  0  0  0  0  0  0  0  0  0  0
    1.9160   60.6320   74.8420 C   0  0  0  0  0  0  0  0  0  0  0  0
    1.4510   61.9090   74.6630 O   0  0  0  0  0  0  0  0  0  0  0  0
    2.5740   60.3670   76.0420 C   0  0  0  0  0  0  0  0  0  0  0  0
    3.0950   59.0930   76.2810 C   0  0  0  0  0  0  0  0  0  0  0  0
    2.9540   58.0890   75.3220 C   0  0  0  0  0  0  0  0  0  0  0  0
    2.2820   58.3510   74.1270 C   0  0  0  0  0  0  0  0  0  0  0  0
    2.0230   70.3010   68.4370 N   0  0  0  0  0  0  0  0  0  0  0  0
    4.3850   65.8270   63.1020 C   0  0  0  0  0  0  0  0  0  0  0  0
    3.4370   66.8840   63.1380 O   0  0  0  0  0  0  0  0  0  0  0  0
    3.7970   69.4470   63.5300 O   0  0  0  0  0  0  0  0  0  0  0  0
    5.2120   69.4840   63.4180 C   0  0  0  0  0  0  0  0  0  0  0  0
    2.3854   65.5053   65.2278 H   0  0  0  0  0  0  0  0  0  0  0  0
    3.0385   70.3765   65.9759 H   0  0  0  0  0  0  0  0  0  0  0  0
    1.5281   66.8017   71.5242 H   0  0  0  0  0  0  0  0  0  0  0  0
   -0.0570   67.4527   70.9495 H   0  0  0  0  0  0  0  0  0  0  0  0
   -0.2769   65.9598   72.9493 H   0  0  0  0  0  0  0  0  0  0  0  0
   -1.1605   65.3548   71.4743 H   0  0  0  0  0  0  0  0  0  0  0  0
    2.4125   64.2134   71.1569 H   0  0  0  0  0  0  0  0  0  0  0  0
    1.3127   62.8069   70.7677 H   0  0  0  0  0  0  0  0  0  0  0  0
    1.7618   64.3586   68.8294 H   0  0  0  0  0  0  0  0  0  0  0  0
    0.0173   64.1275   69.2651 H   0  0  0  0  0  0  0  0  0  0  0  0
    2.0476   62.2532   72.7071 H   0  0  0  0  0  0  0  0  0  0  0  0
   -0.5849   60.8489   73.3661 H   0  0  0  0  0  0  0  0  0  0  0  0
   -0.0066   61.2499   71.7057 H   0  0  0  0  0  0  0  0  0  0  0  0
    2.6826   61.1584   76.7982 H   0  0  0  0  0  0  0  0  0  0  0  0
    3.6168   58.8810   77.2259 H   0  0  0  0  0  0  0  0  0  0  0  0
    3.3733   57.0892   75.5082 H   0  0  0  0  0  0  0  0  0  0  0  0
    2.1719   57.5594   73.3712 H   0  0  0  0  0  0  0  0  0  0  0  0
    2.3867   70.9897   67.7630 H   0  0  0  0  0  0  0  0  0  0  0  0
    1.7232   70.6061   69.3740 H   0  0  0  0  0  0  0  0  0  0  0  0
    4.6473   65.5346   64.1295 H   0  0  0  0  0  0  0  0  0  0  0  0
    3.9523   64.9642   62.5743 H   0  0  0  0  0  0  0  0  0  0  0  0
    5.2896   66.1636   62.5743 H   0  0  0  0  0  0  0  0  0  0  0  0
    5.6592   69.4957   64.4229 H   0  0  0  0  0  0  0  0  0  0  0  0
    5.5600   68.5946   62.8721 H   0  0  0  0  0  0  0  0  0  0  0  0
    5.5130   70.3903   62.8721 H   0  0  0  0  0  0  0  0  0  0  0  0
  2  1  2  0
  3  2  1  0
  4  3  2  0
  5  4  1  0
  6  5  2  0
  7  6  1  0
  8  7  2  0
  8  3  1  0
  9  8  1  0
 10  9  2  0
 10  1  1  0
 11  5  1  0
 12 11  1  0
 13 12  1  0
 14 13  1  0
 15 14  1  0
 16 15  1  0
 16 11  1  0
 17 14  1  0
 18 17  2  0
 19 17  1  0
 20 19  1  0
 21 20  1  0
 22 21  1  0
 23 22  2  0
 24 23  1  0
 24 19  1  0
 25 23  1  0
 26 25  2  0
 27 26  1  0
 28 27  2  0
 28 22  1  0
 29  7  1  0
 31 30  1  0
 31  1  1  0
 32 10  1  0
 33 32  1  0
  2 34  1  0
  9 35  1  0
 12 36  1  0
 12 37  1  0
 13 38  1  0
 13 39  1  0
 15 40  1  0
 15 41  1  0
 16 42  1  0
 16 43  1  0
 19 44  1  6
 20 45  1  0
 20 46  1  0
 25 47  1  0
 26 48  1  0
 27 49  1  0
 28 50  1  0
 29 51  1  0
 29 52  1  0
 30 53  1  0
 30 54  1  0
 30 55  1  0
 33 56  1  0
 33 57  1  0
 33 58  1  0
M  END
>  <score>  (5) 
-7.43

$$$$
=
     RDKit          3D

 58 62  0  0  0  0  0  0  0  0999 V2000
    3.0930   62.1110   71.3940 C   0  0  0  0  0  0  0  0  0  0  0  0
    2.4700   61.4250   72.4450 C   0  0  0  0  0  0  0  0  0  0  0  0
    2.3990   60.0370   72.4790 C   0  0  0  0  0  0  0  0  0  0  0  0
    1.7810   59.4470   73.5070 N   0  0  0  0  0  0  0  0  0  0  0  0
    1.7030   58.1080   73.5360 C   0  0  0  0  0  0  0  0  0  0  0  0
    2.2410   57.3330   72.5850 N   0  0  0  0  0  0  0  0  0  0  0  0
    2.8710   57.9310   71.5670 C   0  0  0  0  0  0  0  0  0  0  0  0
    2.9760   59.3150   71.4390 C   0  0  0  0  0  0  0  0  0  0  0  0
    3.6000   59.9910   70.3600 C   0  0  0  0  0  0  0  0  0  0  0  0
    3.6590   61.3840   70.3330 C   0  0  0  0  0  0  0  0  0  0  0  0
    1.0670   57.5050   74.6000 N   0  0  0  0  0  0  0  0  0  0  0  0
    0.8770   56.0560   74.5610 C   0  0  0  0  0  0  0  0  0  0  0  0
    0.3270   55.5360   75.9010 C   0  0  0  0  0  0  0  0  0  0  0  0
   -0.9100   56.2090   76.3120 N   0  0  0  0  0  0  0  0  0  0  0  0
   -1.1170   57.5670   75.7870 C   0  0  0  0  0  0  0  0  0  0  0  0
    0.1960   58.3050   75.4610 C   0  0  0  0  0  0  0  0  0  0  0  0
   -1.8180   55.5140   77.1030 C   0  0  0  0  0  0  0  0  0  0  0  0
   -1.5560   54.3850   77.5290 O   0  0  0  0  0  0  0  0  0  0  0  0
   -3.1390   56.2100   77.4650 C   0  0  2  0  0  0  0  0  0  0  0  0
   -4.0860   55.2330   78.1550 C   0  0  0  0  0  0  0  0  0  0  0  0
   -5.2640   55.9160   78.6160 O   0  0  0  0  0  0  0  0  0  0  0  0
   -5.7690   56.7440   77.6470 C   0  0  0  0  0  0  0  0  0  0  0  0
   -5.0460   57.1270   76.5140 C   0  0  0  0  0  0  0  0  0  0  0  0
   -3.7540   56.7310   76.2810 O   0  0  0  0  0  0  0  0  0  0  0  0
   -5.6360   57.9420   75.5510 C   0  0  0  0  0  0  0  0  0  0  0  0
   -6.9410   58.4030   75.7360 C   0  0  0  0  0  0  0  0  0  0  0  0
   -7.6530   58.0430   76.8810 C   0  0  0  0  0  0  0  0  0  0  0  0
   -7.0670   57.2140   77.8390 C   0  0  0  0  0  0  0  0  0  0  0  0
    3.4170   57.0580   70.6160 N   0  0  0  0  0  0  0  0  0  0  0  0
    2.0130   64.2080   71.0030 C   0  0  0  0  0  0  0  0  0  0  0  0
    3.1910   63.4770   71.3100 O   0  0  0  0  0  0  0  0  0  0  0  0
    4.2430   62.1200   69.3350 O   0  0  0  0  0  0  0  0  0  0  0  0
    3.4700   62.3920   68.1760 C   0  0  0  0  0  0  0  0  0  0  0  0
    2.0236   62.0022   73.2681 H   0  0  0  0  0  0  0  0  0  0  0  0
    4.0418   59.4110   69.5363 H   0  0  0  0  0  0  0  0  0  0  0  0
    0.1656   55.8079   73.7595 H   0  0  0  0  0  0  0  0  0  0  0  0
    1.8505   55.5797   74.3731 H   0  0  0  0  0  0  0  0  0  0  0  0
    0.1244   54.4593   75.8028 H   0  0  0  0  0  0  0  0  0  0  0  0
    1.0854   55.7422   76.6706 H   0  0  0  0  0  0  0  0  0  0  0  0
   -1.7154   57.4974   74.8666 H   0  0  0  0  0  0  0  0  0  0  0  0
   -1.6269   58.1441   76.5725 H   0  0  0  0  0  0  0  0  0  0  0  0
   -0.0431   59.2483   74.9482 H   0  0  0  0  0  0  0  0  0  0  0  0
    0.7271   58.4934   76.4057 H   0  0  0  0  0  0  0  0  0  0  0  0
   -2.9232   57.0375   78.1568 H   0  0  0  0  0  0  0  0  0  0  0  0
   -4.3782   54.4475   77.4426 H   0  0  0  0  0  0  0  0  0  0  0  0
   -3.5711   54.7879   79.0192 H   0  0  0  0  0  0  0  0  0  0  0  0
   -5.0753   58.2218   74.6469 H   0  0  0  0  0  0  0  0  0  0  0  0
   -7.4080   59.0502   74.9790 H   0  0  0  0  0  0  0  0  0  0  0  0
   -8.6782   58.4133   77.0289 H   0  0  0  0  0  0  0  0  0  0  0  0
   -7.6278   56.9326   78.7425 H   0  0  0  0  0  0  0  0  0  0  0  0
    3.9193   57.4347   69.7995 H   0  0  0  0  0  0  0  0  0  0  0  0
    3.3160   56.0397   70.7337 H   0  0  0  0  0  0  0  0  0  0  0  0
    1.5183   64.5150   71.9363 H   0  0  0  0  0  0  0  0  0  0  0  0
    2.2776   65.1008   70.4174 H   0  0  0  0  0  0  0  0  0  0  0  0
    1.3305   63.5745   70.4174 H   0  0  0  0  0  0  0  0  0  0  0  0
    2.4715   62.7433   68.4753 H   0  0  0  0  0  0  0  0  0  0  0  0
    3.9678   63.1689   67.5772 H   0  0  0  0  0  0  0  0  0  0  0  0
    3.3716   61.4745   67.5772 H   0  0  0  0  0  0  0  0  0  0  0  0
  2  1  2  0
  3  2  1  0
  4  3  2  0
  5  4  1  0
  6  5  2  0
  7  6  1  0
  8  7  2  0
  8  3  1  0
  9  8  1  0
 10  9  2  0
 10  1  1  0
 11  5  1  0
 12 11  1  0
 13 12  1  0
 14 13  1  0
 15 14  1  0
 16 15  1  0
 16 11  1  0
 17 14  1  0
 18 17  2  0
 19 17  1  0
 20 19  1  0
 21 20  1  0
 22 21  1  0
 23 22  2  0
 24 23  1  0
 24 19  1  0
 25 23  1  0
 26 25  2  0
 27 26  1  0
 28 27  2  0
 28 22  1  0
 29  7  1  0
 31 30  1  0
 31  1  1  0
 32 10  1  0
 33 32  1  0
  2 34  1  0
  9 35  1  0
 12 36  1  0
 12 37  1  0
 13 38  1  0
 13 39  1  0
 15 40  1  0
 15 41  1  0
 16 42  1  0
 16 43  1  0
 19 44  1  1
 20 45  1  0
 20 46  1  0
 25 47  1  0
 26 48  1  0
 27 49  1  0
 28 50  1  0
 29 51  1  0
 29 52  1  0
 30 53  1  0
 30 54  1  0
 30 55  1  0
 33 56  1  0
 33 57  1  0
 33 58  1  0
M  END
>  <score>  (6) 
-7.428

$$$$
=
     RDKit          3D

 58 62  0  0  0  0  0  0  0  0999 V2000
    0.3510   65.4570   70.3670 C   0  0  0  0  0  0  0  0  0  0  0  0
    0.3540   64.3870   71.2710 C   0  0  0  0  0  0  0  0  0  0  0  0
    1.4800   63.5960   71.4720 C   0  0  0  0  0  0  0  0  0  0  0  0
    1.4110   62.5840   72.3430 N   0  0  0  0  0  0  0  0  0  0  0  0
    2.4930   61.8140   72.5310 C   0  0  0  0  0  0  0  0  0  0  0  0
    3.6520   62.0310   71.8960 N   0  0  0  0  0  0  0  0  0  0  0  0
    3.7170   63.0550   71.0360 C   0  0  0  0  0  0  0  0  0  0  0  0
    2.6360   63.8900   70.7570 C   0  0  0  0  0  0  0  0  0  0  0  0
    2.6490   64.9610   69.8280 C   0  0  0  0  0  0  0  0  0  0  0  0
    1.5120   65.7430   69.6300 C   0  0  0  0  0  0  0  0  0  0  0  0
    2.4160   60.7740   73.4320 N   0  0  0  0  0  0  0  0  0  0  0  0
    3.5580   59.8650   73.5370 C   0  0  0  0  0  0  0  0  0  0  0  0
    3.3780   58.8900   74.7140 C   0  0  0  0  0  0  0  0  0  0  0  0
    2.1210   58.1360   74.6460 N   0  0  0  0  0  0  0  0  0  0  0  0
    1.0220   58.7700   73.9030 C   0  0  0  0  0  0  0  0  0  0  0  0
    1.1040   60.3090   73.8800 C   0  0  0  0  0  0  0  0  0  0  0  0
    2.0680   56.8720   75.2220 C   0  0  0  0  0  0  0  0  0  0  0  0
    3.0260   56.4220   75.8570 O   0  0  0  0  0  0  0  0  0  0  0  0
    0.7650   56.0690   75.0800 C   0  0  2  0  0  0  0  0  0  0  0  0
    0.0200   56.0190   76.4110 C   0  0  0  0  0  0  0  0  0  0  0  0
   -1.2600   55.3890   76.2450 O   0  0  0  0  0  0  0  0  0  0  0  0
   -1.1570   54.2370   75.5100 C   0  0  0  0  0  0  0  0  0  0  0  0
   -0.0320   53.9170   74.7440 C   0  0  0  0  0  0  0  0  0  0  0  0
    1.0590   54.7400   74.6360 O   0  0  0  0  0  0  0  0  0  0  0  0
    0.0210   52.7100   74.0500 C   0  0  0  0  0  0  0  0  0  0  0  0
   -1.0660   51.8350   74.0960 C   0  0  0  0  0  0  0  0  0  0  0  0
   -2.2000   52.1670   74.8380 C   0  0  0  0  0  0  0  0  0  0  0  0
   -2.2470   53.3700   75.5460 C   0  0  0  0  0  0  0  0  0  0  0  0
    4.9630   63.2280   70.4170 N   0  0  0  0  0  0  0  0  0  0  0  0
   -1.1610   66.4220   68.7850 C   0  0  0  0  0  0  0  0  0  0  0  0
   -0.7300   66.2690   70.1300 O   0  0  0  0  0  0  0  0  0  0  0  0
    1.4340   66.7980   68.7570 O   0  0  0  0  0  0  0  0  0  0  0  0
    1.8920   68.0640   69.2080 C   0  0  0  0  0  0  0  0  0  0  0  0
   -0.5617   64.1658   71.8389 H   0  0  0  0  0  0  0  0  0  0  0  0
    3.5648   65.1769   69.2582 H   0  0  0  0  0  0  0  0  0  0  0  0
    3.6475   59.2900   72.6036 H   0  0  0  0  0  0  0  0  0  0  0  0
    4.4664   60.4607   73.7101 H   0  0  0  0  0  0  0  0  0  0  0  0
    4.2154   58.1767   74.7097 H   0  0  0  0  0  0  0  0  0  0  0  0
    3.3535   59.4885   75.6366 H   0  0  0  0  0  0  0  0  0  0  0  0
    1.0462   58.4043   72.8658 H   0  0  0  0  0  0  0  0  0  0  0  0
    0.0870   58.5031   74.4173 H   0  0  0  0  0  0  0  0  0  0  0  0
    0.3354   60.6968   73.1952 H   0  0  0  0  0  0  0  0  0  0  0  0
    0.9412   60.6764   74.9040 H   0  0  0  0  0  0  0  0  0  0  0  0
    0.1240   56.5667   74.3374 H   0  0  0  0  0  0  0  0  0  0  0  0
    0.6145   55.4460   77.1378 H   0  0  0  0  0  0  0  0  0  0  0  0
   -0.1323   57.0463   76.7735 H   0  0  0  0  0  0  0  0  0  0  0  0
    0.9165   52.4473   73.4677 H   0  0  0  0  0  0  0  0  0  0  0  0
   -1.0283   50.8828   73.5466 H   0  0  0  0  0  0  0  0  0  0  0  0
   -3.0586   51.4800   74.8654 H   0  0  0  0  0  0  0  0  0  0  0  0
   -3.1416   53.6320   76.1300 H   0  0  0  0  0  0  0  0  0  0  0  0
    5.1004   63.9927   69.7407 H   0  0  0  0  0  0  0  0  0  0  0  0
    5.7410   62.5904   70.6385 H   0  0  0  0  0  0  0  0  0  0  0  0
   -2.1975   66.7900   68.7717 H   0  0  0  0  0  0  0  0  0  0  0  0
   -0.5091   67.1437   68.2709 H   0  0  0  0  0  0  0  0  0  0  0  0
   -1.1101   65.4509   68.2709 H   0  0  0  0  0  0  0  0  0  0  0  0
    1.8982   68.0812   70.3078 H   0  0  0  0  0  0  0  0  0  0  0  0
    2.9109   68.2403   68.8328 H   0  0  0  0  0  0  0  0  0  0  0  0
    1.2217   68.8514   68.8328 H   0  0  0  0  0  0  0  0  0  0  0  0
  2  1  2  0
  3  2  1  0
  4  3  2  0
  5  4  1  0
  6  5  2  0
  7  6  1  0
  8  7  2  0
  8  3  1  0
  9  8  1  0
 10  9  2  0
 10  1  1  0
 11  5  1  0
 12 11  1  0
 13 12  1  0
 14 13  1  0
 15 14  1  0
 16 15  1  0
 16 11  1  0
 17 14  1  0
 18 17  2  0
 19 17  1  0
 20 19  1  0
 21 20  1  0
 22 21  1  0
 23 22  2  0
 24 23  1  0
 24 19  1  0
 25 23  1  0
 26 25  2  0
 27 26  1  0
 28 27  2  0
 28 22  1  0
 29  7  1  0
 31 30  1  0
 31  1  1  0
 32 10  1  0
 33 32  1  0
  2 34  1  0
  9 35  1  0
 12 36  1  0
 12 37  1  0
 13 38  1  0
 13 39  1  0
 15 40  1  0
 15 41  1  0
 16 42  1  0
 16 43  1  0
 19 44  1  6
 20 45  1  0
 20 46  1  0
 25 47  1  0
 26 48  1  0
 27 49  1  0
 28 50  1  0
 29 51  1  0
 29 52  1  0
 30 53  1  0
 30 54  1  0
 30 55  1  0
 33 56  1  0
 33 57  1  0
 33 58  1  0
M  END
>  <score>  (7) 
-7.05

$$$$
=
     RDKit          3D

 58 62  0  0  0  0  0  0  0  0999 V2000
    3.5110   62.0650   71.3520 C   0  0  0  0  0  0  0  0  0  0  0  0
    2.7020   62.7340   72.2800 C   0  0  0  0  0  0  0  0  0  0  0  0
    2.3200   62.1480   73.4810 C   0  0  0  0  0  0  0  0  0  0  0  0
    1.5380   62.8400   74.3170 N   0  0  0  0  0  0  0  0  0  0  0  0
    1.1610   62.2720   75.4720 C   0  0  0  0  0  0  0  0  0  0  0  0
    1.5550   61.0440   75.8360 N   0  0  0  0  0  0  0  0  0  0  0  0
    2.3490   60.3650   75.0000 C   0  0  0  0  0  0  0  0  0  0  0  0
    2.7680   60.8630   73.7670 C   0  0  0  0  0  0  0  0  0  0  0  0
    3.5770   60.1640   72.8360 C   0  0  0  0  0  0  0  0  0  0  0  0
    3.9480   60.7600   71.6310 C   0  0  0  0  0  0  0  0  0  0  0  0
    0.3570   62.9910   76.3310 N   0  0  0  0  0  0  0  0  0  0  0  0
   -0.1520   62.3190   77.5270 C   0  0  0  0  0  0  0  0  0  0  0  0
   -0.8650   63.3160   78.4560 C   0  0  0  0  0  0  0  0  0  0  0  0
   -1.9390   64.0580   77.7850 N   0  0  0  0  0  0  0  0  0  0  0  0
   -1.8110   64.2090   76.3280 C   0  0  0  0  0  0  0  0  0  0  0  0
   -0.3520   64.1690   75.8320 C   0  0  0  0  0  0  0  0  0  0  0  0
   -3.0150   64.5080   78.5410 C   0  0  0  0  0  0  0  0  0  0  0  0
   -3.0330   64.3690   79.7680 O   0  0  0  0  0  0  0  0  0  0  0  0
   -4.1620   65.2220   77.8090 C   0  0  2  0  0  0  0  0  0  0  0  0
   -5.1430   65.8230   78.8100 C   0  0  0  0  0  0  0  0  0  0  0  0
   -6.1380   66.6060   78.1300 O   0  0  0  0  0  0  0  0  0  0  0  0
   -6.6390   65.9370   77.0430 C   0  0  0  0  0  0  0  0  0  0  0  0
   -6.0220   64.8150   76.4840 C   0  0  0  0  0  0  0  0  0  0  0  0
   -4.8440   64.2960   76.9550 O   0  0  0  0  0  0  0  0  0  0  0  0
   -6.6070   64.1620   75.4020 C   0  0  0  0  0  0  0  0  0  0  0  0
   -7.7960   64.6510   74.8560 C   0  0  0  0  0  0  0  0  0  0  0  0
   -8.3970   65.7880   75.3970 C   0  0  0  0  0  0  0  0  0  0  0  0
   -7.8190   66.4330   76.4910 C   0  0  0  0  0  0  0  0  0  0  0  0
    2.7290   59.0930   75.4510 N   0  0  0  0  0  0  0  0  0  0  0  0
    2.9450   62.7300   69.1260 C   0  0  0  0  0  0  0  0  0  0  0  0
    3.9170   62.5950   70.1530 O   0  0  0  0  0  0  0  0  0  0  0  0
    4.7290   60.1620   70.6750 O   0  0  0  0  0  0  0  0  0  0  0  0
    4.0920   59.2930   69.7510 C   0  0  0  0  0  0  0  0  0  0  0  0
    2.3589   63.7537   72.0511 H   0  0  0  0  0  0  0  0  0  0  0  0
    3.9150   59.1428   73.0661 H   0  0  0  0  0  0  0  0  0  0  0  0
   -0.8634   61.5363   77.2249 H   0  0  0  0  0  0  0  0  0  0  0  0
    0.6969   61.8782   78.0702 H   0  0  0  0  0  0  0  0  0  0  0  0
   -1.2978   62.7600   79.3007 H   0  0  0  0  0  0  0  0  0  0  0  0
   -0.1159   64.0498   78.7881 H   0  0  0  0  0  0  0  0  0  0  0  0
   -2.3662   63.3925   75.8431 H   0  0  0  0  0  0  0  0  0  0  0  0
   -2.2142   65.1990   76.0684 H   0  0  0  0  0  0  0  0  0  0  0  0
   -0.3499   64.1470   74.7322 H   0  0  0  0  0  0  0  0  0  0  0  0
    0.1631   65.0646   76.2094 H   0  0  0  0  0  0  0  0  0  0  0  0
   -3.7391   66.0350   77.2006 H   0  0  0  0  0  0  0  0  0  0  0  0
   -5.6373   65.0117   79.3645 H   0  0  0  0  0  0  0  0  0  0  0  0
   -4.5903   66.4738   79.5036 H   0  0  0  0  0  0  0  0  0  0  0  0
   -6.1341   63.2637   74.9785 H   0  0  0  0  0  0  0  0  0  0  0  0
   -8.2587   64.1395   73.9991 H   0  0  0  0  0  0  0  0  0  0  0  0
   -9.3286   66.1768   74.9601 H   0  0  0  0  0  0  0  0  0  0  0  0
   -8.2929   67.3299   76.9164 H   0  0  0  0  0  0  0  0  0  0  0  0
    3.3399   58.5017   74.8696 H   0  0  0  0  0  0  0  0  0  0  0  0
    2.3972   58.7498   76.3637 H   0  0  0  0  0  0  0  0  0  0  0  0
    1.9514   62.8680   69.5774 H   0  0  0  0  0  0  0  0  0  0  0  0
    3.1890   63.6029   68.5027 H   0  0  0  0  0  0  0  0  0  0  0  0
    2.9419   61.8237   68.5027 H   0  0  0  0  0  0  0  0  0  0  0  0
    3.5283   58.5240   70.2996 H   0  0  0  0  0  0  0  0  0  0  0  0
    3.4026   59.8718   69.1187 H   0  0  0  0  0  0  0  0  0  0  0  0
    4.8514   58.8098   69.1187 H   0  0  0  0  0  0  0  0  0  0  0  0
  2  1  2  0
  3  2  1  0
  4  3  2  0
  5  4  1  0
  6  5  2  0
  7  6  1  0
  8  7  2  0
  8  3  1  0
  9  8  1  0
 10  9  2  0
 10  1  1  0
 11  5  1  0
 12 11  1  0
 13 12  1  0
 14 13  1  0
 15 14  1  0
 16 15  1  0
 16 11  1  0
 17 14  1  0
 18 17  2  0
 19 17  1  0
 20 19  1  0
 21 20  1  0
 22 21  1  0
 23 22  2  0
 24 23  1  0
 24 19  1  0
 25 23  1  0
 26 25  2  0
 27 26  1  0
 28 27  2  0
 28 22  1  0
 29  7  1  0
 31 30  1  0
 31  1  1  0
 32 10  1  0
 33 32  1  0
  2 34  1  0
  9 35  1  0
 12 36  1  0
 12 37  1  0
 13 38  1  0
 13 39  1  0
 15 40  1  0
 15 41  1  0
 16 42  1  0
 16 43  1  0
 19 44  1  6
 20 45  1  0
 20 46  1  0
 25 47  1  0
 26 48  1  0
 27 49  1  0
 28 50  1  0
 29 51  1  0
 29 52  1  0
 30 53  1  0
 30 54  1  0
 30 55  1  0
 33 56  1  0
 33 57  1  0
 33 58  1  0
M  END
>  <score>  (8) 
-6.912

$$$$
=
     RDKit          3D

 58 62  0  0  0  0  0  0  0  0999 V2000
    1.3340   64.1280   70.9970 C   0  0  0  0  0  0  0  0  0  0  0  0
    0.3860   63.8720   71.9970 C   0  0  0  0  0  0  0  0  0  0  0  0
    0.2260   62.6080   72.5540 C   0  0  0  0  0  0  0  0  0  0  0  0
   -0.7040   62.4310   73.4980 N   0  0  0  0  0  0  0  0  0  0  0  0
   -0.8660   61.2100   74.0290 C   0  0  0  0  0  0  0  0  0  0  0  0
   -0.1150   60.1600   73.6680 N   0  0  0  0  0  0  0  0  0  0  0  0
    0.8240   60.3500   72.7330 C   0  0  0  0  0  0  0  0  0  0  0  0
    1.0440   61.5750   72.1060 C   0  0  0  0  0  0  0  0  0  0  0  0
    2.0000   61.8110   71.0870 C   0  0  0  0  0  0  0  0  0  0  0  0
    2.1460   63.0820   70.5310 C   0  0  0  0  0  0  0  0  0  0  0  0
   -1.8250   61.0340   75.0030 N   0  0  0  0  0  0  0  0  0  0  0  0
   -2.0800   59.6770   75.4850 C   0  0  0  0  0  0  0  0  0  0  0  0
   -3.0340   59.6920   76.6920 C   0  0  0  0  0  0  0  0  0  0  0  0
   -4.2960   60.3880   76.4160 N   0  0  0  0  0  0  0  0  0  0  0  0
   -4.2560   61.4120   75.3620 C   0  0  0  0  0  0  0  0  0  0  0  0
   -2.8650   62.0480   75.1760 C   0  0  0  0  0  0  0  0  0  0  0  0
   -5.4380   60.0020   77.1090 C   0  0  0  0  0  0  0  0  0  0  0  0
   -5.3820   59.1530   78.0040 O   0  0  0  0  0  0  0  0  0  0  0  0
   -6.7630   60.6940   76.7560 C   0  0  2  0  0  0  0  0  0  0  0  0
   -7.1660   60.3770   75.3190 C   0  0  0  0  0  0  0  0  0  0  0  0
   -8.4700   60.9100   75.0340 O   0  0  0  0  0  0  0  0  0  0  0  0
   -8.5870   62.2020   75.4770 C   0  0  0  0  0  0  0  0  0  0  0  0
   -7.6930   62.7860   76.3790 C   0  0  0  0  0  0  0  0  0  0  0  0
   -6.6320   62.1110   76.9240 O   0  0  0  0  0  0  0  0  0  0  0  0
   -7.8510   64.1170   76.7580 C   0  0  0  0  0  0  0  0  0  0  0  0
   -8.9250   64.8580   76.2590 C   0  0  0  0  0  0  0  0  0  0  0  0
   -9.8330   64.2670   75.3810 C   0  0  0  0  0  0  0  0  0  0  0  0
   -9.6660   62.9370   74.9890 C   0  0  0  0  0  0  0  0  0  0  0  0
    1.5760   59.2110   72.4140 N   0  0  0  0  0  0  0  0  0  0  0  0
    0.3910   66.1640   70.1690 C   0  0  0  0  0  0  0  0  0  0  0  0
    1.5330   65.3540   70.4140 O   0  0  0  0  0  0  0  0  0  0  0  0
    3.0450   63.4020   69.5450 O   0  0  0  0  0  0  0  0  0  0  0  0
    4.4150   63.1150   69.7810 C   0  0  0  0  0  0  0  0  0  0  0  0
   -0.2507   64.6958   72.3519 H   0  0  0  0  0  0  0  0  0  0  0  0
    2.6327   60.9845   70.7312 H   0  0  0  0  0  0  0  0  0  0  0  0
   -2.5334   59.0867   74.6751 H   0  0  0  0  0  0  0  0  0  0  0  0
   -1.1247   59.2305   75.7982 H   0  0  0  0  0  0  0  0  0  0  0  0
   -3.2608   58.6529   76.9726 H   0  0  0  0  0  0  0  0  0  0  0  0
   -2.5290   60.2355   77.5042 H   0  0  0  0  0  0  0  0  0  0  0  0
   -4.5556   60.9457   74.4119 H   0  0  0  0  0  0  0  0  0  0  0  0
   -4.9418   62.2165   75.6661 H   0  0  0  0  0  0  0  0  0  0  0  0
   -2.8846   62.6940   74.2859 H   0  0  0  0  0  0  0  0  0  0  0  0
   -2.6301   62.6292   76.0799 H   0  0  0  0  0  0  0  0  0  0  0  0
   -7.5462   60.3188   77.4311 H   0  0  0  0  0  0  0  0  0  0  0  0
   -6.4337   60.8237   74.6305 H   0  0  0  0  0  0  0  0  0  0  0  0
   -7.1911   59.2850   75.1886 H   0  0  0  0  0  0  0  0  0  0  0  0
   -7.1323   64.5832   77.4481 H   0  0  0  0  0  0  0  0  0  0  0  0
   -9.0545   65.9084   76.5589 H   0  0  0  0  0  0  0  0  0  0  0  0
  -10.6829   64.8498   74.9962 H   0  0  0  0  0  0  0  0  0  0  0  0
  -10.3835   62.4712   74.2975 H   0  0  0  0  0  0  0  0  0  0  0  0
    2.3203   59.2674   71.7042 H   0  0  0  0  0  0  0  0  0  0  0  0
    1.3843   58.3176   72.8893 H   0  0  0  0  0  0  0  0  0  0  0  0
   -0.0494   66.4764   71.1274 H   0  0  0  0  0  0  0  0  0  0  0  0
    0.6889   67.0538   69.5950 H   0  0  0  0  0  0  0  0  0  0  0  0
   -0.3503   65.5887   69.5950 H   0  0  0  0  0  0  0  0  0  0  0  0
    4.6001   63.0762   70.8646 H   0  0  0  0  0  0  0  0  0  0  0  0
    4.6691   62.1441   69.3306 H   0  0  0  0  0  0  0  0  0  0  0  0
    5.0374   63.9023   69.3306 H   0  0  0  0  0  0  0  0  0  0  0  0
  2  1  2  0
  3  2  1  0
  4  3  2  0
  5  4  1  0
  6  5  2  0
  7  6  1  0
  8  7  2  0
  8  3  1  0
  9  8  1  0
 10  9  2  0
 10  1  1  0
 11  5  1  0
 12 11  1  0
 13 12  1  0
 14 13  1  0
 15 14  1  0
 16 15  1  0
 16 11  1  0
 17 14  1  0
 18 17  2  0
 19 17  1  0
 20 19  1  0
 21 20  1  0
 22 21  1  0
 23 22  2  0
 24 23  1  0
 24 19  1  0
 25 23  1  0
 26 25  2  0
 27 26  1  0
 28 27  2  0
 28 22  1  0
 29  7  1  0
 31 30  1  0
 31  1  1  0
 32 10  1  0
 33 32  1  0
  2 34  1  0
  9 35  1  0
 12 36  1  0
 12 37  1  0
 13 38  1  0
 13 39  1  0
 15 40  1  0
 15 41  1  0
 16 42  1  0
 16 43  1  0
 19 44  1  1
 20 45  1  0
 20 46  1  0
 25 47  1  0
 26 48  1  0
 27 49  1  0
 28 50  1  0
 29 51  1  0
 29 52  1  0
 30 53  1  0
 30 54  1  0
 30 55  1  0
 33 56  1  0
 33 57  1  0
 33 58  1  0
M  END
>  <score>  (9) 
-6.88

$$$$
